# generated using pymatgen
data_Fe4H230C294N41(ClO4)24
_symmetry_space_group_name_H-M   'P 1'
_cell_length_a   25.95790000
_cell_length_b   25.95790000
_cell_length_c   89.60600000
_cell_angle_alpha   90.00000000
_cell_angle_beta   90.00000000
_cell_angle_gamma   90.00000000
_symmetry_Int_Tables_number   1
_chemical_formula_structural   Fe4H230C294N41(ClO4)24
_chemical_formula_sum   'Fe32 H1840 C2352 N328 Cl192 O768'
_cell_volume   60377.64936337
_cell_formula_units_Z   8
loop_
 _symmetry_equiv_pos_site_id
 _symmetry_equiv_pos_as_xyz
  1  'x, y, z'
loop_
 _atom_site_type_symbol
 _atom_site_label
 _atom_site_symmetry_multiplicity
 _atom_site_fract_x
 _atom_site_fract_y
 _atom_site_fract_z
 _atom_site_occupancy
  Fe  Fe1  1  0.654320  0.032600  0.380540  1.0
  Fe  Fe2  1  0.845680  0.967400  0.880540  1.0
  Fe  Fe3  1  0.717400  0.904320  0.630540  1.0
  Fe  Fe4  1  0.782600  0.095680  0.130540  1.0
  Fe  Fe5  1  0.154320  0.532600  0.880540  1.0
  Fe  Fe6  1  0.345680  0.467400  0.380540  1.0
  Fe  Fe7  1  0.217400  0.404320  0.130540  1.0
  Fe  Fe8  1  0.282600  0.595680  0.630540  1.0
  Fe  Fe9  1  0.345680  0.967400  0.619460  1.0
  Fe  Fe10  1  0.154320  0.032600  0.119460  1.0
  Fe  Fe11  1  0.282600  0.095680  0.369460  1.0
  Fe  Fe12  1  0.217400  0.904320  0.869460  1.0
  Fe  Fe13  1  0.845680  0.467400  0.119460  1.0
  Fe  Fe14  1  0.654320  0.532600  0.619460  1.0
  Fe  Fe15  1  0.782600  0.595680  0.869460  1.0
  Fe  Fe16  1  0.717400  0.404320  0.369460  1.0
  Fe  Fe17  1  0.795000  0.598240  0.518640  1.0
  Fe  Fe18  1  0.705000  0.401760  0.018640  1.0
  Fe  Fe19  1  0.151760  0.045000  0.768640  1.0
  Fe  Fe20  1  0.348240  0.955000  0.268640  1.0
  Fe  Fe21  1  0.295000  0.098240  0.018640  1.0
  Fe  Fe22  1  0.205000  0.901760  0.518640  1.0
  Fe  Fe23  1  0.651760  0.545000  0.268640  1.0
  Fe  Fe24  1  0.848240  0.455000  0.768640  1.0
  Fe  Fe25  1  0.205000  0.401760  0.481360  1.0
  Fe  Fe26  1  0.295000  0.598240  0.981360  1.0
  Fe  Fe27  1  0.848240  0.955000  0.231360  1.0
  Fe  Fe28  1  0.651760  0.045000  0.731360  1.0
  Fe  Fe29  1  0.705000  0.901760  0.981360  1.0
  Fe  Fe30  1  0.795000  0.098240  0.481360  1.0
  Fe  Fe31  1  0.348240  0.455000  0.731360  1.0
  Fe  Fe32  1  0.151760  0.545000  0.231360  1.0
  H  H33  1  0.354300  0.786900  0.418500  1
  H  H34  1  0.145700  0.213100  0.918500  1
  H  H35  1  0.963100  0.604300  0.668500  1
  H  H36  1  0.536900  0.395700  0.168500  1
  H  H37  1  0.854300  0.286900  0.918500  1
  H  H38  1  0.645700  0.713100  0.418500  1
  H  H39  1  0.463100  0.104300  0.168500  1
  H  H40  1  0.036900  0.895700  0.668500  1
  H  H41  1  0.645700  0.213100  0.581500  1
  H  H42  1  0.854300  0.786900  0.081500  1
  H  H43  1  0.036900  0.395700  0.331500  1
  H  H44  1  0.463100  0.604300  0.831500  1
  H  H45  1  0.145700  0.713100  0.081500  1
  H  H46  1  0.354300  0.286900  0.581500  1
  H  H47  1  0.536900  0.895700  0.831500  1
  H  H48  1  0.963100  0.104300  0.331500  1
  H  H49  1  0.339100  0.780200  0.444200  1
  H  H50  1  0.160900  0.219800  0.944200  1
  H  H51  1  0.969800  0.589100  0.694200  1
  H  H52  1  0.530200  0.410900  0.194200  1
  H  H53  1  0.839100  0.280200  0.944200  1
  H  H54  1  0.660900  0.719800  0.444200  1
  H  H55  1  0.469800  0.089100  0.194200  1
  H  H56  1  0.030200  0.910900  0.694200  1
  H  H57  1  0.660900  0.219800  0.555800  1
  H  H58  1  0.839100  0.780200  0.055800  1
  H  H59  1  0.030200  0.410900  0.305800  1
  H  H60  1  0.469800  0.589100  0.805800  1
  H  H61  1  0.160900  0.719800  0.055800  1
  H  H62  1  0.339100  0.280200  0.555800  1
  H  H63  1  0.530200  0.910900  0.805800  1
  H  H64  1  0.969800  0.089100  0.305800  1
  H  H65  1  0.368400  0.784400  0.470400  1
  H  H66  1  0.131600  0.215600  0.970400  1
  H  H67  1  0.965600  0.618400  0.720400  1
  H  H68  1  0.534400  0.381600  0.220400  1
  H  H69  1  0.868400  0.284400  0.970400  1
  H  H70  1  0.631600  0.715600  0.470400  1
  H  H71  1  0.465600  0.118400  0.220400  1
  H  H72  1  0.034400  0.881600  0.720400  1
  H  H73  1  0.631600  0.215600  0.529600  1
  H  H74  1  0.868400  0.784400  0.029600  1
  H  H75  1  0.034400  0.381600  0.279600  1
  H  H76  1  0.465600  0.618400  0.779600  1
  H  H77  1  0.131600  0.715600  0.029600  1
  H  H78  1  0.368400  0.284400  0.529600  1
  H  H79  1  0.534400  0.881600  0.779600  1
  H  H80  1  0.965600  0.118400  0.279600  1
  H  H81  1  0.432000  0.800800  0.486700  1
  H  H82  1  0.068000  0.199200  0.986700  1
  H  H83  1  0.949200  0.682000  0.736700  1
  H  H84  1  0.550800  0.318000  0.236700  1
  H  H85  1  0.932000  0.300800  0.986700  1
  H  H86  1  0.568000  0.699200  0.486700  1
  H  H87  1  0.449200  0.182000  0.236700  1
  H  H88  1  0.050800  0.818000  0.736700  1
  H  H89  1  0.568000  0.199200  0.513300  1
  H  H90  1  0.932000  0.800800  0.013300  1
  H  H91  1  0.050800  0.318000  0.263300  1
  H  H92  1  0.449200  0.682000  0.763300  1
  H  H93  1  0.068000  0.699200  0.013300  1
  H  H94  1  0.432000  0.300800  0.513300  1
  H  H95  1  0.550800  0.818000  0.763300  1
  H  H96  1  0.949200  0.182000  0.263300  1
  H  H97  1  0.521000  0.828600  0.491300  1
  H  H98  1  0.979000  0.171400  0.991300  1
  H  H99  1  0.921400  0.771000  0.741300  1
  H  H100  1  0.578600  0.229000  0.241300  1
  H  H101  1  0.021000  0.328600  0.991300  1
  H  H102  1  0.479000  0.671400  0.491300  1
  H  H103  1  0.421400  0.271000  0.241300  1
  H  H104  1  0.078600  0.729000  0.741300  1
  H  H105  1  0.479000  0.171400  0.508700  1
  H  H106  1  0.021000  0.828600  0.008700  1
  H  H107  1  0.078600  0.229000  0.258700  1
  H  H108  1  0.421400  0.771000  0.758700  1
  H  H109  1  0.979000  0.671400  0.008700  1
  H  H110  1  0.521000  0.328600  0.508700  1
  H  H111  1  0.578600  0.729000  0.758700  1
  H  H112  1  0.921400  0.271000  0.258700  1
  H  H113  1  0.605000  0.846000  0.483100  1
  H  H114  1  0.895000  0.154000  0.983100  1
  H  H115  1  0.904000  0.855000  0.733100  1
  H  H116  1  0.596000  0.145000  0.233100  1
  H  H117  1  0.105000  0.346000  0.983100  1
  H  H118  1  0.395000  0.654000  0.483100  1
  H  H119  1  0.404000  0.355000  0.233100  1
  H  H120  1  0.096000  0.645000  0.733100  1
  H  H121  1  0.395000  0.154000  0.516900  1
  H  H122  1  0.105000  0.846000  0.016900  1
  H  H123  1  0.096000  0.145000  0.266900  1
  H  H124  1  0.404000  0.855000  0.766900  1
  H  H125  1  0.895000  0.654000  0.016900  1
  H  H126  1  0.605000  0.346000  0.516900  1
  H  H127  1  0.596000  0.645000  0.766900  1
  H  H128  1  0.904000  0.355000  0.266900  1
  H  H129  1  0.622200  0.846100  0.457300  1
  H  H130  1  0.877800  0.153900  0.957300  1
  H  H131  1  0.903900  0.872200  0.707300  1
  H  H132  1  0.596100  0.127800  0.207300  1
  H  H133  1  0.122200  0.346100  0.957300  1
  H  H134  1  0.377800  0.653900  0.457300  1
  H  H135  1  0.403900  0.372200  0.207300  1
  H  H136  1  0.096100  0.627800  0.707300  1
  H  H137  1  0.377800  0.153900  0.542700  1
  H  H138  1  0.122200  0.846100  0.042700  1
  H  H139  1  0.096100  0.127800  0.292700  1
  H  H140  1  0.403900  0.872200  0.792700  1
  H  H141  1  0.877800  0.653900  0.042700  1
  H  H142  1  0.622200  0.346100  0.542700  1
  H  H143  1  0.596100  0.627800  0.792700  1
  H  H144  1  0.903900  0.372200  0.292700  1
  H  H145  1  0.594600  0.835600  0.431100  1
  H  H146  1  0.905400  0.164400  0.931100  1
  H  H147  1  0.914400  0.844600  0.681100  1
  H  H148  1  0.585600  0.155400  0.181100  1
  H  H149  1  0.094600  0.335600  0.931100  1
  H  H150  1  0.405400  0.664400  0.431100  1
  H  H151  1  0.414400  0.344600  0.181100  1
  H  H152  1  0.085600  0.655400  0.681100  1
  H  H153  1  0.405400  0.164400  0.568900  1
  H  H154  1  0.094600  0.835600  0.068900  1
  H  H155  1  0.085600  0.155400  0.318900  1
  H  H156  1  0.414400  0.844600  0.818900  1
  H  H157  1  0.905400  0.664400  0.068900  1
  H  H158  1  0.594600  0.335600  0.568900  1
  H  H159  1  0.585600  0.655400  0.818900  1
  H  H160  1  0.914400  0.344600  0.318900  1
  H  H161  1  0.531200  0.819400  0.414700  1
  H  H162  1  0.968800  0.180600  0.914700  1
  H  H163  1  0.930600  0.781200  0.664700  1
  H  H164  1  0.569400  0.218800  0.164700  1
  H  H165  1  0.031200  0.319400  0.914700  1
  H  H166  1  0.468800  0.680600  0.414700  1
  H  H167  1  0.430600  0.281200  0.164700  1
  H  H168  1  0.069400  0.718800  0.664700  1
  H  H169  1  0.468800  0.180600  0.585300  1
  H  H170  1  0.031200  0.819400  0.085300  1
  H  H171  1  0.069400  0.218800  0.335300  1
  H  H172  1  0.430600  0.781200  0.835300  1
  H  H173  1  0.968800  0.680600  0.085300  1
  H  H174  1  0.531200  0.319400  0.585300  1
  H  H175  1  0.569400  0.718800  0.835300  1
  H  H176  1  0.930600  0.281200  0.335300  1
  H  H177  1  0.437600  0.805900  0.410000  1
  H  H178  1  0.062400  0.194100  0.910000  1
  H  H179  1  0.944100  0.687600  0.660000  1
  H  H180  1  0.555900  0.312400  0.160000  1
  H  H181  1  0.937600  0.305900  0.910000  1
  H  H182  1  0.562400  0.694100  0.410000  1
  H  H183  1  0.444100  0.187600  0.160000  1
  H  H184  1  0.055900  0.812400  0.660000  1
  H  H185  1  0.562400  0.194100  0.590000  1
  H  H186  1  0.937600  0.805900  0.090000  1
  H  H187  1  0.055900  0.312400  0.340000  1
  H  H188  1  0.444100  0.687600  0.840000  1
  H  H189  1  0.062400  0.694100  0.090000  1
  H  H190  1  0.437600  0.305900  0.590000  1
  H  H191  1  0.555900  0.812400  0.840000  1
  H  H192  1  0.944100  0.187600  0.340000  1
  H  H193  1  0.924900  0.766300  0.336500  1
  H  H194  1  0.575100  0.233700  0.836500  1
  H  H195  1  0.983700  0.174900  0.586500  1
  H  H196  1  0.516300  0.825100  0.086500  1
  H  H197  1  0.424900  0.266300  0.836500  1
  H  H198  1  0.075100  0.733700  0.336500  1
  H  H199  1  0.483700  0.674900  0.086500  1
  H  H200  1  0.016300  0.325100  0.586500  1
  H  H201  1  0.075100  0.233700  0.663500  1
  H  H202  1  0.424900  0.766300  0.163500  1
  H  H203  1  0.016300  0.825100  0.413500  1
  H  H204  1  0.483700  0.174900  0.913500  1
  H  H205  1  0.575100  0.733700  0.163500  1
  H  H206  1  0.924900  0.266300  0.663500  1
  H  H207  1  0.516300  0.325100  0.913500  1
  H  H208  1  0.983700  0.674900  0.413500  1
  H  H209  1  0.925600  0.827900  0.337000  1
  H  H210  1  0.574400  0.172100  0.837000  1
  H  H211  1  0.922100  0.175600  0.587000  1
  H  H212  1  0.577900  0.824400  0.087000  1
  H  H213  1  0.425600  0.327900  0.837000  1
  H  H214  1  0.074400  0.672100  0.337000  1
  H  H215  1  0.422100  0.675600  0.087000  1
  H  H216  1  0.077900  0.324400  0.587000  1
  H  H217  1  0.074400  0.172100  0.663000  1
  H  H218  1  0.425600  0.827900  0.163000  1
  H  H219  1  0.077900  0.824400  0.413000  1
  H  H220  1  0.422100  0.175600  0.913000  1
  H  H221  1  0.574400  0.672100  0.163000  1
  H  H222  1  0.925600  0.327900  0.663000  1
  H  H223  1  0.577900  0.324400  0.913000  1
  H  H224  1  0.922100  0.675600  0.413000  1
  H  H225  1  0.939400  0.798300  0.321800  1
  H  H226  1  0.560600  0.201700  0.821800  1
  H  H227  1  0.951700  0.189400  0.571800  1
  H  H228  1  0.548300  0.810600  0.071800  1
  H  H229  1  0.439400  0.298300  0.821800  1
  H  H230  1  0.060600  0.701700  0.321800  1
  H  H231  1  0.451700  0.689400  0.071800  1
  H  H232  1  0.048300  0.310600  0.571800  1
  H  H233  1  0.060600  0.201700  0.678200  1
  H  H234  1  0.439400  0.798300  0.178200  1
  H  H235  1  0.048300  0.810600  0.428200  1
  H  H236  1  0.451700  0.189400  0.928200  1
  H  H237  1  0.560600  0.701700  0.178200  1
  H  H238  1  0.939400  0.298300  0.678200  1
  H  H239  1  0.548300  0.310600  0.928200  1
  H  H240  1  0.951700  0.689400  0.428200  1
  H  H241  1  0.393300  0.123900  0.450200  1
  H  H242  1  0.106700  0.876100  0.950200  1
  H  H243  1  0.626100  0.643300  0.700200  1
  H  H244  1  0.873900  0.356700  0.200200  1
  H  H245  1  0.893300  0.623900  0.950200  1
  H  H246  1  0.606700  0.376100  0.450200  1
  H  H247  1  0.126100  0.143300  0.200200  1
  H  H248  1  0.373900  0.856700  0.700200  1
  H  H249  1  0.606700  0.876100  0.549800  1
  H  H250  1  0.893300  0.123900  0.049800  1
  H  H251  1  0.373900  0.356700  0.299800  1
  H  H252  1  0.126100  0.643300  0.799800  1
  H  H253  1  0.106700  0.376100  0.049800  1
  H  H254  1  0.393300  0.623900  0.549800  1
  H  H255  1  0.873900  0.856700  0.799800  1
  H  H256  1  0.626100  0.143300  0.299800  1
  H  H257  1  0.443300  0.088900  0.447700  1
  H  H258  1  0.056700  0.911100  0.947700  1
  H  H259  1  0.661100  0.693300  0.697700  1
  H  H260  1  0.838900  0.306700  0.197700  1
  H  H261  1  0.943300  0.588900  0.947700  1
  H  H262  1  0.556700  0.411100  0.447700  1
  H  H263  1  0.161100  0.193300  0.197700  1
  H  H264  1  0.338900  0.806700  0.697700  1
  H  H265  1  0.556700  0.911100  0.552300  1
  H  H266  1  0.943300  0.088900  0.052300  1
  H  H267  1  0.338900  0.306700  0.302300  1
  H  H268  1  0.161100  0.693300  0.802300  1
  H  H269  1  0.056700  0.411100  0.052300  1
  H  H270  1  0.443300  0.588900  0.552300  1
  H  H271  1  0.838900  0.806700  0.802300  1
  H  H272  1  0.661100  0.193300  0.302300  1
  H  H273  1  0.387100  0.064600  0.445600  1
  H  H274  1  0.112900  0.935400  0.945600  1
  H  H275  1  0.685400  0.637100  0.695600  1
  H  H276  1  0.814600  0.362900  0.195600  1
  H  H277  1  0.887100  0.564600  0.945600  1
  H  H278  1  0.612900  0.435400  0.445600  1
  H  H279  1  0.185400  0.137100  0.195600  1
  H  H280  1  0.314600  0.862900  0.695600  1
  H  H281  1  0.612900  0.935400  0.554400  1
  H  H282  1  0.887100  0.064600  0.054400  1
  H  H283  1  0.314600  0.362900  0.304400  1
  H  H284  1  0.185400  0.637100  0.804400  1
  H  H285  1  0.112900  0.435400  0.054400  1
  H  H286  1  0.387100  0.564600  0.554400  1
  H  H287  1  0.814600  0.862900  0.804400  1
  H  H288  1  0.685400  0.137100  0.304400  1
  H  H289  1  0.489700  0.121100  0.320800  1
  H  H290  1  0.010300  0.878900  0.820800  1
  H  H291  1  0.628900  0.739700  0.570800  1
  H  H292  1  0.871100  0.260300  0.070800  1
  H  H293  1  0.989700  0.621100  0.820800  1
  H  H294  1  0.510300  0.378900  0.320800  1
  H  H295  1  0.128900  0.239700  0.070800  1
  H  H296  1  0.371100  0.760300  0.570800  1
  H  H297  1  0.510300  0.878900  0.679200  1
  H  H298  1  0.989700  0.121100  0.179200  1
  H  H299  1  0.371100  0.260300  0.429200  1
  H  H300  1  0.128900  0.739700  0.929200  1
  H  H301  1  0.010300  0.378900  0.179200  1
  H  H302  1  0.489700  0.621100  0.679200  1
  H  H303  1  0.871100  0.760300  0.929200  1
  H  H304  1  0.628900  0.239700  0.429200  1
  H  H305  1  0.485300  0.061500  0.316500  1
  H  H306  1  0.014700  0.938500  0.816500  1
  H  H307  1  0.688500  0.735300  0.566500  1
  H  H308  1  0.811500  0.264700  0.066500  1
  H  H309  1  0.985300  0.561500  0.816500  1
  H  H310  1  0.514700  0.438500  0.316500  1
  H  H311  1  0.188500  0.235300  0.066500  1
  H  H312  1  0.311500  0.764700  0.566500  1
  H  H313  1  0.514700  0.938500  0.683500  1
  H  H314  1  0.985300  0.061500  0.183500  1
  H  H315  1  0.311500  0.264700  0.433500  1
  H  H316  1  0.188500  0.735300  0.933500  1
  H  H317  1  0.014700  0.438500  0.183500  1
  H  H318  1  0.485300  0.561500  0.683500  1
  H  H319  1  0.811500  0.764700  0.933500  1
  H  H320  1  0.688500  0.235300  0.433500  1
  H  H321  1  0.538200  0.083900  0.322900  1
  H  H322  1  0.961800  0.916100  0.822900  1
  H  H323  1  0.666100  0.788200  0.572900  1
  H  H324  1  0.833900  0.211800  0.072900  1
  H  H325  1  0.038200  0.583900  0.822900  1
  H  H326  1  0.461800  0.416100  0.322900  1
  H  H327  1  0.166100  0.288200  0.072900  1
  H  H328  1  0.333900  0.711800  0.572900  1
  H  H329  1  0.461800  0.916100  0.677100  1
  H  H330  1  0.038200  0.083900  0.177100  1
  H  H331  1  0.333900  0.211800  0.427100  1
  H  H332  1  0.166100  0.788200  0.927100  1
  H  H333  1  0.961800  0.416100  0.177100  1
  H  H334  1  0.538200  0.583900  0.677100  1
  H  H335  1  0.833900  0.711800  0.927100  1
  H  H336  1  0.666100  0.288200  0.427100  1
  H  H337  1  0.529100  0.729500  0.555200  1
  H  H338  1  0.970900  0.270500  0.055200  1
  H  H339  1  0.020500  0.779100  0.805200  1
  H  H340  1  0.479500  0.220900  0.305200  1
  H  H341  1  0.029100  0.229500  0.055200  1
  H  H342  1  0.470900  0.770500  0.555200  1
  H  H343  1  0.520500  0.279100  0.305200  1
  H  H344  1  0.979500  0.720900  0.805200  1
  H  H345  1  0.470900  0.270500  0.444800  1
  H  H346  1  0.029100  0.729500  0.944800  1
  H  H347  1  0.979500  0.220900  0.194800  1
  H  H348  1  0.520500  0.779100  0.694800  1
  H  H349  1  0.970900  0.770500  0.944800  1
  H  H350  1  0.529100  0.229500  0.444800  1
  H  H351  1  0.479500  0.720900  0.694800  1
  H  H352  1  0.020500  0.279100  0.194800  1
  H  H353  1  0.503200  0.785400  0.555200  1
  H  H354  1  0.996800  0.214600  0.055200  1
  H  H355  1  0.964600  0.753200  0.805200  1
  H  H356  1  0.535400  0.246800  0.305200  1
  H  H357  1  0.003200  0.285400  0.055200  1
  H  H358  1  0.496800  0.714600  0.555200  1
  H  H359  1  0.464600  0.253200  0.305200  1
  H  H360  1  0.035400  0.746800  0.805200  1
  H  H361  1  0.496800  0.214600  0.444800  1
  H  H362  1  0.003200  0.785400  0.944800  1
  H  H363  1  0.035400  0.246800  0.194800  1
  H  H364  1  0.464600  0.753200  0.694800  1
  H  H365  1  0.996800  0.714600  0.944800  1
  H  H366  1  0.503200  0.285400  0.444800  1
  H  H367  1  0.535400  0.746800  0.694800  1
  H  H368  1  0.964600  0.253200  0.194800  1
  H  H369  1  0.467700  0.735000  0.555200  1
  H  H370  1  0.032300  0.265000  0.055200  1
  H  H371  1  0.015000  0.717700  0.805200  1
  H  H372  1  0.485000  0.282300  0.305200  1
  H  H373  1  0.967700  0.235000  0.055200  1
  H  H374  1  0.532300  0.765000  0.555200  1
  H  H375  1  0.515000  0.217700  0.305200  1
  H  H376  1  0.985000  0.782300  0.805200  1
  H  H377  1  0.532300  0.265000  0.444800  1
  H  H378  1  0.967700  0.735000  0.944800  1
  H  H379  1  0.985000  0.282300  0.194800  1
  H  H380  1  0.515000  0.717700  0.694800  1
  H  H381  1  0.032300  0.765000  0.944800  1
  H  H382  1  0.467700  0.235000  0.444800  1
  H  H383  1  0.485000  0.782300  0.694800  1
  H  H384  1  0.015000  0.217700  0.194800  1
  H  H385  1  0.796700  0.822800  0.336800  1
  H  H386  1  0.703300  0.177200  0.836800  1
  H  H387  1  0.927200  0.046700  0.586800  1
  H  H388  1  0.572800  0.953300  0.086800  1
  H  H389  1  0.296700  0.322800  0.836800  1
  H  H390  1  0.203300  0.677200  0.336800  1
  H  H391  1  0.427200  0.546700  0.086800  1
  H  H392  1  0.072800  0.453300  0.586800  1
  H  H393  1  0.203300  0.177200  0.663200  1
  H  H394  1  0.296700  0.822800  0.163200  1
  H  H395  1  0.072800  0.953300  0.413200  1
  H  H396  1  0.427200  0.046700  0.913200  1
  H  H397  1  0.703300  0.677200  0.163200  1
  H  H398  1  0.796700  0.322800  0.663200  1
  H  H399  1  0.572800  0.453300  0.913200  1
  H  H400  1  0.927200  0.546700  0.413200  1
  H  H401  1  0.741500  0.846100  0.341000  1
  H  H402  1  0.758500  0.153900  0.841000  1
  H  H403  1  0.903900  0.991500  0.591000  1
  H  H404  1  0.596100  0.008500  0.091000  1
  H  H405  1  0.241500  0.346100  0.841000  1
  H  H406  1  0.258500  0.653900  0.341000  1
  H  H407  1  0.403900  0.491500  0.091000  1
  H  H408  1  0.096100  0.508500  0.591000  1
  H  H409  1  0.258500  0.153900  0.659000  1
  H  H410  1  0.241500  0.846100  0.159000  1
  H  H411  1  0.096100  0.008500  0.409000  1
  H  H412  1  0.403900  0.991500  0.909000  1
  H  H413  1  0.758500  0.653900  0.159000  1
  H  H414  1  0.741500  0.346100  0.659000  1
  H  H415  1  0.596100  0.508500  0.909000  1
  H  H416  1  0.903900  0.491500  0.409000  1
  H  H417  1  0.745500  0.790700  0.333333  1
  H  H418  1  0.754500  0.209300  0.833333  1
  H  H419  1  0.959300  0.995500  0.583333  1
  H  H420  1  0.540700  0.004500  0.083333  1
  H  H421  1  0.245500  0.290700  0.833333  1
  H  H422  1  0.254500  0.709300  0.333333  1
  H  H423  1  0.459300  0.495500  0.083333  1
  H  H424  1  0.040700  0.504500  0.583333  1
  H  H425  1  0.254500  0.209300  0.666667  1
  H  H426  1  0.245500  0.790700  0.166667  1
  H  H427  1  0.040700  0.004500  0.416667  1
  H  H428  1  0.459300  0.995500  0.916667  1
  H  H429  1  0.754500  0.709300  0.166667  1
  H  H430  1  0.745500  0.290700  0.666667  1
  H  H431  1  0.540700  0.504500  0.916667  1
  H  H432  1  0.959300  0.495500  0.416667  1
  H  H433  1  0.835000  0.792700  0.349800  1
  H  H434  1  0.665000  0.207300  0.849800  1
  H  H435  1  0.957300  0.085000  0.599800  1
  H  H436  1  0.542700  0.915000  0.099800  1
  H  H437  1  0.335000  0.292700  0.849800  1
  H  H438  1  0.165000  0.707300  0.349800  1
  H  H439  1  0.457300  0.585000  0.099800  1
  H  H440  1  0.042700  0.415000  0.599800  1
  H  H441  1  0.165000  0.207300  0.650200  1
  H  H442  1  0.335000  0.792700  0.150200  1
  H  H443  1  0.042700  0.915000  0.400200  1
  H  H444  1  0.457300  0.085000  0.900200  1
  H  H445  1  0.665000  0.707300  0.150200  1
  H  H446  1  0.835000  0.292700  0.650200  1
  H  H447  1  0.542700  0.415000  0.900200  1
  H  H448  1  0.957300  0.585000  0.400200  1
  H  H449  1  0.783900  0.823600  0.345300  1
  H  H450  1  0.716100  0.176400  0.845300  1
  H  H451  1  0.926400  0.033900  0.595300  1
  H  H452  1  0.573600  0.966100  0.095300  1
  H  H453  1  0.283900  0.323600  0.845300  1
  H  H454  1  0.216100  0.676400  0.345300  1
  H  H455  1  0.426400  0.533900  0.095300  1
  H  H456  1  0.073600  0.466100  0.595300  1
  H  H457  1  0.216100  0.176400  0.654700  1
  H  H458  1  0.283900  0.823600  0.154700  1
  H  H459  1  0.073600  0.966100  0.404700  1
  H  H460  1  0.426400  0.033900  0.904700  1
  H  H461  1  0.716100  0.676400  0.154700  1
  H  H462  1  0.783900  0.323600  0.654700  1
  H  H463  1  0.573600  0.466100  0.904700  1
  H  H464  1  0.926400  0.533900  0.404700  1
  H  H465  1  0.783800  0.762000  0.345400  1
  H  H466  1  0.716200  0.238000  0.845400  1
  H  H467  1  0.988000  0.033800  0.595400  1
  H  H468  1  0.512000  0.966200  0.095400  1
  H  H469  1  0.283800  0.262000  0.845400  1
  H  H470  1  0.216200  0.738000  0.345400  1
  H  H471  1  0.488000  0.533800  0.095400  1
  H  H472  1  0.012000  0.466200  0.595400  1
  H  H473  1  0.216200  0.238000  0.654600  1
  H  H474  1  0.283800  0.762000  0.154600  1
  H  H475  1  0.012000  0.966200  0.404600  1
  H  H476  1  0.488000  0.033800  0.904600  1
  H  H477  1  0.716200  0.738000  0.154600  1
  H  H478  1  0.783800  0.262000  0.654600  1
  H  H479  1  0.512000  0.466200  0.904600  1
  H  H480  1  0.988000  0.533800  0.404600  1
  H  H481  1  0.488000  0.768600  0.556000  1
  H  H482  1  0.012000  0.231400  0.056000  1
  H  H483  1  0.981400  0.738000  0.806000  1
  H  H484  1  0.518600  0.262000  0.306000  1
  H  H485  1  0.988000  0.268600  0.056000  1
  H  H486  1  0.512000  0.731400  0.556000  1
  H  H487  1  0.481400  0.238000  0.306000  1
  H  H488  1  0.018600  0.762000  0.806000  1
  H  H489  1  0.512000  0.231400  0.444000  1
  H  H490  1  0.988000  0.768600  0.944000  1
  H  H491  1  0.018600  0.262000  0.194000  1
  H  H492  1  0.481400  0.738000  0.694000  1
  H  H493  1  0.012000  0.731400  0.944000  1
  H  H494  1  0.488000  0.268600  0.444000  1
  H  H495  1  0.518600  0.762000  0.694000  1
  H  H496  1  0.981400  0.238000  0.194000  1
  H  H497  1  0.445800  0.724600  0.558800  1
  H  H498  1  0.054200  0.275400  0.058800  1
  H  H499  1  0.025400  0.695800  0.808800  1
  H  H500  1  0.474600  0.304200  0.308800  1
  H  H501  1  0.945800  0.224600  0.058800  1
  H  H502  1  0.554200  0.775400  0.558800  1
  H  H503  1  0.525400  0.195800  0.308800  1
  H  H504  1  0.974600  0.804200  0.808800  1
  H  H505  1  0.554200  0.275400  0.441200  1
  H  H506  1  0.945800  0.724600  0.941200  1
  H  H507  1  0.974600  0.304200  0.191200  1
  H  H508  1  0.525400  0.695800  0.691200  1
  H  H509  1  0.054200  0.775400  0.941200  1
  H  H510  1  0.445800  0.224600  0.441200  1
  H  H511  1  0.474600  0.804200  0.691200  1
  H  H512  1  0.025400  0.195800  0.191200  1
  H  H513  1  0.505300  0.709600  0.557000  1
  H  H514  1  0.994700  0.290400  0.057000  1
  H  H515  1  0.040400  0.755300  0.807000  1
  H  H516  1  0.459600  0.244700  0.307000  1
  H  H517  1  0.005300  0.209600  0.057000  1
  H  H518  1  0.494700  0.790400  0.557000  1
  H  H519  1  0.540400  0.255300  0.307000  1
  H  H520  1  0.959600  0.744700  0.807000  1
  H  H521  1  0.494700  0.290400  0.443000  1
  H  H522  1  0.005300  0.709600  0.943000  1
  H  H523  1  0.959600  0.244700  0.193000  1
  H  H524  1  0.540400  0.755300  0.693000  1
  H  H525  1  0.994700  0.790400  0.943000  1
  H  H526  1  0.505300  0.209600  0.443000  1
  H  H527  1  0.459600  0.744700  0.693000  1
  H  H528  1  0.040400  0.255300  0.193000  1
  H  H529  1  0.948500  0.409300  0.453500  1
  H  H530  1  0.551500  0.590700  0.953500  1
  H  H531  1  0.340700  0.198500  0.703500  1
  H  H532  1  0.159300  0.801500  0.203500  1
  H  H533  1  0.448500  0.909300  0.953500  1
  H  H534  1  0.051500  0.090700  0.453500  1
  H  H535  1  0.840700  0.698500  0.203500  1
  H  H536  1  0.659300  0.301500  0.703500  1
  H  H537  1  0.051500  0.590700  0.546500  1
  H  H538  1  0.448500  0.409300  0.046500  1
  H  H539  1  0.659300  0.801500  0.296500  1
  H  H540  1  0.840700  0.198500  0.796500  1
  H  H541  1  0.551500  0.090700  0.046500  1
  H  H542  1  0.948500  0.909300  0.546500  1
  H  H543  1  0.159300  0.301500  0.796500  1
  H  H544  1  0.340700  0.698500  0.296500  1
  H  H545  1  0.890800  0.389200  0.456100  1
  H  H546  1  0.609200  0.610800  0.956100  1
  H  H547  1  0.360800  0.140800  0.706100  1
  H  H548  1  0.139200  0.859200  0.206100  1
  H  H549  1  0.390800  0.889200  0.956100  1
  H  H550  1  0.109200  0.110800  0.456100  1
  H  H551  1  0.860800  0.640800  0.206100  1
  H  H552  1  0.639200  0.359200  0.706100  1
  H  H553  1  0.109200  0.610800  0.543900  1
  H  H554  1  0.390800  0.389200  0.043900  1
  H  H555  1  0.639200  0.859200  0.293900  1
  H  H556  1  0.860800  0.140800  0.793900  1
  H  H557  1  0.609200  0.110800  0.043900  1
  H  H558  1  0.890800  0.889200  0.543900  1
  H  H559  1  0.139200  0.359200  0.793900  1
  H  H560  1  0.360800  0.640800  0.293900  1
  H  H561  1  0.935900  0.370900  0.467000  1
  H  H562  1  0.564100  0.629100  0.967000  1
  H  H563  1  0.379100  0.185900  0.717000  1
  H  H564  1  0.120900  0.814100  0.217000  1
  H  H565  1  0.435900  0.870900  0.967000  1
  H  H566  1  0.064100  0.129100  0.467000  1
  H  H567  1  0.879100  0.685900  0.217000  1
  H  H568  1  0.620900  0.314100  0.717000  1
  H  H569  1  0.064100  0.629100  0.533000  1
  H  H570  1  0.435900  0.370900  0.033000  1
  H  H571  1  0.620900  0.814100  0.283000  1
  H  H572  1  0.879100  0.185900  0.783000  1
  H  H573  1  0.564100  0.129100  0.033000  1
  H  H574  1  0.935900  0.870900  0.533000  1
  H  H575  1  0.120900  0.314100  0.783000  1
  H  H576  1  0.379100  0.685900  0.283000  1
  H  H577  1  0.943200  0.475600  0.485000  1
  H  H578  1  0.556800  0.524400  0.985000  1
  H  H579  1  0.274400  0.193200  0.735000  1
  H  H580  1  0.225600  0.806800  0.235000  1
  H  H581  1  0.443200  0.975600  0.985000  1
  H  H582  1  0.056800  0.024400  0.485000  1
  H  H583  1  0.774400  0.693200  0.235000  1
  H  H584  1  0.725600  0.306800  0.735000  1
  H  H585  1  0.056800  0.524400  0.515000  1
  H  H586  1  0.443200  0.475600  0.015000  1
  H  H587  1  0.725600  0.806800  0.265000  1
  H  H588  1  0.774400  0.193200  0.765000  1
  H  H589  1  0.556800  0.024400  0.015000  1
  H  H590  1  0.943200  0.975600  0.515000  1
  H  H591  1  0.225600  0.306800  0.765000  1
  H  H592  1  0.274400  0.693200  0.265000  1
  H  H593  1  0.907200  0.513600  0.475500  1
  H  H594  1  0.592800  0.486400  0.975500  1
  H  H595  1  0.236400  0.157200  0.725500  1
  H  H596  1  0.263600  0.842800  0.225500  1
  H  H597  1  0.407200  0.013600  0.975500  1
  H  H598  1  0.092800  0.986400  0.475500  1
  H  H599  1  0.736400  0.657200  0.225500  1
  H  H600  1  0.763600  0.342800  0.725500  1
  H  H601  1  0.092800  0.486400  0.524500  1
  H  H602  1  0.407200  0.513600  0.024500  1
  H  H603  1  0.763600  0.842800  0.274500  1
  H  H604  1  0.736400  0.157200  0.774500  1
  H  H605  1  0.592800  0.986400  0.024500  1
  H  H606  1  0.907200  0.013600  0.524500  1
  H  H607  1  0.263600  0.342800  0.774500  1
  H  H608  1  0.236400  0.657200  0.274500  1
  H  H609  1  0.932200  0.532800  0.490800  1
  H  H610  1  0.567800  0.467200  0.990800  1
  H  H611  1  0.217200  0.182200  0.740800  1
  H  H612  1  0.282800  0.817800  0.240800  1
  H  H613  1  0.432200  0.032800  0.990800  1
  H  H614  1  0.067800  0.967200  0.490800  1
  H  H615  1  0.717200  0.682200  0.240800  1
  H  H616  1  0.782800  0.317800  0.740800  1
  H  H617  1  0.067800  0.467200  0.509200  1
  H  H618  1  0.432200  0.532800  0.009200  1
  H  H619  1  0.782800  0.817800  0.259200  1
  H  H620  1  0.717200  0.182200  0.759200  1
  H  H621  1  0.567800  0.967200  0.009200  1
  H  H622  1  0.932200  0.032800  0.509200  1
  H  H623  1  0.282800  0.317800  0.759200  1
  H  H624  1  0.217200  0.682200  0.259200  1
  H  H625  1  0.730200  0.053800  0.354300  1.0
  H  H626  1  0.769800  0.946200  0.854300  1.0
  H  H627  1  0.696200  0.980200  0.604300  1.0
  H  H628  1  0.803800  0.019800  0.104300  1.0
  H  H629  1  0.230200  0.553800  0.854300  1.0
  H  H630  1  0.269800  0.446200  0.354300  1.0
  H  H631  1  0.196200  0.480200  0.104300  1.0
  H  H632  1  0.303800  0.519800  0.604300  1.0
  H  H633  1  0.269800  0.946200  0.645700  1.0
  H  H634  1  0.230200  0.053800  0.145700  1.0
  H  H635  1  0.303800  0.019800  0.395700  1.0
  H  H636  1  0.196200  0.980200  0.895700  1.0
  H  H637  1  0.769800  0.446200  0.145700  1.0
  H  H638  1  0.730200  0.553800  0.645700  1.0
  H  H639  1  0.803800  0.519800  0.895700  1.0
  H  H640  1  0.696200  0.480200  0.395700  1.0
  H  H641  1  0.726300  0.045500  0.328500  1.0
  H  H642  1  0.773700  0.954500  0.828500  1.0
  H  H643  1  0.704500  0.976300  0.578500  1.0
  H  H644  1  0.795500  0.023700  0.078500  1.0
  H  H645  1  0.226300  0.545500  0.828500  1.0
  H  H646  1  0.273700  0.454500  0.328500  1.0
  H  H647  1  0.204500  0.476300  0.078500  1.0
  H  H648  1  0.295500  0.523700  0.578500  1.0
  H  H649  1  0.273700  0.954500  0.671500  1.0
  H  H650  1  0.226300  0.045500  0.171500  1.0
  H  H651  1  0.295500  0.023700  0.421500  1.0
  H  H652  1  0.204500  0.976300  0.921500  1.0
  H  H653  1  0.773700  0.454500  0.171500  1.0
  H  H654  1  0.726300  0.545500  0.671500  1.0
  H  H655  1  0.795500  0.523700  0.921500  1.0
  H  H656  1  0.704500  0.476300  0.421500  1.0
  H  H657  1  0.651000  0.018700  0.316900  1.0
  H  H658  1  0.849000  0.981300  0.816900  1.0
  H  H659  1  0.731300  0.901000  0.566900  1.0
  H  H660  1  0.768700  0.099000  0.066900  1.0
  H  H661  1  0.151000  0.518700  0.816900  1.0
  H  H662  1  0.349000  0.481300  0.316900  1.0
  H  H663  1  0.231300  0.401000  0.066900  1.0
  H  H664  1  0.268700  0.599000  0.566900  1.0
  H  H665  1  0.349000  0.981300  0.683100  1.0
  H  H666  1  0.151000  0.018700  0.183100  1.0
  H  H667  1  0.268700  0.099000  0.433100  1.0
  H  H668  1  0.231300  0.901000  0.933100  1.0
  H  H669  1  0.849000  0.481300  0.183100  1.0
  H  H670  1  0.651000  0.518700  0.683100  1.0
  H  H671  1  0.768700  0.599000  0.933100  1.0
  H  H672  1  0.731300  0.401000  0.433100  1.0
  H  H673  1  0.579800  0.995900  0.331900  1.0
  H  H674  1  0.920200  0.004100  0.831900  1.0
  H  H675  1  0.754100  0.829800  0.581900  1.0
  H  H676  1  0.745900  0.170200  0.081900  1.0
  H  H677  1  0.079800  0.495900  0.831900  1.0
  H  H678  1  0.420200  0.504100  0.331900  1.0
  H  H679  1  0.254100  0.329800  0.081900  1.0
  H  H680  1  0.245900  0.670200  0.581900  1.0
  H  H681  1  0.420200  0.004100  0.668100  1.0
  H  H682  1  0.079800  0.995900  0.168100  1.0
  H  H683  1  0.245900  0.170200  0.418100  1.0
  H  H684  1  0.254100  0.829800  0.918100  1.0
  H  H685  1  0.920200  0.504100  0.168100  1.0
  H  H686  1  0.579800  0.495900  0.668100  1.0
  H  H687  1  0.745900  0.670200  0.918100  1.0
  H  H688  1  0.754100  0.329800  0.418100  1.0
  H  H689  1  0.541200  0.990400  0.358700  1.0
  H  H690  1  0.958800  0.009600  0.858700  1.0
  H  H691  1  0.759600  0.791200  0.608700  1.0
  H  H692  1  0.740400  0.208800  0.108700  1.0
  H  H693  1  0.041200  0.490400  0.858700  1.0
  H  H694  1  0.458800  0.509600  0.358700  1.0
  H  H695  1  0.259600  0.291200  0.108700  1.0
  H  H696  1  0.240400  0.708800  0.608700  1.0
  H  H697  1  0.458800  0.009600  0.641300  1.0
  H  H698  1  0.041200  0.990400  0.141300  1.0
  H  H699  1  0.240400  0.208800  0.391300  1.0
  H  H700  1  0.259600  0.791200  0.891300  1.0
  H  H701  1  0.958800  0.509600  0.141300  1.0
  H  H702  1  0.541200  0.490400  0.641300  1.0
  H  H703  1  0.740400  0.708800  0.891300  1.0
  H  H704  1  0.759600  0.291200  0.391300  1.0
  H  H705  1  0.575200  0.926100  0.395100  1.0
  H  H706  1  0.924800  0.073900  0.895100  1.0
  H  H707  1  0.823900  0.825200  0.645100  1.0
  H  H708  1  0.676100  0.174800  0.145100  1.0
  H  H709  1  0.075200  0.426100  0.895100  1.0
  H  H710  1  0.424800  0.573900  0.395100  1.0
  H  H711  1  0.323900  0.325200  0.145100  1.0
  H  H712  1  0.176100  0.674800  0.645100  1.0
  H  H713  1  0.424800  0.073900  0.604900  1.0
  H  H714  1  0.075200  0.926100  0.104900  1.0
  H  H715  1  0.176100  0.174800  0.354900  1.0
  H  H716  1  0.323900  0.825200  0.854900  1.0
  H  H717  1  0.924800  0.573900  0.104900  1.0
  H  H718  1  0.575200  0.426100  0.604900  1.0
  H  H719  1  0.676100  0.674800  0.854900  1.0
  H  H720  1  0.823900  0.325200  0.354900  1.0
  H  H721  1  0.506900  0.908000  0.410800  1.0
  H  H722  1  0.993100  0.092000  0.910800  1.0
  H  H723  1  0.842000  0.756900  0.660800  1.0
  H  H724  1  0.658000  0.243100  0.160800  1.0
  H  H725  1  0.006900  0.408000  0.910800  1.0
  H  H726  1  0.493100  0.592000  0.410800  1.0
  H  H727  1  0.342000  0.256900  0.160800  1.0
  H  H728  1  0.158000  0.743100  0.660800  1.0
  H  H729  1  0.493100  0.092000  0.589200  1.0
  H  H730  1  0.006900  0.908000  0.089200  1.0
  H  H731  1  0.158000  0.243100  0.339200  1.0
  H  H732  1  0.342000  0.756900  0.839200  1.0
  H  H733  1  0.993100  0.592000  0.089200  1.0
  H  H734  1  0.506900  0.408000  0.589200  1.0
  H  H735  1  0.658000  0.743100  0.839200  1.0
  H  H736  1  0.842000  0.256900  0.339200  1.0
  H  H737  1  0.434300  0.035600  0.397000  1.0
  H  H738  1  0.065700  0.964400  0.897000  1.0
  H  H739  1  0.714400  0.684300  0.647000  1.0
  H  H740  1  0.785600  0.315700  0.147000  1.0
  H  H741  1  0.934300  0.535600  0.897000  1.0
  H  H742  1  0.565700  0.464400  0.397000  1.0
  H  H743  1  0.214400  0.184300  0.147000  1.0
  H  H744  1  0.285600  0.815700  0.647000  1.0
  H  H745  1  0.565700  0.964400  0.603000  1.0
  H  H746  1  0.934300  0.035600  0.103000  1.0
  H  H747  1  0.285600  0.315700  0.353000  1.0
  H  H748  1  0.214400  0.684300  0.853000  1.0
  H  H749  1  0.065700  0.464400  0.103000  1.0
  H  H750  1  0.434300  0.535600  0.603000  1.0
  H  H751  1  0.785600  0.815700  0.853000  1.0
  H  H752  1  0.714400  0.184300  0.353000  1.0
  H  H753  1  0.501200  0.053100  0.381000  1.0
  H  H754  1  0.998800  0.946900  0.881000  1.0
  H  H755  1  0.696900  0.751200  0.631000  1.0
  H  H756  1  0.803100  0.248800  0.131000  1.0
  H  H757  1  0.001200  0.553100  0.881000  1.0
  H  H758  1  0.498800  0.446900  0.381000  1.0
  H  H759  1  0.196900  0.251200  0.131000  1.0
  H  H760  1  0.303100  0.748800  0.631000  1.0
  H  H761  1  0.498800  0.946900  0.619000  1.0
  H  H762  1  0.001200  0.053100  0.119000  1.0
  H  H763  1  0.303100  0.248800  0.369000  1.0
  H  H764  1  0.196900  0.751200  0.869000  1.0
  H  H765  1  0.998800  0.446900  0.119000  1.0
  H  H766  1  0.501200  0.553100  0.619000  1.0
  H  H767  1  0.803100  0.748800  0.869000  1.0
  H  H768  1  0.696900  0.251200  0.369000  1.0
  H  H769  1  0.369000  0.941400  0.398800  1.0
  H  H770  1  0.131000  0.058600  0.898800  1.0
  H  H771  1  0.808600  0.619000  0.648800  1.0
  H  H772  1  0.691400  0.381000  0.148800  1.0
  H  H773  1  0.869000  0.441400  0.898800  1.0
  H  H774  1  0.631000  0.558600  0.398800  1.0
  H  H775  1  0.308600  0.119000  0.148800  1.0
  H  H776  1  0.191400  0.881000  0.648800  1.0
  H  H777  1  0.631000  0.058600  0.601200  1.0
  H  H778  1  0.869000  0.941400  0.101200  1.0
  H  H779  1  0.191400  0.381000  0.351200  1.0
  H  H780  1  0.308600  0.619000  0.851200  1.0
  H  H781  1  0.131000  0.558600  0.101200  1.0
  H  H782  1  0.369000  0.441400  0.601200  1.0
  H  H783  1  0.691400  0.881000  0.851200  1.0
  H  H784  1  0.808600  0.119000  0.351200  1.0
  H  H785  1  0.299900  0.913800  0.413500  1.0
  H  H786  1  0.200100  0.086200  0.913500  1.0
  H  H787  1  0.836200  0.549900  0.663500  1.0
  H  H788  1  0.663800  0.450100  0.163500  1.0
  H  H789  1  0.799900  0.413800  0.913500  1.0
  H  H790  1  0.700100  0.586200  0.413500  1.0
  H  H791  1  0.336200  0.049900  0.163500  1.0
  H  H792  1  0.163800  0.950100  0.663500  1.0
  H  H793  1  0.700100  0.086200  0.586500  1.0
  H  H794  1  0.799900  0.913800  0.086500  1.0
  H  H795  1  0.163800  0.450100  0.336500  1.0
  H  H796  1  0.336200  0.549900  0.836500  1.0
  H  H797  1  0.200100  0.586200  0.086500  1.0
  H  H798  1  0.299900  0.413800  0.586500  1.0
  H  H799  1  0.663800  0.950100  0.836500  1.0
  H  H800  1  0.836200  0.049900  0.336500  1.0
  H  H801  1  0.306000  0.914800  0.438800  1.0
  H  H802  1  0.194000  0.085200  0.938800  1.0
  H  H803  1  0.835200  0.556000  0.688800  1.0
  H  H804  1  0.664800  0.444000  0.188800  1.0
  H  H805  1  0.806000  0.414800  0.938800  1.0
  H  H806  1  0.694000  0.585200  0.438800  1.0
  H  H807  1  0.335200  0.056000  0.188800  1.0
  H  H808  1  0.164800  0.944000  0.688800  1.0
  H  H809  1  0.694000  0.085200  0.561200  1.0
  H  H810  1  0.806000  0.914800  0.061200  1.0
  H  H811  1  0.164800  0.444000  0.311200  1.0
  H  H812  1  0.335200  0.556000  0.811200  1.0
  H  H813  1  0.194000  0.585200  0.061200  1.0
  H  H814  1  0.306000  0.414800  0.561200  1.0
  H  H815  1  0.664800  0.944000  0.811200  1.0
  H  H816  1  0.835200  0.056000  0.311200  1.0
  H  H817  1  0.356200  0.934100  0.461700  1.0
  H  H818  1  0.143800  0.065900  0.961700  1.0
  H  H819  1  0.815900  0.606200  0.711700  1.0
  H  H820  1  0.684100  0.393800  0.211700  1.0
  H  H821  1  0.856200  0.434100  0.961700  1.0
  H  H822  1  0.643800  0.565900  0.461700  1.0
  H  H823  1  0.315900  0.106200  0.211700  1.0
  H  H824  1  0.184100  0.893800  0.711700  1.0
  H  H825  1  0.643800  0.065900  0.538300  1.0
  H  H826  1  0.856200  0.934100  0.038300  1.0
  H  H827  1  0.184100  0.393800  0.288300  1.0
  H  H828  1  0.315900  0.606200  0.788300  1.0
  H  H829  1  0.143800  0.565900  0.038300  1.0
  H  H830  1  0.356200  0.434100  0.538300  1.0
  H  H831  1  0.684100  0.893800  0.788300  1.0
  H  H832  1  0.815900  0.106200  0.288300  1.0
  H  H833  1  0.489000  0.958500  0.495400  1.0
  H  H834  1  0.011000  0.041500  0.995400  1.0
  H  H835  1  0.791500  0.739000  0.745400  1.0
  H  H836  1  0.708500  0.261000  0.245400  1.0
  H  H837  1  0.989000  0.458500  0.995400  1.0
  H  H838  1  0.511000  0.541500  0.495400  1.0
  H  H839  1  0.291500  0.239000  0.245400  1.0
  H  H840  1  0.208500  0.761000  0.745400  1.0
  H  H841  1  0.511000  0.041500  0.504600  1.0
  H  H842  1  0.989000  0.958500  0.004600  1.0
  H  H843  1  0.208500  0.261000  0.254600  1.0
  H  H844  1  0.291500  0.739000  0.754600  1.0
  H  H845  1  0.011000  0.541500  0.004600  1.0
  H  H846  1  0.489000  0.458500  0.504600  1.0
  H  H847  1  0.708500  0.761000  0.754600  1.0
  H  H848  1  0.791500  0.239000  0.254600  1.0
  H  H849  1  0.559200  0.983800  0.480600  1.0
  H  H850  1  0.940800  0.016200  0.980600  1.0
  H  H851  1  0.766200  0.809200  0.730600  1.0
  H  H852  1  0.733800  0.190800  0.230600  1.0
  H  H853  1  0.059200  0.483800  0.980600  1.0
  H  H854  1  0.440800  0.516200  0.480600  1.0
  H  H855  1  0.266200  0.309200  0.230600  1.0
  H  H856  1  0.233800  0.690800  0.730600  1.0
  H  H857  1  0.440800  0.016200  0.519400  1.0
  H  H858  1  0.059200  0.983800  0.019400  1.0
  H  H859  1  0.233800  0.190800  0.269400  1.0
  H  H860  1  0.266200  0.809200  0.769400  1.0
  H  H861  1  0.940800  0.516200  0.019400  1.0
  H  H862  1  0.559200  0.483800  0.519400  1.0
  H  H863  1  0.733800  0.690800  0.769400  1.0
  H  H864  1  0.766200  0.309200  0.269400  1.0
  H  H865  1  0.549200  0.995700  0.455200  1.0
  H  H866  1  0.950800  0.004300  0.955200  1.0
  H  H867  1  0.754300  0.799200  0.705200  1.0
  H  H868  1  0.745700  0.200800  0.205200  1.0
  H  H869  1  0.049200  0.495700  0.955200  1.0
  H  H870  1  0.450800  0.504300  0.455200  1.0
  H  H871  1  0.254300  0.299200  0.205200  1.0
  H  H872  1  0.245700  0.700800  0.705200  1.0
  H  H873  1  0.450800  0.004300  0.544800  1.0
  H  H874  1  0.049200  0.995700  0.044800  1.0
  H  H875  1  0.245700  0.200800  0.294800  1.0
  H  H876  1  0.254300  0.799200  0.794800  1.0
  H  H877  1  0.950800  0.504300  0.044800  1.0
  H  H878  1  0.549200  0.495700  0.544800  1.0
  H  H879  1  0.745700  0.700800  0.794800  1.0
  H  H880  1  0.754300  0.299200  0.294800  1.0
  H  H881  1  0.497200  0.982700  0.432700  1.0
  H  H882  1  0.002800  0.017300  0.932700  1.0
  H  H883  1  0.767300  0.747200  0.682700  1.0
  H  H884  1  0.732700  0.252800  0.182700  1.0
  H  H885  1  0.997200  0.482700  0.932700  1.0
  H  H886  1  0.502800  0.517300  0.432700  1.0
  H  H887  1  0.267300  0.247200  0.182700  1.0
  H  H888  1  0.232700  0.752800  0.682700  1.0
  H  H889  1  0.502800  0.017300  0.567300  1.0
  H  H890  1  0.997200  0.982700  0.067300  1.0
  H  H891  1  0.232700  0.252800  0.317300  1.0
  H  H892  1  0.267300  0.747200  0.817300  1.0
  H  H893  1  0.002800  0.517300  0.067300  1.0
  H  H894  1  0.497200  0.482700  0.567300  1.0
  H  H895  1  0.732700  0.752800  0.817300  1.0
  H  H896  1  0.767300  0.247200  0.317300  1.0
  H  H897  1  0.424300  0.880400  0.498700  1.0
  H  H898  1  0.075700  0.119600  0.998700  1.0
  H  H899  1  0.869600  0.674300  0.748700  1.0
  H  H900  1  0.630400  0.325700  0.248700  1.0
  H  H901  1  0.924300  0.380400  0.998700  1.0
  H  H902  1  0.575700  0.619600  0.498700  1.0
  H  H903  1  0.369600  0.174300  0.248700  1.0
  H  H904  1  0.130400  0.825700  0.748700  1.0
  H  H905  1  0.575700  0.119600  0.501300  1.0
  H  H906  1  0.924300  0.880400  0.001300  1.0
  H  H907  1  0.130400  0.325700  0.251300  1.0
  H  H908  1  0.369600  0.674300  0.751300  1.0
  H  H909  1  0.075700  0.619600  0.001300  1.0
  H  H910  1  0.424300  0.380400  0.501300  1.0
  H  H911  1  0.630400  0.825700  0.751300  1.0
  H  H912  1  0.869600  0.174300  0.251300  1.0
  H  H913  1  0.361100  0.867500  0.516700  1.0
  H  H914  1  0.138900  0.132500  0.016700  1.0
  H  H915  1  0.882500  0.611100  0.766700  1.0
  H  H916  1  0.617500  0.388900  0.266700  1.0
  H  H917  1  0.861100  0.367500  0.016700  1.0
  H  H918  1  0.638900  0.632500  0.516700  1.0
  H  H919  1  0.382500  0.111100  0.266700  1.0
  H  H920  1  0.117500  0.888900  0.766700  1.0
  H  H921  1  0.638900  0.132500  0.483300  1.0
  H  H922  1  0.861100  0.867500  0.983300  1.0
  H  H923  1  0.117500  0.388900  0.233300  1.0
  H  H924  1  0.382500  0.611100  0.733300  1.0
  H  H925  1  0.138900  0.632500  0.983300  1.0
  H  H926  1  0.361100  0.367500  0.483300  1.0
  H  H927  1  0.617500  0.888900  0.733300  1.0
  H  H928  1  0.882500  0.111100  0.233300  1.0
  H  H929  1  0.284700  0.992700  0.501700  1.0
  H  H930  1  0.215300  0.007300  0.001700  1.0
  H  H931  1  0.757300  0.534700  0.751700  1.0
  H  H932  1  0.742700  0.465300  0.251700  1.0
  H  H933  1  0.784700  0.492700  0.001700  1.0
  H  H934  1  0.715300  0.507300  0.501700  1.0
  H  H935  1  0.257300  0.034700  0.251700  1.0
  H  H936  1  0.242700  0.965300  0.751700  1.0
  H  H937  1  0.715300  0.007300  0.498300  1.0
  H  H938  1  0.784700  0.992700  0.998300  1.0
  H  H939  1  0.242700  0.465300  0.248300  1.0
  H  H940  1  0.257300  0.534700  0.748300  1.0
  H  H941  1  0.215300  0.507300  0.998300  1.0
  H  H942  1  0.284700  0.492700  0.498300  1.0
  H  H943  1  0.742700  0.965300  0.748300  1.0
  H  H944  1  0.757300  0.034700  0.248300  1.0
  H  H945  1  0.348700  0.004400  0.483400  1.0
  H  H946  1  0.151300  0.995600  0.983400  1.0
  H  H947  1  0.745600  0.598700  0.733400  1.0
  H  H948  1  0.754400  0.401300  0.233400  1.0
  H  H949  1  0.848700  0.504400  0.983400  1.0
  H  H950  1  0.651300  0.495600  0.483400  1.0
  H  H951  1  0.245600  0.098700  0.233400  1.0
  H  H952  1  0.254400  0.901300  0.733400  1.0
  H  H953  1  0.651300  0.995600  0.516600  1.0
  H  H954  1  0.848700  0.004400  0.016600  1.0
  H  H955  1  0.254400  0.401300  0.266600  1.0
  H  H956  1  0.245600  0.598700  0.766600  1.0
  H  H957  1  0.151300  0.495600  0.016600  1.0
  H  H958  1  0.348700  0.504400  0.516600  1.0
  H  H959  1  0.754400  0.901300  0.766600  1.0
  H  H960  1  0.745600  0.098700  0.266600  1.0
  H  H961  1  0.328700  0.924200  0.538100  1.0
  H  H962  1  0.171300  0.075800  0.038100  1.0
  H  H963  1  0.825800  0.578700  0.788100  1.0
  H  H964  1  0.674200  0.421300  0.288100  1.0
  H  H965  1  0.828700  0.424200  0.038100  1.0
  H  H966  1  0.671300  0.575800  0.538100  1.0
  H  H967  1  0.325800  0.078700  0.288100  1.0
  H  H968  1  0.174200  0.921300  0.788100  1.0
  H  H969  1  0.671300  0.075800  0.461900  1.0
  H  H970  1  0.828700  0.924200  0.961900  1.0
  H  H971  1  0.174200  0.421300  0.211900  1.0
  H  H972  1  0.325800  0.578700  0.711900  1.0
  H  H973  1  0.171300  0.575800  0.961900  1.0
  H  H974  1  0.328700  0.424200  0.461900  1.0
  H  H975  1  0.674200  0.921300  0.711900  1.0
  H  H976  1  0.825800  0.078700  0.211900  1.0
  H  H977  1  0.299800  0.902600  0.565400  1.0
  H  H978  1  0.200200  0.097400  0.065400  1.0
  H  H979  1  0.847400  0.549800  0.815400  1.0
  H  H980  1  0.652600  0.450200  0.315400  1.0
  H  H981  1  0.799800  0.402600  0.065400  1.0
  H  H982  1  0.700200  0.597400  0.565400  1.0
  H  H983  1  0.347400  0.049800  0.315400  1.0
  H  H984  1  0.152600  0.950200  0.815400  1.0
  H  H985  1  0.700200  0.097400  0.434600  1.0
  H  H986  1  0.799800  0.902600  0.934600  1.0
  H  H987  1  0.152600  0.450200  0.184600  1.0
  H  H988  1  0.347400  0.549800  0.684600  1.0
  H  H989  1  0.200200  0.597400  0.934600  1.0
  H  H990  1  0.299800  0.402600  0.434600  1.0
  H  H991  1  0.652600  0.950200  0.684600  1.0
  H  H992  1  0.847400  0.049800  0.184600  1.0
  H  H993  1  0.238200  0.861000  0.580500  1.0
  H  H994  1  0.261800  0.139000  0.080500  1.0
  H  H995  1  0.889000  0.488200  0.830500  1.0
  H  H996  1  0.611000  0.511800  0.330500  1.0
  H  H997  1  0.738200  0.361000  0.080500  1.0
  H  H998  1  0.761800  0.639000  0.580500  1.0
  H  H999  1  0.389000  0.988200  0.330500  1.0
  H  H1000  1  0.111000  0.011800  0.830500  1.0
  H  H1001  1  0.761800  0.139000  0.419500  1.0
  H  H1002  1  0.738200  0.861000  0.919500  1.0
  H  H1003  1  0.111000  0.511800  0.169500  1.0
  H  H1004  1  0.389000  0.488200  0.669500  1.0
  H  H1005  1  0.261800  0.639000  0.919500  1.0
  H  H1006  1  0.238200  0.361000  0.419500  1.0
  H  H1007  1  0.611000  0.011800  0.669500  1.0
  H  H1008  1  0.889000  0.988200  0.169500  1.0
  H  H1009  1  0.152900  0.857100  0.571500  1.0
  H  H1010  1  0.347100  0.142900  0.071500  1.0
  H  H1011  1  0.892900  0.402900  0.821500  1.0
  H  H1012  1  0.607100  0.597100  0.321500  1.0
  H  H1013  1  0.652900  0.357100  0.071500  1.0
  H  H1014  1  0.847100  0.642900  0.571500  1.0
  H  H1015  1  0.392900  0.902900  0.321500  1.0
  H  H1016  1  0.107100  0.097100  0.821500  1.0
  H  H1017  1  0.847100  0.142900  0.428500  1.0
  H  H1018  1  0.652900  0.857100  0.928500  1.0
  H  H1019  1  0.107100  0.597100  0.178500  1.0
  H  H1020  1  0.392900  0.402900  0.678500  1.0
  H  H1021  1  0.347100  0.642900  0.928500  1.0
  H  H1022  1  0.152900  0.357100  0.428500  1.0
  H  H1023  1  0.607100  0.097100  0.678500  1.0
  H  H1024  1  0.892900  0.902900  0.178500  1.0
  H  H1025  1  0.140300  0.860700  0.545600  1.0
  H  H1026  1  0.359700  0.139300  0.045600  1.0
  H  H1027  1  0.889300  0.390300  0.795600  1.0
  H  H1028  1  0.610700  0.609700  0.295600  1.0
  H  H1029  1  0.640300  0.360700  0.045600  1.0
  H  H1030  1  0.859700  0.639300  0.545600  1.0
  H  H1031  1  0.389300  0.890300  0.295600  1.0
  H  H1032  1  0.110700  0.109700  0.795600  1.0
  H  H1033  1  0.859700  0.139300  0.454400  1.0
  H  H1034  1  0.640300  0.860700  0.954400  1.0
  H  H1035  1  0.110700  0.609700  0.204400  1.0
  H  H1036  1  0.389300  0.390300  0.704400  1.0
  H  H1037  1  0.359700  0.639300  0.954400  1.0
  H  H1038  1  0.140300  0.360700  0.454400  1.0
  H  H1039  1  0.610700  0.109700  0.704400  1.0
  H  H1040  1  0.889300  0.890300  0.204400  1.0
  H  H1041  1  0.622200  0.121300  0.359100  1.0
  H  H1042  1  0.877800  0.878700  0.859100  1.0
  H  H1043  1  0.628700  0.872200  0.609100  1.0
  H  H1044  1  0.871300  0.127800  0.109100  1.0
  H  H1045  1  0.122200  0.621300  0.859100  1.0
  H  H1046  1  0.377800  0.378700  0.359100  1.0
  H  H1047  1  0.128700  0.372200  0.109100  1.0
  H  H1048  1  0.371300  0.627800  0.609100  1.0
  H  H1049  1  0.377800  0.878700  0.640900  1.0
  H  H1050  1  0.122200  0.121300  0.140900  1.0
  H  H1051  1  0.371300  0.127800  0.390900  1.0
  H  H1052  1  0.128700  0.872200  0.890900  1.0
  H  H1053  1  0.877800  0.378700  0.140900  1.0
  H  H1054  1  0.622200  0.621300  0.640900  1.0
  H  H1055  1  0.871300  0.627800  0.890900  1.0
  H  H1056  1  0.628700  0.372200  0.390900  1.0
  H  H1057  1  0.577200  0.197700  0.361500  1.0
  H  H1058  1  0.922800  0.802300  0.861500  1.0
  H  H1059  1  0.552300  0.827200  0.611500  1.0
  H  H1060  1  0.947700  0.172800  0.111500  1.0
  H  H1061  1  0.077200  0.697700  0.861500  1.0
  H  H1062  1  0.422800  0.302300  0.361500  1.0
  H  H1063  1  0.052300  0.327200  0.111500  1.0
  H  H1064  1  0.447700  0.672800  0.611500  1.0
  H  H1065  1  0.422800  0.802300  0.638500  1.0
  H  H1066  1  0.077200  0.197700  0.138500  1.0
  H  H1067  1  0.447700  0.172800  0.388500  1.0
  H  H1068  1  0.052300  0.827200  0.888500  1.0
  H  H1069  1  0.922800  0.302300  0.138500  1.0
  H  H1070  1  0.577200  0.697700  0.638500  1.0
  H  H1071  1  0.947700  0.672800  0.888500  1.0
  H  H1072  1  0.552300  0.327200  0.388500  1.0
  H  H1073  1  0.542700  0.220400  0.384700  1.0
  H  H1074  1  0.957300  0.779600  0.884700  1.0
  H  H1075  1  0.529600  0.792700  0.634700  1.0
  H  H1076  1  0.970400  0.207300  0.134700  1.0
  H  H1077  1  0.042700  0.720400  0.884700  1.0
  H  H1078  1  0.457300  0.279600  0.384700  1.0
  H  H1079  1  0.029600  0.292700  0.134700  1.0
  H  H1080  1  0.470400  0.707300  0.634700  1.0
  H  H1081  1  0.457300  0.779600  0.615300  1.0
  H  H1082  1  0.042700  0.220400  0.115300  1.0
  H  H1083  1  0.470400  0.207300  0.365300  1.0
  H  H1084  1  0.029600  0.792700  0.865300  1.0
  H  H1085  1  0.957300  0.279600  0.115300  1.0
  H  H1086  1  0.542700  0.720400  0.615300  1.0
  H  H1087  1  0.970400  0.707300  0.865300  1.0
  H  H1088  1  0.529600  0.292700  0.365300  1.0
  H  H1089  1  0.555000  0.164300  0.405100  1.0
  H  H1090  1  0.945000  0.835700  0.905100  1.0
  H  H1091  1  0.585700  0.805000  0.655100  1.0
  H  H1092  1  0.914300  0.195000  0.155100  1.0
  H  H1093  1  0.055000  0.664300  0.905100  1.0
  H  H1094  1  0.445000  0.335700  0.405100  1.0
  H  H1095  1  0.085700  0.305000  0.155100  1.0
  H  H1096  1  0.414300  0.695000  0.655100  1.0
  H  H1097  1  0.445000  0.835700  0.594900  1.0
  H  H1098  1  0.055000  0.164300  0.094900  1.0
  H  H1099  1  0.414300  0.195000  0.344900  1.0
  H  H1100  1  0.085700  0.805000  0.844900  1.0
  H  H1101  1  0.945000  0.335700  0.094900  1.0
  H  H1102  1  0.555000  0.664300  0.594900  1.0
  H  H1103  1  0.914300  0.695000  0.844900  1.0
  H  H1104  1  0.585700  0.305000  0.344900  1.0
  H  H1105  1  0.599600  0.083200  0.415300  1.0
  H  H1106  1  0.900400  0.916800  0.915300  1.0
  H  H1107  1  0.666800  0.849600  0.665300  1.0
  H  H1108  1  0.833200  0.150400  0.165300  1.0
  H  H1109  1  0.099600  0.583200  0.915300  1.0
  H  H1110  1  0.400400  0.416800  0.415300  1.0
  H  H1111  1  0.166800  0.349600  0.165300  1.0
  H  H1112  1  0.333200  0.650400  0.665300  1.0
  H  H1113  1  0.400400  0.916800  0.584700  1.0
  H  H1114  1  0.099600  0.083200  0.084700  1.0
  H  H1115  1  0.333200  0.150400  0.334700  1.0
  H  H1116  1  0.166800  0.849600  0.834700  1.0
  H  H1117  1  0.900400  0.416800  0.084700  1.0
  H  H1118  1  0.599600  0.583200  0.584700  1.0
  H  H1119  1  0.833200  0.650400  0.834700  1.0
  H  H1120  1  0.666800  0.349600  0.334700  1.0
  H  H1121  1  0.583500  0.988500  0.421400  1.0
  H  H1122  1  0.916500  0.011500  0.921400  1.0
  H  H1123  1  0.761500  0.833500  0.671400  1.0
  H  H1124  1  0.738500  0.166500  0.171400  1.0
  H  H1125  1  0.083500  0.488500  0.921400  1.0
  H  H1126  1  0.416500  0.511500  0.421400  1.0
  H  H1127  1  0.261500  0.333500  0.171400  1.0
  H  H1128  1  0.238500  0.666500  0.671400  1.0
  H  H1129  1  0.416500  0.011500  0.578600  1.0
  H  H1130  1  0.083500  0.988500  0.078600  1.0
  H  H1131  1  0.238500  0.166500  0.328600  1.0
  H  H1132  1  0.261500  0.833500  0.828600  1.0
  H  H1133  1  0.916500  0.511500  0.078600  1.0
  H  H1134  1  0.583500  0.488500  0.578600  1.0
  H  H1135  1  0.738500  0.666500  0.828600  1.0
  H  H1136  1  0.761500  0.333500  0.328600  1.0
  H  H1137  1  0.609200  0.939500  0.441700  1.0
  H  H1138  1  0.890800  0.060500  0.941700  1.0
  H  H1139  1  0.810500  0.859200  0.691700  1.0
  H  H1140  1  0.689500  0.140800  0.191700  1.0
  H  H1141  1  0.109200  0.439500  0.941700  1.0
  H  H1142  1  0.390800  0.560500  0.441700  1.0
  H  H1143  1  0.310500  0.359200  0.191700  1.0
  H  H1144  1  0.189500  0.640800  0.691700  1.0
  H  H1145  1  0.390800  0.060500  0.558300  1.0
  H  H1146  1  0.109200  0.939500  0.058300  1.0
  H  H1147  1  0.189500  0.140800  0.308300  1.0
  H  H1148  1  0.310500  0.859200  0.808300  1.0
  H  H1149  1  0.890800  0.560500  0.058300  1.0
  H  H1150  1  0.609200  0.439500  0.558300  1.0
  H  H1151  1  0.689500  0.640800  0.808300  1.0
  H  H1152  1  0.810500  0.359200  0.308300  1.0
  H  H1153  1  0.757200  0.967600  0.432200  1.0
  H  H1154  1  0.742800  0.032400  0.932200  1.0
  H  H1155  1  0.782400  0.007200  0.682200  1.0
  H  H1156  1  0.717600  0.992800  0.182200  1.0
  H  H1157  1  0.257200  0.467600  0.932200  1.0
  H  H1158  1  0.242800  0.532400  0.432200  1.0
  H  H1159  1  0.282400  0.507200  0.182200  1.0
  H  H1160  1  0.217600  0.492800  0.682200  1.0
  H  H1161  1  0.242800  0.032400  0.567800  1.0
  H  H1162  1  0.257200  0.967600  0.067800  1.0
  H  H1163  1  0.217600  0.992800  0.317800  1.0
  H  H1164  1  0.282400  0.007200  0.817800  1.0
  H  H1165  1  0.742800  0.532400  0.067800  1.0
  H  H1166  1  0.757200  0.467600  0.567800  1.0
  H  H1167  1  0.717600  0.492800  0.817800  1.0
  H  H1168  1  0.782400  0.507200  0.317800  1.0
  H  H1169  1  0.732700  0.016600  0.412000  1.0
  H  H1170  1  0.767300  0.983400  0.912000  1.0
  H  H1171  1  0.733400  0.982700  0.662000  1.0
  H  H1172  1  0.766600  0.017300  0.162000  1.0
  H  H1173  1  0.232700  0.516600  0.912000  1.0
  H  H1174  1  0.267300  0.483400  0.412000  1.0
  H  H1175  1  0.233400  0.482700  0.162000  1.0
  H  H1176  1  0.266600  0.517300  0.662000  1.0
  H  H1177  1  0.267300  0.983400  0.588000  1.0
  H  H1178  1  0.232700  0.016600  0.088000  1.0
  H  H1179  1  0.266600  0.017300  0.338000  1.0
  H  H1180  1  0.233400  0.982700  0.838000  1.0
  H  H1181  1  0.767300  0.483400  0.088000  1.0
  H  H1182  1  0.732700  0.516600  0.588000  1.0
  H  H1183  1  0.766600  0.517300  0.838000  1.0
  H  H1184  1  0.733400  0.482700  0.338000  1.0
  H  H1185  1  0.673300  0.967100  0.467500  1.0
  H  H1186  1  0.826700  0.032900  0.967500  1.0
  H  H1187  1  0.782900  0.923300  0.717500  1.0
  H  H1188  1  0.717100  0.076700  0.217500  1.0
  H  H1189  1  0.173300  0.467100  0.967500  1.0
  H  H1190  1  0.326700  0.532900  0.467500  1.0
  H  H1191  1  0.282900  0.423300  0.217500  1.0
  H  H1192  1  0.217100  0.576700  0.717500  1.0
  H  H1193  1  0.326700  0.032900  0.532500  1.0
  H  H1194  1  0.173300  0.967100  0.032500  1.0
  H  H1195  1  0.217100  0.076700  0.282500  1.0
  H  H1196  1  0.282900  0.923300  0.782500  1.0
  H  H1197  1  0.826700  0.532900  0.032500  1.0
  H  H1198  1  0.673300  0.467100  0.532500  1.0
  H  H1199  1  0.717100  0.576700  0.782500  1.0
  H  H1200  1  0.782900  0.423300  0.282500  1.0
  H  H1201  1  0.696200  0.920000  0.489000  1.0
  H  H1202  1  0.803800  0.080000  0.989000  1.0
  H  H1203  1  0.830000  0.946200  0.739000  1.0
  H  H1204  1  0.670000  0.053800  0.239000  1.0
  H  H1205  1  0.196200  0.420000  0.989000  1.0
  H  H1206  1  0.303800  0.580000  0.489000  1.0
  H  H1207  1  0.330000  0.446200  0.239000  1.0
  H  H1208  1  0.170000  0.553800  0.739000  1.0
  H  H1209  1  0.303800  0.080000  0.511000  1.0
  H  H1210  1  0.196200  0.920000  0.011000  1.0
  H  H1211  1  0.170000  0.053800  0.261000  1.0
  H  H1212  1  0.330000  0.946200  0.761000  1.0
  H  H1213  1  0.803800  0.580000  0.011000  1.0
  H  H1214  1  0.696200  0.420000  0.511000  1.0
  H  H1215  1  0.670000  0.553800  0.761000  1.0
  H  H1216  1  0.830000  0.446200  0.261000  1.0
  H  H1217  1  0.731000  0.839700  0.486800  1.0
  H  H1218  1  0.769000  0.160300  0.986800  1.0
  H  H1219  1  0.910300  0.981000  0.736800  1.0
  H  H1220  1  0.589700  0.019000  0.236800  1.0
  H  H1221  1  0.231000  0.339700  0.986800  1.0
  H  H1222  1  0.269000  0.660300  0.486800  1.0
  H  H1223  1  0.410300  0.481000  0.236800  1.0
  H  H1224  1  0.089700  0.519000  0.736800  1.0
  H  H1225  1  0.269000  0.160300  0.513200  1.0
  H  H1226  1  0.231000  0.839700  0.013200  1.0
  H  H1227  1  0.089700  0.019000  0.263200  1.0
  H  H1228  1  0.410300  0.981000  0.763200  1.0
  H  H1229  1  0.769000  0.660300  0.013200  1.0
  H  H1230  1  0.731000  0.339700  0.513200  1.0
  H  H1231  1  0.589700  0.519000  0.763200  1.0
  H  H1232  1  0.910300  0.481000  0.263200  1.0
  H  H1233  1  0.759800  0.767800  0.470900  1.0
  H  H1234  1  0.740200  0.232200  0.970900  1.0
  H  H1235  1  0.982200  0.009800  0.720900  1.0
  H  H1236  1  0.517800  0.990200  0.220900  1.0
  H  H1237  1  0.259800  0.267800  0.970900  1.0
  H  H1238  1  0.240200  0.732200  0.470900  1.0
  H  H1239  1  0.482200  0.509800  0.220900  1.0
  H  H1240  1  0.017800  0.490200  0.720900  1.0
  H  H1241  1  0.240200  0.232200  0.529100  1.0
  H  H1242  1  0.259800  0.767800  0.029100  1.0
  H  H1243  1  0.017800  0.990200  0.279100  1.0
  H  H1244  1  0.482200  0.009800  0.779100  1.0
  H  H1245  1  0.740200  0.732200  0.029100  1.0
  H  H1246  1  0.759800  0.267800  0.529100  1.0
  H  H1247  1  0.517800  0.490200  0.779100  1.0
  H  H1248  1  0.982200  0.509800  0.279100  1.0
  H  H1249  1  0.793000  0.657100  0.431500  1.0
  H  H1250  1  0.707000  0.342900  0.931500  1.0
  H  H1251  1  0.092900  0.043000  0.681500  1.0
  H  H1252  1  0.407100  0.957000  0.181500  1.0
  H  H1253  1  0.293000  0.157100  0.931500  1.0
  H  H1254  1  0.207000  0.842900  0.431500  1.0
  H  H1255  1  0.592900  0.543000  0.181500  1.0
  H  H1256  1  0.907100  0.457000  0.681500  1.0
  H  H1257  1  0.207000  0.342900  0.568500  1.0
  H  H1258  1  0.293000  0.657100  0.068500  1.0
  H  H1259  1  0.907100  0.957000  0.318500  1.0
  H  H1260  1  0.592900  0.043000  0.818500  1.0
  H  H1261  1  0.707000  0.842900  0.068500  1.0
  H  H1262  1  0.793000  0.157100  0.568500  1.0
  H  H1263  1  0.407100  0.457000  0.818500  1.0
  H  H1264  1  0.092900  0.543000  0.318500  1.0
  H  H1265  1  0.782100  0.708700  0.410200  1.0
  H  H1266  1  0.717900  0.291300  0.910200  1.0
  H  H1267  1  0.041300  0.032100  0.660200  1.0
  H  H1268  1  0.458700  0.967900  0.160200  1.0
  H  H1269  1  0.282100  0.208700  0.910200  1.0
  H  H1270  1  0.217900  0.791300  0.410200  1.0
  H  H1271  1  0.541300  0.532100  0.160200  1.0
  H  H1272  1  0.958700  0.467900  0.660200  1.0
  H  H1273  1  0.217900  0.291300  0.589800  1.0
  H  H1274  1  0.282100  0.708700  0.089800  1.0
  H  H1275  1  0.958700  0.967900  0.339800  1.0
  H  H1276  1  0.541300  0.032100  0.839800  1.0
  H  H1277  1  0.717900  0.791300  0.089800  1.0
  H  H1278  1  0.782100  0.208700  0.589800  1.0
  H  H1279  1  0.458700  0.467900  0.839800  1.0
  H  H1280  1  0.041300  0.532100  0.339800  1.0
  H  H1281  1  0.755100  0.792500  0.412300  1.0
  H  H1282  1  0.744900  0.207500  0.912300  1.0
  H  H1283  1  0.957500  0.005100  0.662300  1.0
  H  H1284  1  0.542500  0.994900  0.162300  1.0
  H  H1285  1  0.255100  0.292500  0.912300  1.0
  H  H1286  1  0.244900  0.707500  0.412300  1.0
  H  H1287  1  0.457500  0.505100  0.162300  1.0
  H  H1288  1  0.042500  0.494900  0.662300  1.0
  H  H1289  1  0.244900  0.207500  0.587700  1.0
  H  H1290  1  0.255100  0.792500  0.087700  1.0
  H  H1291  1  0.042500  0.994900  0.337700  1.0
  H  H1292  1  0.457500  0.005100  0.837700  1.0
  H  H1293  1  0.744900  0.707500  0.087700  1.0
  H  H1294  1  0.755100  0.292500  0.587700  1.0
  H  H1295  1  0.542500  0.494900  0.837700  1.0
  H  H1296  1  0.957500  0.505100  0.337700  1.0
  H  H1297  1  0.727100  0.864600  0.428200  1.0
  H  H1298  1  0.772900  0.135400  0.928200  1.0
  H  H1299  1  0.885400  0.977100  0.678200  1.0
  H  H1300  1  0.614600  0.022900  0.178200  1.0
  H  H1301  1  0.227100  0.364600  0.928200  1.0
  H  H1302  1  0.272900  0.635400  0.428200  1.0
  H  H1303  1  0.385400  0.477100  0.178200  1.0
  H  H1304  1  0.114600  0.522900  0.678200  1.0
  H  H1305  1  0.272900  0.135400  0.571800  1.0
  H  H1306  1  0.227100  0.864600  0.071800  1.0
  H  H1307  1  0.114600  0.022900  0.321800  1.0
  H  H1308  1  0.385400  0.977100  0.821800  1.0
  H  H1309  1  0.772900  0.635400  0.071800  1.0
  H  H1310  1  0.727100  0.364600  0.571800  1.0
  H  H1311  1  0.614600  0.522900  0.821800  1.0
  H  H1312  1  0.885400  0.477100  0.321800  1.0
  H  H1313  1  0.706800  0.661900  0.462200  1.0
  H  H1314  1  0.793200  0.338100  0.962200  1.0
  H  H1315  1  0.088100  0.956800  0.712200  1.0
  H  H1316  1  0.411900  0.043200  0.212200  1.0
  H  H1317  1  0.206800  0.161900  0.962200  1.0
  H  H1318  1  0.293200  0.838100  0.462200  1.0
  H  H1319  1  0.588100  0.456800  0.212200  1.0
  H  H1320  1  0.911900  0.543200  0.712200  1.0
  H  H1321  1  0.293200  0.338100  0.537800  1.0
  H  H1322  1  0.206800  0.661900  0.037800  1.0
  H  H1323  1  0.911900  0.043200  0.287800  1.0
  H  H1324  1  0.588100  0.956800  0.787800  1.0
  H  H1325  1  0.793200  0.838100  0.037800  1.0
  H  H1326  1  0.706800  0.161900  0.537800  1.0
  H  H1327  1  0.411900  0.543200  0.787800  1.0
  H  H1328  1  0.088100  0.456800  0.287800  1.0
  H  H1329  1  0.716000  0.605200  0.482300  1.0
  H  H1330  1  0.784000  0.394800  0.982300  1.0
  H  H1331  1  0.144800  0.966000  0.732300  1.0
  H  H1332  1  0.355200  0.034000  0.232300  1.0
  H  H1333  1  0.216000  0.105200  0.982300  1.0
  H  H1334  1  0.284000  0.894800  0.482300  1.0
  H  H1335  1  0.644800  0.466000  0.232300  1.0
  H  H1336  1  0.855200  0.534000  0.732300  1.0
  H  H1337  1  0.284000  0.394800  0.517700  1.0
  H  H1338  1  0.216000  0.605200  0.017700  1.0
  H  H1339  1  0.855200  0.034000  0.267700  1.0
  H  H1340  1  0.644800  0.966000  0.767700  1.0
  H  H1341  1  0.784000  0.894800  0.017700  1.0
  H  H1342  1  0.716000  0.105200  0.517700  1.0
  H  H1343  1  0.355200  0.534000  0.767700  1.0
  H  H1344  1  0.144800  0.466000  0.267700  1.0
  H  H1345  1  0.870900  0.623400  0.480700  1.0
  H  H1346  1  0.629100  0.376600  0.980700  1.0
  H  H1347  1  0.126600  0.120900  0.730700  1.0
  H  H1348  1  0.373400  0.879100  0.230700  1.0
  H  H1349  1  0.370900  0.123400  0.980700  1.0
  H  H1350  1  0.129100  0.876600  0.480700  1.0
  H  H1351  1  0.626600  0.620900  0.230700  1.0
  H  H1352  1  0.873400  0.379100  0.730700  1.0
  H  H1353  1  0.129100  0.376600  0.519300  1.0
  H  H1354  1  0.370900  0.623400  0.019300  1.0
  H  H1355  1  0.873400  0.879100  0.269300  1.0
  H  H1356  1  0.626600  0.120900  0.769300  1.0
  H  H1357  1  0.629100  0.876600  0.019300  1.0
  H  H1358  1  0.870900  0.123400  0.519300  1.0
  H  H1359  1  0.373400  0.379100  0.769300  1.0
  H  H1360  1  0.126600  0.620900  0.269300  1.0
  H  H1361  1  0.861700  0.680200  0.460600  1.0
  H  H1362  1  0.638300  0.319800  0.960600  1.0
  H  H1363  1  0.069800  0.111700  0.710600  1.0
  H  H1364  1  0.430200  0.888300  0.210600  1.0
  H  H1365  1  0.361700  0.180200  0.960600  1.0
  H  H1366  1  0.138300  0.819800  0.460600  1.0
  H  H1367  1  0.569800  0.611700  0.210600  1.0
  H  H1368  1  0.930200  0.388300  0.710600  1.0
  H  H1369  1  0.138300  0.319800  0.539400  1.0
  H  H1370  1  0.361700  0.680200  0.039400  1.0
  H  H1371  1  0.930200  0.888300  0.289400  1.0
  H  H1372  1  0.569800  0.111700  0.789400  1.0
  H  H1373  1  0.638300  0.819800  0.039400  1.0
  H  H1374  1  0.861700  0.180200  0.539400  1.0
  H  H1375  1  0.430200  0.388300  0.789400  1.0
  H  H1376  1  0.069800  0.611700  0.289400  1.0
  H  H1377  1  0.817800  0.516400  0.485000  1.0
  H  H1378  1  0.682200  0.483600  0.985000  1.0
  H  H1379  1  0.233600  0.067800  0.735000  1.0
  H  H1380  1  0.266400  0.932200  0.235000  1.0
  H  H1381  1  0.317800  0.016400  0.985000  1.0
  H  H1382  1  0.182200  0.983600  0.485000  1.0
  H  H1383  1  0.733600  0.567800  0.235000  1.0
  H  H1384  1  0.766400  0.432200  0.735000  1.0
  H  H1385  1  0.182200  0.483600  0.515000  1.0
  H  H1386  1  0.317800  0.516400  0.015000  1.0
  H  H1387  1  0.766400  0.932200  0.265000  1.0
  H  H1388  1  0.733600  0.067800  0.765000  1.0
  H  H1389  1  0.682200  0.983600  0.015000  1.0
  H  H1390  1  0.817800  0.016400  0.515000  1.0
  H  H1391  1  0.266400  0.432200  0.765000  1.0
  H  H1392  1  0.233600  0.567800  0.265000  1.0
  H  H1393  1  0.837900  0.432600  0.498800  1.0
  H  H1394  1  0.662100  0.567400  0.998800  1.0
  H  H1395  1  0.317400  0.087900  0.748800  1.0
  H  H1396  1  0.182600  0.912100  0.248800  1.0
  H  H1397  1  0.337900  0.932600  0.998800  1.0
  H  H1398  1  0.162100  0.067400  0.498800  1.0
  H  H1399  1  0.817400  0.587900  0.248800  1.0
  H  H1400  1  0.682600  0.412100  0.748800  1.0
  H  H1401  1  0.162100  0.567400  0.501200  1.0
  H  H1402  1  0.337900  0.432600  0.001200  1.0
  H  H1403  1  0.682600  0.912100  0.251200  1.0
  H  H1404  1  0.817400  0.087900  0.751200  1.0
  H  H1405  1  0.662100  0.067400  0.001200  1.0
  H  H1406  1  0.837900  0.932600  0.501200  1.0
  H  H1407  1  0.182600  0.412100  0.751200  1.0
  H  H1408  1  0.317400  0.587900  0.251200  1.0
  H  H1409  1  0.849600  0.388100  0.521400  1.0
  H  H1410  1  0.650400  0.611900  0.021400  1.0
  H  H1411  1  0.361900  0.099600  0.771400  1.0
  H  H1412  1  0.138100  0.900400  0.271400  1.0
  H  H1413  1  0.349600  0.888100  0.021400  1.0
  H  H1414  1  0.150400  0.111900  0.521400  1.0
  H  H1415  1  0.861900  0.599600  0.271400  1.0
  H  H1416  1  0.638100  0.400400  0.771400  1.0
  H  H1417  1  0.150400  0.611900  0.478600  1.0
  H  H1418  1  0.349600  0.388100  0.978600  1.0
  H  H1419  1  0.638100  0.900400  0.228600  1.0
  H  H1420  1  0.861900  0.099600  0.728600  1.0
  H  H1421  1  0.650400  0.111900  0.978600  1.0
  H  H1422  1  0.849600  0.888100  0.478600  1.0
  H  H1423  1  0.138100  0.400400  0.728600  1.0
  H  H1424  1  0.361900  0.599600  0.228600  1.0
  H  H1425  1  0.832800  0.430500  0.543900  1.0
  H  H1426  1  0.667200  0.569500  0.043900  1.0
  H  H1427  1  0.319500  0.082800  0.793900  1.0
  H  H1428  1  0.180500  0.917200  0.293900  1.0
  H  H1429  1  0.332800  0.930500  0.043900  1.0
  H  H1430  1  0.167200  0.069500  0.543900  1.0
  H  H1431  1  0.819500  0.582800  0.293900  1.0
  H  H1432  1  0.680500  0.417200  0.793900  1.0
  H  H1433  1  0.167200  0.569500  0.456100  1.0
  H  H1434  1  0.332800  0.430500  0.956100  1.0
  H  H1435  1  0.680500  0.917200  0.206100  1.0
  H  H1436  1  0.819500  0.082800  0.706100  1.0
  H  H1437  1  0.667200  0.069500  0.956100  1.0
  H  H1438  1  0.832800  0.930500  0.456100  1.0
  H  H1439  1  0.180500  0.417200  0.706100  1.0
  H  H1440  1  0.319500  0.582800  0.206100  1.0
  H  H1441  1  0.813300  0.518100  0.543600  1.0
  H  H1442  1  0.686700  0.481900  0.043600  1.0
  H  H1443  1  0.231900  0.063300  0.793600  1.0
  H  H1444  1  0.268100  0.936700  0.293600  1.0
  H  H1445  1  0.313300  0.018100  0.043600  1.0
  H  H1446  1  0.186700  0.981900  0.543600  1.0
  H  H1447  1  0.731900  0.563300  0.293600  1.0
  H  H1448  1  0.768100  0.436700  0.793600  1.0
  H  H1449  1  0.186700  0.481900  0.456400  1.0
  H  H1450  1  0.313300  0.518100  0.956400  1.0
  H  H1451  1  0.768100  0.936700  0.206400  1.0
  H  H1452  1  0.731900  0.063300  0.706400  1.0
  H  H1453  1  0.686700  0.981900  0.956400  1.0
  H  H1454  1  0.813300  0.018100  0.456400  1.0
  H  H1455  1  0.268100  0.436700  0.706400  1.0
  H  H1456  1  0.231900  0.563300  0.206400  1.0
  H  H1457  1  0.707400  0.139300  0.383100  1.0
  H  H1458  1  0.792600  0.860700  0.883100  1.0
  H  H1459  1  0.610700  0.957400  0.633100  1.0
  H  H1460  1  0.889300  0.042600  0.133100  1.0
  H  H1461  1  0.207400  0.639300  0.883100  1.0
  H  H1462  1  0.292600  0.360700  0.383100  1.0
  H  H1463  1  0.110700  0.457400  0.133100  1.0
  H  H1464  1  0.389300  0.542600  0.633100  1.0
  H  H1465  1  0.292600  0.860700  0.616900  1.0
  H  H1466  1  0.207400  0.139300  0.116900  1.0
  H  H1467  1  0.389300  0.042600  0.366900  1.0
  H  H1468  1  0.110700  0.957400  0.866900  1.0
  H  H1469  1  0.792600  0.360700  0.116900  1.0
  H  H1470  1  0.707400  0.639300  0.616900  1.0
  H  H1471  1  0.889300  0.542600  0.866900  1.0
  H  H1472  1  0.610700  0.457400  0.366900  1.0
  H  H1473  1  0.790800  0.167400  0.388300  1.0
  H  H1474  1  0.709200  0.832600  0.888300  1.0
  H  H1475  1  0.582600  0.040800  0.638300  1.0
  H  H1476  1  0.917400  0.959200  0.138300  1.0
  H  H1477  1  0.290800  0.667400  0.888300  1.0
  H  H1478  1  0.209200  0.332600  0.388300  1.0
  H  H1479  1  0.082600  0.540800  0.138300  1.0
  H  H1480  1  0.417400  0.459200  0.638300  1.0
  H  H1481  1  0.209200  0.832600  0.611700  1.0
  H  H1482  1  0.290800  0.167400  0.111700  1.0
  H  H1483  1  0.417400  0.959200  0.361700  1.0
  H  H1484  1  0.082600  0.040800  0.861700  1.0
  H  H1485  1  0.709200  0.332600  0.111700  1.0
  H  H1486  1  0.790800  0.667400  0.611700  1.0
  H  H1487  1  0.917400  0.459200  0.861700  1.0
  H  H1488  1  0.582600  0.540800  0.361700  1.0
  H  H1489  1  0.856400  0.107400  0.391200  1.0
  H  H1490  1  0.643600  0.892600  0.891200  1.0
  H  H1491  1  0.642600  0.106400  0.641200  1.0
  H  H1492  1  0.857400  0.893600  0.141200  1.0
  H  H1493  1  0.356400  0.607400  0.891200  1.0
  H  H1494  1  0.143600  0.392600  0.391200  1.0
  H  H1495  1  0.142600  0.606400  0.141200  1.0
  H  H1496  1  0.357400  0.393600  0.641200  1.0
  H  H1497  1  0.143600  0.892600  0.608800  1.0
  H  H1498  1  0.356400  0.107400  0.108800  1.0
  H  H1499  1  0.357400  0.893600  0.358800  1.0
  H  H1500  1  0.142600  0.106400  0.858800  1.0
  H  H1501  1  0.643600  0.392600  0.108800  1.0
  H  H1502  1  0.856400  0.607400  0.608800  1.0
  H  H1503  1  0.857400  0.393600  0.858800  1.0
  H  H1504  1  0.642600  0.606400  0.358800  1.0
  H  H1505  1  0.839100  0.019200  0.387900  1.0
  H  H1506  1  0.660900  0.980800  0.887900  1.0
  H  H1507  1  0.730800  0.089100  0.637900  1.0
  H  H1508  1  0.769200  0.910900  0.137900  1.0
  H  H1509  1  0.339100  0.519200  0.887900  1.0
  H  H1510  1  0.160900  0.480800  0.387900  1.0
  H  H1511  1  0.230800  0.589100  0.137900  1.0
  H  H1512  1  0.269200  0.410900  0.637900  1.0
  H  H1513  1  0.160900  0.980800  0.612100  1.0
  H  H1514  1  0.339100  0.019200  0.112100  1.0
  H  H1515  1  0.269200  0.910900  0.362100  1.0
  H  H1516  1  0.230800  0.089100  0.862100  1.0
  H  H1517  1  0.660900  0.480800  0.112100  1.0
  H  H1518  1  0.839100  0.519200  0.612100  1.0
  H  H1519  1  0.769200  0.410900  0.862100  1.0
  H  H1520  1  0.730800  0.589100  0.362100  1.0
  H  H1521  1  0.767900  0.948100  0.384000  1.0
  H  H1522  1  0.732100  0.051900  0.884000  1.0
  H  H1523  1  0.801900  0.017900  0.634000  1.0
  H  H1524  1  0.698100  0.982100  0.134000  1.0
  H  H1525  1  0.267900  0.448100  0.884000  1.0
  H  H1526  1  0.232100  0.551900  0.384000  1.0
  H  H1527  1  0.301900  0.517900  0.134000  1.0
  H  H1528  1  0.198100  0.482100  0.634000  1.0
  H  H1529  1  0.232100  0.051900  0.616000  1.0
  H  H1530  1  0.267900  0.948100  0.116000  1.0
  H  H1531  1  0.198100  0.982100  0.366000  1.0
  H  H1532  1  0.301900  0.017900  0.866000  1.0
  H  H1533  1  0.732100  0.551900  0.116000  1.0
  H  H1534  1  0.767900  0.448100  0.616000  1.0
  H  H1535  1  0.698100  0.482100  0.866000  1.0
  H  H1536  1  0.801900  0.517900  0.366000  1.0
  H  H1537  1  0.696600  0.901200  0.403600  1.0
  H  H1538  1  0.803400  0.098800  0.903600  1.0
  H  H1539  1  0.848800  0.946600  0.653600  1.0
  H  H1540  1  0.651200  0.053400  0.153600  1.0
  H  H1541  1  0.196600  0.401200  0.903600  1.0
  H  H1542  1  0.303400  0.598800  0.403600  1.0
  H  H1543  1  0.348800  0.446600  0.153600  1.0
  H  H1544  1  0.151200  0.553400  0.653600  1.0
  H  H1545  1  0.303400  0.098800  0.596400  1.0
  H  H1546  1  0.196600  0.901200  0.096400  1.0
  H  H1547  1  0.151200  0.053400  0.346400  1.0
  H  H1548  1  0.348800  0.946600  0.846400  1.0
  H  H1549  1  0.803400  0.598800  0.096400  1.0
  H  H1550  1  0.696600  0.401200  0.596400  1.0
  H  H1551  1  0.651200  0.553400  0.846400  1.0
  H  H1552  1  0.848800  0.446600  0.346400  1.0
  H  H1553  1  0.660300  0.819300  0.404200  1.0
  H  H1554  1  0.839700  0.180700  0.904200  1.0
  H  H1555  1  0.930700  0.910300  0.654200  1.0
  H  H1556  1  0.569300  0.089700  0.154200  1.0
  H  H1557  1  0.160300  0.319300  0.904200  1.0
  H  H1558  1  0.339700  0.680700  0.404200  1.0
  H  H1559  1  0.430700  0.410300  0.154200  1.0
  H  H1560  1  0.069300  0.589700  0.654200  1.0
  H  H1561  1  0.339700  0.180700  0.595800  1.0
  H  H1562  1  0.160300  0.819300  0.095800  1.0
  H  H1563  1  0.069300  0.089700  0.345800  1.0
  H  H1564  1  0.430700  0.910300  0.845800  1.0
  H  H1565  1  0.839700  0.680700  0.095800  1.0
  H  H1566  1  0.660300  0.319300  0.595800  1.0
  H  H1567  1  0.569300  0.589700  0.845800  1.0
  H  H1568  1  0.930700  0.410300  0.345800  1.0
  H  H1569  1  0.609100  0.837900  0.362100  1.0
  H  H1570  1  0.890900  0.162100  0.862100  1.0
  H  H1571  1  0.912100  0.859100  0.612100  1.0
  H  H1572  1  0.587900  0.140900  0.112100  1.0
  H  H1573  1  0.109100  0.337900  0.862100  1.0
  H  H1574  1  0.390900  0.662100  0.362100  1.0
  H  H1575  1  0.412100  0.359100  0.112100  1.0
  H  H1576  1  0.087900  0.640900  0.612100  1.0
  H  H1577  1  0.390900  0.162100  0.637900  1.0
  H  H1578  1  0.109100  0.837900  0.137900  1.0
  H  H1579  1  0.087900  0.140900  0.387900  1.0
  H  H1580  1  0.412100  0.859100  0.887900  1.0
  H  H1581  1  0.890900  0.662100  0.137900  1.0
  H  H1582  1  0.609100  0.337900  0.637900  1.0
  H  H1583  1  0.587900  0.640900  0.887900  1.0
  H  H1584  1  0.912100  0.359100  0.387900  1.0
  H  H1585  1  0.646800  0.919000  0.361200  1.0
  H  H1586  1  0.853200  0.081000  0.861200  1.0
  H  H1587  1  0.831000  0.896800  0.611200  1.0
  H  H1588  1  0.669000  0.103200  0.111200  1.0
  H  H1589  1  0.146800  0.419000  0.861200  1.0
  H  H1590  1  0.353200  0.581000  0.361200  1.0
  H  H1591  1  0.331000  0.396800  0.111200  1.0
  H  H1592  1  0.169000  0.603200  0.611200  1.0
  H  H1593  1  0.353200  0.081000  0.638800  1.0
  H  H1594  1  0.146800  0.919000  0.138800  1.0
  H  H1595  1  0.169000  0.103200  0.388800  1.0
  H  H1596  1  0.331000  0.896800  0.888800  1.0
  H  H1597  1  0.853200  0.581000  0.138800  1.0
  H  H1598  1  0.646800  0.419000  0.638800  1.0
  H  H1599  1  0.669000  0.603200  0.888800  1.0
  H  H1600  1  0.831000  0.396800  0.388800  1.0
  H  H1601  1  0.676700  0.732000  0.386100  1.0
  H  H1602  1  0.823300  0.268000  0.886100  1.0
  H  H1603  1  0.018000  0.926700  0.636100  1.0
  H  H1604  1  0.482000  0.073300  0.136100  1.0
  H  H1605  1  0.176700  0.232000  0.886100  1.0
  H  H1606  1  0.323300  0.768000  0.386100  1.0
  H  H1607  1  0.518000  0.426700  0.136100  1.0
  H  H1608  1  0.982000  0.573300  0.636100  1.0
  H  H1609  1  0.323300  0.268000  0.613900  1.0
  H  H1610  1  0.176700  0.732000  0.113900  1.0
  H  H1611  1  0.982000  0.073300  0.363900  1.0
  H  H1612  1  0.518000  0.926700  0.863900  1.0
  H  H1613  1  0.823300  0.768000  0.113900  1.0
  H  H1614  1  0.676700  0.232000  0.613900  1.0
  H  H1615  1  0.482000  0.573300  0.863900  1.0
  H  H1616  1  0.018000  0.426700  0.363900  1.0
  H  H1617  1  0.644000  0.646500  0.385100  1.0
  H  H1618  1  0.856000  0.353500  0.885100  1.0
  H  H1619  1  0.103500  0.894000  0.635100  1.0
  H  H1620  1  0.396500  0.106000  0.135100  1.0
  H  H1621  1  0.144000  0.146500  0.885100  1.0
  H  H1622  1  0.356000  0.853500  0.385100  1.0
  H  H1623  1  0.603500  0.394000  0.135100  1.0
  H  H1624  1  0.896500  0.606000  0.635100  1.0
  H  H1625  1  0.356000  0.353500  0.614900  1.0
  H  H1626  1  0.144000  0.646500  0.114900  1.0
  H  H1627  1  0.896500  0.106000  0.364900  1.0
  H  H1628  1  0.603500  0.894000  0.864900  1.0
  H  H1629  1  0.856000  0.853500  0.114900  1.0
  H  H1630  1  0.644000  0.146500  0.614900  1.0
  H  H1631  1  0.396500  0.606000  0.864900  1.0
  H  H1632  1  0.103500  0.394000  0.364900  1.0
  H  H1633  1  0.559600  0.631100  0.382100  1.0
  H  H1634  1  0.940400  0.368900  0.882100  1.0
  H  H1635  1  0.118900  0.809600  0.632100  1.0
  H  H1636  1  0.381100  0.190400  0.132100  1.0
  H  H1637  1  0.059600  0.131100  0.882100  1.0
  H  H1638  1  0.440400  0.868900  0.382100  1.0
  H  H1639  1  0.618900  0.309600  0.132100  1.0
  H  H1640  1  0.881100  0.690400  0.632100  1.0
  H  H1641  1  0.440400  0.368900  0.617900  1.0
  H  H1642  1  0.059600  0.631100  0.117900  1.0
  H  H1643  1  0.881100  0.190400  0.367900  1.0
  H  H1644  1  0.618900  0.809600  0.867900  1.0
  H  H1645  1  0.940400  0.868900  0.117900  1.0
  H  H1646  1  0.559600  0.131100  0.617900  1.0
  H  H1647  1  0.381100  0.690400  0.867900  1.0
  H  H1648  1  0.118900  0.309600  0.367900  1.0
  H  H1649  1  0.470600  0.666000  0.381400  1.0
  H  H1650  1  0.029400  0.334000  0.881400  1.0
  H  H1651  1  0.084000  0.720600  0.631400  1.0
  H  H1652  1  0.416000  0.279400  0.131400  1.0
  H  H1653  1  0.970600  0.166000  0.881400  1.0
  H  H1654  1  0.529400  0.834000  0.381400  1.0
  H  H1655  1  0.584000  0.220600  0.131400  1.0
  H  H1656  1  0.916000  0.779400  0.631400  1.0
  H  H1657  1  0.529400  0.334000  0.618600  1.0
  H  H1658  1  0.970600  0.666000  0.118600  1.0
  H  H1659  1  0.916000  0.279400  0.368600  1.0
  H  H1660  1  0.584000  0.720600  0.868600  1.0
  H  H1661  1  0.029400  0.834000  0.118600  1.0
  H  H1662  1  0.470600  0.166000  0.618600  1.0
  H  H1663  1  0.416000  0.779400  0.868600  1.0
  H  H1664  1  0.084000  0.220600  0.368600  1.0
  H  H1665  1  0.907700  0.555800  0.520000  1.0
  H  H1666  1  0.592300  0.444200  0.020000  1.0
  H  H1667  1  0.194200  0.157700  0.770000  1.0
  H  H1668  1  0.305800  0.842300  0.270000  1.0
  H  H1669  1  0.407700  0.055800  0.020000  1.0
  H  H1670  1  0.092300  0.944200  0.520000  1.0
  H  H1671  1  0.694200  0.657700  0.270000  1.0
  H  H1672  1  0.805800  0.342300  0.770000  1.0
  H  H1673  1  0.092300  0.444200  0.480000  1.0
  H  H1674  1  0.407700  0.555800  0.980000  1.0
  H  H1675  1  0.805800  0.842300  0.230000  1.0
  H  H1676  1  0.694200  0.157700  0.730000  1.0
  H  H1677  1  0.592300  0.944200  0.980000  1.0
  H  H1678  1  0.907700  0.055800  0.480000  1.0
  H  H1679  1  0.305800  0.342300  0.730000  1.0
  H  H1680  1  0.194200  0.657700  0.230000  1.0
  H  H1681  1  0.988500  0.585900  0.513200  1.0
  H  H1682  1  0.511500  0.414100  0.013200  1.0
  H  H1683  1  0.164100  0.238500  0.763200  1.0
  H  H1684  1  0.335900  0.761500  0.263200  1.0
  H  H1685  1  0.488500  0.085900  0.013200  1.0
  H  H1686  1  0.011500  0.914100  0.513200  1.0
  H  H1687  1  0.664100  0.738500  0.263200  1.0
  H  H1688  1  0.835900  0.261500  0.763200  1.0
  H  H1689  1  0.011500  0.414100  0.486800  1.0
  H  H1690  1  0.488500  0.585900  0.986800  1.0
  H  H1691  1  0.835900  0.761500  0.236800  1.0
  H  H1692  1  0.664100  0.238500  0.736800  1.0
  H  H1693  1  0.511500  0.914100  0.986800  1.0
  H  H1694  1  0.988500  0.085900  0.486800  1.0
  H  H1695  1  0.335900  0.261500  0.736800  1.0
  H  H1696  1  0.164100  0.738500  0.236800  1.0
  H  H1697  1  0.997200  0.672300  0.506000  1.0
  H  H1698  1  0.502800  0.327700  0.006000  1.0
  H  H1699  1  0.077700  0.247200  0.756000  1.0
  H  H1700  1  0.422300  0.752800  0.256000  1.0
  H  H1701  1  0.497200  0.172300  0.006000  1.0
  H  H1702  1  0.002800  0.827700  0.506000  1.0
  H  H1703  1  0.577700  0.747200  0.256000  1.0
  H  H1704  1  0.922300  0.252800  0.756000  1.0
  H  H1705  1  0.002800  0.327700  0.494000  1.0
  H  H1706  1  0.497200  0.672300  0.994000  1.0
  H  H1707  1  0.922300  0.752800  0.244000  1.0
  H  H1708  1  0.577700  0.247200  0.744000  1.0
  H  H1709  1  0.502800  0.827700  0.994000  1.0
  H  H1710  1  0.997200  0.172300  0.494000  1.0
  H  H1711  1  0.422300  0.252800  0.744000  1.0
  H  H1712  1  0.077700  0.747200  0.244000  1.0
  H  H1713  1  0.922000  0.721200  0.502100  1.0
  H  H1714  1  0.578000  0.278800  0.002100  1.0
  H  H1715  1  0.028800  0.172000  0.752100  1.0
  H  H1716  1  0.471200  0.828000  0.252100  1.0
  H  H1717  1  0.422000  0.221200  0.002100  1.0
  H  H1718  1  0.078000  0.778800  0.502100  1.0
  H  H1719  1  0.528800  0.672000  0.252100  1.0
  H  H1720  1  0.971200  0.328000  0.752100  1.0
  H  H1721  1  0.078000  0.278800  0.497900  1.0
  H  H1722  1  0.422000  0.721200  0.997900  1.0
  H  H1723  1  0.971200  0.828000  0.247900  1.0
  H  H1724  1  0.528800  0.172000  0.747900  1.0
  H  H1725  1  0.578000  0.778800  0.997900  1.0
  H  H1726  1  0.922000  0.221200  0.497900  1.0
  H  H1727  1  0.471200  0.328000  0.747900  1.0
  H  H1728  1  0.028800  0.672000  0.247900  1.0
  H  H1729  1  0.825000  0.731300  0.508500  1.0
  H  H1730  1  0.675000  0.268700  0.008500  1.0
  H  H1731  1  0.018700  0.075000  0.758500  1.0
  H  H1732  1  0.481300  0.925000  0.258500  1.0
  H  H1733  1  0.325000  0.231300  0.008500  1.0
  H  H1734  1  0.175000  0.768700  0.508500  1.0
  H  H1735  1  0.518700  0.575000  0.258500  1.0
  H  H1736  1  0.981300  0.425000  0.758500  1.0
  H  H1737  1  0.175000  0.268700  0.491500  1.0
  H  H1738  1  0.325000  0.731300  0.991500  1.0
  H  H1739  1  0.981300  0.925000  0.241500  1.0
  H  H1740  1  0.518700  0.075000  0.741500  1.0
  H  H1741  1  0.675000  0.768700  0.991500  1.0
  H  H1742  1  0.825000  0.231300  0.491500  1.0
  H  H1743  1  0.481300  0.425000  0.741500  1.0
  H  H1744  1  0.018700  0.575000  0.241500  1.0
  H  H1745  1  0.735900  0.715700  0.493500  1.0
  H  H1746  1  0.764100  0.284300  0.993500  1.0
  H  H1747  1  0.034300  0.985900  0.743500  1.0
  H  H1748  1  0.465700  0.014100  0.243500  1.0
  H  H1749  1  0.235900  0.215700  0.993500  1.0
  H  H1750  1  0.264100  0.784300  0.493500  1.0
  H  H1751  1  0.534300  0.485900  0.243500  1.0
  H  H1752  1  0.965700  0.514100  0.743500  1.0
  H  H1753  1  0.264100  0.284300  0.506500  1.0
  H  H1754  1  0.235900  0.715700  0.006500  1.0
  H  H1755  1  0.965700  0.014100  0.256500  1.0
  H  H1756  1  0.534300  0.985900  0.756500  1.0
  H  H1757  1  0.764100  0.784300  0.006500  1.0
  H  H1758  1  0.735900  0.215700  0.506500  1.0
  H  H1759  1  0.465700  0.514100  0.756500  1.0
  H  H1760  1  0.034300  0.485900  0.256500  1.0
  H  H1761  1  0.657300  0.758800  0.494400  1.0
  H  H1762  1  0.842700  0.241200  0.994400  1.0
  H  H1763  1  0.991200  0.907300  0.744400  1.0
  H  H1764  1  0.508800  0.092700  0.244400  1.0
  H  H1765  1  0.157300  0.258800  0.994400  1.0
  H  H1766  1  0.342700  0.741200  0.494400  1.0
  H  H1767  1  0.491200  0.407300  0.244400  1.0
  H  H1768  1  0.008800  0.592700  0.744400  1.0
  H  H1769  1  0.342700  0.241200  0.505600  1.0
  H  H1770  1  0.157300  0.758800  0.005600  1.0
  H  H1771  1  0.008800  0.092700  0.255600  1.0
  H  H1772  1  0.491200  0.907300  0.755600  1.0
  H  H1773  1  0.842700  0.741200  0.005600  1.0
  H  H1774  1  0.657300  0.258800  0.505600  1.0
  H  H1775  1  0.508800  0.592700  0.755600  1.0
  H  H1776  1  0.991200  0.407300  0.255600  1.0
  H  H1777  1  0.653400  0.744400  0.539000  1.0
  H  H1778  1  0.846600  0.255600  0.039000  1.0
  H  H1779  1  0.005600  0.903400  0.789000  1.0
  H  H1780  1  0.494400  0.096600  0.289000  1.0
  H  H1781  1  0.153400  0.244400  0.039000  1.0
  H  H1782  1  0.346600  0.755600  0.539000  1.0
  H  H1783  1  0.505600  0.403400  0.289000  1.0
  H  H1784  1  0.994400  0.596600  0.789000  1.0
  H  H1785  1  0.346600  0.255600  0.461000  1.0
  H  H1786  1  0.153400  0.744400  0.961000  1.0
  H  H1787  1  0.994400  0.096600  0.211000  1.0
  H  H1788  1  0.505600  0.903400  0.711000  1.0
  H  H1789  1  0.846600  0.755600  0.961000  1.0
  H  H1790  1  0.653400  0.244400  0.461000  1.0
  H  H1791  1  0.494400  0.596600  0.711000  1.0
  H  H1792  1  0.005600  0.403400  0.211000  1.0
  H  H1793  1  0.728800  0.696800  0.538000  1.0
  H  H1794  1  0.771200  0.303200  0.038000  1.0
  H  H1795  1  0.053200  0.978800  0.788000  1.0
  H  H1796  1  0.446800  0.021200  0.288000  1.0
  H  H1797  1  0.228800  0.196800  0.038000  1.0
  H  H1798  1  0.271200  0.803200  0.538000  1.0
  H  H1799  1  0.553200  0.478800  0.288000  1.0
  H  H1800  1  0.946800  0.521200  0.788000  1.0
  H  H1801  1  0.271200  0.303200  0.462000  1.0
  H  H1802  1  0.228800  0.696800  0.962000  1.0
  H  H1803  1  0.946800  0.021200  0.212000  1.0
  H  H1804  1  0.553200  0.978800  0.712000  1.0
  H  H1805  1  0.771200  0.803200  0.962000  1.0
  H  H1806  1  0.728800  0.196800  0.462000  1.0
  H  H1807  1  0.446800  0.521200  0.712000  1.0
  H  H1808  1  0.053200  0.478800  0.212000  1.0
  H  H1809  1  0.639700  0.860500  0.516100  1.0
  H  H1810  1  0.860300  0.139500  0.016100  1.0
  H  H1811  1  0.889500  0.889700  0.766100  1.0
  H  H1812  1  0.610500  0.110300  0.266100  1.0
  H  H1813  1  0.139700  0.360500  0.016100  1.0
  H  H1814  1  0.360300  0.639500  0.516100  1.0
  H  H1815  1  0.389500  0.389700  0.266100  1.0
  H  H1816  1  0.110500  0.610300  0.766100  1.0
  H  H1817  1  0.360300  0.139500  0.483900  1.0
  H  H1818  1  0.139700  0.860500  0.983900  1.0
  H  H1819  1  0.110500  0.110300  0.233900  1.0
  H  H1820  1  0.389500  0.889700  0.733900  1.0
  H  H1821  1  0.860300  0.639500  0.983900  1.0
  H  H1822  1  0.639700  0.360500  0.483900  1.0
  H  H1823  1  0.610500  0.610300  0.733900  1.0
  H  H1824  1  0.889500  0.389700  0.233900  1.0
  H  H1825  1  0.567000  0.914100  0.518900  1.0
  H  H1826  1  0.933000  0.085900  0.018900  1.0
  H  H1827  1  0.835900  0.817000  0.768900  1.0
  H  H1828  1  0.664100  0.183000  0.268900  1.0
  H  H1829  1  0.067000  0.414100  0.018900  1.0
  H  H1830  1  0.433000  0.585900  0.518900  1.0
  H  H1831  1  0.335900  0.317000  0.268900  1.0
  H  H1832  1  0.164100  0.683000  0.768900  1.0
  H  H1833  1  0.433000  0.085900  0.481100  1.0
  H  H1834  1  0.067000  0.914100  0.981100  1.0
  H  H1835  1  0.164100  0.183000  0.231100  1.0
  H  H1836  1  0.335900  0.817000  0.731100  1.0
  H  H1837  1  0.933000  0.585900  0.981100  1.0
  H  H1838  1  0.567000  0.414100  0.481100  1.0
  H  H1839  1  0.664100  0.683000  0.731100  1.0
  H  H1840  1  0.835900  0.317000  0.231100  1.0
  H  H1841  1  0.486500  0.882400  0.519500  1.0
  H  H1842  1  0.013500  0.117600  0.019500  1.0
  H  H1843  1  0.867600  0.736500  0.769500  1.0
  H  H1844  1  0.632400  0.263500  0.269500  1.0
  H  H1845  1  0.986500  0.382400  0.019500  1.0
  H  H1846  1  0.513500  0.617600  0.519500  1.0
  H  H1847  1  0.367600  0.236500  0.269500  1.0
  H  H1848  1  0.132400  0.763500  0.769500  1.0
  H  H1849  1  0.513500  0.117600  0.480500  1.0
  H  H1850  1  0.986500  0.882400  0.980500  1.0
  H  H1851  1  0.132400  0.263500  0.230500  1.0
  H  H1852  1  0.367600  0.736500  0.730500  1.0
  H  H1853  1  0.013500  0.617600  0.980500  1.0
  H  H1854  1  0.486500  0.382400  0.480500  1.0
  H  H1855  1  0.632400  0.763500  0.730500  1.0
  H  H1856  1  0.867600  0.236500  0.230500  1.0
  H  H1857  1  0.428500  0.806100  0.519100  1.0
  H  H1858  1  0.071500  0.193900  0.019100  1.0
  H  H1859  1  0.943900  0.678500  0.769100  1.0
  H  H1860  1  0.556100  0.321500  0.269100  1.0
  H  H1861  1  0.928500  0.306100  0.019100  1.0
  H  H1862  1  0.571500  0.693900  0.519100  1.0
  H  H1863  1  0.443900  0.178500  0.269100  1.0
  H  H1864  1  0.056100  0.821500  0.769100  1.0
  H  H1865  1  0.571500  0.193900  0.480900  1.0
  H  H1866  1  0.928500  0.806100  0.980900  1.0
  H  H1867  1  0.056100  0.321500  0.230900  1.0
  H  H1868  1  0.443900  0.678500  0.730900  1.0
  H  H1869  1  0.071500  0.693900  0.980900  1.0
  H  H1870  1  0.428500  0.306100  0.480900  1.0
  H  H1871  1  0.556100  0.821500  0.730900  1.0
  H  H1872  1  0.943900  0.178500  0.230900  1.0
  C  C1873  1  0.381500  0.792400  0.425370  1
  C  C1874  1  0.118500  0.207600  0.925370  1
  C  C1875  1  0.957600  0.631500  0.675370  1
  C  C1876  1  0.542400  0.368500  0.175370  1
  C  C1877  1  0.881500  0.292400  0.925370  1
  C  C1878  1  0.618500  0.707600  0.425370  1
  C  C1879  1  0.457600  0.131500  0.175370  1
  C  C1880  1  0.042400  0.868500  0.675370  1
  C  C1881  1  0.618500  0.207600  0.574630  1
  C  C1882  1  0.881500  0.792400  0.074630  1
  C  C1883  1  0.042400  0.368500  0.324630  1
  C  C1884  1  0.457600  0.631500  0.824630  1
  C  C1885  1  0.118500  0.707600  0.074630  1
  C  C1886  1  0.381500  0.292400  0.574630  1
  C  C1887  1  0.542400  0.868500  0.824630  1
  C  C1888  1  0.957600  0.131500  0.324630  1
  C  C1889  1  0.372500  0.789200  0.440710  1
  C  C1890  1  0.127500  0.210800  0.940710  1
  C  C1891  1  0.960800  0.622500  0.690710  1
  C  C1892  1  0.539200  0.377500  0.190710  1
  C  C1893  1  0.872500  0.289200  0.940710  1
  C  C1894  1  0.627500  0.710800  0.440710  1
  C  C1895  1  0.460800  0.122500  0.190710  1
  C  C1896  1  0.039200  0.877500  0.690710  1
  C  C1897  1  0.627500  0.210800  0.559290  1
  C  C1898  1  0.872500  0.789200  0.059290  1
  C  C1899  1  0.039200  0.377500  0.309290  1
  C  C1900  1  0.460800  0.622500  0.809290  1
  C  C1901  1  0.127500  0.710800  0.059290  1
  C  C1902  1  0.372500  0.289200  0.559290  1
  C  C1903  1  0.539200  0.877500  0.809290  1
  C  C1904  1  0.960800  0.122500  0.309290  1
  C  C1905  1  0.410400  0.798700  0.450800  1
  C  C1906  1  0.089600  0.201300  0.950800  1
  C  C1907  1  0.951300  0.660400  0.700800  1
  C  C1908  1  0.548700  0.339600  0.200800  1
  C  C1909  1  0.910400  0.298700  0.950800  1
  C  C1910  1  0.589600  0.701300  0.450800  1
  C  C1911  1  0.451300  0.160400  0.200800  1
  C  C1912  1  0.048700  0.839600  0.700800  1
  C  C1913  1  0.589600  0.201300  0.549200  1
  C  C1914  1  0.910400  0.798700  0.049200  1
  C  C1915  1  0.048700  0.339600  0.299200  1
  C  C1916  1  0.451300  0.660400  0.799200  1
  C  C1917  1  0.089600  0.701300  0.049200  1
  C  C1918  1  0.410400  0.298700  0.549200  1
  C  C1919  1  0.548700  0.839600  0.799200  1
  C  C1920  1  0.951300  0.160400  0.299200  1
  C  C1921  1  0.401500  0.794100  0.466850  1
  C  C1922  1  0.098500  0.205900  0.966850  1
  C  C1923  1  0.955900  0.651500  0.716850  1
  C  C1924  1  0.544100  0.348500  0.216850  1
  C  C1925  1  0.901500  0.294100  0.966850  1
  C  C1926  1  0.598500  0.705900  0.466850  1
  C  C1927  1  0.455900  0.151500  0.216850  1
  C  C1928  1  0.044100  0.848500  0.716850  1
  C  C1929  1  0.598500  0.205900  0.533150  1
  C  C1930  1  0.901500  0.794100  0.033150  1
  C  C1931  1  0.044100  0.348500  0.283150  1
  C  C1932  1  0.455900  0.651500  0.783150  1
  C  C1933  1  0.098500  0.705900  0.033150  1
  C  C1934  1  0.401500  0.294100  0.533150  1
  C  C1935  1  0.544100  0.848500  0.783150  1
  C  C1936  1  0.955900  0.151500  0.283150  1
  C  C1937  1  0.438600  0.803300  0.476340  1
  C  C1938  1  0.061400  0.196700  0.976340  1
  C  C1939  1  0.946700  0.688600  0.726340  1
  C  C1940  1  0.553300  0.311400  0.226340  1
  C  C1941  1  0.938600  0.303300  0.976340  1
  C  C1942  1  0.561400  0.696700  0.476340  1
  C  C1943  1  0.446700  0.188600  0.226340  1
  C  C1944  1  0.053300  0.811400  0.726340  1
  C  C1945  1  0.561400  0.196700  0.523660  1
  C  C1946  1  0.938600  0.803300  0.023660  1
  C  C1947  1  0.053300  0.311400  0.273660  1
  C  C1948  1  0.446700  0.688600  0.773660  1
  C  C1949  1  0.061400  0.696700  0.023660  1
  C  C1950  1  0.438600  0.303300  0.523660  1
  C  C1951  1  0.553300  0.811400  0.773660  1
  C  C1952  1  0.946700  0.188600  0.273660  1
  C  C1953  1  0.490100  0.817200  0.471220  1
  C  C1954  1  0.009900  0.182800  0.971220  1
  C  C1955  1  0.932800  0.740100  0.721220  1
  C  C1956  1  0.567200  0.259900  0.221220  1
  C  C1957  1  0.990100  0.317200  0.971220  1
  C  C1958  1  0.509900  0.682800  0.471220  1
  C  C1959  1  0.432800  0.240100  0.221220  1
  C  C1960  1  0.067200  0.759900  0.721220  1
  C  C1961  1  0.509900  0.182800  0.528780  1
  C  C1962  1  0.990100  0.817200  0.028780  1
  C  C1963  1  0.067200  0.259900  0.278780  1
  C  C1964  1  0.432800  0.740100  0.778780  1
  C  C1965  1  0.009900  0.682800  0.028780  1
  C  C1966  1  0.490100  0.317200  0.528780  1
  C  C1967  1  0.567200  0.759900  0.778780  1
  C  C1968  1  0.932800  0.240100  0.278780  1
  C  C1969  1  0.528300  0.828200  0.480940  1
  C  C1970  1  0.971700  0.171800  0.980940  1
  C  C1971  1  0.921800  0.778300  0.730940  1
  C  C1972  1  0.578200  0.221700  0.230940  1
  C  C1973  1  0.028300  0.328200  0.980940  1
  C  C1974  1  0.471700  0.671800  0.480940  1
  C  C1975  1  0.421800  0.278300  0.230940  1
  C  C1976  1  0.078200  0.721700  0.730940  1
  C  C1977  1  0.471700  0.171800  0.519060  1
  C  C1978  1  0.028300  0.828200  0.019060  1
  C  C1979  1  0.078200  0.221700  0.269060  1
  C  C1980  1  0.421800  0.778300  0.769060  1
  C  C1981  1  0.971700  0.671800  0.019060  1
  C  C1982  1  0.528300  0.328200  0.519060  1
  C  C1983  1  0.578200  0.721700  0.769060  1
  C  C1984  1  0.921800  0.278300  0.269060  1
  C  C1985  1  0.578300  0.839100  0.476100  1
  C  C1986  1  0.921700  0.160900  0.976100  1
  C  C1987  1  0.910900  0.828300  0.726100  1
  C  C1988  1  0.589100  0.171700  0.226100  1
  C  C1989  1  0.078300  0.339100  0.976100  1
  C  C1990  1  0.421700  0.660900  0.476100  1
  C  C1991  1  0.410900  0.328300  0.226100  1
  C  C1992  1  0.089100  0.671700  0.726100  1
  C  C1993  1  0.421700  0.160900  0.523900  1
  C  C1994  1  0.078300  0.839100  0.023900  1
  C  C1995  1  0.089100  0.171700  0.273900  1
  C  C1996  1  0.410900  0.828300  0.773900  1
  C  C1997  1  0.921700  0.660900  0.023900  1
  C  C1998  1  0.578300  0.339100  0.523900  1
  C  C1999  1  0.589100  0.671700  0.773900  1
  C  C2000  1  0.910900  0.328300  0.273900  1
  C  C2001  1  0.588200  0.839500  0.460770  1
  C  C2002  1  0.911800  0.160500  0.960770  1
  C  C2003  1  0.910500  0.838200  0.710770  1
  C  C2004  1  0.589500  0.161800  0.210770  1
  C  C2005  1  0.088200  0.339500  0.960770  1
  C  C2006  1  0.411800  0.660500  0.460770  1
  C  C2007  1  0.410500  0.338200  0.210770  1
  C  C2008  1  0.089500  0.661800  0.710770  1
  C  C2009  1  0.411800  0.160500  0.539230  1
  C  C2010  1  0.088200  0.839500  0.039230  1
  C  C2011  1  0.089500  0.161800  0.289230  1
  C  C2012  1  0.410500  0.838200  0.789230  1
  C  C2013  1  0.911800  0.660500  0.039230  1
  C  C2014  1  0.588200  0.339500  0.539230  1
  C  C2015  1  0.589500  0.661800  0.789230  1
  C  C2016  1  0.910500  0.338200  0.289230  1
  C  C2017  1  0.550300  0.830800  0.450710  1
  C  C2018  1  0.949700  0.169200  0.950710  1
  C  C2019  1  0.919200  0.800300  0.700710  1
  C  C2020  1  0.580800  0.199700  0.200710  1
  C  C2021  1  0.050300  0.330800  0.950710  1
  C  C2022  1  0.449700  0.669200  0.450710  1
  C  C2023  1  0.419200  0.300300  0.200710  1
  C  C2024  1  0.080800  0.699700  0.700710  1
  C  C2025  1  0.449700  0.169200  0.549290  1
  C  C2026  1  0.050300  0.830800  0.049290  1
  C  C2027  1  0.080800  0.199700  0.299290  1
  C  C2028  1  0.419200  0.800300  0.799290  1
  C  C2029  1  0.949700  0.669200  0.049290  1
  C  C2030  1  0.550300  0.330800  0.549290  1
  C  C2031  1  0.580800  0.699700  0.799290  1
  C  C2032  1  0.919200  0.300300  0.299290  1
  C  C2033  1  0.560600  0.829700  0.434670  1
  C  C2034  1  0.939400  0.170300  0.934670  1
  C  C2035  1  0.920300  0.810600  0.684670  1
  C  C2036  1  0.579700  0.189400  0.184670  1
  C  C2037  1  0.060600  0.329700  0.934670  1
  C  C2038  1  0.439400  0.670300  0.434670  1
  C  C2039  1  0.420300  0.310600  0.184670  1
  C  C2040  1  0.079700  0.689400  0.684670  1
  C  C2041  1  0.439400  0.170300  0.565330  1
  C  C2042  1  0.060600  0.829700  0.065330  1
  C  C2043  1  0.079700  0.189400  0.315330  1
  C  C2044  1  0.420300  0.810600  0.815330  1
  C  C2045  1  0.939400  0.670300  0.065330  1
  C  C2046  1  0.560600  0.329700  0.565330  1
  C  C2047  1  0.579700  0.689400  0.815330  1
  C  C2048  1  0.920300  0.310600  0.315330  1
  C  C2049  1  0.523500  0.820500  0.425090  1
  C  C2050  1  0.976500  0.179500  0.925090  1
  C  C2051  1  0.929500  0.773500  0.675090  1
  C  C2052  1  0.570500  0.226500  0.175090  1
  C  C2053  1  0.023500  0.320500  0.925090  1
  C  C2054  1  0.476500  0.679500  0.425090  1
  C  C2055  1  0.429500  0.273500  0.175090  1
  C  C2056  1  0.070500  0.726500  0.675090  1
  C  C2057  1  0.476500  0.179500  0.574910  1
  C  C2058  1  0.023500  0.820500  0.074910  1
  C  C2059  1  0.070500  0.226500  0.324910  1
  C  C2060  1  0.429500  0.773500  0.824910  1
  C  C2061  1  0.976500  0.679500  0.074910  1
  C  C2062  1  0.523500  0.320500  0.574910  1
  C  C2063  1  0.570500  0.726500  0.824910  1
  C  C2064  1  0.929500  0.273500  0.324910  1
  C  C2065  1  0.470500  0.812100  0.430090  1
  C  C2066  1  0.029500  0.187900  0.930090  1
  C  C2067  1  0.937900  0.720500  0.680090  1
  C  C2068  1  0.562100  0.279500  0.180090  1
  C  C2069  1  0.970500  0.312100  0.930090  1
  C  C2070  1  0.529500  0.687900  0.430090  1
  C  C2071  1  0.437900  0.220500  0.180090  1
  C  C2072  1  0.062100  0.779500  0.680090  1
  C  C2073  1  0.529500  0.187900  0.569910  1
  C  C2074  1  0.970500  0.812100  0.069910  1
  C  C2075  1  0.062100  0.279500  0.319910  1
  C  C2076  1  0.437900  0.720500  0.819910  1
  C  C2077  1  0.029500  0.687900  0.069910  1
  C  C2078  1  0.470500  0.312100  0.569910  1
  C  C2079  1  0.562100  0.779500  0.819910  1
  C  C2080  1  0.937900  0.220500  0.319910  1
  C  C2081  1  0.431200  0.803800  0.420390  1
  C  C2082  1  0.068800  0.196200  0.920390  1
  C  C2083  1  0.946200  0.681200  0.670390  1
  C  C2084  1  0.553800  0.318800  0.170390  1
  C  C2085  1  0.931200  0.303800  0.920390  1
  C  C2086  1  0.568800  0.696200  0.420390  1
  C  C2087  1  0.446200  0.181200  0.170390  1
  C  C2088  1  0.053800  0.818800  0.670390  1
  C  C2089  1  0.568800  0.196200  0.579610  1
  C  C2090  1  0.931200  0.803800  0.079610  1
  C  C2091  1  0.053800  0.318800  0.329610  1
  C  C2092  1  0.446200  0.681200  0.829610  1
  C  C2093  1  0.068800  0.696200  0.079610  1
  C  C2094  1  0.431200  0.303800  0.579610  1
  C  C2095  1  0.553800  0.818800  0.829610  1
  C  C2096  1  0.946200  0.181200  0.329610  1
  C  C2097  1  0.460900  0.810500  0.445670  1
  C  C2098  1  0.039100  0.189500  0.945670  1
  C  C2099  1  0.939500  0.710900  0.695670  1
  C  C2100  1  0.560500  0.289100  0.195670  1
  C  C2101  1  0.960900  0.310500  0.945670  1
  C  C2102  1  0.539100  0.689500  0.445670  1
  C  C2103  1  0.439500  0.210900  0.195670  1
  C  C2104  1  0.060500  0.789100  0.695670  1
  C  C2105  1  0.539100  0.189500  0.554330  1
  C  C2106  1  0.960900  0.810500  0.054330  1
  C  C2107  1  0.060500  0.289100  0.304330  1
  C  C2108  1  0.439500  0.710900  0.804330  1
  C  C2109  1  0.039100  0.689500  0.054330  1
  C  C2110  1  0.460900  0.310500  0.554330  1
  C  C2111  1  0.560500  0.789100  0.804330  1
  C  C2112  1  0.939500  0.210900  0.304330  1
  C  C2113  1  0.499600  0.819700  0.455650  1
  C  C2114  1  0.000400  0.180300  0.955650  1
  C  C2115  1  0.930300  0.749600  0.705650  1
  C  C2116  1  0.569700  0.250400  0.205650  1
  C  C2117  1  0.999600  0.319700  0.955650  1
  C  C2118  1  0.500400  0.680300  0.455650  1
  C  C2119  1  0.430300  0.249600  0.205650  1
  C  C2120  1  0.069700  0.750400  0.705650  1
  C  C2121  1  0.500400  0.180300  0.544350  1
  C  C2122  1  0.999600  0.819700  0.044350  1
  C  C2123  1  0.069700  0.250400  0.294350  1
  C  C2124  1  0.430300  0.749600  0.794350  1
  C  C2125  1  0.000400  0.680300  0.044350  1
  C  C2126  1  0.499600  0.319700  0.544350  1
  C  C2127  1  0.569700  0.750400  0.794350  1
  C  C2128  1  0.930300  0.249600  0.294350  1
  C  C2129  1  0.864000  0.797000  0.326500  1
  C  C2130  1  0.636000  0.203000  0.826500  1
  C  C2131  1  0.953000  0.114000  0.576500  1
  C  C2132  1  0.547000  0.886000  0.076500  1
  C  C2133  1  0.364000  0.297000  0.826500  1
  C  C2134  1  0.136000  0.703000  0.326500  1
  C  C2135  1  0.453000  0.614000  0.076500  1
  C  C2136  1  0.047000  0.386000  0.576500  1
  C  C2137  1  0.136000  0.203000  0.673500  1
  C  C2138  1  0.364000  0.797000  0.173500  1
  C  C2139  1  0.047000  0.886000  0.423500  1
  C  C2140  1  0.453000  0.114000  0.923500  1
  C  C2141  1  0.636000  0.703000  0.173500  1
  C  C2142  1  0.864000  0.297000  0.673500  1
  C  C2143  1  0.547000  0.386000  0.923500  1
  C  C2144  1  0.953000  0.614000  0.423500  1
  C  C2145  1  0.918000  0.798000  0.330800  1
  C  C2146  1  0.582000  0.202000  0.830800  1
  C  C2147  1  0.952000  0.168000  0.580800  1
  C  C2148  1  0.548000  0.832000  0.080800  1
  C  C2149  1  0.418000  0.298000  0.830800  1
  C  C2150  1  0.082000  0.702000  0.330800  1
  C  C2151  1  0.452000  0.668000  0.080800  1
  C  C2152  1  0.048000  0.332000  0.580800  1
  C  C2153  1  0.082000  0.202000  0.669200  1
  C  C2154  1  0.418000  0.798000  0.169200  1
  C  C2155  1  0.048000  0.832000  0.419200  1
  C  C2156  1  0.452000  0.168000  0.919200  1
  C  C2157  1  0.582000  0.702000  0.169200  1
  C  C2158  1  0.918000  0.298000  0.669200  1
  C  C2159  1  0.548000  0.332000  0.919200  1
  C  C2160  1  0.952000  0.668000  0.419200  1
  C  C2161  1  0.408600  0.110200  0.428590  1
  C  C2162  1  0.091400  0.889800  0.928590  1
  C  C2163  1  0.639800  0.658600  0.678590  1
  C  C2164  1  0.860200  0.341400  0.178590  1
  C  C2165  1  0.908600  0.610200  0.928590  1
  C  C2166  1  0.591400  0.389800  0.428590  1
  C  C2167  1  0.139800  0.158600  0.178590  1
  C  C2168  1  0.360200  0.841400  0.678590  1
  C  C2169  1  0.591400  0.889800  0.571410  1
  C  C2170  1  0.908600  0.110200  0.071410  1
  C  C2171  1  0.360200  0.341400  0.321410  1
  C  C2172  1  0.139800  0.658600  0.821410  1
  C  C2173  1  0.091400  0.389800  0.071410  1
  C  C2174  1  0.408600  0.610200  0.571410  1
  C  C2175  1  0.860200  0.841400  0.821410  1
  C  C2176  1  0.639800  0.158600  0.321410  1
  C  C2177  1  0.408000  0.095700  0.444320  1
  C  C2178  1  0.092000  0.904300  0.944320  1
  C  C2179  1  0.654300  0.658000  0.694320  1
  C  C2180  1  0.845700  0.342000  0.194320  1
  C  C2181  1  0.908000  0.595700  0.944320  1
  C  C2182  1  0.592000  0.404300  0.444320  1
  C  C2183  1  0.154300  0.158000  0.194320  1
  C  C2184  1  0.345700  0.842000  0.694320  1
  C  C2185  1  0.592000  0.904300  0.555680  1
  C  C2186  1  0.908000  0.095700  0.055680  1
  C  C2187  1  0.345700  0.342000  0.305680  1
  C  C2188  1  0.154300  0.658000  0.805680  1
  C  C2189  1  0.092000  0.404300  0.055680  1
  C  C2190  1  0.408000  0.595700  0.555680  1
  C  C2191  1  0.845700  0.842000  0.805680  1
  C  C2192  1  0.654300  0.158000  0.305680  1
  C  C2193  1  0.483700  0.074600  0.338480  1
  C  C2194  1  0.016300  0.925400  0.838480  1
  C  C2195  1  0.675400  0.733700  0.588480  1
  C  C2196  1  0.824600  0.266300  0.088480  1
  C  C2197  1  0.983700  0.574600  0.838480  1
  C  C2198  1  0.516300  0.425400  0.338480  1
  C  C2199  1  0.175400  0.233700  0.088480  1
  C  C2200  1  0.324600  0.766300  0.588480  1
  C  C2201  1  0.516300  0.925400  0.661520  1
  C  C2202  1  0.983700  0.074600  0.161520  1
  C  C2203  1  0.324600  0.266300  0.411520  1
  C  C2204  1  0.175400  0.733700  0.911520  1
  C  C2205  1  0.016300  0.425400  0.161520  1
  C  C2206  1  0.483700  0.574600  0.661520  1
  C  C2207  1  0.824600  0.766300  0.911520  1
  C  C2208  1  0.675400  0.233700  0.411520  1
  C  C2209  1  0.500600  0.086200  0.323430  1
  C  C2210  1  0.999400  0.913800  0.823430  1
  C  C2211  1  0.663800  0.750600  0.573430  1
  C  C2212  1  0.836200  0.249400  0.073430  1
  C  C2213  1  0.000600  0.586200  0.823430  1
  C  C2214  1  0.499400  0.413800  0.323430  1
  C  C2215  1  0.163800  0.250600  0.073430  1
  C  C2216  1  0.336200  0.749400  0.573430  1
  C  C2217  1  0.499400  0.913800  0.676570  1
  C  C2218  1  0.000600  0.086200  0.176570  1
  C  C2219  1  0.336200  0.249400  0.426570  1
  C  C2220  1  0.163800  0.750600  0.926570  1
  C  C2221  1  0.999400  0.413800  0.176570  1
  C  C2222  1  0.500600  0.586200  0.676570  1
  C  C2223  1  0.836200  0.749400  0.926570  1
  C  C2224  1  0.663800  0.250600  0.426570  1
  C  C2225  1  0.500000  0.750000  0.575100  1
  C  C2226  1  0.000000  0.250000  0.075100  1
  C  C2227  1  0.000000  0.750000  0.825100  1
  C  C2228  1  0.500000  0.250000  0.325100  1
  C  C2229  1  0.500000  0.250000  0.424900  1
  C  C2230  1  0.000000  0.750000  0.924900  1
  C  C2231  1  0.000000  0.250000  0.174900  1
  C  C2232  1  0.500000  0.750000  0.674900  1
  C  C2233  1  0.500000  0.750000  0.558900  1
  C  C2234  1  0.000000  0.250000  0.058900  1
  C  C2235  1  0.000000  0.750000  0.808900  1
  C  C2236  1  0.500000  0.250000  0.308900  1
  C  C2237  1  0.500000  0.250000  0.441100  1
  C  C2238  1  0.000000  0.750000  0.941100  1
  C  C2239  1  0.000000  0.250000  0.191100  1
  C  C2240  1  0.500000  0.750000  0.691100  1
  C  C2241  1  0.766000  0.790000  0.355100  1
  C  C2242  1  0.734000  0.210000  0.855100  1
  C  C2243  1  0.960000  0.016000  0.605100  1
  C  C2244  1  0.540000  0.984000  0.105100  1
  C  C2245  1  0.266000  0.290000  0.855100  1
  C  C2246  1  0.234000  0.710000  0.355100  1
  C  C2247  1  0.460000  0.516000  0.105100  1
  C  C2248  1  0.040000  0.484000  0.605100  1
  C  C2249  1  0.234000  0.210000  0.644900  1
  C  C2250  1  0.266000  0.790000  0.144900  1
  C  C2251  1  0.040000  0.984000  0.394900  1
  C  C2252  1  0.460000  0.016000  0.894900  1
  C  C2253  1  0.734000  0.710000  0.144900  1
  C  C2254  1  0.766000  0.290000  0.644900  1
  C  C2255  1  0.540000  0.484000  0.894900  1
  C  C2256  1  0.960000  0.516000  0.394900  1
  C  C2257  1  0.762000  0.814000  0.340300  1
  C  C2258  1  0.738000  0.186000  0.840300  1
  C  C2259  1  0.936000  0.012000  0.590300  1
  C  C2260  1  0.564000  0.988000  0.090300  1
  C  C2261  1  0.262000  0.314000  0.840300  1
  C  C2262  1  0.238000  0.686000  0.340300  1
  C  C2263  1  0.436000  0.512000  0.090300  1
  C  C2264  1  0.064000  0.488000  0.590300  1
  C  C2265  1  0.238000  0.186000  0.659700  1
  C  C2266  1  0.262000  0.814000  0.159700  1
  C  C2267  1  0.064000  0.988000  0.409700  1
  C  C2268  1  0.436000  0.012000  0.909700  1
  C  C2269  1  0.738000  0.686000  0.159700  1
  C  C2270  1  0.762000  0.314000  0.659700  1
  C  C2271  1  0.564000  0.488000  0.909700  1
  C  C2272  1  0.936000  0.512000  0.409700  1
  C  C2273  1  0.781000  0.793000  0.366100  1
  C  C2274  1  0.719000  0.207000  0.866100  1
  C  C2275  1  0.957000  0.031000  0.616100  1
  C  C2276  1  0.543000  0.969000  0.116100  1
  C  C2277  1  0.281000  0.293000  0.866100  1
  C  C2278  1  0.219000  0.707000  0.366100  1
  C  C2279  1  0.457000  0.531000  0.116100  1
  C  C2280  1  0.043000  0.469000  0.616100  1
  C  C2281  1  0.219000  0.207000  0.633900  1
  C  C2282  1  0.281000  0.793000  0.133900  1
  C  C2283  1  0.043000  0.969000  0.383900  1
  C  C2284  1  0.457000  0.031000  0.883900  1
  C  C2285  1  0.719000  0.707000  0.133900  1
  C  C2286  1  0.781000  0.293000  0.633900  1
  C  C2287  1  0.543000  0.469000  0.883900  1
  C  C2288  1  0.957000  0.531000  0.383900  1
  C  C2289  1  0.797000  0.793000  0.350300  1
  C  C2290  1  0.703000  0.207000  0.850300  1
  C  C2291  1  0.957000  0.047000  0.600300  1
  C  C2292  1  0.543000  0.953000  0.100300  1
  C  C2293  1  0.297000  0.293000  0.850300  1
  C  C2294  1  0.203000  0.707000  0.350300  1
  C  C2295  1  0.457000  0.547000  0.100300  1
  C  C2296  1  0.043000  0.453000  0.600300  1
  C  C2297  1  0.203000  0.207000  0.649700  1
  C  C2298  1  0.297000  0.793000  0.149700  1
  C  C2299  1  0.043000  0.953000  0.399700  1
  C  C2300  1  0.457000  0.047000  0.899700  1
  C  C2301  1  0.703000  0.707000  0.149700  1
  C  C2302  1  0.797000  0.293000  0.649700  1
  C  C2303  1  0.543000  0.453000  0.899700  1
  C  C2304  1  0.957000  0.547000  0.399700  1
  C  C2305  1  0.481000  0.736000  0.560900  1
  C  C2306  1  0.019000  0.264000  0.060900  1
  C  C2307  1  0.014000  0.731000  0.810900  1
  C  C2308  1  0.486000  0.269000  0.310900  1
  C  C2309  1  0.981000  0.236000  0.060900  1
  C  C2310  1  0.519000  0.764000  0.560900  1
  C  C2311  1  0.514000  0.231000  0.310900  1
  C  C2312  1  0.986000  0.769000  0.810900  1
  C  C2313  1  0.519000  0.264000  0.439100  1
  C  C2314  1  0.981000  0.736000  0.939100  1
  C  C2315  1  0.986000  0.269000  0.189100  1
  C  C2316  1  0.514000  0.731000  0.689100  1
  C  C2317  1  0.019000  0.764000  0.939100  1
  C  C2318  1  0.481000  0.236000  0.439100  1
  C  C2319  1  0.486000  0.769000  0.689100  1
  C  C2320  1  0.014000  0.231000  0.189100  1
  C  C2321  1  0.913000  0.444000  0.470700  1
  C  C2322  1  0.587000  0.556000  0.970700  1
  C  C2323  1  0.306000  0.163000  0.720700  1
  C  C2324  1  0.194000  0.837000  0.220700  1
  C  C2325  1  0.413000  0.944000  0.970700  1
  C  C2326  1  0.087000  0.056000  0.470700  1
  C  C2327  1  0.806000  0.663000  0.220700  1
  C  C2328  1  0.694000  0.337000  0.720700  1
  C  C2329  1  0.087000  0.556000  0.529300  1
  C  C2330  1  0.413000  0.444000  0.029300  1
  C  C2331  1  0.694000  0.837000  0.279300  1
  C  C2332  1  0.806000  0.163000  0.779300  1
  C  C2333  1  0.587000  0.056000  0.029300  1
  C  C2334  1  0.913000  0.944000  0.529300  1
  C  C2335  1  0.194000  0.337000  0.779300  1
  C  C2336  1  0.306000  0.663000  0.279300  1
  C  C2337  1  0.923000  0.400000  0.461000  1
  C  C2338  1  0.577000  0.600000  0.961000  1
  C  C2339  1  0.350000  0.173000  0.711000  1
  C  C2340  1  0.150000  0.827000  0.211000  1
  C  C2341  1  0.423000  0.900000  0.961000  1
  C  C2342  1  0.077000  0.100000  0.461000  1
  C  C2343  1  0.850000  0.673000  0.211000  1
  C  C2344  1  0.650000  0.327000  0.711000  1
  C  C2345  1  0.077000  0.600000  0.539000  1
  C  C2346  1  0.423000  0.400000  0.039000  1
  C  C2347  1  0.650000  0.827000  0.289000  1
  C  C2348  1  0.850000  0.173000  0.789000  1
  C  C2349  1  0.577000  0.100000  0.039000  1
  C  C2350  1  0.923000  0.900000  0.539000  1
  C  C2351  1  0.150000  0.327000  0.789000  1
  C  C2352  1  0.350000  0.673000  0.289000  1
  C  C2353  1  0.983000  0.530000  0.473800  1
  C  C2354  1  0.517000  0.470000  0.973800  1
  C  C2355  1  0.220000  0.233000  0.723800  1
  C  C2356  1  0.280000  0.767000  0.223800  1
  C  C2357  1  0.483000  0.030000  0.973800  1
  C  C2358  1  0.017000  0.970000  0.473800  1
  C  C2359  1  0.720000  0.733000  0.223800  1
  C  C2360  1  0.780000  0.267000  0.723800  1
  C  C2361  1  0.017000  0.470000  0.526200  1
  C  C2362  1  0.483000  0.530000  0.026200  1
  C  C2363  1  0.780000  0.767000  0.276200  1
  C  C2364  1  0.720000  0.233000  0.776200  1
  C  C2365  1  0.517000  0.970000  0.026200  1
  C  C2366  1  0.983000  0.030000  0.526200  1
  C  C2367  1  0.280000  0.267000  0.776200  1
  C  C2368  1  0.220000  0.733000  0.276200  1
  C  C2369  1  0.938000  0.511000  0.481900  1
  C  C2370  1  0.562000  0.489000  0.981900  1
  C  C2371  1  0.239000  0.188000  0.731900  1
  C  C2372  1  0.261000  0.812000  0.231900  1
  C  C2373  1  0.438000  0.011000  0.981900  1
  C  C2374  1  0.062000  0.989000  0.481900  1
  C  C2375  1  0.739000  0.688000  0.231900  1
  C  C2376  1  0.761000  0.312000  0.731900  1
  C  C2377  1  0.062000  0.489000  0.518100  1
  C  C2378  1  0.438000  0.511000  0.018100  1
  C  C2379  1  0.761000  0.812000  0.268100  1
  C  C2380  1  0.739000  0.188000  0.768100  1
  C  C2381  1  0.562000  0.989000  0.018100  1
  C  C2382  1  0.938000  0.011000  0.518100  1
  C  C2383  1  0.261000  0.312000  0.768100  1
  C  C2384  1  0.239000  0.688000  0.268100  1
  C  C2385  1  0.488300  0.741100  0.577100  1
  C  C2386  1  0.011700  0.258900  0.077100  1
  C  C2387  1  0.008900  0.738300  0.827100  1
  C  C2388  1  0.491100  0.261700  0.327100  1
  C  C2389  1  0.988300  0.241100  0.077100  1
  C  C2390  1  0.511700  0.758900  0.577100  1
  C  C2391  1  0.508900  0.238300  0.327100  1
  C  C2392  1  0.991100  0.761700  0.827100  1
  C  C2393  1  0.511700  0.258900  0.422900  1
  C  C2394  1  0.988300  0.741100  0.922900  1
  C  C2395  1  0.991100  0.261700  0.172900  1
  C  C2396  1  0.508900  0.738300  0.672900  1
  C  C2397  1  0.011700  0.758900  0.922900  1
  C  C2398  1  0.488300  0.241100  0.422900  1
  C  C2399  1  0.491100  0.761700  0.672900  1
  C  C2400  1  0.008900  0.238300  0.172900  1
  C  C2401  1  0.699300  0.041800  0.349840  1.0
  C  C2402  1  0.800700  0.958200  0.849840  1.0
  C  C2403  1  0.708200  0.949300  0.599840  1.0
  C  C2404  1  0.791800  0.050700  0.099840  1.0
  C  C2405  1  0.199300  0.541800  0.849840  1.0
  C  C2406  1  0.300700  0.458200  0.349840  1.0
  C  C2407  1  0.208200  0.449300  0.099840  1.0
  C  C2408  1  0.291800  0.550700  0.599840  1.0
  C  C2409  1  0.300700  0.958200  0.650160  1.0
  C  C2410  1  0.199300  0.041800  0.150160  1.0
  C  C2411  1  0.291800  0.050700  0.400160  1.0
  C  C2412  1  0.208200  0.949300  0.900160  1.0
  C  C2413  1  0.800700  0.458200  0.150160  1.0
  C  C2414  1  0.699300  0.541800  0.650160  1.0
  C  C2415  1  0.791800  0.550700  0.900160  1.0
  C  C2416  1  0.708200  0.449300  0.400160  1.0
  C  C2417  1  0.696900  0.037200  0.334380  1.0
  C  C2418  1  0.803100  0.962800  0.834380  1.0
  C  C2419  1  0.712800  0.946900  0.584380  1.0
  C  C2420  1  0.787200  0.053100  0.084380  1.0
  C  C2421  1  0.196900  0.537200  0.834380  1.0
  C  C2422  1  0.303100  0.462800  0.334380  1.0
  C  C2423  1  0.212800  0.446900  0.084380  1.0
  C  C2424  1  0.287200  0.553100  0.584380  1.0
  C  C2425  1  0.303100  0.962800  0.665620  1.0
  C  C2426  1  0.196900  0.037200  0.165620  1.0
  C  C2427  1  0.287200  0.053100  0.415620  1.0
  C  C2428  1  0.212800  0.946900  0.915620  1.0
  C  C2429  1  0.803100  0.462800  0.165620  1.0
  C  C2430  1  0.696900  0.537200  0.665620  1.0
  C  C2431  1  0.787200  0.553100  0.915620  1.0
  C  C2432  1  0.712800  0.446900  0.415620  1.0
  C  C2433  1  0.652800  0.021000  0.327460  1.0
  C  C2434  1  0.847200  0.979000  0.827460  1.0
  C  C2435  1  0.729000  0.902800  0.577460  1.0
  C  C2436  1  0.771000  0.097200  0.077460  1.0
  C  C2437  1  0.152800  0.521000  0.827460  1.0
  C  C2438  1  0.347200  0.479000  0.327460  1.0
  C  C2439  1  0.229000  0.402800  0.077460  1.0
  C  C2440  1  0.271000  0.597200  0.577460  1.0
  C  C2441  1  0.347200  0.979000  0.672540  1.0
  C  C2442  1  0.152800  0.021000  0.172540  1.0
  C  C2443  1  0.271000  0.097200  0.422540  1.0
  C  C2444  1  0.229000  0.902800  0.922540  1.0
  C  C2445  1  0.847200  0.479000  0.172540  1.0
  C  C2446  1  0.652800  0.521000  0.672540  1.0
  C  C2447  1  0.771000  0.597200  0.922540  1.0
  C  C2448  1  0.729000  0.402800  0.422540  1.0
  C  C2449  1  0.610700  0.008000  0.336330  1.0
  C  C2450  1  0.889300  0.992000  0.836330  1.0
  C  C2451  1  0.742000  0.860700  0.586330  1.0
  C  C2452  1  0.758000  0.139300  0.086330  1.0
  C  C2453  1  0.110700  0.508000  0.836330  1.0
  C  C2454  1  0.389300  0.492000  0.336330  1.0
  C  C2455  1  0.242000  0.360700  0.086330  1.0
  C  C2456  1  0.258000  0.639300  0.586330  1.0
  C  C2457  1  0.389300  0.992000  0.663670  1.0
  C  C2458  1  0.110700  0.008000  0.163670  1.0
  C  C2459  1  0.258000  0.139300  0.413670  1.0
  C  C2460  1  0.242000  0.860700  0.913670  1.0
  C  C2461  1  0.889300  0.492000  0.163670  1.0
  C  C2462  1  0.610700  0.508000  0.663670  1.0
  C  C2463  1  0.758000  0.639300  0.913670  1.0
  C  C2464  1  0.742000  0.360700  0.413670  1.0
  C  C2465  1  0.614400  0.012800  0.351700  1.0
  C  C2466  1  0.885600  0.987200  0.851700  1.0
  C  C2467  1  0.737200  0.864400  0.601700  1.0
  C  C2468  1  0.762800  0.135600  0.101700  1.0
  C  C2469  1  0.114400  0.512800  0.851700  1.0
  C  C2470  1  0.385600  0.487200  0.351700  1.0
  C  C2471  1  0.237200  0.364400  0.101700  1.0
  C  C2472  1  0.262800  0.635600  0.601700  1.0
  C  C2473  1  0.385600  0.987200  0.648300  1.0
  C  C2474  1  0.114400  0.012800  0.148300  1.0
  C  C2475  1  0.262800  0.135600  0.398300  1.0
  C  C2476  1  0.237200  0.864400  0.898300  1.0
  C  C2477  1  0.885600  0.487200  0.148300  1.0
  C  C2478  1  0.614400  0.512800  0.648300  1.0
  C  C2479  1  0.762800  0.635600  0.898300  1.0
  C  C2480  1  0.737200  0.364400  0.398300  1.0
  C  C2481  1  0.574600  0.999900  0.362000  1.0
  C  C2482  1  0.925400  0.000100  0.862000  1.0
  C  C2483  1  0.750100  0.824600  0.612000  1.0
  C  C2484  1  0.749900  0.175400  0.112000  1.0
  C  C2485  1  0.074600  0.499900  0.862000  1.0
  C  C2486  1  0.425400  0.500100  0.362000  1.0
  C  C2487  1  0.250100  0.324600  0.112000  1.0
  C  C2488  1  0.249900  0.675400  0.612000  1.0
  C  C2489  1  0.425400  0.000100  0.638000  1.0
  C  C2490  1  0.074600  0.999900  0.138000  1.0
  C  C2491  1  0.249900  0.175400  0.388000  1.0
  C  C2492  1  0.250100  0.824600  0.888000  1.0
  C  C2493  1  0.925400  0.500100  0.138000  1.0
  C  C2494  1  0.574600  0.499900  0.638000  1.0
  C  C2495  1  0.749900  0.675400  0.888000  1.0
  C  C2496  1  0.750100  0.324600  0.388000  1.0
  C  C2497  1  0.544100  0.990800  0.386170  1.0
  C  C2498  1  0.955900  0.009200  0.886170  1.0
  C  C2499  1  0.759200  0.794100  0.636170  1.0
  C  C2500  1  0.740800  0.205900  0.136170  1.0
  C  C2501  1  0.044100  0.490800  0.886170  1.0
  C  C2502  1  0.455900  0.509200  0.386170  1.0
  C  C2503  1  0.259200  0.294100  0.136170  1.0
  C  C2504  1  0.240800  0.705900  0.636170  1.0
  C  C2505  1  0.455900  0.009200  0.613830  1.0
  C  C2506  1  0.044100  0.990800  0.113830  1.0
  C  C2507  1  0.240800  0.205900  0.363830  1.0
  C  C2508  1  0.259200  0.794100  0.863830  1.0
  C  C2509  1  0.955900  0.509200  0.113830  1.0
  C  C2510  1  0.544100  0.490800  0.613830  1.0
  C  C2511  1  0.740800  0.705900  0.863830  1.0
  C  C2512  1  0.759200  0.294100  0.363830  1.0
  C  C2513  1  0.546000  0.948200  0.395320  1.0
  C  C2514  1  0.954000  0.051800  0.895320  1.0
  C  C2515  1  0.801800  0.796000  0.645320  1.0
  C  C2516  1  0.698200  0.204000  0.145320  1.0
  C  C2517  1  0.046000  0.448200  0.895320  1.0
  C  C2518  1  0.454000  0.551800  0.395320  1.0
  C  C2519  1  0.301800  0.296000  0.145320  1.0
  C  C2520  1  0.198200  0.704000  0.645320  1.0
  C  C2521  1  0.454000  0.051800  0.604680  1.0
  C  C2522  1  0.046000  0.948200  0.104680  1.0
  C  C2523  1  0.198200  0.204000  0.354680  1.0
  C  C2524  1  0.301800  0.796000  0.854680  1.0
  C  C2525  1  0.954000  0.551800  0.104680  1.0
  C  C2526  1  0.546000  0.448200  0.604680  1.0
  C  C2527  1  0.698200  0.704000  0.854680  1.0
  C  C2528  1  0.801800  0.296000  0.354680  1.0
  C  C2529  1  0.505500  0.937800  0.404680  1.0
  C  C2530  1  0.994500  0.062200  0.904680  1.0
  C  C2531  1  0.812200  0.755500  0.654680  1.0
  C  C2532  1  0.687800  0.244500  0.154680  1.0
  C  C2533  1  0.005500  0.437800  0.904680  1.0
  C  C2534  1  0.494500  0.562200  0.404680  1.0
  C  C2535  1  0.312200  0.255500  0.154680  1.0
  C  C2536  1  0.187800  0.744500  0.654680  1.0
  C  C2537  1  0.494500  0.062200  0.595320  1.0
  C  C2538  1  0.005500  0.937800  0.095320  1.0
  C  C2539  1  0.187800  0.244500  0.345320  1.0
  C  C2540  1  0.312200  0.755500  0.845320  1.0
  C  C2541  1  0.994500  0.562200  0.095320  1.0
  C  C2542  1  0.505500  0.437800  0.595320  1.0
  C  C2543  1  0.687800  0.744500  0.845320  1.0
  C  C2544  1  0.812200  0.255500  0.345320  1.0
  C  C2545  1  0.462600  0.969500  0.405510  1.0
  C  C2546  1  0.037400  0.030500  0.905510  1.0
  C  C2547  1  0.780500  0.712600  0.655510  1.0
  C  C2548  1  0.719500  0.287400  0.155510  1.0
  C  C2549  1  0.962600  0.469500  0.905510  1.0
  C  C2550  1  0.537400  0.530500  0.405510  1.0
  C  C2551  1  0.280500  0.212600  0.155510  1.0
  C  C2552  1  0.219500  0.787400  0.655510  1.0
  C  C2553  1  0.537400  0.030500  0.594490  1.0
  C  C2554  1  0.962600  0.969500  0.094490  1.0
  C  C2555  1  0.219500  0.287400  0.344490  1.0
  C  C2556  1  0.280500  0.712600  0.844490  1.0
  C  C2557  1  0.037400  0.530500  0.094490  1.0
  C  C2558  1  0.462600  0.469500  0.594490  1.0
  C  C2559  1  0.719500  0.787400  0.844490  1.0
  C  C2560  1  0.780500  0.212600  0.344490  1.0
  C  C2561  1  0.462700  0.012500  0.396580  1.0
  C  C2562  1  0.037300  0.987500  0.896580  1.0
  C  C2563  1  0.737500  0.712700  0.646580  1.0
  C  C2564  1  0.762500  0.287300  0.146580  1.0
  C  C2565  1  0.962700  0.512500  0.896580  1.0
  C  C2566  1  0.537300  0.487500  0.396580  1.0
  C  C2567  1  0.237500  0.212700  0.146580  1.0
  C  C2568  1  0.262500  0.787300  0.646580  1.0
  C  C2569  1  0.537300  0.987500  0.603420  1.0
  C  C2570  1  0.962700  0.012500  0.103420  1.0
  C  C2571  1  0.262500  0.287300  0.353420  1.0
  C  C2572  1  0.237500  0.712700  0.853420  1.0
  C  C2573  1  0.037300  0.487500  0.103420  1.0
  C  C2574  1  0.462700  0.512500  0.603420  1.0
  C  C2575  1  0.762500  0.787300  0.853420  1.0
  C  C2576  1  0.737500  0.212700  0.353420  1.0
  C  C2577  1  0.502400  0.023100  0.387050  1.0
  C  C2578  1  0.997600  0.976900  0.887050  1.0
  C  C2579  1  0.726900  0.752400  0.637050  1.0
  C  C2580  1  0.773100  0.247600  0.137050  1.0
  C  C2581  1  0.002400  0.523100  0.887050  1.0
  C  C2582  1  0.497600  0.476900  0.387050  1.0
  C  C2583  1  0.226900  0.252400  0.137050  1.0
  C  C2584  1  0.273100  0.747600  0.637050  1.0
  C  C2585  1  0.497600  0.976900  0.612950  1.0
  C  C2586  1  0.002400  0.023100  0.112950  1.0
  C  C2587  1  0.273100  0.247600  0.362950  1.0
  C  C2588  1  0.226900  0.752400  0.862950  1.0
  C  C2589  1  0.997600  0.476900  0.112950  1.0
  C  C2590  1  0.502400  0.523100  0.612950  1.0
  C  C2591  1  0.773100  0.747600  0.862950  1.0
  C  C2592  1  0.726900  0.252400  0.362950  1.0
  C  C2593  1  0.418500  0.955800  0.415390  1.0
  C  C2594  1  0.081500  0.044200  0.915390  1.0
  C  C2595  1  0.794200  0.668500  0.665390  1.0
  C  C2596  1  0.705800  0.331500  0.165390  1.0
  C  C2597  1  0.918500  0.455800  0.915390  1.0
  C  C2598  1  0.581500  0.544200  0.415390  1.0
  C  C2599  1  0.294200  0.168500  0.165390  1.0
  C  C2600  1  0.205800  0.831500  0.665390  1.0
  C  C2601  1  0.581500  0.044200  0.584610  1.0
  C  C2602  1  0.918500  0.955800  0.084610  1.0
  C  C2603  1  0.205800  0.331500  0.334610  1.0
  C  C2604  1  0.294200  0.668500  0.834610  1.0
  C  C2605  1  0.081500  0.544200  0.084610  1.0
  C  C2606  1  0.418500  0.455800  0.584610  1.0
  C  C2607  1  0.705800  0.831500  0.834610  1.0
  C  C2608  1  0.794200  0.168500  0.334610  1.0
  C  C2609  1  0.372800  0.941000  0.409340  1.0
  C  C2610  1  0.127200  0.059000  0.909340  1.0
  C  C2611  1  0.809000  0.622800  0.659340  1.0
  C  C2612  1  0.691000  0.377200  0.159340  1.0
  C  C2613  1  0.872800  0.441000  0.909340  1.0
  C  C2614  1  0.627200  0.559000  0.409340  1.0
  C  C2615  1  0.309000  0.122800  0.159340  1.0
  C  C2616  1  0.191000  0.877200  0.659340  1.0
  C  C2617  1  0.627200  0.059000  0.590660  1.0
  C  C2618  1  0.872800  0.941000  0.090660  1.0
  C  C2619  1  0.191000  0.377200  0.340660  1.0
  C  C2620  1  0.309000  0.622800  0.840660  1.0
  C  C2621  1  0.127200  0.559000  0.090660  1.0
  C  C2622  1  0.372800  0.441000  0.590660  1.0
  C  C2623  1  0.691000  0.877200  0.840660  1.0
  C  C2624  1  0.809000  0.122800  0.340660  1.0
  C  C2625  1  0.330900  0.925000  0.418160  1.0
  C  C2626  1  0.169100  0.075000  0.918160  1.0
  C  C2627  1  0.825000  0.580900  0.668160  1.0
  C  C2628  1  0.675000  0.419100  0.168160  1.0
  C  C2629  1  0.830900  0.425000  0.918160  1.0
  C  C2630  1  0.669100  0.575000  0.418160  1.0
  C  C2631  1  0.325000  0.080900  0.168160  1.0
  C  C2632  1  0.175000  0.919100  0.668160  1.0
  C  C2633  1  0.669100  0.075000  0.581840  1.0
  C  C2634  1  0.830900  0.925000  0.081840  1.0
  C  C2635  1  0.175000  0.419100  0.331840  1.0
  C  C2636  1  0.325000  0.580900  0.831840  1.0
  C  C2637  1  0.169100  0.575000  0.081840  1.0
  C  C2638  1  0.330900  0.425000  0.581840  1.0
  C  C2639  1  0.675000  0.919100  0.831840  1.0
  C  C2640  1  0.825000  0.080900  0.331840  1.0
  C  C2641  1  0.334700  0.925500  0.433030  1.0
  C  C2642  1  0.165300  0.074500  0.933030  1.0
  C  C2643  1  0.824500  0.584700  0.683030  1.0
  C  C2644  1  0.675500  0.415300  0.183030  1.0
  C  C2645  1  0.834700  0.425500  0.933030  1.0
  C  C2646  1  0.665300  0.574500  0.433030  1.0
  C  C2647  1  0.324500  0.084700  0.183030  1.0
  C  C2648  1  0.175500  0.915300  0.683030  1.0
  C  C2649  1  0.665300  0.074500  0.566970  1.0
  C  C2650  1  0.834700  0.925500  0.066970  1.0
  C  C2651  1  0.175500  0.415300  0.316970  1.0
  C  C2652  1  0.324500  0.584700  0.816970  1.0
  C  C2653  1  0.165300  0.574500  0.066970  1.0
  C  C2654  1  0.334700  0.425500  0.566970  1.0
  C  C2655  1  0.675500  0.915300  0.816970  1.0
  C  C2656  1  0.824500  0.084700  0.316970  1.0
  C  C2657  1  0.380300  0.941400  0.440340  1.0
  C  C2658  1  0.119700  0.058600  0.940340  1.0
  C  C2659  1  0.808600  0.630300  0.690340  1.0
  C  C2660  1  0.691400  0.369700  0.190340  1.0
  C  C2661  1  0.880300  0.441400  0.940340  1.0
  C  C2662  1  0.619700  0.558600  0.440340  1.0
  C  C2663  1  0.308600  0.130300  0.190340  1.0
  C  C2664  1  0.191400  0.869700  0.690340  1.0
  C  C2665  1  0.619700  0.058600  0.559660  1.0
  C  C2666  1  0.880300  0.941400  0.059660  1.0
  C  C2667  1  0.191400  0.369700  0.309660  1.0
  C  C2668  1  0.308600  0.630300  0.809660  1.0
  C  C2669  1  0.119700  0.558600  0.059660  1.0
  C  C2670  1  0.380300  0.441400  0.559660  1.0
  C  C2671  1  0.691400  0.869700  0.809660  1.0
  C  C2672  1  0.808600  0.130300  0.309660  1.0
  C  C2673  1  0.385400  0.942800  0.455770  1.0
  C  C2674  1  0.114600  0.057200  0.955770  1.0
  C  C2675  1  0.807200  0.635400  0.705770  1.0
  C  C2676  1  0.692800  0.364600  0.205770  1.0
  C  C2677  1  0.885400  0.442800  0.955770  1.0
  C  C2678  1  0.614600  0.557200  0.455770  1.0
  C  C2679  1  0.307200  0.135400  0.205770  1.0
  C  C2680  1  0.192800  0.864600  0.705770  1.0
  C  C2681  1  0.614600  0.057200  0.544230  1.0
  C  C2682  1  0.885400  0.942800  0.044230  1.0
  C  C2683  1  0.192800  0.364600  0.294230  1.0
  C  C2684  1  0.307200  0.635400  0.794230  1.0
  C  C2685  1  0.114600  0.557200  0.044230  1.0
  C  C2686  1  0.385400  0.442800  0.544230  1.0
  C  C2687  1  0.692800  0.864600  0.794230  1.0
  C  C2688  1  0.807200  0.135400  0.294230  1.0
  C  C2689  1  0.430200  0.955900  0.462970  1.0
  C  C2690  1  0.069800  0.044100  0.962970  1.0
  C  C2691  1  0.794100  0.680200  0.712970  1.0
  C  C2692  1  0.705900  0.319800  0.212970  1.0
  C  C2693  1  0.930200  0.455900  0.962970  1.0
  C  C2694  1  0.569800  0.544100  0.462970  1.0
  C  C2695  1  0.294100  0.180200  0.212970  1.0
  C  C2696  1  0.205900  0.819800  0.712970  1.0
  C  C2697  1  0.569800  0.044100  0.537030  1.0
  C  C2698  1  0.930200  0.955900  0.037030  1.0
  C  C2699  1  0.205900  0.319800  0.287030  1.0
  C  C2700  1  0.294100  0.680200  0.787030  1.0
  C  C2701  1  0.069800  0.544100  0.037030  1.0
  C  C2702  1  0.430200  0.455900  0.537030  1.0
  C  C2703  1  0.705900  0.819800  0.787030  1.0
  C  C2704  1  0.794100  0.180200  0.287030  1.0
  C  C2705  1  0.437200  0.954600  0.479060  1.0
  C  C2706  1  0.062800  0.045400  0.979060  1.0
  C  C2707  1  0.795400  0.687200  0.729060  1.0
  C  C2708  1  0.704600  0.312800  0.229060  1.0
  C  C2709  1  0.937200  0.454600  0.979060  1.0
  C  C2710  1  0.562800  0.545400  0.479060  1.0
  C  C2711  1  0.295400  0.187200  0.229060  1.0
  C  C2712  1  0.204600  0.812800  0.729060  1.0
  C  C2713  1  0.562800  0.045400  0.520940  1.0
  C  C2714  1  0.937200  0.954600  0.020940  1.0
  C  C2715  1  0.204600  0.312800  0.270940  1.0
  C  C2716  1  0.295400  0.687200  0.770940  1.0
  C  C2717  1  0.062800  0.545400  0.020940  1.0
  C  C2718  1  0.437200  0.454600  0.520940  1.0
  C  C2719  1  0.704600  0.812800  0.770940  1.0
  C  C2720  1  0.795400  0.187200  0.270940  1.0
  C  C2721  1  0.484300  0.962800  0.484970  1.0
  C  C2722  1  0.015700  0.037200  0.984970  1.0
  C  C2723  1  0.787200  0.734300  0.734970  1.0
  C  C2724  1  0.712800  0.265700  0.234970  1.0
  C  C2725  1  0.984300  0.462800  0.984970  1.0
  C  C2726  1  0.515700  0.537200  0.484970  1.0
  C  C2727  1  0.287200  0.234300  0.234970  1.0
  C  C2728  1  0.212800  0.765700  0.734970  1.0
  C  C2729  1  0.515700  0.037200  0.515030  1.0
  C  C2730  1  0.984300  0.962800  0.015030  1.0
  C  C2731  1  0.212800  0.265700  0.265030  1.0
  C  C2732  1  0.287200  0.734300  0.765030  1.0
  C  C2733  1  0.015700  0.537200  0.015030  1.0
  C  C2734  1  0.484300  0.462800  0.515030  1.0
  C  C2735  1  0.712800  0.765700  0.765030  1.0
  C  C2736  1  0.787200  0.234300  0.265030  1.0
  C  C2737  1  0.526700  0.977700  0.476090  1.0
  C  C2738  1  0.973300  0.022300  0.976090  1.0
  C  C2739  1  0.772300  0.776700  0.726090  1.0
  C  C2740  1  0.727700  0.223300  0.226090  1.0
  C  C2741  1  0.026700  0.477700  0.976090  1.0
  C  C2742  1  0.473300  0.522300  0.476090  1.0
  C  C2743  1  0.272300  0.276700  0.226090  1.0
  C  C2744  1  0.227700  0.723300  0.726090  1.0
  C  C2745  1  0.473300  0.022300  0.523910  1.0
  C  C2746  1  0.026700  0.977700  0.023910  1.0
  C  C2747  1  0.227700  0.223300  0.273910  1.0
  C  C2748  1  0.272300  0.776700  0.773910  1.0
  C  C2749  1  0.973300  0.522300  0.023910  1.0
  C  C2750  1  0.526700  0.477700  0.523910  1.0
  C  C2751  1  0.727700  0.723300  0.773910  1.0
  C  C2752  1  0.772300  0.276700  0.273910  1.0
  C  C2753  1  0.521200  0.983300  0.461030  1.0
  C  C2754  1  0.978800  0.016700  0.961030  1.0
  C  C2755  1  0.766700  0.771200  0.711030  1.0
  C  C2756  1  0.733300  0.228800  0.211030  1.0
  C  C2757  1  0.021200  0.483300  0.961030  1.0
  C  C2758  1  0.478800  0.516700  0.461030  1.0
  C  C2759  1  0.266700  0.271200  0.211030  1.0
  C  C2760  1  0.233300  0.728800  0.711030  1.0
  C  C2761  1  0.478800  0.016700  0.538970  1.0
  C  C2762  1  0.021200  0.983300  0.038970  1.0
  C  C2763  1  0.233300  0.228800  0.288970  1.0
  C  C2764  1  0.266700  0.771200  0.788970  1.0
  C  C2765  1  0.978800  0.516700  0.038970  1.0
  C  C2766  1  0.521200  0.483300  0.538970  1.0
  C  C2767  1  0.733300  0.728800  0.788970  1.0
  C  C2768  1  0.766700  0.271200  0.288970  1.0
  C  C2769  1  0.473800  0.970700  0.454020  1.0
  C  C2770  1  0.026200  0.029300  0.954020  1.0
  C  C2771  1  0.779300  0.723800  0.704020  1.0
  C  C2772  1  0.720700  0.276200  0.204020  1.0
  C  C2773  1  0.973800  0.470700  0.954020  1.0
  C  C2774  1  0.526200  0.529300  0.454020  1.0
  C  C2775  1  0.279300  0.223800  0.204020  1.0
  C  C2776  1  0.220700  0.776200  0.704020  1.0
  C  C2777  1  0.526200  0.029300  0.545980  1.0
  C  C2778  1  0.973800  0.970700  0.045980  1.0
  C  C2779  1  0.220700  0.276200  0.295980  1.0
  C  C2780  1  0.279300  0.723800  0.795980  1.0
  C  C2781  1  0.026200  0.529300  0.045980  1.0
  C  C2782  1  0.473800  0.470700  0.545980  1.0
  C  C2783  1  0.720700  0.776200  0.795980  1.0
  C  C2784  1  0.779300  0.223800  0.295980  1.0
  C  C2785  1  0.468800  0.971600  0.438520  1.0
  C  C2786  1  0.031200  0.028400  0.938520  1.0
  C  C2787  1  0.778400  0.718800  0.688520  1.0
  C  C2788  1  0.721600  0.281200  0.188520  1.0
  C  C2789  1  0.968800  0.471600  0.938520  1.0
  C  C2790  1  0.531200  0.528400  0.438520  1.0
  C  C2791  1  0.278400  0.218800  0.188520  1.0
  C  C2792  1  0.221600  0.781200  0.688520  1.0
  C  C2793  1  0.531200  0.028400  0.561480  1.0
  C  C2794  1  0.968800  0.971600  0.061480  1.0
  C  C2795  1  0.221600  0.281200  0.311480  1.0
  C  C2796  1  0.278400  0.718800  0.811480  1.0
  C  C2797  1  0.031200  0.528400  0.061480  1.0
  C  C2798  1  0.468800  0.471600  0.561480  1.0
  C  C2799  1  0.721600  0.781200  0.811480  1.0
  C  C2800  1  0.778400  0.218800  0.311480  1.0
  C  C2801  1  0.423800  0.956700  0.431340  1.0
  C  C2802  1  0.076200  0.043300  0.931340  1.0
  C  C2803  1  0.793300  0.673800  0.681340  1.0
  C  C2804  1  0.706700  0.326200  0.181340  1.0
  C  C2805  1  0.923800  0.456700  0.931340  1.0
  C  C2806  1  0.576200  0.543300  0.431340  1.0
  C  C2807  1  0.293300  0.173800  0.181340  1.0
  C  C2808  1  0.206700  0.826200  0.681340  1.0
  C  C2809  1  0.576200  0.043300  0.568660  1.0
  C  C2810  1  0.923800  0.956700  0.068660  1.0
  C  C2811  1  0.206700  0.326200  0.318660  1.0
  C  C2812  1  0.293300  0.673800  0.818660  1.0
  C  C2813  1  0.076200  0.543300  0.068660  1.0
  C  C2814  1  0.423800  0.456700  0.568660  1.0
  C  C2815  1  0.706700  0.826200  0.818660  1.0
  C  C2816  1  0.793300  0.173800  0.318660  1.0
  C  C2817  1  0.393600  0.944500  0.489400  1.0
  C  C2818  1  0.106400  0.055500  0.989400  1.0
  C  C2819  1  0.805500  0.643600  0.739400  1.0
  C  C2820  1  0.694500  0.356400  0.239400  1.0
  C  C2821  1  0.893600  0.444500  0.989400  1.0
  C  C2822  1  0.606400  0.555500  0.489400  1.0
  C  C2823  1  0.305500  0.143600  0.239400  1.0
  C  C2824  1  0.194500  0.856400  0.739400  1.0
  C  C2825  1  0.606400  0.055500  0.510600  1.0
  C  C2826  1  0.893600  0.944500  0.010600  1.0
  C  C2827  1  0.194500  0.356400  0.260600  1.0
  C  C2828  1  0.305500  0.643600  0.760600  1.0
  C  C2829  1  0.106400  0.555500  0.010600  1.0
  C  C2830  1  0.393600  0.444500  0.510600  1.0
  C  C2831  1  0.694500  0.856400  0.760600  1.0
  C  C2832  1  0.805500  0.143600  0.260600  1.0
  C  C2833  1  0.396000  0.903600  0.499280  1.0
  C  C2834  1  0.104000  0.096400  0.999280  1.0
  C  C2835  1  0.846400  0.646000  0.749280  1.0
  C  C2836  1  0.653600  0.354000  0.249280  1.0
  C  C2837  1  0.896000  0.403600  0.999280  1.0
  C  C2838  1  0.604000  0.596400  0.499280  1.0
  C  C2839  1  0.346400  0.146000  0.249280  1.0
  C  C2840  1  0.153600  0.854000  0.749280  1.0
  C  C2841  1  0.604000  0.096400  0.500720  1.0
  C  C2842  1  0.896000  0.903600  0.000720  1.0
  C  C2843  1  0.153600  0.354000  0.250720  1.0
  C  C2844  1  0.346400  0.646000  0.750720  1.0
  C  C2845  1  0.104000  0.596400  0.000720  1.0
  C  C2846  1  0.396000  0.403600  0.500720  1.0
  C  C2847  1  0.653600  0.854000  0.750720  1.0
  C  C2848  1  0.846400  0.146000  0.250720  1.0
  C  C2849  1  0.358200  0.895500  0.509960  1.0
  C  C2850  1  0.141800  0.104500  0.009960  1.0
  C  C2851  1  0.854500  0.608200  0.759960  1.0
  C  C2852  1  0.645500  0.391800  0.259960  1.0
  C  C2853  1  0.858200  0.395500  0.009960  1.0
  C  C2854  1  0.641800  0.604500  0.509960  1.0
  C  C2855  1  0.354500  0.108200  0.259960  1.0
  C  C2856  1  0.145500  0.891800  0.759960  1.0
  C  C2857  1  0.641800  0.104500  0.490040  1.0
  C  C2858  1  0.858200  0.895500  0.990040  1.0
  C  C2859  1  0.145500  0.391800  0.240040  1.0
  C  C2860  1  0.354500  0.608200  0.740040  1.0
  C  C2861  1  0.141800  0.604500  0.990040  1.0
  C  C2862  1  0.358200  0.395500  0.490040  1.0
  C  C2863  1  0.645500  0.891800  0.740040  1.0
  C  C2864  1  0.854500  0.108200  0.240040  1.0
  C  C2865  1  0.316800  0.927900  0.510690  1.0
  C  C2866  1  0.183200  0.072100  0.010690  1.0
  C  C2867  1  0.822100  0.566800  0.760690  1.0
  C  C2868  1  0.677900  0.433200  0.260690  1.0
  C  C2869  1  0.816800  0.427900  0.010690  1.0
  C  C2870  1  0.683200  0.572100  0.510690  1.0
  C  C2871  1  0.322100  0.066800  0.260690  1.0
  C  C2872  1  0.177900  0.933200  0.760690  1.0
  C  C2873  1  0.683200  0.072100  0.489310  1.0
  C  C2874  1  0.816800  0.927900  0.989310  1.0
  C  C2875  1  0.177900  0.433200  0.239310  1.0
  C  C2876  1  0.322100  0.566800  0.739310  1.0
  C  C2877  1  0.183200  0.572100  0.989310  1.0
  C  C2878  1  0.316800  0.427900  0.489310  1.0
  C  C2879  1  0.677900  0.933200  0.739310  1.0
  C  C2880  1  0.822100  0.066800  0.239310  1.0
  C  C2881  1  0.312900  0.969500  0.501030  1.0
  C  C2882  1  0.187100  0.030500  0.001030  1.0
  C  C2883  1  0.780500  0.562900  0.751030  1.0
  C  C2884  1  0.719500  0.437100  0.251030  1.0
  C  C2885  1  0.812900  0.469500  0.001030  1.0
  C  C2886  1  0.687100  0.530500  0.501030  1.0
  C  C2887  1  0.280500  0.062900  0.251030  1.0
  C  C2888  1  0.219500  0.937100  0.751030  1.0
  C  C2889  1  0.687100  0.030500  0.498970  1.0
  C  C2890  1  0.812900  0.969500  0.998970  1.0
  C  C2891  1  0.219500  0.437100  0.248970  1.0
  C  C2892  1  0.280500  0.562900  0.748970  1.0
  C  C2893  1  0.187100  0.530500  0.998970  1.0
  C  C2894  1  0.312900  0.469500  0.498970  1.0
  C  C2895  1  0.719500  0.937100  0.748970  1.0
  C  C2896  1  0.780500  0.062900  0.248970  1.0
  C  C2897  1  0.351600  0.976600  0.490260  1.0
  C  C2898  1  0.148400  0.023400  0.990260  1.0
  C  C2899  1  0.773400  0.601600  0.740260  1.0
  C  C2900  1  0.726600  0.398400  0.240260  1.0
  C  C2901  1  0.851600  0.476600  0.990260  1.0
  C  C2902  1  0.648400  0.523400  0.490260  1.0
  C  C2903  1  0.273400  0.101600  0.240260  1.0
  C  C2904  1  0.226600  0.898400  0.740260  1.0
  C  C2905  1  0.648400  0.023400  0.509740  1.0
  C  C2906  1  0.851600  0.976600  0.009740  1.0
  C  C2907  1  0.226600  0.398400  0.259740  1.0
  C  C2908  1  0.273400  0.601600  0.759740  1.0
  C  C2909  1  0.148400  0.523400  0.009740  1.0
  C  C2910  1  0.351600  0.476600  0.509740  1.0
  C  C2911  1  0.726600  0.898400  0.759740  1.0
  C  C2912  1  0.773400  0.101600  0.259740  1.0
  C  C2913  1  0.294400  0.915100  0.535440  1.0
  C  C2914  1  0.205600  0.084900  0.035440  1.0
  C  C2915  1  0.834900  0.544400  0.785440  1.0
  C  C2916  1  0.665100  0.455600  0.285440  1.0
  C  C2917  1  0.794400  0.415100  0.035440  1.0
  C  C2918  1  0.705600  0.584900  0.535440  1.0
  C  C2919  1  0.334900  0.044400  0.285440  1.0
  C  C2920  1  0.165100  0.955600  0.785440  1.0
  C  C2921  1  0.705600  0.084900  0.464560  1.0
  C  C2922  1  0.794400  0.915100  0.964560  1.0
  C  C2923  1  0.165100  0.455600  0.214560  1.0
  C  C2924  1  0.334900  0.544400  0.714560  1.0
  C  C2925  1  0.205600  0.584900  0.964560  1.0
  C  C2926  1  0.294400  0.415100  0.464560  1.0
  C  C2927  1  0.665100  0.955600  0.714560  1.0
  C  C2928  1  0.834900  0.044400  0.214560  1.0
  C  C2929  1  0.256500  0.896900  0.546430  1.0
  C  C2930  1  0.243500  0.103100  0.046430  1.0
  C  C2931  1  0.853100  0.506500  0.796430  1.0
  C  C2932  1  0.646900  0.493500  0.296430  1.0
  C  C2933  1  0.756500  0.396900  0.046430  1.0
  C  C2934  1  0.743500  0.603100  0.546430  1.0
  C  C2935  1  0.353100  0.006500  0.296430  1.0
  C  C2936  1  0.146900  0.993500  0.796430  1.0
  C  C2937  1  0.743500  0.103100  0.453570  1.0
  C  C2938  1  0.756500  0.896900  0.953570  1.0
  C  C2939  1  0.146900  0.493500  0.203570  1.0
  C  C2940  1  0.353100  0.506500  0.703570  1.0
  C  C2941  1  0.243500  0.603100  0.953570  1.0
  C  C2942  1  0.256500  0.396900  0.453570  1.0
  C  C2943  1  0.646900  0.993500  0.703570  1.0
  C  C2944  1  0.853100  0.006500  0.203570  1.0
  C  C2945  1  0.267500  0.892000  0.561440  1.0
  C  C2946  1  0.232500  0.108000  0.061440  1.0
  C  C2947  1  0.858000  0.517500  0.811440  1.0
  C  C2948  1  0.642000  0.482500  0.311440  1.0
  C  C2949  1  0.767500  0.392000  0.061440  1.0
  C  C2950  1  0.732500  0.608000  0.561440  1.0
  C  C2951  1  0.358000  0.017500  0.311440  1.0
  C  C2952  1  0.142000  0.982500  0.811440  1.0
  C  C2953  1  0.732500  0.108000  0.438560  1.0
  C  C2954  1  0.767500  0.892000  0.938560  1.0
  C  C2955  1  0.142000  0.482500  0.188560  1.0
  C  C2956  1  0.358000  0.517500  0.688560  1.0
  C  C2957  1  0.232500  0.608000  0.938560  1.0
  C  C2958  1  0.267500  0.392000  0.438560  1.0
  C  C2959  1  0.642000  0.982500  0.688560  1.0
  C  C2960  1  0.858000  0.017500  0.188560  1.0
  C  C2961  1  0.230100  0.871100  0.570540  1.0
  C  C2962  1  0.269900  0.128900  0.070540  1.0
  C  C2963  1  0.878900  0.480100  0.820540  1.0
  C  C2964  1  0.621100  0.519900  0.320540  1.0
  C  C2965  1  0.730100  0.371100  0.070540  1.0
  C  C2966  1  0.769900  0.628900  0.570540  1.0
  C  C2967  1  0.378900  0.980100  0.320540  1.0
  C  C2968  1  0.121100  0.019900  0.820540  1.0
  C  C2969  1  0.769900  0.128900  0.429460  1.0
  C  C2970  1  0.730100  0.871100  0.929460  1.0
  C  C2971  1  0.121100  0.519900  0.179460  1.0
  C  C2972  1  0.378900  0.480100  0.679460  1.0
  C  C2973  1  0.269900  0.628900  0.929460  1.0
  C  C2974  1  0.230100  0.371100  0.429460  1.0
  C  C2975  1  0.621100  0.019900  0.679460  1.0
  C  C2976  1  0.878900  0.980100  0.179460  1.0
  C  C2977  1  0.180700  0.865000  0.565020  1.0
  C  C2978  1  0.319300  0.135000  0.065020  1.0
  C  C2979  1  0.885000  0.430700  0.815020  1.0
  C  C2980  1  0.615000  0.569300  0.315020  1.0
  C  C2981  1  0.680700  0.365000  0.065020  1.0
  C  C2982  1  0.819300  0.635000  0.565020  1.0
  C  C2983  1  0.385000  0.930700  0.315020  1.0
  C  C2984  1  0.115000  0.069300  0.815020  1.0
  C  C2985  1  0.819300  0.135000  0.434980  1.0
  C  C2986  1  0.680700  0.865000  0.934980  1.0
  C  C2987  1  0.115000  0.569300  0.184980  1.0
  C  C2988  1  0.385000  0.430700  0.684980  1.0
  C  C2989  1  0.319300  0.635000  0.934980  1.0
  C  C2990  1  0.180700  0.365000  0.434980  1.0
  C  C2991  1  0.615000  0.069300  0.684980  1.0
  C  C2992  1  0.885000  0.930700  0.184980  1.0
  C  C2993  1  0.172600  0.870500  0.549750  1.0
  C  C2994  1  0.327400  0.129500  0.049750  1.0
  C  C2995  1  0.879500  0.422600  0.799750  1.0
  C  C2996  1  0.620500  0.577400  0.299750  1.0
  C  C2997  1  0.672600  0.370500  0.049750  1.0
  C  C2998  1  0.827400  0.629500  0.549750  1.0
  C  C2999  1  0.379500  0.922600  0.299750  1.0
  C  C3000  1  0.120500  0.077400  0.799750  1.0
  C  C3001  1  0.827400  0.129500  0.450250  1.0
  C  C3002  1  0.672600  0.870500  0.950250  1.0
  C  C3003  1  0.120500  0.577400  0.200250  1.0
  C  C3004  1  0.379500  0.422600  0.700250  1.0
  C  C3005  1  0.327400  0.629500  0.950250  1.0
  C  C3006  1  0.172600  0.370500  0.450250  1.0
  C  C3007  1  0.620500  0.077400  0.700250  1.0
  C  C3008  1  0.879500  0.922600  0.200250  1.0
  C  C3009  1  0.609300  0.130700  0.368590  1.0
  C  C3010  1  0.890700  0.869300  0.868590  1.0
  C  C3011  1  0.619300  0.859300  0.618590  1.0
  C  C3012  1  0.880700  0.140700  0.118590  1.0
  C  C3013  1  0.109300  0.630700  0.868590  1.0
  C  C3014  1  0.390700  0.369300  0.368590  1.0
  C  C3015  1  0.119300  0.359300  0.118590  1.0
  C  C3016  1  0.380700  0.640700  0.618590  1.0
  C  C3017  1  0.390700  0.869300  0.631410  1.0
  C  C3018  1  0.109300  0.130700  0.131410  1.0
  C  C3019  1  0.380700  0.140700  0.381410  1.0
  C  C3020  1  0.119300  0.859300  0.881410  1.0
  C  C3021  1  0.890700  0.369300  0.131410  1.0
  C  C3022  1  0.609300  0.630700  0.631410  1.0
  C  C3023  1  0.880700  0.640700  0.881410  1.0
  C  C3024  1  0.619300  0.359300  0.381410  1.0
  C  C3025  1  0.582000  0.176000  0.369900  1.0
  C  C3026  1  0.918000  0.824000  0.869900  1.0
  C  C3027  1  0.574000  0.832000  0.619900  1.0
  C  C3028  1  0.926000  0.168000  0.119900  1.0
  C  C3029  1  0.082000  0.676000  0.869900  1.0
  C  C3030  1  0.418000  0.324000  0.369900  1.0
  C  C3031  1  0.074000  0.332000  0.119900  1.0
  C  C3032  1  0.426000  0.668000  0.619900  1.0
  C  C3033  1  0.418000  0.824000  0.630100  1.0
  C  C3034  1  0.082000  0.176000  0.130100  1.0
  C  C3035  1  0.426000  0.168000  0.380100  1.0
  C  C3036  1  0.074000  0.832000  0.880100  1.0
  C  C3037  1  0.918000  0.324000  0.130100  1.0
  C  C3038  1  0.582000  0.676000  0.630100  1.0
  C  C3039  1  0.926000  0.668000  0.880100  1.0
  C  C3040  1  0.574000  0.332000  0.380100  1.0
  C  C3041  1  0.561700  0.189300  0.383520  1.0
  C  C3042  1  0.938300  0.810700  0.883520  1.0
  C  C3043  1  0.560700  0.811700  0.633520  1.0
  C  C3044  1  0.939300  0.188300  0.133520  1.0
  C  C3045  1  0.061700  0.689300  0.883520  1.0
  C  C3046  1  0.438300  0.310700  0.383520  1.0
  C  C3047  1  0.060700  0.311700  0.133520  1.0
  C  C3048  1  0.439300  0.688300  0.633520  1.0
  C  C3049  1  0.438300  0.810700  0.616480  1.0
  C  C3050  1  0.061700  0.189300  0.116480  1.0
  C  C3051  1  0.439300  0.188300  0.366480  1.0
  C  C3052  1  0.060700  0.811700  0.866480  1.0
  C  C3053  1  0.938300  0.310700  0.116480  1.0
  C  C3054  1  0.561700  0.689300  0.616480  1.0
  C  C3055  1  0.939300  0.688300  0.866480  1.0
  C  C3056  1  0.560700  0.311700  0.366480  1.0
  C  C3057  1  0.569500  0.156400  0.395640  1.0
  C  C3058  1  0.930500  0.843600  0.895640  1.0
  C  C3059  1  0.593600  0.819500  0.645640  1.0
  C  C3060  1  0.906400  0.180500  0.145640  1.0
  C  C3061  1  0.069500  0.656400  0.895640  1.0
  C  C3062  1  0.430500  0.343600  0.395640  1.0
  C  C3063  1  0.093600  0.319500  0.145640  1.0
  C  C3064  1  0.406400  0.680500  0.645640  1.0
  C  C3065  1  0.430500  0.843600  0.604360  1.0
  C  C3066  1  0.069500  0.156400  0.104360  1.0
  C  C3067  1  0.406400  0.180500  0.354360  1.0
  C  C3068  1  0.093600  0.819500  0.854360  1.0
  C  C3069  1  0.930500  0.343600  0.104360  1.0
  C  C3070  1  0.569500  0.656400  0.604360  1.0
  C  C3071  1  0.906400  0.680500  0.854360  1.0
  C  C3072  1  0.593600  0.319500  0.354360  1.0
  C  C3073  1  0.598100  0.112600  0.393760  1.0
  C  C3074  1  0.901900  0.887400  0.893760  1.0
  C  C3075  1  0.637400  0.848100  0.643760  1.0
  C  C3076  1  0.862600  0.151900  0.143760  1.0
  C  C3077  1  0.098100  0.612600  0.893760  1.0
  C  C3078  1  0.401900  0.387400  0.393760  1.0
  C  C3079  1  0.137400  0.348100  0.143760  1.0
  C  C3080  1  0.362600  0.651900  0.643760  1.0
  C  C3081  1  0.401900  0.887400  0.606240  1.0
  C  C3082  1  0.098100  0.112600  0.106240  1.0
  C  C3083  1  0.362600  0.151900  0.356240  1.0
  C  C3084  1  0.137400  0.848100  0.856240  1.0
  C  C3085  1  0.901900  0.387400  0.106240  1.0
  C  C3086  1  0.598100  0.612600  0.606240  1.0
  C  C3087  1  0.862600  0.651900  0.856240  1.0
  C  C3088  1  0.637400  0.348100  0.356240  1.0
  C  C3089  1  0.611700  0.077900  0.405380  1.0
  C  C3090  1  0.888300  0.922100  0.905380  1.0
  C  C3091  1  0.672100  0.861700  0.655380  1.0
  C  C3092  1  0.827900  0.138300  0.155380  1.0
  C  C3093  1  0.111700  0.577900  0.905380  1.0
  C  C3094  1  0.388300  0.422100  0.405380  1.0
  C  C3095  1  0.172100  0.361700  0.155380  1.0
  C  C3096  1  0.327900  0.638300  0.655380  1.0
  C  C3097  1  0.388300  0.922100  0.594620  1.0
  C  C3098  1  0.111700  0.077900  0.094620  1.0
  C  C3099  1  0.327900  0.138300  0.344620  1.0
  C  C3100  1  0.172100  0.861700  0.844620  1.0
  C  C3101  1  0.888300  0.422100  0.094620  1.0
  C  C3102  1  0.611700  0.577900  0.594620  1.0
  C  C3103  1  0.827900  0.638300  0.844620  1.0
  C  C3104  1  0.672100  0.361700  0.344620  1.0
  C  C3105  1  0.655900  0.007200  0.414500  1.0
  C  C3106  1  0.844100  0.992800  0.914500  1.0
  C  C3107  1  0.742800  0.905900  0.664500  1.0
  C  C3108  1  0.757200  0.094100  0.164500  1.0
  C  C3109  1  0.155900  0.507200  0.914500  1.0
  C  C3110  1  0.344100  0.492800  0.414500  1.0
  C  C3111  1  0.242800  0.405900  0.164500  1.0
  C  C3112  1  0.257200  0.594100  0.664500  1.0
  C  C3113  1  0.344100  0.992800  0.585500  1.0
  C  C3114  1  0.155900  0.007200  0.085500  1.0
  C  C3115  1  0.257200  0.094100  0.335500  1.0
  C  C3116  1  0.242800  0.905900  0.835500  1.0
  C  C3117  1  0.844100  0.492800  0.085500  1.0
  C  C3118  1  0.655900  0.507200  0.585500  1.0
  C  C3119  1  0.757200  0.594100  0.835500  1.0
  C  C3120  1  0.742800  0.405900  0.335500  1.0
  C  C3121  1  0.619100  0.984200  0.423480  1.0
  C  C3122  1  0.880900  0.015800  0.923480  1.0
  C  C3123  1  0.765800  0.869100  0.673480  1.0
  C  C3124  1  0.734200  0.130900  0.173480  1.0
  C  C3125  1  0.119100  0.484200  0.923480  1.0
  C  C3126  1  0.380900  0.515800  0.423480  1.0
  C  C3127  1  0.265800  0.369100  0.173480  1.0
  C  C3128  1  0.234200  0.630900  0.673480  1.0
  C  C3129  1  0.380900  0.015800  0.576520  1.0
  C  C3130  1  0.119100  0.984200  0.076520  1.0
  C  C3131  1  0.234200  0.130900  0.326520  1.0
  C  C3132  1  0.265800  0.869100  0.826520  1.0
  C  C3133  1  0.880900  0.515800  0.076520  1.0
  C  C3134  1  0.619100  0.484200  0.576520  1.0
  C  C3135  1  0.734200  0.630900  0.826520  1.0
  C  C3136  1  0.765800  0.369100  0.326520  1.0
  C  C3137  1  0.634700  0.955100  0.435590  1.0
  C  C3138  1  0.865300  0.044900  0.935590  1.0
  C  C3139  1  0.794900  0.884700  0.685590  1.0
  C  C3140  1  0.705100  0.115300  0.185590  1.0
  C  C3141  1  0.134700  0.455100  0.935590  1.0
  C  C3142  1  0.365300  0.544900  0.435590  1.0
  C  C3143  1  0.294900  0.384700  0.185590  1.0
  C  C3144  1  0.205100  0.615300  0.685590  1.0
  C  C3145  1  0.365300  0.044900  0.564410  1.0
  C  C3146  1  0.134700  0.955100  0.064410  1.0
  C  C3147  1  0.205100  0.115300  0.314410  1.0
  C  C3148  1  0.294900  0.884700  0.814410  1.0
  C  C3149  1  0.865300  0.544900  0.064410  1.0
  C  C3150  1  0.634700  0.455100  0.564410  1.0
  C  C3151  1  0.705100  0.615300  0.814410  1.0
  C  C3152  1  0.794900  0.384700  0.314410  1.0
  C  C3153  1  0.685600  0.947800  0.439090  1.0
  C  C3154  1  0.814400  0.052200  0.939090  1.0
  C  C3155  1  0.802200  0.935600  0.689090  1.0
  C  C3156  1  0.697800  0.064400  0.189090  1.0
  C  C3157  1  0.185600  0.447800  0.939090  1.0
  C  C3158  1  0.314400  0.552200  0.439090  1.0
  C  C3159  1  0.302200  0.435600  0.189090  1.0
  C  C3160  1  0.197800  0.564400  0.689090  1.0
  C  C3161  1  0.314400  0.052200  0.560910  1.0
  C  C3162  1  0.185600  0.947800  0.060910  1.0
  C  C3163  1  0.197800  0.064400  0.310910  1.0
  C  C3164  1  0.302200  0.935600  0.810910  1.0
  C  C3165  1  0.814400  0.552200  0.060910  1.0
  C  C3166  1  0.685600  0.447800  0.560910  1.0
  C  C3167  1  0.697800  0.564400  0.810910  1.0
  C  C3168  1  0.802200  0.435600  0.310910  1.0
  C  C3169  1  0.721600  0.971600  0.430020  1.0
  C  C3170  1  0.778400  0.028400  0.930020  1.0
  C  C3171  1  0.778400  0.971600  0.680020  1.0
  C  C3172  1  0.721600  0.028400  0.180020  1.0
  C  C3173  1  0.221600  0.471600  0.930020  1.0
  C  C3174  1  0.278400  0.528400  0.430020  1.0
  C  C3175  1  0.278400  0.471600  0.180020  1.0
  C  C3176  1  0.221600  0.528400  0.680020  1.0
  C  C3177  1  0.278400  0.028400  0.569980  1.0
  C  C3178  1  0.221600  0.971600  0.069980  1.0
  C  C3179  1  0.221600  0.028400  0.319980  1.0
  C  C3180  1  0.278400  0.971600  0.819980  1.0
  C  C3181  1  0.778400  0.528400  0.069980  1.0
  C  C3182  1  0.721600  0.471600  0.569980  1.0
  C  C3183  1  0.721600  0.528400  0.819980  1.0
  C  C3184  1  0.778400  0.471600  0.319980  1.0
  C  C3185  1  0.707100  0.000700  0.418010  1.0
  C  C3186  1  0.792900  0.999300  0.918010  1.0
  C  C3187  1  0.749300  0.957100  0.668010  1.0
  C  C3188  1  0.750700  0.042900  0.168010  1.0
  C  C3189  1  0.207100  0.500700  0.918010  1.0
  C  C3190  1  0.292900  0.499300  0.418010  1.0
  C  C3191  1  0.249300  0.457100  0.168010  1.0
  C  C3192  1  0.250700  0.542900  0.668010  1.0
  C  C3193  1  0.292900  0.999300  0.581990  1.0
  C  C3194  1  0.207100  0.000700  0.081990  1.0
  C  C3195  1  0.250700  0.042900  0.331990  1.0
  C  C3196  1  0.249300  0.957100  0.831990  1.0
  C  C3197  1  0.792900  0.499300  0.081990  1.0
  C  C3198  1  0.707100  0.500700  0.581990  1.0
  C  C3199  1  0.750700  0.542900  0.831990  1.0
  C  C3200  1  0.749300  0.457100  0.331990  1.0
  C  C3201  1  0.701200  0.917000  0.452390  1.0
  C  C3202  1  0.798800  0.083000  0.952390  1.0
  C  C3203  1  0.833000  0.951200  0.702390  1.0
  C  C3204  1  0.667000  0.048800  0.202390  1.0
  C  C3205  1  0.201200  0.417000  0.952390  1.0
  C  C3206  1  0.298800  0.583000  0.452390  1.0
  C  C3207  1  0.333000  0.451200  0.202390  1.0
  C  C3208  1  0.167000  0.548800  0.702390  1.0
  C  C3209  1  0.298800  0.083000  0.547610  1.0
  C  C3210  1  0.201200  0.917000  0.047610  1.0
  C  C3211  1  0.167000  0.048800  0.297610  1.0
  C  C3212  1  0.333000  0.951200  0.797610  1.0
  C  C3213  1  0.798800  0.583000  0.047610  1.0
  C  C3214  1  0.701200  0.417000  0.547610  1.0
  C  C3215  1  0.667000  0.548800  0.797610  1.0
  C  C3216  1  0.833000  0.451200  0.297610  1.0
  C  C3217  1  0.689900  0.934700  0.466410  1.0
  C  C3218  1  0.810100  0.065300  0.966410  1.0
  C  C3219  1  0.815300  0.939900  0.716410  1.0
  C  C3220  1  0.684700  0.060100  0.216410  1.0
  C  C3221  1  0.189900  0.434700  0.966410  1.0
  C  C3222  1  0.310100  0.565300  0.466410  1.0
  C  C3223  1  0.315300  0.439900  0.216410  1.0
  C  C3224  1  0.184700  0.560100  0.716410  1.0
  C  C3225  1  0.310100  0.065300  0.533590  1.0
  C  C3226  1  0.189900  0.934700  0.033590  1.0
  C  C3227  1  0.184700  0.060100  0.283590  1.0
  C  C3228  1  0.315300  0.939900  0.783590  1.0
  C  C3229  1  0.810100  0.565300  0.033590  1.0
  C  C3230  1  0.689900  0.434700  0.533590  1.0
  C  C3231  1  0.684700  0.560100  0.783590  1.0
  C  C3232  1  0.815300  0.439900  0.283590  1.0
  C  C3233  1  0.702500  0.905900  0.479420  1.0
  C  C3234  1  0.797500  0.094100  0.979420  1.0
  C  C3235  1  0.844100  0.952500  0.729420  1.0
  C  C3236  1  0.655900  0.047500  0.229420  1.0
  C  C3237  1  0.202500  0.405900  0.979420  1.0
  C  C3238  1  0.297500  0.594100  0.479420  1.0
  C  C3239  1  0.344100  0.452500  0.229420  1.0
  C  C3240  1  0.155900  0.547500  0.729420  1.0
  C  C3241  1  0.297500  0.094100  0.520580  1.0
  C  C3242  1  0.202500  0.905900  0.020580  1.0
  C  C3243  1  0.155900  0.047500  0.270580  1.0
  C  C3244  1  0.344100  0.952500  0.770580  1.0
  C  C3245  1  0.797500  0.594100  0.020580  1.0
  C  C3246  1  0.702500  0.405900  0.520580  1.0
  C  C3247  1  0.655900  0.547500  0.770580  1.0
  C  C3248  1  0.844100  0.452500  0.270580  1.0
  C  C3249  1  0.723200  0.858900  0.478070  1.0
  C  C3250  1  0.776800  0.141100  0.978070  1.0
  C  C3251  1  0.891100  0.973200  0.728070  1.0
  C  C3252  1  0.608900  0.026800  0.228070  1.0
  C  C3253  1  0.223200  0.358900  0.978070  1.0
  C  C3254  1  0.276800  0.641100  0.478070  1.0
  C  C3255  1  0.391100  0.473200  0.228070  1.0
  C  C3256  1  0.108900  0.526800  0.728070  1.0
  C  C3257  1  0.276800  0.141100  0.521930  1.0
  C  C3258  1  0.223200  0.858900  0.021930  1.0
  C  C3259  1  0.108900  0.026800  0.271930  1.0
  C  C3260  1  0.391100  0.973200  0.771930  1.0
  C  C3261  1  0.776800  0.641100  0.021930  1.0
  C  C3262  1  0.723200  0.358900  0.521930  1.0
  C  C3263  1  0.608900  0.526800  0.771930  1.0
  C  C3264  1  0.891100  0.473200  0.271930  1.0
  C  C3265  1  0.733900  0.837200  0.463900  1.0
  C  C3266  1  0.766100  0.162800  0.963900  1.0
  C  C3267  1  0.912800  0.983900  0.713900  1.0
  C  C3268  1  0.587200  0.016100  0.213900  1.0
  C  C3269  1  0.233900  0.337200  0.963900  1.0
  C  C3270  1  0.266100  0.662800  0.463900  1.0
  C  C3271  1  0.412800  0.483900  0.213900  1.0
  C  C3272  1  0.087200  0.516100  0.713900  1.0
  C  C3273  1  0.266100  0.162800  0.536100  1.0
  C  C3274  1  0.233900  0.837200  0.036100  1.0
  C  C3275  1  0.087200  0.016100  0.286100  1.0
  C  C3276  1  0.412800  0.983900  0.786100  1.0
  C  C3277  1  0.766100  0.662800  0.036100  1.0
  C  C3278  1  0.733900  0.337200  0.536100  1.0
  C  C3279  1  0.587200  0.516100  0.786100  1.0
  C  C3280  1  0.912800  0.483900  0.286100  1.0
  C  C3281  1  0.752200  0.787100  0.462140  1.0
  C  C3282  1  0.747800  0.212900  0.962140  1.0
  C  C3283  1  0.962900  0.002200  0.712140  1.0
  C  C3284  1  0.537100  0.997800  0.212140  1.0
  C  C3285  1  0.252200  0.287100  0.962140  1.0
  C  C3286  1  0.247800  0.712900  0.462140  1.0
  C  C3287  1  0.462900  0.502200  0.212140  1.0
  C  C3288  1  0.037100  0.497800  0.712140  1.0
  C  C3289  1  0.247800  0.212900  0.537860  1.0
  C  C3290  1  0.252200  0.787100  0.037860  1.0
  C  C3291  1  0.037100  0.997800  0.287860  1.0
  C  C3292  1  0.462900  0.002200  0.787860  1.0
  C  C3293  1  0.747800  0.712900  0.037860  1.0
  C  C3294  1  0.752200  0.287100  0.537860  1.0
  C  C3295  1  0.537100  0.497800  0.787860  1.0
  C  C3296  1  0.962900  0.502200  0.287860  1.0
  C  C3297  1  0.760000  0.763700  0.448460  1.0
  C  C3298  1  0.740000  0.236300  0.948460  1.0
  C  C3299  1  0.986300  0.010000  0.698460  1.0
  C  C3300  1  0.513700  0.990000  0.198460  1.0
  C  C3301  1  0.260000  0.263700  0.948460  1.0
  C  C3302  1  0.240000  0.736300  0.448460  1.0
  C  C3303  1  0.486300  0.510000  0.198460  1.0
  C  C3304  1  0.013700  0.490000  0.698460  1.0
  C  C3305  1  0.240000  0.236300  0.551540  1.0
  C  C3306  1  0.260000  0.763700  0.051540  1.0
  C  C3307  1  0.013700  0.990000  0.301540  1.0
  C  C3308  1  0.486300  0.010000  0.801540  1.0
  C  C3309  1  0.740000  0.736300  0.051540  1.0
  C  C3310  1  0.760000  0.263700  0.551540  1.0
  C  C3311  1  0.513700  0.490000  0.801540  1.0
  C  C3312  1  0.986300  0.510000  0.301540  1.0
  C  C3313  1  0.776700  0.711400  0.446500  1.0
  C  C3314  1  0.723300  0.288600  0.946500  1.0
  C  C3315  1  0.038600  0.026700  0.696500  1.0
  C  C3316  1  0.461400  0.973300  0.196500  1.0
  C  C3317  1  0.276700  0.211400  0.946500  1.0
  C  C3318  1  0.223300  0.788600  0.446500  1.0
  C  C3319  1  0.538600  0.526700  0.196500  1.0
  C  C3320  1  0.961400  0.473300  0.696500  1.0
  C  C3321  1  0.223300  0.288600  0.553500  1.0
  C  C3322  1  0.276700  0.711400  0.053500  1.0
  C  C3323  1  0.961400  0.973300  0.303500  1.0
  C  C3324  1  0.538600  0.026700  0.803500  1.0
  C  C3325  1  0.723300  0.788600  0.053500  1.0
  C  C3326  1  0.776700  0.211400  0.553500  1.0
  C  C3327  1  0.461400  0.473300  0.803500  1.0
  C  C3328  1  0.038600  0.526700  0.303500  1.0
  C  C3329  1  0.783200  0.692200  0.432610  1.0
  C  C3330  1  0.716800  0.307800  0.932610  1.0
  C  C3331  1  0.057800  0.033200  0.682610  1.0
  C  C3332  1  0.442200  0.966800  0.182610  1.0
  C  C3333  1  0.283200  0.192200  0.932610  1.0
  C  C3334  1  0.216800  0.807800  0.432610  1.0
  C  C3335  1  0.557800  0.533200  0.182610  1.0
  C  C3336  1  0.942200  0.466800  0.682610  1.0
  C  C3337  1  0.216800  0.307800  0.567390  1.0
  C  C3338  1  0.283200  0.692200  0.067390  1.0
  C  C3339  1  0.942200  0.966800  0.317390  1.0
  C  C3340  1  0.557800  0.033200  0.817390  1.0
  C  C3341  1  0.716800  0.807800  0.067390  1.0
  C  C3342  1  0.783200  0.192200  0.567390  1.0
  C  C3343  1  0.442200  0.466800  0.817390  1.0
  C  C3344  1  0.057800  0.533200  0.317390  1.0
  C  C3345  1  0.775900  0.722900  0.419780  1.0
  C  C3346  1  0.724100  0.277100  0.919780  1.0
  C  C3347  1  0.027100  0.025900  0.669780  1.0
  C  C3348  1  0.472900  0.974100  0.169780  1.0
  C  C3349  1  0.275900  0.222900  0.919780  1.0
  C  C3350  1  0.224100  0.777100  0.419780  1.0
  C  C3351  1  0.527100  0.525900  0.169780  1.0
  C  C3352  1  0.972900  0.474100  0.669780  1.0
  C  C3353  1  0.224100  0.277100  0.580220  1.0
  C  C3354  1  0.275900  0.722900  0.080220  1.0
  C  C3355  1  0.972900  0.974100  0.330220  1.0
  C  C3356  1  0.527100  0.025900  0.830220  1.0
  C  C3357  1  0.724100  0.777100  0.080220  1.0
  C  C3358  1  0.775900  0.222900  0.580220  1.0
  C  C3359  1  0.472900  0.474100  0.830220  1.0
  C  C3360  1  0.027100  0.525900  0.330220  1.0
  C  C3361  1  0.760100  0.772500  0.421060  1.0
  C  C3362  1  0.739900  0.227500  0.921060  1.0
  C  C3363  1  0.977500  0.010100  0.671060  1.0
  C  C3364  1  0.522500  0.989900  0.171060  1.0
  C  C3365  1  0.260100  0.272500  0.921060  1.0
  C  C3366  1  0.239900  0.727500  0.421060  1.0
  C  C3367  1  0.477500  0.510100  0.171060  1.0
  C  C3368  1  0.022500  0.489900  0.671060  1.0
  C  C3369  1  0.239900  0.227500  0.578940  1.0
  C  C3370  1  0.260100  0.772500  0.078940  1.0
  C  C3371  1  0.022500  0.989900  0.328940  1.0
  C  C3372  1  0.477500  0.010100  0.828940  1.0
  C  C3373  1  0.739900  0.727500  0.078940  1.0
  C  C3374  1  0.760100  0.272500  0.578940  1.0
  C  C3375  1  0.522500  0.489900  0.828940  1.0
  C  C3376  1  0.977500  0.510100  0.328940  1.0
  C  C3377  1  0.750900  0.794900  0.435280  1.0
  C  C3378  1  0.749100  0.205100  0.935280  1.0
  C  C3379  1  0.955100  0.000900  0.685280  1.0
  C  C3380  1  0.544900  0.999100  0.185280  1.0
  C  C3381  1  0.250900  0.294900  0.935280  1.0
  C  C3382  1  0.249100  0.705100  0.435280  1.0
  C  C3383  1  0.455100  0.500900  0.185280  1.0
  C  C3384  1  0.044900  0.499100  0.685280  1.0
  C  C3385  1  0.249100  0.205100  0.564720  1.0
  C  C3386  1  0.250900  0.794900  0.064720  1.0
  C  C3387  1  0.044900  0.999100  0.314720  1.0
  C  C3388  1  0.455100  0.000900  0.814720  1.0
  C  C3389  1  0.749100  0.705100  0.064720  1.0
  C  C3390  1  0.750900  0.294900  0.564720  1.0
  C  C3391  1  0.544900  0.499100  0.814720  1.0
  C  C3392  1  0.955100  0.500900  0.314720  1.0
  C  C3393  1  0.733000  0.844700  0.436940  1.0
  C  C3394  1  0.767000  0.155300  0.936940  1.0
  C  C3395  1  0.905300  0.983000  0.686940  1.0
  C  C3396  1  0.594700  0.017000  0.186940  1.0
  C  C3397  1  0.233000  0.344700  0.936940  1.0
  C  C3398  1  0.267000  0.655300  0.436940  1.0
  C  C3399  1  0.405300  0.483000  0.186940  1.0
  C  C3400  1  0.094700  0.517000  0.686940  1.0
  C  C3401  1  0.267000  0.155300  0.563060  1.0
  C  C3402  1  0.233000  0.844700  0.063060  1.0
  C  C3403  1  0.094700  0.017000  0.313060  1.0
  C  C3404  1  0.405300  0.983000  0.813060  1.0
  C  C3405  1  0.767000  0.655300  0.063060  1.0
  C  C3406  1  0.733000  0.344700  0.563060  1.0
  C  C3407  1  0.594700  0.517000  0.813060  1.0
  C  C3408  1  0.905300  0.483000  0.313060  1.0
  C  C3409  1  0.723100  0.867200  0.450750  1.0
  C  C3410  1  0.776900  0.132800  0.950750  1.0
  C  C3411  1  0.882800  0.973100  0.700750  1.0
  C  C3412  1  0.617200  0.026900  0.200750  1.0
  C  C3413  1  0.223100  0.367200  0.950750  1.0
  C  C3414  1  0.276900  0.632800  0.450750  1.0
  C  C3415  1  0.382800  0.473100  0.200750  1.0
  C  C3416  1  0.117200  0.526900  0.700750  1.0
  C  C3417  1  0.276900  0.132800  0.549250  1.0
  C  C3418  1  0.223100  0.867200  0.049250  1.0
  C  C3419  1  0.117200  0.026900  0.299250  1.0
  C  C3420  1  0.382800  0.973100  0.799250  1.0
  C  C3421  1  0.776900  0.632800  0.049250  1.0
  C  C3422  1  0.723100  0.367200  0.549250  1.0
  C  C3423  1  0.617200  0.526900  0.799250  1.0
  C  C3424  1  0.882800  0.473100  0.299250  1.0
  C  C3425  1  0.783400  0.676400  0.459500  1.0
  C  C3426  1  0.716600  0.323600  0.959500  1.0
  C  C3427  1  0.073600  0.033400  0.709500  1.0
  C  C3428  1  0.426400  0.966600  0.209500  1.0
  C  C3429  1  0.283400  0.176400  0.959500  1.0
  C  C3430  1  0.216600  0.823600  0.459500  1.0
  C  C3431  1  0.573600  0.533400  0.209500  1.0
  C  C3432  1  0.926400  0.466600  0.709500  1.0
  C  C3433  1  0.216600  0.323600  0.540500  1.0
  C  C3434  1  0.283400  0.676400  0.040500  1.0
  C  C3435  1  0.926400  0.966600  0.290500  1.0
  C  C3436  1  0.573600  0.033400  0.790500  1.0
  C  C3437  1  0.716600  0.823600  0.040500  1.0
  C  C3438  1  0.783400  0.176400  0.540500  1.0
  C  C3439  1  0.426400  0.466600  0.790500  1.0
  C  C3440  1  0.073600  0.533400  0.290500  1.0
  C  C3441  1  0.740100  0.654100  0.465960  1.0
  C  C3442  1  0.759900  0.345900  0.965960  1.0
  C  C3443  1  0.095900  0.990100  0.715960  1.0
  C  C3444  1  0.404100  0.009900  0.215960  1.0
  C  C3445  1  0.240100  0.154100  0.965960  1.0
  C  C3446  1  0.259900  0.845900  0.465960  1.0
  C  C3447  1  0.595900  0.490100  0.215960  1.0
  C  C3448  1  0.904100  0.509900  0.715960  1.0
  C  C3449  1  0.259900  0.345900  0.534040  1.0
  C  C3450  1  0.240100  0.654100  0.034040  1.0
  C  C3451  1  0.904100  0.009900  0.284040  1.0
  C  C3452  1  0.595900  0.990100  0.784040  1.0
  C  C3453  1  0.759900  0.845900  0.034040  1.0
  C  C3454  1  0.740100  0.154100  0.534040  1.0
  C  C3455  1  0.404100  0.509900  0.784040  1.0
  C  C3456  1  0.095900  0.490100  0.284040  1.0
  C  C3457  1  0.745600  0.620400  0.477910  1.0
  C  C3458  1  0.754400  0.379600  0.977910  1.0
  C  C3459  1  0.129600  0.995600  0.727910  1.0
  C  C3460  1  0.370400  0.004400  0.227910  1.0
  C  C3461  1  0.245600  0.120400  0.977910  1.0
  C  C3462  1  0.254400  0.879600  0.477910  1.0
  C  C3463  1  0.629600  0.495600  0.227910  1.0
  C  C3464  1  0.870400  0.504400  0.727910  1.0
  C  C3465  1  0.254400  0.379600  0.522090  1.0
  C  C3466  1  0.245600  0.620400  0.022090  1.0
  C  C3467  1  0.870400  0.004400  0.272090  1.0
  C  C3468  1  0.629600  0.995600  0.772090  1.0
  C  C3469  1  0.754400  0.879600  0.022090  1.0
  C  C3470  1  0.745600  0.120400  0.522090  1.0
  C  C3471  1  0.370400  0.504400  0.772090  1.0
  C  C3472  1  0.129600  0.495600  0.272090  1.0
  C  C3473  1  0.794300  0.609000  0.483400  1.0
  C  C3474  1  0.705700  0.391000  0.983400  1.0
  C  C3475  1  0.141000  0.044300  0.733400  1.0
  C  C3476  1  0.359000  0.955700  0.233400  1.0
  C  C3477  1  0.294300  0.109000  0.983400  1.0
  C  C3478  1  0.205700  0.891000  0.483400  1.0
  C  C3479  1  0.641000  0.544300  0.233400  1.0
  C  C3480  1  0.859000  0.455700  0.733400  1.0
  C  C3481  1  0.205700  0.391000  0.516600  1.0
  C  C3482  1  0.294300  0.609000  0.016600  1.0
  C  C3483  1  0.859000  0.955700  0.266600  1.0
  C  C3484  1  0.641000  0.044300  0.766600  1.0
  C  C3485  1  0.705700  0.891000  0.016600  1.0
  C  C3486  1  0.794300  0.109000  0.516600  1.0
  C  C3487  1  0.359000  0.455700  0.766600  1.0
  C  C3488  1  0.141000  0.544300  0.266600  1.0
  C  C3489  1  0.837600  0.631200  0.476940  1.0
  C  C3490  1  0.662400  0.368800  0.976940  1.0
  C  C3491  1  0.118800  0.087600  0.726940  1.0
  C  C3492  1  0.381200  0.912400  0.226940  1.0
  C  C3493  1  0.337600  0.131200  0.976940  1.0
  C  C3494  1  0.162400  0.868800  0.476940  1.0
  C  C3495  1  0.618800  0.587600  0.226940  1.0
  C  C3496  1  0.881200  0.412400  0.726940  1.0
  C  C3497  1  0.162400  0.368800  0.523060  1.0
  C  C3498  1  0.337600  0.631200  0.023060  1.0
  C  C3499  1  0.881200  0.912400  0.273060  1.0
  C  C3500  1  0.618800  0.087600  0.773060  1.0
  C  C3501  1  0.662400  0.868800  0.023060  1.0
  C  C3502  1  0.837600  0.131200  0.523060  1.0
  C  C3503  1  0.381200  0.412400  0.773060  1.0
  C  C3504  1  0.118800  0.587600  0.273060  1.0
  C  C3505  1  0.832200  0.665000  0.464990  1.0
  C  C3506  1  0.667800  0.335000  0.964990  1.0
  C  C3507  1  0.085000  0.082200  0.714990  1.0
  C  C3508  1  0.415000  0.917800  0.214990  1.0
  C  C3509  1  0.332200  0.165000  0.964990  1.0
  C  C3510  1  0.167800  0.835000  0.464990  1.0
  C  C3511  1  0.585000  0.582200  0.214990  1.0
  C  C3512  1  0.915000  0.417800  0.714990  1.0
  C  C3513  1  0.167800  0.335000  0.535010  1.0
  C  C3514  1  0.332200  0.665000  0.035010  1.0
  C  C3515  1  0.915000  0.917800  0.285010  1.0
  C  C3516  1  0.585000  0.082200  0.785010  1.0
  C  C3517  1  0.667800  0.835000  0.035010  1.0
  C  C3518  1  0.832200  0.165000  0.535010  1.0
  C  C3519  1  0.415000  0.417800  0.785010  1.0
  C  C3520  1  0.085000  0.582200  0.285010  1.0
  C  C3521  1  0.813200  0.531000  0.494660  1.0
  C  C3522  1  0.686800  0.469000  0.994660  1.0
  C  C3523  1  0.219000  0.063200  0.744660  1.0
  C  C3524  1  0.281000  0.936800  0.244660  1.0
  C  C3525  1  0.313200  0.031000  0.994660  1.0
  C  C3526  1  0.186800  0.969000  0.494660  1.0
  C  C3527  1  0.719000  0.563200  0.244660  1.0
  C  C3528  1  0.781000  0.436800  0.744660  1.0
  C  C3529  1  0.186800  0.469000  0.505340  1.0
  C  C3530  1  0.313200  0.531000  0.005340  1.0
  C  C3531  1  0.781000  0.936800  0.255340  1.0
  C  C3532  1  0.719000  0.063200  0.755340  1.0
  C  C3533  1  0.686800  0.969000  0.005340  1.0
  C  C3534  1  0.813200  0.031000  0.505340  1.0
  C  C3535  1  0.281000  0.436800  0.755340  1.0
  C  C3536  1  0.219000  0.563200  0.255340  1.0
  C  C3537  1  0.821800  0.501300  0.508810  1.0
  C  C3538  1  0.678200  0.498700  0.008810  1.0
  C  C3539  1  0.248700  0.071800  0.758810  1.0
  C  C3540  1  0.251300  0.928200  0.258810  1.0
  C  C3541  1  0.321800  0.001300  0.008810  1.0
  C  C3542  1  0.178200  0.998700  0.508810  1.0
  C  C3543  1  0.748700  0.571800  0.258810  1.0
  C  C3544  1  0.751300  0.428200  0.758810  1.0
  C  C3545  1  0.178200  0.498700  0.491190  1.0
  C  C3546  1  0.321800  0.501300  0.991190  1.0
  C  C3547  1  0.751300  0.928200  0.241190  1.0
  C  C3548  1  0.748700  0.071800  0.741190  1.0
  C  C3549  1  0.678200  0.998700  0.991190  1.0
  C  C3550  1  0.821800  0.001300  0.491190  1.0
  C  C3551  1  0.251300  0.428200  0.741190  1.0
  C  C3552  1  0.248700  0.571800  0.241190  1.0
  C  C3553  1  0.833700  0.449500  0.508160  1.0
  C  C3554  1  0.666300  0.550500  0.008160  1.0
  C  C3555  1  0.300500  0.083700  0.758160  1.0
  C  C3556  1  0.199500  0.916300  0.258160  1.0
  C  C3557  1  0.333700  0.949500  0.008160  1.0
  C  C3558  1  0.166300  0.050500  0.508160  1.0
  C  C3559  1  0.800500  0.583700  0.258160  1.0
  C  C3560  1  0.699500  0.416300  0.758160  1.0
  C  C3561  1  0.166300  0.550500  0.491840  1.0
  C  C3562  1  0.333700  0.449500  0.991840  1.0
  C  C3563  1  0.699500  0.916300  0.241840  1.0
  C  C3564  1  0.800500  0.083700  0.741840  1.0
  C  C3565  1  0.666300  0.050500  0.991840  1.0
  C  C3566  1  0.833700  0.949500  0.491840  1.0
  C  C3567  1  0.199500  0.416300  0.741840  1.0
  C  C3568  1  0.300500  0.583700  0.241840  1.0
  C  C3569  1  0.839400  0.423200  0.521390  1.0
  C  C3570  1  0.660600  0.576800  0.021390  1.0
  C  C3571  1  0.326800  0.089400  0.771390  1.0
  C  C3572  1  0.173200  0.910600  0.271390  1.0
  C  C3573  1  0.339400  0.923200  0.021390  1.0
  C  C3574  1  0.160600  0.076800  0.521390  1.0
  C  C3575  1  0.826800  0.589400  0.271390  1.0
  C  C3576  1  0.673200  0.410600  0.771390  1.0
  C  C3577  1  0.160600  0.576800  0.478610  1.0
  C  C3578  1  0.339400  0.423200  0.978610  1.0
  C  C3579  1  0.673200  0.910600  0.228610  1.0
  C  C3580  1  0.826800  0.089400  0.728610  1.0
  C  C3581  1  0.660600  0.076800  0.978610  1.0
  C  C3582  1  0.839400  0.923200  0.478610  1.0
  C  C3583  1  0.173200  0.410600  0.728610  1.0
  C  C3584  1  0.326800  0.589400  0.228610  1.0
  C  C3585  1  0.830300  0.448400  0.534710  1.0
  C  C3586  1  0.669700  0.551600  0.034710  1.0
  C  C3587  1  0.301600  0.080300  0.784710  1.0
  C  C3588  1  0.198400  0.919700  0.284710  1.0
  C  C3589  1  0.330300  0.948400  0.034710  1.0
  C  C3590  1  0.169700  0.051600  0.534710  1.0
  C  C3591  1  0.801600  0.580300  0.284710  1.0
  C  C3592  1  0.698400  0.419700  0.784710  1.0
  C  C3593  1  0.169700  0.551600  0.465290  1.0
  C  C3594  1  0.330300  0.448400  0.965290  1.0
  C  C3595  1  0.698400  0.919700  0.215290  1.0
  C  C3596  1  0.801600  0.080300  0.715290  1.0
  C  C3597  1  0.669700  0.051600  0.965290  1.0
  C  C3598  1  0.830300  0.948400  0.465290  1.0
  C  C3599  1  0.198400  0.419700  0.715290  1.0
  C  C3600  1  0.301600  0.580300  0.215290  1.0
  C  C3601  1  0.817600  0.500400  0.534450  1.0
  C  C3602  1  0.682400  0.499600  0.034450  1.0
  C  C3603  1  0.249600  0.067600  0.784450  1.0
  C  C3604  1  0.250400  0.932400  0.284450  1.0
  C  C3605  1  0.317600  0.000400  0.034450  1.0
  C  C3606  1  0.182400  0.999600  0.534450  1.0
  C  C3607  1  0.749600  0.567600  0.284450  1.0
  C  C3608  1  0.750400  0.432400  0.784450  1.0
  C  C3609  1  0.182400  0.499600  0.465550  1.0
  C  C3610  1  0.317600  0.500400  0.965550  1.0
  C  C3611  1  0.750400  0.932400  0.215550  1.0
  C  C3612  1  0.749600  0.067600  0.715550  1.0
  C  C3613  1  0.682400  0.999600  0.965550  1.0
  C  C3614  1  0.817600  0.000400  0.465550  1.0
  C  C3615  1  0.250400  0.432400  0.715550  1.0
  C  C3616  1  0.249600  0.567600  0.215550  1.0
  C  C3617  1  0.734100  0.114600  0.384370  1.0
  C  C3618  1  0.765900  0.885400  0.884370  1.0
  C  C3619  1  0.635400  0.984100  0.634370  1.0
  C  C3620  1  0.864600  0.015900  0.134370  1.0
  C  C3621  1  0.234100  0.614600  0.884370  1.0
  C  C3622  1  0.265900  0.385400  0.384370  1.0
  C  C3623  1  0.135400  0.484100  0.134370  1.0
  C  C3624  1  0.364600  0.515900  0.634370  1.0
  C  C3625  1  0.265900  0.885400  0.615630  1.0
  C  C3626  1  0.234100  0.114600  0.115630  1.0
  C  C3627  1  0.364600  0.015900  0.365630  1.0
  C  C3628  1  0.135400  0.984100  0.865630  1.0
  C  C3629  1  0.765900  0.385400  0.115630  1.0
  C  C3630  1  0.734100  0.614600  0.615630  1.0
  C  C3631  1  0.864600  0.515900  0.865630  1.0
  C  C3632  1  0.635400  0.484100  0.365630  1.0
  C  C3633  1  0.783800  0.131600  0.387380  1.0
  C  C3634  1  0.716200  0.868400  0.887380  1.0
  C  C3635  1  0.618400  0.033800  0.637380  1.0
  C  C3636  1  0.881600  0.966200  0.137380  1.0
  C  C3637  1  0.283800  0.631600  0.887380  1.0
  C  C3638  1  0.216200  0.368400  0.387380  1.0
  C  C3639  1  0.118400  0.533800  0.137380  1.0
  C  C3640  1  0.381600  0.466200  0.637380  1.0
  C  C3641  1  0.216200  0.868400  0.612620  1.0
  C  C3642  1  0.283800  0.131600  0.112620  1.0
  C  C3643  1  0.381600  0.966200  0.362620  1.0
  C  C3644  1  0.118400  0.033800  0.862620  1.0
  C  C3645  1  0.716200  0.368400  0.112620  1.0
  C  C3646  1  0.783800  0.631600  0.612620  1.0
  C  C3647  1  0.881600  0.466200  0.862620  1.0
  C  C3648  1  0.618400  0.533800  0.362620  1.0
  C  C3649  1  0.822400  0.096200  0.388920  1.0
  C  C3650  1  0.677600  0.903800  0.888920  1.0
  C  C3651  1  0.653800  0.072400  0.638920  1.0
  C  C3652  1  0.846200  0.927600  0.138920  1.0
  C  C3653  1  0.322400  0.596200  0.888920  1.0
  C  C3654  1  0.177600  0.403800  0.388920  1.0
  C  C3655  1  0.153800  0.572400  0.138920  1.0
  C  C3656  1  0.346200  0.427600  0.638920  1.0
  C  C3657  1  0.177600  0.903800  0.611080  1.0
  C  C3658  1  0.322400  0.096200  0.111080  1.0
  C  C3659  1  0.346200  0.927600  0.361080  1.0
  C  C3660  1  0.153800  0.072400  0.861080  1.0
  C  C3661  1  0.677600  0.403800  0.111080  1.0
  C  C3662  1  0.822400  0.596200  0.611080  1.0
  C  C3663  1  0.846200  0.427600  0.861080  1.0
  C  C3664  1  0.653800  0.572400  0.361080  1.0
  C  C3665  1  0.812400  0.044000  0.387200  1.0
  C  C3666  1  0.687600  0.956000  0.887200  1.0
  C  C3667  1  0.706000  0.062400  0.637200  1.0
  C  C3668  1  0.794000  0.937600  0.137200  1.0
  C  C3669  1  0.312400  0.544000  0.887200  1.0
  C  C3670  1  0.187600  0.456000  0.387200  1.0
  C  C3671  1  0.206000  0.562400  0.137200  1.0
  C  C3672  1  0.294000  0.437600  0.637200  1.0
  C  C3673  1  0.187600  0.956000  0.612800  1.0
  C  C3674  1  0.312400  0.044000  0.112800  1.0
  C  C3675  1  0.294000  0.937600  0.362800  1.0
  C  C3676  1  0.206000  0.062400  0.862800  1.0
  C  C3677  1  0.687600  0.456000  0.112800  1.0
  C  C3678  1  0.812400  0.544000  0.612800  1.0
  C  C3679  1  0.794000  0.437600  0.862800  1.0
  C  C3680  1  0.706000  0.562400  0.362800  1.0
  C  C3681  1  0.761100  0.029300  0.384390  1.0
  C  C3682  1  0.738900  0.970700  0.884390  1.0
  C  C3683  1  0.720700  0.011100  0.634390  1.0
  C  C3684  1  0.779300  0.988900  0.134390  1.0
  C  C3685  1  0.261100  0.529300  0.884390  1.0
  C  C3686  1  0.238900  0.470700  0.384390  1.0
  C  C3687  1  0.220700  0.511100  0.134390  1.0
  C  C3688  1  0.279300  0.488900  0.634390  1.0
  C  C3689  1  0.238900  0.970700  0.615610  1.0
  C  C3690  1  0.261100  0.029300  0.115610  1.0
  C  C3691  1  0.279300  0.988900  0.365610  1.0
  C  C3692  1  0.220700  0.011100  0.865610  1.0
  C  C3693  1  0.738900  0.470700  0.115610  1.0
  C  C3694  1  0.761100  0.529300  0.615610  1.0
  C  C3695  1  0.779300  0.488900  0.865610  1.0
  C  C3696  1  0.720700  0.511100  0.365610  1.0
  C  C3697  1  0.744400  0.976100  0.383520  1.0
  C  C3698  1  0.755600  0.023900  0.883520  1.0
  C  C3699  1  0.773900  0.994400  0.633520  1.0
  C  C3700  1  0.726100  0.005600  0.133520  1.0
  C  C3701  1  0.244400  0.476100  0.883520  1.0
  C  C3702  1  0.255600  0.523900  0.383520  1.0
  C  C3703  1  0.273900  0.494400  0.133520  1.0
  C  C3704  1  0.226100  0.505600  0.633520  1.0
  C  C3705  1  0.255600  0.023900  0.616480  1.0
  C  C3706  1  0.244400  0.976100  0.116480  1.0
  C  C3707  1  0.226100  0.005600  0.366480  1.0
  C  C3708  1  0.273900  0.994400  0.866480  1.0
  C  C3709  1  0.755600  0.523900  0.116480  1.0
  C  C3710  1  0.744400  0.476100  0.616480  1.0
  C  C3711  1  0.726100  0.505600  0.866480  1.0
  C  C3712  1  0.773900  0.494400  0.366480  1.0
  C  C3713  1  0.675200  0.918200  0.382560  1.0
  C  C3714  1  0.824800  0.081800  0.882560  1.0
  C  C3715  1  0.831800  0.925200  0.632560  1.0
  C  C3716  1  0.668200  0.074800  0.132560  1.0
  C  C3717  1  0.175200  0.418200  0.882560  1.0
  C  C3718  1  0.324800  0.581800  0.382560  1.0
  C  C3719  1  0.331800  0.425200  0.132560  1.0
  C  C3720  1  0.168200  0.574800  0.632560  1.0
  C  C3721  1  0.324800  0.081800  0.617440  1.0
  C  C3722  1  0.175200  0.918200  0.117440  1.0
  C  C3723  1  0.168200  0.074800  0.367440  1.0
  C  C3724  1  0.331800  0.925200  0.867440  1.0
  C  C3725  1  0.824800  0.581800  0.117440  1.0
  C  C3726  1  0.675200  0.418200  0.617440  1.0
  C  C3727  1  0.668200  0.574800  0.867440  1.0
  C  C3728  1  0.831800  0.425200  0.367440  1.0
  C  C3729  1  0.678900  0.888400  0.395040  1.0
  C  C3730  1  0.821100  0.111600  0.895040  1.0
  C  C3731  1  0.861600  0.928900  0.645040  1.0
  C  C3732  1  0.638400  0.071100  0.145040  1.0
  C  C3733  1  0.178900  0.388400  0.895040  1.0
  C  C3734  1  0.321100  0.611600  0.395040  1.0
  C  C3735  1  0.361600  0.428900  0.145040  1.0
  C  C3736  1  0.138400  0.571100  0.645040  1.0
  C  C3737  1  0.321100  0.111600  0.604960  1.0
  C  C3738  1  0.178900  0.888400  0.104960  1.0
  C  C3739  1  0.138400  0.071100  0.354960  1.0
  C  C3740  1  0.361600  0.928900  0.854960  1.0
  C  C3741  1  0.821100  0.611600  0.104960  1.0
  C  C3742  1  0.678900  0.388400  0.604960  1.0
  C  C3743  1  0.638400  0.571100  0.854960  1.0
  C  C3744  1  0.861600  0.428900  0.354960  1.0
  C  C3745  1  0.657100  0.839700  0.395410  1.0
  C  C3746  1  0.842900  0.160300  0.895410  1.0
  C  C3747  1  0.910300  0.907100  0.645410  1.0
  C  C3748  1  0.589700  0.092900  0.145410  1.0
  C  C3749  1  0.157100  0.339700  0.895410  1.0
  C  C3750  1  0.342900  0.660300  0.395410  1.0
  C  C3751  1  0.410300  0.407100  0.145410  1.0
  C  C3752  1  0.089700  0.592900  0.645410  1.0
  C  C3753  1  0.342900  0.160300  0.604590  1.0
  C  C3754  1  0.157100  0.839700  0.104590  1.0
  C  C3755  1  0.089700  0.092900  0.354590  1.0
  C  C3756  1  0.410300  0.907100  0.854590  1.0
  C  C3757  1  0.842900  0.660300  0.104590  1.0
  C  C3758  1  0.657100  0.339700  0.604590  1.0
  C  C3759  1  0.589700  0.592900  0.854590  1.0
  C  C3760  1  0.910300  0.407100  0.354590  1.0
  C  C3761  1  0.630800  0.820300  0.383290  1.0
  C  C3762  1  0.869200  0.179700  0.883290  1.0
  C  C3763  1  0.929700  0.880800  0.633290  1.0
  C  C3764  1  0.570300  0.119200  0.133290  1.0
  C  C3765  1  0.130800  0.320300  0.883290  1.0
  C  C3766  1  0.369200  0.679700  0.383290  1.0
  C  C3767  1  0.429700  0.380800  0.133290  1.0
  C  C3768  1  0.070300  0.619200  0.633290  1.0
  C  C3769  1  0.369200  0.179700  0.616710  1.0
  C  C3770  1  0.130800  0.820300  0.116710  1.0
  C  C3771  1  0.070300  0.119200  0.366710  1.0
  C  C3772  1  0.429700  0.880800  0.866710  1.0
  C  C3773  1  0.869200  0.679700  0.116710  1.0
  C  C3774  1  0.630800  0.320300  0.616710  1.0
  C  C3775  1  0.570300  0.619200  0.866710  1.0
  C  C3776  1  0.929700  0.380800  0.366710  1.0
  C  C3777  1  0.627100  0.850600  0.370550  1.0
  C  C3778  1  0.872900  0.149400  0.870550  1.0
  C  C3779  1  0.899400  0.877100  0.620550  1.0
  C  C3780  1  0.600600  0.122900  0.120550  1.0
  C  C3781  1  0.127100  0.350600  0.870550  1.0
  C  C3782  1  0.372900  0.649400  0.370550  1.0
  C  C3783  1  0.399400  0.377100  0.120550  1.0
  C  C3784  1  0.100600  0.622900  0.620550  1.0
  C  C3785  1  0.372900  0.149400  0.629450  1.0
  C  C3786  1  0.127100  0.850600  0.129450  1.0
  C  C3787  1  0.100600  0.122900  0.379450  1.0
  C  C3788  1  0.399400  0.877100  0.879450  1.0
  C  C3789  1  0.872900  0.649400  0.129450  1.0
  C  C3790  1  0.627100  0.350600  0.629450  1.0
  C  C3791  1  0.600600  0.622900  0.879450  1.0
  C  C3792  1  0.899400  0.377100  0.379450  1.0
  C  C3793  1  0.649200  0.898800  0.370060  1.0
  C  C3794  1  0.850800  0.101200  0.870060  1.0
  C  C3795  1  0.851200  0.899200  0.620060  1.0
  C  C3796  1  0.648800  0.100800  0.120060  1.0
  C  C3797  1  0.149200  0.398800  0.870060  1.0
  C  C3798  1  0.350800  0.601200  0.370060  1.0
  C  C3799  1  0.351200  0.399200  0.120060  1.0
  C  C3800  1  0.148800  0.600800  0.620060  1.0
  C  C3801  1  0.350800  0.101200  0.629940  1.0
  C  C3802  1  0.149200  0.898800  0.129940  1.0
  C  C3803  1  0.148800  0.100800  0.379940  1.0
  C  C3804  1  0.351200  0.899200  0.879940  1.0
  C  C3805  1  0.850800  0.601200  0.129940  1.0
  C  C3806  1  0.649200  0.398800  0.629940  1.0
  C  C3807  1  0.648800  0.600800  0.879940  1.0
  C  C3808  1  0.851200  0.399200  0.379940  1.0
  C  C3809  1  0.608500  0.767200  0.383430  1.0
  C  C3810  1  0.891500  0.232800  0.883430  1.0
  C  C3811  1  0.982800  0.858500  0.633430  1.0
  C  C3812  1  0.517200  0.141500  0.133430  1.0
  C  C3813  1  0.108500  0.267200  0.883430  1.0
  C  C3814  1  0.391500  0.732800  0.383430  1.0
  C  C3815  1  0.482800  0.358500  0.133430  1.0
  C  C3816  1  0.017200  0.641500  0.633430  1.0
  C  C3817  1  0.391500  0.232800  0.616570  1.0
  C  C3818  1  0.108500  0.767200  0.116570  1.0
  C  C3819  1  0.017200  0.141500  0.366570  1.0
  C  C3820  1  0.482800  0.858500  0.866570  1.0
  C  C3821  1  0.891500  0.732800  0.116570  1.0
  C  C3822  1  0.608500  0.267200  0.616570  1.0
  C  C3823  1  0.517200  0.641500  0.866570  1.0
  C  C3824  1  0.982800  0.358500  0.366570  1.0
  C  C3825  1  0.640800  0.726400  0.384810  1.0
  C  C3826  1  0.859200  0.273600  0.884810  1.0
  C  C3827  1  0.023600  0.890800  0.634810  1.0
  C  C3828  1  0.476400  0.109200  0.134810  1.0
  C  C3829  1  0.140800  0.226400  0.884810  1.0
  C  C3830  1  0.359200  0.773600  0.384810  1.0
  C  C3831  1  0.523600  0.390800  0.134810  1.0
  C  C3832  1  0.976400  0.609200  0.634810  1.0
  C  C3833  1  0.359200  0.273600  0.615190  1.0
  C  C3834  1  0.140800  0.726400  0.115190  1.0
  C  C3835  1  0.976400  0.109200  0.365190  1.0
  C  C3836  1  0.523600  0.890800  0.865190  1.0
  C  C3837  1  0.859200  0.773600  0.115190  1.0
  C  C3838  1  0.640800  0.226400  0.615190  1.0
  C  C3839  1  0.476400  0.609200  0.865190  1.0
  C  C3840  1  0.023600  0.390800  0.365190  1.0
  C  C3841  1  0.620800  0.674700  0.384320  1.0
  C  C3842  1  0.879200  0.325300  0.884320  1.0
  C  C3843  1  0.075300  0.870800  0.634320  1.0
  C  C3844  1  0.424700  0.129200  0.134320  1.0
  C  C3845  1  0.120800  0.174700  0.884320  1.0
  C  C3846  1  0.379200  0.825300  0.384320  1.0
  C  C3847  1  0.575300  0.370800  0.134320  1.0
  C  C3848  1  0.924700  0.629200  0.634320  1.0
  C  C3849  1  0.379200  0.325300  0.615680  1.0
  C  C3850  1  0.120800  0.674700  0.115680  1.0
  C  C3851  1  0.924700  0.129200  0.365680  1.0
  C  C3852  1  0.575300  0.870800  0.865680  1.0
  C  C3853  1  0.879200  0.825300  0.115680  1.0
  C  C3854  1  0.620800  0.174700  0.615680  1.0
  C  C3855  1  0.424700  0.629200  0.865680  1.0
  C  C3856  1  0.075300  0.370800  0.365680  1.0
  C  C3857  1  0.571500  0.665700  0.382830  1.0
  C  C3858  1  0.928500  0.334300  0.882830  1.0
  C  C3859  1  0.084300  0.821500  0.632830  1.0
  C  C3860  1  0.415700  0.178500  0.132830  1.0
  C  C3861  1  0.071500  0.165700  0.882830  1.0
  C  C3862  1  0.428500  0.834300  0.382830  1.0
  C  C3863  1  0.584300  0.321500  0.132830  1.0
  C  C3864  1  0.915700  0.678500  0.632830  1.0
  C  C3865  1  0.428500  0.334300  0.617170  1.0
  C  C3866  1  0.071500  0.665700  0.117170  1.0
  C  C3867  1  0.915700  0.178500  0.367170  1.0
  C  C3868  1  0.584300  0.821500  0.867170  1.0
  C  C3869  1  0.928500  0.834300  0.117170  1.0
  C  C3870  1  0.571500  0.165700  0.617170  1.0
  C  C3871  1  0.415700  0.678500  0.867170  1.0
  C  C3872  1  0.084300  0.321500  0.367170  1.0
  C  C3873  1  0.534200  0.708200  0.382260  1.0
  C  C3874  1  0.965800  0.291800  0.882260  1.0
  C  C3875  1  0.041800  0.784200  0.632260  1.0
  C  C3876  1  0.458200  0.215800  0.132260  1.0
  C  C3877  1  0.034200  0.208200  0.882260  1.0
  C  C3878  1  0.465800  0.791800  0.382260  1.0
  C  C3879  1  0.541800  0.284200  0.132260  1.0
  C  C3880  1  0.958200  0.715800  0.632260  1.0
  C  C3881  1  0.465800  0.291800  0.617740  1.0
  C  C3882  1  0.034200  0.708200  0.117740  1.0
  C  C3883  1  0.958200  0.215800  0.367740  1.0
  C  C3884  1  0.541800  0.784200  0.867740  1.0
  C  C3885  1  0.965800  0.791800  0.117740  1.0
  C  C3886  1  0.534200  0.208200  0.617740  1.0
  C  C3887  1  0.458200  0.715800  0.867740  1.0
  C  C3888  1  0.041800  0.284200  0.367740  1.0
  C  C3889  1  0.554200  0.759500  0.382290  1.0
  C  C3890  1  0.945800  0.240500  0.882290  1.0
  C  C3891  1  0.990500  0.804200  0.632290  1.0
  C  C3892  1  0.509500  0.195800  0.132290  1.0
  C  C3893  1  0.054200  0.259500  0.882290  1.0
  C  C3894  1  0.445800  0.740500  0.382290  1.0
  C  C3895  1  0.490500  0.304200  0.132290  1.0
  C  C3896  1  0.009500  0.695800  0.632290  1.0
  C  C3897  1  0.445800  0.240500  0.617710  1.0
  C  C3898  1  0.054200  0.759500  0.117710  1.0
  C  C3899  1  0.009500  0.195800  0.367710  1.0
  C  C3900  1  0.490500  0.804200  0.867710  1.0
  C  C3901  1  0.945800  0.740500  0.117710  1.0
  C  C3902  1  0.554200  0.259500  0.617710  1.0
  C  C3903  1  0.509500  0.695800  0.867710  1.0
  C  C3904  1  0.990500  0.304200  0.367710  1.0
  C  C3905  1  0.482700  0.700500  0.381940  1.0
  C  C3906  1  0.017300  0.299500  0.881940  1.0
  C  C3907  1  0.049500  0.732700  0.631940  1.0
  C  C3908  1  0.450500  0.267300  0.131940  1.0
  C  C3909  1  0.982700  0.200500  0.881940  1.0
  C  C3910  1  0.517300  0.799500  0.381940  1.0
  C  C3911  1  0.549500  0.232700  0.131940  1.0
  C  C3912  1  0.950500  0.767300  0.631940  1.0
  C  C3913  1  0.517300  0.299500  0.618060  1.0
  C  C3914  1  0.982700  0.700500  0.118060  1.0
  C  C3915  1  0.950500  0.267300  0.368060  1.0
  C  C3916  1  0.549500  0.732700  0.868060  1.0
  C  C3917  1  0.017300  0.799500  0.118060  1.0
  C  C3918  1  0.482700  0.200500  0.618060  1.0
  C  C3919  1  0.450500  0.767300  0.868060  1.0
  C  C3920  1  0.049500  0.232700  0.368060  1.0
  C  C3921  1  0.911200  0.590800  0.517000  1.0
  C  C3922  1  0.588800  0.409200  0.017000  1.0
  C  C3923  1  0.159200  0.161200  0.767000  1.0
  C  C3924  1  0.340800  0.838800  0.267000  1.0
  C  C3925  1  0.411200  0.090800  0.017000  1.0
  C  C3926  1  0.088800  0.909200  0.517000  1.0
  C  C3927  1  0.659200  0.661200  0.267000  1.0
  C  C3928  1  0.840800  0.338800  0.767000  1.0
  C  C3929  1  0.088800  0.409200  0.483000  1.0
  C  C3930  1  0.411200  0.590800  0.983000  1.0
  C  C3931  1  0.840800  0.838800  0.233000  1.0
  C  C3932  1  0.659200  0.161200  0.733000  1.0
  C  C3933  1  0.588800  0.909200  0.983000  1.0
  C  C3934  1  0.911200  0.090800  0.483000  1.0
  C  C3935  1  0.340800  0.338800  0.733000  1.0
  C  C3936  1  0.159200  0.661200  0.233000  1.0
  C  C3937  1  0.959500  0.608100  0.512900  1.0
  C  C3938  1  0.540500  0.391900  0.012900  1.0
  C  C3939  1  0.141900  0.209500  0.762900  1.0
  C  C3940  1  0.358100  0.790500  0.262900  1.0
  C  C3941  1  0.459500  0.108100  0.012900  1.0
  C  C3942  1  0.040500  0.891900  0.512900  1.0
  C  C3943  1  0.641900  0.709500  0.262900  1.0
  C  C3944  1  0.858100  0.290500  0.762900  1.0
  C  C3945  1  0.040500  0.391900  0.487100  1.0
  C  C3946  1  0.459500  0.608100  0.987100  1.0
  C  C3947  1  0.858100  0.790500  0.237100  1.0
  C  C3948  1  0.641900  0.209500  0.737100  1.0
  C  C3949  1  0.540500  0.891900  0.987100  1.0
  C  C3950  1  0.959500  0.108100  0.487100  1.0
  C  C3951  1  0.358100  0.290500  0.737100  1.0
  C  C3952  1  0.141900  0.709500  0.237100  1.0
  C  C3953  1  0.964200  0.658400  0.508200  1.0
  C  C3954  1  0.535800  0.341600  0.008200  1.0
  C  C3955  1  0.091600  0.214200  0.758200  1.0
  C  C3956  1  0.408400  0.785800  0.258200  1.0
  C  C3957  1  0.464200  0.158400  0.008200  1.0
  C  C3958  1  0.035800  0.841600  0.508200  1.0
  C  C3959  1  0.591600  0.714200  0.258200  1.0
  C  C3960  1  0.908400  0.285800  0.758200  1.0
  C  C3961  1  0.035800  0.341600  0.491800  1.0
  C  C3962  1  0.464200  0.658400  0.991800  1.0
  C  C3963  1  0.908400  0.785800  0.241800  1.0
  C  C3964  1  0.591600  0.214200  0.741800  1.0
  C  C3965  1  0.535800  0.841600  0.991800  1.0
  C  C3966  1  0.964200  0.158400  0.491800  1.0
  C  C3967  1  0.408400  0.285800  0.741800  1.0
  C  C3968  1  0.091600  0.714200  0.241800  1.0
  C  C3969  1  0.920500  0.688500  0.506800  1.0
  C  C3970  1  0.579500  0.311500  0.006800  1.0
  C  C3971  1  0.061500  0.170500  0.756800  1.0
  C  C3972  1  0.438500  0.829500  0.256800  1.0
  C  C3973  1  0.420500  0.188500  0.006800  1.0
  C  C3974  1  0.079500  0.811500  0.506800  1.0
  C  C3975  1  0.561500  0.670500  0.256800  1.0
  C  C3976  1  0.938500  0.329500  0.756800  1.0
  C  C3977  1  0.079500  0.311500  0.493200  1.0
  C  C3978  1  0.420500  0.688500  0.993200  1.0
  C  C3979  1  0.938500  0.829500  0.243200  1.0
  C  C3980  1  0.561500  0.170500  0.743200  1.0
  C  C3981  1  0.579500  0.811500  0.993200  1.0
  C  C3982  1  0.920500  0.188500  0.493200  1.0
  C  C3983  1  0.438500  0.329500  0.743200  1.0
  C  C3984  1  0.061500  0.670500  0.243200  1.0
  C  C3985  1  0.874200  0.669800  0.512500  1.0
  C  C3986  1  0.625800  0.330200  0.012500  1.0
  C  C3987  1  0.080200  0.124200  0.762500  1.0
  C  C3988  1  0.419800  0.875800  0.262500  1.0
  C  C3989  1  0.374200  0.169800  0.012500  1.0
  C  C3990  1  0.125800  0.830200  0.512500  1.0
  C  C3991  1  0.580200  0.624200  0.262500  1.0
  C  C3992  1  0.919800  0.375800  0.762500  1.0
  C  C3993  1  0.125800  0.330200  0.487500  1.0
  C  C3994  1  0.374200  0.669800  0.987500  1.0
  C  C3995  1  0.919800  0.875800  0.237500  1.0
  C  C3996  1  0.580200  0.124200  0.737500  1.0
  C  C3997  1  0.625800  0.830200  0.987500  1.0
  C  C3998  1  0.874200  0.169800  0.487500  1.0
  C  C3999  1  0.419800  0.375800  0.737500  1.0
  C  C4000  1  0.080200  0.624200  0.237500  1.0
  C  C4001  1  0.826300  0.696300  0.511600  1.0
  C  C4002  1  0.673700  0.303700  0.011600  1.0
  C  C4003  1  0.053700  0.076300  0.761600  1.0
  C  C4004  1  0.446300  0.923700  0.261600  1.0
  C  C4005  1  0.326300  0.196300  0.011600  1.0
  C  C4006  1  0.173700  0.803700  0.511600  1.0
  C  C4007  1  0.553700  0.576300  0.261600  1.0
  C  C4008  1  0.946300  0.423700  0.761600  1.0
  C  C4009  1  0.173700  0.303700  0.488400  1.0
  C  C4010  1  0.326300  0.696300  0.988400  1.0
  C  C4011  1  0.946300  0.923700  0.238400  1.0
  C  C4012  1  0.553700  0.076300  0.738400  1.0
  C  C4013  1  0.673700  0.803700  0.988400  1.0
  C  C4014  1  0.826300  0.196300  0.488400  1.0
  C  C4015  1  0.446300  0.423700  0.738400  1.0
  C  C4016  1  0.053700  0.576300  0.238400  1.0
  C  C4017  1  0.739000  0.700800  0.515480  1.0
  C  C4018  1  0.761000  0.299200  0.015480  1.0
  C  C4019  1  0.049200  0.989000  0.765480  1.0
  C  C4020  1  0.450800  0.011000  0.265480  1.0
  C  C4021  1  0.239000  0.200800  0.015480  1.0
  C  C4022  1  0.261000  0.799200  0.515480  1.0
  C  C4023  1  0.549200  0.489000  0.265480  1.0
  C  C4024  1  0.950800  0.511000  0.765480  1.0
  C  C4025  1  0.261000  0.299200  0.484520  1.0
  C  C4026  1  0.239000  0.700800  0.984520  1.0
  C  C4027  1  0.950800  0.011000  0.234520  1.0
  C  C4028  1  0.549200  0.989000  0.734520  1.0
  C  C4029  1  0.761000  0.799200  0.984520  1.0
  C  C4030  1  0.739000  0.200800  0.484520  1.0
  C  C4031  1  0.450800  0.511000  0.734520  1.0
  C  C4032  1  0.049200  0.489000  0.234520  1.0
  C  C4033  1  0.718800  0.720400  0.502810  1.0
  C  C4034  1  0.781200  0.279600  0.002810  1.0
  C  C4035  1  0.029600  0.968800  0.752810  1.0
  C  C4036  1  0.470400  0.031200  0.252810  1.0
  C  C4037  1  0.218800  0.220400  0.002810  1.0
  C  C4038  1  0.281200  0.779600  0.502810  1.0
  C  C4039  1  0.529600  0.468800  0.252810  1.0
  C  C4040  1  0.970400  0.531200  0.752810  1.0
  C  C4041  1  0.281200  0.279600  0.497190  1.0
  C  C4042  1  0.218800  0.720400  0.997190  1.0
  C  C4043  1  0.970400  0.031200  0.247190  1.0
  C  C4044  1  0.529600  0.968800  0.747190  1.0
  C  C4045  1  0.781200  0.779600  0.997190  1.0
  C  C4046  1  0.718800  0.220400  0.497190  1.0
  C  C4047  1  0.470400  0.531200  0.747190  1.0
  C  C4048  1  0.029600  0.468800  0.247190  1.0
  C  C4049  1  0.672600  0.747800  0.503470  1.0
  C  C4050  1  0.827400  0.252200  0.003470  1.0
  C  C4051  1  0.002200  0.922600  0.753470  1.0
  C  C4052  1  0.497800  0.077400  0.253470  1.0
  C  C4053  1  0.172600  0.247800  0.003470  1.0
  C  C4054  1  0.327400  0.752200  0.503470  1.0
  C  C4055  1  0.502200  0.422600  0.253470  1.0
  C  C4056  1  0.997800  0.577400  0.753470  1.0
  C  C4057  1  0.327400  0.252200  0.496530  1.0
  C  C4058  1  0.172600  0.747800  0.996530  1.0
  C  C4059  1  0.997800  0.077400  0.246530  1.0
  C  C4060  1  0.502200  0.922600  0.746530  1.0
  C  C4061  1  0.827400  0.752200  0.996530  1.0
  C  C4062  1  0.672600  0.247800  0.496530  1.0
  C  C4063  1  0.497800  0.577400  0.746530  1.0
  C  C4064  1  0.002200  0.422600  0.246530  1.0
  C  C4065  1  0.647700  0.759800  0.516820  1.0
  C  C4066  1  0.852300  0.240200  0.016820  1.0
  C  C4067  1  0.990200  0.897700  0.766820  1.0
  C  C4068  1  0.509800  0.102300  0.266820  1.0
  C  C4069  1  0.147700  0.259800  0.016820  1.0
  C  C4070  1  0.352300  0.740200  0.516820  1.0
  C  C4071  1  0.490200  0.397700  0.266820  1.0
  C  C4072  1  0.009800  0.602300  0.766820  1.0
  C  C4073  1  0.352300  0.240200  0.483180  1.0
  C  C4074  1  0.147700  0.759800  0.983180  1.0
  C  C4075  1  0.009800  0.102300  0.233180  1.0
  C  C4076  1  0.490200  0.897700  0.733180  1.0
  C  C4077  1  0.852300  0.740200  0.983180  1.0
  C  C4078  1  0.647700  0.259800  0.483180  1.0
  C  C4079  1  0.509800  0.602300  0.733180  1.0
  C  C4080  1  0.990200  0.397700  0.233180  1.0
  C  C4081  1  0.669700  0.738800  0.529660  1.0
  C  C4082  1  0.830300  0.261200  0.029660  1.0
  C  C4083  1  0.011200  0.919700  0.779660  1.0
  C  C4084  1  0.488800  0.080300  0.279660  1.0
  C  C4085  1  0.169700  0.238800  0.029660  1.0
  C  C4086  1  0.330300  0.761200  0.529660  1.0
  C  C4087  1  0.511200  0.419700  0.279660  1.0
  C  C4088  1  0.988800  0.580300  0.779660  1.0
  C  C4089  1  0.330300  0.261200  0.470340  1.0
  C  C4090  1  0.169700  0.738800  0.970340  1.0
  C  C4091  1  0.988800  0.080300  0.220340  1.0
  C  C4092  1  0.511200  0.919700  0.720340  1.0
  C  C4093  1  0.830300  0.761200  0.970340  1.0
  C  C4094  1  0.669700  0.238800  0.470340  1.0
  C  C4095  1  0.488800  0.580300  0.720340  1.0
  C  C4096  1  0.011200  0.419700  0.220340  1.0
  C  C4097  1  0.714500  0.710200  0.529080  1.0
  C  C4098  1  0.785500  0.289800  0.029080  1.0
  C  C4099  1  0.039800  0.964500  0.779080  1.0
  C  C4100  1  0.460200  0.035500  0.279080  1.0
  C  C4101  1  0.214500  0.210200  0.029080  1.0
  C  C4102  1  0.285500  0.789800  0.529080  1.0
  C  C4103  1  0.539800  0.464500  0.279080  1.0
  C  C4104  1  0.960200  0.535500  0.779080  1.0
  C  C4105  1  0.285500  0.289800  0.470920  1.0
  C  C4106  1  0.214500  0.710200  0.970920  1.0
  C  C4107  1  0.960200  0.035500  0.220920  1.0
  C  C4108  1  0.539800  0.964500  0.720920  1.0
  C  C4109  1  0.785500  0.789800  0.970920  1.0
  C  C4110  1  0.714500  0.210200  0.470920  1.0
  C  C4111  1  0.460200  0.535500  0.720920  1.0
  C  C4112  1  0.039800  0.464500  0.220920  1.0
  C  C4113  1  0.600800  0.792300  0.517640  1.0
  C  C4114  1  0.899200  0.207700  0.017640  1.0
  C  C4115  1  0.957700  0.850800  0.767640  1.0
  C  C4116  1  0.542300  0.149200  0.267640  1.0
  C  C4117  1  0.100800  0.292300  0.017640  1.0
  C  C4118  1  0.399200  0.707700  0.517640  1.0
  C  C4119  1  0.457700  0.350800  0.267640  1.0
  C  C4120  1  0.042300  0.649200  0.767640  1.0
  C  C4121  1  0.399200  0.207700  0.482360  1.0
  C  C4122  1  0.100800  0.792300  0.982360  1.0
  C  C4123  1  0.042300  0.149200  0.232360  1.0
  C  C4124  1  0.457700  0.850800  0.732360  1.0
  C  C4125  1  0.899200  0.707700  0.982360  1.0
  C  C4126  1  0.600800  0.292300  0.482360  1.0
  C  C4127  1  0.542300  0.649200  0.732360  1.0
  C  C4128  1  0.957700  0.350800  0.232360  1.0
  C  C4129  1  0.606500  0.845600  0.517220  1.0
  C  C4130  1  0.893500  0.154400  0.017220  1.0
  C  C4131  1  0.904400  0.856500  0.767220  1.0
  C  C4132  1  0.595600  0.143500  0.267220  1.0
  C  C4133  1  0.106500  0.345600  0.017220  1.0
  C  C4134  1  0.393500  0.654400  0.517220  1.0
  C  C4135  1  0.404400  0.356500  0.267220  1.0
  C  C4136  1  0.095600  0.643500  0.767220  1.0
  C  C4137  1  0.393500  0.154400  0.482780  1.0
  C  C4138  1  0.106500  0.845600  0.982780  1.0
  C  C4139  1  0.095600  0.143500  0.232780  1.0
  C  C4140  1  0.404400  0.856500  0.732780  1.0
  C  C4141  1  0.893500  0.654400  0.982780  1.0
  C  C4142  1  0.606500  0.345600  0.482780  1.0
  C  C4143  1  0.595600  0.643500  0.732780  1.0
  C  C4144  1  0.904400  0.356500  0.232780  1.0
  C  C4145  1  0.562300  0.877800  0.518490  1.0
  C  C4146  1  0.937700  0.122200  0.018490  1.0
  C  C4147  1  0.872200  0.812300  0.768490  1.0
  C  C4148  1  0.627800  0.187700  0.268490  1.0
  C  C4149  1  0.062300  0.377800  0.018490  1.0
  C  C4150  1  0.437700  0.622200  0.518490  1.0
  C  C4151  1  0.372200  0.312300  0.268490  1.0
  C  C4152  1  0.127800  0.687700  0.768490  1.0
  C  C4153  1  0.437700  0.122200  0.481510  1.0
  C  C4154  1  0.062300  0.877800  0.981510  1.0
  C  C4155  1  0.127800  0.187700  0.231510  1.0
  C  C4156  1  0.372200  0.812300  0.731510  1.0
  C  C4157  1  0.937700  0.622200  0.981510  1.0
  C  C4158  1  0.562300  0.377800  0.481510  1.0
  C  C4159  1  0.627800  0.687700  0.731510  1.0
  C  C4160  1  0.872200  0.312300  0.231510  1.0
  C  C4161  1  0.515000  0.859400  0.519110  1.0
  C  C4162  1  0.985000  0.140600  0.019110  1.0
  C  C4163  1  0.890600  0.765000  0.769110  1.0
  C  C4164  1  0.609400  0.235000  0.269110  1.0
  C  C4165  1  0.015000  0.359400  0.019110  1.0
  C  C4166  1  0.485000  0.640600  0.519110  1.0
  C  C4167  1  0.390600  0.265000  0.269110  1.0
  C  C4168  1  0.109400  0.735000  0.769110  1.0
  C  C4169  1  0.485000  0.140600  0.480890  1.0
  C  C4170  1  0.015000  0.859400  0.980890  1.0
  C  C4171  1  0.109400  0.235000  0.230890  1.0
  C  C4172  1  0.390600  0.765000  0.730890  1.0
  C  C4173  1  0.985000  0.640600  0.980890  1.0
  C  C4174  1  0.515000  0.359400  0.480890  1.0
  C  C4175  1  0.609400  0.735000  0.730890  1.0
  C  C4176  1  0.890600  0.265000  0.230890  1.0
  C  C4177  1  0.506000  0.803300  0.519160  1.0
  C  C4178  1  0.994000  0.196700  0.019160  1.0
  C  C4179  1  0.946700  0.756000  0.769160  1.0
  C  C4180  1  0.553300  0.244000  0.269160  1.0
  C  C4181  1  0.006000  0.303300  0.019160  1.0
  C  C4182  1  0.494000  0.696700  0.519160  1.0
  C  C4183  1  0.446700  0.256000  0.269160  1.0
  C  C4184  1  0.053300  0.744000  0.769160  1.0
  C  C4185  1  0.494000  0.196700  0.480840  1.0
  C  C4186  1  0.006000  0.803300  0.980840  1.0
  C  C4187  1  0.053300  0.244000  0.230840  1.0
  C  C4188  1  0.446700  0.756000  0.730840  1.0
  C  C4189  1  0.994000  0.696700  0.980840  1.0
  C  C4190  1  0.506000  0.303300  0.480840  1.0
  C  C4191  1  0.553300  0.744000  0.730840  1.0
  C  C4192  1  0.946700  0.256000  0.230840  1.0
  C  C4193  1  0.550400  0.771700  0.518960  1.0
  C  C4194  1  0.949600  0.228300  0.018960  1.0
  C  C4195  1  0.978300  0.800400  0.768960  1.0
  C  C4196  1  0.521700  0.199600  0.268960  1.0
  C  C4197  1  0.050400  0.271700  0.018960  1.0
  C  C4198  1  0.449600  0.728300  0.518960  1.0
  C  C4199  1  0.478300  0.300400  0.268960  1.0
  C  C4200  1  0.021700  0.699600  0.768960  1.0
  C  C4201  1  0.449600  0.228300  0.481040  1.0
  C  C4202  1  0.050400  0.771700  0.981040  1.0
  C  C4203  1  0.021700  0.199600  0.231040  1.0
  C  C4204  1  0.478300  0.800400  0.731040  1.0
  C  C4205  1  0.949600  0.728300  0.981040  1.0
  C  C4206  1  0.550400  0.271700  0.481040  1.0
  C  C4207  1  0.521700  0.699600  0.731040  1.0
  C  C4208  1  0.978300  0.300400  0.231040  1.0
  C  C4209  1  0.457400  0.783600  0.519080  1.0
  C  C4210  1  0.042600  0.216400  0.019080  1.0
  C  C4211  1  0.966400  0.707400  0.769080  1.0
  C  C4212  1  0.533600  0.292600  0.269080  1.0
  C  C4213  1  0.957400  0.283600  0.019080  1.0
  C  C4214  1  0.542600  0.716400  0.519080  1.0
  C  C4215  1  0.466400  0.207400  0.269080  1.0
  C  C4216  1  0.033600  0.792600  0.769080  1.0
  C  C4217  1  0.542600  0.216400  0.480920  1.0
  C  C4218  1  0.957400  0.783600  0.980920  1.0
  C  C4219  1  0.033600  0.292600  0.230920  1.0
  C  C4220  1  0.466400  0.707400  0.730920  1.0
  C  C4221  1  0.042600  0.716400  0.980920  1.0
  C  C4222  1  0.457400  0.283600  0.480920  1.0
  C  C4223  1  0.533600  0.792600  0.730920  1.0
  C  C4224  1  0.966400  0.207400  0.230920  1.0
  N  N4225  1  0.820000  0.795000  0.324300  1
  N  N4226  1  0.680000  0.205000  0.824300  1
  N  N4227  1  0.955000  0.070000  0.574300  1
  N  N4228  1  0.545000  0.930000  0.074300  1
  N  N4229  1  0.320000  0.295000  0.824300  1
  N  N4230  1  0.180000  0.705000  0.324300  1
  N  N4231  1  0.455000  0.570000  0.074300  1
  N  N4232  1  0.045000  0.430000  0.574300  1
  N  N4233  1  0.180000  0.205000  0.675700  1
  N  N4234  1  0.320000  0.795000  0.175700  1
  N  N4235  1  0.045000  0.930000  0.425700  1
  N  N4236  1  0.455000  0.070000  0.925700  1
  N  N4237  1  0.680000  0.705000  0.175700  1
  N  N4238  1  0.820000  0.295000  0.675700  1
  N  N4239  1  0.545000  0.430000  0.925700  1
  N  N4240  1  0.955000  0.570000  0.425700  1
  N  N4241  1  0.409300  0.122200  0.416360  1
  N  N4242  1  0.090700  0.877800  0.916360  1
  N  N4243  1  0.627800  0.659300  0.666360  1
  N  N4244  1  0.872200  0.340700  0.166360  1
  N  N4245  1  0.909300  0.622200  0.916360  1
  N  N4246  1  0.590700  0.377800  0.416360  1
  N  N4247  1  0.127800  0.159300  0.166360  1
  N  N4248  1  0.372200  0.840700  0.666360  1
  N  N4249  1  0.590700  0.877800  0.583640  1
  N  N4250  1  0.909300  0.122200  0.083640  1
  N  N4251  1  0.372200  0.340700  0.333640  1
  N  N4252  1  0.127800  0.659300  0.833640  1
  N  N4253  1  0.090700  0.377800  0.083640  1
  N  N4254  1  0.409300  0.622200  0.583640  1
  N  N4255  1  0.872200  0.840700  0.833640  1
  N  N4256  1  0.627800  0.159300  0.333640  1
  N  N4257  1  0.472800  0.068100  0.350250  1
  N  N4258  1  0.027200  0.931900  0.850250  1
  N  N4259  1  0.681900  0.722800  0.600250  1
  N  N4260  1  0.818100  0.277200  0.100250  1
  N  N4261  1  0.972800  0.568100  0.850250  1
  N  N4262  1  0.527200  0.431900  0.350250  1
  N  N4263  1  0.181900  0.222800  0.100250  1
  N  N4264  1  0.318100  0.777200  0.600250  1
  N  N4265  1  0.527200  0.931900  0.649750  1
  N  N4266  1  0.972800  0.068100  0.149750  1
  N  N4267  1  0.318100  0.277200  0.399750  1
  N  N4268  1  0.181900  0.722800  0.899750  1
  N  N4269  1  0.027200  0.431900  0.149750  1
  N  N4270  1  0.472800  0.568100  0.649750  1
  N  N4271  1  0.818100  0.777200  0.899750  1
  N  N4272  1  0.681900  0.222800  0.399750  1
  N  N4273  1  0.500000  0.750000  0.588000  1
  N  N4274  1  0.000000  0.250000  0.088000  1
  N  N4275  1  0.000000  0.750000  0.838000  1
  N  N4276  1  0.500000  0.250000  0.338000  1
  N  N4277  1  0.500000  0.250000  0.412000  1
  N  N4278  1  0.000000  0.750000  0.912000  1
  N  N4279  1  0.000000  0.250000  0.162000  1
  N  N4280  1  0.500000  0.750000  0.662000  1
  N  N4281  1  0.773000  0.763000  0.365100  1
  N  N4282  1  0.727000  0.237000  0.865100  1
  N  N4283  1  0.987000  0.023000  0.615100  1
  N  N4284  1  0.513000  0.977000  0.115100  1
  N  N4285  1  0.273000  0.263000  0.865100  1
  N  N4286  1  0.227000  0.737000  0.365100  1
  N  N4287  1  0.487000  0.523000  0.115100  1
  N  N4288  1  0.013000  0.477000  0.615100  1
  N  N4289  1  0.227000  0.237000  0.634900  1
  N  N4290  1  0.273000  0.763000  0.134900  1
  N  N4291  1  0.013000  0.977000  0.384900  1
  N  N4292  1  0.487000  0.023000  0.884900  1
  N  N4293  1  0.727000  0.737000  0.134900  1
  N  N4294  1  0.773000  0.263000  0.634900  1
  N  N4295  1  0.513000  0.477000  0.884900  1
  N  N4296  1  0.987000  0.523000  0.384900  1
  N  N4297  1  0.783000  0.779000  0.378600  1
  N  N4298  1  0.717000  0.221000  0.878600  1
  N  N4299  1  0.971000  0.033000  0.628600  1
  N  N4300  1  0.529000  0.967000  0.128600  1
  N  N4301  1  0.283000  0.279000  0.878600  1
  N  N4302  1  0.217000  0.721000  0.378600  1
  N  N4303  1  0.471000  0.533000  0.128600  1
  N  N4304  1  0.029000  0.467000  0.628600  1
  N  N4305  1  0.217000  0.221000  0.621400  1
  N  N4306  1  0.283000  0.779000  0.121400  1
  N  N4307  1  0.029000  0.967000  0.371400  1
  N  N4308  1  0.471000  0.033000  0.871400  1
  N  N4309  1  0.717000  0.721000  0.121400  1
  N  N4310  1  0.783000  0.279000  0.621400  1
  N  N4311  1  0.529000  0.467000  0.871400  1
  N  N4312  1  0.971000  0.533000  0.371400  1
  N  N4313  1  0.923000  0.483000  0.477000  1
  N  N4314  1  0.577000  0.517000  0.977000  1
  N  N4315  1  0.267000  0.173000  0.727000  1
  N  N4316  1  0.233000  0.827000  0.227000  1
  N  N4317  1  0.423000  0.983000  0.977000  1
  N  N4318  1  0.077000  0.017000  0.477000  1
  N  N4319  1  0.767000  0.673000  0.227000  1
  N  N4320  1  0.733000  0.327000  0.727000  1
  N  N4321  1  0.077000  0.517000  0.523000  1
  N  N4322  1  0.423000  0.483000  0.023000  1
  N  N4323  1  0.733000  0.827000  0.273000  1
  N  N4324  1  0.767000  0.173000  0.773000  1
  N  N4325  1  0.577000  0.017000  0.023000  1
  N  N4326  1  0.923000  0.983000  0.523000  1
  N  N4327  1  0.233000  0.327000  0.773000  1
  N  N4328  1  0.267000  0.673000  0.273000  1
  N  N4329  1  0.024000  0.546000  0.471200  1
  N  N4330  1  0.476000  0.454000  0.971200  1
  N  N4331  1  0.204000  0.274000  0.721200  1
  N  N4332  1  0.296000  0.726000  0.221200  1
  N  N4333  1  0.524000  0.046000  0.971200  1
  N  N4334  1  0.976000  0.954000  0.471200  1
  N  N4335  1  0.704000  0.774000  0.221200  1
  N  N4336  1  0.796000  0.226000  0.721200  1
  N  N4337  1  0.976000  0.454000  0.528800  1
  N  N4338  1  0.524000  0.546000  0.028800  1
  N  N4339  1  0.796000  0.726000  0.278800  1
  N  N4340  1  0.704000  0.274000  0.778800  1
  N  N4341  1  0.476000  0.954000  0.028800  1
  N  N4342  1  0.024000  0.046000  0.528800  1
  N  N4343  1  0.296000  0.226000  0.778800  1
  N  N4344  1  0.204000  0.774000  0.278800  1
  N  N4345  1  0.510700  0.758400  0.588000  1
  N  N4346  1  0.989300  0.241600  0.088000  1
  N  N4347  1  0.991600  0.760700  0.838000  1
  N  N4348  1  0.508400  0.239300  0.338000  1
  N  N4349  1  0.010700  0.258400  0.088000  1
  N  N4350  1  0.489300  0.741600  0.588000  1
  N  N4351  1  0.491600  0.260700  0.338000  1
  N  N4352  1  0.008400  0.739300  0.838000  1
  N  N4353  1  0.489300  0.241600  0.412000  1
  N  N4354  1  0.010700  0.758400  0.912000  1
  N  N4355  1  0.008400  0.239300  0.162000  1
  N  N4356  1  0.491600  0.760700  0.662000  1
  N  N4357  1  0.989300  0.741600  0.912000  1
  N  N4358  1  0.510700  0.258400  0.412000  1
  N  N4359  1  0.508400  0.739300  0.662000  1
  N  N4360  1  0.991600  0.260700  0.162000  1
  N  N4361  1  0.658800  0.029400  0.358570  1.0
  N  N4362  1  0.841200  0.970600  0.858570  1.0
  N  N4363  1  0.720600  0.908800  0.608570  1.0
  N  N4364  1  0.779400  0.091200  0.108570  1.0
  N  N4365  1  0.158800  0.529400  0.858570  1.0
  N  N4366  1  0.341200  0.470600  0.358570  1.0
  N  N4367  1  0.220600  0.408800  0.108570  1.0
  N  N4368  1  0.279400  0.591200  0.608570  1.0
  N  N4369  1  0.341200  0.970600  0.641430  1.0
  N  N4370  1  0.158800  0.029400  0.141430  1.0
  N  N4371  1  0.279400  0.091200  0.391430  1.0
  N  N4372  1  0.220600  0.908800  0.891430  1.0
  N  N4373  1  0.841200  0.470600  0.141430  1.0
  N  N4374  1  0.658800  0.529400  0.641430  1.0
  N  N4375  1  0.779400  0.591200  0.891430  1.0
  N  N4376  1  0.720600  0.408800  0.391430  1.0
  N  N4377  1  0.585700  0.001500  0.376070  1.0
  N  N4378  1  0.914300  0.998500  0.876070  1.0
  N  N4379  1  0.748500  0.835700  0.626070  1.0
  N  N4380  1  0.751500  0.164300  0.126070  1.0
  N  N4381  1  0.085700  0.501500  0.876070  1.0
  N  N4382  1  0.414300  0.498500  0.376070  1.0
  N  N4383  1  0.248500  0.335700  0.126070  1.0
  N  N4384  1  0.251500  0.664300  0.626070  1.0
  N  N4385  1  0.414300  0.998500  0.623930  1.0
  N  N4386  1  0.085700  0.001500  0.123930  1.0
  N  N4387  1  0.251500  0.164300  0.373930  1.0
  N  N4388  1  0.248500  0.835700  0.873930  1.0
  N  N4389  1  0.914300  0.498500  0.123930  1.0
  N  N4390  1  0.585700  0.501500  0.623930  1.0
  N  N4391  1  0.751500  0.664300  0.873930  1.0
  N  N4392  1  0.748500  0.335700  0.373930  1.0
  N  N4393  1  0.277400  0.917700  0.521740  1.0
  N  N4394  1  0.222600  0.082300  0.021740  1.0
  N  N4395  1  0.832300  0.527400  0.771740  1.0
  N  N4396  1  0.667700  0.472600  0.271740  1.0
  N  N4397  1  0.777400  0.417700  0.021740  1.0
  N  N4398  1  0.722600  0.582300  0.521740  1.0
  N  N4399  1  0.332300  0.027400  0.271740  1.0
  N  N4400  1  0.167700  0.972600  0.771740  1.0
  N  N4401  1  0.722600  0.082300  0.478260  1.0
  N  N4402  1  0.777400  0.917700  0.978260  1.0
  N  N4403  1  0.167700  0.472600  0.228260  1.0
  N  N4404  1  0.332300  0.527400  0.728260  1.0
  N  N4405  1  0.222600  0.582300  0.978260  1.0
  N  N4406  1  0.277400  0.417700  0.478260  1.0
  N  N4407  1  0.667700  0.972600  0.728260  1.0
  N  N4408  1  0.832300  0.027400  0.228260  1.0
  N  N4409  1  0.209200  0.889500  0.540630  1.0
  N  N4410  1  0.290800  0.110500  0.040630  1.0
  N  N4411  1  0.860500  0.459200  0.790630  1.0
  N  N4412  1  0.639500  0.540800  0.290630  1.0
  N  N4413  1  0.709200  0.389500  0.040630  1.0
  N  N4414  1  0.790800  0.610500  0.540630  1.0
  N  N4415  1  0.360500  0.959200  0.290630  1.0
  N  N4416  1  0.139500  0.040800  0.790630  1.0
  N  N4417  1  0.790800  0.110500  0.459370  1.0
  N  N4418  1  0.709200  0.889500  0.959370  1.0
  N  N4419  1  0.139500  0.540800  0.209370  1.0
  N  N4420  1  0.360500  0.459200  0.709370  1.0
  N  N4421  1  0.290800  0.610500  0.959370  1.0
  N  N4422  1  0.209200  0.389500  0.459370  1.0
  N  N4423  1  0.639500  0.040800  0.709370  1.0
  N  N4424  1  0.860500  0.959200  0.209370  1.0
  N  N4425  1  0.618400  0.099100  0.380280  1.0
  N  N4426  1  0.881600  0.900900  0.880280  1.0
  N  N4427  1  0.650900  0.868400  0.630280  1.0
  N  N4428  1  0.849100  0.131600  0.130280  1.0
  N  N4429  1  0.118400  0.599100  0.880280  1.0
  N  N4430  1  0.381600  0.400900  0.380280  1.0
  N  N4431  1  0.150900  0.368400  0.130280  1.0
  N  N4432  1  0.349100  0.631600  0.630280  1.0
  N  N4433  1  0.381600  0.900900  0.619720  1.0
  N  N4434  1  0.118400  0.099100  0.119720  1.0
  N  N4435  1  0.349100  0.131600  0.369720  1.0
  N  N4436  1  0.150900  0.868400  0.869720  1.0
  N  N4437  1  0.881600  0.400900  0.119720  1.0
  N  N4438  1  0.618400  0.599100  0.619720  1.0
  N  N4439  1  0.849100  0.631600  0.869720  1.0
  N  N4440  1  0.650900  0.368400  0.369720  1.0
  N  N4441  1  0.640400  0.039500  0.402260  1.0
  N  N4442  1  0.859600  0.960500  0.902260  1.0
  N  N4443  1  0.710500  0.890400  0.652260  1.0
  N  N4444  1  0.789500  0.109600  0.152260  1.0
  N  N4445  1  0.140400  0.539500  0.902260  1.0
  N  N4446  1  0.359600  0.460500  0.402260  1.0
  N  N4447  1  0.210500  0.390400  0.152260  1.0
  N  N4448  1  0.289500  0.609600  0.652260  1.0
  N  N4449  1  0.359600  0.960500  0.597740  1.0
  N  N4450  1  0.140400  0.039500  0.097740  1.0
  N  N4451  1  0.289500  0.109600  0.347740  1.0
  N  N4452  1  0.210500  0.890400  0.847740  1.0
  N  N4453  1  0.859600  0.460500  0.097740  1.0
  N  N4454  1  0.640400  0.539500  0.597740  1.0
  N  N4455  1  0.789500  0.609600  0.847740  1.0
  N  N4456  1  0.710500  0.390400  0.347740  1.0
  N  N4457  1  0.799000  0.578000  0.496750  1.0
  N  N4458  1  0.701000  0.422000  0.996750  1.0
  N  N4459  1  0.172000  0.049000  0.746750  1.0
  N  N4460  1  0.328000  0.951000  0.246750  1.0
  N  N4461  1  0.299000  0.078000  0.996750  1.0
  N  N4462  1  0.201000  0.922000  0.496750  1.0
  N  N4463  1  0.672000  0.549000  0.246750  1.0
  N  N4464  1  0.828000  0.451000  0.746750  1.0
  N  N4465  1  0.201000  0.422000  0.503250  1.0
  N  N4466  1  0.299000  0.578000  0.003250  1.0
  N  N4467  1  0.828000  0.951000  0.253250  1.0
  N  N4468  1  0.672000  0.049000  0.753250  1.0
  N  N4469  1  0.701000  0.922000  0.003250  1.0
  N  N4470  1  0.799000  0.078000  0.503250  1.0
  N  N4471  1  0.328000  0.451000  0.753250  1.0
  N  N4472  1  0.172000  0.549000  0.253250  1.0
  N  N4473  1  0.811000  0.526400  0.521580  1.0
  N  N4474  1  0.689000  0.473600  0.021580  1.0
  N  N4475  1  0.223600  0.061000  0.771580  1.0
  N  N4476  1  0.276400  0.939000  0.271580  1.0
  N  N4477  1  0.311000  0.026400  0.021580  1.0
  N  N4478  1  0.189000  0.973600  0.521580  1.0
  N  N4479  1  0.723600  0.561000  0.271580  1.0
  N  N4480  1  0.776400  0.439000  0.771580  1.0
  N  N4481  1  0.189000  0.473600  0.478420  1.0
  N  N4482  1  0.311000  0.526400  0.978420  1.0
  N  N4483  1  0.776400  0.939000  0.228420  1.0
  N  N4484  1  0.723600  0.061000  0.728420  1.0
  N  N4485  1  0.689000  0.973600  0.978420  1.0
  N  N4486  1  0.811000  0.026400  0.478420  1.0
  N  N4487  1  0.276400  0.439000  0.728420  1.0
  N  N4488  1  0.223600  0.561000  0.228420  1.0
  N  N4489  1  0.722700  0.063900  0.383150  1.0
  N  N4490  1  0.777300  0.936100  0.883150  1.0
  N  N4491  1  0.686100  0.972700  0.633150  1.0
  N  N4492  1  0.813900  0.027300  0.133150  1.0
  N  N4493  1  0.222700  0.563900  0.883150  1.0
  N  N4494  1  0.277300  0.436100  0.383150  1.0
  N  N4495  1  0.186100  0.472700  0.133150  1.0
  N  N4496  1  0.313900  0.527300  0.633150  1.0
  N  N4497  1  0.277300  0.936100  0.616850  1.0
  N  N4498  1  0.222700  0.063900  0.116850  1.0
  N  N4499  1  0.313900  0.027300  0.366850  1.0
  N  N4500  1  0.186100  0.972700  0.866850  1.0
  N  N4501  1  0.777300  0.436100  0.116850  1.0
  N  N4502  1  0.722700  0.563900  0.616850  1.0
  N  N4503  1  0.813900  0.527300  0.866850  1.0
  N  N4504  1  0.686100  0.472700  0.366850  1.0
  N  N4505  1  0.695500  0.969200  0.382110  1.0
  N  N4506  1  0.804500  0.030800  0.882110  1.0
  N  N4507  1  0.780800  0.945500  0.632110  1.0
  N  N4508  1  0.719200  0.054500  0.132110  1.0
  N  N4509  1  0.195500  0.469200  0.882110  1.0
  N  N4510  1  0.304500  0.530800  0.382110  1.0
  N  N4511  1  0.280800  0.445500  0.132110  1.0
  N  N4512  1  0.219200  0.554500  0.632110  1.0
  N  N4513  1  0.304500  0.030800  0.617890  1.0
  N  N4514  1  0.195500  0.969200  0.117890  1.0
  N  N4515  1  0.219200  0.054500  0.367890  1.0
  N  N4516  1  0.280800  0.945500  0.867890  1.0
  N  N4517  1  0.804500  0.530800  0.117890  1.0
  N  N4518  1  0.695500  0.469200  0.617890  1.0
  N  N4519  1  0.719200  0.554500  0.867890  1.0
  N  N4520  1  0.780800  0.445500  0.367890  1.0
  N  N4521  1  0.868900  0.620700  0.517100  1.0
  N  N4522  1  0.631100  0.379300  0.017100  1.0
  N  N4523  1  0.129300  0.118900  0.767100  1.0
  N  N4524  1  0.370700  0.881100  0.267100  1.0
  N  N4525  1  0.368900  0.120700  0.017100  1.0
  N  N4526  1  0.131100  0.879300  0.517100  1.0
  N  N4527  1  0.629300  0.618900  0.267100  1.0
  N  N4528  1  0.870700  0.381100  0.767100  1.0
  N  N4529  1  0.131100  0.379300  0.482900  1.0
  N  N4530  1  0.368900  0.620700  0.982900  1.0
  N  N4531  1  0.870700  0.881100  0.232900  1.0
  N  N4532  1  0.629300  0.118900  0.732900  1.0
  N  N4533  1  0.631100  0.879300  0.982900  1.0
  N  N4534  1  0.868900  0.120700  0.482900  1.0
  N  N4535  1  0.370700  0.381100  0.732900  1.0
  N  N4536  1  0.129300  0.618900  0.232900  1.0
  N  N4537  1  0.784900  0.672000  0.514990  1.0
  N  N4538  1  0.715100  0.328000  0.014990  1.0
  N  N4539  1  0.078000  0.034900  0.764990  1.0
  N  N4540  1  0.422000  0.965100  0.264990  1.0
  N  N4541  1  0.284900  0.172000  0.014990  1.0
  N  N4542  1  0.215100  0.828000  0.514990  1.0
  N  N4543  1  0.578000  0.534900  0.264990  1.0
  N  N4544  1  0.922000  0.465100  0.764990  1.0
  N  N4545  1  0.215100  0.328000  0.485010  1.0
  N  N4546  1  0.284900  0.672000  0.985010  1.0
  N  N4547  1  0.922000  0.965100  0.235010  1.0
  N  N4548  1  0.578000  0.034900  0.735010  1.0
  N  N4549  1  0.715100  0.828000  0.985010  1.0
  N  N4550  1  0.784900  0.172000  0.485010  1.0
  N  N4551  1  0.422000  0.465100  0.735010  1.0
  N  N4552  1  0.078000  0.534900  0.235010  1.0
  Cl  Cl4553  1  0.498800  0.605500  0.342680  1
  Cl  Cl4554  1  0.001200  0.394500  0.842680  1
  Cl  Cl4555  1  0.144500  0.748800  0.592680  1
  Cl  Cl4556  1  0.355500  0.251200  0.092680  1
  Cl  Cl4557  1  0.998800  0.105500  0.842680  1
  Cl  Cl4558  1  0.501200  0.894500  0.342680  1
  Cl  Cl4559  1  0.644500  0.248800  0.092680  1
  Cl  Cl4560  1  0.855500  0.751200  0.592680  1
  Cl  Cl4561  1  0.501200  0.394500  0.657320  1
  Cl  Cl4562  1  0.998800  0.605500  0.157320  1
  Cl  Cl4563  1  0.855500  0.251200  0.407320  1
  Cl  Cl4564  1  0.644500  0.748800  0.907320  1
  Cl  Cl4565  1  0.001200  0.894500  0.157320  1
  Cl  Cl4566  1  0.498800  0.105500  0.657320  1
  Cl  Cl4567  1  0.355500  0.751200  0.907320  1
  Cl  Cl4568  1  0.144500  0.248800  0.407320  1
  Cl  Cl4569  1  0.499400  0.607000  0.342800  1
  Cl  Cl4570  1  0.000600  0.393000  0.842800  1
  Cl  Cl4571  1  0.143000  0.749400  0.592800  1
  Cl  Cl4572  1  0.357000  0.250600  0.092800  1
  Cl  Cl4573  1  0.999400  0.107000  0.842800  1
  Cl  Cl4574  1  0.500600  0.893000  0.342800  1
  Cl  Cl4575  1  0.643000  0.249400  0.092800  1
  Cl  Cl4576  1  0.857000  0.750600  0.592800  1
  Cl  Cl4577  1  0.500600  0.393000  0.657200  1
  Cl  Cl4578  1  0.999400  0.607000  0.157200  1
  Cl  Cl4579  1  0.857000  0.250600  0.407200  1
  Cl  Cl4580  1  0.643000  0.749400  0.907200  1
  Cl  Cl4581  1  0.000600  0.893000  0.157200  1
  Cl  Cl4582  1  0.499400  0.107000  0.657200  1
  Cl  Cl4583  1  0.357000  0.750600  0.907200  1
  Cl  Cl4584  1  0.143000  0.249400  0.407200  1
  Cl  Cl4585  1  0.408900  0.885600  0.554500  1
  Cl  Cl4586  1  0.091100  0.114400  0.054500  1
  Cl  Cl4587  1  0.864400  0.658900  0.804500  1
  Cl  Cl4588  1  0.635600  0.341100  0.304500  1
  Cl  Cl4589  1  0.908900  0.385600  0.054500  1
  Cl  Cl4590  1  0.591100  0.614400  0.554500  1
  Cl  Cl4591  1  0.364400  0.158900  0.304500  1
  Cl  Cl4592  1  0.135600  0.841100  0.804500  1
  Cl  Cl4593  1  0.591100  0.114400  0.445500  1
  Cl  Cl4594  1  0.908900  0.885600  0.945500  1
  Cl  Cl4595  1  0.135600  0.341100  0.195500  1
  Cl  Cl4596  1  0.364400  0.658900  0.695500  1
  Cl  Cl4597  1  0.091100  0.614400  0.945500  1
  Cl  Cl4598  1  0.408900  0.385600  0.445500  1
  Cl  Cl4599  1  0.635600  0.841100  0.695500  1
  Cl  Cl4600  1  0.864400  0.158900  0.195500  1
  Cl  Cl4601  1  0.858700  0.953000  0.359000  1
  Cl  Cl4602  1  0.641300  0.047000  0.859000  1
  Cl  Cl4603  1  0.797000  0.108700  0.609000  1
  Cl  Cl4604  1  0.703000  0.891300  0.109000  1
  Cl  Cl4605  1  0.358700  0.453000  0.859000  1
  Cl  Cl4606  1  0.141300  0.547000  0.359000  1
  Cl  Cl4607  1  0.297000  0.608700  0.109000  1
  Cl  Cl4608  1  0.203000  0.391300  0.609000  1
  Cl  Cl4609  1  0.141300  0.047000  0.641000  1
  Cl  Cl4610  1  0.358700  0.953000  0.141000  1
  Cl  Cl4611  1  0.203000  0.891300  0.391000  1
  Cl  Cl4612  1  0.297000  0.108700  0.891000  1
  Cl  Cl4613  1  0.641300  0.547000  0.141000  1
  Cl  Cl4614  1  0.858700  0.453000  0.641000  1
  Cl  Cl4615  1  0.703000  0.391300  0.891000  1
  Cl  Cl4616  1  0.797000  0.608700  0.391000  1
  Cl  Cl4617  1  0.833800  0.944000  0.354150  1
  Cl  Cl4618  1  0.666200  0.056000  0.854150  1
  Cl  Cl4619  1  0.806000  0.083800  0.604150  1
  Cl  Cl4620  1  0.694000  0.916200  0.104150  1
  Cl  Cl4621  1  0.333800  0.444000  0.854150  1
  Cl  Cl4622  1  0.166200  0.556000  0.354150  1
  Cl  Cl4623  1  0.306000  0.583800  0.104150  1
  Cl  Cl4624  1  0.194000  0.416200  0.604150  1
  Cl  Cl4625  1  0.166200  0.056000  0.645850  1
  Cl  Cl4626  1  0.333800  0.944000  0.145850  1
  Cl  Cl4627  1  0.194000  0.916200  0.395850  1
  Cl  Cl4628  1  0.306000  0.083800  0.895850  1
  Cl  Cl4629  1  0.666200  0.556000  0.145850  1
  Cl  Cl4630  1  0.833800  0.444000  0.645850  1
  Cl  Cl4631  1  0.694000  0.416200  0.895850  1
  Cl  Cl4632  1  0.806000  0.583800  0.395850  1
  Cl  Cl4633  1  0.889800  0.317600  0.499300  1
  Cl  Cl4634  1  0.610200  0.682400  0.999300  1
  Cl  Cl4635  1  0.432400  0.139800  0.749300  1
  Cl  Cl4636  1  0.067600  0.860200  0.249300  1
  Cl  Cl4637  1  0.389800  0.817600  0.999300  1
  Cl  Cl4638  1  0.110200  0.182400  0.499300  1
  Cl  Cl4639  1  0.932400  0.639800  0.249300  1
  Cl  Cl4640  1  0.567600  0.360200  0.749300  1
  Cl  Cl4641  1  0.110200  0.682400  0.500700  1
  Cl  Cl4642  1  0.389800  0.317600  0.000700  1
  Cl  Cl4643  1  0.567600  0.860200  0.250700  1
  Cl  Cl4644  1  0.932400  0.139800  0.750700  1
  Cl  Cl4645  1  0.610200  0.182400  0.000700  1
  Cl  Cl4646  1  0.889800  0.817600  0.500700  1
  Cl  Cl4647  1  0.067600  0.360200  0.750700  1
  Cl  Cl4648  1  0.432400  0.639800  0.250700  1
  Cl  Cl4649  1  0.889000  0.314300  0.502300  1
  Cl  Cl4650  1  0.611000  0.685700  0.002300  1
  Cl  Cl4651  1  0.435700  0.139000  0.752300  1
  Cl  Cl4652  1  0.064300  0.861000  0.252300  1
  Cl  Cl4653  1  0.389000  0.814300  0.002300  1
  Cl  Cl4654  1  0.111000  0.185700  0.502300  1
  Cl  Cl4655  1  0.935700  0.639000  0.252300  1
  Cl  Cl4656  1  0.564300  0.361000  0.752300  1
  Cl  Cl4657  1  0.111000  0.685700  0.497700  1
  Cl  Cl4658  1  0.389000  0.314300  0.997700  1
  Cl  Cl4659  1  0.564300  0.861000  0.247700  1
  Cl  Cl4660  1  0.935700  0.139000  0.747700  1
  Cl  Cl4661  1  0.611000  0.185700  0.997700  1
  Cl  Cl4662  1  0.889000  0.814300  0.497700  1
  Cl  Cl4663  1  0.064300  0.361000  0.747700  1
  Cl  Cl4664  1  0.435700  0.639000  0.247700  1
  Cl  Cl4665  1  0.261700  0.079900  0.467340  1
  Cl  Cl4666  1  0.238300  0.920100  0.967340  1
  Cl  Cl4667  1  0.670100  0.511700  0.717340  1
  Cl  Cl4668  1  0.829900  0.488300  0.217340  1
  Cl  Cl4669  1  0.761700  0.579900  0.967340  1
  Cl  Cl4670  1  0.738300  0.420100  0.467340  1
  Cl  Cl4671  1  0.170100  0.011700  0.217340  1
  Cl  Cl4672  1  0.329900  0.988300  0.717340  1
  Cl  Cl4673  1  0.738300  0.920100  0.532660  1
  Cl  Cl4674  1  0.761700  0.079900  0.032660  1
  Cl  Cl4675  1  0.329900  0.488300  0.282660  1
  Cl  Cl4676  1  0.170100  0.511700  0.782660  1
  Cl  Cl4677  1  0.238300  0.420100  0.032660  1
  Cl  Cl4678  1  0.261700  0.579900  0.532660  1
  Cl  Cl4679  1  0.829900  0.988300  0.782660  1
  Cl  Cl4680  1  0.670100  0.011700  0.282660  1
  Cl  Cl4681  1  0.255200  0.042500  0.465200  1
  Cl  Cl4682  1  0.244800  0.957500  0.965200  1
  Cl  Cl4683  1  0.707500  0.505200  0.715200  1
  Cl  Cl4684  1  0.792500  0.494800  0.215200  1
  Cl  Cl4685  1  0.755200  0.542500  0.965200  1
  Cl  Cl4686  1  0.744800  0.457500  0.465200  1
  Cl  Cl4687  1  0.207500  0.005200  0.215200  1
  Cl  Cl4688  1  0.292500  0.994800  0.715200  1
  Cl  Cl4689  1  0.744800  0.957500  0.534800  1
  Cl  Cl4690  1  0.755200  0.042500  0.034800  1
  Cl  Cl4691  1  0.292500  0.494800  0.284800  1
  Cl  Cl4692  1  0.207500  0.505200  0.784800  1
  Cl  Cl4693  1  0.244800  0.457500  0.034800  1
  Cl  Cl4694  1  0.255200  0.542500  0.534800  1
  Cl  Cl4695  1  0.792500  0.994800  0.784800  1
  Cl  Cl4696  1  0.707500  0.005200  0.284800  1
  Cl  Cl4697  1  0.251700  0.111300  0.472100  1
  Cl  Cl4698  1  0.248300  0.888700  0.972100  1
  Cl  Cl4699  1  0.638700  0.501700  0.722100  1
  Cl  Cl4700  1  0.861300  0.498300  0.222100  1
  Cl  Cl4701  1  0.751700  0.611300  0.972100  1
  Cl  Cl4702  1  0.748300  0.388700  0.472100  1
  Cl  Cl4703  1  0.138700  0.001700  0.222100  1
  Cl  Cl4704  1  0.361300  0.998300  0.722100  1
  Cl  Cl4705  1  0.748300  0.888700  0.527900  1
  Cl  Cl4706  1  0.751700  0.111300  0.027900  1
  Cl  Cl4707  1  0.361300  0.498300  0.277900  1
  Cl  Cl4708  1  0.138700  0.501700  0.777900  1
  Cl  Cl4709  1  0.248300  0.388700  0.027900  1
  Cl  Cl4710  1  0.251700  0.611300  0.527900  1
  Cl  Cl4711  1  0.861300  0.998300  0.777900  1
  Cl  Cl4712  1  0.638700  0.001700  0.277900  1
  Cl  Cl4713  1  0.426400  0.871800  0.555840  1
  Cl  Cl4714  1  0.073600  0.128200  0.055840  1
  Cl  Cl4715  1  0.878200  0.676400  0.805840  1
  Cl  Cl4716  1  0.621800  0.323600  0.305840  1
  Cl  Cl4717  1  0.926400  0.371800  0.055840  1
  Cl  Cl4718  1  0.573600  0.628200  0.555840  1
  Cl  Cl4719  1  0.378200  0.176400  0.305840  1
  Cl  Cl4720  1  0.121800  0.823600  0.805840  1
  Cl  Cl4721  1  0.573600  0.128200  0.444160  1
  Cl  Cl4722  1  0.926400  0.871800  0.944160  1
  Cl  Cl4723  1  0.121800  0.323600  0.194160  1
  Cl  Cl4724  1  0.378200  0.676400  0.694160  1
  Cl  Cl4725  1  0.073600  0.628200  0.944160  1
  Cl  Cl4726  1  0.426400  0.371800  0.444160  1
  Cl  Cl4727  1  0.621800  0.823600  0.694160  1
  Cl  Cl4728  1  0.878200  0.176400  0.194160  1
  Cl  Cl4729  1  0.424200  0.871400  0.555570  1
  Cl  Cl4730  1  0.075800  0.128600  0.055570  1
  Cl  Cl4731  1  0.878600  0.674200  0.805570  1
  Cl  Cl4732  1  0.621400  0.325800  0.305570  1
  Cl  Cl4733  1  0.924200  0.371400  0.055570  1
  Cl  Cl4734  1  0.575800  0.628600  0.555570  1
  Cl  Cl4735  1  0.378600  0.174200  0.305570  1
  Cl  Cl4736  1  0.121400  0.825800  0.805570  1
  Cl  Cl4737  1  0.575800  0.128600  0.444430  1
  Cl  Cl4738  1  0.924200  0.871400  0.944430  1
  Cl  Cl4739  1  0.121400  0.325800  0.194430  1
  Cl  Cl4740  1  0.378600  0.674200  0.694430  1
  Cl  Cl4741  1  0.075800  0.628600  0.944430  1
  Cl  Cl4742  1  0.424200  0.371400  0.444430  1
  Cl  Cl4743  1  0.621400  0.825800  0.694430  1
  Cl  Cl4744  1  0.878600  0.174200  0.194430  1
  O  O4745  1  0.444800  0.610700  0.340600  1
  O  O4746  1  0.055200  0.389300  0.840600  1
  O  O4747  1  0.139300  0.694800  0.590600  1
  O  O4748  1  0.360700  0.305200  0.090600  1
  O  O4749  1  0.944800  0.110700  0.840600  1
  O  O4750  1  0.555200  0.889300  0.340600  1
  O  O4751  1  0.639300  0.194800  0.090600  1
  O  O4752  1  0.860700  0.805200  0.590600  1
  O  O4753  1  0.555200  0.389300  0.659400  1
  O  O4754  1  0.944800  0.610700  0.159400  1
  O  O4755  1  0.860700  0.305200  0.409400  1
  O  O4756  1  0.639300  0.694800  0.909400  1
  O  O4757  1  0.055200  0.889300  0.159400  1
  O  O4758  1  0.444800  0.110700  0.659400  1
  O  O4759  1  0.360700  0.805200  0.909400  1
  O  O4760  1  0.139300  0.194800  0.409400  1
  O  O4761  1  0.509500  0.554900  0.337100  1
  O  O4762  1  0.990500  0.445100  0.837100  1
  O  O4763  1  0.195100  0.759500  0.587100  1
  O  O4764  1  0.304900  0.240500  0.087100  1
  O  O4765  1  0.009500  0.054900  0.837100  1
  O  O4766  1  0.490500  0.945100  0.337100  1
  O  O4767  1  0.695100  0.259500  0.087100  1
  O  O4768  1  0.804900  0.740500  0.587100  1
  O  O4769  1  0.490500  0.445100  0.662900  1
  O  O4770  1  0.009500  0.554900  0.162900  1
  O  O4771  1  0.804900  0.240500  0.412900  1
  O  O4772  1  0.695100  0.759500  0.912900  1
  O  O4773  1  0.990500  0.945100  0.162900  1
  O  O4774  1  0.509500  0.054900  0.662900  1
  O  O4775  1  0.304900  0.740500  0.912900  1
  O  O4776  1  0.195100  0.259500  0.412900  1
  O  O4777  1  0.524800  0.641300  0.334100  1
  O  O4778  1  0.975200  0.358700  0.834100  1
  O  O4779  1  0.108700  0.774800  0.584100  1
  O  O4780  1  0.391300  0.225200  0.084100  1
  O  O4781  1  0.024800  0.141300  0.834100  1
  O  O4782  1  0.475200  0.858700  0.334100  1
  O  O4783  1  0.608700  0.274800  0.084100  1
  O  O4784  1  0.891300  0.725200  0.584100  1
  O  O4785  1  0.475200  0.358700  0.665900  1
  O  O4786  1  0.024800  0.641300  0.165900  1
  O  O4787  1  0.891300  0.225200  0.415900  1
  O  O4788  1  0.608700  0.774800  0.915900  1
  O  O4789  1  0.975200  0.858700  0.165900  1
  O  O4790  1  0.524800  0.141300  0.665900  1
  O  O4791  1  0.391300  0.725200  0.915900  1
  O  O4792  1  0.108700  0.274800  0.415900  1
  O  O4793  1  0.509800  0.605700  0.357900  1
  O  O4794  1  0.990200  0.394300  0.857900  1
  O  O4795  1  0.144300  0.759800  0.607900  1
  O  O4796  1  0.355700  0.240200  0.107900  1
  O  O4797  1  0.009800  0.105700  0.857900  1
  O  O4798  1  0.490200  0.894300  0.357900  1
  O  O4799  1  0.644300  0.259800  0.107900  1
  O  O4800  1  0.855700  0.740200  0.607900  1
  O  O4801  1  0.490200  0.394300  0.642100  1
  O  O4802  1  0.009800  0.605700  0.142100  1
  O  O4803  1  0.855700  0.240200  0.392100  1
  O  O4804  1  0.644300  0.759800  0.892100  1
  O  O4805  1  0.990200  0.894300  0.142100  1
  O  O4806  1  0.509800  0.105700  0.642100  1
  O  O4807  1  0.355700  0.740200  0.892100  1
  O  O4808  1  0.144300  0.259800  0.392100  1
  O  O4809  1  0.492000  0.589500  0.357570  1
  O  O4810  1  0.008000  0.410500  0.857570  1
  O  O4811  1  0.160500  0.742000  0.607570  1
  O  O4812  1  0.339500  0.258000  0.107570  1
  O  O4813  1  0.992000  0.089500  0.857570  1
  O  O4814  1  0.508000  0.910500  0.357570  1
  O  O4815  1  0.660500  0.242000  0.107570  1
  O  O4816  1  0.839500  0.758000  0.607570  1
  O  O4817  1  0.508000  0.410500  0.642430  1
  O  O4818  1  0.992000  0.589500  0.142430  1
  O  O4819  1  0.839500  0.258000  0.392430  1
  O  O4820  1  0.660500  0.742000  0.892430  1
  O  O4821  1  0.008000  0.910500  0.142430  1
  O  O4822  1  0.492000  0.089500  0.642430  1
  O  O4823  1  0.339500  0.758000  0.892430  1
  O  O4824  1  0.160500  0.242000  0.392430  1
  O  O4825  1  0.490100  0.566200  0.332600  1
  O  O4826  1  0.009900  0.433800  0.832600  1
  O  O4827  1  0.183800  0.740100  0.582600  1
  O  O4828  1  0.316200  0.259900  0.082600  1
  O  O4829  1  0.990100  0.066200  0.832600  1
  O  O4830  1  0.509900  0.933800  0.332600  1
  O  O4831  1  0.683800  0.240100  0.082600  1
  O  O4832  1  0.816200  0.759900  0.582600  1
  O  O4833  1  0.509900  0.433800  0.667400  1
  O  O4834  1  0.990100  0.566200  0.167400  1
  O  O4835  1  0.816200  0.259900  0.417400  1
  O  O4836  1  0.683800  0.740100  0.917400  1
  O  O4837  1  0.009900  0.933800  0.167400  1
  O  O4838  1  0.490100  0.066200  0.667400  1
  O  O4839  1  0.316200  0.759900  0.917400  1
  O  O4840  1  0.183800  0.240100  0.417400  1
  O  O4841  1  0.551000  0.622100  0.341500  1
  O  O4842  1  0.949000  0.377900  0.841500  1
  O  O4843  1  0.127900  0.801000  0.591500  1
  O  O4844  1  0.372100  0.199000  0.091500  1
  O  O4845  1  0.051000  0.122100  0.841500  1
  O  O4846  1  0.449000  0.877900  0.341500  1
  O  O4847  1  0.627900  0.301000  0.091500  1
  O  O4848  1  0.872100  0.699000  0.591500  1
  O  O4849  1  0.449000  0.377900  0.658500  1
  O  O4850  1  0.051000  0.622100  0.158500  1
  O  O4851  1  0.872100  0.199000  0.408500  1
  O  O4852  1  0.627900  0.801000  0.908500  1
  O  O4853  1  0.949000  0.877900  0.158500  1
  O  O4854  1  0.551000  0.122100  0.658500  1
  O  O4855  1  0.372100  0.699000  0.908500  1
  O  O4856  1  0.127900  0.301000  0.408500  1
  O  O4857  1  0.467200  0.648700  0.340000  1
  O  O4858  1  0.032800  0.351300  0.840000  1
  O  O4859  1  0.101300  0.717200  0.590000  1
  O  O4860  1  0.398700  0.282800  0.090000  1
  O  O4861  1  0.967200  0.148700  0.840000  1
  O  O4862  1  0.532800  0.851300  0.340000  1
  O  O4863  1  0.601300  0.217200  0.090000  1
  O  O4864  1  0.898700  0.782800  0.590000  1
  O  O4865  1  0.532800  0.351300  0.660000  1
  O  O4866  1  0.967200  0.648700  0.160000  1
  O  O4867  1  0.898700  0.282800  0.410000  1
  O  O4868  1  0.601300  0.717200  0.910000  1
  O  O4869  1  0.032800  0.851300  0.160000  1
  O  O4870  1  0.467200  0.148700  0.660000  1
  O  O4871  1  0.398700  0.782800  0.910000  1
  O  O4872  1  0.101300  0.217200  0.410000  1
  O  O4873  1  0.449700  0.908300  0.562500  1
  O  O4874  1  0.050300  0.091700  0.062500  1
  O  O4875  1  0.841700  0.699700  0.812500  1
  O  O4876  1  0.658300  0.300300  0.312500  1
  O  O4877  1  0.949700  0.408300  0.062500  1
  O  O4878  1  0.550300  0.591700  0.562500  1
  O  O4879  1  0.341700  0.199700  0.312500  1
  O  O4880  1  0.158300  0.800300  0.812500  1
  O  O4881  1  0.550300  0.091700  0.437500  1
  O  O4882  1  0.949700  0.908300  0.937500  1
  O  O4883  1  0.158300  0.300300  0.187500  1
  O  O4884  1  0.341700  0.699700  0.687500  1
  O  O4885  1  0.050300  0.591700  0.937500  1
  O  O4886  1  0.449700  0.408300  0.437500  1
  O  O4887  1  0.658300  0.800300  0.687500  1
  O  O4888  1  0.841700  0.199700  0.187500  1
  O  O4889  1  0.367400  0.875300  0.563700  1
  O  O4890  1  0.132600  0.124700  0.063700  1
  O  O4891  1  0.874700  0.617400  0.813700  1
  O  O4892  1  0.625300  0.382600  0.313700  1
  O  O4893  1  0.867400  0.375300  0.063700  1
  O  O4894  1  0.632600  0.624700  0.563700  1
  O  O4895  1  0.374700  0.117400  0.313700  1
  O  O4896  1  0.125300  0.882600  0.813700  1
  O  O4897  1  0.632600  0.124700  0.436300  1
  O  O4898  1  0.867400  0.875300  0.936300  1
  O  O4899  1  0.125300  0.382600  0.186300  1
  O  O4900  1  0.374700  0.617400  0.686300  1
  O  O4901  1  0.132600  0.624700  0.936300  1
  O  O4902  1  0.367400  0.375300  0.436300  1
  O  O4903  1  0.625300  0.882600  0.686300  1
  O  O4904  1  0.874700  0.117400  0.186300  1
  O  O4905  1  0.396500  0.915900  0.542000  1
  O  O4906  1  0.103500  0.084100  0.042000  1
  O  O4907  1  0.834100  0.646500  0.792000  1
  O  O4908  1  0.665900  0.353500  0.292000  1
  O  O4909  1  0.896500  0.415900  0.042000  1
  O  O4910  1  0.603500  0.584100  0.542000  1
  O  O4911  1  0.334100  0.146500  0.292000  1
  O  O4912  1  0.165900  0.853500  0.792000  1
  O  O4913  1  0.603500  0.084100  0.458000  1
  O  O4914  1  0.896500  0.915900  0.958000  1
  O  O4915  1  0.165900  0.353500  0.208000  1
  O  O4916  1  0.334100  0.646500  0.708000  1
  O  O4917  1  0.103500  0.584100  0.958000  1
  O  O4918  1  0.396500  0.415900  0.458000  1
  O  O4919  1  0.665900  0.853500  0.708000  1
  O  O4920  1  0.834100  0.146500  0.208000  1
  O  O4921  1  0.427900  0.838000  0.548800  1
  O  O4922  1  0.072100  0.162000  0.048800  1
  O  O4923  1  0.912000  0.677900  0.798800  1
  O  O4924  1  0.588000  0.322100  0.298800  1
  O  O4925  1  0.927900  0.338000  0.048800  1
  O  O4926  1  0.572100  0.662000  0.548800  1
  O  O4927  1  0.412000  0.177900  0.298800  1
  O  O4928  1  0.088000  0.822100  0.798800  1
  O  O4929  1  0.572100  0.162000  0.451200  1
  O  O4930  1  0.927900  0.838000  0.951200  1
  O  O4931  1  0.088000  0.322100  0.201200  1
  O  O4932  1  0.412000  0.677900  0.701200  1
  O  O4933  1  0.072100  0.662000  0.951200  1
  O  O4934  1  0.427900  0.338000  0.451200  1
  O  O4935  1  0.588000  0.822100  0.701200  1
  O  O4936  1  0.912000  0.177900  0.201200  1
  O  O4937  1  0.854700  0.928800  0.373050  1
  O  O4938  1  0.645300  0.071200  0.873050  1
  O  O4939  1  0.821200  0.104700  0.623050  1
  O  O4940  1  0.678800  0.895300  0.123050  1
  O  O4941  1  0.354700  0.428800  0.873050  1
  O  O4942  1  0.145300  0.571200  0.373050  1
  O  O4943  1  0.321200  0.604700  0.123050  1
  O  O4944  1  0.178800  0.395300  0.623050  1
  O  O4945  1  0.145300  0.071200  0.626950  1
  O  O4946  1  0.354700  0.928800  0.126950  1
  O  O4947  1  0.178800  0.895300  0.376950  1
  O  O4948  1  0.321200  0.104700  0.876950  1
  O  O4949  1  0.645300  0.571200  0.126950  1
  O  O4950  1  0.854700  0.428800  0.626950  1
  O  O4951  1  0.678800  0.395300  0.876950  1
  O  O4952  1  0.821200  0.604700  0.376950  1
  O  O4953  1  0.891300  0.995700  0.360500  1
  O  O4954  1  0.608700  0.004300  0.860500  1
  O  O4955  1  0.754300  0.141300  0.610500  1
  O  O4956  1  0.745700  0.858700  0.110500  1
  O  O4957  1  0.391300  0.495700  0.860500  1
  O  O4958  1  0.108700  0.504300  0.360500  1
  O  O4959  1  0.254300  0.641300  0.110500  1
  O  O4960  1  0.245700  0.358700  0.610500  1
  O  O4961  1  0.108700  0.004300  0.639500  1
  O  O4962  1  0.391300  0.995700  0.139500  1
  O  O4963  1  0.245700  0.858700  0.389500  1
  O  O4964  1  0.254300  0.141300  0.889500  1
  O  O4965  1  0.608700  0.504300  0.139500  1
  O  O4966  1  0.891300  0.495700  0.639500  1
  O  O4967  1  0.745700  0.358700  0.889500  1
  O  O4968  1  0.754300  0.641300  0.389500  1
  O  O4969  1  0.875900  0.917700  0.348600  1
  O  O4970  1  0.624100  0.082300  0.848600  1
  O  O4971  1  0.832300  0.125900  0.598600  1
  O  O4972  1  0.667700  0.874100  0.098600  1
  O  O4973  1  0.375900  0.417700  0.848600  1
  O  O4974  1  0.124100  0.582300  0.348600  1
  O  O4975  1  0.332300  0.625900  0.098600  1
  O  O4976  1  0.167700  0.374100  0.598600  1
  O  O4977  1  0.124100  0.082300  0.651400  1
  O  O4978  1  0.375900  0.917700  0.151400  1
  O  O4979  1  0.167700  0.874100  0.401400  1
  O  O4980  1  0.332300  0.125900  0.901400  1
  O  O4981  1  0.624100  0.582300  0.151400  1
  O  O4982  1  0.875900  0.417700  0.651400  1
  O  O4983  1  0.667700  0.374100  0.901400  1
  O  O4984  1  0.832300  0.625900  0.401400  1
  O  O4985  1  0.809400  0.972600  0.355200  1
  O  O4986  1  0.690600  0.027400  0.855200  1
  O  O4987  1  0.777400  0.059400  0.605200  1
  O  O4988  1  0.722600  0.940600  0.105200  1
  O  O4989  1  0.309400  0.472600  0.855200  1
  O  O4990  1  0.190600  0.527400  0.355200  1
  O  O4991  1  0.277400  0.559400  0.105200  1
  O  O4992  1  0.222600  0.440600  0.605200  1
  O  O4993  1  0.190600  0.027400  0.644800  1
  O  O4994  1  0.309400  0.972600  0.144800  1
  O  O4995  1  0.222600  0.940600  0.394800  1
  O  O4996  1  0.277400  0.059400  0.894800  1
  O  O4997  1  0.690600  0.527400  0.144800  1
  O  O4998  1  0.809400  0.472600  0.644800  1
  O  O4999  1  0.722600  0.440600  0.894800  1
  O  O5000  1  0.777400  0.559400  0.394800  1
  O  O5001  1  0.839700  0.909000  0.366000  1
  O  O5002  1  0.660300  0.091000  0.866000  1
  O  O5003  1  0.841000  0.089700  0.616000  1
  O  O5004  1  0.659000  0.910300  0.116000  1
  O  O5005  1  0.339700  0.409000  0.866000  1
  O  O5006  1  0.160300  0.591000  0.366000  1
  O  O5007  1  0.341000  0.589700  0.116000  1
  O  O5008  1  0.159000  0.410300  0.616000  1
  O  O5009  1  0.160300  0.091000  0.634000  1
  O  O5010  1  0.339700  0.909000  0.134000  1
  O  O5011  1  0.159000  0.910300  0.384000  1
  O  O5012  1  0.341000  0.089700  0.884000  1
  O  O5013  1  0.660300  0.591000  0.134000  1
  O  O5014  1  0.839700  0.409000  0.634000  1
  O  O5015  1  0.659000  0.410300  0.884000  1
  O  O5016  1  0.841000  0.589700  0.384000  1
  O  O5017  1  0.854300  0.992100  0.358200  1
  O  O5018  1  0.645700  0.007900  0.858200  1
  O  O5019  1  0.757900  0.104300  0.608200  1
  O  O5020  1  0.742100  0.895700  0.108200  1
  O  O5021  1  0.354300  0.492100  0.858200  1
  O  O5022  1  0.145700  0.507900  0.358200  1
  O  O5023  1  0.257900  0.604300  0.108200  1
  O  O5024  1  0.242100  0.395700  0.608200  1
  O  O5025  1  0.145700  0.007900  0.641800  1
  O  O5026  1  0.354300  0.992100  0.141800  1
  O  O5027  1  0.242100  0.895700  0.391800  1
  O  O5028  1  0.257900  0.104300  0.891800  1
  O  O5029  1  0.645700  0.507900  0.141800  1
  O  O5030  1  0.854300  0.492100  0.641800  1
  O  O5031  1  0.742100  0.395700  0.891800  1
  O  O5032  1  0.757900  0.604300  0.391800  1
  O  O5033  1  0.856300  0.926500  0.341100  1
  O  O5034  1  0.643700  0.073500  0.841100  1
  O  O5035  1  0.823500  0.106300  0.591100  1
  O  O5036  1  0.676500  0.893700  0.091100  1
  O  O5037  1  0.356300  0.426500  0.841100  1
  O  O5038  1  0.143700  0.573500  0.341100  1
  O  O5039  1  0.323500  0.606300  0.091100  1
  O  O5040  1  0.176500  0.393700  0.591100  1
  O  O5041  1  0.143700  0.073500  0.658900  1
  O  O5042  1  0.356300  0.926500  0.158900  1
  O  O5043  1  0.176500  0.893700  0.408900  1
  O  O5044  1  0.323500  0.106300  0.908900  1
  O  O5045  1  0.643700  0.573500  0.158900  1
  O  O5046  1  0.856300  0.426500  0.658900  1
  O  O5047  1  0.676500  0.393700  0.908900  1
  O  O5048  1  0.823500  0.606300  0.408900  1
  O  O5049  1  0.780300  0.949500  0.351800  1
  O  O5050  1  0.719700  0.050500  0.851800  1
  O  O5051  1  0.800500  0.030300  0.601800  1
  O  O5052  1  0.699500  0.969700  0.101800  1
  O  O5053  1  0.280300  0.449500  0.851800  1
  O  O5054  1  0.219700  0.550500  0.351800  1
  O  O5055  1  0.300500  0.530300  0.101800  1
  O  O5056  1  0.199500  0.469700  0.601800  1
  O  O5057  1  0.219700  0.050500  0.648200  1
  O  O5058  1  0.280300  0.949500  0.148200  1
  O  O5059  1  0.199500  0.969700  0.398200  1
  O  O5060  1  0.300500  0.030300  0.898200  1
  O  O5061  1  0.719700  0.550500  0.148200  1
  O  O5062  1  0.780300  0.449500  0.648200  1
  O  O5063  1  0.699500  0.469700  0.898200  1
  O  O5064  1  0.800500  0.530300  0.398200  1
  O  O5065  1  0.893900  0.316500  0.483700  1
  O  O5066  1  0.606100  0.683500  0.983700  1
  O  O5067  1  0.433500  0.143900  0.733700  1
  O  O5068  1  0.066500  0.856100  0.233700  1
  O  O5069  1  0.393900  0.816500  0.983700  1
  O  O5070  1  0.106100  0.183500  0.483700  1
  O  O5071  1  0.933500  0.643900  0.233700  1
  O  O5072  1  0.566500  0.356100  0.733700  1
  O  O5073  1  0.106100  0.683500  0.516300  1
  O  O5074  1  0.393900  0.316500  0.016300  1
  O  O5075  1  0.566500  0.856100  0.266300  1
  O  O5076  1  0.933500  0.143900  0.766300  1
  O  O5077  1  0.606100  0.183500  0.016300  1
  O  O5078  1  0.893900  0.816500  0.516300  1
  O  O5079  1  0.066500  0.356100  0.766300  1
  O  O5080  1  0.433500  0.643900  0.266300  1
  O  O5081  1  0.908500  0.271400  0.505400  1
  O  O5082  1  0.591500  0.728600  0.005400  1
  O  O5083  1  0.478600  0.158500  0.755400  1
  O  O5084  1  0.021400  0.841500  0.255400  1
  O  O5085  1  0.408500  0.771400  0.005400  1
  O  O5086  1  0.091500  0.228600  0.505400  1
  O  O5087  1  0.978600  0.658500  0.255400  1
  O  O5088  1  0.521400  0.341500  0.755400  1
  O  O5089  1  0.091500  0.728600  0.494600  1
  O  O5090  1  0.408500  0.271400  0.994600  1
  O  O5091  1  0.521400  0.841500  0.244600  1
  O  O5092  1  0.978600  0.158500  0.744600  1
  O  O5093  1  0.591500  0.228600  0.994600  1
  O  O5094  1  0.908500  0.771400  0.494600  1
  O  O5095  1  0.021400  0.341500  0.744600  1
  O  O5096  1  0.478600  0.658500  0.244600  1
  O  O5097  1  0.919400  0.358600  0.505000  1
  O  O5098  1  0.580600  0.641400  0.005000  1
  O  O5099  1  0.391400  0.169400  0.755000  1
  O  O5100  1  0.108600  0.830600  0.255000  1
  O  O5101  1  0.419400  0.858600  0.005000  1
  O  O5102  1  0.080600  0.141400  0.505000  1
  O  O5103  1  0.891400  0.669400  0.255000  1
  O  O5104  1  0.608600  0.330600  0.755000  1
  O  O5105  1  0.080600  0.641400  0.495000  1
  O  O5106  1  0.419400  0.358600  0.995000  1
  O  O5107  1  0.608600  0.830600  0.245000  1
  O  O5108  1  0.891400  0.169400  0.745000  1
  O  O5109  1  0.580600  0.141400  0.995000  1
  O  O5110  1  0.919400  0.858600  0.495000  1
  O  O5111  1  0.108600  0.330600  0.745000  1
  O  O5112  1  0.391400  0.669400  0.245000  1
  O  O5113  1  0.837900  0.324300  0.503200  1
  O  O5114  1  0.662100  0.675700  0.003200  1
  O  O5115  1  0.425700  0.087900  0.753200  1
  O  O5116  1  0.074300  0.912100  0.253200  1
  O  O5117  1  0.337900  0.824300  0.003200  1
  O  O5118  1  0.162100  0.175700  0.503200  1
  O  O5119  1  0.925700  0.587900  0.253200  1
  O  O5120  1  0.574300  0.412100  0.753200  1
  O  O5121  1  0.162100  0.675700  0.496800  1
  O  O5122  1  0.337900  0.324300  0.996800  1
  O  O5123  1  0.574300  0.912100  0.246800  1
  O  O5124  1  0.925700  0.087900  0.746800  1
  O  O5125  1  0.662100  0.175700  0.996800  1
  O  O5126  1  0.837900  0.824300  0.496800  1
  O  O5127  1  0.074300  0.412100  0.746800  1
  O  O5128  1  0.425700  0.587900  0.246800  1
  O  O5129  1  0.898000  0.364200  0.496600  1
  O  O5130  1  0.602000  0.635800  0.996600  1
  O  O5131  1  0.385800  0.148000  0.746600  1
  O  O5132  1  0.114200  0.852000  0.246600  1
  O  O5133  1  0.398000  0.864200  0.996600  1
  O  O5134  1  0.102000  0.135800  0.496600  1
  O  O5135  1  0.885800  0.648000  0.246600  1
  O  O5136  1  0.614200  0.352000  0.746600  1
  O  O5137  1  0.102000  0.635800  0.503400  1
  O  O5138  1  0.398000  0.364200  0.003400  1
  O  O5139  1  0.614200  0.852000  0.253400  1
  O  O5140  1  0.885800  0.148000  0.753400  1
  O  O5141  1  0.602000  0.135800  0.003400  1
  O  O5142  1  0.898000  0.864200  0.503400  1
  O  O5143  1  0.114200  0.352000  0.753400  1
  O  O5144  1  0.385800  0.648000  0.253400  1
  O  O5145  1  0.919700  0.280800  0.493700  1
  O  O5146  1  0.580300  0.719200  0.993700  1
  O  O5147  1  0.469200  0.169700  0.743700  1
  O  O5148  1  0.030800  0.830300  0.243700  1
  O  O5149  1  0.419700  0.780800  0.993700  1
  O  O5150  1  0.080300  0.219200  0.493700  1
  O  O5151  1  0.969200  0.669700  0.243700  1
  O  O5152  1  0.530800  0.330300  0.743700  1
  O  O5153  1  0.080300  0.719200  0.506300  1
  O  O5154  1  0.419700  0.280800  0.006300  1
  O  O5155  1  0.530800  0.830300  0.256300  1
  O  O5156  1  0.969200  0.169700  0.756300  1
  O  O5157  1  0.580300  0.219200  0.006300  1
  O  O5158  1  0.919700  0.780800  0.506300  1
  O  O5159  1  0.030800  0.330300  0.756300  1
  O  O5160  1  0.469200  0.669700  0.256300  1
  O  O5161  1  0.902700  0.311000  0.517400  1
  O  O5162  1  0.597300  0.689000  0.017400  1
  O  O5163  1  0.439000  0.152700  0.767400  1
  O  O5164  1  0.061000  0.847300  0.267400  1
  O  O5165  1  0.402700  0.811000  0.017400  1
  O  O5166  1  0.097300  0.189000  0.517400  1
  O  O5167  1  0.939000  0.652700  0.267400  1
  O  O5168  1  0.561000  0.347300  0.767400  1
  O  O5169  1  0.097300  0.689000  0.482600  1
  O  O5170  1  0.402700  0.311000  0.982600  1
  O  O5171  1  0.561000  0.847300  0.232600  1
  O  O5172  1  0.939000  0.152700  0.732600  1
  O  O5173  1  0.597300  0.189000  0.982600  1
  O  O5174  1  0.902700  0.811000  0.482600  1
  O  O5175  1  0.061000  0.347300  0.732600  1
  O  O5176  1  0.439000  0.652700  0.232600  1
  O  O5177  1  0.836800  0.301500  0.500500  1
  O  O5178  1  0.663200  0.698500  0.000500  1
  O  O5179  1  0.448500  0.086800  0.750500  1
  O  O5180  1  0.051500  0.913200  0.250500  1
  O  O5181  1  0.336800  0.801500  0.000500  1
  O  O5182  1  0.163200  0.198500  0.500500  1
  O  O5183  1  0.948500  0.586800  0.250500  1
  O  O5184  1  0.551500  0.413200  0.750500  1
  O  O5185  1  0.163200  0.698500  0.499500  1
  O  O5186  1  0.336800  0.301500  0.999500  1
  O  O5187  1  0.551500  0.913200  0.249500  1
  O  O5188  1  0.948500  0.086800  0.749500  1
  O  O5189  1  0.663200  0.198500  0.999500  1
  O  O5190  1  0.836800  0.801500  0.499500  1
  O  O5191  1  0.051500  0.413200  0.749500  1
  O  O5192  1  0.448500  0.586800  0.249500  1
  O  O5193  1  0.280200  0.082200  0.482090  1
  O  O5194  1  0.219800  0.917800  0.982090  1
  O  O5195  1  0.667800  0.530200  0.732090  1
  O  O5196  1  0.832200  0.469800  0.232090  1
  O  O5197  1  0.780200  0.582200  0.982090  1
  O  O5198  1  0.719800  0.417800  0.482090  1
  O  O5199  1  0.167800  0.030200  0.232090  1
  O  O5200  1  0.332200  0.969800  0.732090  1
  O  O5201  1  0.719800  0.917800  0.517910  1
  O  O5202  1  0.780200  0.082200  0.017910  1
  O  O5203  1  0.332200  0.469800  0.267910  1
  O  O5204  1  0.167800  0.530200  0.767910  1
  O  O5205  1  0.219800  0.417800  0.017910  1
  O  O5206  1  0.280200  0.582200  0.517910  1
  O  O5207  1  0.832200  0.969800  0.767910  1
  O  O5208  1  0.667800  0.030200  0.267910  1
  O  O5209  1  0.289700  0.042800  0.459300  1
  O  O5210  1  0.210300  0.957200  0.959300  1
  O  O5211  1  0.707200  0.539700  0.709300  1
  O  O5212  1  0.792800  0.460300  0.209300  1
  O  O5213  1  0.789700  0.542800  0.959300  1
  O  O5214  1  0.710300  0.457200  0.459300  1
  O  O5215  1  0.207200  0.039700  0.209300  1
  O  O5216  1  0.292800  0.960300  0.709300  1
  O  O5217  1  0.710300  0.957200  0.540700  1
  O  O5218  1  0.789700  0.042800  0.040700  1
  O  O5219  1  0.292800  0.460300  0.290700  1
  O  O5220  1  0.207200  0.539700  0.790700  1
  O  O5221  1  0.210300  0.457200  0.040700  1
  O  O5222  1  0.289700  0.542800  0.540700  1
  O  O5223  1  0.792800  0.960300  0.790700  1
  O  O5224  1  0.707200  0.039700  0.290700  1
  O  O5225  1  0.266500  0.128900  0.461000  1
  O  O5226  1  0.233500  0.871100  0.961000  1
  O  O5227  1  0.621100  0.516500  0.711000  1
  O  O5228  1  0.878900  0.483500  0.211000  1
  O  O5229  1  0.766500  0.628900  0.961000  1
  O  O5230  1  0.733500  0.371100  0.461000  1
  O  O5231  1  0.121100  0.016500  0.211000  1
  O  O5232  1  0.378900  0.983500  0.711000  1
  O  O5233  1  0.733500  0.871100  0.539000  1
  O  O5234  1  0.766500  0.128900  0.039000  1
  O  O5235  1  0.378900  0.483500  0.289000  1
  O  O5236  1  0.121100  0.516500  0.789000  1
  O  O5237  1  0.233500  0.371100  0.039000  1
  O  O5238  1  0.266500  0.628900  0.539000  1
  O  O5239  1  0.878900  0.983500  0.789000  1
  O  O5240  1  0.621100  0.016500  0.289000  1
  O  O5241  1  0.209800  0.064400  0.467900  1
  O  O5242  1  0.290200  0.935600  0.967900  1
  O  O5243  1  0.685600  0.459800  0.717900  1
  O  O5244  1  0.814400  0.540200  0.217900  1
  O  O5245  1  0.709800  0.564400  0.967900  1
  O  O5246  1  0.790200  0.435600  0.467900  1
  O  O5247  1  0.185600  0.959800  0.217900  1
  O  O5248  1  0.314400  0.040200  0.717900  1
  O  O5249  1  0.790200  0.935600  0.532100  1
  O  O5250  1  0.709800  0.064400  0.032100  1
  O  O5251  1  0.314400  0.540200  0.282100  1
  O  O5252  1  0.185600  0.459800  0.782100  1
  O  O5253  1  0.290200  0.435600  0.032100  1
  O  O5254  1  0.209800  0.564400  0.532100  1
  O  O5255  1  0.814400  0.040200  0.782100  1
  O  O5256  1  0.685600  0.959800  0.282100  1
  O  O5257  1  0.260600  0.990400  0.461600  1
  O  O5258  1  0.239400  0.009600  0.961600  1
  O  O5259  1  0.759600  0.510600  0.711600  1
  O  O5260  1  0.740400  0.489400  0.211600  1
  O  O5261  1  0.760600  0.490400  0.961600  1
  O  O5262  1  0.739400  0.509600  0.461600  1
  O  O5263  1  0.259600  0.010600  0.211600  1
  O  O5264  1  0.240400  0.989400  0.711600  1
  O  O5265  1  0.739400  0.009600  0.538400  1
  O  O5266  1  0.760600  0.990400  0.038400  1
  O  O5267  1  0.240400  0.489400  0.288400  1
  O  O5268  1  0.259600  0.510600  0.788400  1
  O  O5269  1  0.239400  0.509600  0.038400  1
  O  O5270  1  0.260600  0.490400  0.538400  1
  O  O5271  1  0.740400  0.989400  0.788400  1
  O  O5272  1  0.759600  0.010600  0.288400  1
  O  O5273  1  0.300400  0.069200  0.461100  1
  O  O5274  1  0.199600  0.930800  0.961100  1
  O  O5275  1  0.680800  0.550400  0.711100  1
  O  O5276  1  0.819200  0.449600  0.211100  1
  O  O5277  1  0.800400  0.569200  0.961100  1
  O  O5278  1  0.699600  0.430800  0.461100  1
  O  O5279  1  0.180800  0.050400  0.211100  1
  O  O5280  1  0.319200  0.949600  0.711100  1
  O  O5281  1  0.699600  0.930800  0.538900  1
  O  O5282  1  0.800400  0.069200  0.038900  1
  O  O5283  1  0.319200  0.449600  0.288900  1
  O  O5284  1  0.180800  0.550400  0.788900  1
  O  O5285  1  0.199600  0.430800  0.038900  1
  O  O5286  1  0.300400  0.569200  0.538900  1
  O  O5287  1  0.819200  0.949600  0.788900  1
  O  O5288  1  0.680800  0.050400  0.288900  1
  O  O5289  1  0.245900  0.050500  0.480400  1
  O  O5290  1  0.254100  0.949500  0.980400  1
  O  O5291  1  0.699500  0.495900  0.730400  1
  O  O5292  1  0.800500  0.504100  0.230400  1
  O  O5293  1  0.745900  0.550500  0.980400  1
  O  O5294  1  0.754100  0.449500  0.480400  1
  O  O5295  1  0.199500  0.995900  0.230400  1
  O  O5296  1  0.300500  0.004100  0.730400  1
  O  O5297  1  0.754100  0.949500  0.519600  1
  O  O5298  1  0.745900  0.050500  0.019600  1
  O  O5299  1  0.300500  0.504100  0.269600  1
  O  O5300  1  0.199500  0.495900  0.769600  1
  O  O5301  1  0.254100  0.449500  0.019600  1
  O  O5302  1  0.245900  0.550500  0.519600  1
  O  O5303  1  0.800500  0.004100  0.769600  1
  O  O5304  1  0.699500  0.995900  0.269600  1
  O  O5305  1  0.213700  0.062600  0.456900  1
  O  O5306  1  0.286300  0.937400  0.956900  1
  O  O5307  1  0.687400  0.463700  0.706900  1
  O  O5308  1  0.812600  0.536300  0.206900  1
  O  O5309  1  0.713700  0.562600  0.956900  1
  O  O5310  1  0.786300  0.437400  0.456900  1
  O  O5311  1  0.187400  0.963700  0.206900  1
  O  O5312  1  0.312600  0.036300  0.706900  1
  O  O5313  1  0.786300  0.937400  0.543100  1
  O  O5314  1  0.713700  0.062600  0.043100  1
  O  O5315  1  0.312600  0.536300  0.293100  1
  O  O5316  1  0.187400  0.463700  0.793100  1
  O  O5317  1  0.286300  0.437400  0.043100  1
  O  O5318  1  0.213700  0.562600  0.543100  1
  O  O5319  1  0.812600  0.036300  0.793100  1
  O  O5320  1  0.687400  0.963700  0.293100  1
  O  O5321  1  0.265400  0.075100  0.482900  1
  O  O5322  1  0.234600  0.924900  0.982900  1
  O  O5323  1  0.674900  0.515400  0.732900  1
  O  O5324  1  0.825100  0.484600  0.232900  1
  O  O5325  1  0.765400  0.575100  0.982900  1
  O  O5326  1  0.734600  0.424900  0.482900  1
  O  O5327  1  0.174900  0.015400  0.232900  1
  O  O5328  1  0.325100  0.984600  0.732900  1
  O  O5329  1  0.734600  0.924900  0.517100  1
  O  O5330  1  0.765400  0.075100  0.017100  1
  O  O5331  1  0.325100  0.484600  0.267100  1
  O  O5332  1  0.174900  0.515400  0.767100  1
  O  O5333  1  0.234600  0.424900  0.017100  1
  O  O5334  1  0.265400  0.575100  0.517100  1
  O  O5335  1  0.825100  0.984600  0.767100  1
  O  O5336  1  0.674900  0.015400  0.267100  1
  O  O5337  1  0.292500  0.120000  0.462100  1
  O  O5338  1  0.207500  0.880000  0.962100  1
  O  O5339  1  0.630000  0.542500  0.712100  1
  O  O5340  1  0.870000  0.457500  0.212100  1
  O  O5341  1  0.792500  0.620000  0.962100  1
  O  O5342  1  0.707500  0.380000  0.462100  1
  O  O5343  1  0.130000  0.042500  0.212100  1
  O  O5344  1  0.370000  0.957500  0.712100  1
  O  O5345  1  0.707500  0.880000  0.537900  1
  O  O5346  1  0.792500  0.120000  0.037900  1
  O  O5347  1  0.370000  0.457500  0.287900  1
  O  O5348  1  0.130000  0.542500  0.787900  1
  O  O5349  1  0.207500  0.380000  0.037900  1
  O  O5350  1  0.292500  0.620000  0.537900  1
  O  O5351  1  0.870000  0.957500  0.787900  1
  O  O5352  1  0.630000  0.042500  0.287900  1
  O  O5353  1  0.209400  0.092300  0.463800  1
  O  O5354  1  0.290600  0.907700  0.963800  1
  O  O5355  1  0.657700  0.459400  0.713800  1
  O  O5356  1  0.842300  0.540600  0.213800  1
  O  O5357  1  0.709400  0.592300  0.963800  1
  O  O5358  1  0.790600  0.407700  0.463800  1
  O  O5359  1  0.157700  0.959400  0.213800  1
  O  O5360  1  0.342300  0.040600  0.713800  1
  O  O5361  1  0.790600  0.907700  0.536200  1
  O  O5362  1  0.709400  0.092300  0.036200  1
  O  O5363  1  0.342300  0.540600  0.286200  1
  O  O5364  1  0.157700  0.459400  0.786200  1
  O  O5365  1  0.290600  0.407700  0.036200  1
  O  O5366  1  0.209400  0.592300  0.536200  1
  O  O5367  1  0.842300  0.040600  0.786200  1
  O  O5368  1  0.657700  0.959400  0.286200  1
  O  O5369  1  0.236100  0.157900  0.478500  1
  O  O5370  1  0.263900  0.842100  0.978500  1
  O  O5371  1  0.592100  0.486100  0.728500  1
  O  O5372  1  0.907900  0.513900  0.228500  1
  O  O5373  1  0.736100  0.657900  0.978500  1
  O  O5374  1  0.763900  0.342100  0.478500  1
  O  O5375  1  0.092100  0.986100  0.228500  1
  O  O5376  1  0.407900  0.013900  0.728500  1
  O  O5377  1  0.763900  0.842100  0.521500  1
  O  O5378  1  0.736100  0.157900  0.021500  1
  O  O5379  1  0.407900  0.513900  0.271500  1
  O  O5380  1  0.092100  0.486100  0.771500  1
  O  O5381  1  0.263900  0.342100  0.021500  1
  O  O5382  1  0.236100  0.657900  0.521500  1
  O  O5383  1  0.907900  0.013900  0.771500  1
  O  O5384  1  0.592100  0.986100  0.271500  1
  O  O5385  1  0.418500  0.842300  0.568640  1
  O  O5386  1  0.081500  0.157700  0.068640  1
  O  O5387  1  0.907700  0.668500  0.818640  1
  O  O5388  1  0.592300  0.331500  0.318640  1
  O  O5389  1  0.918500  0.342300  0.068640  1
  O  O5390  1  0.581500  0.657700  0.568640  1
  O  O5391  1  0.407700  0.168500  0.318640  1
  O  O5392  1  0.092300  0.831500  0.818640  1
  O  O5393  1  0.581500  0.157700  0.431360  1
  O  O5394  1  0.918500  0.842300  0.931360  1
  O  O5395  1  0.092300  0.331500  0.181360  1
  O  O5396  1  0.407700  0.668500  0.681360  1
  O  O5397  1  0.081500  0.657700  0.931360  1
  O  O5398  1  0.418500  0.342300  0.431360  1
  O  O5399  1  0.592300  0.831500  0.681360  1
  O  O5400  1  0.907700  0.168500  0.181360  1
  O  O5401  1  0.397000  0.845500  0.544560  1
  O  O5402  1  0.103000  0.154500  0.044560  1
  O  O5403  1  0.904500  0.647000  0.794560  1
  O  O5404  1  0.595500  0.353000  0.294560  1
  O  O5405  1  0.897000  0.345500  0.044560  1
  O  O5406  1  0.603000  0.654500  0.544560  1
  O  O5407  1  0.404500  0.147000  0.294560  1
  O  O5408  1  0.095500  0.853000  0.794560  1
  O  O5409  1  0.603000  0.154500  0.455440  1
  O  O5410  1  0.897000  0.845500  0.955440  1
  O  O5411  1  0.095500  0.353000  0.205440  1
  O  O5412  1  0.404500  0.647000  0.705440  1
  O  O5413  1  0.103000  0.654500  0.955440  1
  O  O5414  1  0.397000  0.345500  0.455440  1
  O  O5415  1  0.595500  0.853000  0.705440  1
  O  O5416  1  0.904500  0.147000  0.205440  1
  O  O5417  1  0.406900  0.922500  0.556900  1
  O  O5418  1  0.093100  0.077500  0.056900  1
  O  O5419  1  0.827500  0.656900  0.806900  1
  O  O5420  1  0.672500  0.343100  0.306900  1
  O  O5421  1  0.906900  0.422500  0.056900  1
  O  O5422  1  0.593100  0.577500  0.556900  1
  O  O5423  1  0.327500  0.156900  0.306900  1
  O  O5424  1  0.172500  0.843100  0.806900  1
  O  O5425  1  0.593100  0.077500  0.443100  1
  O  O5426  1  0.906900  0.922500  0.943100  1
  O  O5427  1  0.172500  0.343100  0.193100  1
  O  O5428  1  0.327500  0.656900  0.693100  1
  O  O5429  1  0.093100  0.577500  0.943100  1
  O  O5430  1  0.406900  0.422500  0.443100  1
  O  O5431  1  0.672500  0.843100  0.693100  1
  O  O5432  1  0.827500  0.156900  0.193100  1
  O  O5433  1  0.478000  0.871100  0.551500  1
  O  O5434  1  0.022000  0.128900  0.051500  1
  O  O5435  1  0.878900  0.728000  0.801500  1
  O  O5436  1  0.621100  0.272000  0.301500  1
  O  O5437  1  0.978000  0.371100  0.051500  1
  O  O5438  1  0.522000  0.628900  0.551500  1
  O  O5439  1  0.378900  0.228000  0.301500  1
  O  O5440  1  0.121100  0.772000  0.801500  1
  O  O5441  1  0.522000  0.128900  0.448500  1
  O  O5442  1  0.978000  0.871100  0.948500  1
  O  O5443  1  0.121100  0.272000  0.198500  1
  O  O5444  1  0.378900  0.728000  0.698500  1
  O  O5445  1  0.022000  0.628900  0.948500  1
  O  O5446  1  0.478000  0.371100  0.448500  1
  O  O5447  1  0.621100  0.772000  0.698500  1
  O  O5448  1  0.878900  0.228000  0.198500  1
  O  O5449  1  0.397800  0.823800  0.556100  1
  O  O5450  1  0.102200  0.176200  0.056100  1
  O  O5451  1  0.926200  0.647800  0.806100  1
  O  O5452  1  0.573800  0.352200  0.306100  1
  O  O5453  1  0.897800  0.323800  0.056100  1
  O  O5454  1  0.602200  0.676200  0.556100  1
  O  O5455  1  0.426200  0.147800  0.306100  1
  O  O5456  1  0.073800  0.852200  0.806100  1
  O  O5457  1  0.602200  0.176200  0.443900  1
  O  O5458  1  0.897800  0.823800  0.943900  1
  O  O5459  1  0.073800  0.352200  0.193900  1
  O  O5460  1  0.426200  0.647800  0.693900  1
  O  O5461  1  0.102200  0.676200  0.943900  1
  O  O5462  1  0.397800  0.323800  0.443900  1
  O  O5463  1  0.573800  0.852200  0.693900  1
  O  O5464  1  0.926200  0.147800  0.193900  1
  O  O5465  1  0.443400  0.877900  0.541000  1
  O  O5466  1  0.056600  0.122100  0.041000  1
  O  O5467  1  0.872100  0.693400  0.791000  1
  O  O5468  1  0.627900  0.306600  0.291000  1
  O  O5469  1  0.943400  0.377900  0.041000  1
  O  O5470  1  0.556600  0.622100  0.541000  1
  O  O5471  1  0.372100  0.193400  0.291000  1
  O  O5472  1  0.127900  0.806600  0.791000  1
  O  O5473  1  0.556600  0.122100  0.459000  1
  O  O5474  1  0.943400  0.877900  0.959000  1
  O  O5475  1  0.127900  0.306600  0.209000  1
  O  O5476  1  0.372100  0.693400  0.709000  1
  O  O5477  1  0.056600  0.622100  0.959000  1
  O  O5478  1  0.443400  0.377900  0.459000  1
  O  O5479  1  0.627900  0.806600  0.709000  1
  O  O5480  1  0.872100  0.193400  0.209000  1
  O  O5481  1  0.461700  0.873800  0.566500  1
  O  O5482  1  0.038300  0.126200  0.066500  1
  O  O5483  1  0.876200  0.711700  0.816500  1
  O  O5484  1  0.623800  0.288300  0.316500  1
  O  O5485  1  0.961700  0.373800  0.066500  1
  O  O5486  1  0.538300  0.626200  0.566500  1
  O  O5487  1  0.376200  0.211700  0.316500  1
  O  O5488  1  0.123800  0.788300  0.816500  1
  O  O5489  1  0.538300  0.126200  0.433500  1
  O  O5490  1  0.961700  0.873800  0.933500  1
  O  O5491  1  0.123800  0.288300  0.183500  1
  O  O5492  1  0.376200  0.711700  0.683500  1
  O  O5493  1  0.038300  0.626200  0.933500  1
  O  O5494  1  0.461700  0.373800  0.433500  1
  O  O5495  1  0.623800  0.788300  0.683500  1
  O  O5496  1  0.876200  0.211700  0.183500  1
  O  O5497  1  0.385600  0.909800  0.557300  1
  O  O5498  1  0.114400  0.090200  0.057300  1
  O  O5499  1  0.840200  0.635600  0.807300  1
  O  O5500  1  0.659800  0.364400  0.307300  1
  O  O5501  1  0.885600  0.409800  0.057300  1
  O  O5502  1  0.614400  0.590200  0.557300  1
  O  O5503  1  0.340200  0.135600  0.307300  1
  O  O5504  1  0.159800  0.864400  0.807300  1
  O  O5505  1  0.614400  0.090200  0.442700  1
  O  O5506  1  0.885600  0.909800  0.942700  1
  O  O5507  1  0.159800  0.364400  0.192700  1
  O  O5508  1  0.340200  0.635600  0.692700  1
  O  O5509  1  0.114400  0.590200  0.942700  1
  O  O5510  1  0.385600  0.409800  0.442700  1
  O  O5511  1  0.659800  0.864400  0.692700  1
  O  O5512  1  0.840200  0.135600  0.192700  1
