# generated using pymatgen
data_FeReH36C51N6O7
_symmetry_space_group_name_H-M   'P 1'
_cell_length_a   22.39100000
_cell_length_b   22.39100000
_cell_length_c   61.56554401
_cell_angle_alpha   79.52264812
_cell_angle_beta   79.52264812
_cell_angle_gamma   60.00000000
_symmetry_Int_Tables_number   1
_chemical_formula_structural   FeReH36C51N6O7
_chemical_formula_sum   'Fe16 Re16 H576 C816 N96 O112'
_cell_volume   26135.06596298
_cell_formula_units_Z   16
loop_
 _symmetry_equiv_pos_site_id
 _symmetry_equiv_pos_as_xyz
  1  'x, y, z'
loop_
 _atom_site_type_symbol
 _atom_site_label
 _atom_site_symmetry_multiplicity
 _atom_site_fract_x
 _atom_site_fract_y
 _atom_site_fract_z
 _atom_site_occupancy
  C  C1  1  0.341620  0.356420  0.457340  1.0
  C  C2  1  0.844620  0.341620  0.457340  1.0
  C  C3  1  0.356420  0.844620  0.457340  1.0
  C  C4  1  0.655380  0.143580  0.042660  1.0
  C  C5  1  0.143580  0.158380  0.042660  1.0
  C  C6  1  0.158380  0.655380  0.042660  1.0
  C  C7  1  0.658380  0.643580  0.542660  1.0
  C  C8  1  0.155380  0.658380  0.542660  1.0
  C  C9  1  0.643580  0.155380  0.542660  1.0
  C  C10  1  0.344620  0.856420  0.957340  1.0
  C  C11  1  0.856420  0.841620  0.957340  1.0
  C  C12  1  0.841620  0.344620  0.957340  1.0
  C  C13  1  0.382860  0.365960  0.469220  1.0
  C  C14  1  0.781960  0.382860  0.469220  1.0
  C  C15  1  0.365960  0.781960  0.469220  1.0
  C  C16  1  0.718040  0.134040  0.030780  1.0
  C  C17  1  0.134040  0.117140  0.030780  1.0
  C  C18  1  0.117140  0.718040  0.030780  1.0
  C  C19  1  0.617140  0.634040  0.530780  1.0
  C  C20  1  0.218040  0.617140  0.530780  1.0
  C  C21  1  0.634040  0.218040  0.530780  1.0
  C  C22  1  0.281960  0.865960  0.969220  1.0
  C  C23  1  0.865960  0.882860  0.969220  1.0
  C  C24  1  0.882860  0.281960  0.969220  1.0
  C  C25  1  0.406660  0.411860  0.459920  1.0
  C  C26  1  0.721560  0.406660  0.459920  1.0
  C  C27  1  0.411860  0.721560  0.459920  1.0
  C  C28  1  0.778440  0.088140  0.040080  1.0
  C  C29  1  0.088140  0.093340  0.040080  1.0
  C  C30  1  0.093340  0.778440  0.040080  1.0
  C  C31  1  0.593340  0.588140  0.540080  1.0
  C  C32  1  0.278440  0.593340  0.540080  1.0
  C  C33  1  0.588140  0.278440  0.540080  1.0
  C  C34  1  0.221560  0.911860  0.959920  1.0
  C  C35  1  0.911860  0.906660  0.959920  1.0
  C  C36  1  0.906660  0.221560  0.959920  1.0
  C  C37  1  0.389650  0.447750  0.439250  1.0
  C  C38  1  0.723350  0.389650  0.439250  1.0
  C  C39  1  0.447750  0.723350  0.439250  1.0
  C  C40  1  0.776650  0.052250  0.060750  1.0
  C  C41  1  0.052250  0.110350  0.060750  1.0
  C  C42  1  0.110350  0.776650  0.060750  1.0
  C  C43  1  0.610350  0.552250  0.560750  1.0
  C  C44  1  0.276650  0.610350  0.560750  1.0
  C  C45  1  0.552250  0.276650  0.560750  1.0
  C  C46  1  0.223350  0.947750  0.939250  1.0
  C  C47  1  0.947750  0.889650  0.939250  1.0
  C  C48  1  0.889650  0.223350  0.939250  1.0
  C  C49  1  0.347560  0.438060  0.427820  1.0
  C  C50  1  0.786560  0.347560  0.427820  1.0
  C  C51  1  0.438060  0.786560  0.427820  1.0
  C  C52  1  0.713440  0.061940  0.072180  1.0
  C  C53  1  0.061940  0.152440  0.072180  1.0
  C  C54  1  0.152440  0.713440  0.072180  1.0
  C  C55  1  0.652440  0.561940  0.572180  1.0
  C  C56  1  0.213440  0.652440  0.572180  1.0
  C  C57  1  0.561940  0.213440  0.572180  1.0
  C  C58  1  0.286560  0.938060  0.927820  1.0
  C  C59  1  0.938060  0.847560  0.927820  1.0
  C  C60  1  0.847560  0.286560  0.927820  1.0
  C  C61  1  0.321280  0.477380  0.407060  1.0
  C  C62  1  0.794280  0.321280  0.407060  1.0
  C  C63  1  0.477380  0.794280  0.407060  1.0
  C  C64  1  0.705720  0.022620  0.092940  1.0
  C  C65  1  0.022620  0.178720  0.092940  1.0
  C  C66  1  0.178720  0.705720  0.092940  1.0
  C  C67  1  0.678720  0.522620  0.592940  1.0
  C  C68  1  0.205720  0.678720  0.592940  1.0
  C  C69  1  0.522620  0.205720  0.592940  1.0
  C  C70  1  0.294280  0.977380  0.907060  1.0
  C  C71  1  0.977380  0.821280  0.907060  1.0
  C  C72  1  0.821280  0.294280  0.907060  1.0
  C  C73  1  0.248180  0.505580  0.379160  1.0
  C  C74  1  0.867080  0.248180  0.379160  1.0
  C  C75  1  0.505580  0.867080  0.379160  1.0
  C  C76  1  0.632920  0.994420  0.120840  1.0
  C  C77  1  0.994420  0.251820  0.120840  1.0
  C  C78  1  0.251820  0.632920  0.120840  1.0
  C  C79  1  0.751820  0.494420  0.620840  1.0
  C  C80  1  0.132920  0.751820  0.620840  1.0
  C  C81  1  0.494420  0.132920  0.620840  1.0
  C  C82  1  0.367080  0.005580  0.879160  1.0
  C  C83  1  0.005580  0.748180  0.879160  1.0
  C  C84  1  0.748180  0.367080  0.879160  1.0
  C  C85  1  0.266140  0.478940  0.358880  1.0
  C  C86  1  0.896040  0.266140  0.358880  1.0
  C  C87  1  0.478940  0.896040  0.358880  1.0
  C  C88  1  0.603960  0.021060  0.141120  1.0
  C  C89  1  0.021060  0.233860  0.141120  1.0
  C  C90  1  0.233860  0.603960  0.141120  1.0
  C  C91  1  0.733860  0.521060  0.641120  1.0
  C  C92  1  0.103960  0.733860  0.641120  1.0
  C  C93  1  0.521060  0.103960  0.641120  1.0
  C  C94  1  0.396040  0.978940  0.858880  1.0
  C  C95  1  0.978940  0.766140  0.858880  1.0
  C  C96  1  0.766140  0.396040  0.858880  1.0
  C  C97  1  0.238120  0.519520  0.339740  1.0
  C  C98  1  0.902620  0.238120  0.339740  1.0
  C  C99  1  0.519520  0.902620  0.339740  1.0
  C  C100  1  0.597380  0.980480  0.160260  1.0
  C  C101  1  0.980480  0.261880  0.160260  1.0
  C  C102  1  0.261880  0.597380  0.160260  1.0
  C  C103  1  0.761880  0.480480  0.660260  1.0
  C  C104  1  0.097380  0.761880  0.660260  1.0
  C  C105  1  0.480480  0.097380  0.660260  1.0
  C  C106  1  0.402620  0.019520  0.839740  1.0
  C  C107  1  0.019520  0.738120  0.839740  1.0
  C  C108  1  0.738120  0.402620  0.839740  1.0
  C  C109  1  0.190220  0.589920  0.340040  1.0
  C  C110  1  0.879820  0.190220  0.340040  1.0
  C  C111  1  0.589920  0.879820  0.340040  1.0
  C  C112  1  0.620180  0.910080  0.159960  1.0
  C  C113  1  0.910080  0.309780  0.159960  1.0
  C  C114  1  0.309780  0.620180  0.159960  1.0
  C  C115  1  0.809780  0.410080  0.659960  1.0
  C  C116  1  0.120180  0.809780  0.659960  1.0
  C  C117  1  0.410080  0.120180  0.659960  1.0
  C  C118  1  0.379820  0.089920  0.840040  1.0
  C  C119  1  0.089920  0.690220  0.840040  1.0
  C  C120  1  0.690220  0.379820  0.840040  1.0
  C  C121  1  0.172630  0.616030  0.360410  1.0
  C  C122  1  0.850930  0.172630  0.360410  1.0
  C  C123  1  0.616030  0.850930  0.360410  1.0
  C  C124  1  0.649070  0.883970  0.139590  1.0
  C  C125  1  0.883970  0.327370  0.139590  1.0
  C  C126  1  0.327370  0.649070  0.139590  1.0
  C  C127  1  0.827370  0.383970  0.639590  1.0
  C  C128  1  0.149070  0.827370  0.639590  1.0
  C  C129  1  0.383970  0.149070  0.639590  1.0
  C  C130  1  0.350930  0.116030  0.860410  1.0
  C  C131  1  0.116030  0.672630  0.860410  1.0
  C  C132  1  0.672630  0.350930  0.860410  1.0
  C  C133  1  0.199700  0.575600  0.379700  1.0
  C  C134  1  0.845000  0.199700  0.379700  1.0
  C  C135  1  0.575600  0.845000  0.379700  1.0
  C  C136  1  0.655000  0.924400  0.120300  1.0
  C  C137  1  0.924400  0.300300  0.120300  1.0
  C  C138  1  0.300300  0.655000  0.120300  1.0
  C  C139  1  0.800300  0.424400  0.620300  1.0
  C  C140  1  0.155000  0.800300  0.620300  1.0
  C  C141  1  0.424400  0.155000  0.620300  1.0
  C  C142  1  0.345000  0.075600  0.879700  1.0
  C  C143  1  0.075600  0.699700  0.879700  1.0
  C  C144  1  0.699700  0.345000  0.879700  1.0
  C  C145  1  0.156000  0.633200  0.320000  1.0
  C  C146  1  0.890800  0.156000  0.320000  1.0
  C  C147  1  0.633200  0.890800  0.320000  1.0
  C  C148  1  0.609200  0.866800  0.180000  1.0
  C  C149  1  0.866800  0.344000  0.180000  1.0
  C  C150  1  0.344000  0.609200  0.180000  1.0
  C  C151  1  0.844000  0.366800  0.680000  1.0
  C  C152  1  0.109200  0.844000  0.680000  1.0
  C  C153  1  0.366800  0.109200  0.680000  1.0
  C  C154  1  0.390800  0.133200  0.820000  1.0
  C  C155  1  0.133200  0.656000  0.820000  1.0
  C  C156  1  0.656000  0.390800  0.820000  1.0
  C  C157  1  0.116570  0.616270  0.310190  1.0
  C  C158  1  0.956970  0.116570  0.310190  1.0
  C  C159  1  0.616270  0.956970  0.310190  1.0
  C  C160  1  0.543030  0.883730  0.189810  1.0
  C  C161  1  0.883730  0.383430  0.189810  1.0
  C  C162  1  0.383430  0.543030  0.189810  1.0
  C  C163  1  0.883430  0.383730  0.689810  1.0
  C  C164  1  0.043030  0.883430  0.689810  1.0
  C  C165  1  0.383730  0.043030  0.689810  1.0
  C  C166  1  0.456970  0.116270  0.810190  1.0
  C  C167  1  0.116270  0.616570  0.810190  1.0
  C  C168  1  0.616570  0.456970  0.810190  1.0
  C  C169  1  0.086380  0.654080  0.290960  1.0
  C  C170  1  0.968580  0.086380  0.290960  1.0
  C  C171  1  0.654080  0.968580  0.290960  1.0
  C  C172  1  0.531420  0.845920  0.209040  1.0
  C  C173  1  0.845920  0.413620  0.209040  1.0
  C  C174  1  0.413620  0.531420  0.209040  1.0
  C  C175  1  0.913620  0.345920  0.709040  1.0
  C  C176  1  0.031420  0.913620  0.709040  1.0
  C  C177  1  0.345920  0.031420  0.709040  1.0
  C  C178  1  0.468580  0.154080  0.790960  1.0
  C  C179  1  0.154080  0.586380  0.790960  1.0
  C  C180  1  0.586380  0.468580  0.790960  1.0
  C  C181  1  0.092650  0.710250  0.280850  1.0
  C  C182  1  0.916250  0.092650  0.280850  1.0
  C  C183  1  0.710250  0.916250  0.280850  1.0
  C  C184  1  0.583750  0.789750  0.219150  1.0
  C  C185  1  0.789750  0.407350  0.219150  1.0
  C  C186  1  0.407350  0.583750  0.219150  1.0
  C  C187  1  0.907350  0.289750  0.719150  1.0
  C  C188  1  0.083750  0.907350  0.719150  1.0
  C  C189  1  0.289750  0.083750  0.719150  1.0
  C  C190  1  0.416250  0.210250  0.780850  1.0
  C  C191  1  0.210250  0.592650  0.780850  1.0
  C  C192  1  0.592650  0.416250  0.780850  1.0
  C  C193  1  0.130770  0.731670  0.290390  1.0
  C  C194  1  0.847170  0.130770  0.290390  1.0
  C  C195  1  0.731670  0.847170  0.290390  1.0
  C  C196  1  0.652830  0.768330  0.209610  1.0
  C  C197  1  0.768330  0.369230  0.209610  1.0
  C  C198  1  0.369230  0.652830  0.209610  1.0
  C  C199  1  0.869230  0.268330  0.709610  1.0
  C  C200  1  0.152830  0.869230  0.709610  1.0
  C  C201  1  0.268330  0.152830  0.709610  1.0
  C  C202  1  0.347170  0.231670  0.790390  1.0
  C  C203  1  0.231670  0.630770  0.790390  1.0
  C  C204  1  0.630770  0.347170  0.790390  1.0
  C  C205  1  0.163020  0.692420  0.310040  1.0
  C  C206  1  0.834520  0.163020  0.310040  1.0
  C  C207  1  0.692420  0.834520  0.310040  1.0
  C  C208  1  0.665480  0.807580  0.189960  1.0
  C  C209  1  0.807580  0.336980  0.189960  1.0
  C  C210  1  0.336980  0.665480  0.189960  1.0
  C  C211  1  0.836980  0.307580  0.689960  1.0
  C  C212  1  0.165480  0.836980  0.689960  1.0
  C  C213  1  0.307580  0.165480  0.689960  1.0
  C  C214  1  0.334520  0.192420  0.810040  1.0
  C  C215  1  0.192420  0.663020  0.810040  1.0
  C  C216  1  0.663020  0.334520  0.810040  1.0
  C  C217  1  0.202140  0.714140  0.318980  1.0
  C  C218  1  0.764740  0.202140  0.318980  1.0
  C  C219  1  0.714140  0.764740  0.318980  1.0
  C  C220  1  0.735260  0.785860  0.181020  1.0
  C  C221  1  0.785860  0.297860  0.181020  1.0
  C  C222  1  0.297860  0.735260  0.181020  1.0
  C  C223  1  0.797860  0.285860  0.681020  1.0
  C  C224  1  0.235260  0.797860  0.681020  1.0
  C  C225  1  0.285860  0.235260  0.681020  1.0
  C  C226  1  0.264740  0.214140  0.818980  1.0
  C  C227  1  0.214140  0.702140  0.818980  1.0
  C  C228  1  0.702140  0.264740  0.818980  1.0
  C  C229  1  0.209340  0.770240  0.308780  1.0
  C  C230  1  0.711640  0.209340  0.308780  1.0
  C  C231  1  0.770240  0.711640  0.308780  1.0
  C  C232  1  0.788360  0.729760  0.191220  1.0
  C  C233  1  0.729760  0.290660  0.191220  1.0
  C  C234  1  0.290660  0.788360  0.191220  1.0
  C  C235  1  0.790660  0.229760  0.691220  1.0
  C  C236  1  0.288360  0.790660  0.691220  1.0
  C  C237  1  0.229760  0.288360  0.691220  1.0
  C  C238  1  0.211640  0.270240  0.808780  1.0
  C  C239  1  0.270240  0.709340  0.808780  1.0
  C  C240  1  0.709340  0.211640  0.808780  1.0
  C  C241  1  0.179280  0.807380  0.289460  1.0
  C  C242  1  0.723880  0.179280  0.289460  1.0
  C  C243  1  0.807380  0.723880  0.289460  1.0
  C  C244  1  0.776120  0.692620  0.210540  1.0
  C  C245  1  0.692620  0.320720  0.210540  1.0
  C  C246  1  0.320720  0.776120  0.210540  1.0
  C  C247  1  0.820720  0.192620  0.710540  1.0
  C  C248  1  0.276120  0.820720  0.710540  1.0
  C  C249  1  0.192620  0.276120  0.710540  1.0
  C  C250  1  0.223880  0.307380  0.789460  1.0
  C  C251  1  0.307380  0.679280  0.789460  1.0
  C  C252  1  0.679280  0.223880  0.789460  1.0
  C  C253  1  0.138390  0.790590  0.280430  1.0
  C  C254  1  0.790590  0.138390  0.280430  1.0
  C  C255  1  0.790590  0.790590  0.280430  1.0
  C  C256  1  0.709410  0.709410  0.219570  1.0
  C  C257  1  0.709410  0.361610  0.219570  1.0
  C  C258  1  0.361610  0.709410  0.219570  1.0
  C  C259  1  0.861610  0.209410  0.719570  1.0
  C  C260  1  0.209410  0.861610  0.719570  1.0
  C  C261  1  0.209410  0.209410  0.719570  1.0
  C  C262  1  0.290590  0.290590  0.780430  1.0
  C  C263  1  0.290590  0.638390  0.780430  1.0
  C  C264  1  0.638390  0.290590  0.780430  1.0
  C  C265  1  0.099840  0.836840  0.261380  1.0
  C  C266  1  0.801940  0.099840  0.261380  1.0
  C  C267  1  0.836840  0.801940  0.261380  1.0
  C  C268  1  0.698060  0.663160  0.238620  1.0
  C  C269  1  0.663160  0.400160  0.238620  1.0
  C  C270  1  0.400160  0.698060  0.238620  1.0
  C  C271  1  0.900160  0.163160  0.738620  1.0
  C  C272  1  0.198060  0.900160  0.738620  1.0
  C  C273  1  0.163160  0.198060  0.738620  1.0
  C  C274  1  0.301940  0.336840  0.761380  1.0
  C  C275  1  0.336840  0.599840  0.761380  1.0
  C  C276  1  0.599840  0.301940  0.761380  1.0
  C  C277  1  0.035790  0.896090  0.264530  1.0
  C  C278  1  0.803590  0.035790  0.264530  1.0
  C  C279  1  0.896090  0.803590  0.264530  1.0
  C  C280  1  0.696410  0.603910  0.235470  1.0
  C  C281  1  0.603910  0.464210  0.235470  1.0
  C  C282  1  0.464210  0.696410  0.235470  1.0
  C  C283  1  0.964210  0.103910  0.735470  1.0
  C  C284  1  0.196410  0.964210  0.735470  1.0
  C  C285  1  0.103910  0.196410  0.735470  1.0
  C  C286  1  0.303590  0.396090  0.764530  1.0
  C  C287  1  0.396090  0.535790  0.764530  1.0
  C  C288  1  0.535790  0.303590  0.764530  1.0
  C  C289  1  0.999150  0.935850  0.246650  1.0
  C  C290  1  0.818350  0.999150  0.246650  1.0
  C  C291  1  0.935850  0.818350  0.246650  1.0
  C  C292  1  0.681650  0.564150  0.253350  1.0
  C  C293  1  0.564150  0.500850  0.253350  1.0
  C  C294  1  0.500850  0.681650  0.253350  1.0
  C  C295  1  0.000850  0.064150  0.753350  1.0
  C  C296  1  0.181650  0.000850  0.753350  1.0
  C  C297  1  0.064150  0.181650  0.753350  1.0
  C  C298  1  0.318350  0.435850  0.746650  1.0
  C  C299  1  0.435850  0.499150  0.746650  1.0
  C  C300  1  0.499150  0.318350  0.746650  1.0
  C  C301  1  0.025720  0.920220  0.225140  1.0
  C  C302  1  0.828920  0.025720  0.225140  1.0
  C  C303  1  0.920220  0.828920  0.225140  1.0
  C  C304  1  0.671080  0.579780  0.274860  1.0
  C  C305  1  0.579780  0.474280  0.274860  1.0
  C  C306  1  0.474280  0.671080  0.274860  1.0
  C  C307  1  0.974280  0.079780  0.774860  1.0
  C  C308  1  0.171080  0.974280  0.774860  1.0
  C  C309  1  0.079780  0.171080  0.774860  1.0
  C  C310  1  0.328920  0.420220  0.725140  1.0
  C  C311  1  0.420220  0.525720  0.725140  1.0
  C  C312  1  0.525720  0.328920  0.725140  1.0
  C  C313  1  0.090090  0.861090  0.221930  1.0
  C  C314  1  0.826890  0.090090  0.221930  1.0
  C  C315  1  0.861090  0.826890  0.221930  1.0
  C  C316  1  0.673110  0.638910  0.278070  1.0
  C  C317  1  0.638910  0.409910  0.278070  1.0
  C  C318  1  0.409910  0.673110  0.278070  1.0
  C  C319  1  0.909910  0.138910  0.778070  1.0
  C  C320  1  0.173110  0.909910  0.778070  1.0
  C  C321  1  0.138910  0.173110  0.778070  1.0
  C  C322  1  0.326890  0.361090  0.721930  1.0
  C  C323  1  0.361090  0.590090  0.721930  1.0
  C  C324  1  0.590090  0.326890  0.721930  1.0
  C  C325  1  0.126280  0.820180  0.239660  1.0
  C  C326  1  0.813880  0.126280  0.239660  1.0
  C  C327  1  0.820180  0.813880  0.239660  1.0
  C  C328  1  0.686120  0.679820  0.260340  1.0
  C  C329  1  0.679820  0.373720  0.260340  1.0
  C  C330  1  0.373720  0.686120  0.260340  1.0
  C  C331  1  0.873720  0.179820  0.760340  1.0
  C  C332  1  0.186120  0.873720  0.760340  1.0
  C  C333  1  0.179820  0.186120  0.760340  1.0
  C  C334  1  0.313880  0.320180  0.739660  1.0
  C  C335  1  0.320180  0.626280  0.739660  1.0
  C  C336  1  0.626280  0.313880  0.739660  1.0
  C  C337  1  0.991360  0.017160  0.199820  1.0
  C  C338  1  0.791660  0.991360  0.199820  1.0
  C  C339  1  0.017160  0.791660  0.199820  1.0
  C  C340  1  0.708340  0.482840  0.300180  1.0
  C  C341  1  0.482840  0.508640  0.300180  1.0
  C  C342  1  0.508640  0.708340  0.300180  1.0
  C  C343  1  0.008640  0.982840  0.800180  1.0
  C  C344  1  0.208340  0.008640  0.800180  1.0
  C  C345  1  0.982840  0.208340  0.800180  1.0
  C  C346  1  0.291660  0.517160  0.699820  1.0
  C  C347  1  0.517160  0.491360  0.699820  1.0
  C  C348  1  0.491360  0.291660  0.699820  1.0
  C  C349  1  0.955520  0.053220  0.180140  1.0
  C  C350  1  0.811120  0.955520  0.180140  1.0
  C  C351  1  0.053220  0.811120  0.180140  1.0
  C  C352  1  0.688880  0.446780  0.319860  1.0
  C  C353  1  0.446780  0.544480  0.319860  1.0
  C  C354  1  0.544480  0.688880  0.319860  1.0
  C  C355  1  0.044480  0.946780  0.819860  1.0
  C  C356  1  0.188880  0.044480  0.819860  1.0
  C  C357  1  0.946780  0.188880  0.819860  1.0
  C  C358  1  0.311120  0.553220  0.680140  1.0
  C  C359  1  0.553220  0.455520  0.680140  1.0
  C  C360  1  0.455520  0.311120  0.680140  1.0
  C  C361  1  0.952430  0.114330  0.169010  1.0
  C  C362  1  0.764230  0.952430  0.169010  1.0
  C  C363  1  0.114330  0.764230  0.169010  1.0
  C  C364  1  0.735770  0.385670  0.330990  1.0
  C  C365  1  0.385670  0.547570  0.330990  1.0
  C  C366  1  0.547570  0.735770  0.330990  1.0
  C  C367  1  0.047570  0.885670  0.830990  1.0
  C  C368  1  0.235770  0.047570  0.830990  1.0
  C  C369  1  0.885670  0.235770  0.830990  1.0
  C  C370  1  0.264230  0.614330  0.669010  1.0
  C  C371  1  0.614330  0.452430  0.669010  1.0
  C  C372  1  0.452430  0.264230  0.669010  1.0
  C  C373  1  0.917810  0.143710  0.150170  1.0
  C  C374  1  0.788310  0.917810  0.150170  1.0
  C  C375  1  0.143710  0.788310  0.150170  1.0
  C  C376  1  0.711690  0.356290  0.349830  1.0
  C  C377  1  0.356290  0.582190  0.349830  1.0
  C  C378  1  0.582190  0.711690  0.349830  1.0
  C  C379  1  0.082190  0.856290  0.849830  1.0
  C  C380  1  0.211690  0.082190  0.849830  1.0
  C  C381  1  0.856290  0.211690  0.849830  1.0
  C  C382  1  0.288310  0.643710  0.650170  1.0
  C  C383  1  0.643710  0.417810  0.650170  1.0
  C  C384  1  0.417810  0.288310  0.650170  1.0
  C  C385  1  0.884970  0.113670  0.143090  1.0
  C  C386  1  0.858270  0.884970  0.143090  1.0
  C  C387  1  0.113670  0.858270  0.143090  1.0
  C  C388  1  0.641730  0.386330  0.356910  1.0
  C  C389  1  0.386330  0.615030  0.356910  1.0
  C  C390  1  0.615030  0.641730  0.356910  1.0
  C  C391  1  0.115030  0.886330  0.856910  1.0
  C  C392  1  0.141730  0.115030  0.856910  1.0
  C  C393  1  0.886330  0.141730  0.856910  1.0
  C  C394  1  0.358270  0.613670  0.643090  1.0
  C  C395  1  0.613670  0.384970  0.643090  1.0
  C  C396  1  0.384970  0.358270  0.643090  1.0
  C  C397  1  0.888910  0.053610  0.154670  1.0
  C  C398  1  0.902810  0.888910  0.154670  1.0
  C  C399  1  0.053610  0.902810  0.154670  1.0
  C  C400  1  0.597190  0.446390  0.345330  1.0
  C  C401  1  0.446390  0.611090  0.345330  1.0
  C  C402  1  0.611090  0.597190  0.345330  1.0
  C  C403  1  0.111090  0.946390  0.845330  1.0
  C  C404  1  0.097190  0.111090  0.845330  1.0
  C  C405  1  0.946390  0.097190  0.845330  1.0
  C  C406  1  0.402810  0.553610  0.654670  1.0
  C  C407  1  0.553610  0.388910  0.654670  1.0
  C  C408  1  0.388910  0.402810  0.654670  1.0
  C  C409  1  0.387610  0.282210  0.400670  1.0
  C  C410  1  0.929510  0.387610  0.400670  1.0
  C  C411  1  0.282210  0.929510  0.400670  1.0
  C  C412  1  0.570490  0.217790  0.099330  1.0
  C  C413  1  0.217790  0.112390  0.099330  1.0
  C  C414  1  0.112390  0.570490  0.099330  1.0
  C  C415  1  0.612390  0.717790  0.599330  1.0
  C  C416  1  0.070490  0.612390  0.599330  1.0
  C  C417  1  0.717790  0.070490  0.599330  1.0
  C  C418  1  0.429510  0.782210  0.900670  1.0
  C  C419  1  0.782210  0.887610  0.900670  1.0
  C  C420  1  0.887610  0.429510  0.900670  1.0
  C  C421  1  0.425570  0.233070  0.386390  1.0
  C  C422  1  0.954970  0.425570  0.386390  1.0
  C  C423  1  0.233070  0.954970  0.386390  1.0
  C  C424  1  0.545030  0.266930  0.113610  1.0
  C  C425  1  0.266930  0.074430  0.113610  1.0
  C  C426  1  0.074430  0.545030  0.113610  1.0
  C  C427  1  0.574430  0.766930  0.613610  1.0
  C  C428  1  0.045030  0.574430  0.613610  1.0
  C  C429  1  0.766930  0.045030  0.613610  1.0
  C  C430  1  0.454970  0.733070  0.886390  1.0
  C  C431  1  0.733070  0.925570  0.886390  1.0
  C  C432  1  0.925570  0.454970  0.886390  1.0
  C  C433  1  0.395500  0.223700  0.370700  1.0
  C  C434  1  0.010100  0.395500  0.370700  1.0
  C  C435  1  0.223700  0.010100  0.370700  1.0
  C  C436  1  0.489900  0.276300  0.129300  1.0
  C  C437  1  0.276300  0.104500  0.129300  1.0
  C  C438  1  0.104500  0.489900  0.129300  1.0
  C  C439  1  0.604500  0.776300  0.629300  1.0
  C  C440  1  0.989900  0.604500  0.629300  1.0
  C  C441  1  0.776300  0.989900  0.629300  1.0
  C  C442  1  0.510100  0.723700  0.870700  1.0
  C  C443  1  0.723700  0.895500  0.870700  1.0
  C  C444  1  0.895500  0.510100  0.870700  1.0
  C  C445  1  0.324800  0.266200  0.368900  1.0
  C  C446  1  0.040100  0.324800  0.368900  1.0
  C  C447  1  0.266200  0.040100  0.368900  1.0
  C  C448  1  0.459900  0.233800  0.131100  1.0
  C  C449  1  0.233800  0.175200  0.131100  1.0
  C  C450  1  0.175200  0.459900  0.131100  1.0
  C  C451  1  0.675200  0.733800  0.631100  1.0
  C  C452  1  0.959900  0.675200  0.631100  1.0
  C  C453  1  0.733800  0.959900  0.631100  1.0
  C  C454  1  0.540100  0.766200  0.868900  1.0
  C  C455  1  0.766200  0.824800  0.868900  1.0
  C  C456  1  0.824800  0.540100  0.868900  1.0
  C  C457  1  0.286850  0.316950  0.383150  1.0
  C  C458  1  0.013050  0.286850  0.383150  1.0
  C  C459  1  0.316950  0.013050  0.383150  1.0
  C  C460  1  0.486950  0.183050  0.116850  1.0
  C  C461  1  0.183050  0.213150  0.116850  1.0
  C  C462  1  0.213150  0.486950  0.116850  1.0
  C  C463  1  0.713150  0.683050  0.616850  1.0
  C  C464  1  0.986950  0.713150  0.616850  1.0
  C  C465  1  0.683050  0.986950  0.616850  1.0
  C  C466  1  0.513050  0.816950  0.883150  1.0
  C  C467  1  0.816950  0.786850  0.883150  1.0
  C  C468  1  0.786850  0.513050  0.883150  1.0
  C  C469  1  0.212880  0.365280  0.383060  1.0
  C  C470  1  0.038780  0.212880  0.383060  1.0
  C  C471  1  0.365280  0.038780  0.383060  1.0
  C  C472  1  0.461220  0.134720  0.116940  1.0
  C  C473  1  0.134720  0.287120  0.116940  1.0
  C  C474  1  0.287120  0.461220  0.116940  1.0
  C  C475  1  0.787120  0.634720  0.616940  1.0
  C  C476  1  0.961220  0.787120  0.616940  1.0
  C  C477  1  0.634720  0.961220  0.616940  1.0
  C  C478  1  0.538780  0.865280  0.883060  1.0
  C  C479  1  0.865280  0.712880  0.883060  1.0
  C  C480  1  0.712880  0.538780  0.883060  1.0
  C  C481  1  0.116740  0.454340  0.399980  1.0
  C  C482  1  0.028940  0.116740  0.399980  1.0
  C  C483  1  0.454340  0.028940  0.399980  1.0
  C  C484  1  0.471060  0.045660  0.100020  1.0
  C  C485  1  0.045660  0.383260  0.100020  1.0
  C  C486  1  0.383260  0.471060  0.100020  1.0
  C  C487  1  0.883260  0.545660  0.600020  1.0
  C  C488  1  0.971060  0.883260  0.600020  1.0
  C  C489  1  0.545660  0.971060  0.600020  1.0
  C  C490  1  0.528940  0.954340  0.899980  1.0
  C  C491  1  0.954340  0.616740  0.899980  1.0
  C  C492  1  0.616740  0.528940  0.899980  1.0
  C  C493  1  0.071420  0.450420  0.418040  1.0
  C  C494  1  0.060120  0.071420  0.418040  1.0
  C  C495  1  0.450420  0.060120  0.418040  1.0
  C  C496  1  0.439880  0.049580  0.081960  1.0
  C  C497  1  0.049580  0.428580  0.081960  1.0
  C  C498  1  0.428580  0.439880  0.081960  1.0
  C  C499  1  0.928580  0.549580  0.581960  1.0
  C  C500  1  0.939880  0.928580  0.581960  1.0
  C  C501  1  0.549580  0.939880  0.581960  1.0
  C  C502  1  0.560120  0.950420  0.918040  1.0
  C  C503  1  0.950420  0.571420  0.918040  1.0
  C  C504  1  0.571420  0.560120  0.918040  1.0
  C  C505  1  0.002000  0.501100  0.418400  1.0
  C  C506  1  0.078500  0.002000  0.418400  1.0
  C  C507  1  0.501100  0.078500  0.418400  1.0
  C  C508  1  0.421500  0.998900  0.081600  1.0
  C  C509  1  0.998900  0.498000  0.081600  1.0
  C  C510  1  0.498000  0.421500  0.081600  1.0
  C  C511  1  0.998000  0.498900  0.581600  1.0
  C  C512  1  0.921500  0.998000  0.581600  1.0
  C  C513  1  0.498900  0.921500  0.581600  1.0
  C  C514  1  0.578500  0.001100  0.918400  1.0
  C  C515  1  0.001100  0.502000  0.918400  1.0
  C  C516  1  0.502000  0.578500  0.918400  1.0
  C  C517  1  0.977590  0.553490  0.401030  1.0
  C  C518  1  0.067890  0.977590  0.401030  1.0
  C  C519  1  0.553490  0.067890  0.401030  1.0
  C  C520  1  0.432110  0.946510  0.098970  1.0
  C  C521  1  0.946510  0.522410  0.098970  1.0
  C  C522  1  0.522410  0.432110  0.098970  1.0
  C  C523  1  0.022410  0.446510  0.598970  1.0
  C  C524  1  0.932110  0.022410  0.598970  1.0
  C  C525  1  0.446510  0.932110  0.598970  1.0
  C  C526  1  0.567890  0.053490  0.901030  1.0
  C  C527  1  0.053490  0.477590  0.901030  1.0
  C  C528  1  0.477590  0.567890  0.901030  1.0
  C  C529  1  0.023620  0.554620  0.382640  1.0
  C  C530  1  0.039120  0.023620  0.382640  1.0
  C  C531  1  0.554620  0.039120  0.382640  1.0
  C  C532  1  0.460880  0.945380  0.117360  1.0
  C  C533  1  0.945380  0.476380  0.117360  1.0
  C  C534  1  0.476380  0.460880  0.117360  1.0
  C  C535  1  0.976380  0.445380  0.617360  1.0
  C  C536  1  0.960880  0.976380  0.617360  1.0
  C  C537  1  0.445380  0.960880  0.617360  1.0
  C  C538  1  0.539120  0.054620  0.882640  1.0
  C  C539  1  0.054620  0.523620  0.882640  1.0
  C  C540  1  0.523620  0.539120  0.882640  1.0
  C  C541  1  0.092860  0.505960  0.382520  1.0
  C  C542  1  0.018660  0.092860  0.382520  1.0
  C  C543  1  0.505960  0.018660  0.382520  1.0
  C  C544  1  0.481340  0.994040  0.117480  1.0
  C  C545  1  0.994040  0.407140  0.117480  1.0
  C  C546  1  0.407140  0.481340  0.117480  1.0
  C  C547  1  0.907140  0.494040  0.617480  1.0
  C  C548  1  0.981340  0.907140  0.617480  1.0
  C  C549  1  0.494040  0.981340  0.617480  1.0
  C  C550  1  0.518660  0.005960  0.882520  1.0
  C  C551  1  0.005960  0.592860  0.882520  1.0
  C  C552  1  0.592860  0.518660  0.882520  1.0
  C  C553  1  0.902840  0.606240  0.400580  1.0
  C  C554  1  0.090340  0.902840  0.400580  1.0
  C  C555  1  0.606240  0.090340  0.400580  1.0
  C  C556  1  0.409660  0.893760  0.099420  1.0
  C  C557  1  0.893760  0.597160  0.099420  1.0
  C  C558  1  0.597160  0.409660  0.099420  1.0
  C  C559  1  0.097160  0.393760  0.599420  1.0
  C  C560  1  0.909660  0.097160  0.599420  1.0
  C  C561  1  0.393760  0.909660  0.599420  1.0
  C  C562  1  0.590340  0.106240  0.900580  1.0
  C  C563  1  0.106240  0.402840  0.900580  1.0
  C  C564  1  0.402840  0.590340  0.900580  1.0
  C  C565  1  0.870290  0.612590  0.382730  1.0
  C  C566  1  0.134390  0.870290  0.382730  1.0
  C  C567  1  0.612590  0.134390  0.382730  1.0
  C  C568  1  0.365610  0.887410  0.117270  1.0
  C  C569  1  0.887410  0.629710  0.117270  1.0
  C  C570  1  0.629710  0.365610  0.117270  1.0
  C  C571  1  0.129710  0.387410  0.617270  1.0
  C  C572  1  0.865610  0.129710  0.617270  1.0
  C  C573  1  0.387410  0.865610  0.617270  1.0
  C  C574  1  0.634390  0.112590  0.882730  1.0
  C  C575  1  0.112590  0.370290  0.882730  1.0
  C  C576  1  0.370290  0.634390  0.882730  1.0
  C  C577  1  0.799650  0.658350  0.381950  1.0
  C  C578  1  0.160050  0.799650  0.381950  1.0
  C  C579  1  0.658350  0.160050  0.381950  1.0
  C  C580  1  0.339950  0.841650  0.118050  1.0
  C  C581  1  0.841650  0.700350  0.118050  1.0
  C  C582  1  0.700350  0.339950  0.118050  1.0
  C  C583  1  0.200350  0.341650  0.618050  1.0
  C  C584  1  0.839950  0.200350  0.618050  1.0
  C  C585  1  0.341650  0.839950  0.618050  1.0
  C  C586  1  0.660050  0.158350  0.881950  1.0
  C  C587  1  0.158350  0.299650  0.881950  1.0
  C  C588  1  0.299650  0.660050  0.881950  1.0
  C  C589  1  0.761690  0.698590  0.398930  1.0
  C  C590  1  0.140790  0.761690  0.398930  1.0
  C  C591  1  0.698590  0.140790  0.398930  1.0
  C  C592  1  0.359210  0.801410  0.101070  1.0
  C  C593  1  0.801410  0.738310  0.101070  1.0
  C  C594  1  0.738310  0.359210  0.101070  1.0
  C  C595  1  0.238310  0.301410  0.601070  1.0
  C  C596  1  0.859210  0.238310  0.601070  1.0
  C  C597  1  0.301410  0.859210  0.601070  1.0
  C  C598  1  0.640790  0.198590  0.898930  1.0
  C  C599  1  0.198590  0.261690  0.898930  1.0
  C  C600  1  0.261690  0.640790  0.898930  1.0
  C  C601  1  0.792300  0.694300  0.417800  1.0
  C  C602  1  0.095600  0.792300  0.417800  1.0
  C  C603  1  0.694300  0.095600  0.417800  1.0
  C  C604  1  0.404400  0.805700  0.082200  1.0
  C  C605  1  0.805700  0.707700  0.082200  1.0
  C  C606  1  0.707700  0.404400  0.082200  1.0
  C  C607  1  0.207700  0.305700  0.582200  1.0
  C  C608  1  0.904400  0.207700  0.582200  1.0
  C  C609  1  0.305700  0.904400  0.582200  1.0
  C  C610  1  0.595600  0.194300  0.917800  1.0
  C  C611  1  0.194300  0.292300  0.917800  1.0
  C  C612  1  0.292300  0.595600  0.917800  1.0
  C  C613  1  0.865290  0.646890  0.418430  1.0
  C  C614  1  0.069390  0.865290  0.418430  1.0
  C  C615  1  0.646890  0.069390  0.418430  1.0
  C  C616  1  0.430610  0.853110  0.081570  1.0
  C  C617  1  0.853110  0.634710  0.081570  1.0
  C  C618  1  0.634710  0.430610  0.081570  1.0
  C  C619  1  0.134710  0.353110  0.581570  1.0
  C  C620  1  0.930610  0.134710  0.581570  1.0
  C  C621  1  0.353110  0.930610  0.581570  1.0
  C  C622  1  0.569390  0.146890  0.918430  1.0
  C  C623  1  0.146890  0.365290  0.918430  1.0
  C  C624  1  0.365290  0.569390  0.918430  1.0
  C  C625  1  0.896270  0.644770  0.436790  1.0
  C  C626  1  0.022170  0.896270  0.436790  1.0
  C  C627  1  0.644770  0.022170  0.436790  1.0
  C  C628  1  0.477830  0.855230  0.063210  1.0
  C  C629  1  0.855230  0.603730  0.063210  1.0
  C  C630  1  0.603730  0.477830  0.063210  1.0
  C  C631  1  0.103730  0.355230  0.563210  1.0
  C  C632  1  0.977830  0.103730  0.563210  1.0
  C  C633  1  0.355230  0.977830  0.563210  1.0
  C  C634  1  0.522170  0.144770  0.936790  1.0
  C  C635  1  0.144770  0.396270  0.936790  1.0
  C  C636  1  0.396270  0.522170  0.936790  1.0
  C  C637  1  0.859130  0.685730  0.453410  1.0
  C  C638  1  0.001730  0.859130  0.453410  1.0
  C  C639  1  0.685730  0.001730  0.453410  1.0
  C  C640  1  0.498270  0.814270  0.046590  1.0
  C  C641  1  0.814270  0.640870  0.046590  1.0
  C  C642  1  0.640870  0.498270  0.046590  1.0
  C  C643  1  0.140870  0.314270  0.546590  1.0
  C  C644  1  0.998270  0.140870  0.546590  1.0
  C  C645  1  0.314270  0.998270  0.546590  1.0
  C  C646  1  0.501730  0.185730  0.953410  1.0
  C  C647  1  0.185730  0.359130  0.953410  1.0
  C  C648  1  0.359130  0.501730  0.953410  1.0
  C  C649  1  0.788430  0.730930  0.453110  1.0
  C  C650  1  0.027530  0.788430  0.453110  1.0
  C  C651  1  0.730930  0.027530  0.453110  1.0
  C  C652  1  0.472470  0.769070  0.046890  1.0
  C  C653  1  0.769070  0.711570  0.046890  1.0
  C  C654  1  0.711570  0.472470  0.046890  1.0
  C  C655  1  0.211570  0.269070  0.546890  1.0
  C  C656  1  0.972470  0.211570  0.546890  1.0
  C  C657  1  0.269070  0.972470  0.546890  1.0
  C  C658  1  0.527530  0.230930  0.953110  1.0
  C  C659  1  0.230930  0.288430  0.953110  1.0
  C  C660  1  0.288430  0.527530  0.953110  1.0
  C  C661  1  0.754640  0.734940  0.435980  1.0
  C  C662  1  0.074440  0.754640  0.435980  1.0
  C  C663  1  0.734940  0.074440  0.435980  1.0
  C  C664  1  0.425560  0.765060  0.064020  1.0
  C  C665  1  0.765060  0.745360  0.064020  1.0
  C  C666  1  0.745360  0.425560  0.064020  1.0
  C  C667  1  0.245360  0.265060  0.564020  1.0
  C  C668  1  0.925560  0.245360  0.564020  1.0
  C  C669  1  0.265060  0.925560  0.564020  1.0
  C  C670  1  0.574440  0.234940  0.935980  1.0
  C  C671  1  0.234940  0.254640  0.935980  1.0
  C  C672  1  0.254640  0.574440  0.935980  1.0
  C  C673  1  0.678100  0.781200  0.436700  1.0
  C  C674  1  0.104000  0.678100  0.436700  1.0
  C  C675  1  0.781200  0.104000  0.436700  1.0
  C  C676  1  0.396000  0.718800  0.063300  1.0
  C  C677  1  0.718800  0.821900  0.063300  1.0
  C  C678  1  0.821900  0.396000  0.063300  1.0
  C  C679  1  0.321900  0.218800  0.563300  1.0
  C  C680  1  0.896000  0.321900  0.563300  1.0
  C  C681  1  0.218800  0.896000  0.563300  1.0
  C  C682  1  0.604000  0.281200  0.936700  1.0
  C  C683  1  0.281200  0.178100  0.936700  1.0
  C  C684  1  0.178100  0.604000  0.936700  1.0
  C  C685  1  0.650910  0.851010  0.429470  1.0
  C  C686  1  0.068610  0.650910  0.429470  1.0
  C  C687  1  0.851010  0.068610  0.429470  1.0
  C  C688  1  0.431390  0.648990  0.070530  1.0
  C  C689  1  0.648990  0.849090  0.070530  1.0
  C  C690  1  0.849090  0.431390  0.070530  1.0
  C  C691  1  0.349090  0.148990  0.570530  1.0
  C  C692  1  0.931390  0.349090  0.570530  1.0
  C  C693  1  0.148990  0.931390  0.570530  1.0
  C  C694  1  0.568610  0.351010  0.929470  1.0
  C  C695  1  0.351010  0.150910  0.929470  1.0
  C  C696  1  0.150910  0.568610  0.929470  1.0
  C  C697  1  0.579570  0.893770  0.430190  1.0
  C  C698  1  0.096470  0.579570  0.430190  1.0
  C  C699  1  0.893770  0.096470  0.430190  1.0
  C  C700  1  0.403530  0.606230  0.069810  1.0
  C  C701  1  0.606230  0.920430  0.069810  1.0
  C  C702  1  0.920430  0.403530  0.069810  1.0
  C  C703  1  0.420430  0.106230  0.569810  1.0
  C  C704  1  0.903530  0.420430  0.569810  1.0
  C  C705  1  0.106230  0.903530  0.569810  1.0
  C  C706  1  0.596470  0.393770  0.930190  1.0
  C  C707  1  0.393770  0.079570  0.930190  1.0
  C  C708  1  0.079570  0.596470  0.930190  1.0
  C  C709  1  0.535060  0.867360  0.437720  1.0
  C  C710  1  0.159860  0.535060  0.437720  1.0
  C  C711  1  0.867360  0.159860  0.437720  1.0
  C  C712  1  0.340140  0.632640  0.062280  1.0
  C  C713  1  0.632640  0.964940  0.062280  1.0
  C  C714  1  0.964940  0.340140  0.062280  1.0
  C  C715  1  0.464940  0.132640  0.562280  1.0
  C  C716  1  0.840140  0.464940  0.562280  1.0
  C  C717  1  0.132640  0.840140  0.562280  1.0
  C  C718  1  0.659860  0.367360  0.937720  1.0
  C  C719  1  0.367360  0.035060  0.937720  1.0
  C  C720  1  0.035060  0.659860  0.937720  1.0
  C  C721  1  0.561720  0.797120  0.444740  1.0
  C  C722  1  0.196420  0.561720  0.444740  1.0
  C  C723  1  0.797120  0.196420  0.444740  1.0
  C  C724  1  0.303580  0.702880  0.055260  1.0
  C  C725  1  0.702880  0.938280  0.055260  1.0
  C  C726  1  0.938280  0.303580  0.055260  1.0
  C  C727  1  0.438280  0.202880  0.555260  1.0
  C  C728  1  0.803580  0.438280  0.555260  1.0
  C  C729  1  0.202880  0.803580  0.555260  1.0
  C  C730  1  0.696420  0.297120  0.944740  1.0
  C  C731  1  0.297120  0.061720  0.944740  1.0
  C  C732  1  0.061720  0.696420  0.944740  1.0
  C  C733  1  0.632740  0.754440  0.444380  1.0
  C  C734  1  0.168440  0.632740  0.444380  1.0
  C  C735  1  0.754440  0.168440  0.444380  1.0
  C  C736  1  0.331560  0.745560  0.055620  1.0
  C  C737  1  0.745560  0.867260  0.055620  1.0
  C  C738  1  0.867260  0.331560  0.055620  1.0
  C  C739  1  0.367260  0.245560  0.555620  1.0
  C  C740  1  0.831560  0.367260  0.555620  1.0
  C  C741  1  0.245560  0.831560  0.555620  1.0
  C  C742  1  0.668440  0.254440  0.944380  1.0
  C  C743  1  0.254440  0.132740  0.944380  1.0
  C  C744  1  0.132740  0.668440  0.944380  1.0
  C  C745  1  0.431150  0.940850  0.456950  1.0
  C  C746  1  0.171050  0.431150  0.456950  1.0
  C  C747  1  0.940850  0.171050  0.456950  1.0
  C  C748  1  0.328950  0.559150  0.043050  1.0
  C  C749  1  0.559150  0.068850  0.043050  1.0
  C  C750  1  0.068850  0.328950  0.043050  1.0
  C  C751  1  0.568850  0.059150  0.543050  1.0
  C  C752  1  0.828950  0.568850  0.543050  1.0
  C  C753  1  0.059150  0.828950  0.543050  1.0
  C  C754  1  0.671050  0.440850  0.956950  1.0
  C  C755  1  0.440850  0.931150  0.956950  1.0
  C  C756  1  0.931150  0.671050  0.956950  1.0
  C  C757  1  0.356430  0.984430  0.457610  1.0
  C  C758  1  0.201530  0.356430  0.457610  1.0
  C  C759  1  0.984430  0.201530  0.457610  1.0
  C  C760  1  0.298470  0.515570  0.042390  1.0
  C  C761  1  0.515570  0.143570  0.042390  1.0
  C  C762  1  0.143570  0.298470  0.042390  1.0
  C  C763  1  0.643570  0.015570  0.542390  1.0
  C  C764  1  0.798470  0.643570  0.542390  1.0
  C  C765  1  0.015570  0.798470  0.542390  1.0
  C  C766  1  0.701530  0.484430  0.957610  1.0
  C  C767  1  0.484430  0.856430  0.957610  1.0
  C  C768  1  0.856430  0.701530  0.957610  1.0
  C  C769  1  0.315230  0.018730  0.475910  1.0
  C  C770  1  0.190130  0.315230  0.475910  1.0
  C  C771  1  0.018730  0.190130  0.475910  1.0
  C  C772  1  0.309870  0.481270  0.024090  1.0
  C  C773  1  0.481270  0.184770  0.024090  1.0
  C  C774  1  0.184770  0.309870  0.024090  1.0
  C  C775  1  0.684770  0.981270  0.524090  1.0
  C  C776  1  0.809870  0.684770  0.524090  1.0
  C  C777  1  0.981270  0.809870  0.524090  1.0
  C  C778  1  0.690130  0.518730  0.975910  1.0
  C  C779  1  0.518730  0.815230  0.975910  1.0
  C  C780  1  0.815230  0.690130  0.975910  1.0
  C  C781  1  0.244400  0.059300  0.475400  1.0
  C  C782  1  0.220900  0.244400  0.475400  1.0
  C  C783  1  0.059300  0.220900  0.475400  1.0
  C  C784  1  0.279100  0.440700  0.024600  1.0
  C  C785  1  0.440700  0.255600  0.024600  1.0
  C  C786  1  0.255600  0.279100  0.024600  1.0
  C  C787  1  0.755600  0.940700  0.524600  1.0
  C  C788  1  0.779100  0.755600  0.524600  1.0
  C  C789  1  0.940700  0.779100  0.524600  1.0
  C  C790  1  0.720900  0.559300  0.975400  1.0
  C  C791  1  0.559300  0.744400  0.975400  1.0
  C  C792  1  0.744400  0.720900  0.975400  1.0
  C  C793  1  0.215490  0.066390  0.456830  1.0
  C  C794  1  0.261290  0.215490  0.456830  1.0
  C  C795  1  0.066390  0.261290  0.456830  1.0
  C  C796  1  0.238710  0.433610  0.043170  1.0
  C  C797  1  0.433610  0.284510  0.043170  1.0
  C  C798  1  0.284510  0.238710  0.043170  1.0
  C  C799  1  0.784510  0.933610  0.543170  1.0
  C  C800  1  0.738710  0.784510  0.543170  1.0
  C  C801  1  0.933610  0.738710  0.543170  1.0
  C  C802  1  0.761290  0.566390  0.956830  1.0
  C  C803  1  0.566390  0.715490  0.956830  1.0
  C  C804  1  0.715490  0.761290  0.956830  1.0
  C  C805  1  0.256590  0.031790  0.439130  1.0
  C  C806  1  0.272490  0.256590  0.439130  1.0
  C  C807  1  0.031790  0.272490  0.439130  1.0
  C  C808  1  0.227510  0.468210  0.060870  1.0
  C  C809  1  0.468210  0.243410  0.060870  1.0
  C  C810  1  0.243410  0.227510  0.060870  1.0
  C  C811  1  0.743410  0.968210  0.560870  1.0
  C  C812  1  0.727510  0.743410  0.560870  1.0
  C  C813  1  0.968210  0.727510  0.560870  1.0
  C  C814  1  0.772490  0.531790  0.939130  1.0
  C  C815  1  0.531790  0.756590  0.939130  1.0
  C  C816  1  0.756590  0.772490  0.939130  1.0
  Fe  Fe817  1  0.936453  0.936453  0.190640  1
  Fe  Fe818  1  0.563547  0.563547  0.309360  1
  Fe  Fe819  1  0.063547  0.063547  0.809360  1
  Fe  Fe820  1  0.436453  0.436453  0.690640  1
  Fe  Fe821  1  0.259670  0.391980  0.416360  1.0
  Fe  Fe822  1  0.931990  0.259670  0.416360  1.0
  Fe  Fe823  1  0.391980  0.931990  0.416360  1.0
  Fe  Fe824  1  0.568010  0.108020  0.083640  1.0
  Fe  Fe825  1  0.108020  0.240330  0.083640  1.0
  Fe  Fe826  1  0.240330  0.568010  0.083640  1.0
  Fe  Fe827  1  0.740330  0.608020  0.583640  1.0
  Fe  Fe828  1  0.068010  0.740330  0.583640  1.0
  Fe  Fe829  1  0.608020  0.068010  0.583640  1.0
  Fe  Fe830  1  0.431990  0.891980  0.916360  1.0
  Fe  Fe831  1  0.891980  0.759670  0.916360  1.0
  Fe  Fe832  1  0.759670  0.431990  0.916360  1.0
  H  H833  1  0.324400  0.325200  0.463400  1.0
  H  H834  1  0.887000  0.324400  0.463400  1.0
  H  H835  1  0.325200  0.887000  0.463400  1.0
  H  H836  1  0.613000  0.174800  0.036600  1.0
  H  H837  1  0.174800  0.175600  0.036600  1.0
  H  H838  1  0.175600  0.613000  0.036600  1.0
  H  H839  1  0.675600  0.674800  0.536600  1.0
  H  H840  1  0.113000  0.675600  0.536600  1.0
  H  H841  1  0.674800  0.113000  0.536600  1.0
  H  H842  1  0.387000  0.825200  0.963400  1.0
  H  H843  1  0.825200  0.824400  0.963400  1.0
  H  H844  1  0.824400  0.387000  0.963400  1.0
  H  H845  1  0.394300  0.341300  0.483500  1.0
  H  H846  1  0.780900  0.394300  0.483500  1.0
  H  H847  1  0.341300  0.780900  0.483500  1.0
  H  H848  1  0.719100  0.158700  0.016500  1.0
  H  H849  1  0.158700  0.105700  0.016500  1.0
  H  H850  1  0.105700  0.719100  0.016500  1.0
  H  H851  1  0.605700  0.658700  0.516500  1.0
  H  H852  1  0.219100  0.605700  0.516500  1.0
  H  H853  1  0.658700  0.219100  0.516500  1.0
  H  H854  1  0.280900  0.841300  0.983500  1.0
  H  H855  1  0.841300  0.894300  0.983500  1.0
  H  H856  1  0.894300  0.280900  0.983500  1.0
  H  H857  1  0.435200  0.418900  0.467600  1.0
  H  H858  1  0.678300  0.435200  0.467600  1.0
  H  H859  1  0.418900  0.678300  0.467600  1.0
  H  H860  1  0.821700  0.081100  0.032400  1.0
  H  H861  1  0.081100  0.064800  0.032400  1.0
  H  H862  1  0.064800  0.821700  0.032400  1.0
  H  H863  1  0.564800  0.581100  0.532400  1.0
  H  H864  1  0.321700  0.564800  0.532400  1.0
  H  H865  1  0.581100  0.321700  0.532400  1.0
  H  H866  1  0.178300  0.918900  0.967600  1.0
  H  H867  1  0.918900  0.935200  0.967600  1.0
  H  H868  1  0.935200  0.178300  0.967600  1.0
  H  H869  1  0.406700  0.479000  0.432800  1.0
  H  H870  1  0.681500  0.406700  0.432800  1.0
  H  H871  1  0.479000  0.681500  0.432800  1.0
  H  H872  1  0.818500  0.021000  0.067200  1.0
  H  H873  1  0.021000  0.093300  0.067200  1.0
  H  H874  1  0.093300  0.818500  0.067200  1.0
  H  H875  1  0.593300  0.521000  0.567200  1.0
  H  H876  1  0.318500  0.593300  0.567200  1.0
  H  H877  1  0.521000  0.318500  0.567200  1.0
  H  H878  1  0.181500  0.979000  0.932800  1.0
  H  H879  1  0.979000  0.906700  0.932800  1.0
  H  H880  1  0.906700  0.181500  0.932800  1.0
  H  H881  1  0.333400  0.511600  0.399800  1.0
  H  H882  1  0.755200  0.333400  0.399800  1.0
  H  H883  1  0.511600  0.755200  0.399800  1.0
  H  H884  1  0.744800  0.988400  0.100200  1.0
  H  H885  1  0.988400  0.166600  0.100200  1.0
  H  H886  1  0.166600  0.744800  0.100200  1.0
  H  H887  1  0.666600  0.488400  0.600200  1.0
  H  H888  1  0.244800  0.666600  0.600200  1.0
  H  H889  1  0.488400  0.244800  0.600200  1.0
  H  H890  1  0.255200  0.011600  0.899800  1.0
  H  H891  1  0.011600  0.833400  0.899800  1.0
  H  H892  1  0.833400  0.255200  0.899800  1.0
  H  H893  1  0.298700  0.431300  0.358100  1.0
  H  H894  1  0.911900  0.298700  0.358100  1.0
  H  H895  1  0.431300  0.911900  0.358100  1.0
  H  H896  1  0.588100  0.068700  0.141900  1.0
  H  H897  1  0.068700  0.201300  0.141900  1.0
  H  H898  1  0.201300  0.588100  0.141900  1.0
  H  H899  1  0.701300  0.568700  0.641900  1.0
  H  H900  1  0.088100  0.701300  0.641900  1.0
  H  H901  1  0.568700  0.088100  0.641900  1.0
  H  H902  1  0.411900  0.931300  0.858100  1.0
  H  H903  1  0.931300  0.798700  0.858100  1.0
  H  H904  1  0.798700  0.411900  0.858100  1.0
  H  H905  1  0.251600  0.499200  0.326300  1.0
  H  H906  1  0.922900  0.251600  0.326300  1.0
  H  H907  1  0.499200  0.922900  0.326300  1.0
  H  H908  1  0.577100  0.000800  0.173700  1.0
  H  H909  1  0.000800  0.248400  0.173700  1.0
  H  H910  1  0.248400  0.577100  0.173700  1.0
  H  H911  1  0.748400  0.500800  0.673700  1.0
  H  H912  1  0.077100  0.748400  0.673700  1.0
  H  H913  1  0.500800  0.077100  0.673700  1.0
  H  H914  1  0.422900  0.999200  0.826300  1.0
  H  H915  1  0.999200  0.751600  0.826300  1.0
  H  H916  1  0.751600  0.422900  0.826300  1.0
  H  H917  1  0.140600  0.663900  0.361100  1.0
  H  H918  1  0.834400  0.140600  0.361100  1.0
  H  H919  1  0.663900  0.834400  0.361100  1.0
  H  H920  1  0.665600  0.836100  0.138900  1.0
  H  H921  1  0.836100  0.359400  0.138900  1.0
  H  H922  1  0.359400  0.665600  0.138900  1.0
  H  H923  1  0.859400  0.336100  0.638900  1.0
  H  H924  1  0.165600  0.859400  0.638900  1.0
  H  H925  1  0.336100  0.165600  0.638900  1.0
  H  H926  1  0.334400  0.163900  0.861100  1.0
  H  H927  1  0.163900  0.640600  0.861100  1.0
  H  H928  1  0.640600  0.334400  0.861100  1.0
  H  H929  1  0.185200  0.595800  0.393200  1.0
  H  H930  1  0.825800  0.185200  0.393200  1.0
  H  H931  1  0.595800  0.825800  0.393200  1.0
  H  H932  1  0.674200  0.904200  0.106800  1.0
  H  H933  1  0.904200  0.314800  0.106800  1.0
  H  H934  1  0.314800  0.674200  0.106800  1.0
  H  H935  1  0.814800  0.404200  0.606800  1.0
  H  H936  1  0.174200  0.814800  0.606800  1.0
  H  H937  1  0.404200  0.174200  0.606800  1.0
  H  H938  1  0.325800  0.095800  0.893200  1.0
  H  H939  1  0.095800  0.685200  0.893200  1.0
  H  H940  1  0.685200  0.325800  0.893200  1.0
  H  H941  1  0.110000  0.577800  0.316700  1.0
  H  H942  1  0.995500  0.110000  0.316700  1.0
  H  H943  1  0.577800  0.995500  0.316700  1.0
  H  H944  1  0.504500  0.922200  0.183300  1.0
  H  H945  1  0.922200  0.390000  0.183300  1.0
  H  H946  1  0.390000  0.504500  0.183300  1.0
  H  H947  1  0.890000  0.422200  0.683300  1.0
  H  H948  1  0.004500  0.890000  0.683300  1.0
  H  H949  1  0.422200  0.004500  0.683300  1.0
  H  H950  1  0.495500  0.077800  0.816700  1.0
  H  H951  1  0.077800  0.610000  0.816700  1.0
  H  H952  1  0.610000  0.495500  0.816700  1.0
  H  H953  1  0.060300  0.640100  0.284600  1.0
  H  H954  1  0.015000  0.060300  0.284600  1.0
  H  H955  1  0.640100  0.015000  0.284600  1.0
  H  H956  1  0.485000  0.859900  0.215400  1.0
  H  H957  1  0.859900  0.439700  0.215400  1.0
  H  H958  1  0.439700  0.485000  0.215400  1.0
  H  H959  1  0.939700  0.359900  0.715400  1.0
  H  H960  1  0.985000  0.939700  0.715400  1.0
  H  H961  1  0.359900  0.985000  0.715400  1.0
  H  H962  1  0.515000  0.140100  0.784600  1.0
  H  H963  1  0.140100  0.560300  0.784600  1.0
  H  H964  1  0.560300  0.515000  0.784600  1.0
  H  H965  1  0.071900  0.734600  0.267500  1.0
  H  H966  1  0.926000  0.071900  0.267500  1.0
  H  H967  1  0.734600  0.926000  0.267500  1.0
  H  H968  1  0.574000  0.765400  0.232500  1.0
  H  H969  1  0.765400  0.428100  0.232500  1.0
  H  H970  1  0.428100  0.574000  0.232500  1.0
  H  H971  1  0.928100  0.265400  0.732500  1.0
  H  H972  1  0.074000  0.928100  0.732500  1.0
  H  H973  1  0.265400  0.074000  0.732500  1.0
  H  H974  1  0.426000  0.234600  0.767500  1.0
  H  H975  1  0.234600  0.571900  0.767500  1.0
  H  H976  1  0.571900  0.426000  0.767500  1.0
  H  H977  1  0.223600  0.689700  0.332000  1.0
  H  H978  1  0.754700  0.223600  0.332000  1.0
  H  H979  1  0.689700  0.754700  0.332000  1.0
  H  H980  1  0.745300  0.810300  0.168000  1.0
  H  H981  1  0.810300  0.276400  0.168000  1.0
  H  H982  1  0.276400  0.745300  0.168000  1.0
  H  H983  1  0.776400  0.310300  0.668000  1.0
  H  H984  1  0.245300  0.776400  0.668000  1.0
  H  H985  1  0.310300  0.245300  0.668000  1.0
  H  H986  1  0.254700  0.189700  0.832000  1.0
  H  H987  1  0.189700  0.723600  0.832000  1.0
  H  H988  1  0.723600  0.254700  0.832000  1.0
  H  H989  1  0.235500  0.784100  0.315200  1.0
  H  H990  1  0.665200  0.235500  0.315200  1.0
  H  H991  1  0.784100  0.665200  0.315200  1.0
  H  H992  1  0.834800  0.715900  0.184800  1.0
  H  H993  1  0.715900  0.264500  0.184800  1.0
  H  H994  1  0.264500  0.834800  0.184800  1.0
  H  H995  1  0.764500  0.215900  0.684800  1.0
  H  H996  1  0.334800  0.764500  0.684800  1.0
  H  H997  1  0.215900  0.334800  0.684800  1.0
  H  H998  1  0.165200  0.284100  0.815200  1.0
  H  H999  1  0.284100  0.735500  0.815200  1.0
  H  H1000  1  0.735500  0.165200  0.815200  1.0
  H  H1001  1  0.187000  0.844700  0.282500  1.0
  H  H1002  1  0.685800  0.187000  0.282500  1.0
  H  H1003  1  0.844700  0.685800  0.282500  1.0
  H  H1004  1  0.814200  0.655300  0.217500  1.0
  H  H1005  1  0.655300  0.313000  0.217500  1.0
  H  H1006  1  0.313000  0.814200  0.217500  1.0
  H  H1007  1  0.813000  0.155300  0.717500  1.0
  H  H1008  1  0.314200  0.813000  0.717500  1.0
  H  H1009  1  0.155300  0.314200  0.717500  1.0
  H  H1010  1  0.185800  0.344700  0.782500  1.0
  H  H1011  1  0.344700  0.687000  0.782500  1.0
  H  H1012  1  0.687000  0.185800  0.782500  1.0
  H  H1013  1  0.017000  0.909200  0.279200  1.0
  H  H1014  1  0.794600  0.017000  0.279200  1.0
  H  H1015  1  0.909200  0.794600  0.279200  1.0
  H  H1016  1  0.705400  0.590800  0.220800  1.0
  H  H1017  1  0.590800  0.483000  0.220800  1.0
  H  H1018  1  0.483000  0.705400  0.220800  1.0
  H  H1019  1  0.983000  0.090800  0.720800  1.0
  H  H1020  1  0.205400  0.983000  0.720800  1.0
  H  H1021  1  0.090800  0.205400  0.720800  1.0
  H  H1022  1  0.294600  0.409200  0.779200  1.0
  H  H1023  1  0.409200  0.517000  0.779200  1.0
  H  H1024  1  0.517000  0.294600  0.779200  1.0
  H  H1025  1  0.954700  0.974900  0.249200  1.0
  H  H1026  1  0.821200  0.954700  0.249200  1.0
  H  H1027  1  0.974900  0.821200  0.249200  1.0
  H  H1028  1  0.678800  0.525100  0.250800  1.0
  H  H1029  1  0.525100  0.545300  0.250800  1.0
  H  H1030  1  0.545300  0.678800  0.250800  1.0
  H  H1031  1  0.045300  0.025100  0.750800  1.0
  H  H1032  1  0.178800  0.045300  0.750800  1.0
  H  H1033  1  0.025100  0.178800  0.750800  1.0
  H  H1034  1  0.321200  0.474900  0.749200  1.0
  H  H1035  1  0.474900  0.454700  0.749200  1.0
  H  H1036  1  0.454700  0.321200  0.749200  1.0
  H  H1037  1  0.109300  0.848900  0.207200  1.0
  H  H1038  1  0.834600  0.109300  0.207200  1.0
  H  H1039  1  0.848900  0.834600  0.207200  1.0
  H  H1040  1  0.665400  0.651100  0.292800  1.0
  H  H1041  1  0.651100  0.390700  0.292800  1.0
  H  H1042  1  0.390700  0.665400  0.292800  1.0
  H  H1043  1  0.890700  0.151100  0.792800  1.0
  H  H1044  1  0.165400  0.890700  0.792800  1.0
  H  H1045  1  0.151100  0.165400  0.792800  1.0
  H  H1046  1  0.334600  0.348900  0.707200  1.0
  H  H1047  1  0.348900  0.609300  0.707200  1.0
  H  H1048  1  0.609300  0.334600  0.707200  1.0
  H  H1049  1  0.169700  0.780100  0.237200  1.0
  H  H1050  1  0.813000  0.169700  0.237200  1.0
  H  H1051  1  0.780100  0.813000  0.237200  1.0
  H  H1052  1  0.687000  0.719900  0.262800  1.0
  H  H1053  1  0.719900  0.330300  0.262800  1.0
  H  H1054  1  0.330300  0.687000  0.262800  1.0
  H  H1055  1  0.830300  0.219900  0.762800  1.0
  H  H1056  1  0.187000  0.830300  0.762800  1.0
  H  H1057  1  0.219900  0.187000  0.762800  1.0
  H  H1058  1  0.313000  0.280100  0.737200  1.0
  H  H1059  1  0.280100  0.669700  0.737200  1.0
  H  H1060  1  0.669700  0.313000  0.737200  1.0
  H  H1061  1  0.013300  0.033900  0.206900  1.0
  H  H1062  1  0.745900  0.013300  0.206900  1.0
  H  H1063  1  0.033900  0.745900  0.206900  1.0
  H  H1064  1  0.754100  0.466100  0.293100  1.0
  H  H1065  1  0.466100  0.486700  0.293100  1.0
  H  H1066  1  0.486700  0.754100  0.293100  1.0
  H  H1067  1  0.986700  0.966100  0.793100  1.0
  H  H1068  1  0.254100  0.986700  0.793100  1.0
  H  H1069  1  0.966100  0.254100  0.793100  1.0
  H  H1070  1  0.245900  0.533900  0.706900  1.0
  H  H1071  1  0.533900  0.513300  0.706900  1.0
  H  H1072  1  0.513300  0.245900  0.706900  1.0
  H  H1073  1  0.973800  0.135700  0.174200  1.0
  H  H1074  1  0.716300  0.973800  0.174200  1.0
  H  H1075  1  0.135700  0.716300  0.174200  1.0
  H  H1076  1  0.783700  0.364300  0.325800  1.0
  H  H1077  1  0.364300  0.526200  0.325800  1.0
  H  H1078  1  0.526200  0.783700  0.325800  1.0
  H  H1079  1  0.026200  0.864300  0.825800  1.0
  H  H1080  1  0.283700  0.026200  0.825800  1.0
  H  H1081  1  0.864300  0.283700  0.825800  1.0
  H  H1082  1  0.216300  0.635700  0.674200  1.0
  H  H1083  1  0.635700  0.473800  0.674200  1.0
  H  H1084  1  0.473800  0.216300  0.674200  1.0
  H  H1085  1  0.916800  0.184500  0.142100  1.0
  H  H1086  1  0.756600  0.916800  0.142100  1.0
  H  H1087  1  0.184500  0.756600  0.142100  1.0
  H  H1088  1  0.743400  0.315500  0.357900  1.0
  H  H1089  1  0.315500  0.583200  0.357900  1.0
  H  H1090  1  0.583200  0.743400  0.357900  1.0
  H  H1091  1  0.083200  0.815500  0.857900  1.0
  H  H1092  1  0.243400  0.083200  0.857900  1.0
  H  H1093  1  0.815500  0.243400  0.857900  1.0
  H  H1094  1  0.256600  0.684500  0.642100  1.0
  H  H1095  1  0.684500  0.416800  0.642100  1.0
  H  H1096  1  0.416800  0.256600  0.642100  1.0
  H  H1097  1  0.860000  0.134200  0.130400  1.0
  H  H1098  1  0.875400  0.860000  0.130400  1.0
  H  H1099  1  0.134200  0.875400  0.130400  1.0
  H  H1100  1  0.624600  0.365800  0.369600  1.0
  H  H1101  1  0.365800  0.640000  0.369600  1.0
  H  H1102  1  0.640000  0.624600  0.369600  1.0
  H  H1103  1  0.140000  0.865800  0.869600  1.0
  H  H1104  1  0.124600  0.140000  0.869600  1.0
  H  H1105  1  0.865800  0.124600  0.869600  1.0
  H  H1106  1  0.375400  0.634200  0.630400  1.0
  H  H1107  1  0.634200  0.360000  0.630400  1.0
  H  H1108  1  0.360000  0.375400  0.630400  1.0
  H  H1109  1  0.866100  0.032800  0.149900  1.0
  H  H1110  1  0.951200  0.866100  0.149900  1.0
  H  H1111  1  0.032800  0.951200  0.149900  1.0
  H  H1112  1  0.548800  0.467200  0.350100  1.0
  H  H1113  1  0.467200  0.633900  0.350100  1.0
  H  H1114  1  0.633900  0.548800  0.350100  1.0
  H  H1115  1  0.133900  0.967200  0.850100  1.0
  H  H1116  1  0.048800  0.133900  0.850100  1.0
  H  H1117  1  0.967200  0.048800  0.850100  1.0
  H  H1118  1  0.451200  0.532800  0.649900  1.0
  H  H1119  1  0.532800  0.366100  0.649900  1.0
  H  H1120  1  0.366100  0.451200  0.649900  1.0
  H  H1121  1  0.408200  0.288400  0.411800  1.0
  H  H1122  1  0.891600  0.408200  0.411800  1.0
  H  H1123  1  0.288400  0.891600  0.411800  1.0
  H  H1124  1  0.608400  0.211600  0.088200  1.0
  H  H1125  1  0.211600  0.091800  0.088200  1.0
  H  H1126  1  0.091800  0.608400  0.088200  1.0
  H  H1127  1  0.591800  0.711600  0.588200  1.0
  H  H1128  1  0.108400  0.591800  0.588200  1.0
  H  H1129  1  0.711600  0.108400  0.588200  1.0
  H  H1130  1  0.391600  0.788400  0.911800  1.0
  H  H1131  1  0.788400  0.908200  0.911800  1.0
  H  H1132  1  0.908200  0.391600  0.911800  1.0
  H  H1133  1  0.474000  0.204600  0.387200  1.0
  H  H1134  1  0.934200  0.474000  0.387200  1.0
  H  H1135  1  0.204600  0.934200  0.387200  1.0
  H  H1136  1  0.565800  0.295400  0.112800  1.0
  H  H1137  1  0.295400  0.026000  0.112800  1.0
  H  H1138  1  0.026000  0.565800  0.112800  1.0
  H  H1139  1  0.526000  0.795400  0.612800  1.0
  H  H1140  1  0.065800  0.526000  0.612800  1.0
  H  H1141  1  0.795400  0.065800  0.612800  1.0
  H  H1142  1  0.434200  0.704600  0.887200  1.0
  H  H1143  1  0.704600  0.974000  0.887200  1.0
  H  H1144  1  0.974000  0.434200  0.887200  1.0
  H  H1145  1  0.422700  0.188400  0.361100  1.0
  H  H1146  1  0.027800  0.422700  0.361100  1.0
  H  H1147  1  0.188400  0.027800  0.361100  1.0
  H  H1148  1  0.472200  0.311600  0.138900  1.0
  H  H1149  1  0.311600  0.077300  0.138900  1.0
  H  H1150  1  0.077300  0.472200  0.138900  1.0
  H  H1151  1  0.577300  0.811600  0.638900  1.0
  H  H1152  1  0.972200  0.577300  0.638900  1.0
  H  H1153  1  0.811600  0.972200  0.638900  1.0
  H  H1154  1  0.527800  0.688400  0.861100  1.0
  H  H1155  1  0.688400  0.922700  0.861100  1.0
  H  H1156  1  0.922700  0.527800  0.861100  1.0
  H  H1157  1  0.303200  0.260400  0.358100  1.0
  H  H1158  1  0.078300  0.303200  0.358100  1.0
  H  H1159  1  0.260400  0.078300  0.358100  1.0
  H  H1160  1  0.421700  0.239600  0.141900  1.0
  H  H1161  1  0.239600  0.196800  0.141900  1.0
  H  H1162  1  0.196800  0.421700  0.141900  1.0
  H  H1163  1  0.696800  0.739600  0.641900  1.0
  H  H1164  1  0.921700  0.696800  0.641900  1.0
  H  H1165  1  0.739600  0.921700  0.641900  1.0
  H  H1166  1  0.578300  0.760400  0.858100  1.0
  H  H1167  1  0.760400  0.803200  0.858100  1.0
  H  H1168  1  0.803200  0.578300  0.858100  1.0
  H  H1169  1  0.185500  0.367000  0.372500  1.0
  H  H1170  1  0.075000  0.185500  0.372500  1.0
  H  H1171  1  0.367000  0.075000  0.372500  1.0
  H  H1172  1  0.425000  0.133000  0.127500  1.0
  H  H1173  1  0.133000  0.314500  0.127500  1.0
  H  H1174  1  0.314500  0.425000  0.127500  1.0
  H  H1175  1  0.814500  0.633000  0.627500  1.0
  H  H1176  1  0.925000  0.814500  0.627500  1.0
  H  H1177  1  0.633000  0.925000  0.627500  1.0
  H  H1178  1  0.575000  0.867000  0.872500  1.0
  H  H1179  1  0.867000  0.685500  0.872500  1.0
  H  H1180  1  0.685500  0.575000  0.872500  1.0
  H  H1181  1  0.087300  0.414100  0.429800  1.0
  H  H1182  1  0.068800  0.087300  0.429800  1.0
  H  H1183  1  0.414100  0.068800  0.429800  1.0
  H  H1184  1  0.431200  0.085900  0.070200  1.0
  H  H1185  1  0.085900  0.412700  0.070200  1.0
  H  H1186  1  0.412700  0.431200  0.070200  1.0
  H  H1187  1  0.912700  0.585900  0.570200  1.0
  H  H1188  1  0.931200  0.912700  0.570200  1.0
  H  H1189  1  0.585900  0.931200  0.570200  1.0
  H  H1190  1  0.568800  0.914100  0.929800  1.0
  H  H1191  1  0.914100  0.587300  0.929800  1.0
  H  H1192  1  0.587300  0.568800  0.929800  1.0
  H  H1193  1  0.970400  0.499800  0.431000  1.0
  H  H1194  1  0.098800  0.970400  0.431000  1.0
  H  H1195  1  0.499800  0.098800  0.431000  1.0
  H  H1196  1  0.401200  0.000200  0.069000  1.0
  H  H1197  1  0.000200  0.529600  0.069000  1.0
  H  H1198  1  0.529600  0.401200  0.069000  1.0
  H  H1199  1  0.029600  0.500200  0.569000  1.0
  H  H1200  1  0.901200  0.029600  0.569000  1.0
  H  H1201  1  0.500200  0.901200  0.569000  1.0
  H  H1202  1  0.598800  0.999800  0.931000  1.0
  H  H1203  1  0.999800  0.470400  0.931000  1.0
  H  H1204  1  0.470400  0.598800  0.931000  1.0
  H  H1205  1  0.007500  0.588600  0.370400  1.0
  H  H1206  1  0.033500  0.007500  0.370400  1.0
  H  H1207  1  0.588600  0.033500  0.370400  1.0
  H  H1208  1  0.466500  0.911400  0.129600  1.0
  H  H1209  1  0.911400  0.492500  0.129600  1.0
  H  H1210  1  0.492500  0.466500  0.129600  1.0
  H  H1211  1  0.992500  0.411400  0.629600  1.0
  H  H1212  1  0.966500  0.992500  0.629600  1.0
  H  H1213  1  0.411400  0.966500  0.629600  1.0
  H  H1214  1  0.533500  0.088600  0.870400  1.0
  H  H1215  1  0.088600  0.507500  0.870400  1.0
  H  H1216  1  0.507500  0.533500  0.870400  1.0
  H  H1217  1  0.124700  0.507700  0.370400  1.0
  H  H1218  1  0.997200  0.124700  0.370400  1.0
  H  H1219  1  0.507700  0.997200  0.370400  1.0
  H  H1220  1  0.502800  0.992300  0.129600  1.0
  H  H1221  1  0.992300  0.375300  0.129600  1.0
  H  H1222  1  0.375300  0.502800  0.129600  1.0
  H  H1223  1  0.875300  0.492300  0.629600  1.0
  H  H1224  1  0.002800  0.875300  0.629600  1.0
  H  H1225  1  0.492300  0.002800  0.629600  1.0
  H  H1226  1  0.497200  0.007700  0.870400  1.0
  H  H1227  1  0.007700  0.624700  0.870400  1.0
  H  H1228  1  0.624700  0.497200  0.870400  1.0
  H  H1229  1  0.896300  0.585400  0.370700  1.0
  H  H1230  1  0.147600  0.896300  0.370700  1.0
  H  H1231  1  0.585400  0.147600  0.370700  1.0
  H  H1232  1  0.352400  0.914600  0.129300  1.0
  H  H1233  1  0.914600  0.603700  0.129300  1.0
  H  H1234  1  0.603700  0.352400  0.129300  1.0
  H  H1235  1  0.103700  0.414600  0.629300  1.0
  H  H1236  1  0.852400  0.103700  0.629300  1.0
  H  H1237  1  0.414600  0.852400  0.629300  1.0
  H  H1238  1  0.647600  0.085400  0.870700  1.0
  H  H1239  1  0.085400  0.396300  0.870700  1.0
  H  H1240  1  0.396300  0.647600  0.870700  1.0
  H  H1241  1  0.777800  0.661800  0.369500  1.0
  H  H1242  1  0.190900  0.777800  0.369500  1.0
  H  H1243  1  0.661800  0.190900  0.369500  1.0
  H  H1244  1  0.309100  0.838200  0.130500  1.0
  H  H1245  1  0.838200  0.722200  0.130500  1.0
  H  H1246  1  0.722200  0.309100  0.130500  1.0
  H  H1247  1  0.222200  0.338200  0.630500  1.0
  H  H1248  1  0.809100  0.222200  0.630500  1.0
  H  H1249  1  0.338200  0.809100  0.630500  1.0
  H  H1250  1  0.690900  0.161800  0.869500  1.0
  H  H1251  1  0.161800  0.277800  0.869500  1.0
  H  H1252  1  0.277800  0.690900  0.869500  1.0
  H  H1253  1  0.713800  0.730000  0.398000  1.0
  H  H1254  1  0.158200  0.713800  0.398000  1.0
  H  H1255  1  0.730000  0.158200  0.398000  1.0
  H  H1256  1  0.341800  0.770000  0.102000  1.0
  H  H1257  1  0.770000  0.786200  0.102000  1.0
  H  H1258  1  0.786200  0.341800  0.102000  1.0
  H  H1259  1  0.286200  0.270000  0.602000  1.0
  H  H1260  1  0.841800  0.286200  0.602000  1.0
  H  H1261  1  0.270000  0.841800  0.602000  1.0
  H  H1262  1  0.658200  0.230000  0.898000  1.0
  H  H1263  1  0.230000  0.213800  0.898000  1.0
  H  H1264  1  0.213800  0.658200  0.898000  1.0
  H  H1265  1  0.944400  0.613900  0.437600  1.0
  H  H1266  1  0.004100  0.944400  0.437600  1.0
  H  H1267  1  0.613900  0.004100  0.437600  1.0
  H  H1268  1  0.495900  0.886100  0.062400  1.0
  H  H1269  1  0.886100  0.555600  0.062400  1.0
  H  H1270  1  0.555600  0.495900  0.062400  1.0
  H  H1271  1  0.055600  0.386100  0.562400  1.0
  H  H1272  1  0.995900  0.055600  0.562400  1.0
  H  H1273  1  0.386100  0.995900  0.562400  1.0
  H  H1274  1  0.504100  0.113900  0.937600  1.0
  H  H1275  1  0.113900  0.444400  0.937600  1.0
  H  H1276  1  0.444400  0.504100  0.937600  1.0
  H  H1277  1  0.881800  0.683400  0.465500  1.0
  H  H1278  1  0.969300  0.881800  0.465500  1.0
  H  H1279  1  0.683400  0.969300  0.465500  1.0
  H  H1280  1  0.530700  0.816600  0.034500  1.0
  H  H1281  1  0.816600  0.618200  0.034500  1.0
  H  H1282  1  0.618200  0.530700  0.034500  1.0
  H  H1283  1  0.118200  0.316600  0.534500  1.0
  H  H1284  1  0.030700  0.118200  0.534500  1.0
  H  H1285  1  0.316600  0.030700  0.534500  1.0
  H  H1286  1  0.469300  0.183400  0.965500  1.0
  H  H1287  1  0.183400  0.381800  0.965500  1.0
  H  H1288  1  0.381800  0.469300  0.965500  1.0
  H  H1289  1  0.763400  0.759200  0.464900  1.0
  H  H1290  1  0.012500  0.763400  0.464900  1.0
  H  H1291  1  0.759200  0.012500  0.464900  1.0
  H  H1292  1  0.487500  0.740800  0.035100  1.0
  H  H1293  1  0.740800  0.736600  0.035100  1.0
  H  H1294  1  0.736600  0.487500  0.035100  1.0
  H  H1295  1  0.236600  0.240800  0.535100  1.0
  H  H1296  1  0.987500  0.236600  0.535100  1.0
  H  H1297  1  0.240800  0.987500  0.535100  1.0
  H  H1298  1  0.512500  0.259200  0.964900  1.0
  H  H1299  1  0.259200  0.263400  0.964900  1.0
  H  H1300  1  0.263400  0.512500  0.964900  1.0
  H  H1301  1  0.681100  0.869900  0.424100  1.0
  H  H1302  1  0.024900  0.681100  0.424100  1.0
  H  H1303  1  0.869900  0.024900  0.424100  1.0
  H  H1304  1  0.475100  0.630100  0.075900  1.0
  H  H1305  1  0.630100  0.818900  0.075900  1.0
  H  H1306  1  0.818900  0.475100  0.075900  1.0
  H  H1307  1  0.318900  0.130100  0.575900  1.0
  H  H1308  1  0.975100  0.318900  0.575900  1.0
  H  H1309  1  0.130100  0.975100  0.575900  1.0
  H  H1310  1  0.524900  0.369900  0.924100  1.0
  H  H1311  1  0.369900  0.181100  0.924100  1.0
  H  H1312  1  0.181100  0.524900  0.924100  1.0
  H  H1313  1  0.561400  0.941900  0.425300  1.0
  H  H1314  1  0.071400  0.561400  0.425300  1.0
  H  H1315  1  0.941900  0.071400  0.425300  1.0
  H  H1316  1  0.428600  0.558100  0.074700  1.0
  H  H1317  1  0.558100  0.938600  0.074700  1.0
  H  H1318  1  0.938600  0.428600  0.074700  1.0
  H  H1319  1  0.438600  0.058100  0.574700  1.0
  H  H1320  1  0.928600  0.438600  0.574700  1.0
  H  H1321  1  0.058100  0.928600  0.574700  1.0
  H  H1322  1  0.571400  0.441900  0.925300  1.0
  H  H1323  1  0.441900  0.061400  0.925300  1.0
  H  H1324  1  0.061400  0.571400  0.925300  1.0
  H  H1325  1  0.531300  0.778200  0.449900  1.0
  H  H1326  1  0.240600  0.531300  0.449900  1.0
  H  H1327  1  0.778200  0.240600  0.449900  1.0
  H  H1328  1  0.259400  0.721800  0.050100  1.0
  H  H1329  1  0.721800  0.968700  0.050100  1.0
  H  H1330  1  0.968700  0.259400  0.050100  1.0
  H  H1331  1  0.468700  0.221800  0.550100  1.0
  H  H1332  1  0.759400  0.468700  0.550100  1.0
  H  H1333  1  0.221800  0.759400  0.550100  1.0
  H  H1334  1  0.740600  0.278200  0.949900  1.0
  H  H1335  1  0.278200  0.031300  0.949900  1.0
  H  H1336  1  0.031300  0.740600  0.949900  1.0
  H  H1337  1  0.650700  0.706600  0.449300  1.0
  H  H1338  1  0.193400  0.650700  0.449300  1.0
  H  H1339  1  0.706600  0.193400  0.449300  1.0
  H  H1340  1  0.306600  0.793400  0.050700  1.0
  H  H1341  1  0.793400  0.849300  0.050700  1.0
  H  H1342  1  0.849300  0.306600  0.050700  1.0
  H  H1343  1  0.349300  0.293400  0.550700  1.0
  H  H1344  1  0.806600  0.349300  0.550700  1.0
  H  H1345  1  0.293400  0.806600  0.550700  1.0
  H  H1346  1  0.693400  0.206600  0.949300  1.0
  H  H1347  1  0.206600  0.150700  0.949300  1.0
  H  H1348  1  0.150700  0.693400  0.949300  1.0
  H  H1349  1  0.455300  0.933500  0.469100  1.0
  H  H1350  1  0.142100  0.455300  0.469100  1.0
  H  H1351  1  0.933500  0.142100  0.469100  1.0
  H  H1352  1  0.357900  0.566500  0.030900  1.0
  H  H1353  1  0.566500  0.044700  0.030900  1.0
  H  H1354  1  0.044700  0.357900  0.030900  1.0
  H  H1355  1  0.544700  0.066500  0.530900  1.0
  H  H1356  1  0.857900  0.544700  0.530900  1.0
  H  H1357  1  0.066500  0.857900  0.530900  1.0
  H  H1358  1  0.642100  0.433500  0.969100  1.0
  H  H1359  1  0.433500  0.955300  0.969100  1.0
  H  H1360  1  0.955300  0.642100  0.969100  1.0
  H  H1361  1  0.335900  0.014200  0.488600  1.0
  H  H1362  1  0.161300  0.335900  0.488600  1.0
  H  H1363  1  0.014200  0.161300  0.488600  1.0
  H  H1364  1  0.338700  0.485800  0.011400  1.0
  H  H1365  1  0.485800  0.164100  0.011400  1.0
  H  H1366  1  0.164100  0.338700  0.011400  1.0
  H  H1367  1  0.664100  0.985800  0.511400  1.0
  H  H1368  1  0.838700  0.664100  0.511400  1.0
  H  H1369  1  0.985800  0.838700  0.511400  1.0
  H  H1370  1  0.661300  0.514200  0.988600  1.0
  H  H1371  1  0.514200  0.835900  0.988600  1.0
  H  H1372  1  0.835900  0.661300  0.988600  1.0
  H  H1373  1  0.216000  0.082100  0.488000  1.0
  H  H1374  1  0.213900  0.216000  0.488000  1.0
  H  H1375  1  0.082100  0.213900  0.488000  1.0
  H  H1376  1  0.286100  0.417900  0.012000  1.0
  H  H1377  1  0.417900  0.284000  0.012000  1.0
  H  H1378  1  0.284000  0.286100  0.012000  1.0
  H  H1379  1  0.784000  0.917900  0.512000  1.0
  H  H1380  1  0.786100  0.784000  0.512000  1.0
  H  H1381  1  0.917900  0.786100  0.512000  1.0
  H  H1382  1  0.713900  0.582100  0.988000  1.0
  H  H1383  1  0.582100  0.716000  0.988000  1.0
  H  H1384  1  0.716000  0.713900  0.988000  1.0
  H  H1385  1  0.167000  0.095300  0.456200  1.0
  H  H1386  1  0.281500  0.167000  0.456200  1.0
  H  H1387  1  0.095300  0.281500  0.456200  1.0
  H  H1388  1  0.218500  0.404700  0.043800  1.0
  H  H1389  1  0.404700  0.333000  0.043800  1.0
  H  H1390  1  0.333000  0.218500  0.043800  1.0
  H  H1391  1  0.833000  0.904700  0.543800  1.0
  H  H1392  1  0.718500  0.833000  0.543800  1.0
  H  H1393  1  0.904700  0.718500  0.543800  1.0
  H  H1394  1  0.781500  0.595300  0.956200  1.0
  H  H1395  1  0.595300  0.667000  0.956200  1.0
  H  H1396  1  0.667000  0.781500  0.956200  1.0
  H  H1397  1  0.236000  0.035600  0.426500  1.0
  H  H1398  1  0.301900  0.236000  0.426500  1.0
  H  H1399  1  0.035600  0.301900  0.426500  1.0
  H  H1400  1  0.198100  0.464400  0.073500  1.0
  H  H1401  1  0.464400  0.264000  0.073500  1.0
  H  H1402  1  0.264000  0.198100  0.073500  1.0
  H  H1403  1  0.764000  0.964400  0.573500  1.0
  H  H1404  1  0.698100  0.764000  0.573500  1.0
  H  H1405  1  0.964400  0.698100  0.573500  1.0
  H  H1406  1  0.801900  0.535600  0.926500  1.0
  H  H1407  1  0.535600  0.736000  0.926500  1.0
  H  H1408  1  0.736000  0.801900  0.926500  1.0
  N  N1409  1  0.326030  0.391230  0.437210  1.0
  N  N1410  1  0.845530  0.326030  0.437210  1.0
  N  N1411  1  0.391230  0.845530  0.437210  1.0
  N  N1412  1  0.654470  0.108770  0.062790  1.0
  N  N1413  1  0.108770  0.173970  0.062790  1.0
  N  N1414  1  0.173970  0.654470  0.062790  1.0
  N  N1415  1  0.673970  0.608770  0.562790  1.0
  N  N1416  1  0.154470  0.673970  0.562790  1.0
  N  N1417  1  0.608770  0.154470  0.562790  1.0
  N  N1418  1  0.345530  0.891230  0.937210  1.0
  N  N1419  1  0.891230  0.826030  0.937210  1.0
  N  N1420  1  0.826030  0.345530  0.937210  1.0
  N  N1421  1  0.279560  0.463560  0.398720  1.0
  N  N1422  1  0.858160  0.279560  0.398720  1.0
  N  N1423  1  0.463560  0.858160  0.398720  1.0
  N  N1424  1  0.641840  0.036440  0.101280  1.0
  N  N1425  1  0.036440  0.220440  0.101280  1.0
  N  N1426  1  0.220440  0.641840  0.101280  1.0
  N  N1427  1  0.720440  0.536440  0.601280  1.0
  N  N1428  1  0.141840  0.720440  0.601280  1.0
  N  N1429  1  0.536440  0.141840  0.601280  1.0
  N  N1430  1  0.358160  0.963560  0.898720  1.0
  N  N1431  1  0.963560  0.779560  0.898720  1.0
  N  N1432  1  0.779560  0.358160  0.898720  1.0
  N  N1433  1  0.989750  0.958850  0.206450  1.0
  N  N1434  1  0.844950  0.989750  0.206450  1.0
  N  N1435  1  0.958850  0.844950  0.206450  1.0
  N  N1436  1  0.655050  0.541150  0.293550  1.0
  N  N1437  1  0.541150  0.510250  0.293550  1.0
  N  N1438  1  0.510250  0.655050  0.293550  1.0
  N  N1439  1  0.010250  0.041150  0.793550  1.0
  N  N1440  1  0.155050  0.010250  0.793550  1.0
  N  N1441  1  0.041150  0.155050  0.793550  1.0
  N  N1442  1  0.344950  0.458850  0.706450  1.0
  N  N1443  1  0.458850  0.489750  0.706450  1.0
  N  N1444  1  0.489750  0.344950  0.706450  1.0
  N  N1445  1  0.925020  0.023220  0.172640  1.0
  N  N1446  1  0.879120  0.925020  0.172640  1.0
  N  N1447  1  0.023220  0.879120  0.172640  1.0
  N  N1448  1  0.620880  0.476780  0.327360  1.0
  N  N1449  1  0.476780  0.574980  0.327360  1.0
  N  N1450  1  0.574980  0.620880  0.327360  1.0
  N  N1451  1  0.074980  0.976780  0.827360  1.0
  N  N1452  1  0.120880  0.074980  0.827360  1.0
  N  N1453  1  0.976780  0.120880  0.827360  1.0
  N  N1454  1  0.379120  0.523220  0.672640  1.0
  N  N1455  1  0.523220  0.425020  0.672640  1.0
  N  N1456  1  0.425020  0.379120  0.672640  1.0
  N  N1457  1  0.319540  0.321740  0.398480  1.0
  N  N1458  1  0.960240  0.319540  0.398480  1.0
  N  N1459  1  0.321740  0.960240  0.398480  1.0
  N  N1460  1  0.539760  0.178260  0.101520  1.0
  N  N1461  1  0.178260  0.180460  0.101520  1.0
  N  N1462  1  0.180460  0.539760  0.101520  1.0
  N  N1463  1  0.680460  0.678260  0.601520  1.0
  N  N1464  1  0.039760  0.680460  0.601520  1.0
  N  N1465  1  0.678260  0.039760  0.601520  1.0
  N  N1466  1  0.460240  0.821740  0.898480  1.0
  N  N1467  1  0.821740  0.819540  0.898480  1.0
  N  N1468  1  0.819540  0.460240  0.898480  1.0
  N  N1469  1  0.188410  0.406210  0.398870  1.0
  N  N1470  1  0.006510  0.188410  0.398870  1.0
  N  N1471  1  0.406210  0.006510  0.398870  1.0
  N  N1472  1  0.493490  0.093790  0.101130  1.0
  N  N1473  1  0.093790  0.311590  0.101130  1.0
  N  N1474  1  0.311590  0.493490  0.101130  1.0
  N  N1475  1  0.811590  0.593790  0.601130  1.0
  N  N1476  1  0.993490  0.811590  0.601130  1.0
  N  N1477  1  0.593790  0.993490  0.601130  1.0
  N  N1478  1  0.506510  0.906210  0.898870  1.0
  N  N1479  1  0.906210  0.688410  0.898870  1.0
  N  N1480  1  0.688410  0.506510  0.898870  1.0
  N  N1481  1  0.462670  0.913070  0.439190  1.0
  N  N1482  1  0.185070  0.462670  0.439190  1.0
  N  N1483  1  0.913070  0.185070  0.439190  1.0
  N  N1484  1  0.314930  0.586930  0.060810  1.0
  N  N1485  1  0.586930  0.037330  0.060810  1.0
  N  N1486  1  0.037330  0.314930  0.060810  1.0
  N  N1487  1  0.537330  0.086930  0.560810  1.0
  N  N1488  1  0.814930  0.537330  0.560810  1.0
  N  N1489  1  0.086930  0.814930  0.560810  1.0
  N  N1490  1  0.685070  0.413070  0.939190  1.0
  N  N1491  1  0.413070  0.962670  0.939190  1.0
  N  N1492  1  0.962670  0.685070  0.939190  1.0
  N  N1493  1  0.326000  0.992200  0.439400  1.0
  N  N1494  1  0.242400  0.326000  0.439400  1.0
  N  N1495  1  0.992200  0.242400  0.439400  1.0
  N  N1496  1  0.257600  0.507800  0.060600  1.0
  N  N1497  1  0.507800  0.174000  0.060600  1.0
  N  N1498  1  0.174000  0.257600  0.060600  1.0
  N  N1499  1  0.674000  0.007800  0.560600  1.0
  N  N1500  1  0.757600  0.674000  0.560600  1.0
  N  N1501  1  0.007800  0.757600  0.560600  1.0
  N  N1502  1  0.742400  0.492200  0.939400  1.0
  N  N1503  1  0.492200  0.826000  0.939400  1.0
  N  N1504  1  0.826000  0.742400  0.939400  1.0
  O  O1505  1  0.485610  0.356210  0.358970  1
  O  O1506  1  0.799210  0.485610  0.358970  1
  O  O1507  1  0.356210  0.799210  0.358970  1
  O  O1508  1  0.700790  0.143790  0.141030  1
  O  O1509  1  0.143790  0.014390  0.141030  1
  O  O1510  1  0.014390  0.700790  0.141030  1
  O  O1511  1  0.514390  0.643790  0.641030  1
  O  O1512  1  0.200790  0.514390  0.641030  1
  O  O1513  1  0.643790  0.200790  0.641030  1
  O  O1514  1  0.299210  0.856210  0.858970  1
  O  O1515  1  0.856210  0.985610  0.858970  1
  O  O1516  1  0.985610  0.299210  0.858970  1
  O  O1517  1  0.526400  0.263400  0.333800  1
  O  O1518  1  0.876400  0.526400  0.333800  1
  O  O1519  1  0.263400  0.876400  0.333800  1
  O  O1520  1  0.623600  0.236600  0.166200  1
  O  O1521  1  0.236600  0.973600  0.166200  1
  O  O1522  1  0.973600  0.623600  0.166200  1
  O  O1523  1  0.473600  0.736600  0.666200  1
  O  O1524  1  0.123600  0.473600  0.666200  1
  O  O1525  1  0.736600  0.123600  0.666200  1
  O  O1526  1  0.376400  0.763400  0.833800  1
  O  O1527  1  0.763400  0.026400  0.833800  1
  O  O1528  1  0.026400  0.376400  0.833800  1
  O  O1529  1  0.424900  0.372900  0.323300  1
  O  O1530  1  0.878900  0.424900  0.323300  1
  O  O1531  1  0.372900  0.878900  0.323300  1
  O  O1532  1  0.621100  0.127100  0.176700  1
  O  O1533  1  0.127100  0.075100  0.176700  1
  O  O1534  1  0.075100  0.621100  0.176700  1
  O  O1535  1  0.575100  0.627100  0.676700  1
  O  O1536  1  0.121100  0.575100  0.676700  1
  O  O1537  1  0.627100  0.121100  0.676700  1
  O  O1538  1  0.378900  0.872900  0.823300  1
  O  O1539  1  0.872900  0.924900  0.823300  1
  O  O1540  1  0.924900  0.378900  0.823300  1
  O  O1541  1  0.548260  0.364560  0.324920  1
  O  O1542  1  0.762260  0.548260  0.324920  1
  O  O1543  1  0.364560  0.762260  0.324920  1
  O  O1544  1  0.737740  0.135440  0.175080  1
  O  O1545  1  0.135440  0.951740  0.175080  1
  O  O1546  1  0.951740  0.737740  0.175080  1
  O  O1547  1  0.451740  0.635440  0.675080  1
  O  O1548  1  0.237740  0.451740  0.675080  1
  O  O1549  1  0.635440  0.237740  0.675080  1
  O  O1550  1  0.262260  0.864560  0.824920  1
  O  O1551  1  0.864560  0.048260  0.824920  1
  O  O1552  1  0.048260  0.262260  0.824920  1
  O  O1553  1  0.206747  0.206747  0.379760  1
  O  O1554  1  0.293253  0.293253  0.120240  1
  O  O1555  1  0.793253  0.793253  0.620240  1
  O  O1556  1  0.706747  0.706747  0.879760  1
  O  O1557  1  0.561500  0.299500  0.321500  1
  O  O1558  1  0.817500  0.561500  0.321500  1
  O  O1559  1  0.299500  0.817500  0.321500  1
  O  O1560  1  0.682500  0.200500  0.178500  1
  O  O1561  1  0.200500  0.938500  0.178500  1
  O  O1562  1  0.938500  0.682500  0.178500  1
  O  O1563  1  0.438500  0.700500  0.678500  1
  O  O1564  1  0.182500  0.438500  0.678500  1
  O  O1565  1  0.700500  0.182500  0.678500  1
  O  O1566  1  0.317500  0.799500  0.821500  1
  O  O1567  1  0.799500  0.061500  0.821500  1
  O  O1568  1  0.061500  0.317500  0.821500  1
  O  O1569  1  0.438700  0.400700  0.320900  1
  O  O1570  1  0.839700  0.438700  0.320900  1
  O  O1571  1  0.400700  0.839700  0.320900  1
  O  O1572  1  0.660300  0.099300  0.179100  1
  O  O1573  1  0.099300  0.061300  0.179100  1
  O  O1574  1  0.061300  0.660300  0.179100  1
  O  O1575  1  0.561300  0.599300  0.679100  1
  O  O1576  1  0.160300  0.561300  0.679100  1
  O  O1577  1  0.599300  0.160300  0.679100  1
  O  O1578  1  0.339700  0.900700  0.820900  1
  O  O1579  1  0.900700  0.938700  0.820900  1
  O  O1580  1  0.938700  0.339700  0.820900  1
  O  O1581  1  0.457400  0.299400  0.348800  1
  O  O1582  1  0.894400  0.457400  0.348800  1
  O  O1583  1  0.299400  0.894400  0.348800  1
  O  O1584  1  0.605600  0.200600  0.151200  1
  O  O1585  1  0.200600  0.042600  0.151200  1
  O  O1586  1  0.042600  0.605600  0.151200  1
  O  O1587  1  0.542600  0.700600  0.651200  1
  O  O1588  1  0.105600  0.542600  0.651200  1
  O  O1589  1  0.700600  0.105600  0.651200  1
  O  O1590  1  0.394400  0.799400  0.848800  1
  O  O1591  1  0.799400  0.957400  0.848800  1
  O  O1592  1  0.957400  0.394400  0.848800  1
  O  O1593  1  0.508200  0.367200  0.355400  1
  O  O1594  1  0.769200  0.508200  0.355400  1
  O  O1595  1  0.367200  0.769200  0.355400  1
  O  O1596  1  0.730800  0.132800  0.144600  1
  O  O1597  1  0.132800  0.991800  0.144600  1
  O  O1598  1  0.991800  0.730800  0.144600  1
  O  O1599  1  0.491800  0.632800  0.644600  1
  O  O1600  1  0.230800  0.491800  0.644600  1
  O  O1601  1  0.632800  0.230800  0.644600  1
  O  O1602  1  0.269200  0.867200  0.855400  1
  O  O1603  1  0.867200  0.008200  0.855400  1
  O  O1604  1  0.008200  0.269200  0.855400  1
  O  O1605  1  0.157070  0.279770  0.411290  1.0
  O  O1606  1  0.151870  0.157070  0.411290  1.0
  O  O1607  1  0.279770  0.151870  0.411290  1.0
  O  O1608  1  0.348130  0.220230  0.088710  1.0
  O  O1609  1  0.220230  0.342930  0.088710  1.0
  O  O1610  1  0.342930  0.348130  0.088710  1.0
  O  O1611  1  0.842930  0.720230  0.588710  1.0
  O  O1612  1  0.848130  0.842930  0.588710  1.0
  O  O1613  1  0.720230  0.848130  0.588710  1.0
  O  O1614  1  0.651870  0.779770  0.911290  1.0
  O  O1615  1  0.779770  0.657070  0.911290  1.0
  O  O1616  1  0.657070  0.651870  0.911290  1.0
  Re  Re1617  1  0.493740  0.342450  0.336950  1
  Re  Re1618  1  0.826860  0.493740  0.336950  1
  Re  Re1619  1  0.342450  0.826860  0.336950  1
  Re  Re1620  1  0.673140  0.157550  0.163050  1
  Re  Re1621  1  0.157550  0.006260  0.163050  1
  Re  Re1622  1  0.006260  0.673140  0.163050  1
  Re  Re1623  1  0.506260  0.657550  0.663050  1
  Re  Re1624  1  0.173140  0.506260  0.663050  1
  Re  Re1625  1  0.657550  0.173140  0.663050  1
  Re  Re1626  1  0.326860  0.842450  0.836950  1
  Re  Re1627  1  0.842450  0.993740  0.836950  1
  Re  Re1628  1  0.993740  0.326860  0.836950  1
  Re  Re1629  1  0.199417  0.199417  0.401750  1
  Re  Re1630  1  0.300583  0.300583  0.098250  1
  Re  Re1631  1  0.800583  0.800583  0.598250  1
  Re  Re1632  1  0.699417  0.699417  0.901750  1
