# generated using pymatgen
data_Fe4PH159C246S16N33(O16F27)2
_symmetry_space_group_name_H-M   'P 1'
_cell_length_a   30.81300000
_cell_length_b   47.86617429
_cell_length_c   47.86617429
_cell_angle_alpha   115.52689945
_cell_angle_beta   102.39073643
_cell_angle_gamma   102.39073643
_symmetry_Int_Tables_number   1
_chemical_formula_structural   Fe4PH159C246S16N33(O16F27)2
_chemical_formula_sum   'Fe24 P6 H954 C1476 S96 N198 O192 F324'
_cell_volume   58324.44805187
_cell_formula_units_Z   6
loop_
 _symmetry_equiv_pos_site_id
 _symmetry_equiv_pos_as_xyz
  1  'x, y, z'
loop_
 _atom_site_type_symbol
 _atom_site_label
 _atom_site_symmetry_multiplicity
 _atom_site_fract_x
 _atom_site_fract_y
 _atom_site_fract_z
 _atom_site_occupancy
  C  C1  1  0.865550  0.787750  0.041700  1
  C  C2  1  0.077800  0.253950  0.212250  1
  C  C3  1  0.823850  0.958300  0.746050  1
  C  C4  1  0.134450  0.212250  0.958300  1
  C  C5  1  0.922200  0.746050  0.787750  1
  C  C6  1  0.176150  0.041700  0.253950  1
  C  C7  1  0.882100  0.821200  0.066000  1
  C  C8  1  0.060900  0.244800  0.178800  1
  C  C9  1  0.816100  0.934000  0.755200  1
  C  C10  1  0.117900  0.178800  0.934000  1
  C  C11  1  0.939100  0.755200  0.821200  1
  C  C12  1  0.183900  0.066000  0.244800  1
  C  C13  1  0.860000  0.842400  0.061900  1
  C  C14  1  0.017600  0.219500  0.157600  1
  C  C15  1  0.798100  0.938100  0.780500  1
  C  C16  1  0.140000  0.157600  0.938100  1
  C  C17  1  0.982400  0.780500  0.842400  1
  C  C18  1  0.201900  0.061900  0.219500  1
  C  C19  1  0.822700  0.830200  0.032100  1
  C  C20  1  0.992500  0.201900  0.169800  1
  C  C21  1  0.790600  0.967900  0.798100  1
  C  C22  1  0.177300  0.169800  0.967900  1
  C  C23  1  0.007500  0.798100  0.830200  1
  C  C24  1  0.209400  0.032100  0.201900  1
  C  C25  1  0.808300  0.796400  0.008000  1
  C  C26  1  0.011900  0.211600  0.203600  1
  C  C27  1  0.800300  0.992000  0.788400  1
  C  C28  1  0.191700  0.203600  0.992000  1
  C  C29  1  0.988100  0.788400  0.796400  1
  C  C30  1  0.199700  0.008000  0.211600  1
  C  C31  1  0.772180  0.781980  0.977060  1
  C  C32  1  0.990200  0.195080  0.218020  1
  C  C33  1  0.795120  0.022940  0.804920  1
  C  C34  1  0.227820  0.218020  0.022940  1
  C  C35  1  0.009800  0.804920  0.781980  1
  C  C36  1  0.204880  0.977060  0.195080  1
  C  C37  1  0.728090  0.734210  0.924660  1
  C  C38  1  0.993880  0.190450  0.265790  1
  C  C39  1  0.803430  0.075340  0.809550  1
  C  C40  1  0.271910  0.265790  0.075340  1
  C  C41  1  0.006120  0.809550  0.734210  1
  C  C42  1  0.196570  0.924660  0.190450  1
  C  C43  1  0.740720  0.736360  0.899200  1
  C  C44  1  0.004360  0.162840  0.263640  1
  C  C45  1  0.841520  0.100800  0.837160  1
  C  C46  1  0.259280  0.263640  0.100800  1
  C  C47  1  0.995640  0.837160  0.736360  1
  C  C48  1  0.158480  0.899200  0.162840  1
  C  C49  1  0.706620  0.719230  0.867130  1
  C  C50  1  0.987390  0.147900  0.280770  1
  C  C51  1  0.839490  0.132870  0.852100  1
  C  C52  1  0.293380  0.280770  0.132870  1
  C  C53  1  0.012610  0.852100  0.719230  1
  C  C54  1  0.160510  0.867130  0.147900  1
  C  C55  1  0.659730  0.701810  0.860880  1
  C  C56  1  0.957920  0.159070  0.298190  1
  C  C57  1  0.798850  0.139120  0.840930  1
  C  C58  1  0.340270  0.298190  0.139120  1
  C  C59  1  0.042080  0.840930  0.701810  1
  C  C60  1  0.201150  0.860880  0.159070  1
  C  C61  1  0.647600  0.702000  0.887900  1
  C  C62  1  0.945600  0.185900  0.298000  1
  C  C63  1  0.759700  0.112100  0.814100  1
  C  C64  1  0.352400  0.298000  0.112100  1
  C  C65  1  0.054400  0.814100  0.702000  1
  C  C66  1  0.240300  0.887900  0.185900  1
  C  C67  1  0.682310  0.717110  0.918720  1
  C  C68  1  0.965200  0.201610  0.282890  1
  C  C69  1  0.763590  0.081280  0.798390  1
  C  C70  1  0.317690  0.282890  0.081280  1
  C  C71  1  0.034800  0.798390  0.717110  1
  C  C72  1  0.236410  0.918720  0.201610  1
  C  C73  1  0.622910  0.684440  0.826590  1
  C  C74  1  0.938470  0.142150  0.315560  1
  C  C75  1  0.796320  0.173410  0.857850  1
  C  C76  1  0.377090  0.315560  0.173410  1
  C  C77  1  0.061530  0.857850  0.684440  1
  C  C78  1  0.203680  0.826590  0.142150  1
  C  C79  1  0.636500  0.668400  0.798800  1
  C  C80  1  0.968100  0.130400  0.331600  1
  C  C81  1  0.837700  0.201200  0.869600  1
  C  C82  1  0.363500  0.331600  0.201200  1
  C  C83  1  0.031900  0.869600  0.668400  1
  C  C84  1  0.162300  0.798800  0.130400  1
  C  C85  1  0.603200  0.651100  0.767500  1
  C  C86  1  0.952100  0.116400  0.348900  1
  C  C87  1  0.835700  0.232500  0.883600  1
  C  C88  1  0.396800  0.348900  0.232500  1
  C  C89  1  0.047900  0.883600  0.651100  1
  C  C90  1  0.164300  0.767500  0.116400  1
  C  C91  1  0.555360  0.650260  0.761620  1
  C  C92  1  0.905100  0.111360  0.349740  1
  C  C93  1  0.793740  0.238380  0.888640  1
  C  C94  1  0.444640  0.349740  0.238380  1
  C  C95  1  0.094900  0.888640  0.650260  1
  C  C96  1  0.206260  0.761620  0.111360  1
  C  C97  1  0.520750  0.632450  0.730200  1
  C  C98  1  0.888300  0.097750  0.367550  1
  C  C99  1  0.790550  0.269800  0.902250  1
  C  C100  1  0.479250  0.367550  0.269800  1
  C  C101  1  0.111700  0.902250  0.632450  1
  C  C102  1  0.209450  0.730200  0.097750  1
  C  C103  1  0.474030  0.631830  0.725360  1
  C  C104  1  0.842200  0.093530  0.368170  1
  C  C105  1  0.748670  0.274640  0.906470  1
  C  C106  1  0.525970  0.368170  0.274640  1
  C  C107  1  0.157800  0.906470  0.631830  1
  C  C108  1  0.251330  0.725360  0.093530  1
  C  C109  1  0.437830  0.612330  0.693260  1
  C  C110  1  0.825500  0.080930  0.387670  1
  C  C111  1  0.744570  0.306740  0.919070  1
  C  C112  1  0.562170  0.387670  0.306740  1
  C  C113  1  0.174500  0.919070  0.612330  1
  C  C114  1  0.255430  0.693260  0.080930  1
  C  C115  1  0.391840  0.611040  0.688880  1
  C  C116  1  0.780800  0.077840  0.388960  1
  C  C117  1  0.702960  0.311120  0.922160  1
  C  C118  1  0.608160  0.388960  0.311120  1
  C  C119  1  0.219200  0.922160  0.611040  1
  C  C120  1  0.297040  0.688880  0.077840  1
  C  C121  1  0.380900  0.631900  0.716500  1
  C  C122  1  0.749000  0.084600  0.368100  1
  C  C123  1  0.664400  0.283500  0.915400  1
  C  C124  1  0.619100  0.368100  0.283500  1
  C  C125  1  0.251000  0.915400  0.631900  1
  C  C126  1  0.335600  0.716500  0.084600  1
  C  C127  1  0.413800  0.649900  0.748300  1
  C  C128  1  0.763900  0.098400  0.350100  1
  C  C129  1  0.665500  0.251700  0.901600  1
  C  C130  1  0.586200  0.350100  0.251700  1
  C  C131  1  0.236100  0.901600  0.649900  1
  C  C132  1  0.334500  0.748300  0.098400  1
  C  C133  1  0.462110  0.650010  0.753320  1
  C  C134  1  0.812100  0.103310  0.349990  1
  C  C135  1  0.708790  0.246680  0.896690  1
  C  C136  1  0.537890  0.349990  0.246680  1
  C  C137  1  0.187900  0.896690  0.650010  1
  C  C138  1  0.291210  0.753320  0.103310  1
  C  C139  1  0.495990  0.667790  0.785580  1
  C  C140  1  0.828200  0.117790  0.332210  1
  C  C141  1  0.710410  0.214420  0.882210  1
  C  C142  1  0.504010  0.332210  0.214420  1
  C  C143  1  0.171800  0.882210  0.667790  1
  C  C144  1  0.289590  0.785580  0.117790  1
  C  C145  1  0.542440  0.666940  0.789580  1
  C  C146  1  0.875500  0.122640  0.333060  1
  C  C147  1  0.752860  0.210420  0.877360  1
  C  C148  1  0.457560  0.333060  0.210420  1
  C  C149  1  0.124500  0.877360  0.666940  1
  C  C150  1  0.247140  0.789580  0.122640  1
  C  C151  1  0.578040  0.684240  0.822380  1
  C  C152  1  0.893800  0.138140  0.315760  1
  C  C153  1  0.755660  0.177620  0.861860  1
  C  C154  1  0.421960  0.315760  0.177620  1
  C  C155  1  0.106200  0.861860  0.684240  1
  C  C156  1  0.244340  0.822380  0.138140  1
  C  C157  1  0.354010  0.588410  0.655620  1
  C  C158  1  0.765600  0.067210  0.411590  1
  C  C159  1  0.698390  0.344380  0.932790  1
  C  C160  1  0.645990  0.411590  0.344380  1
  C  C161  1  0.234400  0.932790  0.588410  1
  C  C162  1  0.301610  0.655620  0.067210  1
  C  C163  1  0.305900  0.577400  0.652800  1
  C  C164  1  0.728500  0.075400  0.422600  1
  C  C165  1  0.653100  0.347200  0.924600  1
  C  C166  1  0.694100  0.422600  0.347200  1
  C  C167  1  0.271500  0.924600  0.577400  1
  C  C168  1  0.346900  0.652800  0.075400  1
  C  C169  1  0.269600  0.555800  0.622800  1
  C  C170  1  0.713800  0.067000  0.444200  1
  C  C171  1  0.646800  0.377200  0.933000  1
  C  C172  1  0.730400  0.444200  0.377200  1
  C  C173  1  0.286200  0.933000  0.555800  1
  C  C174  1  0.353200  0.622800  0.067000  1
  C  C175  1  0.279980  0.547480  0.593860  1
  C  C176  1  0.732500  0.046380  0.452520  1
  C  C177  1  0.686120  0.406140  0.953620  1
  C  C178  1  0.720020  0.452520  0.406140  1
  C  C179  1  0.267500  0.953620  0.547480  1
  C  C180  1  0.313880  0.593860  0.046380  1
  C  C181  1  0.326790  0.559590  0.595280  1
  C  C182  1  0.767200  0.035690  0.440410  1
  C  C183  1  0.731510  0.404720  0.964310  1
  C  C184  1  0.673210  0.440410  0.404720  1
  C  C185  1  0.232800  0.964310  0.559590  1
  C  C186  1  0.268490  0.595280  0.035690  1
  C  C187  1  0.362750  0.580050  0.626000  1
  C  C188  1  0.782700  0.045950  0.419950  1
  C  C189  1  0.736750  0.374000  0.954050  1
  C  C190  1  0.637250  0.419950  0.374000  1
  C  C191  1  0.217300  0.954050  0.580050  1
  C  C192  1  0.263250  0.626000  0.045950  1
  C  C193  1  0.209800  0.535200  0.555200  1
  C  C194  1  0.674600  0.020000  0.464800  1
  C  C195  1  0.654600  0.444800  0.980000  1
  C  C196  1  0.790200  0.464800  0.444800  1
  C  C197  1  0.325400  0.980000  0.535200  1
  C  C198  1  0.345400  0.555200  0.020000  1
  C  C199  1  0.171600  0.512700  0.523700  1
  C  C200  1  0.658900  0.011000  0.487300  1
  C  C201  1  0.647900  0.476300  0.989000  1
  C  C202  1  0.828400  0.487300  0.476300  1
  C  C203  1  0.341100  0.989000  0.512700  1
  C  C204  1  0.352100  0.523700  0.011000  1
  C  C205  1  0.132000  0.520300  0.511900  1
  C  C206  1  0.611700  0.991600  0.479700  1
  C  C207  1  0.620100  0.488100  0.008400  1
  C  C208  1  0.868000  0.479700  0.488100  1
  C  C209  1  0.388300  0.008400  0.520300  1
  C  C210  1  0.379900  0.511900  0.991600  1
  C  C211  1  0.099000  0.497400  0.481100  1
  C  C212  1  0.601600  0.983700  0.502600  1
  C  C213  1  0.617900  0.518900  0.016300  1
  C  C214  1  0.901000  0.502600  0.518900  1
  C  C215  1  0.398400  0.016300  0.497400  1
  C  C216  1  0.382100  0.481100  0.983700  1
  C  C217  1  0.104200  0.467200  0.463300  1
  C  C218  1  0.637000  0.996100  0.532800  1
  C  C219  1  0.640900  0.536700  0.003900  1
  C  C220  1  0.895800  0.532800  0.536700  1
  C  C221  1  0.363000  0.003900  0.467200  1
  C  C222  1  0.359100  0.463300  0.996100  1
  C  C223  1  0.143900  0.460700  0.476700  1
  C  C224  1  0.683200  0.016000  0.539300  1
  C  C225  1  0.667200  0.523300  0.984000  1
  C  C226  1  0.856100  0.539300  0.523300  1
  C  C227  1  0.316800  0.984000  0.460700  1
  C  C228  1  0.332800  0.476700  0.016000  1
  C  C229  1  0.881980  0.775180  0.964660  1
  C  C230  1  0.106800  0.189480  0.224820  1
  C  C231  1  0.917320  0.035340  0.810520  1
  C  C232  1  0.118020  0.224820  0.035340  1
  C  C233  1  0.893200  0.810520  0.775180  1
  C  C234  1  0.082680  0.964660  0.189480  1
  C  C235  1  0.906000  0.782800  0.945700  1
  C  C236  1  0.123200  0.162900  0.217200  1
  C  C237  1  0.960300  0.054300  0.837100  1
  C  C238  1  0.094000  0.217200  0.054300  1
  C  C239  1  0.876800  0.837100  0.782800  1
  C  C240  1  0.039700  0.945700  0.162900  1
  C  C241  1  0.895500  0.759000  0.912800  1
  C  C242  1  0.136500  0.153800  0.241000  1
  C  C243  1  0.982700  0.087200  0.846200  1
  C  C244  1  0.104500  0.241000  0.087200  1
  C  C245  1  0.863500  0.846200  0.759000  1
  C  C246  1  0.017300  0.912800  0.153800  1
  C  C247  1  0.863700  0.727100  0.900300  1
  C  C248  1  0.136600  0.173200  0.272900  1
  C  C249  1  0.963400  0.099700  0.826800  1
  C  C250  1  0.136300  0.272900  0.099700  1
  C  C251  1  0.863400  0.826800  0.727100  1
  C  C252  1  0.036600  0.900300  0.173200  1
  C  C253  1  0.840190  0.721490  0.920580  1
  C  C254  1  0.118700  0.199090  0.278510  1
  C  C255  1  0.919610  0.079420  0.800910  1
  C  C256  1  0.159810  0.278510  0.079420  1
  C  C257  1  0.881300  0.800910  0.721490  1
  C  C258  1  0.080390  0.920580  0.199090  1
  C  C259  1  0.805880  0.691030  0.910510  1
  C  C260  1  0.114850  0.219480  0.308970  1
  C  C261  1  0.895370  0.089490  0.780520  1
  C  C262  1  0.194120  0.308970  0.089490  1
  C  C263  1  0.885150  0.780520  0.691030  1
  C  C264  1  0.104630  0.910510  0.219480  1
  C  C265  1  0.747430  0.657750  0.918440  1
  C  C266  1  0.089680  0.260690  0.342250  1
  C  C267  1  0.828990  0.081560  0.739310  1
  C  C268  1  0.252570  0.342250  0.081560  1
  C  C269  1  0.910320  0.739310  0.657750  1
  C  C270  1  0.171010  0.918440  0.260690  1
  C  C271  1  0.750990  0.640700  0.935670  1
  C  C272  1  0.110290  0.294970  0.359300  1
  C  C273  1  0.815320  0.064330  0.705030  1
  C  C274  1  0.249010  0.359300  0.064330  1
  C  C275  1  0.889710  0.705030  0.640700  1
  C  C276  1  0.184680  0.935670  0.294970  1
  C  C277  1  0.715650  0.610350  0.923600  1
  C  C278  1  0.105300  0.313250  0.389650  1
  C  C279  1  0.792050  0.076400  0.686750  1
  C  C280  1  0.284350  0.389650  0.076400  1
  C  C281  1  0.894700  0.686750  0.610350  1
  C  C282  1  0.207950  0.923600  0.313250  1
  C  C283  1  0.675630  0.597570  0.896120  1
  C  C284  1  0.078060  0.298550  0.402430  1
  C  C285  1  0.779510  0.103880  0.701450  1
  C  C286  1  0.324370  0.402430  0.103880  1
  C  C287  1  0.921940  0.701450  0.597570  1
  C  C288  1  0.220490  0.896120  0.298550  1
  C  C289  1  0.673270  0.616020  0.879890  1
  C  C290  1  0.057250  0.263870  0.383980  1
  C  C291  1  0.793380  0.120110  0.736130  1
  C  C292  1  0.326730  0.383980  0.120110  1
  C  C293  1  0.942750  0.736130  0.616020  1
  C  C294  1  0.206620  0.879890  0.263870  1
  C  C295  1  0.707750  0.645200  0.890850  1
  C  C296  1  0.062550  0.245650  0.354800  1
  C  C297  1  0.816900  0.109150  0.754350  1
  C  C298  1  0.292250  0.354800  0.109150  1
  C  C299  1  0.937450  0.754350  0.645200  1
  C  C300  1  0.183100  0.890850  0.245650  1
  C  C301  1  0.637580  0.564630  0.883610  1
  C  C302  1  0.072950  0.318980  0.435370  1
  C  C303  1  0.753970  0.116390  0.681020  1
  C  C304  1  0.362420  0.435370  0.116390  1
  C  C305  1  0.927050  0.681020  0.564630  1
  C  C306  1  0.246030  0.883610  0.318980  1
  C  C307  1  0.615730  0.542570  0.849120  1
  C  C308  1  0.073160  0.306550  0.457430  1
  C  C309  1  0.766610  0.150880  0.693450  1
  C  C310  1  0.384270  0.457430  0.150880  1
  C  C311  1  0.926840  0.693450  0.542570  1
  C  C312  1  0.233390  0.849120  0.306550  1
  C  C313  1  0.582740  0.511640  0.836580  1
  C  C314  1  0.071100  0.324940  0.488360  1
  C  C315  1  0.746160  0.163420  0.675060  1
  C  C316  1  0.417260  0.488360  0.163420  1
  C  C317  1  0.928900  0.675060  0.511640  1
  C  C318  1  0.253840  0.836580  0.324940  1
  C  C319  1  0.568130  0.501430  0.858160  1
  C  C320  1  0.066700  0.356730  0.498570  1
  C  C321  1  0.709970  0.141840  0.643270  1
  C  C322  1  0.431870  0.498570  0.141840  1
  C  C323  1  0.933300  0.643270  0.501430  1
  C  C324  1  0.290030  0.858160  0.356730  1
  C  C325  1  0.534810  0.470320  0.846610  1
  C  C326  1  0.064490  0.376290  0.529680  1
  C  C327  1  0.688200  0.153390  0.623710  1
  C  C328  1  0.465190  0.529680  0.153390  1
  C  C329  1  0.935510  0.623710  0.470320  1
  C  C330  1  0.311800  0.846610  0.376290  1
  C  C331  1  0.519680  0.461550  0.868190  1
  C  C332  1  0.058130  0.406640  0.538450  1
  C  C333  1  0.651490  0.131810  0.593360  1
  C  C334  1  0.480320  0.538450  0.131810  1
  C  C335  1  0.941870  0.593360  0.461550  1
  C  C336  1  0.348510  0.868190  0.406640  1
  C  C337  1  0.482470  0.430760  0.856650  1
  C  C338  1  0.051710  0.425890  0.569240  1
  C  C339  1  0.625820  0.143350  0.574110  1
  C  C340  1  0.517530  0.569240  0.143350  1
  C  C341  1  0.948290  0.574110  0.430760  1
  C  C342  1  0.374180  0.856650  0.425890  1
  C  C343  1  0.466690  0.422670  0.877400  1
  C  C344  1  0.044020  0.454730  0.577330  1
  C  C345  1  0.589290  0.122600  0.545270  1
  C  C346  1  0.533310  0.577330  0.122600  1
  C  C347  1  0.955980  0.545270  0.422670  1
  C  C348  1  0.410710  0.877400  0.454730  1
  C  C349  1  0.487990  0.445850  0.912120  1
  C  C350  1  0.042140  0.466270  0.554150  1
  C  C351  1  0.575870  0.087880  0.533730  1
  C  C352  1  0.512010  0.554150  0.087880  1
  C  C353  1  0.957860  0.533730  0.445850  1
  C  C354  1  0.424130  0.912120  0.466270  1
  C  C355  1  0.522870  0.476030  0.924780  1
  C  C356  1  0.046840  0.448750  0.523970  1
  C  C357  1  0.598090  0.075220  0.551250  1
  C  C358  1  0.477130  0.523970  0.075220  1
  C  C359  1  0.953160  0.551250  0.476030  1
  C  C360  1  0.401910  0.924780  0.448750  1
  C  C361  1  0.539090  0.484750  0.902620  1
  C  C362  1  0.054340  0.417870  0.515250  1
  C  C363  1  0.636470  0.097380  0.582130  1
  C  C364  1  0.460910  0.515250  0.097380  1
  C  C365  1  0.945660  0.582130  0.484750  1
  C  C366  1  0.363530  0.902620  0.417870  1
  C  C367  1  0.574270  0.515730  0.914780  1
  C  C368  1  0.058540  0.399050  0.484270  1
  C  C369  1  0.659490  0.085220  0.600950  1
  C  C370  1  0.425730  0.484270  0.085220  1
  C  C371  1  0.941460  0.600950  0.515730  1
  C  C372  1  0.340510  0.914780  0.399050  1
  C  C373  1  0.589180  0.524220  0.893120  1
  C  C374  1  0.064960  0.368900  0.475780  1
  C  C375  1  0.696060  0.106880  0.631100  1
  C  C376  1  0.410820  0.475780  0.106880  1
  C  C377  1  0.935040  0.631100  0.524220  1
  C  C378  1  0.303940  0.893120  0.368900  1
  C  C379  1  0.624470  0.556680  0.904730  1
  C  C380  1  0.067790  0.348050  0.443320  1
  C  C381  1  0.719740  0.095270  0.651950  1
  C  C382  1  0.375530  0.443320  0.095270  1
  C  C383  1  0.932210  0.651950  0.556680  1
  C  C384  1  0.280260  0.904730  0.348050  1
  C  C385  1  0.429400  0.389920  0.864280  1
  C  C386  1  0.039480  0.474360  0.610080  1
  C  C387  1  0.565120  0.135720  0.525640  1
  C  C388  1  0.570600  0.610080  0.135720  1
  C  C389  1  0.960520  0.525640  0.389920  1
  C  C390  1  0.434880  0.864280  0.474360  1
  C  C391  1  0.427080  0.374900  0.884040  1
  C  C392  1  0.052180  0.509140  0.625100  1
  C  C393  1  0.543040  0.115960  0.490860  1
  C  C394  1  0.572920  0.625100  0.115960  1
  C  C395  1  0.947820  0.490860  0.374900  1
  C  C396  1  0.456960  0.884040  0.509140  1
  C  C397  1  0.391140  0.345490  0.873130  1
  C  C398  1  0.045650  0.527640  0.654510  1
  C  C399  1  0.518010  0.126870  0.472360  1
  C  C400  1  0.608860  0.654510  0.126870  1
  C  C401  1  0.954350  0.472360  0.345490  1
  C  C402  1  0.481990  0.873130  0.527640  1
  C  C403  1  0.355340  0.330600  0.842720  1
  C  C404  1  0.024740  0.512120  0.669400  1
  C  C405  1  0.512620  0.157280  0.487880  1
  C  C406  1  0.644660  0.669400  0.157280  1
  C  C407  1  0.975260  0.487880  0.330600  1
  C  C408  1  0.487380  0.842720  0.512120  1
  C  C409  1  0.357180  0.344750  0.822090  1
  C  C410  1  0.012430  0.477340  0.655250  1
  C  C411  1  0.535090  0.177910  0.522660  1
  C  C412  1  0.642820  0.655250  0.177910  1
  C  C413  1  0.987570  0.522660  0.344750  1
  C  C414  1  0.464910  0.822090  0.477340  1
  C  C415  1  0.393450  0.374220  0.833330  1
  C  C416  1  0.019230  0.459110  0.625780  1
  C  C417  1  0.560120  0.166670  0.540890  1
  C  C418  1  0.606550  0.625780  0.166670  1
  C  C419  1  0.980770  0.540890  0.374220  1
  C  C420  1  0.439880  0.833330  0.459110  1
  C  C421  1  0.309630  0.274620  0.803270  1
  C  C422  1  0.035010  0.528650  0.725380  1
  C  C423  1  0.506360  0.196730  0.471350  1
  C  C424  1  0.690370  0.725380  0.196730  1
  C  C425  1  0.964990  0.471350  0.274620  1
  C  C426  1  0.493640  0.803270  0.528650  1
  C  C427  1  0.273180  0.244600  0.793540  1
  C  C428  1  0.028580  0.548940  0.755400  1
  C  C429  1  0.479640  0.206460  0.451060  1
  C  C430  1  0.726820  0.755400  0.206460  1
  C  C431  1  0.971420  0.451060  0.244600  1
  C  C432  1  0.520360  0.793540  0.548940  1
  C  C433  1  0.261450  0.214650  0.763700  1
  C  C434  1  0.046800  0.549050  0.785350  1
  C  C435  1  0.497750  0.236300  0.450950  1
  C  C436  1  0.738550  0.785350  0.236300  1
  C  C437  1  0.953200  0.450950  0.214650  1
  C  C438  1  0.502250  0.763700  0.549050  1
  C  C439  1  0.226100  0.187500  0.756500  1
  C  C440  1  0.038600  0.569000  0.812500  1
  C  C441  1  0.469600  0.243500  0.431000  1
  C  C442  1  0.773900  0.812500  0.243500  1
  C  C443  1  0.961400  0.431000  0.187500  1
  C  C444  1  0.530400  0.756500  0.569000  1
  C  C445  1  0.205100  0.189700  0.780400  1
  C  C446  1  0.015400  0.590700  0.810300  1
  C  C447  1  0.424700  0.219600  0.409300  1
  C  C448  1  0.794900  0.810300  0.219600  1
  C  C449  1  0.984600  0.409300  0.189700  1
  C  C450  1  0.575300  0.780400  0.590700  1
  C  C451  1  0.218150  0.219950  0.809100  1
  C  C452  1  0.998200  0.589150  0.780050  1
  C  C453  1  0.409050  0.190900  0.410850  1
  C  C454  1  0.781850  0.780050  0.190900  1
  C  C455  1  0.001800  0.410850  0.219950  1
  C  C456  1  0.590950  0.809100  0.589150  1
  C  C457  1  0.894870  0.716670  0.993140  1
  C  C458  1  0.178200  0.276470  0.283330  1
  C  C459  1  0.901730  0.006860  0.723530  1
  C  C460  1  0.105130  0.283330  0.006860  1
  C  C461  1  0.821800  0.723530  0.716670  1
  C  C462  1  0.098270  0.993140  0.276470  1
  C  C463  1  0.920700  0.704200  0.009900  1
  C  C464  1  0.216500  0.305700  0.295800  1
  C  C465  1  0.910800  0.990100  0.694300  1
  C  C466  1  0.079300  0.295800  0.990100  1
  C  C467  1  0.783500  0.694300  0.704200  1
  C  C468  1  0.089200  0.009900  0.305700  1
  C  C469  1  0.904500  0.691200  0.028600  1
  C  C470  1  0.213300  0.337400  0.308800  1
  C  C471  1  0.875900  0.971400  0.662600  1
  C  C472  1  0.095500  0.308800  0.971400  1
  C  C473  1  0.786700  0.662600  0.691200  1
  C  C474  1  0.124100  0.028600  0.337400  1
  C  C475  1  0.860100  0.691800  0.030400  1
  C  C476  1  0.168300  0.338600  0.308200  1
  C  C477  1  0.829700  0.969600  0.661400  1
  C  C478  1  0.139900  0.308200  0.969600  1
  C  C479  1  0.831700  0.661400  0.691800  1
  C  C480  1  0.170300  0.030400  0.338600  1
  C  C481  1  0.833400  0.703800  0.012400  1
  C  C482  1  0.129600  0.308600  0.296200  1
  C  C483  1  0.821000  0.987600  0.691400  1
  C  C484  1  0.166600  0.296200  0.987600  1
  C  C485  1  0.870400  0.691400  0.703800  1
  C  C486  1  0.179000  0.012400  0.308600  1
  C  C487  1  0.787010  0.703210  0.011520  1
  C  C488  1  0.083800  0.308310  0.296790  1
  C  C489  1  0.775490  0.988480  0.691690  1
  C  C490  1  0.212990  0.296790  0.988480  1
  C  C491  1  0.916200  0.691690  0.703210  1
  C  C492  1  0.224510  0.011520  0.308310  1
  C  C493  1  0.718680  0.714240  0.992000  1
  C  C494  1  0.004440  0.277760  0.285760  1
  C  C495  1  0.726680  0.008000  0.722240  1
  C  C496  1  0.281320  0.285760  0.008000  1
  C  C497  1  0.995560  0.722240  0.714240  1
  C  C498  1  0.273320  0.992000  0.277760  1
  C  C499  1  0.681360  0.683360  0.973620  1
  C  C500  1  0.998000  0.290260  0.316640  1
  C  C501  1  0.707740  0.026380  0.709740  1
  C  C502  1  0.318640  0.316640  0.026380  1
  C  C503  1  0.002000  0.709740  0.683360  1
  C  C504  1  0.292260  0.973620  0.290260  1
  C  C505  1  0.635110  0.683710  0.970120  1
  C  C506  1  0.951400  0.286410  0.316290  1
  C  C507  1  0.664990  0.029880  0.713590  1
  C  C508  1  0.364890  0.316290  0.029880  1
  C  C509  1  0.048600  0.713590  0.683710  1
  C  C510  1  0.335010  0.970120  0.286410  1
  C  C511  1  0.624790  0.712280  0.983790  1
  C  C512  1  0.912510  0.271510  0.287720  1
  C  C513  1  0.641000  0.016210  0.728490  1
  C  C514  1  0.375210  0.287720  0.016210  1
  C  C515  1  0.087490  0.728490  0.712280  1
  C  C516  1  0.359000  0.983790  0.271510  1
  C  C517  1  0.663810  0.742200  0.003430  1
  C  C518  1  0.921610  0.261230  0.257800  1
  C  C519  1  0.660380  0.996570  0.738770  1
  C  C520  1  0.336190  0.257800  0.996570  1
  C  C521  1  0.078390  0.738770  0.742200  1
  C  C522  1  0.339620  0.003430  0.261230  1
  C  C523  1  0.709340  0.742760  0.007460  1
  C  C524  1  0.966580  0.264700  0.257240  1
  C  C525  1  0.701880  0.992540  0.735300  1
  C  C526  1  0.290660  0.257240  0.992540  1
  C  C527  1  0.033420  0.735300  0.742760  1
  C  C528  1  0.298120  0.007460  0.264700  1
  C  C529  1  0.574700  0.711900  0.978200  1
  C  C530  1  0.862800  0.266300  0.288100  1
  C  C531  1  0.596500  0.021800  0.733700  1
  C  C532  1  0.425300  0.288100  0.021800  1
  C  C533  1  0.137200  0.733700  0.711900  1
  C  C534  1  0.403500  0.978200  0.266300  1
  C  C535  1  0.538100  0.682800  0.970400  1
  C  C536  1  0.855300  0.287600  0.317200  1
  C  C537  1  0.567700  0.029600  0.712400  1
  C  C538  1  0.461900  0.317200  0.029600  1
  C  C539  1  0.144700  0.712400  0.682800  1
  C  C540  1  0.432300  0.970400  0.287600  1
  C  C541  1  0.491900  0.681700  0.965800  1
  C  C542  1  0.810200  0.284100  0.318300  1
  C  C543  1  0.526100  0.034200  0.715900  1
  C  C544  1  0.508100  0.318300  0.034200  1
  C  C545  1  0.189800  0.715900  0.681700  1
  C  C546  1  0.473900  0.965800  0.284100  1
  C  C547  1  0.478400  0.708800  0.967200  1
  C  C548  1  0.769600  0.258400  0.291200  1
  C  C549  1  0.511200  0.032800  0.741600  1
  C  C550  1  0.521600  0.291200  0.032800  1
  C  C551  1  0.230400  0.741600  0.708800  1
  C  C552  1  0.488800  0.967200  0.258400  1
  C  C553  1  0.432500  0.709700  0.964500  1
  C  C554  1  0.722800  0.254800  0.290300  1
  C  C555  1  0.468000  0.035500  0.745200  1
  C  C556  1  0.567500  0.290300  0.035500  1
  C  C557  1  0.277200  0.745200  0.709700  1
  C  C558  1  0.532000  0.964500  0.254800  1
  C  C559  1  0.420900  0.737000  0.965700  1
  C  C560  1  0.683900  0.228700  0.263000  1
  C  C561  1  0.455200  0.034300  0.771300  1
  C  C562  1  0.579100  0.263000  0.034300  1
  C  C563  1  0.316100  0.771300  0.737000  1
  C  C564  1  0.544800  0.965700  0.228700  1
  C  C565  1  0.373400  0.737500  0.962800  1
  C  C566  1  0.635900  0.225300  0.262500  1
  C  C567  1  0.410600  0.037200  0.774700  1
  C  C568  1  0.626600  0.262500  0.037200  1
  C  C569  1  0.364100  0.774700  0.737500  1
  C  C570  1  0.589400  0.962800  0.225300  1
  C  C571  1  0.362700  0.764900  0.968400  1
  C  C572  1  0.597800  0.203500  0.235100  1
  C  C573  1  0.394300  0.031600  0.796500  1
  C  C574  1  0.637300  0.235100  0.031600  1
  C  C575  1  0.402200  0.796500  0.764900  1
  C  C576  1  0.605700  0.968400  0.203500  1
  C  C577  1  0.398600  0.793600  0.974800  1
  C  C578  1  0.605000  0.181200  0.206400  1
  C  C579  1  0.423800  0.025200  0.818800  1
  C  C580  1  0.601400  0.206400  0.025200  1
  C  C581  1  0.395000  0.818800  0.793600  1
  C  C582  1  0.576200  0.974800  0.181200  1
  C  C583  1  0.444100  0.793800  0.977600  1
  C  C584  1  0.650300  0.183800  0.206200  1
  C  C585  1  0.466500  0.022400  0.816200  1
  C  C586  1  0.555900  0.206200  0.022400  1
  C  C587  1  0.349700  0.816200  0.793800  1
  C  C588  1  0.533500  0.977600  0.183800  1
  C  C589  1  0.457300  0.766100  0.975600  1
  C  C590  1  0.691200  0.209500  0.233900  1
  C  C591  1  0.481700  0.024400  0.790500  1
  C  C592  1  0.542700  0.233900  0.024400  1
  C  C593  1  0.308800  0.790500  0.766100  1
  C  C594  1  0.518300  0.975600  0.209500  1
  C  C595  1  0.504500  0.766600  0.979900  1
  C  C596  1  0.737900  0.213300  0.233400  1
  C  C597  1  0.524600  0.020100  0.786700  1
  C  C598  1  0.495500  0.233400  0.020100  1
  C  C599  1  0.262100  0.786700  0.766600  1
  C  C600  1  0.475400  0.979900  0.213300  1
  C  C601  1  0.515300  0.738200  0.975600  1
  C  C602  1  0.777100  0.237400  0.261800  1
  C  C603  1  0.539700  0.024400  0.762600  1
  C  C604  1  0.484700  0.261800  0.024400  1
  C  C605  1  0.222900  0.762600  0.738200  1
  C  C606  1  0.460300  0.975600  0.237400  1
  C  C607  1  0.563900  0.738200  0.981600  1
  C  C608  1  0.825700  0.243400  0.261800  1
  C  C609  1  0.582300  0.018400  0.756600  1
  C  C610  1  0.436100  0.261800  0.018400  1
  C  C611  1  0.174300  0.756600  0.738200  1
  C  C612  1  0.417700  0.981600  0.243400  1
  C  C613  1  0.312500  0.764100  0.964700  1
  C  C614  1  0.548400  0.200600  0.235900  1
  C  C615  1  0.347800  0.035300  0.799400  1
  C  C616  1  0.687500  0.235900  0.035300  1
  C  C617  1  0.451600  0.799400  0.764100  1
  C  C618  1  0.652200  0.964700  0.200600  1
  C  C619  1  0.274400  0.735200  0.939900  1
  C  C620  1  0.539200  0.204700  0.264800  1
  C  C621  1  0.334500  0.060100  0.795300  1
  C  C622  1  0.725600  0.264800  0.060100  1
  C  C623  1  0.460800  0.795300  0.735200  1
  C  C624  1  0.665500  0.939900  0.204700  1
  C  C625  1  0.228300  0.732400  0.938200  1
  C  C626  1  0.495900  0.205800  0.267600  1
  C  C627  1  0.290100  0.061800  0.794200  1
  C  C628  1  0.771700  0.267600  0.061800  1
  C  C629  1  0.504100  0.794200  0.732400  1
  C  C630  1  0.709900  0.938200  0.205800  1
  C  C631  1  0.218400  0.758600  0.960600  1
  C  C632  1  0.459800  0.202000  0.241400  1
  C  C633  1  0.257800  0.039400  0.798000  1
  C  C634  1  0.781600  0.241400  0.039400  1
  C  C635  1  0.540200  0.798000  0.758600  1
  C  C636  1  0.742200  0.960600  0.202000  1
  C  C637  1  0.255800  0.788200  0.984400  1
  C  C638  1  0.467600  0.196200  0.211800  1
  C  C639  1  0.271400  0.015600  0.803800  1
  C  C640  1  0.744200  0.211800  0.015600  1
  C  C641  1  0.532400  0.803800  0.788200  1
  C  C642  1  0.728600  0.984400  0.196200  1
  C  C643  1  0.302200  0.790700  0.986400  1
  C  C644  1  0.511500  0.195700  0.209300  1
  C  C645  1  0.315800  0.013600  0.804300  1
  C  C646  1  0.697800  0.209300  0.013600  1
  C  C647  1  0.488500  0.804300  0.790700  1
  C  C648  1  0.684200  0.986400  0.195700  1
  C  C649  1  0.146200  0.766000  0.943900  1
  C  C650  1  0.380200  0.177900  0.234000  1
  C  C651  1  0.202300  0.056100  0.822100  1
  C  C652  1  0.853800  0.234000  0.056100  1
  C  C653  1  0.619800  0.822100  0.766000  1
  C  C654  1  0.797700  0.943900  0.177900  1
  C  C655  1  0.097200  0.761000  0.941700  1
  C  C656  1  0.336200  0.180700  0.239000  1
  C  C657  1  0.155500  0.058300  0.819300  1
  C  C658  1  0.902800  0.239000  0.058300  1
  C  C659  1  0.663800  0.819300  0.761000  1
  C  C660  1  0.844500  0.941700  0.180700  1
  C  C661  1  0.067100  0.773000  0.926400  1
  C  C662  1  0.294100  0.153400  0.227000  1
  C  C663  1  0.140700  0.073600  0.846600  1
  C  C664  1  0.932900  0.227000  0.073600  1
  C  C665  1  0.705900  0.846600  0.773000  1
  C  C666  1  0.859300  0.926400  0.153400  1
  C  C667  1  0.022600  0.768600  0.928400  1
  C  C668  1  0.254000  0.159800  0.231400  1
  C  C669  1  0.094200  0.071600  0.840200  1
  C  C670  1  0.977400  0.231400  0.071600  1
  C  C671  1  0.746000  0.840200  0.768600  1
  C  C672  1  0.905800  0.928400  0.159800  1
  C  C673  1  0.007800  0.750900  0.944000  1
  C  C674  1  0.256900  0.193100  0.249100  1
  C  C675  1  0.063800  0.056000  0.806900  1
  C  C676  1  0.992200  0.249100  0.056000  1
  C  C677  1  0.743100  0.806900  0.750900  1
  C  C678  1  0.936200  0.944000  0.193100  1
  C  C679  1  0.039600  0.740400  0.958700  1
  C  C680  1  0.299200  0.218300  0.259600  1
  C  C681  1  0.080900  0.041300  0.781700  1
  C  C682  1  0.960400  0.259600  0.041300  1
  C  C683  1  0.700800  0.781700  0.740400  1
  C  C684  1  0.919100  0.958700  0.218300  1
  C  C685  1  0.089700  0.736600  0.032400  1
  C  C686  1  0.353100  0.295800  0.263400  1
  C  C687  1  0.057300  0.967600  0.704200  1
  C  C688  1  0.910300  0.263400  0.967600  1
  C  C689  1  0.646900  0.704200  0.736600  1
  C  C690  1  0.942700  0.032400  0.295800  1
  C  C691  1  0.059000  0.720100  0.042900  1
  C  C692  1  0.338900  0.322800  0.279900  1
  C  C693  1  0.016100  0.957100  0.677200  1
  C  C694  1  0.941000  0.279900  0.957100  1
  C  C695  1  0.661100  0.677200  0.720100  1
  C  C696  1  0.983900  0.042900  0.322800  1
  C  C697  1  0.036000  0.685500  0.024700  1
  C  C698  1  0.350500  0.339200  0.314500  1
  C  C699  1  0.011300  0.975300  0.660800  1
  C  C700  1  0.964000  0.314500  0.975300  1
  C  C701  1  0.649500  0.660800  0.685500  1
  C  C702  1  0.988700  0.024700  0.339200  1
  C  C703  1  0.041200  0.668500  0.994300  1
  C  C704  1  0.372700  0.325800  0.331500  1
  C  C705  1  0.046900  0.005700  0.674200  1
  C  C706  1  0.958800  0.331500  0.005700  1
  C  C707  1  0.627300  0.674200  0.668500  1
  C  C708  1  0.953100  0.994300  0.325800  1
  C  C709  1  0.072400  0.685800  0.984200  1
  C  C710  1  0.386600  0.298400  0.314200  1
  C  C711  1  0.088200  0.015800  0.701600  1
  C  C712  1  0.927600  0.314200  0.015800  1
  C  C713  1  0.613400  0.701600  0.685800  1
  C  C714  1  0.911800  0.984200  0.298400  1
  C  C715  1  0.080900  0.670900  0.954400  1
  C  C716  1  0.410000  0.283500  0.329100  1
  C  C717  1  0.126500  0.045600  0.716500  1
  C  C718  1  0.919100  0.329100  0.045600  1
  C  C719  1  0.590000  0.716500  0.670900  1
  C  C720  1  0.873500  0.954400  0.283500  1
  C  C721  1  0.121600  0.675000  0.918800  1
  C  C722  1  0.446600  0.243800  0.325000  1
  C  C723  1  0.202800  0.081200  0.756200  1
  C  C724  1  0.878400  0.325000  0.081200  1
  C  C725  1  0.553400  0.756200  0.675000  1
  C  C726  1  0.797200  0.918800  0.243800  1
  C  C727  1  0.144800  0.651900  0.914900  1
  C  C728  1  0.492900  0.263000  0.348100  1
  C  C729  1  0.229900  0.085100  0.737000  1
  C  C730  1  0.855200  0.348100  0.085100  1
  C  C731  1  0.507100  0.737000  0.651900  1
  C  C732  1  0.770100  0.914900  0.263000  1
  C  C733  1  0.155900  0.638300  0.886200  1
  C  C734  1  0.517600  0.247900  0.361700  1
  C  C735  1  0.269700  0.113800  0.752100  1
  C  C736  1  0.844100  0.361700  0.113800  1
  C  C737  1  0.482400  0.752100  0.638300  1
  C  C738  1  0.730300  0.886200  0.247900  1
  C  C739  1  0.144600  0.646100  0.861600  1
  C  C740  1  0.498500  0.215500  0.353900  1
  C  C741  1  0.283000  0.138400  0.784500  1
  C  C742  1  0.855400  0.353900  0.138400  1
  C  C743  1  0.501500  0.784500  0.646100  1
  C  C744  1  0.717000  0.861600  0.215500  1
  C  C745  1  0.118200  0.667400  0.866100  1
  C  C746  1  0.450800  0.198700  0.332600  1
  C  C747  1  0.252100  0.133900  0.801300  1
  C  C748  1  0.881800  0.332600  0.133900  1
  C  C749  1  0.549200  0.801300  0.667400  1
  C  C750  1  0.747900  0.866100  0.198700  1
  C  C751  1  0.108900  0.682800  0.894500  1
  C  C752  1  0.426100  0.211700  0.317200  1
  C  C753  1  0.214400  0.105500  0.788300  1
  C  C754  1  0.891100  0.317200  0.105500  1
  C  C755  1  0.573900  0.788300  0.682800  1
  C  C756  1  0.785600  0.894500  0.211700  1
  C  C757  1  0.157100  0.631800  0.830300  1
  C  C758  1  0.525300  0.198500  0.368200  1
  C  C759  1  0.326800  0.169700  0.801500  1
  C  C760  1  0.842900  0.368200  0.169700  1
  C  C761  1  0.474700  0.801500  0.631800  1
  C  C762  1  0.673200  0.830300  0.198500  1
  C  C763  1  0.171200  0.651800  0.816600  1
  C  C764  1  0.519400  0.164800  0.348200  1
  C  C765  1  0.354600  0.183400  0.835200  1
  C  C766  1  0.828800  0.348200  0.183400  1
  C  C767  1  0.480600  0.835200  0.651800  1
  C  C768  1  0.645400  0.816600  0.164800  1
  C  C769  1  0.179800  0.639100  0.787300  1
  C  C770  1  0.540700  0.148200  0.360900  1
  C  C771  1  0.392500  0.212700  0.851800  1
  C  C772  1  0.820200  0.360900  0.212700  1
  C  C773  1  0.459300  0.851800  0.639100  1
  C  C774  1  0.607500  0.787300  0.148200  1
  C  C775  1  0.173200  0.604800  0.769400  1
  C  C776  1  0.568400  0.164600  0.395200  1
  C  C777  1  0.403800  0.230600  0.835400  1
  C  C778  1  0.826800  0.395200  0.230600  1
  C  C779  1  0.431600  0.835400  0.604800  1
  C  C780  1  0.596200  0.769400  0.164600  1
  C  C781  1  0.177500  0.589900  0.738100  1
  C  C782  1  0.587600  0.148200  0.410100  1
  C  C783  1  0.439400  0.261900  0.851800  1
  C  C784  1  0.822500  0.410100  0.261900  1
  C  C785  1  0.412400  0.851800  0.589900  1
  C  C786  1  0.560600  0.738100  0.148200  1
  C  C787  1  0.170300  0.556300  0.721300  1
  C  C788  1  0.614000  0.165000  0.443700  1
  C  C789  1  0.449000  0.278700  0.835000  1
  C  C790  1  0.829700  0.443700  0.278700  1
  C  C791  1  0.386000  0.835000  0.556300  1
  C  C792  1  0.551000  0.721300  0.165000  1
  C  C793  1  0.173880  0.540280  0.688960  1
  C  C794  1  0.633600  0.148680  0.459720  1
  C  C795  1  0.484920  0.311040  0.851320  1
  C  C796  1  0.826120  0.459720  0.311040  1
  C  C797  1  0.366400  0.851320  0.540280  1
  C  C798  1  0.515080  0.688960  0.148680  1
  C  C799  1  0.169520  0.508320  0.672740  1
  C  C800  1  0.661200  0.164420  0.491680  1
  C  C801  1  0.496780  0.327260  0.835580  1
  C  C802  1  0.830480  0.491680  0.327260  1
  C  C803  1  0.338800  0.835580  0.508320  1
  C  C804  1  0.503220  0.672740  0.164420  1
  C  C805  1  0.158800  0.489100  0.688000  1
  C  C806  1  0.669700  0.198900  0.510900  1
  C  C807  1  0.470800  0.312000  0.801100  1
  C  C808  1  0.841200  0.510900  0.312000  1
  C  C809  1  0.330300  0.801100  0.489100  1
  C  C810  1  0.529200  0.688000  0.198900  1
  C  C811  1  0.154800  0.502600  0.718600  1
  C  C812  1  0.652200  0.216000  0.497400  1
  C  C813  1  0.436200  0.281400  0.784000  1
  C  C814  1  0.845200  0.497400  0.281400  1
  C  C815  1  0.347800  0.784000  0.502600  1
  C  C816  1  0.563800  0.718600  0.216000  1
  C  C817  1  0.160800  0.537000  0.736400  1
  C  C818  1  0.623800  0.199400  0.463000  1
  C  C819  1  0.424400  0.263600  0.800600  1
  C  C820  1  0.839200  0.463000  0.263600  1
  C  C821  1  0.376200  0.800600  0.537000  1
  C  C822  1  0.575600  0.736400  0.199400  1
  C  C823  1  0.157800  0.552100  0.768700  1
  C  C824  1  0.605700  0.216600  0.447900  1
  C  C825  1  0.389100  0.231300  0.783400  1
  C  C826  1  0.842200  0.447900  0.231300  1
  C  C827  1  0.394300  0.783400  0.552100  1
  C  C828  1  0.610900  0.768700  0.216600  1
  C  C829  1  0.162900  0.585300  0.784400  1
  C  C830  1  0.577600  0.199100  0.414700  1
  C  C831  1  0.378500  0.215600  0.800900  1
  C  C832  1  0.837100  0.414700  0.215600  1
  C  C833  1  0.422400  0.800900  0.585300  1
  C  C834  1  0.621500  0.784400  0.199100  1
  C  C835  1  0.155600  0.600700  0.816400  1
  C  C836  1  0.554900  0.215700  0.399300  1
  C  C837  1  0.339200  0.183600  0.784300  1
  C  C838  1  0.844400  0.399300  0.183600  1
  C  C839  1  0.445100  0.784300  0.600700  1
  C  C840  1  0.660800  0.816400  0.215700  1
  C  C841  1  0.176060  0.493760  0.640020  1
  C  C842  1  0.682300  0.146260  0.506240  1
  C  C843  1  0.536040  0.359980  0.853740  1
  C  C844  1  0.823940  0.506240  0.359980  1
  C  C845  1  0.317700  0.853740  0.493760  1
  C  C846  1  0.463960  0.640020  0.146260  1
  C  C847  1  0.197200  0.469400  0.631200  1
  C  C848  1  0.727800  0.161800  0.530600  1
  C  C849  1  0.566000  0.368800  0.838200  1
  C  C850  1  0.802800  0.530600  0.368800  1
  C  C851  1  0.272200  0.838200  0.469400  1
  C  C852  1  0.434000  0.631200  0.161800  1
  C  C853  1  0.204900  0.457300  0.601300  1
  C  C854  1  0.747600  0.144000  0.542700  1
  C  C855  1  0.603600  0.398700  0.856000  1
  C  C856  1  0.795100  0.542700  0.398700  1
  C  C857  1  0.252400  0.856000  0.457300  1
  C  C858  1  0.396400  0.601300  0.144000  1
  C  C859  1  0.190510  0.467610  0.578720  1
  C  C860  1  0.722900  0.111110  0.532390  1
  C  C861  1  0.611790  0.421280  0.888890  1
  C  C862  1  0.809490  0.532390  0.421280  1
  C  C863  1  0.277100  0.888890  0.467610  1
  C  C864  1  0.388210  0.578720  0.111110  1
  C  C865  1  0.166190  0.490220  0.585750  1
  C  C866  1  0.675970  0.095530  0.509780  1
  C  C867  1  0.580440  0.414250  0.904470  1
  C  C868  1  0.833810  0.509780  0.414250  1
  C  C869  1  0.324030  0.904470  0.490220  1
  C  C870  1  0.419560  0.585750  0.095530  1
  C  C871  1  0.159700  0.502700  0.616500  1
  C  C872  1  0.657000  0.113800  0.497300  1
  C  C873  1  0.543200  0.383500  0.886200  1
  C  C874  1  0.840300  0.497300  0.383500  1
  C  C875  1  0.343000  0.886200  0.502700  1
  C  C876  1  0.456800  0.616500  0.113800  1
  C  C877  1  0.186790  0.423090  0.531080  1
  C  C878  1  0.763700  0.107990  0.576910  1
  C  C879  1  0.655710  0.468920  0.892010  1
  C  C880  1  0.813210  0.576910  0.468920  1
  C  C881  1  0.236300  0.892010  0.423090  1
  C  C882  1  0.344290  0.531080  0.107990  1
  C  C883  1  0.199060  0.408860  0.501720  1
  C  C884  1  0.790200  0.092860  0.591140  1
  C  C885  1  0.697340  0.498280  0.907140  1
  C  C886  1  0.800940  0.591140  0.498280  1
  C  C887  1  0.209800  0.907140  0.408860  1
  C  C888  1  0.302660  0.501720  0.092860  1
  C  C889  1  0.189800  0.374700  0.482000  1
  C  C890  1  0.815100  0.107300  0.625300  1
  C  C891  1  0.707800  0.518000  0.892700  1
  C  C892  1  0.810200  0.625300  0.518000  1
  C  C893  1  0.184900  0.892700  0.374700  1
  C  C894  1  0.292200  0.482000  0.107300  1
  C  C895  1  0.205500  0.364100  0.455400  1
  C  C896  1  0.841400  0.091300  0.635900  1
  C  C897  1  0.750100  0.544600  0.908700  1
  C  C898  1  0.794500  0.635900  0.544600  1
  C  C899  1  0.158600  0.908700  0.364100  1
  C  C900  1  0.249900  0.455400  0.091300  1
  C  C901  1  0.228400  0.387900  0.449000  1
  C  C902  1  0.840500  0.061100  0.612100  1
  C  C903  1  0.779400  0.551000  0.938900  1
  C  C904  1  0.771600  0.612100  0.551000  1
  C  C905  1  0.159500  0.938900  0.387900  1
  C  C906  1  0.220600  0.449000  0.061100  1
  C  C907  1  0.236000  0.421100  0.469200  1
  C  C908  1  0.814900  0.048100  0.578900  1
  C  C909  1  0.766800  0.530800  0.951900  1
  C  C910  1  0.764000  0.578900  0.530800  1
  C  C911  1  0.185100  0.951900  0.421100  1
  C  C912  1  0.233200  0.469200  0.048100  1
  C  C913  1  0.139100  0.807700  0.025800  1
  C  C914  1  0.331400  0.218100  0.192300  1
  C  C915  1  0.113300  0.974200  0.781900  1
  C  C916  1  0.860900  0.192300  0.974200  1
  C  C917  1  0.668600  0.781900  0.807700  1
  C  C918  1  0.886700  0.025800  0.218100  1
  C  C919  1  0.162900  0.839900  0.052700  1
  C  C920  1  0.323000  0.212800  0.160100  1
  C  C921  1  0.110200  0.947300  0.787200  1
  C  C922  1  0.837100  0.160100  0.947300  1
  C  C923  1  0.677000  0.787200  0.839900  1
  C  C924  1  0.889800  0.052700  0.212800  1
  C  C925  1  0.207400  0.848400  0.075400  1
  C  C926  1  0.359000  0.227000  0.151600  1
  C  C927  1  0.132000  0.924600  0.773000  1
  C  C928  1  0.792600  0.151600  0.924600  1
  C  C929  1  0.641000  0.773000  0.848400  1
  C  C930  1  0.868000  0.075400  0.227000  1
  C  C931  1  0.229500  0.824700  0.070000  1
  C  C932  1  0.404800  0.245300  0.175300  1
  C  C933  1  0.159500  0.930000  0.754700  1
  C  C934  1  0.770500  0.175300  0.930000  1
  C  C935  1  0.595200  0.754700  0.824700  1
  C  C936  1  0.840500  0.070000  0.245300  1
  C  C937  1  0.204400  0.792500  0.043400  1
  C  C938  1  0.411900  0.250900  0.207500  1
  C  C939  1  0.161000  0.956600  0.749100  1
  C  C940  1  0.795600  0.207500  0.956600  1
  C  C941  1  0.588100  0.749100  0.792500  1
  C  C942  1  0.839000  0.043400  0.250900  1
  C  C943  1  0.221100  0.766000  0.036600  1
  C  C944  1  0.455100  0.270600  0.234000  1
  C  C945  1  0.184500  0.963400  0.729400  1
  C  C946  1  0.778900  0.234000  0.963400  1
  C  C947  1  0.544900  0.729400  0.766000  1
  C  C948  1  0.815500  0.036600  0.270600  1
  C  C949  1  0.213180  0.710700  0.003040  1
  C  C950  1  0.502480  0.292340  0.289300  1
  C  C951  1  0.210140  0.996960  0.707660  1
  C  C952  1  0.786820  0.289300  0.996960  1
  C  C953  1  0.497520  0.707660  0.710700  1
  C  C954  1  0.789860  0.003040  0.292340  1
  C  C955  1  0.187000  0.682010  0.001490  1
  C  C956  1  0.504990  0.319480  0.317990  1
  C  C957  1  0.185510  0.998510  0.680520  1
  C  C958  1  0.813000  0.317990  0.998510  1
  C  C959  1  0.495010  0.680520  0.682010  1
  C  C960  1  0.814490  0.001490  0.319480  1
  C  C961  1  0.203220  0.655740  0.993020  1
  C  C962  1  0.547480  0.337280  0.344260  1
  C  C963  1  0.210200  0.006980  0.662720  1
  C  C964  1  0.796780  0.344260  0.006980  1
  C  C965  1  0.452520  0.662720  0.655740  1
  C  C966  1  0.789800  0.993020  0.337280  1
  C  C967  1  0.244610  0.656600  0.985230  1
  C  C968  1  0.588010  0.328630  0.343400  1
  C  C969  1  0.259380  0.014770  0.671370  1
  C  C970  1  0.755390  0.343400  0.014770  1
  C  C971  1  0.411990  0.671370  0.656600  1
  C  C972  1  0.740620  0.985230  0.328630  1
  C  C973  1  0.271980  0.686740  0.990700  1
  C  C974  1  0.585240  0.303960  0.313260  1
  C  C975  1  0.281280  0.009300  0.696040  1
  C  C976  1  0.728020  0.313260  0.009300  1
  C  C977  1  0.414760  0.696040  0.686740  1
  C  C978  1  0.718720  0.990700  0.303960  1
  C  C979  1  0.256140  0.713220  0.998900  1
  C  C980  1  0.542920  0.285680  0.286780  1
  C  C981  1  0.257240  0.001100  0.714320  1
  C  C982  1  0.743860  0.286780  0.001100  1
  C  C983  1  0.457080  0.714320  0.713220  1
  C  C984  1  0.742760  0.998900  0.285680  1
  C  C985  1  0.259930  0.626760  0.973430  1
  C  C986  1  0.633170  0.346670  0.373240  1
  C  C987  1  0.286500  0.026570  0.653330  1
  C  C988  1  0.740070  0.373240  0.026570  1
  C  C989  1  0.366830  0.653330  0.626760  1
  C  C990  1  0.713500  0.973430  0.346670  1
  C  C991  1  0.308850  0.630510  0.984140  1
  C  C992  1  0.678340  0.353630  0.369490  1
  C  C993  1  0.324710  0.015860  0.646370  1
  C  C994  1  0.691150  0.369490  0.015860  1
  C  C995  1  0.321660  0.646370  0.630510  1
  C  C996  1  0.675290  0.984140  0.353630  1
  C  C997  1  0.322140  0.602900  0.973620  1
  C  C998  1  0.719240  0.370720  0.397100  1
  C  C999  1  0.348520  0.026380  0.629280  1
  C  C1000  1  0.677860  0.397100  0.026380  1
  C  C1001  1  0.280760  0.629280  0.602900  1
  C  C1002  1  0.651480  0.973620  0.370720  1
  C  C1003  1  0.288910  0.570550  0.952180  1
  C  C1004  1  0.718360  0.381630  0.429450  1
  C  C1005  1  0.336730  0.047820  0.618370  1
  C  C1006  1  0.711090  0.429450  0.047820  1
  C  C1007  1  0.281640  0.618370  0.570550  1
  C  C1008  1  0.663270  0.952180  0.381630  1
  C  C1009  1  0.300440  0.542090  0.942330  1
  C  C1010  1  0.758350  0.400240  0.457910  1
  C  C1011  1  0.358110  0.057670  0.599760  1
  C  C1012  1  0.699560  0.457910  0.057670  1
  C  C1013  1  0.241650  0.599760  0.542090  1
  C  C1014  1  0.641890  0.942330  0.400240  1
  C  C1015  1  0.266460  0.510200  0.921480  1
  C  C1016  1  0.756260  0.411280  0.489800  1
  C  C1017  1  0.344980  0.078520  0.588720  1
  C  C1018  1  0.733540  0.489800  0.078520  1
  C  C1019  1  0.243740  0.588720  0.510200  1
  C  C1020  1  0.655020  0.921480  0.411280  1
  C  C1021  1  0.278410  0.480940  0.914290  1
  C  C1022  1  0.797470  0.433350  0.519060  1
  C  C1023  1  0.364120  0.085710  0.566650  1
  C  C1024  1  0.721590  0.519060  0.085710  1
  C  C1025  1  0.202530  0.566650  0.480940  1
  C  C1026  1  0.635880  0.914290  0.433350  1
  C  C1027  1  0.245400  0.450390  0.896210  1
  C  C1028  1  0.795010  0.445820  0.549610  1
  C  C1029  1  0.349190  0.103790  0.554180  1
  C  C1030  1  0.754600  0.549610  0.103790  1
  C  C1031  1  0.204990  0.554180  0.450390  1
  C  C1032  1  0.650810  0.896210  0.445820  1
  C  C1033  1  0.196800  0.446700  0.881900  1
  C  C1034  1  0.750100  0.435200  0.553300  1
  C  C1035  1  0.314900  0.118100  0.564800  1
  C  C1036  1  0.803200  0.553300  0.118100  1
  C  C1037  1  0.249900  0.564800  0.446700  1
  C  C1038  1  0.685100  0.881900  0.435200  1
  C  C1039  1  0.183900  0.474100  0.888700  1
  C  C1040  1  0.709800  0.414600  0.525900  1
  C  C1041  1  0.295200  0.111300  0.585400  1
  C  C1042  1  0.816100  0.525900  0.111300  1
  C  C1043  1  0.290200  0.585400  0.474100  1
  C  C1044  1  0.704800  0.888700  0.414600  1
  C  C1045  1  0.218820  0.506850  0.909410  1
  C  C1046  1  0.711970  0.402560  0.493150  1
  C  C1047  1  0.309410  0.090590  0.597440  1
  C  C1048  1  0.781180  0.493150  0.090590  1
  C  C1049  1  0.288030  0.597440  0.506850  1
  C  C1050  1  0.690590  0.909410  0.402560  1
  C  C1051  1  0.206070  0.535360  0.919750  1
  C  C1052  1  0.670710  0.384390  0.464640  1
  C  C1053  1  0.286320  0.080250  0.615610  1
  C  C1054  1  0.793930  0.464640  0.080250  1
  C  C1055  1  0.329290  0.615610  0.535360  1
  C  C1056  1  0.713680  0.919750  0.384390  1
  C  C1057  1  0.239900  0.566920  0.940780  1
  C  C1058  1  0.672980  0.373860  0.433080  1
  C  C1059  1  0.299120  0.059220  0.626140  1
  C  C1060  1  0.760100  0.433080  0.059220  1
  C  C1061  1  0.327020  0.626140  0.566920  1
  C  C1062  1  0.700880  0.940780  0.373860  1
  C  C1063  1  0.227580  0.596620  0.952420  1
  C  C1064  1  0.630960  0.355800  0.403380  1
  C  C1065  1  0.275160  0.047580  0.644200  1
  C  C1066  1  0.772420  0.403380  0.047580  1
  C  C1067  1  0.369040  0.644200  0.596620  1
  C  C1068  1  0.724840  0.952420  0.355800  1
  C  C1069  1  0.258470  0.421070  0.893340  1
  C  C1070  1  0.837400  0.472270  0.578930  1
  C  C1071  1  0.365130  0.106660  0.527730  1
  C  C1072  1  0.741530  0.578930  0.106660  1
  C  C1073  1  0.162600  0.527730  0.421070  1
  C  C1074  1  0.634870  0.893340  0.472270  1
  C  C1075  1  0.304370  0.419640  0.893870  1
  C  C1076  1  0.884730  0.474230  0.580360  1
  C  C1077  1  0.410500  0.106130  0.525770  1
  C  C1078  1  0.695630  0.580360  0.106130  1
  C  C1079  1  0.115270  0.525770  0.419640  1
  C  C1080  1  0.589500  0.893870  0.474230  1
  C  C1081  1  0.315880  0.393020  0.892920  1
  C  C1082  1  0.922860  0.499900  0.606980  1
  C  C1083  1  0.422960  0.107080  0.500100  1
  C  C1084  1  0.684120  0.606980  0.107080  1
  C  C1085  1  0.077140  0.500100  0.393020  1
  C  C1086  1  0.577040  0.892920  0.499900  1
  C  C1087  1  0.282330  0.366360  0.890330  1
  C  C1088  1  0.915970  0.523970  0.633640  1
  C  C1089  1  0.392000  0.109670  0.476030  1
  C  C1090  1  0.717670  0.633640  0.109670  1
  C  C1091  1  0.084030  0.476030  0.366360  1
  C  C1092  1  0.608000  0.890330  0.523970  1
  C  C1093  1  0.236400  0.366680  0.889320  1
  C  C1094  1  0.869720  0.522640  0.633320  1
  C  C1095  1  0.347080  0.110680  0.477360  1
  C  C1096  1  0.763600  0.633320  0.110680  1
  C  C1097  1  0.130280  0.477360  0.366680  1
  C  C1098  1  0.652920  0.889320  0.522640  1
  C  C1099  1  0.225000  0.393410  0.889290  1
  C  C1100  1  0.831590  0.495880  0.606590  1
  C  C1101  1  0.335710  0.110710  0.504120  1
  C  C1102  1  0.775000  0.606590  0.110710  1
  C  C1103  1  0.168410  0.504120  0.393410  1
  C  C1104  1  0.664290  0.889290  0.495880  1
  C  C1105  1  0.325000  0.344210  0.916590  1
  C  C1106  1  0.980790  0.572380  0.655790  1
  C  C1107  1  0.408410  0.083410  0.427620  1
  C  C1108  1  0.675000  0.655790  0.083410  1
  C  C1109  1  0.019210  0.427620  0.344210  1
  C  C1110  1  0.591590  0.916590  0.572380  1
  C  C1111  1  0.335200  0.315760  0.915640  1
  C  C1112  1  0.019440  0.599880  0.684240  1
  C  C1113  1  0.419560  0.084360  0.400120  1
  C  C1114  1  0.664800  0.684240  0.084360  1
  C  C1115  1  0.980560  0.400120  0.315760  1
  C  C1116  1  0.580440  0.915640  0.599880  1
  C  C1117  1  0.365200  0.316600  0.943600  1
  C  C1118  1  0.048600  0.627000  0.683400  1
  C  C1119  1  0.421600  0.056400  0.373000  1
  C  C1120  1  0.634800  0.683400  0.056400  1
  C  C1121  1  0.951400  0.373000  0.316600  1
  C  C1122  1  0.578400  0.943600  0.627000  1
  C  C1123  1  0.373200  0.288500  0.939600  1
  C  C1124  1  0.084700  0.651100  0.711500  1
  C  C1125  1  0.433600  0.060400  0.348900  1
  C  C1126  1  0.626800  0.711500  0.060400  1
  C  C1127  1  0.915300  0.348900  0.288500  1
  C  C1128  1  0.566400  0.939600  0.651100  1
  C  C1129  1  0.351300  0.260000  0.908700  1
  C  C1130  1  0.091300  0.648700  0.740000  1
  C  C1131  1  0.442600  0.091300  0.351300  1
  C  C1132  1  0.648700  0.740000  0.091300  1
  C  C1133  1  0.908700  0.351300  0.260000  1
  C  C1134  1  0.557400  0.908700  0.648700  1
  C  C1135  1  0.323200  0.260540  0.882360  1
  C  C1136  1  0.062660  0.621820  0.739460  1
  C  C1137  1  0.440840  0.117640  0.378180  1
  C  C1138  1  0.676800  0.739460  0.117640  1
  C  C1139  1  0.937340  0.378180  0.260540  1
  C  C1140  1  0.559160  0.882360  0.621820  1
  C  C1141  1  0.216200  0.273000  0.890000  1
  C  C1142  1  0.943200  0.617000  0.727000  1
  C  C1143  1  0.326200  0.110000  0.383000  1
  C  C1144  1  0.783800  0.727000  0.110000  1
  C  C1145  1  0.056800  0.383000  0.273000  1
  C  C1146  1  0.673800  0.890000  0.617000  1
  C  C1147  1  0.174200  0.264100  0.896200  1
  C  C1148  1  0.910100  0.632100  0.735900  1
  C  C1149  1  0.278000  0.103800  0.367900  1
  C  C1150  1  0.825800  0.735900  0.103800  1
  C  C1151  1  0.089900  0.367900  0.264100  1
  C  C1152  1  0.722000  0.896200  0.632100  1
  C  C1153  1  0.132100  0.264600  0.878900  1
  C  C1154  1  0.867500  0.614300  0.735400  1
  C  C1155  1  0.253200  0.121100  0.385700  1
  C  C1156  1  0.867900  0.735400  0.121100  1
  C  C1157  1  0.132500  0.385700  0.264600  1
  C  C1158  1  0.746800  0.878900  0.614300  1
  C  C1159  1  0.131200  0.272100  0.853700  1
  C  C1160  1  0.859100  0.581600  0.727900  1
  C  C1161  1  0.277500  0.146300  0.418400  1
  C  C1162  1  0.868800  0.727900  0.146300  1
  C  C1163  1  0.140900  0.418400  0.272100  1
  C  C1164  1  0.722500  0.853700  0.581600  1
  C  C1165  1  0.174100  0.280300  0.847600  1
  C  C1166  1  0.893800  0.567300  0.719700  1
  C  C1167  1  0.326500  0.152400  0.432700  1
  C  C1168  1  0.825900  0.719700  0.152400  1
  C  C1169  1  0.106200  0.432700  0.280300  1
  C  C1170  1  0.673500  0.847600  0.567300  1
  C  C1171  1  0.177700  0.289600  0.823600  1
  C  C1172  1  0.888100  0.534000  0.710400  1
  C  C1173  1  0.354100  0.176400  0.466000  1
  C  C1174  1  0.822300  0.710400  0.176400  1
  C  C1175  1  0.111900  0.466000  0.289600  1
  C  C1176  1  0.645900  0.823600  0.534000  1
  C  C1177  1  0.224800  0.307300  0.797500  1
  C  C1178  1  0.917500  0.490200  0.692700  1
  C  C1179  1  0.427300  0.202500  0.509800  1
  C  C1180  1  0.775200  0.692700  0.202500  1
  C  C1181  1  0.082500  0.509800  0.307300  1
  C  C1182  1  0.572700  0.797500  0.490200  1
  C  C1183  1  0.242700  0.341000  0.806700  1
  C  C1184  1  0.901700  0.465700  0.659000  1
  C  C1185  1  0.436000  0.193300  0.534300  1
  C  C1186  1  0.757300  0.659000  0.193300  1
  C  C1187  1  0.098300  0.534300  0.341000  1
  C  C1188  1  0.564000  0.806700  0.465700  1
  C  C1189  1  0.245700  0.348000  0.781400  1
  C  C1190  1  0.897700  0.433400  0.652000  1
  C  C1191  1  0.464300  0.218600  0.566600  1
  C  C1192  1  0.754300  0.652000  0.218600  1
  C  C1193  1  0.102300  0.566600  0.348000  1
  C  C1194  1  0.535700  0.781400  0.433400  1
  C  C1195  1  0.236200  0.324400  0.749500  1
  C  C1196  1  0.911800  0.425100  0.675600  1
  C  C1197  1  0.486700  0.250500  0.574900  1
  C  C1198  1  0.763800  0.675600  0.250500  1
  C  C1199  1  0.088200  0.574900  0.324400  1
  C  C1200  1  0.513300  0.749500  0.425100  1
  C  C1201  1  0.218200  0.291200  0.741600  1
  C  C1202  1  0.927000  0.450400  0.708800  1
  C  C1203  1  0.476600  0.258400  0.549600  1
  C  C1204  1  0.781800  0.708800  0.258400  1
  C  C1205  1  0.073000  0.549600  0.291200  1
  C  C1206  1  0.523400  0.741600  0.450400  1
  C  C1207  1  0.213900  0.283400  0.765600  1
  C  C1208  1  0.930500  0.482200  0.716600  1
  C  C1209  1  0.448300  0.234400  0.517800  1
  C  C1210  1  0.786100  0.716600  0.234400  1
  C  C1211  1  0.069500  0.517800  0.283400  1
  C  C1212  1  0.551700  0.765600  0.482200  1
  C  C1213  1  0.243000  0.333400  0.723700  1
  C  C1214  1  0.909600  0.390300  0.666600  1
  C  C1215  1  0.519300  0.276300  0.609700  1
  C  C1216  1  0.757000  0.666600  0.276300  1
  C  C1217  1  0.090400  0.609700  0.333400  1
  C  C1218  1  0.480700  0.723700  0.390300  1
  C  C1219  1  0.209200  0.313600  0.690700  1
  C  C1220  1  0.895600  0.377100  0.686400  1
  C  C1221  1  0.518500  0.309300  0.622900  1
  C  C1222  1  0.790800  0.686400  0.309300  1
  C  C1223  1  0.104400  0.622900  0.313600  1
  C  C1224  1  0.481500  0.690700  0.377100  1
  C  C1225  1  0.211800  0.321800  0.667200  1
  C  C1226  1  0.890000  0.345400  0.678200  1
  C  C1227  1  0.544600  0.332800  0.654600  1
  C  C1228  1  0.788200  0.678200  0.332800  1
  C  C1229  1  0.110000  0.654600  0.321800  1
  C  C1230  1  0.455400  0.667200  0.345400  1
  C  C1231  1  0.247700  0.350600  0.674100  1
  C  C1232  1  0.897100  0.323500  0.649400  1
  C  C1233  1  0.573600  0.325900  0.676500  1
  C  C1234  1  0.752300  0.649400  0.325900  1
  C  C1235  1  0.102900  0.676500  0.350600  1
  C  C1236  1  0.426400  0.674100  0.323500  1
  C  C1237  1  0.250500  0.361000  0.650800  1
  C  C1238  1  0.889500  0.289800  0.639000  1
  C  C1239  1  0.599700  0.349200  0.710200  1
  C  C1240  1  0.749500  0.639000  0.349200  1
  C  C1241  1  0.110500  0.710200  0.361000  1
  C  C1242  1  0.400300  0.650800  0.289800  1
  C  C1243  1  0.284900  0.391100  0.660000  1
  C  C1244  1  0.893800  0.268900  0.608900  1
  C  C1245  1  0.624900  0.340000  0.731100  1
  C  C1246  1  0.715100  0.608900  0.340000  1
  C  C1247  1  0.106200  0.731100  0.391100  1
  C  C1248  1  0.375100  0.660000  0.268900  1
  C  C1249  1  0.286600  0.403900  0.637600  1
  C  C1250  1  0.882700  0.233700  0.596100  1
  C  C1251  1  0.649000  0.362400  0.766300  1
  C  C1252  1  0.713400  0.596100  0.362400  1
  C  C1253  1  0.117300  0.766300  0.403900  1
  C  C1254  1  0.351000  0.637600  0.233700  1
  C  C1255  1  0.320100  0.432200  0.645900  1
  C  C1256  1  0.887900  0.213700  0.567800  1
  C  C1257  1  0.674200  0.354100  0.786300  1
  C  C1258  1  0.679900  0.567800  0.354100  1
  C  C1259  1  0.112100  0.786300  0.432200  1
  C  C1260  1  0.325800  0.645900  0.213700  1
  C  C1261  1  0.354500  0.451800  0.678800  1
  C  C1262  1  0.902700  0.227000  0.548200  1
  C  C1263  1  0.675700  0.321200  0.773000  1
  C  C1264  1  0.645500  0.548200  0.321200  1
  C  C1265  1  0.097300  0.773000  0.451800  1
  C  C1266  1  0.324300  0.678800  0.227000  1
  C  C1267  1  0.354500  0.440900  0.701400  1
  C  C1268  1  0.913600  0.260500  0.559100  1
  C  C1269  1  0.653100  0.298600  0.739500  1
  C  C1270  1  0.645500  0.559100  0.298600  1
  C  C1271  1  0.086400  0.739500  0.440900  1
  C  C1272  1  0.346900  0.701400  0.260500  1
  C  C1273  1  0.320000  0.409400  0.691800  1
  C  C1274  1  0.910600  0.282400  0.590600  1
  C  C1275  1  0.628200  0.308200  0.717600  1
  C  C1276  1  0.680000  0.590600  0.308200  1
  C  C1277  1  0.089400  0.717600  0.409400  1
  C  C1278  1  0.371800  0.691800  0.282400  1
  C  C1279  1  0.317600  0.398700  0.714800  1
  C  C1280  1  0.918900  0.316100  0.601300  1
  C  C1281  1  0.602800  0.285200  0.683900  1
  C  C1282  1  0.682400  0.601300  0.285200  1
  C  C1283  1  0.081100  0.683900  0.398700  1
  C  C1284  1  0.397200  0.714800  0.316100  1
  C  C1285  1  0.280400  0.371500  0.707800  1
  C  C1286  1  0.908900  0.336300  0.628500  1
  C  C1287  1  0.572600  0.292200  0.663700  1
  C  C1288  1  0.719600  0.628500  0.292200  1
  C  C1289  1  0.091100  0.663700  0.371500  1
  C  C1290  1  0.427400  0.707800  0.336300  1
  C  C1291  1  0.275500  0.361400  0.732000  1
  C  C1292  1  0.914100  0.370600  0.638600  1
  C  C1293  1  0.543500  0.268000  0.629400  1
  C  C1294  1  0.724500  0.638600  0.268000  1
  C  C1295  1  0.085900  0.629400  0.361400  1
  C  C1296  1  0.456500  0.732000  0.370600  1
  C  C1297  1  0.319000  0.444900  0.622100  1
  C  C1298  1  0.874100  0.177200  0.555100  1
  C  C1299  1  0.696900  0.377900  0.822800  1
  C  C1300  1  0.681000  0.555100  0.377900  1
  C  C1301  1  0.125900  0.822800  0.444900  1
  C  C1302  1  0.303100  0.622100  0.177200  1
  C  C1303  1  0.305400  0.422600  0.587700  1
  C  C1304  1  0.882800  0.165100  0.577400  1
  C  C1305  1  0.717700  0.412300  0.834900  1
  C  C1306  1  0.694600  0.577400  0.412300  1
  C  C1307  1  0.117200  0.834900  0.422600  1
  C  C1308  1  0.282300  0.587700  0.165100  1
  C  C1309  1  0.299300  0.434000  0.565800  1
  C  C1310  1  0.865300  0.131800  0.566000  1
  C  C1311  1  0.733500  0.434200  0.868200  1
  C  C1312  1  0.700700  0.566000  0.434200  1
  C  C1313  1  0.134700  0.868200  0.434000  1
  C  C1314  1  0.266500  0.565800  0.131800  1
  C  C1315  1  0.306800  0.467400  0.576200  1
  C  C1316  1  0.839400  0.108800  0.532600  1
  C  C1317  1  0.730600  0.423800  0.891200  1
  C  C1318  1  0.693200  0.532600  0.423800  1
  C  C1319  1  0.160600  0.891200  0.467400  1
  C  C1320  1  0.269400  0.576200  0.108800  1
  C  C1321  1  0.321400  0.489600  0.610400  1
  C  C1322  1  0.831800  0.120800  0.510400  1
  C  C1323  1  0.711000  0.389600  0.879200  1
  C  C1324  1  0.678600  0.510400  0.389600  1
  C  C1325  1  0.168200  0.879200  0.489600  1
  C  C1326  1  0.289000  0.610400  0.120800  1
  C  C1327  1  0.327100  0.478200  0.632600  1
  C  C1328  1  0.848900  0.154400  0.521800  1
  C  C1329  1  0.694500  0.367400  0.845600  1
  C  C1330  1  0.672900  0.521800  0.367400  1
  C  C1331  1  0.151100  0.845600  0.478200  1
  C  C1332  1  0.305500  0.632600  0.154400  1
  C  C1333  1  0.331200  0.485900  0.542400  1
  C  C1334  1  0.845300  0.056500  0.514100  1
  C  C1335  1  0.788800  0.457600  0.943500  1
  C  C1336  1  0.668800  0.514100  0.457600  1
  C  C1337  1  0.154700  0.943500  0.485900  1
  C  C1338  1  0.211200  0.542400  0.056500  1
  C  C1339  1  0.321700  0.497100  0.518900  1
  C  C1340  1  0.824600  0.021800  0.502900  1
  C  C1341  1  0.802800  0.481100  0.978200  1
  C  C1342  1  0.678300  0.502900  0.481100  1
  C  C1343  1  0.175400  0.978200  0.497100  1
  C  C1344  1  0.197200  0.518900  0.021800  1
  C  C1345  1  0.353700  0.506100  0.504800  1
  C  C1346  1  0.847600  0.998700  0.493900  1
  C  C1347  1  0.848900  0.495200  0.001300  1
  C  C1348  1  0.646300  0.493900  0.495200  1
  C  C1349  1  0.152400  0.001300  0.506100  1
  C  C1350  1  0.151100  0.504800  0.998700  1
  C  C1351  1  0.339100  0.515500  0.482200  1
  C  C1352  1  0.823600  0.966700  0.484500  1
  C  C1353  1  0.856900  0.517800  0.033300  1
  C  C1354  1  0.660900  0.484500  0.517800  1
  C  C1355  1  0.176400  0.033300  0.515500  1
  C  C1356  1  0.143100  0.482200  0.966700  1
  C  C1357  1  0.291100  0.511100  0.470100  1
  C  C1358  1  0.780000  0.959000  0.488900  1
  C  C1359  1  0.821000  0.529900  0.041000  1
  C  C1360  1  0.708900  0.488900  0.529900  1
  C  C1361  1  0.220000  0.041000  0.511100  1
  C  C1362  1  0.179000  0.470100  0.959000  1
  C  C1363  1  0.260800  0.502500  0.485300  1
  C  C1364  1  0.758300  0.982800  0.497500  1
  C  C1365  1  0.775500  0.514700  0.017200  1
  C  C1366  1  0.739200  0.497500  0.514700  1
  C  C1367  1  0.241700  0.017200  0.502500  1
  C  C1368  1  0.224500  0.485300  0.982800  1
  C  C1369  1  0.418200  0.503300  0.909600  1
  C  C1370  1  0.914900  0.406300  0.496700  1
  C  C1371  1  0.508600  0.090400  0.593700  1
  C  C1372  1  0.581800  0.496700  0.090400  1
  C  C1373  1  0.085100  0.593700  0.503300  1
  C  C1374  1  0.491400  0.909600  0.406300  1
  C  C1375  1  0.442100  0.517000  0.892000  1
  C  C1376  1  0.925100  0.375000  0.483000  1
  C  C1377  1  0.550100  0.108000  0.625000  1
  C  C1378  1  0.557900  0.483000  0.108000  1
  C  C1379  1  0.074900  0.625000  0.517000  1
  C  C1380  1  0.449900  0.892000  0.375000  1
  C  C1381  1  0.077600  0.133600  0.817000  1
  C  C1382  1  0.944000  0.683400  0.866400  1
  C  C1383  1  0.260600  0.183000  0.316600  1
  C  C1384  1  0.922400  0.866400  0.183000  1
  C  C1385  1  0.056000  0.316600  0.133600  1
  C  C1386  1  0.739400  0.817000  0.683400  1
  C  C1387  1  0.958300  0.068100  0.696200  1
  C  C1388  1  0.890200  0.628100  0.931900  1
  C  C1389  1  0.262100  0.303800  0.371900  1
  C  C1390  1  0.041700  0.931900  0.303800  1
  C  C1391  1  0.109800  0.371900  0.068100  1
  C  C1392  1  0.737900  0.696200  0.628100  1
  C  C1393  1  0.153200  0.164200  0.857200  1
  C  C1394  1  0.989000  0.693000  0.835800  1
  C  C1395  1  0.296000  0.142800  0.307000  1
  C  C1396  1  0.846800  0.835800  0.142800  1
  C  C1397  1  0.011000  0.307000  0.164200  1
  C  C1398  1  0.704000  0.857200  0.693000  1
  C  C1399  1  0.313900  0.132900  0.899300  1
  C  C1400  1  0.181000  0.766400  0.867100  1
  C  C1401  1  0.414600  0.100700  0.233600  1
  C  C1402  1  0.686100  0.867100  0.100700  1
  C  C1403  1  0.819000  0.233600  0.132900  1
  C  C1404  1  0.585400  0.899300  0.766400  1
  C  C1405  1  0.164700  0.171200  0.865500  1
  C  C1406  1  0.993500  0.694300  0.828800  1
  C  C1407  1  0.299200  0.134500  0.305700  1
  C  C1408  1  0.835300  0.828800  0.134500  1
  C  C1409  1  0.006500  0.305700  0.171200  1
  C  C1410  1  0.700800  0.865500  0.694300  1
  C  C1411  1  0.315900  0.159800  0.941100  1
  C  C1412  1  0.156100  0.781300  0.840200  1
  C  C1413  1  0.374800  0.058900  0.218700  1
  C  C1414  1  0.684100  0.840200  0.058900  1
  C  C1415  1  0.843900  0.218700  0.159800  1
  C  C1416  1  0.625200  0.941100  0.781300  1
  C  C1417  1  0.012700  0.821500  0.039300  1
  C  C1418  1  0.191200  0.217800  0.178500  1
  C  C1419  1  0.973400  0.960700  0.782200  1
  C  C1420  1  0.987300  0.178500  0.960700  1
  C  C1421  1  0.808800  0.782200  0.821500  1
  C  C1422  1  0.026600  0.039300  0.217800  1
  C  C1423  1  0.006600  0.804300  0.141400  1
  C  C1424  1  0.202300  0.337100  0.195700  1
  C  C1425  1  0.865200  0.858600  0.662900  1
  C  C1426  1  0.993400  0.195700  0.858600  1
  C  C1427  1  0.797700  0.662900  0.804300  1
  C  C1428  1  0.134800  0.141400  0.337100  1
  C  C1429  1  0.003900  0.807500  0.040400  1
  C  C1430  1  0.196400  0.232900  0.192500  1
  C  C1431  1  0.963500  0.959600  0.767100  1
  C  C1432  1  0.996100  0.192500  0.959600  1
  C  C1433  1  0.803600  0.767100  0.807500  1
  C  C1434  1  0.036500  0.040400  0.232900  1
  C  C1435  1  0.003400  0.767100  0.123100  1
  C  C1436  1  0.236300  0.356000  0.232900  1
  C  C1437  1  0.880300  0.876900  0.644000  1
  C  C1438  1  0.996600  0.232900  0.876900  1
  C  C1439  1  0.763700  0.644000  0.767100  1
  C  C1440  1  0.119700  0.123100  0.356000  1
  C  C1441  1  0.496700  0.653400  0.051700  1
  C  C1442  1  0.843300  0.398300  0.346600  1
  C  C1443  1  0.445000  0.948300  0.601700  1
  C  C1444  1  0.503300  0.346600  0.948300  1
  C  C1445  1  0.156700  0.601700  0.653400  1
  C  C1446  1  0.555000  0.051700  0.398300  1
  C  C1447  1  0.495400  0.586900  0.979300  1
  C  C1448  1  0.908500  0.392400  0.413100  1
  C  C1449  1  0.516100  0.020700  0.607600  1
  C  C1450  1  0.504600  0.413100  0.020700  1
  C  C1451  1  0.091500  0.607600  0.586900  1
  C  C1452  1  0.483900  0.979300  0.392400  1
  C  C1453  1  0.572700  0.600300  0.978800  1
  C  C1454  1  0.972400  0.378500  0.399700  1
  C  C1455  1  0.593900  0.021200  0.621500  1
  C  C1456  1  0.427300  0.399700  0.021200  1
  C  C1457  1  0.027600  0.621500  0.600300  1
  C  C1458  1  0.406100  0.978800  0.378500  1
  C  C1459  1  0.478200  0.640100  0.038300  1
  C  C1460  1  0.838100  0.398200  0.359900  1
  C  C1461  1  0.439900  0.961700  0.601800  1
  C  C1462  1  0.521800  0.359900  0.961700  1
  C  C1463  1  0.161900  0.601800  0.640100  1
  C  C1464  1  0.560100  0.038300  0.398200  1
  C  C1465  1  0.464300  0.674900  0.040700  1
  C  C1466  1  0.789400  0.365800  0.325100  1
  C  C1467  1  0.423600  0.959300  0.634200  1
  C  C1468  1  0.535700  0.325100  0.959300  1
  C  C1469  1  0.210600  0.634200  0.674900  1
  C  C1470  1  0.576400  0.040700  0.365800  1
  C  C1471  1  0.524400  0.576400  0.996100  1
  C  C1472  1  0.948000  0.419700  0.423600  1
  C  C1473  1  0.528300  0.003900  0.580300  1
  C  C1474  1  0.475600  0.423600  0.003900  1
  C  C1475  1  0.052000  0.580300  0.576400  1
  C  C1476  1  0.471700  0.996100  0.419700  1
  F  F1477  1  0.224050  0.374790  0.001060  1
  F  F1478  1  0.849260  0.626270  0.625210  1
  F  F1479  1  0.222990  0.998940  0.373730  1
  F  F1480  1  0.775950  0.625210  0.998940  1
  F  F1481  1  0.150740  0.373730  0.374790  1
  F  F1482  1  0.777010  0.001060  0.626270  1
  F  F1483  1  0.284960  0.360950  0.991830  1
  F  F1484  1  0.924010  0.630880  0.639050  1
  F  F1485  1  0.293130  0.008170  0.369120  1
  F  F1486  1  0.715040  0.639050  0.008170  1
  F  F1487  1  0.075990  0.369120  0.360950  1
  F  F1488  1  0.706870  0.991830  0.630880  1
  F  F1489  1  0.294490  0.412920  0.018850  1
  F  F1490  1  0.881570  0.605930  0.587080  1
  F  F1491  1  0.275640  0.981150  0.394070  1
  F  F1492  1  0.705510  0.587080  0.981150  1
  F  F1493  1  0.118430  0.394070  0.412920  1
  F  F1494  1  0.724360  0.018850  0.605930  1
  F  F1495  1  0.233170  0.406530  0.978680  1
  F  F1496  1  0.826640  0.572150  0.593470  1
  F  F1497  1  0.254490  0.021320  0.427850  1
  F  F1498  1  0.766830  0.593470  0.021320  1
  F  F1499  1  0.173360  0.427850  0.406530  1
  F  F1500  1  0.745510  0.978680  0.572150  1
  F  F1501  1  0.290090  0.392170  0.965200  1
  F  F1502  1  0.897920  0.573030  0.607830  1
  F  F1503  1  0.324890  0.034800  0.426970  1
  F  F1504  1  0.709910  0.607830  0.034800  1
  F  F1505  1  0.102080  0.426970  0.392170  1
  F  F1506  1  0.675110  0.965200  0.573030  1
  F  F1507  1  0.219590  0.352530  0.949340  1
  F  F1508  1  0.867060  0.596810  0.647470  1
  F  F1509  1  0.270250  0.050660  0.403190  1
  F  F1510  1  0.780410  0.647470  0.050660  1
  F  F1511  1  0.132940  0.403190  0.352530  1
  F  F1512  1  0.729750  0.949340  0.596810  1
  F  F1513  1  0.089800  0.154300  0.847900  1
  F  F1514  1  0.935500  0.693600  0.845700  1
  F  F1515  1  0.241900  0.152100  0.306400  1
  F  F1516  1  0.910200  0.845700  0.152100  1
  F  F1517  1  0.064500  0.306400  0.154300  1
  F  F1518  1  0.758100  0.847900  0.693600  1
  F  F1519  1  0.114800  0.125300  0.809100  1
  F  F1520  1  0.989500  0.683800  0.874700  1
  F  F1521  1  0.305700  0.190900  0.316200  1
  F  F1522  1  0.885200  0.874700  0.190900  1
  F  F1523  1  0.010500  0.316200  0.125300  1
  F  F1524  1  0.694300  0.809100  0.683800  1
  F  F1525  1  0.047300  0.106600  0.810700  1
  F  F1526  1  0.940700  0.704100  0.893400  1
  F  F1527  1  0.236600  0.189300  0.295900  1
  F  F1528  1  0.952700  0.893400  0.189300  1
  F  F1529  1  0.059300  0.295900  0.106600  1
  F  F1530  1  0.763400  0.810700  0.704100  1
  F  F1531  1  0.912500  0.055600  0.690100  1
  F  F1532  1  0.856900  0.634500  0.944400  1
  F  F1533  1  0.222400  0.309900  0.365500  1
  F  F1534  1  0.087500  0.944400  0.309900  1
  F  F1535  1  0.143100  0.365500  0.055600  1
  F  F1536  1  0.777600  0.690100  0.634500  1
  F  F1537  1  0.958900  0.090800  0.687300  1
  F  F1538  1  0.868100  0.596500  0.909200  1
  F  F1539  1  0.271600  0.312700  0.403500  1
  F  F1540  1  0.041100  0.909200  0.312700  1
  F  F1541  1  0.131900  0.403500  0.090800  1
  F  F1542  1  0.728400  0.687300  0.596500  1
  F  F1543  1  0.961000  0.042000  0.669800  1
  F  F1544  1  0.919000  0.627800  0.958000  1
  F  F1545  1  0.291200  0.330200  0.372200  1
  F  F1546  1  0.039000  0.958000  0.330200  1
  F  F1547  1  0.081000  0.372200  0.042000  1
  F  F1548  1  0.708800  0.669800  0.627800  1
  F  F1549  1  0.133600  0.143700  0.865400  1
  F  F1550  1  0.989900  0.721700  0.856300  1
  F  F1551  1  0.268200  0.134600  0.278300  1
  F  F1552  1  0.866400  0.856300  0.134600  1
  F  F1553  1  0.010100  0.278300  0.143700  1
  F  F1554  1  0.731800  0.865400  0.721700  1
  F  F1555  1  0.154500  0.146600  0.826800  1
  F  F1556  1  0.007900  0.680200  0.853400  1
  F  F1557  1  0.327700  0.173200  0.319800  1
  F  F1558  1  0.845500  0.853400  0.173200  1
  F  F1559  1  0.992100  0.319800  0.146600  1
  F  F1560  1  0.672300  0.826800  0.680200  1
  F  F1561  1  0.131200  0.184800  0.858500  1
  F  F1562  1  0.946400  0.673700  0.815200  1
  F  F1563  1  0.272700  0.141500  0.326300  1
  F  F1564  1  0.868800  0.815200  0.141500  1
  F  F1565  1  0.053600  0.326300  0.184800  1
  F  F1566  1  0.727300  0.858500  0.673700  1
  F  F1567  1  0.295000  0.107300  0.901200  1
  F  F1568  1  0.187700  0.793900  0.892700  1
  F  F1569  1  0.393800  0.098800  0.206100  1
  F  F1570  1  0.705000  0.892700  0.098800  1
  F  F1571  1  0.812300  0.206100  0.107300  1
  F  F1572  1  0.606200  0.901200  0.793900  1
  F  F1573  1  0.325700  0.128100  0.874100  1
  F  F1574  1  0.197600  0.746000  0.871900  1
  F  F1575  1  0.451600  0.125900  0.254000  1
  F  F1576  1  0.674300  0.871900  0.125900  1
  F  F1577  1  0.802400  0.254000  0.128100  1
  F  F1578  1  0.548400  0.874100  0.746000  1
  F  F1579  1  0.355500  0.149100  0.925400  1
  F  F1580  1  0.206400  0.776300  0.850900  1
  F  F1581  1  0.430100  0.074600  0.223700  1
  F  F1582  1  0.644500  0.850900  0.074600  1
  F  F1583  1  0.793600  0.223700  0.149100  1
  F  F1584  1  0.569900  0.925400  0.776300  1
  F  F1585  1  0.132300  0.164700  0.876800  1
  F  F1586  1  0.967600  0.712100  0.835300  1
  F  F1587  1  0.255500  0.123200  0.287900  1
  F  F1588  1  0.867700  0.835300  0.123200  1
  F  F1589  1  0.032400  0.287900  0.164700  1
  F  F1590  1  0.744500  0.876800  0.712100  1
  F  F1591  1  0.164700  0.142300  0.842500  1
  F  F1592  1  0.022400  0.700200  0.857700  1
  F  F1593  1  0.322200  0.157500  0.299800  1
  F  F1594  1  0.835300  0.857700  0.157500  1
  F  F1595  1  0.977600  0.299800  0.142300  1
  F  F1596  1  0.677800  0.842500  0.700200  1
  F  F1597  1  0.151000  0.187200  0.850100  1
  F  F1598  1  0.963800  0.662900  0.812800  1
  F  F1599  1  0.300900  0.149900  0.337100  1
  F  F1600  1  0.849000  0.812800  0.149900  1
  F  F1601  1  0.036200  0.337100  0.187200  1
  F  F1602  1  0.699100  0.850100  0.662900  1
  F  F1603  1  0.327000  0.134800  0.941200  1
  F  F1604  1  0.192200  0.806400  0.865200  1
  F  F1605  1  0.385800  0.058800  0.193600  1
  F  F1606  1  0.673000  0.865200  0.058800  1
  F  F1607  1  0.807800  0.193600  0.134800  1
  F  F1608  1  0.614200  0.941200  0.806400  1
  F  F1609  1  0.300400  0.172000  0.966400  1
  F  F1610  1  0.128400  0.794400  0.828000  1
  F  F1611  1  0.334000  0.033600  0.205600  1
  F  F1612  1  0.699600  0.828000  0.033600  1
  F  F1613  1  0.871600  0.205600  0.172000  1
  F  F1614  1  0.666000  0.966400  0.794400  1
  F  F1615  1  0.344400  0.177300  0.934100  1
  F  F1616  1  0.167100  0.756800  0.822700  1
  F  F1617  1  0.410300  0.065900  0.243200  1
  F  F1618  1  0.655600  0.822700  0.065900  1
  F  F1619  1  0.832900  0.243200  0.177300  1
  F  F1620  1  0.589700  0.934100  0.756800  1
  F  F1621  1  0.978100  0.832900  0.040800  1
  F  F1622  1  0.145200  0.207900  0.167100  1
  F  F1623  1  0.937300  0.959200  0.792100  1
  F  F1624  1  0.021900  0.167100  0.959200  1
  F  F1625  1  0.854800  0.792100  0.832900  1
  F  F1626  1  0.062700  0.040800  0.207900  1
  F  F1627  1  0.047600  0.838500  0.037000  1
  F  F1628  1  0.209100  0.198500  0.161500  1
  F  F1629  1  0.010600  0.963000  0.801500  1
  F  F1630  1  0.952400  0.161500  0.963000  1
  F  F1631  1  0.790900  0.801500  0.838500  1
  F  F1632  1  0.989400  0.037000  0.198500  1
  F  F1633  1  0.988200  0.796000  0.004500  1
  F  F1634  1  0.192200  0.208500  0.204000  1
  F  F1635  1  0.983700  0.995500  0.791500  1
  F  F1636  1  0.011800  0.204000  0.995500  1
  F  F1637  1  0.807800  0.791500  0.796000  1
  F  F1638  1  0.016300  0.004500  0.208500  1
  F  F1639  1  0.049400  0.823700  0.149600  1
  F  F1640  1  0.225700  0.325900  0.176300  1
  F  F1641  1  0.899800  0.850400  0.674100  1
  F  F1642  1  0.950600  0.176300  0.850400  1
  F  F1643  1  0.774300  0.674100  0.823700  1
  F  F1644  1  0.100200  0.149600  0.325900  1
  F  F1645  1  0.009000  0.780900  0.149800  1
  F  F1646  1  0.228100  0.368900  0.219100  1
  F  F1647  1  0.859200  0.850200  0.631100  1
  F  F1648  1  0.991000  0.219100  0.850200  1
  F  F1649  1  0.771900  0.631100  0.780900  1
  F  F1650  1  0.140800  0.149800  0.368900  1
  F  F1651  1  0.978800  0.816100  0.157200  1
  F  F1652  1  0.162700  0.341100  0.183900  1
  F  F1653  1  0.821600  0.842800  0.658900  1
  F  F1654  1  0.021200  0.183900  0.842800  1
  F  F1655  1  0.837300  0.658900  0.816100  1
  F  F1656  1  0.178400  0.157200  0.341100  1
  F  F1657  1  0.963500  0.812700  0.034900  1
  F  F1658  1  0.150800  0.222200  0.187300  1
  F  F1659  1  0.928600  0.965100  0.777800  1
  F  F1660  1  0.036500  0.187300  0.965100  1
  F  F1661  1  0.849200  0.777800  0.812700  1
  F  F1662  1  0.071400  0.034900  0.222200  1
  F  F1663  1  0.029000  0.828500  0.030800  1
  F  F1664  1  0.200500  0.202300  0.171500  1
  F  F1665  1  0.998200  0.969200  0.797700  1
  F  F1666  1  0.971000  0.171500  0.969200  1
  F  F1667  1  0.799500  0.797700  0.828500  1
  F  F1668  1  0.001800  0.030800  0.202300  1
  F  F1669  1  0.998800  0.778500  0.017500  1
  F  F1670  1  0.220300  0.239000  0.221500  1
  F  F1671  1  0.981300  0.982500  0.761000  1
  F  F1672  1  0.001200  0.221500  0.982500  1
  F  F1673  1  0.779700  0.761000  0.778500  1
  F  F1674  1  0.018700  0.017500  0.239000  1
  F  F1675  1  0.966800  0.739900  0.099000  1
  F  F1676  1  0.226900  0.359100  0.260100  1
  F  F1677  1  0.867800  0.901000  0.640900  1
  F  F1678  1  0.033200  0.260100  0.901000  1
  F  F1679  1  0.773100  0.640900  0.739900  1
  F  F1680  1  0.132200  0.099000  0.359100  1
  F  F1681  1  0.997500  0.768900  0.149800  1
  F  F1682  1  0.228600  0.380900  0.231100  1
  F  F1683  1  0.847700  0.850200  0.619100  1
  F  F1684  1  0.002500  0.231100  0.850200  1
  F  F1685  1  0.771400  0.619100  0.768900  1
  F  F1686  1  0.152300  0.149800  0.380900  1
  F  F1687  1  0.042200  0.759600  0.120400  1
  F  F1688  1  0.282600  0.360800  0.240400  1
  F  F1689  1  0.921800  0.879600  0.639200  1
  F  F1690  1  0.957800  0.240400  0.879600  1
  F  F1691  1  0.717400  0.639200  0.759600  1
  F  F1692  1  0.078200  0.120400  0.360800  1
  F  F1693  1  0.509300  0.642800  0.026000  1
  F  F1694  1  0.866500  0.383200  0.357200  1
  F  F1695  1  0.483300  0.974000  0.616800  1
  F  F1696  1  0.490700  0.357200  0.974000  1
  F  F1697  1  0.133500  0.616800  0.642800  1
  F  F1698  1  0.516700  0.026000  0.383200  1
  F  F1699  1  0.475500  0.675300  0.052600  1
  F  F1700  1  0.800200  0.377300  0.324700  1
  F  F1701  1  0.422900  0.947400  0.622700  1
  F  F1702  1  0.524500  0.324700  0.947400  1
  F  F1703  1  0.199800  0.622700  0.675300  1
  F  F1704  1  0.577100  0.052600  0.377300  1
  F  F1705  1  0.530600  0.666500  0.080000  1
  F  F1706  1  0.864100  0.413500  0.333500  1
  F  F1707  1  0.450600  0.920000  0.586500  1
  F  F1708  1  0.469400  0.333500  0.920000  1
  F  F1709  1  0.135900  0.586500  0.666500  1
  F  F1710  1  0.549400  0.080000  0.413500  1
  F  F1711  1  0.527100  0.598200  0.008500  1
  F  F1712  1  0.928900  0.410300  0.401800  1
  F  F1713  1  0.518600  0.991500  0.589700  1
  F  F1714  1  0.472900  0.401800  0.991500  1
  F  F1715  1  0.071100  0.589700  0.598200  1
  F  F1716  1  0.481400  0.008500  0.410300  1
  F  F1717  1  0.502300  0.598700  0.959700  1
  F  F1718  1  0.903600  0.361000  0.401300  1
  F  F1719  1  0.542600  0.040300  0.639000  1
  F  F1720  1  0.497700  0.401300  0.040300  1
  F  F1721  1  0.096400  0.639000  0.598700  1
  F  F1722  1  0.457400  0.959700  0.361000  1
  F  F1723  1  0.502700  0.556200  0.963200  1
  F  F1724  1  0.946500  0.407000  0.443800  1
  F  F1725  1  0.539500  0.036800  0.593000  1
  F  F1726  1  0.497300  0.443800  0.036800  1
  F  F1727  1  0.053500  0.593000  0.556200  1
  F  F1728  1  0.460500  0.963200  0.407000  1
  F  F1729  1  0.566300  0.628000  0.985300  1
  F  F1730  1  0.938300  0.357300  0.372000  1
  F  F1731  1  0.581000  0.014700  0.642700  1
  F  F1732  1  0.433700  0.372000  0.014700  1
  F  F1733  1  0.061700  0.642700  0.628000  1
  F  F1734  1  0.419000  0.985300  0.357300  1
  F  F1735  1  0.614900  0.601000  0.983200  1
  F  F1736  1  0.013900  0.382200  0.399000  1
  F  F1737  1  0.631700  0.016800  0.617800  1
  F  F1738  1  0.385100  0.399000  0.016800  1
  F  F1739  1  0.986100  0.617800  0.601000  1
  F  F1740  1  0.368300  0.983200  0.382200  1
  F  F1741  1  0.545200  0.579000  0.947000  1
  F  F1742  1  0.966200  0.368000  0.421000  1
  F  F1743  1  0.598200  0.053000  0.632000  1
  F  F1744  1  0.454800  0.421000  0.053000  1
  F  F1745  1  0.033800  0.632000  0.579000  1
  F  F1746  1  0.401800  0.947000  0.368000  1
  F  F1747  1  0.490000  0.654400  0.021600  1
  F  F1748  1  0.835600  0.367200  0.345600  1
  F  F1749  1  0.468400  0.978400  0.632800  1
  F  F1750  1  0.510000  0.345600  0.978400  1
  F  F1751  1  0.164400  0.632800  0.654400  1
  F  F1752  1  0.531600  0.021600  0.367200  1
  F  F1753  1  0.515100  0.652700  0.066200  1
  F  F1754  1  0.862400  0.413500  0.347300  1
  F  F1755  1  0.448900  0.933800  0.586500  1
  F  F1756  1  0.484900  0.347300  0.933800  1
  F  F1757  1  0.137600  0.586500  0.652700  1
  F  F1758  1  0.551100  0.066200  0.413500  1
  F  F1759  1  0.442800  0.648700  0.047400  1
  F  F1760  1  0.794100  0.398700  0.351300  1
  F  F1761  1  0.395400  0.952600  0.601300  1
  F  F1762  1  0.557200  0.351300  0.952600  1
  F  F1763  1  0.205900  0.601300  0.648700  1
  F  F1764  1  0.604600  0.047400  0.398700  1
  F  F1765  1  0.500500  0.700000  0.045300  1
  F  F1766  1  0.800500  0.345300  0.300000  1
  F  F1767  1  0.455200  0.954700  0.654700  1
  F  F1768  1  0.499500  0.300000  0.954700  1
  F  F1769  1  0.199500  0.654700  0.700000  1
  F  F1770  1  0.544800  0.045300  0.345300  1
  F  F1771  1  0.432200  0.661400  0.013700  1
  F  F1772  1  0.770800  0.352300  0.338600  1
  F  F1773  1  0.418500  0.986300  0.647700  1
  F  F1774  1  0.567800  0.338600  0.986300  1
  F  F1775  1  0.229200  0.647700  0.661400  1
  F  F1776  1  0.581500  0.013700  0.352300  1
  F  F1777  1  0.448700  0.686500  0.066300  1
  F  F1778  1  0.762200  0.379800  0.313500  1
  F  F1779  1  0.382400  0.933700  0.620200  1
  F  F1780  1  0.551300  0.313500  0.933700  1
  F  F1781  1  0.237800  0.620200  0.686500  1
  F  F1782  1  0.617600  0.066300  0.379800  1
  F  F1783  1  0.569800  0.587900  0.001700  1
  F  F1784  1  0.981900  0.413800  0.412100  1
  F  F1785  1  0.568100  0.998300  0.586200  1
  F  F1786  1  0.430200  0.412100  0.998300  1
  F  F1787  1  0.018100  0.586200  0.587900  1
  F  F1788  1  0.431900  0.001700  0.413800  1
  F  F1789  1  0.506400  0.544300  0.973300  1
  F  F1790  1  0.962100  0.429000  0.455700  1
  F  F1791  1  0.533100  0.026700  0.571000  1
  F  F1792  1  0.493600  0.455700  0.026700  1
  F  F1793  1  0.037900  0.571000  0.544300  1
  F  F1794  1  0.466900  0.973300  0.429000  1
  F  F1795  1  0.518700  0.577700  0.022700  1
  F  F1796  1  0.941000  0.445000  0.422300  1
  F  F1797  1  0.496000  0.977300  0.555000  1
  F  F1798  1  0.481300  0.422300  0.977300  1
  F  F1799  1  0.059000  0.555000  0.577700  1
  F  F1800  1  0.504000  0.022700  0.445000  1
  Fe  Fe1801  1  0.806830  0.731480  0.974130  1
  Fe  Fe1802  1  0.075350  0.242650  0.268520  1
  Fe  Fe1803  1  0.832700  0.025870  0.757350  1
  Fe  Fe1804  1  0.193170  0.268520  0.025870  1
  Fe  Fe1805  1  0.924650  0.757350  0.731480  1
  Fe  Fe1806  1  0.167300  0.974130  0.242650  1
  Fe  Fe1807  1  0.136460  0.737820  0.983510  1
  Fe  Fe1808  1  0.398640  0.245690  0.262180  1
  Fe  Fe1809  1  0.152950  0.016490  0.754310  1
  Fe  Fe1810  1  0.863540  0.262180  0.016490  1
  Fe  Fe1811  1  0.601360  0.754310  0.737820  1
  Fe  Fe1812  1  0.847050  0.983510  0.245690  1
  Fe  Fe1813  1  0.270100  0.292940  0.852270  1
  Fe  Fe1814  1  0.977160  0.559330  0.707060  1
  Fe  Fe1815  1  0.417830  0.147730  0.440670  1
  Fe  Fe1816  1  0.729900  0.707060  0.147730  1
  Fe  Fe1817  1  0.022840  0.440670  0.292940  1
  Fe  Fe1818  1  0.582170  0.852270  0.559330  1
  Fe  Fe1819  1  0.235660  0.478630  0.529840  1
  Fe  Fe1820  1  0.757030  0.051210  0.521370  1
  Fe  Fe1821  1  0.705820  0.470160  0.948790  1
  Fe  Fe1822  1  0.764340  0.521370  0.470160  1
  Fe  Fe1823  1  0.242970  0.948790  0.478630  1
  Fe  Fe1824  1  0.294180  0.529840  0.051210  1
  H  H1825  1  0.879400  0.773300  0.045800  1
  H  H1826  1  0.106100  0.272500  0.226700  1
  H  H1827  1  0.833600  0.954200  0.727500  1
  H  H1828  1  0.120600  0.226700  0.954200  1
  H  H1829  1  0.893900  0.727500  0.773300  1
  H  H1830  1  0.166400  0.045800  0.272500  1
  H  H1831  1  0.908400  0.829400  0.085400  1
  H  H1832  1  0.079000  0.256000  0.170600  1
  H  H1833  1  0.823000  0.914600  0.744000  1
  H  H1834  1  0.091600  0.170600  0.914600  1
  H  H1835  1  0.921000  0.744000  0.829400  1
  H  H1836  1  0.177000  0.085400  0.256000  1
  H  H1837  1  0.869900  0.864700  0.078900  1
  H  H1838  1  0.005200  0.214200  0.135300  1
  H  H1839  1  0.791000  0.921100  0.785800  1
  H  H1840  1  0.130100  0.135300  0.921100  1
  H  H1841  1  0.994800  0.785800  0.864700  1
  H  H1842  1  0.209000  0.078900  0.214200  1
  H  H1843  1  0.807600  0.844300  0.028200  1
  H  H1844  1  0.963300  0.183900  0.155700  1
  H  H1845  1  0.779400  0.971800  0.816100  1
  H  H1846  1  0.192400  0.155700  0.971800  1
  H  H1847  1  0.036700  0.816100  0.844300  1
  H  H1848  1  0.220600  0.028200  0.183900  1
  H  H1849  1  0.755500  0.794200  0.970900  1
  H  H1850  1  0.961300  0.176700  0.205800  1
  H  H1851  1  0.784600  0.029100  0.823300  1
  H  H1852  1  0.244500  0.205800  0.029100  1
  H  H1853  1  0.038700  0.823300  0.794200  1
  H  H1854  1  0.215400  0.970900  0.176700  1
  H  H1855  1  0.772000  0.749200  0.903400  1
  H  H1856  1  0.022800  0.154200  0.250800  1
  H  H1857  1  0.868600  0.096600  0.845800  1
  H  H1858  1  0.228000  0.250800  0.096600  1
  H  H1859  1  0.977200  0.845800  0.749200  1
  H  H1860  1  0.131400  0.903400  0.154200  1
  H  H1861  1  0.715600  0.719500  0.849400  1
  H  H1862  1  0.996100  0.129900  0.280500  1
  H  H1863  1  0.866200  0.150600  0.870100  1
  H  H1864  1  0.284400  0.280500  0.150600  1
  H  H1865  1  0.003900  0.870100  0.719500  1
  H  H1866  1  0.133800  0.849400  0.129900  1
  H  H1867  1  0.615700  0.691800  0.884900  1
  H  H1868  1  0.923900  0.193100  0.308200  1
  H  H1869  1  0.730800  0.115100  0.806900  1
  H  H1870  1  0.384300  0.308200  0.115100  1
  H  H1871  1  0.076100  0.806900  0.691800  1
  H  H1872  1  0.269200  0.884900  0.193100  1
  H  H1873  1  0.674000  0.715600  0.936100  1
  H  H1874  1  0.958400  0.220500  0.284400  1
  H  H1875  1  0.737900  0.063900  0.779500  1
  H  H1876  1  0.326000  0.284400  0.063900  1
  H  H1877  1  0.041600  0.779500  0.715600  1
  H  H1878  1  0.262100  0.936100  0.220500  1
  H  H1879  1  0.668500  0.669500  0.801900  1
  H  H1880  1  0.999000  0.132400  0.330500  1
  H  H1881  1  0.866600  0.198100  0.867600  1
  H  H1882  1  0.331500  0.330500  0.198100  1
  H  H1883  1  0.001000  0.867600  0.669500  1
  H  H1884  1  0.133400  0.801900  0.132400  1
  H  H1885  1  0.612200  0.639400  0.749200  1
  H  H1886  1  0.972800  0.109800  0.360600  1
  H  H1887  1  0.863000  0.250800  0.890200  1
  H  H1888  1  0.387800  0.360600  0.250800  1
  H  H1889  1  0.027200  0.890200  0.639400  1
  H  H1890  1  0.137000  0.749200  0.109800  1
  H  H1891  1  0.529000  0.620600  0.711600  1
  H  H1892  1  0.908400  0.091000  0.379400  1
  H  H1893  1  0.817400  0.288400  0.909000  1
  H  H1894  1  0.471000  0.379400  0.288400  1
  H  H1895  1  0.091600  0.909000  0.620600  1
  H  H1896  1  0.182600  0.711600  0.091000  1
  H  H1897  1  0.445800  0.599900  0.674700  1
  H  H1898  1  0.845900  0.074800  0.400100  1
  H  H1899  1  0.771100  0.325300  0.925200  1
  H  H1900  1  0.554200  0.400100  0.325300  1
  H  H1901  1  0.154100  0.925200  0.599900  1
  H  H1902  1  0.228900  0.674700  0.074800  1
  H  H1903  1  0.350000  0.633300  0.712700  1
  H  H1904  1  0.716700  0.079400  0.366700  1
  H  H1905  1  0.637300  0.287300  0.920600  1
  H  H1906  1  0.650000  0.366700  0.287300  1
  H  H1907  1  0.283300  0.920600  0.633300  1
  H  H1908  1  0.362700  0.712700  0.079400  1
  H  H1909  1  0.405000  0.662000  0.766500  1
  H  H1910  1  0.743000  0.104500  0.338000  1
  H  H1911  1  0.638500  0.233500  0.895500  1
  H  H1912  1  0.595000  0.338000  0.233500  1
  H  H1913  1  0.257000  0.895500  0.662000  1
  H  H1914  1  0.361500  0.766500  0.104500  1
  H  H1915  1  0.487800  0.680000  0.804000  1
  H  H1916  1  0.807800  0.124000  0.320000  1
  H  H1917  1  0.683800  0.196000  0.876000  1
  H  H1918  1  0.512200  0.320000  0.196000  1
  H  H1919  1  0.192200  0.876000  0.680000  1
  H  H1920  1  0.316200  0.804000  0.124000  1
  H  H1921  1  0.569800  0.695700  0.841100  1
  H  H1922  1  0.874100  0.145400  0.304300  1
  H  H1923  1  0.728700  0.158900  0.854600  1
  H  H1924  1  0.430200  0.304300  0.158900  1
  H  H1925  1  0.125900  0.854600  0.695700  1
  H  H1926  1  0.271300  0.841100  0.145400  1
  H  H1927  1  0.298200  0.585200  0.672300  1
  H  H1928  1  0.713000  0.087100  0.414800  1
  H  H1929  1  0.625900  0.327700  0.912900  1
  H  H1930  1  0.701800  0.414800  0.327700  1
  H  H1931  1  0.287000  0.912900  0.585200  1
  H  H1932  1  0.374100  0.672300  0.087100  1
  H  H1933  1  0.238400  0.546800  0.621900  1
  H  H1934  1  0.691600  0.075100  0.453200  1
  H  H1935  1  0.616500  0.378100  0.924900  1
  H  H1936  1  0.761600  0.453200  0.378100  1
  H  H1937  1  0.308400  0.924900  0.546800  1
  H  H1938  1  0.383500  0.621900  0.075100  1
  H  H1939  1  0.333800  0.553800  0.575600  1
  H  H1940  1  0.780000  0.021800  0.446200  1
  H  H1941  1  0.758200  0.424400  0.978200  1
  H  H1942  1  0.666200  0.446200  0.424400  1
  H  H1943  1  0.220000  0.978200  0.553800  1
  H  H1944  1  0.241800  0.575600  0.021800  1
  H  H1945  1  0.394200  0.588600  0.626900  1
  H  H1946  1  0.805600  0.038300  0.411400  1
  H  H1947  1  0.767300  0.373100  0.961700  1
  H  H1948  1  0.605800  0.411400  0.373100  1
  H  H1949  1  0.194400  0.961700  0.588600  1
  H  H1950  1  0.232700  0.626900  0.038300  1
  H  H1951  1  0.209900  0.556500  0.569600  1
  H  H1952  1  0.653400  0.013100  0.443500  1
  H  H1953  1  0.640300  0.430400  0.986900  1
  H  H1954  1  0.790100  0.443500  0.430400  1
  H  H1955  1  0.346600  0.986900  0.556500  1
  H  H1956  1  0.359700  0.569600  0.013100  1
  H  H1957  1  0.128400  0.540700  0.524800  1
  H  H1958  1  0.587700  0.984100  0.459300  1
  H  H1959  1  0.603600  0.475200  0.015900  1
  H  H1960  1  0.871600  0.459300  0.475200  1
  H  H1961  1  0.412300  0.015900  0.540700  1
  H  H1962  1  0.396400  0.524800  0.984100  1
  H  H1963  1  0.072800  0.502100  0.472200  1
  H  H1964  1  0.570700  0.970100  0.497900  1
  H  H1965  1  0.600600  0.527800  0.029900  1
  H  H1966  1  0.927200  0.497900  0.527800  1
  H  H1967  1  0.429300  0.029900  0.502100  1
  H  H1968  1  0.399400  0.472200  0.970100  1
  H  H1969  1  0.081200  0.451000  0.442300  1
  H  H1970  1  0.630200  0.991300  0.549000  1
  H  H1971  1  0.638900  0.557700  0.008700  1
  H  H1972  1  0.918800  0.549000  0.557700  1
  H  H1973  1  0.369800  0.008700  0.451000  1
  H  H1974  1  0.361100  0.442300  0.991300  1
  H  H1975  1  0.147800  0.440200  0.464500  1
  H  H1976  1  0.707600  0.024300  0.559800  1
  H  H1977  1  0.683300  0.535500  0.975700  1
  H  H1978  1  0.852200  0.559800  0.535500  1
  H  H1979  1  0.292400  0.975700  0.440200  1
  H  H1980  1  0.316700  0.464500  0.024300  1
  H  H1981  1  0.888800  0.791800  0.986800  1
  H  H1982  1  0.097000  0.195000  0.208200  1
  H  H1983  1  0.902000  0.013200  0.805000  1
  H  H1984  1  0.111200  0.208200  0.013200  1
  H  H1985  1  0.903000  0.805000  0.791800  1
  H  H1986  1  0.098000  0.986800  0.195000  1
  H  H1987  1  0.929200  0.804000  0.955100  1
  H  H1988  1  0.125200  0.151100  0.196000  1
  H  H1989  1  0.974100  0.044900  0.848900  1
  H  H1990  1  0.070800  0.196000  0.044900  1
  H  H1991  1  0.874800  0.848900  0.804000  1
  H  H1992  1  0.025900  0.955100  0.151100  1
  H  H1993  1  0.909600  0.764300  0.899100  1
  H  H1994  1  0.145300  0.134800  0.235700  1
  H  H1995  1  0.010500  0.100900  0.865200  1
  H  H1996  1  0.090400  0.235700  0.100900  1
  H  H1997  1  0.854700  0.865200  0.764300  1
  H  H1998  1  0.989500  0.899100  0.134800  1
  H  H1999  1  0.858200  0.709700  0.878700  1
  H  H2000  1  0.148500  0.169000  0.290300  1
  H  H2001  1  0.979500  0.121300  0.831000  1
  H  H2002  1  0.141800  0.290300  0.121300  1
  H  H2003  1  0.851500  0.831000  0.709700  1
  H  H2004  1  0.020500  0.878700  0.169000  1
  H  H2005  1  0.798800  0.672300  0.889700  1
  H  H2006  1  0.126500  0.217400  0.327700  1
  H  H2007  1  0.909100  0.110300  0.782600  1
  H  H2008  1  0.201200  0.327700  0.110300  1
  H  H2009  1  0.873500  0.782600  0.672300  1
  H  H2010  1  0.090900  0.889700  0.217400  1
  H  H2011  1  0.777100  0.649600  0.955300  1
  H  H2012  1  0.127500  0.305700  0.350400  1
  H  H2013  1  0.821800  0.044700  0.694300  1
  H  H2014  1  0.222900  0.350400  0.044700  1
  H  H2015  1  0.872500  0.694300  0.649600  1
  H  H2016  1  0.178200  0.955300  0.305700  1
  H  H2017  1  0.719300  0.598100  0.934500  1
  H  H2018  1  0.121200  0.336400  0.401900  1
  H  H2019  1  0.784800  0.065500  0.663600  1
  H  H2020  1  0.280700  0.401900  0.065500  1
  H  H2021  1  0.878800  0.663600  0.598100  1
  H  H2022  1  0.215200  0.934500  0.336400  1
  H  H2023  1  0.646600  0.607800  0.860600  1
  H  H2024  1  0.038800  0.252800  0.392200  1
  H  H2025  1  0.786000  0.139400  0.747200  1
  H  H2026  1  0.353400  0.392200  0.139400  1
  H  H2027  1  0.961200  0.747200  0.607800  1
  H  H2028  1  0.214000  0.860600  0.252800  1
  H  H2029  1  0.704500  0.657100  0.879400  1
  H  H2030  1  0.047400  0.222300  0.342900  1
  H  H2031  1  0.825100  0.120600  0.777700  1
  H  H2032  1  0.295500  0.342900  0.120600  1
  H  H2033  1  0.952600  0.777700  0.657100  1
  H  H2034  1  0.174900  0.879400  0.222300  1
  H  H2035  1  0.623900  0.549200  0.834300  1
  H  H2036  1  0.074700  0.285100  0.450800  1
  H  H2037  1  0.789600  0.165700  0.714900  1
  H  H2038  1  0.376100  0.450800  0.165700  1
  H  H2039  1  0.925300  0.714900  0.549200  1
  H  H2040  1  0.210400  0.834300  0.285100  1
  H  H2041  1  0.569700  0.497000  0.813300  1
  H  H2042  1  0.072700  0.316300  0.503000  1
  H  H2043  1  0.756400  0.186700  0.683700  1
  H  H2044  1  0.430300  0.503000  0.186700  1
  H  H2045  1  0.927300  0.683700  0.497000  1
  H  H2046  1  0.243600  0.813300  0.316300  1
  H  H2047  1  0.522200  0.454900  0.823600  1
  H  H2048  1  0.067300  0.368700  0.545100  1
  H  H2049  1  0.698600  0.176400  0.631300  1
  H  H2050  1  0.477800  0.545100  0.176400  1
  H  H2051  1  0.932700  0.631300  0.454900  1
  H  H2052  1  0.301400  0.823600  0.368700  1
  H  H2053  1  0.468500  0.415600  0.833500  1
  H  H2054  1  0.052900  0.417900  0.584400  1
  H  H2055  1  0.635000  0.166500  0.582100  1
  H  H2056  1  0.531500  0.584400  0.166500  1
  H  H2057  1  0.947100  0.582100  0.415600  1
  H  H2058  1  0.365000  0.833500  0.417900  1
  H  H2059  1  0.477900  0.440300  0.927000  1
  H  H2060  1  0.037600  0.486700  0.559700  1
  H  H2061  1  0.550900  0.073000  0.513300  1
  H  H2062  1  0.522100  0.559700  0.073000  1
  H  H2063  1  0.962400  0.513300  0.440300  1
  H  H2064  1  0.449100  0.927000  0.486700  1
  H  H2065  1  0.535900  0.490900  0.947800  1
  H  H2066  1  0.045000  0.456900  0.509100  1
  H  H2067  1  0.588100  0.052200  0.543100  1
  H  H2068  1  0.464100  0.509100  0.052200  1
  H  H2069  1  0.955000  0.543100  0.490900  1
  H  H2070  1  0.411900  0.947800  0.456900  1
  H  H2071  1  0.587900  0.530800  0.937900  1
  H  H2072  1  0.057100  0.407100  0.469200  1
  H  H2073  1  0.650000  0.062100  0.592900  1
  H  H2074  1  0.412100  0.469200  0.062100  1
  H  H2075  1  0.942900  0.592900  0.530800  1
  H  H2076  1  0.350000  0.937900  0.407100  1
  H  H2077  1  0.638000  0.572200  0.927700  1
  H  H2078  1  0.065800  0.355500  0.427800  1
  H  H2079  1  0.710300  0.072300  0.644500  1
  H  H2080  1  0.362000  0.427800  0.072300  1
  H  H2081  1  0.934200  0.644500  0.572200  1
  H  H2082  1  0.289700  0.927700  0.355500  1
  H  H2083  1  0.450700  0.385200  0.905300  1
  H  H2084  1  0.065500  0.520100  0.614800  1
  H  H2085  1  0.545400  0.094700  0.479900  1
  H  H2086  1  0.549300  0.614800  0.094700  1
  H  H2087  1  0.934500  0.479900  0.385200  1
  H  H2088  1  0.454600  0.905300  0.520100  1
  H  H2089  1  0.391100  0.335600  0.886500  1
  H  H2090  1  0.055500  0.550900  0.664400  1
  H  H2091  1  0.504600  0.113500  0.449100  1
  H  H2092  1  0.608900  0.664400  0.113500  1
  H  H2093  1  0.944500  0.449100  0.335600  1
  H  H2094  1  0.495400  0.886500  0.550900  1
  H  H2095  1  0.333700  0.334100  0.800700  1
  H  H2096  1  0.999600  0.466600  0.665900  1
  H  H2097  1  0.533000  0.199300  0.533400  1
  H  H2098  1  0.666300  0.665900  0.199300  1
  H  H2099  1  0.000400  0.533400  0.334100  1
  H  H2100  1  0.467000  0.800700  0.466600  1
  H  H2101  1  0.393800  0.383900  0.819600  1
  H  H2102  1  0.009900  0.435700  0.616100  1
  H  H2103  1  0.574200  0.180400  0.564300  1
  H  H2104  1  0.606200  0.616100  0.180400  1
  H  H2105  1  0.990100  0.564300  0.383900  1
  H  H2106  1  0.425800  0.819600  0.435700  1
  H  H2107  1  0.326900  0.275800  0.789400  1
  H  H2108  1  0.051100  0.513600  0.724200  1
  H  H2109  1  0.537500  0.210600  0.486400  1
  H  H2110  1  0.673100  0.724200  0.210600  1
  H  H2111  1  0.948900  0.486400  0.275800  1
  H  H2112  1  0.462500  0.789400  0.513600  1
  H  H2113  1  0.278100  0.213600  0.749000  1
  H  H2114  1  0.064500  0.535400  0.786400  1
  H  H2115  1  0.529100  0.251000  0.464600  1
  H  H2116  1  0.721900  0.786400  0.251000  1
  H  H2117  1  0.935500  0.464600  0.213600  1
  H  H2118  1  0.470900  0.749000  0.535400  1
  H  H2119  1  0.215900  0.167700  0.736100  1
  H  H2120  1  0.048200  0.568400  0.832300  1
  H  H2121  1  0.479800  0.263900  0.431600  1
  H  H2122  1  0.784100  0.832300  0.263900  1
  H  H2123  1  0.951800  0.431600  0.167700  1
  H  H2124  1  0.520200  0.736100  0.568400  1
  H  H2125  1  0.182100  0.170700  0.776900  1
  H  H2126  1  0.011400  0.606200  0.829300  1
  H  H2127  1  0.405200  0.223100  0.393800  1
  H  H2128  1  0.817900  0.829300  0.223100  1
  H  H2129  1  0.988600  0.393800  0.170700  1
  H  H2130  1  0.594800  0.776900  0.606200  1
  H  H2131  1  0.201800  0.221300  0.824100  1
  H  H2132  1  0.980500  0.602800  0.778700  1
  H  H2133  1  0.377700  0.175900  0.397200  1
  H  H2134  1  0.798200  0.778700  0.175900  1
  H  H2135  1  0.019500  0.397200  0.221300  1
  H  H2136  1  0.622300  0.824100  0.602800  1
  H  H2137  1  0.907800  0.725500  0.981100  1
  H  H2138  1  0.182300  0.255600  0.274500  1
  H  H2139  1  0.926700  0.018900  0.744400  1
  H  H2140  1  0.092200  0.274500  0.018900  1
  H  H2141  1  0.817700  0.744400  0.725500  1
  H  H2142  1  0.073300  0.981100  0.255600  1
  H  H2143  1  0.951000  0.704400  0.008200  1
  H  H2144  1  0.246600  0.303800  0.295600  1
  H  H2145  1  0.942800  0.991800  0.696200  1
  H  H2146  1  0.049000  0.295600  0.991800  1
  H  H2147  1  0.753400  0.696200  0.704400  1
  H  H2148  1  0.057200  0.008200  0.303800  1
  H  H2149  1  0.922600  0.682700  0.039500  1
  H  H2150  1  0.239900  0.356800  0.317300  1
  H  H2151  1  0.883100  0.960500  0.643200  1
  H  H2152  1  0.077400  0.317300  0.960500  1
  H  H2153  1  0.760100  0.643200  0.682700  1
  H  H2154  1  0.116900  0.039500  0.356800  1
  H  H2155  1  0.847400  0.684200  0.043100  1
  H  H2156  1  0.163200  0.358900  0.315800  1
  H  H2157  1  0.804300  0.956900  0.641100  1
  H  H2158  1  0.152600  0.315800  0.956900  1
  H  H2159  1  0.836800  0.641100  0.684200  1
  H  H2160  1  0.195700  0.043100  0.358900  1
  H  H2161  1  0.771500  0.694900  0.022800  1
  H  H2162  1  0.076600  0.327900  0.305100  1
  H  H2163  1  0.748700  0.977200  0.672100  1
  H  H2164  1  0.228500  0.305100  0.977200  1
  H  H2165  1  0.923400  0.672100  0.694900  1
  H  H2166  1  0.251300  0.022800  0.327900  1
  H  H2167  1  0.687400  0.663300  0.964100  1
  H  H2168  1  0.024100  0.300800  0.336700  1
  H  H2169  1  0.723300  0.035900  0.699200  1
  H  H2170  1  0.312600  0.336700  0.035900  1
  H  H2171  1  0.975900  0.699200  0.663300  1
  H  H2172  1  0.276700  0.964100  0.300800  1
  H  H2173  1  0.609500  0.663100  0.957700  1
  H  H2174  1  0.946400  0.294600  0.336900  1
  H  H2175  1  0.651800  0.042300  0.705400  1
  H  H2176  1  0.390500  0.336900  0.042300  1
  H  H2177  1  0.053600  0.705400  0.663100  1
  H  H2178  1  0.348200  0.957700  0.294600  1
  H  H2179  1  0.658300  0.762400  0.014100  1
  H  H2180  1  0.895900  0.251700  0.237600  1
  H  H2181  1  0.644200  0.985900  0.748300  1
  H  H2182  1  0.341700  0.237600  0.985900  1
  H  H2183  1  0.104100  0.748300  0.762400  1
  H  H2184  1  0.355800  0.014100  0.251700  1
  H  H2185  1  0.734800  0.763200  0.021100  1
  H  H2186  1  0.971600  0.257900  0.236800  1
  H  H2187  1  0.713700  0.978900  0.742100  1
  H  H2188  1  0.265200  0.236800  0.978900  1
  H  H2189  1  0.028400  0.742100  0.763200  1
  H  H2190  1  0.286300  0.021100  0.257900  1
  H  H2191  1  0.545900  0.664100  0.968400  1
  H  H2192  1  0.881800  0.304300  0.335900  1
  H  H2193  1  0.577500  0.031600  0.695700  1
  H  H2194  1  0.454100  0.335900  0.031600  1
  H  H2195  1  0.118200  0.695700  0.664100  1
  H  H2196  1  0.422500  0.968400  0.304300  1
  H  H2197  1  0.468600  0.662500  0.961600  1
  H  H2198  1  0.806100  0.299100  0.337500  1
  H  H2199  1  0.507000  0.038400  0.700900  1
  H  H2200  1  0.531400  0.337500  0.038400  1
  H  H2201  1  0.193900  0.700900  0.662500  1
  H  H2202  1  0.493000  0.961600  0.299100  1
  H  H2203  1  0.408800  0.691400  0.961800  1
  H  H2204  1  0.717400  0.270400  0.308600  1
  H  H2205  1  0.447000  0.038200  0.729600  1
  H  H2206  1  0.591200  0.308600  0.038200  1
  H  H2207  1  0.282600  0.729600  0.691400  1
  H  H2208  1  0.553000  0.961800  0.270400  1
  H  H2209  1  0.348800  0.717800  0.956400  1
  H  H2210  1  0.631000  0.238600  0.282200  1
  H  H2211  1  0.392400  0.043600  0.761400  1
  H  H2212  1  0.651200  0.282200  0.043600  1
  H  H2213  1  0.369000  0.761400  0.717800  1
  H  H2214  1  0.607600  0.956400  0.238600  1
  H  H2215  1  0.391000  0.812500  0.977200  1
  H  H2216  1  0.578500  0.164700  0.187500  1
  H  H2217  1  0.413800  0.022800  0.835300  1
  H  H2218  1  0.609000  0.187500  0.022800  1
  H  H2219  1  0.421500  0.835300  0.812500  1
  H  H2220  1  0.586200  0.977200  0.164700  1
  H  H2221  1  0.467200  0.812600  0.980700  1
  H  H2222  1  0.654600  0.168100  0.187400  1
  H  H2223  1  0.486500  0.019300  0.831900  1
  H  H2224  1  0.532800  0.187400  0.019300  1
  H  H2225  1  0.345400  0.831900  0.812600  1
  H  H2226  1  0.513500  0.980700  0.168100  1
  H  H2227  1  0.528900  0.786100  0.985600  1
  H  H2228  1  0.742800  0.199500  0.213900  1
  H  H2229  1  0.543300  0.014400  0.800500  1
  H  H2230  1  0.471100  0.213900  0.014400  1
  H  H2231  1  0.257200  0.800500  0.786100  1
  H  H2232  1  0.456700  0.985600  0.199500  1
  H  H2233  1  0.588800  0.758000  0.988500  1
  H  H2234  1  0.830800  0.230500  0.242000  1
  H  H2235  1  0.600300  0.011500  0.769500  1
  H  H2236  1  0.411200  0.242000  0.011500  1
  H  H2237  1  0.169200  0.769500  0.758000  1
  H  H2238  1  0.399700  0.988500  0.230500  1
  H  H2239  1  0.280600  0.717600  0.924200  1
  H  H2240  1  0.563000  0.206600  0.282400  1
  H  H2241  1  0.356400  0.075800  0.793400  1
  H  H2242  1  0.719400  0.282400  0.075800  1
  H  H2243  1  0.437000  0.793400  0.717600  1
  H  H2244  1  0.643600  0.924200  0.206600  1
  H  H2245  1  0.203100  0.712700  0.921600  1
  H  H2246  1  0.490400  0.208900  0.287300  1
  H  H2247  1  0.281500  0.078400  0.791100  1
  H  H2248  1  0.796900  0.287300  0.078400  1
  H  H2249  1  0.509600  0.791100  0.712700  1
  H  H2250  1  0.718500  0.921600  0.208900  1
  H  H2251  1  0.249300  0.806500  0.999100  1
  H  H2252  1  0.442800  0.192600  0.193500  1
  H  H2253  1  0.250200  0.000900  0.807400  1
  H  H2254  1  0.750700  0.193500  0.000900  1
  H  H2255  1  0.557200  0.807400  0.806500  1
  H  H2256  1  0.749800  0.999100  0.192600  1
  H  H2257  1  0.327300  0.810600  0.002500  1
  H  H2258  1  0.516700  0.191900  0.189400  1
  H  H2259  1  0.324800  0.997500  0.808100  1
  H  H2260  1  0.672700  0.189400  0.997500  1
  H  H2261  1  0.483300  0.808100  0.810600  1
  H  H2262  1  0.675200  0.002500  0.191900  1
  H  H2263  1  0.159900  0.777000  0.933800  1
  H  H2264  1  0.382900  0.156800  0.223000  1
  H  H2265  1  0.226100  0.066200  0.843200  1
  H  H2266  1  0.840100  0.223000  0.066200  1
  H  H2267  1  0.617100  0.843200  0.777000  1
  H  H2268  1  0.773900  0.933800  0.156800  1
  H  H2269  1  0.077500  0.783700  0.915100  1
  H  H2270  1  0.293800  0.131400  0.216300  1
  H  H2271  1  0.162400  0.084900  0.868600  1
  H  H2272  1  0.922500  0.216300  0.084900  1
  H  H2273  1  0.706200  0.868600  0.783700  1
  H  H2274  1  0.837600  0.915100  0.131400  1
  H  H2275  1  0.002100  0.777300  0.919700  1
  H  H2276  1  0.224800  0.142400  0.222700  1
  H  H2277  1  0.082400  0.080300  0.857600  1
  H  H2278  1  0.997900  0.222700  0.080300  1
  H  H2279  1  0.775200  0.857600  0.777300  1
  H  H2280  1  0.917600  0.919700  0.142400  1
  H  H2281  1  0.976400  0.746200  0.944200  1
  H  H2282  1  0.230200  0.198000  0.253800  1
  H  H2283  1  0.032200  0.055800  0.802000  1
  H  H2284  1  0.023600  0.253800  0.055800  1
  H  H2285  1  0.769800  0.802000  0.746200  1
  H  H2286  1  0.967800  0.944200  0.198000  1
  H  H2287  1  0.029400  0.728900  0.969300  1
  H  H2288  1  0.300500  0.240400  0.271100  1
  H  H2289  1  0.060100  0.030700  0.759600  1
  H  H2290  1  0.970600  0.271100  0.030700  1
  H  H2291  1  0.699500  0.759600  0.728900  1
  H  H2292  1  0.939900  0.969300  0.240400  1
  H  H2293  1  0.106000  0.759800  0.045800  1
  H  H2294  1  0.346200  0.286000  0.240200  1
  H  H2295  1  0.060200  0.954200  0.714000  1
  H  H2296  1  0.894000  0.240200  0.954200  1
  H  H2297  1  0.653800  0.714000  0.759800  1
  H  H2298  1  0.939800  0.045800  0.286000  1
  H  H2299  1  0.053800  0.732700  0.062700  1
  H  H2300  1  0.321100  0.330000  0.267300  1
  H  H2301  1  0.991100  0.937300  0.670000  1
  H  H2302  1  0.946200  0.267300  0.937300  1
  H  H2303  1  0.678900  0.670000  0.732700  1
  H  H2304  1  0.008900  0.062700  0.330000  1
  H  H2305  1  0.017700  0.674300  0.032900  1
  H  H2306  1  0.343400  0.358600  0.325700  1
  H  H2307  1  0.984800  0.967100  0.641400  1
  H  H2308  1  0.982300  0.325700  0.967100  1
  H  H2309  1  0.656600  0.641400  0.674300  1
  H  H2310  1  0.015200  0.032900  0.358600  1
  H  H2311  1  0.024100  0.645600  0.980300  1
  H  H2312  1  0.378500  0.334700  0.354400  1
  H  H2313  1  0.043800  0.019700  0.665300  1
  H  H2314  1  0.975900  0.354400  0.019700  1
  H  H2315  1  0.621500  0.665300  0.645600  1
  H  H2316  1  0.956200  0.980300  0.334700  1
  H  H2317  1  0.065300  0.648100  0.938800  1
  H  H2318  1  0.417200  0.290700  0.351900  1
  H  H2319  1  0.126500  0.061200  0.709300  1
  H  H2320  1  0.934700  0.351900  0.061200  1
  H  H2321  1  0.582800  0.709300  0.648100  1
  H  H2322  1  0.873500  0.938800  0.290700  1
  H  H2323  1  0.152800  0.645900  0.931400  1
  H  H2324  1  0.506900  0.285500  0.354100  1
  H  H2325  1  0.221400  0.068600  0.714500  1
  H  H2326  1  0.847200  0.354100  0.068600  1
  H  H2327  1  0.493100  0.714500  0.645900  1
  H  H2328  1  0.778600  0.931400  0.285500  1
  H  H2329  1  0.171800  0.622900  0.883600  1
  H  H2330  1  0.548900  0.260700  0.377100  1
  H  H2331  1  0.288200  0.116400  0.739300  1
  H  H2332  1  0.828200  0.377100  0.116400  1
  H  H2333  1  0.451100  0.739300  0.622900  1
  H  H2334  1  0.711800  0.883600  0.260700  1
  H  H2335  1  0.106300  0.671200  0.848500  1
  H  H2336  1  0.435100  0.177300  0.328800  1
  H  H2337  1  0.257800  0.151500  0.822700  1
  H  H2338  1  0.893700  0.328800  0.151500  1
  H  H2339  1  0.564900  0.822700  0.671200  1
  H  H2340  1  0.742200  0.848500  0.177300  1
  H  H2341  1  0.093700  0.698600  0.897300  1
  H  H2342  1  0.395100  0.198700  0.301400  1
  H  H2343  1  0.196400  0.102700  0.801300  1
  H  H2344  1  0.906300  0.301400  0.102700  1
  H  H2345  1  0.604900  0.801300  0.698600  1
  H  H2346  1  0.803600  0.897300  0.198700  1
  H  H2347  1  0.174700  0.674500  0.827800  1
  H  H2348  1  0.500200  0.153300  0.325500  1
  H  H2349  1  0.346900  0.172200  0.846700  1
  H  H2350  1  0.825300  0.325500  0.172200  1
  H  H2351  1  0.499800  0.846700  0.674500  1
  H  H2352  1  0.653100  0.827800  0.153300  1
  H  H2353  1  0.190200  0.653100  0.779000  1
  H  H2354  1  0.537100  0.125900  0.346900  1
  H  H2355  1  0.411200  0.221000  0.874100  1
  H  H2356  1  0.809800  0.346900  0.221000  1
  H  H2357  1  0.462900  0.874100  0.653100  1
  H  H2358  1  0.588800  0.779000  0.125900  1
  H  H2359  1  0.185500  0.603100  0.728500  1
  H  H2360  1  0.582400  0.125400  0.396900  1
  H  H2361  1  0.457000  0.271500  0.874600  1
  H  H2362  1  0.814500  0.396900  0.271500  1
  H  H2363  1  0.417600  0.874600  0.603100  1
  H  H2364  1  0.543000  0.728500  0.125400  1
  H  H2365  1  0.179500  0.552900  0.678500  1
  H  H2366  1  0.626600  0.125600  0.447100  1
  H  H2367  1  0.501000  0.321500  0.874400  1
  H  H2368  1  0.820500  0.447100  0.321500  1
  H  H2369  1  0.373400  0.874400  0.552900  1
  H  H2370  1  0.499000  0.678500  0.125600  1
  H  H2371  1  0.154400  0.466200  0.676700  1
  H  H2372  1  0.688200  0.210500  0.533800  1
  H  H2373  1  0.477700  0.323300  0.789500  1
  H  H2374  1  0.845600  0.533800  0.323300  1
  H  H2375  1  0.311800  0.789500  0.466200  1
  H  H2376  1  0.522300  0.676700  0.210500  1
  H  H2377  1  0.147900  0.489200  0.728100  1
  H  H2378  1  0.658700  0.238900  0.510800  1
  H  H2379  1  0.419800  0.271900  0.761100  1
  H  H2380  1  0.852100  0.510800  0.271900  1
  H  H2381  1  0.341300  0.761100  0.489200  1
  H  H2382  1  0.580200  0.728100  0.238900  1
  H  H2383  1  0.152300  0.539500  0.779200  1
  H  H2384  1  0.612800  0.239700  0.460500  1
  H  H2385  1  0.373100  0.220800  0.760300  1
  H  H2386  1  0.847700  0.460500  0.220800  1
  H  H2387  1  0.387200  0.760300  0.539500  1
  H  H2388  1  0.626900  0.779200  0.239700  1
  H  H2389  1  0.149800  0.588300  0.827000  1
  H  H2390  1  0.561500  0.238700  0.411700  1
  H  H2391  1  0.322800  0.173000  0.761300  1
  H  H2392  1  0.850200  0.411700  0.173000  1
  H  H2393  1  0.438500  0.761300  0.588300  1
  H  H2394  1  0.677200  0.827000  0.238700  1
  H  H2395  1  0.206300  0.461200  0.645700  1
  H  H2396  1  0.745100  0.184500  0.538800  1
  H  H2397  1  0.560600  0.354300  0.815500  1
  H  H2398  1  0.793700  0.538800  0.354300  1
  H  H2399  1  0.254900  0.815500  0.461200  1
  H  H2400  1  0.439400  0.645700  0.184500  1
  H  H2401  1  0.220400  0.441600  0.596000  1
  H  H2402  1  0.778800  0.154400  0.558400  1
  H  H2403  1  0.624400  0.404000  0.845600  1
  H  H2404  1  0.779600  0.558400  0.404000  1
  H  H2405  1  0.221200  0.845600  0.441600  1
  H  H2406  1  0.375600  0.596000  0.154400  1
  H  H2407  1  0.154600  0.496700  0.570300  1
  H  H2408  1  0.657900  0.073600  0.503300  1
  H  H2409  1  0.584300  0.429700  0.926400  1
  H  H2410  1  0.845400  0.503300  0.429700  1
  H  H2411  1  0.342100  0.926400  0.496700  1
  H  H2412  1  0.415700  0.570300  0.073600  1
  H  H2413  1  0.143500  0.518100  0.621500  1
  H  H2414  1  0.625400  0.103400  0.481900  1
  H  H2415  1  0.522000  0.378500  0.896600  1
  H  H2416  1  0.856500  0.481900  0.378500  1
  H  H2417  1  0.374600  0.896600  0.518100  1
  H  H2418  1  0.478000  0.621500  0.103400  1
  H  H2419  1  0.169700  0.409200  0.537500  1
  H  H2420  1  0.760500  0.128300  0.590800  1
  H  H2421  1  0.632200  0.462500  0.871700  1
  H  H2422  1  0.830300  0.590800  0.462500  1
  H  H2423  1  0.239500  0.871700  0.409200  1
  H  H2424  1  0.367800  0.537500  0.128300  1
  H  H2425  1  0.173100  0.359300  0.486900  1
  H  H2426  1  0.813800  0.127600  0.640700  1
  H  H2427  1  0.686200  0.513100  0.872400  1
  H  H2428  1  0.826900  0.640700  0.513100  1
  H  H2429  1  0.186200  0.872400  0.359300  1
  H  H2430  1  0.313800  0.486900  0.127600  1
  H  H2431  1  0.200900  0.341400  0.442100  1
  H  H2432  1  0.859500  0.100700  0.658600  1
  H  H2433  1  0.758800  0.557900  0.899300  1
  H  H2434  1  0.799100  0.658600  0.557900  1
  H  H2435  1  0.140500  0.899300  0.341400  1
  H  H2436  1  0.241200  0.442100  0.100700  1
  H  H2437  1  0.238800  0.381400  0.430600  1
  H  H2438  1  0.857400  0.049200  0.618600  1
  H  H2439  1  0.808200  0.569400  0.950800  1
  H  H2440  1  0.761200  0.618600  0.569400  1
  H  H2441  1  0.142600  0.950800  0.381400  1
  H  H2442  1  0.191800  0.430600  0.049200  1
  H  H2443  1  0.252400  0.436800  0.464600  1
  H  H2444  1  0.815600  0.027800  0.563200  1
  H  H2445  1  0.787800  0.535400  0.972200  1
  H  H2446  1  0.747600  0.563200  0.535400  1
  H  H2447  1  0.184400  0.972200  0.436800  1
  H  H2448  1  0.212200  0.464600  0.027800  1
  H  H2449  1  0.108700  0.802300  0.010800  1
  H  H2450  1  0.306400  0.208500  0.197700  1
  H  H2451  1  0.097900  0.989200  0.791500  1
  H  H2452  1  0.891300  0.197700  0.989200  1
  H  H2453  1  0.693600  0.791500  0.802300  1
  H  H2454  1  0.902100  0.010800  0.208500  1
  H  H2455  1  0.148600  0.856200  0.055900  1
  H  H2456  1  0.292400  0.199700  0.143800  1
  H  H2457  1  0.092700  0.944100  0.800300  1
  H  H2458  1  0.851400  0.143800  0.944100  1
  H  H2459  1  0.707600  0.800300  0.856200  1
  H  H2460  1  0.907300  0.055900  0.199700  1
  H  H2461  1  0.222600  0.870000  0.094000  1
  H  H2462  1  0.352600  0.224000  0.130000  1
  H  H2463  1  0.128600  0.906000  0.776000  1
  H  H2464  1  0.777400  0.130000  0.906000  1
  H  H2465  1  0.647400  0.776000  0.870000  1
  H  H2466  1  0.871400  0.094000  0.224000  1
  H  H2467  1  0.260600  0.830400  0.084100  1
  H  H2468  1  0.430200  0.253700  0.169600  1
  H  H2469  1  0.176500  0.915900  0.746300  1
  H  H2470  1  0.739400  0.169600  0.915900  1
  H  H2471  1  0.569800  0.746300  0.830400  1
  H  H2472  1  0.823500  0.084100  0.253700  1
  H  H2473  1  0.250500  0.768800  0.050900  1
  H  H2474  1  0.481700  0.282100  0.231200  1
  H  H2475  1  0.199600  0.949100  0.717900  1
  H  H2476  1  0.749500  0.231200  0.949100  1
  H  H2477  1  0.518300  0.717900  0.768800  1
  H  H2478  1  0.800400  0.050900  0.282100  1
  H  H2479  1  0.158400  0.680600  0.006200  1
  H  H2480  1  0.477800  0.325600  0.319400  1
  H  H2481  1  0.152200  0.993800  0.674400  1
  H  H2482  1  0.841600  0.319400  0.993800  1
  H  H2483  1  0.522200  0.674400  0.680600  1
  H  H2484  1  0.847800  0.006200  0.325600  1
  H  H2485  1  0.185700  0.636400  0.992500  1
  H  H2486  1  0.549300  0.356100  0.363600  1
  H  H2487  1  0.193200  0.007500  0.643900  1
  H  H2488  1  0.814300  0.363600  0.007500  1
  H  H2489  1  0.450700  0.643900  0.636400  1
  H  H2490  1  0.806800  0.992500  0.356100  1
  H  H2491  1  0.302400  0.689300  0.988800  1
  H  H2492  1  0.613100  0.299500  0.310700  1
  H  H2493  1  0.313600  0.011200  0.700500  1
  H  H2494  1  0.697600  0.310700  0.011200  1
  H  H2495  1  0.386900  0.700500  0.689300  1
  H  H2496  1  0.686400  0.988800  0.299500  1
  H  H2497  1  0.275400  0.733300  0.001800  1
  H  H2498  1  0.542100  0.268500  0.266700  1
  H  H2499  1  0.273600  0.998200  0.731500  1
  H  H2500  1  0.724600  0.266700  0.998200  1
  H  H2501  1  0.457900  0.731500  0.733300  1
  H  H2502  1  0.726400  0.001800  0.268500  1
  H  H2503  1  0.332200  0.651800  0.998400  1
  H  H2504  1  0.680400  0.346600  0.348200  1
  H  H2505  1  0.333800  0.001600  0.653400  1
  H  H2506  1  0.667800  0.348200  0.001600  1
  H  H2507  1  0.319600  0.653400  0.651800  1
  H  H2508  1  0.666200  0.998400  0.346600  1
  H  H2509  1  0.354800  0.605800  0.981100  1
  H  H2510  1  0.749000  0.375300  0.394200  1
  H  H2511  1  0.373700  0.018900  0.624700  1
  H  H2512  1  0.645200  0.394200  0.018900  1
  H  H2513  1  0.251000  0.624700  0.605800  1
  H  H2514  1  0.626300  0.981100  0.375300  1
  H  H2515  1  0.332800  0.544300  0.949900  1
  H  H2516  1  0.788500  0.405600  0.455700  1
  H  H2517  1  0.382900  0.050100  0.594400  1
  H  H2518  1  0.667200  0.455700  0.050100  1
  H  H2519  1  0.211500  0.594400  0.544300  1
  H  H2520  1  0.617100  0.949900  0.405600  1
  H  H2521  1  0.310600  0.483200  0.922500  1
  H  H2522  1  0.827400  0.439300  0.516800  1
  H  H2523  1  0.388100  0.077500  0.560700  1
  H  H2524  1  0.689400  0.516800  0.077500  1
  H  H2525  1  0.172600  0.560700  0.483200  1
  H  H2526  1  0.611900  0.922500  0.439300  1
  H  H2527  1  0.173600  0.425300  0.867900  1
  H  H2528  1  0.748300  0.442600  0.574700  1
  H  H2529  1  0.305700  0.132100  0.557400  1
  H  H2530  1  0.826400  0.574700  0.132100  1
  H  H2531  1  0.251700  0.557400  0.425300  1
  H  H2532  1  0.694300  0.867900  0.442600  1
  H  H2533  1  0.151700  0.471400  0.879400  1
  H  H2534  1  0.680300  0.408000  0.528600  1
  H  H2535  1  0.272300  0.120600  0.592000  1
  H  H2536  1  0.848300  0.528600  0.120600  1
  H  H2537  1  0.319700  0.592000  0.471400  1
  H  H2538  1  0.727700  0.879400  0.408000  1
  H  H2539  1  0.173700  0.533000  0.912300  1
  H  H2540  1  0.640700  0.379300  0.467000  1
  H  H2541  1  0.261400  0.087700  0.620700  1
  H  H2542  1  0.826300  0.467000  0.087700  1
  H  H2543  1  0.359300  0.620700  0.533000  1
  H  H2544  1  0.738600  0.912300  0.379300  1
  H  H2545  1  0.195300  0.594600  0.944900  1
  H  H2546  1  0.600700  0.350300  0.405400  1
  H  H2547  1  0.250400  0.055100  0.649700  1
  H  H2548  1  0.804700  0.405400  0.055100  1
  H  H2549  1  0.399300  0.649700  0.594600  1
  H  H2550  1  0.749600  0.944900  0.350300  1
  H  H2551  1  0.327300  0.437200  0.895000  1
  H  H2552  1  0.890100  0.457800  0.562800  1
  H  H2553  1  0.432300  0.105000  0.542200  1
  H  H2554  1  0.672700  0.562800  0.105000  1
  H  H2555  1  0.109900  0.542200  0.437200  1
  H  H2556  1  0.567700  0.895000  0.457800  1
  H  H2557  1  0.346900  0.392800  0.894100  1
  H  H2558  1  0.954100  0.501300  0.607200  1
  H  H2559  1  0.452800  0.105900  0.498700  1
  H  H2560  1  0.653100  0.607200  0.105900  1
  H  H2561  1  0.045900  0.498700  0.392800  1
  H  H2562  1  0.547200  0.894100  0.501300  1
  H  H2563  1  0.213700  0.349200  0.888500  1
  H  H2564  1  0.864500  0.539300  0.650800  1
  H  H2565  1  0.325200  0.111500  0.460700  1
  H  H2566  1  0.786300  0.650800  0.111500  1
  H  H2567  1  0.135500  0.460700  0.349200  1
  H  H2568  1  0.674800  0.888500  0.539300  1
  H  H2569  1  0.193400  0.392900  0.886500  1
  H  H2570  1  0.800500  0.493600  0.607100  1
  H  H2571  1  0.306900  0.113500  0.506400  1
  H  H2572  1  0.806600  0.607100  0.113500  1
  H  H2573  1  0.199500  0.506400  0.392900  1
  H  H2574  1  0.693100  0.886500  0.493600  1
  H  H2575  1  0.339900  0.365600  0.935400  1
  H  H2576  1  0.974300  0.569800  0.634400  1
  H  H2577  1  0.404500  0.064600  0.430200  1
  H  H2578  1  0.660100  0.634400  0.064600  1
  H  H2579  1  0.025700  0.430200  0.365600  1
  H  H2580  1  0.595500  0.935400  0.569800  1
  H  H2581  1  0.379200  0.336300  0.964400  1
  H  H2582  1  0.042900  0.628100  0.663700  1
  H  H2583  1  0.414800  0.035600  0.371900  1
  H  H2584  1  0.620800  0.663700  0.035600  1
  H  H2585  1  0.957100  0.371900  0.336300  1
  H  H2586  1  0.585200  0.964400  0.628100  1
  H  H2587  1  0.393400  0.288400  0.957700  1
  H  H2588  1  0.105000  0.669300  0.711600  1
  H  H2589  1  0.435700  0.042300  0.330700  1
  H  H2590  1  0.606600  0.711600  0.042300  1
  H  H2591  1  0.895000  0.330700  0.288400  1
  H  H2592  1  0.564300  0.957700  0.669300  1
  H  H2593  1  0.355700  0.240000  0.905600  1
  H  H2594  1  0.115700  0.665600  0.760000  1
  H  H2595  1  0.450100  0.094400  0.334400  1
  H  H2596  1  0.644300  0.760000  0.094400  1
  H  H2597  1  0.884300  0.334400  0.240000  1
  H  H2598  1  0.549900  0.905600  0.665600  1
  H  H2599  1  0.309900  0.241100  0.861300  1
  H  H2600  1  0.068800  0.620200  0.758900  1
  H  H2601  1  0.448600  0.138700  0.379800  1
  H  H2602  1  0.690100  0.758900  0.138700  1
  H  H2603  1  0.931200  0.379800  0.241100  1
  H  H2604  1  0.551400  0.861300  0.620200  1
  H  H2605  1  0.244600  0.272300  0.901800  1
  H  H2606  1  0.972300  0.629500  0.727700  1
  H  H2607  1  0.342800  0.098200  0.370500  1
  H  H2608  1  0.755400  0.727700  0.098200  1
  H  H2609  1  0.027700  0.370500  0.272300  1
  H  H2610  1  0.657200  0.901800  0.629500  1
  H  H2611  1  0.174600  0.257700  0.912500  1
  H  H2612  1  0.916900  0.654800  0.742300  1
  H  H2613  1  0.262100  0.087500  0.345200  1
  H  H2614  1  0.825400  0.742300  0.087500  1
  H  H2615  1  0.083100  0.345200  0.257700  1
  H  H2616  1  0.737900  0.912500  0.654800  1
  H  H2617  1  0.104400  0.259900  0.884200  1
  H  H2618  1  0.844500  0.624300  0.740100  1
  H  H2619  1  0.220200  0.115800  0.375700  1
  H  H2620  1  0.895600  0.740100  0.115800  1
  H  H2621  1  0.155500  0.375700  0.259900  1
  H  H2622  1  0.779800  0.884200  0.624300  1
  H  H2623  1  0.102700  0.271900  0.841000  1
  H  H2624  1  0.830800  0.569100  0.728100  1
  H  H2625  1  0.261700  0.159000  0.430900  1
  H  H2626  1  0.897300  0.728100  0.159000  1
  H  H2627  1  0.169200  0.430900  0.271900  1
  H  H2628  1  0.738300  0.841000  0.569100  1
  H  H2629  1  0.150700  0.289200  0.809000  1
  H  H2630  1  0.861500  0.519800  0.710800  1
  H  H2631  1  0.341700  0.191000  0.480200  1
  H  H2632  1  0.849300  0.710800  0.191000  1
  H  H2633  1  0.138500  0.480200  0.289200  1
  H  H2634  1  0.658300  0.809000  0.519800  1
  H  H2635  1  0.252200  0.358100  0.828900  1
  H  H2636  1  0.894100  0.470800  0.641900  1
  H  H2637  1  0.423300  0.171100  0.529200  1
  H  H2638  1  0.747800  0.641900  0.171100  1
  H  H2639  1  0.105900  0.529200  0.358100  1
  H  H2640  1  0.576700  0.828900  0.470800  1
  H  H2641  1  0.254900  0.370500  0.786800  1
  H  H2642  1  0.884400  0.416300  0.629500  1
  H  H2643  1  0.468100  0.213200  0.583700  1
  H  H2644  1  0.745100  0.629500  0.213200  1
  H  H2645  1  0.115600  0.583700  0.370500  1
  H  H2646  1  0.531900  0.786800  0.416300  1
  H  H2647  1  0.208800  0.274100  0.719400  1
  H  H2648  1  0.934700  0.445300  0.725900  1
  H  H2649  1  0.489400  0.280600  0.554700  1
  H  H2650  1  0.791200  0.725900  0.280600  1
  H  H2651  1  0.065300  0.554700  0.274100  1
  H  H2652  1  0.510600  0.719400  0.445300  1
  H  H2653  1  0.203300  0.260800  0.760000  1
  H  H2654  1  0.942500  0.499200  0.739200  1
  H  H2655  1  0.443300  0.240000  0.500800  1
  H  H2656  1  0.796700  0.739200  0.240000  1
  H  H2657  1  0.057500  0.500800  0.260800  1
  H  H2658  1  0.556700  0.760000  0.499200  1
  H  H2659  1  0.184600  0.294400  0.685300  1
  H  H2660  1  0.890200  0.390900  0.705600  1
  H  H2661  1  0.499300  0.314700  0.609100  1
  H  H2662  1  0.815400  0.705600  0.314700  1
  H  H2663  1  0.109800  0.609100  0.294400  1
  H  H2664  1  0.500700  0.685300  0.390900  1
  H  H2665  1  0.189000  0.308000  0.645300  1
  H  H2666  1  0.881000  0.337300  0.692000  1
  H  H2667  1  0.543700  0.354700  0.662700  1
  H  H2668  1  0.811000  0.692000  0.354700  1
  H  H2669  1  0.119000  0.662700  0.308000  1
  H  H2670  1  0.456300  0.645300  0.337300  1
  H  H2671  1  0.228900  0.347500  0.628600  1
  H  H2672  1  0.881400  0.281100  0.652500  1
  H  H2673  1  0.600300  0.371400  0.718900  1
  H  H2674  1  0.771100  0.652500  0.371400  1
  H  H2675  1  0.118600  0.718900  0.347500  1
  H  H2676  1  0.399700  0.628600  0.281100  1
  H  H2677  1  0.263200  0.391800  0.616100  1
  H  H2678  1  0.871400  0.224300  0.608200  1
  H  H2679  1  0.647100  0.383900  0.775700  1
  H  H2680  1  0.736800  0.608200  0.383900  1
  H  H2681  1  0.128600  0.775700  0.391800  1
  H  H2682  1  0.352900  0.616100  0.224300  1
  H  H2683  1  0.377200  0.472300  0.685000  1
  H  H2684  1  0.904900  0.212700  0.527700  1
  H  H2685  1  0.692200  0.315000  0.787300  1
  H  H2686  1  0.622800  0.527700  0.315000  1
  H  H2687  1  0.095100  0.787300  0.472300  1
  H  H2688  1  0.307800  0.685000  0.212700  1
  H  H2689  1  0.377200  0.454000  0.723100  1
  H  H2690  1  0.923200  0.269100  0.546000  1
  H  H2691  1  0.654100  0.276900  0.730900  1
  H  H2692  1  0.622800  0.546000  0.276900  1
  H  H2693  1  0.076800  0.730900  0.454000  1
  H  H2694  1  0.345900  0.723100  0.269100  1
  H  H2695  1  0.342200  0.410400  0.735800  1
  H  H2696  1  0.931800  0.325400  0.589600  1
  H  H2697  1  0.606400  0.264200  0.674600  1
  H  H2698  1  0.657800  0.589600  0.264200  1
  H  H2699  1  0.068200  0.674600  0.410400  1
  H  H2700  1  0.393600  0.735800  0.325400  1
  H  H2701  1  0.296100  0.375300  0.754400  1
  H  H2702  1  0.920800  0.379100  0.624700  1
  H  H2703  1  0.541700  0.245600  0.620900  1
  H  H2704  1  0.703900  0.624700  0.245600  1
  H  H2705  1  0.079200  0.620900  0.375300  1
  H  H2706  1  0.458300  0.754400  0.379100  1
  H  H2707  1  0.300600  0.399900  0.579800  1
  H  H2708  1  0.900700  0.179900  0.600100  1
  H  H2709  1  0.720800  0.420200  0.820100  1
  H  H2710  1  0.699400  0.600100  0.420200  1
  H  H2711  1  0.099300  0.820100  0.399900  1
  H  H2712  1  0.279200  0.579800  0.179900  1
  H  H2713  1  0.289800  0.418900  0.542800  1
  H  H2714  1  0.870900  0.123900  0.581100  1
  H  H2715  1  0.747000  0.457200  0.876100  1
  H  H2716  1  0.710200  0.581100  0.457200  1
  H  H2717  1  0.129100  0.876100  0.418900  1
  H  H2718  1  0.253000  0.542800  0.123900  1
  H  H2719  1  0.327300  0.512400  0.618200  1
  H  H2720  1  0.814900  0.105800  0.487600  1
  H  H2721  1  0.709100  0.381800  0.894200  1
  H  H2722  1  0.672700  0.487600  0.381800  1
  H  H2723  1  0.185100  0.894200  0.512400  1
  H  H2724  1  0.290900  0.618200  0.105800  1
  H  H2725  1  0.336800  0.493600  0.655600  1
  H  H2726  1  0.843200  0.162000  0.506400  1
  H  H2727  1  0.681200  0.344400  0.838000  1
  H  H2728  1  0.663200  0.506400  0.344400  1
  H  H2729  1  0.156800  0.838000  0.493600  1
  H  H2730  1  0.318800  0.655600  0.162000  1
  H  H2731  1  0.361000  0.484100  0.549900  1
  H  H2732  1  0.876900  0.065800  0.515900  1
  H  H2733  1  0.811100  0.450100  0.934200  1
  H  H2734  1  0.639000  0.515900  0.450100  1
  H  H2735  1  0.123100  0.934200  0.484100  1
  H  H2736  1  0.188900  0.549900  0.065800  1
  H  H2737  1  0.384900  0.505600  0.510700  1
  H  H2738  1  0.879300  0.005100  0.494400  1
  H  H2739  1  0.874200  0.489300  0.994900  1
  H  H2740  1  0.615100  0.494400  0.489300  1
  H  H2741  1  0.120700  0.994900  0.505600  1
  H  H2742  1  0.125800  0.510700  0.005100  1
  H  H2743  1  0.361300  0.524900  0.474900  1
  H  H2744  1  0.836400  0.950000  0.475100  1
  H  H2745  1  0.886400  0.525100  0.050000  1
  H  H2746  1  0.638700  0.475100  0.525100  1
  H  H2747  1  0.163600  0.050000  0.524900  1
  H  H2748  1  0.113600  0.474900  0.950000  1
  H  H2749  1  0.279400  0.514000  0.451900  1
  H  H2750  1  0.765400  0.937900  0.486000  1
  H  H2751  1  0.827500  0.548100  0.062100  1
  H  H2752  1  0.720600  0.486000  0.548100  1
  H  H2753  1  0.234600  0.062100  0.514000  1
  H  H2754  1  0.172500  0.451900  0.937900  1
  H  H2755  1  0.229000  0.501600  0.478700  1
  H  H2756  1  0.727400  0.977100  0.498400  1
  H  H2757  1  0.750300  0.521300  0.022900  1
  H  H2758  1  0.771000  0.498400  0.521300  1
  H  H2759  1  0.272600  0.022900  0.501600  1
  H  H2760  1  0.249700  0.478700  0.977100  1
  H  H2761  1  0.454700  0.541100  0.905100  1
  H  H2762  1  0.913600  0.364000  0.458900  1
  H  H2763  1  0.549600  0.094900  0.636000  1
  H  H2764  1  0.545300  0.458900  0.094900  1
  H  H2765  1  0.086400  0.636000  0.541100  1
  H  H2766  1  0.450400  0.905100  0.364000  1
  H  H2767  1  0.419100  0.510100  0.870400  1
  H  H2768  1  0.909000  0.360300  0.489900  1
  H  H2769  1  0.548700  0.129600  0.639700  1
  H  H2770  1  0.580900  0.489900  0.129600  1
  H  H2771  1  0.091000  0.639700  0.510100  1
  H  H2772  1  0.451300  0.870400  0.360300  1
  H  H2773  1  0.468000  0.508700  0.888600  1
  H  H2774  1  0.959300  0.379900  0.491300  1
  H  H2775  1  0.579400  0.111400  0.620100  1
  H  H2776  1  0.532000  0.491300  0.111400  1
  H  H2777  1  0.040700  0.620100  0.508700  1
  H  H2778  1  0.420600  0.888600  0.379900  1
  N  N2779  1  0.830600  0.775770  0.012730  1
  N  N2780  1  0.054830  0.236960  0.224230  1
  N  N2781  1  0.817870  0.987270  0.763040  1
  N  N2782  1  0.169400  0.224230  0.987270  1
  N  N2783  1  0.945170  0.763040  0.775770  1
  N  N2784  1  0.182130  0.012730  0.236960  1
  N  N2785  1  0.763200  0.750470  0.957330  1
  N  N2786  1  0.012730  0.206860  0.249530  1
  N  N2787  1  0.805870  0.042670  0.793140  1
  N  N2788  1  0.236800  0.249530  0.042670  1
  N  N2789  1  0.987270  0.793140  0.750470  1
  N  N2790  1  0.194130  0.957330  0.206860  1
  N  N2791  1  0.243750  0.525150  0.562700  1
  N  N2792  1  0.718600  0.037550  0.474850  1
  N  N2793  1  0.681050  0.437300  0.962450  1
  N  N2794  1  0.756250  0.474850  0.437300  1
  N  N2795  1  0.281400  0.962450  0.525150  1
  N  N2796  1  0.318950  0.562700  0.037550  1
  N  N2797  1  0.176080  0.483400  0.506440  1
  N  N2798  1  0.692680  0.023040  0.516600  1
  N  N2799  1  0.669640  0.493560  0.976960  1
  N  N2800  1  0.823920  0.516600  0.493560  1
  N  N2801  1  0.307320  0.976960  0.483400  1
  N  N2802  1  0.330360  0.506440  0.023040  1
  N  N2803  1  0.849550  0.744980  0.952770  1
  N  N2804  1  0.104570  0.207790  0.255020  1
  N  N2805  1  0.896780  0.047230  0.792210  1
  N  N2806  1  0.150450  0.255020  0.047230  1
  N  N2807  1  0.895430  0.792210  0.744980  1
  N  N2808  1  0.103220  0.952770  0.207790  1
  N  N2809  1  0.783910  0.689190  0.930740  1
  N  N2810  1  0.094720  0.241550  0.310810  1
  N  N2811  1  0.853170  0.069260  0.758450  1
  N  N2812  1  0.216090  0.310810  0.069260  1
  N  N2813  1  0.905280  0.758450  0.689190  1
  N  N2814  1  0.146830  0.930740  0.241550  1
  N  N2815  1  0.318330  0.299930  0.831360  1
  N  N2816  1  0.018400  0.531430  0.700070  1
  N  N2817  1  0.486970  0.168640  0.468570  1
  N  N2818  1  0.681670  0.700070  0.168640  1
  N  N2819  1  0.981600  0.468570  0.299930  1
  N  N2820  1  0.513030  0.831360  0.531430  1
  N  N2821  1  0.252190  0.247150  0.816520  1
  N  N2822  1  0.005040  0.569370  0.752850  1
  N  N2823  1  0.435670  0.183480  0.430630  1
  N  N2824  1  0.747810  0.752850  0.183480  1
  N  N2825  1  0.994960  0.430630  0.247150  1
  N  N2826  1  0.564330  0.816520  0.569370  1
  N  N2827  1  0.851110  0.715910  0.994320  1
  N  N2828  1  0.135200  0.278410  0.284090  1
  N  N2829  1  0.856790  0.005680  0.721590  1
  N  N2830  1  0.148890  0.284090  0.005680  1
  N  N2831  1  0.864800  0.721590  0.715910  1
  N  N2832  1  0.143210  0.994320  0.278410  1
  N  N2833  1  0.766570  0.714750  0.994160  1
  N  N2834  1  0.051820  0.279410  0.285250  1
  N  N2835  1  0.772410  0.005840  0.720590  1
  N  N2836  1  0.233430  0.285250  0.005840  1
  N  N2837  1  0.948180  0.720590  0.714750  1
  N  N2838  1  0.227590  0.994160  0.279410  1
  N  N2839  1  0.170660  0.755180  0.959400  1
  N  N2840  1  0.415480  0.204220  0.244820  1
  N  N2841  1  0.211260  0.040600  0.795780  1
  N  N2842  1  0.829340  0.244820  0.040600  1
  N  N2843  1  0.584520  0.795780  0.755180  1
  N  N2844  1  0.788740  0.959400  0.204220  1
  N  N2845  1  0.084200  0.746030  0.958770  1
  N  N2846  1  0.338170  0.212740  0.253970  1
  N  N2847  1  0.125430  0.041230  0.787260  1
  N  N2848  1  0.915800  0.253970  0.041230  1
  N  N2849  1  0.661830  0.787260  0.746030  1
  N  N2850  1  0.874570  0.958770  0.212740  1
  N  N2851  1  0.096210  0.719540  0.003590  1
  N  N2852  1  0.376670  0.284050  0.280460  1
  N  N2853  1  0.092620  0.996410  0.715950  1
  N  N2854  1  0.903790  0.280460  0.996410  1
  N  N2855  1  0.623330  0.715950  0.719540  1
  N  N2856  1  0.907380  0.003590  0.284050  1
  N  N2857  1  0.111240  0.690090  0.949130  1
  N  N2858  1  0.421150  0.259040  0.309910  1
  N  N2859  1  0.162110  0.050870  0.740960  1
  N  N2860  1  0.888760  0.309910  0.050870  1
  N  N2861  1  0.578850  0.740960  0.690090  1
  N  N2862  1  0.837890  0.949130  0.259040  1
  N  N2863  1  0.199640  0.454910  0.548610  1
  N  N2864  1  0.744730  0.093700  0.545090  1
  N  N2865  1  0.651030  0.451390  0.906300  1
  N  N2866  1  0.800360  0.545090  0.451390  1
  N  N2867  1  0.255270  0.906300  0.454910  1
  N  N2868  1  0.348970  0.548610  0.093700  1
  N  N2869  1  0.221220  0.431930  0.495330  1
  N  N2870  1  0.789290  0.063400  0.568070  1
  N  N2871  1  0.725890  0.504670  0.936600  1
  N  N2872  1  0.778780  0.568070  0.504670  1
  N  N2873  1  0.210710  0.936600  0.431930  1
  N  N2874  1  0.274110  0.495330  0.063400  1
  N  N2875  1  0.160080  0.784040  0.021200  1
  N  N2876  1  0.376040  0.237160  0.215960  1
  N  N2877  1  0.138880  0.978800  0.762840  1
  N  N2878  1  0.839920  0.215960  0.978800  1
  N  N2879  1  0.623960  0.762840  0.784040  1
  N  N2880  1  0.861120  0.021200  0.237160  1
  N  N2881  1  0.194820  0.737390  0.010070  1
  N  N2882  1  0.457430  0.272680  0.262610  1
  N  N2883  1  0.184750  0.989930  0.727320  1
  N  N2884  1  0.805180  0.262610  0.989930  1
  N  N2885  1  0.542570  0.727320  0.737390  1
  N  N2886  1  0.815250  0.010070  0.272680  1
  N  N2887  1  0.293780  0.338520  0.889520  1
  N  N2888  1  0.955260  0.551000  0.661480  1
  N  N2889  1  0.404260  0.110480  0.449000  1
  N  N2890  1  0.706220  0.661480  0.110480  1
  N  N2891  1  0.044740  0.449000  0.338520  1
  N  N2892  1  0.595740  0.889520  0.551000  1
  N  N2893  1  0.314190  0.287670  0.885800  1
  N  N2894  1  0.026520  0.598130  0.712330  1
  N  N2895  1  0.428390  0.114200  0.401870  1
  N  N2896  1  0.685810  0.712330  0.114200  1
  N  N2897  1  0.973480  0.401870  0.287670  1
  N  N2898  1  0.571610  0.885800  0.598130  1
  N  N2899  1  0.216120  0.282320  0.866940  1
  N  N2900  1  0.933800  0.584620  0.717680  1
  N  N2901  1  0.349180  0.133060  0.415380  1
  N  N2902  1  0.783880  0.717680  0.133060  1
  N  N2903  1  0.066200  0.415380  0.282320  1
  N  N2904  1  0.650820  0.866940  0.584620  1
  N  N2905  1  0.220090  0.298640  0.822330  1
  N  N2906  1  0.921450  0.523690  0.701360  1
  N  N2907  1  0.397760  0.177670  0.476310  1
  N  N2908  1  0.779910  0.701360  0.177670  1
  N  N2909  1  0.078550  0.476310  0.298640  1
  N  N2910  1  0.602240  0.822330  0.523690  1
  N  N2911  1  0.297550  0.478130  0.552420  1
  N  N2912  1  0.819420  0.074290  0.521870  1
  N  N2913  1  0.745130  0.447580  0.925710  1
  N  N2914  1  0.702450  0.521870  0.447580  1
  N  N2915  1  0.180580  0.925710  0.478130  1
  N  N2916  1  0.254870  0.552420  0.074290  1
  N  N2917  1  0.275610  0.495370  0.508660  1
  N  N2918  1  0.780240  0.013290  0.504630  1
  N  N2919  1  0.766950  0.491340  0.986710  1
  N  N2920  1  0.724390  0.504630  0.491340  1
  N  N2921  1  0.219760  0.986710  0.495370  1
  N  N2922  1  0.233050  0.508660  0.013290  1
  N  N2923  1  0.401500  0.491800  0.920200  1
  N  N2924  1  0.909700  0.428400  0.508200  1
  N  N2925  1  0.481300  0.079800  0.571600  1
  N  N2926  1  0.598500  0.508200  0.079800  1
  N  N2927  1  0.090300  0.571600  0.491800  1
  N  N2928  1  0.518700  0.920200  0.428400  1
  N  N2929  1  0.999200  0.117400  0.764800  1
  N  N2930  1  0.881800  0.647400  0.882600  1
  N  N2931  1  0.234400  0.235200  0.352600  1
  N  N2932  1  0.000800  0.882600  0.235200  1
  N  N2933  1  0.118200  0.352600  0.117400  1
  N  N2934  1  0.765600  0.764800  0.647400  1
  N  N2935  1  0.237600  0.156000  0.879200  1
  N  N2936  1  0.081600  0.723200  0.844000  1
  N  N2937  1  0.358400  0.120800  0.276800  1
  N  N2938  1  0.762400  0.844000  0.120800  1
  N  N2939  1  0.918400  0.276800  0.156000  1
  N  N2940  1  0.641600  0.879200  0.723200  1
  N  N2941  1  0.237700  0.174500  0.916500  1
  N  N2942  1  0.063200  0.742000  0.825500  1
  N  N2943  1  0.321200  0.083500  0.258000  1
  N  N2944  1  0.762300  0.825500  0.083500  1
  N  N2945  1  0.936800  0.258000  0.174500  1
  N  N2946  1  0.678800  0.916500  0.742000  1
  N  N2947  1  0.978800  0.791900  0.070700  1
  N  N2948  1  0.186900  0.278800  0.208100  1
  N  N2949  1  0.908100  0.929300  0.721200  1
  N  N2950  1  0.021200  0.208100  0.929300  1
  N  N2951  1  0.813100  0.721200  0.791900  1
  N  N2952  1  0.091900  0.070700  0.278800  1
  N  N2953  1  0.047100  0.823200  0.116800  1
  N  N2954  1  0.223900  0.293600  0.176800  1
  N  N2955  1  0.930300  0.883200  0.706400  1
  N  N2956  1  0.952900  0.176800  0.883200  1
  N  N2957  1  0.776100  0.706400  0.823200  1
  N  N2958  1  0.069700  0.116800  0.293600  1
  N  N2959  1  0.416900  0.597600  0.005800  1
  N  N2960  1  0.819300  0.408200  0.402400  1
  N  N2961  1  0.411100  0.994200  0.591800  1
  N  N2962  1  0.583100  0.402400  0.994200  1
  N  N2963  1  0.180700  0.591800  0.597600  1
  N  N2964  1  0.588900  0.005800  0.408200  1
  N  N2965  1  0.493500  0.586600  0.991000  1
  N  N2966  1  0.906900  0.404400  0.413400  1
  N  N2967  1  0.502500  0.009000  0.595600  1
  N  N2968  1  0.506500  0.413400  0.009000  1
  N  N2969  1  0.093100  0.595600  0.586600  1
  N  N2970  1  0.497500  0.991000  0.404400  1
  N  N2971  1  0.462100  0.607400  0.018800  1
  N  N2972  1  0.854700  0.411400  0.392600  1
  N  N2973  1  0.443300  0.981200  0.588600  1
  N  N2974  1  0.537900  0.392600  0.981200  1
  N  N2975  1  0.145300  0.588600  0.607400  1
  N  N2976  1  0.556700  0.018800  0.411400  1
  O  O2977  1  0.047600  0.177200  0.805500  1
  O  O2978  1  0.870400  0.628300  0.822800  1
  O  O2979  1  0.242100  0.194500  0.371700  1
  O  O2980  1  0.952400  0.822800  0.194500  1
  O  O2981  1  0.129600  0.371700  0.177200  1
  O  O2982  1  0.757900  0.805500  0.628300  1
  O  O2983  1  0.082600  0.139800  0.767900  1
  O  O2984  1  0.942800  0.628100  0.860200  1
  O  O2985  1  0.314700  0.232100  0.371900  1
  O  O2986  1  0.917400  0.860200  0.232100  1
  O  O2987  1  0.057200  0.371900  0.139800  1
  O  O2988  1  0.685300  0.767900  0.628100  1
  O  O2989  1  0.046300  0.087800  0.734100  1
  O  O2990  1  0.958500  0.646300  0.912200  1
  O  O2991  1  0.312200  0.265900  0.353700  1
  O  O2992  1  0.953700  0.912200  0.265900  1
  O  O2993  1  0.041500  0.353700  0.087800  1
  O  O2994  1  0.687800  0.734100  0.646300  1
  O  O2995  1  0.992800  0.059400  0.748700  1
  O  O2996  1  0.933400  0.689300  0.940600  1
  O  O2997  1  0.244100  0.251300  0.310700  1
  O  O2998  1  0.007200  0.940600  0.251300  1
  O  O2999  1  0.066600  0.310700  0.059400  1
  O  O3000  1  0.755900  0.748700  0.689300  1
  O  O3001  1  0.216300  0.205700  0.914700  1
  O  O3002  1  0.010600  0.709000  0.794300  1
  O  O3003  1  0.301600  0.085300  0.291000  1
  O  O3004  1  0.783700  0.794300  0.085300  1
  O  O3005  1  0.989400  0.291000  0.205700  1
  O  O3006  1  0.698400  0.914700  0.709000  1
  O  O3007  1  0.234700  0.198400  0.864100  1
  O  O3008  1  0.036300  0.665700  0.801600  1
  O  O3009  1  0.370600  0.135900  0.334300  1
  O  O3010  1  0.765300  0.801600  0.135900  1
  O  O3011  1  0.963700  0.334300  0.198400  1
  O  O3012  1  0.629400  0.864100  0.665700  1
  O  O3013  1  0.271900  0.165400  0.935500  1
  O  O3014  1  0.106500  0.770100  0.834600  1
  O  O3015  1  0.336400  0.064500  0.229900  1
  O  O3016  1  0.728100  0.834600  0.064500  1
  O  O3017  1  0.893500  0.229900  0.165400  1
  O  O3018  1  0.663600  0.935500  0.770100  1
  O  O3019  1  0.324200  0.188800  0.910000  1
  O  O3020  1  0.135400  0.721200  0.811200  1
  O  O3021  1  0.414200  0.090000  0.278800  1
  O  O3022  1  0.675800  0.811200  0.090000  1
  O  O3023  1  0.864600  0.278800  0.188800  1
  O  O3024  1  0.585800  0.910000  0.721200  1
  O  O3025  1  0.227200  0.224600  0.918000  1
  O  O3026  1  0.002600  0.693400  0.775400  1
  O  O3027  1  0.309200  0.082000  0.306600  1
  O  O3028  1  0.772800  0.775400  0.082000  1
  O  O3029  1  0.997400  0.306600  0.224600  1
  O  O3030  1  0.690800  0.918000  0.693400  1
  O  O3031  1  0.252400  0.191900  0.873900  1
  O  O3032  1  0.060500  0.682000  0.808100  1
  O  O3033  1  0.378500  0.126100  0.318000  1
  O  O3034  1  0.747600  0.808100  0.126100  1
  O  O3035  1  0.939500  0.318000  0.191900  1
  O  O3036  1  0.621500  0.873900  0.682000  1
  O  O3037  1  0.234400  0.122800  0.920200  1
  O  O3038  1  0.111600  0.797400  0.877200  1
  O  O3039  1  0.314200  0.079800  0.202600  1
  O  O3040  1  0.765600  0.877200  0.079800  1
  O  O3041  1  0.888400  0.202600  0.122800  1
  O  O3042  1  0.685800  0.920200  0.797400  1
  O  O3043  1  0.262400  0.132600  0.877400  1
  O  O3044  1  0.129800  0.744800  0.867400  1
  O  O3045  1  0.385000  0.122600  0.255200  1
  O  O3046  1  0.737600  0.867400  0.122600  1
  O  O3047  1  0.870200  0.255200  0.132600  1
  O  O3048  1  0.615000  0.877400  0.744800  1
  O  O3049  1  0.007200  0.764800  0.023100  1
  O  O3050  1  0.242400  0.258300  0.235200  1
  O  O3051  1  0.984100  0.976900  0.741700  1
  O  O3052  1  0.992800  0.235200  0.976900  1
  O  O3053  1  0.757600  0.741700  0.764800  1
  O  O3054  1  0.015900  0.023100  0.258300  1
  O  O3055  1  0.063900  0.801600  0.077500  1
  O  O3056  1  0.262300  0.275900  0.198400  1
  O  O3057  1  0.986400  0.922500  0.724100  1
  O  O3058  1  0.936100  0.198400  0.922500  1
  O  O3059  1  0.737700  0.724100  0.801600  1
  O  O3060  1  0.013600  0.077500  0.275900  1
  O  O3061  1  0.997400  0.755400  0.090700  1
  O  O3062  1  0.242000  0.335300  0.244600  1
  O  O3063  1  0.906700  0.909300  0.664700  1
  O  O3064  1  0.002600  0.244600  0.909300  1
  O  O3065  1  0.758000  0.664700  0.755400  1
  O  O3066  1  0.093300  0.090700  0.335300  1
  O  O3067  1  0.925400  0.770900  0.092600  1
  O  O3068  1  0.154500  0.321700  0.229100  1
  O  O3069  1  0.832800  0.907400  0.678300  1
  O  O3070  1  0.074600  0.229100  0.907400  1
  O  O3071  1  0.845500  0.678300  0.770900  1
  O  O3072  1  0.167200  0.092600  0.321700  1
  O  O3073  1  0.042300  0.856200  0.092500  1
  O  O3074  1  0.186100  0.236300  0.143800  1
  O  O3075  1  0.949800  0.907500  0.763700  1
  O  O3076  1  0.957700  0.143800  0.907500  1
  O  O3077  1  0.813900  0.763700  0.856200  1
  O  O3078  1  0.050200  0.092500  0.236300  1
  O  O3079  1  0.077500  0.809100  0.072400  1
  O  O3080  1  0.268400  0.263300  0.190900  1
  O  O3081  1  0.005100  0.927600  0.736700  1
  O  O3082  1  0.922500  0.190900  0.927600  1
  O  O3083  1  0.731600  0.736700  0.809100  1
  O  O3084  1  0.994900  0.072400  0.263300  1
  O  O3085  1  0.966300  0.813900  0.123700  1
  O  O3086  1  0.152400  0.309800  0.186100  1
  O  O3087  1  0.842600  0.876300  0.690200  1
  O  O3088  1  0.033700  0.186100  0.876300  1
  O  O3089  1  0.847600  0.690200  0.813900  1
  O  O3090  1  0.157400  0.123700  0.309800  1
  O  O3091  1  0.981200  0.780100  0.077400  1
  O  O3092  1  0.201100  0.297300  0.219900  1
  O  O3093  1  0.903800  0.922600  0.702700  1
  O  O3094  1  0.018800  0.219900  0.922600  1
  O  O3095  1  0.798900  0.702700  0.780100  1
  O  O3096  1  0.096200  0.077400  0.297300  1
  O  O3097  1  0.471900  0.597200  0.050900  1
  O  O3098  1  0.874700  0.453700  0.402800  1
  O  O3099  1  0.421000  0.949100  0.546300  1
  O  O3100  1  0.528100  0.402800  0.949100  1
  O  O3101  1  0.125300  0.546300  0.597200  1
  O  O3102  1  0.579000  0.050900  0.453700  1
  O  O3103  1  0.420900  0.632000  0.062600  1
  O  O3104  1  0.788900  0.430600  0.368000  1
  O  O3105  1  0.358300  0.937400  0.569400  1
  O  O3106  1  0.579100  0.368000  0.937400  1
  O  O3107  1  0.211100  0.569400  0.632000  1
  O  O3108  1  0.641700  0.062600  0.430600  1
  O  O3109  1  0.417700  0.544100  0.967800  1
  O  O3110  1  0.873600  0.423700  0.455900  1
  O  O3111  1  0.449900  0.032200  0.576300  1
  O  O3112  1  0.582300  0.455900  0.032200  1
  O  O3113  1  0.126400  0.576300  0.544100  1
  O  O3114  1  0.550100  0.967800  0.423700  1
  O  O3115  1  0.413300  0.584800  0.950200  1
  O  O3116  1  0.828500  0.365400  0.415200  1
  O  O3117  1  0.463100  0.049800  0.634600  1
  O  O3118  1  0.586700  0.415200  0.049800  1
  O  O3119  1  0.171500  0.634600  0.584800  1
  O  O3120  1  0.536900  0.950200  0.365400  1
  O  O3121  1  0.570700  0.606500  0.036500  1
  O  O3122  1  0.964200  0.430000  0.393500  1
  O  O3123  1  0.534200  0.963500  0.570000  1
  O  O3124  1  0.429300  0.393500  0.963500  1
  O  O3125  1  0.035800  0.570000  0.606500  1
  O  O3126  1  0.465800  0.036500  0.430000  1
  O  O3127  1  0.544300  0.550900  0.985600  1
  O  O3128  1  0.993400  0.434700  0.449100  1
  O  O3129  1  0.558700  0.014400  0.565300  1
  O  O3130  1  0.455700  0.449100  0.014400  1
  O  O3131  1  0.006600  0.565300  0.550900  1
  O  O3132  1  0.441300  0.985600  0.434700  1
  O  O3133  1  0.471500  0.586000  0.038100  1
  O  O3134  1  0.885500  0.452100  0.414000  1
  O  O3135  1  0.433400  0.961900  0.547900  1
  O  O3136  1  0.528500  0.414000  0.961900  1
  O  O3137  1  0.114500  0.547900  0.586000  1
  O  O3138  1  0.566600  0.038100  0.452100  1
  O  O3139  1  0.415200  0.582000  0.989900  1
  O  O3140  1  0.833200  0.407900  0.418000  1
  O  O3141  1  0.425300  0.010100  0.592100  1
  O  O3142  1  0.584800  0.418000  0.010100  1
  O  O3143  1  0.166800  0.592100  0.582000  1
  O  O3144  1  0.574700  0.989900  0.407900  1
  O  O3145  1  0.517700  0.633100  0.007200  1
  O  O3146  1  0.884600  0.374100  0.366900  1
  O  O3147  1  0.510500  0.992800  0.625900  1
  O  O3148  1  0.482300  0.366900  0.992800  1
  O  O3149  1  0.115400  0.625900  0.633100  1
  O  O3150  1  0.489500  0.007200  0.374100  1
  O  O3151  1  0.472600  0.647800  0.074400  1
  O  O3152  1  0.824800  0.426600  0.352200  1
  O  O3153  1  0.398200  0.925600  0.573400  1
  O  O3154  1  0.527400  0.352200  0.925600  1
  O  O3155  1  0.175200  0.573400  0.647800  1
  O  O3156  1  0.601800  0.074400  0.426600  1
  O  O3157  1  0.538300  0.661500  0.060700  1
  O  O3158  1  0.876800  0.399200  0.338500  1
  O  O3159  1  0.477600  0.939300  0.600800  1
  O  O3160  1  0.461700  0.338500  0.939300  1
  O  O3161  1  0.123200  0.600800  0.661500  1
  O  O3162  1  0.522400  0.060700  0.399200  1
  O  O3163  1  0.447600  0.578300  0.961200  1
  O  O3164  1  0.869300  0.382900  0.421700  1
  O  O3165  1  0.486400  0.038800  0.617100  1
  O  O3166  1  0.552400  0.421700  0.038800  1
  O  O3167  1  0.130700  0.617100  0.578300  1
  O  O3168  1  0.513600  0.961200  0.382900  1
  P  P3169  1  0.258660  0.382980  0.983900  1
  P  P3170  1  0.875680  0.600920  0.617020  1
  P  P3171  1  0.274760  0.016100  0.399080  1
  P  P3172  1  0.741340  0.617020  0.016100  1
  P  P3173  1  0.124320  0.399080  0.382980  1
  P  P3174  1  0.725240  0.983900  0.600920  1
  S  S3175  1  0.054700  0.147400  0.789100  1
  S  S3176  1  0.907300  0.641700  0.852600  1
  S  S3177  1  0.265600  0.210900  0.358300  1
  S  S3178  1  0.945300  0.852600  0.210900  1
  S  S3179  1  0.092700  0.358300  0.147400  1
  S  S3180  1  0.734400  0.789100  0.641700  1
  S  S3181  1  0.000700  0.081100  0.736900  1
  S  S3182  1  0.919600  0.655800  0.918900  1
  S  S3183  1  0.263800  0.263100  0.344200  1
  S  S3184  1  0.999300  0.918900  0.263100  1
  S  S3185  1  0.080400  0.344200  0.081100  1
  S  S3186  1  0.736200  0.736900  0.655800  1
  S  S3187  1  0.217400  0.187200  0.883700  1
  S  S3188  1  0.030200  0.696500  0.812800  1
  S  S3189  1  0.333700  0.116300  0.303500  1
  S  S3190  1  0.782600  0.812800  0.116300  1
  S  S3191  1  0.969800  0.303500  0.187200  1
  S  S3192  1  0.666300  0.883700  0.696500  1
  S  S3193  1  0.283300  0.163700  0.906000  1
  S  S3194  1  0.119600  0.742300  0.836300  1
  S  S3195  1  0.377300  0.094000  0.257700  1
  S  S3196  1  0.716700  0.836300  0.094000  1
  S  S3197  1  0.880400  0.257700  0.163700  1
  S  S3198  1  0.622700  0.906000  0.742300  1
  S  S3199  1  0.225200  0.192200  0.895800  1
  S  S3200  1  0.033000  0.703600  0.807800  1
  S  S3201  1  0.329400  0.104200  0.296400  1
  S  S3202  1  0.774800  0.807800  0.104200  1
  S  S3203  1  0.967000  0.296400  0.192200  1
  S  S3204  1  0.670600  0.895800  0.703600  1
  S  S3205  1  0.255400  0.143200  0.908800  1
  S  S3206  1  0.112200  0.765600  0.856800  1
  S  S3207  1  0.346600  0.091200  0.234400  1
  S  S3208  1  0.744600  0.856800  0.091200  1
  S  S3209  1  0.887800  0.234400  0.143200  1
  S  S3210  1  0.653400  0.908800  0.765600  1
  S  S3211  1  0.018150  0.794600  0.054950  1
  S  S3212  1  0.223550  0.260350  0.205400  1
  S  S3213  1  0.963200  0.945050  0.739650  1
  S  S3214  1  0.981850  0.205400  0.945050  1
  S  S3215  1  0.776450  0.739650  0.794600  1
  S  S3216  1  0.036800  0.054950  0.260350  1
  S  S3217  1  0.975200  0.783100  0.098400  1
  S  S3218  1  0.192100  0.315300  0.216900  1
  S  S3219  1  0.876800  0.901600  0.684700  1
  S  S3220  1  0.024800  0.216900  0.901600  1
  S  S3221  1  0.807900  0.684700  0.783100  1
  S  S3222  1  0.123200  0.098400  0.315300  1
  S  S3223  1  0.037300  0.821300  0.080000  1
  S  S3224  1  0.216000  0.258700  0.178700  1
  S  S3225  1  0.957300  0.920000  0.741300  1
  S  S3226  1  0.962700  0.178700  0.920000  1
  S  S3227  1  0.784000  0.741300  0.821300  1
  S  S3228  1  0.042700  0.080000  0.258700  1
  S  S3229  1  0.002300  0.801100  0.117000  1
  S  S3230  1  0.201200  0.315900  0.198900  1
  S  S3231  1  0.885300  0.883000  0.684100  1
  S  S3232  1  0.997700  0.198900  0.883000  1
  S  S3233  1  0.798800  0.684100  0.801100  1
  S  S3234  1  0.114700  0.117000  0.315900  1
  S  S3235  1  0.450200  0.617500  0.044700  1
  S  S3236  1  0.832700  0.427200  0.382500  1
  S  S3237  1  0.405500  0.955300  0.572800  1
  S  S3238  1  0.549800  0.382500  0.955300  1
  S  S3239  1  0.167300  0.572800  0.617500  1
  S  S3240  1  0.594500  0.044700  0.427200  1
  S  S3241  1  0.435000  0.579300  0.977600  1
  S  S3242  1  0.855700  0.398300  0.420700  1
  S  S3243  1  0.457400  0.022400  0.601700  1
  S  S3244  1  0.565000  0.420700  0.022400  1
  S  S3245  1  0.144300  0.601700  0.579300  1
  S  S3246  1  0.542600  0.977600  0.398300  1
  S  S3247  1  0.546600  0.584200  0.003600  1
  S  S3248  1  0.962400  0.419400  0.415800  1
  S  S3249  1  0.543000  0.996400  0.580600  1
  S  S3250  1  0.453400  0.415800  0.996400  1
  S  S3251  1  0.037600  0.580600  0.584200  1
  S  S3252  1  0.457000  0.003600  0.419400  1
  S  S3253  1  0.461800  0.595100  0.013400  1
  S  S3254  1  0.866700  0.418300  0.404900  1
  S  S3255  1  0.448400  0.986600  0.581700  1
  S  S3256  1  0.538200  0.404900  0.986600  1
  S  S3257  1  0.133300  0.581700  0.595100  1
  S  S3258  1  0.551600  0.013400  0.418300  1
  S  S3259  1  0.490400  0.645000  0.046000  1
  S  S3260  1  0.845400  0.401000  0.355000  1
  S  S3261  1  0.444400  0.954000  0.599000  1
  S  S3262  1  0.509600  0.355000  0.954000  1
  S  S3263  1  0.154600  0.599000  0.645000  1
  S  S3264  1  0.555600  0.046000  0.401000  1
  S  S3265  1  0.487100  0.599800  0.986200  1
  S  S3266  1  0.887300  0.386400  0.400200  1
  S  S3267  1  0.500900  0.013800  0.613600  1
  S  S3268  1  0.512900  0.400200  0.013800  1
  S  S3269  1  0.112700  0.613600  0.599800  1
  S  S3270  1  0.499100  0.986200  0.386400  1
