
#######################################################################
#
#                 Cambridge Crystallographic Data Centre
#                                CCDC 
#
#######################################################################
#
# If this CIF has been generated from an entry in the Cambridge 
# Structural Database, then it will include bibliographic, chemical, 
# crystal, experimental, refinement or atomic coordinate data resulting 
# from the CCDC's data processing and validation procedures.
#
#######################################################################

data_SAYHOS
_chemical_formula_moiety         
'C228 H156 Fe4 N24 8+,6.5(C2 H3 N1),8(Cl1 O4 1-),2(C16 H10)'
_chemical_name_systematic        
"hexakis(\m-N,N'-[anthracene-1,5-diyldi(4,1-phenylene)]bis[1-(pyridin-2-yl)methanimine])-tetra-iron(ii) octakis(perchlorate) bis(pyrene)  acetonitrile solvate"
_symmetry_cell_setting           tetragonal
_symmetry_space_group_name_H-M   'I 41/a'
_symmetry_Int_Tables_number      88
_space_group_name_Hall           '-I 4ad'
loop_
_symmetry_equiv_pos_site_id
_symmetry_equiv_pos_as_xyz
1 x,y,z
2 1/2-x,-y,1/2+z
3 3/4-y,1/4+x,1/4+z
4 3/4+y,3/4-x,3/4+z
5 1/2+x,1/2+y,1/2+z
6 -x,1/2-y,z
7 1/4-y,3/4+x,3/4+z
8 1/4+y,1/4-x,1/4+z
9 -x,-y,-z
10 1/2+x,y,1/2-z
11 1/4+y,3/4-x,3/4-z
12 1/4-y,1/4+x,1/4-z
13 1/2-x,1/2-y,1/2-z
14 x,1/2+y,-z
15 3/4+y,1/4-x,1/4-z
16 3/4-y,3/4+x,3/4-z
_cell_length_a                   25.9579(6)
_cell_length_b                   25.9579(6)
_cell_length_c                   89.606(2)
_cell_angle_alpha                90
_cell_angle_beta                 90
_cell_angle_gamma                90
_cell_volume                     60377.6
_exptl_crystal_colour            purple
_exptl_crystal_description       block
_cell_formula_units_Z            8
loop_
_atom_site_label
_atom_site_type_symbol
_atom_site_fract_x
_atom_site_fract_y
_atom_site_fract_z
Fe1 Fe 0.65432(5) 1.03260(5) 0.38054(2)
Fe2 Fe 0.79500(11) 0.59824(12) 0.51864(3)
N1 N 0.6588(3) 1.0294(3) 0.35857(7)
N2 N 0.5857(3) 1.0015(2) 0.37607(7)
N3 N 0.2774(4) 0.9177(4) 0.52174(10)
N4 N 0.2092(5) 0.8895(7) 0.54063(10)
C1 C 0.6993(4) 1.0418(4) 0.34984(9)
H1 H 0.7302 1.0538 0.3543
C2 C 0.6969(4) 1.0372(5) 0.33438(10)
H2 H 0.7263 1.0455 0.3285
C3 C 0.6528(4) 1.0210(5) 0.32746(11)
H3 H 0.6510 1.0187 0.3169
C4 C 0.6107(4) 1.0080(4) 0.33633(9)
H4 H 0.5798 0.9959 0.3319
C5 C 0.6144(3) 1.0128(3) 0.35170(9)
C6 C 0.5746(3) 0.9999(3) 0.36200(8)
H5 H 0.5412 0.9904 0.3587
C7 C 0.5441(3) 0.9908(3) 0.38617(8)
C8 C 0.5460(3) 0.9482(3) 0.39532(9)
H6 H 0.5752 0.9261 0.3951
C9 C 0.5055(3) 0.9378(3) 0.40468(9)
H7 H 0.5069 0.9080 0.4108
C10 C 0.4626(3) 0.9695(3) 0.40551(8)
C11 C 0.4627(3) 1.0125(3) 0.39658(9)
H8 H 0.4343 1.0356 0.3970
C12 C 0.5024(3) 1.0231(3) 0.38705(9)
H9 H 0.5012 1.0531 0.3810
C13 C 0.4185(3) 0.9558(3) 0.41539(8)
C14 C 0.3728(3) 0.9410(4) 0.40934(9)
H10 H 0.3690 0.9414 0.3988
C15 C 0.3309(3) 0.9250(4) 0.41816(9)
H11 H 0.2999 0.9138 0.4135
C16 C 0.3347(4) 0.9255(4) 0.43303(9)
H12 H 0.3060 0.9148 0.4388
C17 C 0.3803(3) 0.9414(4) 0.44034(9)
C18 C 0.3854(4) 0.9428(4) 0.45577(9)
H13 H 0.3562 0.9341 0.4617
C19 C 0.4302(4) 0.9559(4) 0.46297(9)
C20 C 0.4372(4) 0.9546(4) 0.47906(9)
C21 C 0.4843(4) 0.9628(5) 0.48497(11)
H14 H 0.4890 0.9585 0.4954
C22 C 0.5267(5) 0.9777(5) 0.47609(11)
H15 H 0.5592 0.9838 0.4806
C23 C 0.5212(4) 0.9833(5) 0.46103(10)
H16 H 0.5492 0.9957 0.4552
C24 C 0.4738(4) 0.9707(4) 0.45402(9)
C25 C 0.4688(4) 0.9716(4) 0.43852(9)
H17 H 0.4972 0.9827 0.4327
C26 C 0.4238(3) 0.9567(3) 0.43134(8)
C27 C 0.3936(4) 0.9445(4) 0.48940(9)
C28 C 0.3960(4) 0.9036(4) 0.49928(10)
H18 H 0.4243 0.8804 0.4987
C29 C 0.3582(5) 0.8955(4) 0.50996(11)
H19 H 0.3611 0.8675 0.5167
C30 C 0.3168(5) 0.9279(4) 0.51069(11)
C31 C 0.3129(5) 0.9695(4) 0.50103(11)
H20 H 0.2847 0.9927 0.5017
C32 C 0.3516(4) 0.9766(4) 0.49026(11)
H21 H 0.3487 1.0044 0.4834
C33 C 0.2944(6) 0.9151(5) 0.53544(11)
H22 H 0.3287 0.9242 0.5381
C34 C 0.2565(5) 0.8969(7) 0.54643(10)
C35 C 0.2675(5) 0.8920(6) 0.56144(11)
H23 H 0.2998 0.9026 0.5654
C36 C 0.2301(6) 0.8711(9) 0.57054(11)
H24 H 0.2382 0.8610 0.5805
C37 C 0.1807(5) 0.8650(10) 0.56502(14)
H25 H 0.1529 0.8571 0.5715
C38 C 0.1726(5) 0.8705(9) 0.54975(15)
H26 H 0.1403 0.8607 0.5456
N5 N 0.6184(3) 1.0991(3) 0.38028(7)
N6 N 0.6404(3) 1.0395(3) 0.40226(7)
N7 N 0.7990(5) 0.5780(5) 0.49675(12)
N8 N 0.8110(6) 0.5264(4) 0.52158(13)
C39 C 0.6093(4) 1.1307(3) 0.36859(9)
H27 H 0.6222 1.1213 0.3591
C40 C 0.5820(4) 1.1760(4) 0.36990(10)
H28 H 0.5772 1.1977 0.3615
C41 C 0.5617(4) 1.1893(4) 0.38352(10)
H29 H 0.5427 1.2204 0.3847
C42 C 0.5695(4) 1.1564(3) 0.39564(10)
H30 H 0.5550 1.1643 0.4051
C43 C 0.5981(3) 1.1126(3) 0.39376(8)
C44 C 0.6117(3) 1.0779(3) 0.40538(9)
H31 H 0.5996 1.0832 0.4153
C45 C 0.6559(3) 1.0072(3) 0.41450(8)
C46 C 0.6191(4) 0.9842(3) 0.42348(9)
H32 H 0.5835 0.9885 0.4214
C47 C 0.6347(4) 0.9551(4) 0.43559(9)
H33 H 0.6092 0.9395 0.4417
C48 C 0.6856(4) 0.9478(4) 0.43909(9)
C49 C 0.7216(4) 0.9716(4) 0.43002(10)
H34 H 0.7572 0.9676 0.4322
C50 C 0.7071(4) 1.0007(4) 0.41801(10)
H35 H 0.7327 1.0166 0.4120
C51 C 0.7012(4) 0.9170(4) 0.45239(10)
C52 C 0.6899(5) 0.9347(4) 0.46641(10)
H36 H 0.6733 0.9671 0.4675
C53 C 0.7025(6) 0.9059(5) 0.47942(12)
H37 H 0.6962 0.9200 0.4890
C54 C 0.7232(6) 0.8589(4) 0.47807(11)
H38 H 0.7310 0.8397 0.4868
C55 C 0.7339(5) 0.8372(4) 0.46390(10)
C56 C 0.7522(5) 0.7871(4) 0.46214(11)
H39 H 0.7598 0.7678 0.4709
C57 C 0.7600(5) 0.7637(4) 0.44846(11)
C58 C 0.7767(5) 0.7114(4) 0.44650(12)
C59 C 0.7832(5) 0.6922(5) 0.43261(13)
H40 H 0.7930 0.6571 0.4315
C60 C 0.7759(6) 0.7229(5) 0.41978(13)
H41 H 0.7821 0.7087 0.4102
C61 C 0.7601(5) 0.7725(4) 0.42106(12)
H42 H 0.7551 0.7925 0.4123
C62 C 0.7509(4) 0.7949(4) 0.43528(10)
C63 C 0.7330(4) 0.8447(4) 0.43694(10)
H43 H 0.7271 0.8646 0.4282
C64 C 0.7231(4) 0.8672(4) 0.45075(10)
C65 C 0.7834(4) 0.6764(3) 0.45950(9)
C66 C 0.7401(3) 0.6541(3) 0.46596(9)
H44 H 0.7068 0.6619 0.4622
C67 C 0.7456(3) 0.6204(3) 0.47791(9)
H45 H 0.7160 0.6052 0.4823
C68 C 0.7943(4) 0.6090(4) 0.48340(10)
C69 C 0.8376(3) 0.6312(5) 0.47694(13)
H46 H 0.8709 0.6234 0.4807
C70 C 0.8322(3) 0.6650(4) 0.46499(12)
H47 H 0.8617 0.6802 0.4606
C71 C 0.8132(6) 0.5310(6) 0.49466(17)
H48 H 0.8178 0.5164 0.4850
C72 C 0.8218(6) 0.5013(4) 0.50881(11)
C73 C 0.8337(7) 0.4495(5) 0.50816(12)
H49 H 0.8379 0.4326 0.4988
C74 C 0.8394(7) 0.4232(4) 0.52139(15)
H50 H 0.8496 0.3881 0.5214
C75 C 0.8303(8) 0.4484(5) 0.53471(13)
H51 H 0.8328 0.4305 0.5439
C76 C 0.8176(6) 0.5004(5) 0.53445(11)
H52 H 0.8133 0.5181 0.5436
N9 N 0.7227(3) 1.0639(3) 0.38315(7)
N10 N 0.6955(3) 0.9692(3) 0.38211(7)
C77 C 0.7341(4) 1.1146(4) 0.38437(10)
H53 H 0.7074 1.1393 0.3831
C78 C 0.7838(4) 1.1316(4) 0.38738(11)
H54 H 0.7908 1.1674 0.3883
C79 C 0.8224(5) 1.0962(4) 0.38892(13)
H55 H 0.8564 1.1074 0.3912
C80 C 0.8124(4) 1.0440(4) 0.38720(12)
H56 H 0.8391 1.0192 0.3879
C81 C 0.7611(4) 1.0293(4) 0.38439(10)
C82 C 0.7444(4) 0.9761(4) 0.38352(10)
H57 H 0.7679 0.9481 0.3840
C83 C 0.6752(4) 0.9182(3) 0.38256(10)
C84 C 0.6789(4) 0.8884(4) 0.39504(10)
H58 H 0.6966 0.9012 0.4036
C85 C 0.6571(4) 0.8397(4) 0.39541(10)
H59 H 0.6603 0.8193 0.4042
C86 C 0.6308(4) 0.8203(3) 0.38329(10)
C87 C 0.6271(4) 0.8506(4) 0.37055(11)
H60 H 0.6091 0.8379 0.3621
C88 C 0.6492(4) 0.8988(4) 0.37006(10)
H61 H 0.6468 0.9190 0.3612
C89 C 0.6085(4) 0.7672(3) 0.38343(11)
C90 C 0.6408(4) 0.7264(4) 0.38481(12)
H62 H 0.6767 0.7320 0.3861
C91 C 0.6208(5) 0.6747(4) 0.38432(14)
H63 H 0.6440 0.6465 0.3851
C92 C 0.5715(4) 0.6657(4) 0.38283(13)
H64 H 0.5596 0.6311 0.3821
C93 C 0.5342(4) 0.7082(4) 0.38226(12)
C94 C 0.5542(4) 0.7595(3) 0.38229(11)
C95 C 0.4827(4) 0.7005(4) 0.38194(11)
H65 H 0.4706 0.6660 0.3814
N11 N 0.8689(5) 0.6207(7) 0.5171(3)
N12 N 0.7849(6) 0.6720(5) 0.51499(16)
C96 C 0.9112(8) 0.5908(6) 0.5170(4)
H66 H 0.9077 0.5558 0.5200
C97 C 0.9595(7) 0.6081(10) 0.5129(5)
H67 H 0.9885 0.5859 0.5132
C98 C 0.9642(6) 0.6584(10) 0.5082(4)
H68 H 0.9972 0.6723 0.5060
C99 C 0.9205(8) 0.6885(7) 0.5068(4)
H69 H 0.9220 0.7212 0.5021
C100 C 0.8742(7) 0.6698(7) 0.5125(4)
C101 C 0.8263(7) 0.6963(8) 0.5116(3)
H70 H 0.8250 0.7313 0.5085
C102 C 0.7390(6) 0.7008(6) 0.51548(16)
C103 C 0.7188(7) 0.7204(6) 0.50281(16)
H71 H 0.7359 0.7157 0.4935
C104 C 0.6726(6) 0.7478(6) 0.50347(14)
H72 H 0.6573 0.7588 0.4944
C105 C 0.6477(5) 0.7598(5) 0.51682(12)
C106 C 0.6697(6) 0.7388(6) 0.52966(14)
H73 H 0.6534 0.7444 0.5390
C107 C 0.7145(6) 0.7102(6) 0.52908(16)
H74 H 0.7288 0.6968 0.5380
C108 C 0.6008(5) 0.7923(5) 0.51764(12)
C109 C 0.6065(6) 0.8456(5) 0.51722(14)
H75 H 0.6397 0.8605 0.5161
C110 C 0.5623(6) 0.8778(6) 0.51849(15)
H76 H 0.5670 0.9141 0.5189
C111 C 0.5150(6) 0.8594(5) 0.51911(13)
H77 H 0.4865 0.8824 0.5195
C112 C 0.5060(6) 0.8033(5) 0.51916(12)
C113 C 0.5504(5) 0.7717(5) 0.51896(11)
C114 C 0.4574(6) 0.7836(5) 0.51908(11)
H78 H 0.4285 0.8061 0.5191
N9E N 0.2773(3) 0.4361(3) 0.38315(7)
N10E N 0.3045(3) 0.5308(3) 0.38211(7)
C77E C 0.2659(4) 0.3854(4) 0.38437(10)
H53E H 0.2926 0.3607 0.3831
C78E C 0.2162(4) 0.3684(4) 0.38738(11)
H54E H 0.2092 0.3326 0.3883
C79E C 0.1776(5) 0.4038(4) 0.38892(13)
H55E H 0.1436 0.3926 0.3912
C80E C 0.1876(4) 0.4560(4) 0.38720(12)
H56E H 0.1609 0.4808 0.3879
C81E C 0.2389(4) 0.4707(4) 0.38439(10)
C82E C 0.2556(4) 0.5239(4) 0.38352(10)
H57E H 0.2321 0.5519 0.3840
C83E C 0.3248(4) 0.5818(3) 0.38256(10)
C84E C 0.3211(4) 0.6116(4) 0.39504(10)
H58E H 0.3034 0.5988 0.4036
C85E C 0.3429(4) 0.6603(4) 0.39541(10)
H59E H 0.3397 0.6807 0.4042
C86E C 0.3692(4) 0.6797(3) 0.38329(10)
C87E C 0.3729(4) 0.6494(4) 0.37055(11)
H60E H 0.3909 0.6621 0.3621
C88E C 0.3508(4) 0.6012(4) 0.37006(10)
H61E H 0.3532 0.5810 0.3612
C89E C 0.3915(4) 0.7328(3) 0.38343(11)
C90E C 0.3592(4) 0.7736(4) 0.38481(12)
H62E H 0.3233 0.7680 0.3861
C91E C 0.3792(5) 0.8253(4) 0.38432(14)
H63E H 0.3560 0.8535 0.3851
C92E C 0.4285(4) 0.8343(4) 0.38283(13)
H64E H 0.4404 0.8689 0.3821
C93E C 0.4658(4) 0.7918(4) 0.38226(12)
C94E C 0.4458(4) 0.7405(3) 0.38229(11)
C95E C 0.5173(4) 0.7995(4) 0.38194(11)
H65E H 0.5294 0.8340 0.3814
N11E N 0.1311(5) 0.8793(7) 0.5171(3)
N12E N 0.2151(6) 0.8280(5) 0.51499(16)
C96E C 0.0888(8) 0.9092(6) 0.5170(4)
H66E H 0.0923 0.9442 0.5200
C97E C 0.0405(7) 0.8919(10) 0.5129(5)
H67E H 0.0115 0.9141 0.5132
C98E C 0.0358(6) 0.8416(10) 0.5082(4)
H68E H 0.0028 0.8277 0.5060
C99E C 0.0795(8) 0.8115(7) 0.5068(4)
H69E H 0.0780 0.7788 0.5021
C100E C 0.1258(7) 0.8302(7) 0.5125(4)
C101E C 0.1737(7) 0.8037(8) 0.5116(3)
H70E H 0.1750 0.7687 0.5085
C102E C 0.2610(6) 0.7992(6) 0.51548(16)
C103E C 0.2812(7) 0.7796(6) 0.50281(16)
H71E H 0.2641 0.7843 0.4935
C104E C 0.3274(6) 0.7522(6) 0.50347(14)
H72E H 0.3427 0.7412 0.4944
C105E C 0.3523(5) 0.7402(5) 0.51682(12)
C106E C 0.3303(6) 0.7612(6) 0.52966(14)
H73E H 0.3466 0.7556 0.5390
C107E C 0.2855(6) 0.7898(6) 0.52908(16)
H74E H 0.2712 0.8032 0.5380
C108E C 0.3992(5) 0.7077(5) 0.51764(12)
C109E C 0.3935(6) 0.6544(5) 0.51722(14)
H75E H 0.3603 0.6395 0.5161
C110E C 0.4377(6) 0.6222(6) 0.51849(15)
H76E H 0.4330 0.5859 0.5189
C111E C 0.4850(6) 0.6406(5) 0.51911(13)
H77E H 0.5135 0.6176 0.5195
C112E C 0.4940(6) 0.6967(5) 0.51916(12)
C113E C 0.4496(5) 0.7283(5) 0.51896(11)
C114E C 0.5426(6) 0.7164(5) 0.51908(11)
H78E H 0.5715 0.6939 0.5191
Fe1E Fe 0.34568(5) 0.46740(5) 0.38054(2)
Fe2E Fe 0.20500(11) 0.90176(12) 0.51864(3)
N1E N 0.3412(3) 0.4706(3) 0.35857(7)
N2E N 0.4143(3) 0.4985(2) 0.37607(7)
N3E N 0.7226(4) 0.5823(4) 0.52174(10)
N4E N 0.7908(5) 0.6105(7) 0.54063(10)
C1E C 0.3007(4) 0.4582(4) 0.34984(9)
H1E H 0.2698 0.4462 0.3543
C2E C 0.3031(4) 0.4628(5) 0.33438(10)
H2E H 0.2737 0.4545 0.3285
C3E C 0.3472(4) 0.4790(5) 0.32746(11)
H3E H 0.3490 0.4813 0.3169
C4E C 0.3893(4) 0.4920(4) 0.33633(9)
H4E H 0.4202 0.5041 0.3319
C5E C 0.3856(3) 0.4872(3) 0.35170(9)
C6E C 0.4254(3) 0.5001(3) 0.36200(8)
H5E H 0.4588 0.5096 0.3587
C7E C 0.4559(3) 0.5092(3) 0.38617(8)
C8E C 0.4540(3) 0.5518(3) 0.39532(9)
H6E H 0.4248 0.5739 0.3951
C9E C 0.4945(3) 0.5622(3) 0.40468(9)
H7E H 0.4931 0.5920 0.4108
C10E C 0.5374(3) 0.5305(3) 0.40551(8)
C11E C 0.5373(3) 0.4875(3) 0.39658(9)
H8E H 0.5657 0.4644 0.3970
C12E C 0.4976(3) 0.4769(3) 0.38705(9)
H9E H 0.4988 0.4469 0.3810
C13E C 0.5815(3) 0.5442(3) 0.41539(8)
C14E C 0.6272(3) 0.5590(4) 0.40934(9)
H10E H 0.6310 0.5586 0.3988
C15E C 0.6691(3) 0.5750(4) 0.41816(9)
H11E H 0.7001 0.5862 0.4135
C16E C 0.6653(4) 0.5745(4) 0.43303(9)
H12E H 0.6940 0.5852 0.4388
C17E C 0.6197(3) 0.5586(4) 0.44034(9)
C18E C 0.6146(4) 0.5572(4) 0.45577(9)
H13E H 0.6438 0.5659 0.4617
C19E C 0.5698(4) 0.5441(4) 0.46297(9)
C20E C 0.5628(4) 0.5454(4) 0.47906(9)
C21E C 0.5157(4) 0.5372(5) 0.48497(11)
H14E H 0.5110 0.5415 0.4954
C22E C 0.4733(5) 0.5223(5) 0.47609(11)
H15E H 0.4408 0.5162 0.4806
C23E C 0.4788(4) 0.5167(5) 0.46103(10)
H16E H 0.4508 0.5043 0.4552
C24E C 0.5262(4) 0.5293(4) 0.45402(9)
C25E C 0.5312(4) 0.5284(4) 0.43852(9)
H17E H 0.5028 0.5173 0.4327
C26E C 0.5762(3) 0.5433(3) 0.43134(8)
C27E C 0.6064(4) 0.5555(4) 0.48940(9)
C28E C 0.6040(4) 0.5964(4) 0.49928(10)
H18E H 0.5757 0.6196 0.4987
C29E C 0.6418(5) 0.6045(4) 0.50996(11)
H19E H 0.6389 0.6325 0.5167
C30E C 0.6832(5) 0.5721(4) 0.51069(11)
C31E C 0.6871(5) 0.5305(4) 0.50103(11)
H20E H 0.7153 0.5073 0.5017
C32E C 0.6484(4) 0.5234(4) 0.49026(11)
H21E H 0.6513 0.4956 0.4834
C33E C 0.7056(6) 0.5849(5) 0.53544(11)
H22E H 0.6713 0.5758 0.5381
C34E C 0.7435(5) 0.6031(7) 0.54643(10)
C35E C 0.7325(5) 0.6080(6) 0.56144(11)
H23E H 0.7002 0.5974 0.5654
C36E C 0.7699(6) 0.6289(9) 0.57054(11)
H24E H 0.7618 0.6390 0.5805
C37E C 0.8193(5) 0.6350(10) 0.56502(14)
H25E H 0.8471 0.6429 0.5715
C38E C 0.8274(5) 0.6295(9) 0.54975(15)
H26E H 0.8597 0.6393 0.5456
N5E N 0.3816(3) 0.4009(3) 0.38028(7)
N6E N 0.3596(3) 0.4605(3) 0.40226(7)
N7E N 0.2010(5) 0.9220(5) 0.49675(12)
N8E N 0.1890(6) 0.9736(4) 0.52158(13)
C39E C 0.3907(4) 0.3693(3) 0.36859(9)
H27E H 0.3778 0.3787 0.3591
C40E C 0.4180(4) 0.3240(4) 0.36990(10)
H28E H 0.4228 0.3023 0.3615
C41E C 0.4383(4) 0.3107(4) 0.38352(10)
H29E H 0.4573 0.2796 0.3847
C42E C 0.4305(4) 0.3436(3) 0.39564(10)
H30E H 0.4450 0.3357 0.4051
C43E C 0.4019(3) 0.3874(3) 0.39376(8)
C44E C 0.3883(3) 0.4221(3) 0.40538(9)
H31E H 0.4004 0.4168 0.4153
C45E C 0.3441(3) 0.4928(3) 0.41450(8)
C46E C 0.3809(4) 0.5158(3) 0.42348(9)
H32E H 0.4165 0.5115 0.4214
C47E C 0.3653(4) 0.5449(4) 0.43559(9)
H33E H 0.3908 0.5605 0.4417
C48E C 0.3144(4) 0.5522(4) 0.43909(9)
C49E C 0.2784(4) 0.5284(4) 0.43002(10)
H34E H 0.2428 0.5324 0.4322
C50E C 0.2929(4) 0.4993(4) 0.41801(10)
H35E H 0.2673 0.4834 0.4120
C51E C 0.2988(4) 0.5830(4) 0.45239(10)
C52E C 0.3101(5) 0.5653(4) 0.46641(10)
H36E H 0.3267 0.5329 0.4675
C53E C 0.2975(6) 0.5941(5) 0.47942(12)
H37E H 0.3038 0.5800 0.4890
C54E C 0.2768(6) 0.6411(4) 0.47807(11)
H38E H 0.2690 0.6603 0.4868
C55E C 0.2661(5) 0.6628(4) 0.46390(10)
C56E C 0.2478(5) 0.7129(4) 0.46214(11)
H39E H 0.2402 0.7322 0.4709
C57E C 0.2400(5) 0.7363(4) 0.44846(11)
C58E C 0.2233(5) 0.7886(4) 0.44650(12)
C59E C 0.2168(5) 0.8078(5) 0.43261(13)
H40E H 0.2070 0.8429 0.4315
C60E C 0.2241(6) 0.7771(5) 0.41978(13)
H41E H 0.2179 0.7913 0.4102
C61E C 0.2399(5) 0.7275(4) 0.42106(12)
H42E H 0.2449 0.7075 0.4123
C62E C 0.2491(4) 0.7051(4) 0.43528(10)
C63E C 0.2670(4) 0.6553(4) 0.43694(10)
H43E H 0.2729 0.6354 0.4282
C64E C 0.2769(4) 0.6328(4) 0.45075(10)
C65E C 0.2166(4) 0.8236(3) 0.45950(9)
C66E C 0.2599(3) 0.8459(3) 0.46596(9)
H44E H 0.2932 0.8381 0.4622
C67E C 0.2544(3) 0.8796(3) 0.47791(9)
H45E H 0.2840 0.8948 0.4823
C68E C 0.2057(4) 0.8910(4) 0.48340(10)
C69E C 0.1624(3) 0.8688(5) 0.47694(13)
H46E H 0.1291 0.8766 0.4807
C70E C 0.1678(3) 0.8350(4) 0.46499(12)
H47E H 0.1383 0.8198 0.4606
C71E C 0.1868(6) 0.9690(6) 0.49466(17)
H48E H 0.1822 0.9836 0.4850
C72E C 0.1782(6) 0.9987(4) 0.50881(11)
C73E C 0.1663(7) 1.0505(5) 0.50816(12)
H49E H 0.1621 1.0674 0.4988
C74E C 0.1606(7) 1.0768(4) 0.52139(15)
H50E H 0.1504 1.1119 0.5214
C75E C 0.1697(8) 1.0516(5) 0.53471(13)
H51E H 0.1672 1.0695 0.5439
C76E C 0.1824(6) 0.9996(5) 0.53445(11)
H52E H 0.1867 0.9819 0.5436
C115 C 0.3815(6) 0.7924(7) 0.42537(14)
H79 H 0.3543 0.7869 0.4185
C116 C 0.3725(5) 0.7892(7) 0.44071(15)
H80 H 0.3391 0.7802 0.4442
C117 C 0.4104(4) 0.7987(6) 0.45080(10)
C118 C 0.4015(5) 0.7941(7) 0.46685(12)
H81 H 0.3684 0.7844 0.4704
C119 C 0.4386(6) 0.8033(7) 0.47634(11)
H82 H 0.4320 0.8008 0.4867
C120 C 0.4901(5) 0.8172(6) 0.47122(11)
C121 C 0.5283(7) 0.8282(7) 0.48094(14)
H83 H 0.5210 0.8286 0.4913
C122 C 0.5783(6) 0.8391(7) 0.47610(14)
H84 H 0.6050 0.8460 0.4831
C123 C 0.5882(6) 0.8395(6) 0.46077(16)
H85 H 0.6222 0.8461 0.4573
C124 C 0.5503(4) 0.8308(6) 0.45071(11)
C125 C 0.5606(4) 0.8297(5) 0.43467(12)
H86 H 0.5946 0.8356 0.4311
C126 C 0.5235(5) 0.8205(6) 0.42509(10)
H87 H 0.5312 0.8194 0.4147
C127 C 0.4705(4) 0.8121(5) 0.43009(11)
C128 C 0.4312(6) 0.8038(7) 0.42039(14)
H88 H 0.4376 0.8059 0.4100
C129 C 0.4609(4) 0.8105(6) 0.44567(9)
C130 C 0.4996(4) 0.8197(6) 0.45565(9)
Cl1 Cl 0.4988(3) 0.6055(3) 0.34268(9)
O1 O 0.4448(5) 0.6107(9) 0.3406(2)
O2 O 0.5095(8) 0.5549(5) 0.3371(2)
O3 O 0.5248(11) 0.6413(9) 0.3341(3)
O4 O 0.5098(9) 0.6057(10) 0.35790(15)
N13 N 0.820(3) 0.795(3) 0.3243(9)
C131 C 0.864(3) 0.797(4) 0.3265(12)
C132 C 0.918(3) 0.798(5) 0.3308(14)
H89 H 0.9249 0.7663 0.3365
H90 H 0.9256 0.8279 0.3370
H91 H 0.9394 0.7983 0.3218
N14 N 0.4093(5) 1.1222(5) 0.41636(11)
C133 C 0.4086(6) 1.1102(6) 0.42859(13)
C134 C 0.4080(7) 1.0957(6) 0.44432(12)
H92 H 0.3933 1.1239 0.4502
H93 H 0.4433 1.0889 0.4477
H94 H 0.3871 1.0646 0.4456
N15 N 0.4728(5) 1.0681(5) 0.35025(13)
C135 C 0.4837(6) 1.0746(6) 0.33848(15)
C136 C 0.5006(7) 1.0862(11) 0.32343(16)
H95 H 0.4897 1.1211 0.3208
H96 H 0.4853 1.0615 0.3165
H97 H 0.5382 1.0839 0.3229
Cl2? Cl 0.4994(4) 0.6070(4) 0.34280(11)
O5? O 0.4920(11) 0.5895(11) 0.35757(15)
O6? O 0.4901(11) 0.5662(9) 0.3326(3)
O7? O 0.5510(5) 0.6221(10) 0.3415(3)
O8? O 0.4672(10) 0.6487(8) 0.3400(3)
Cl3? Cl 0.4089(7) 0.8856(7) 0.5545(2)
O9? O 0.4497(8) 0.9083(10) 0.5625(3)
O10? O 0.3674(7) 0.8753(11) 0.5637(3)
O11? O 0.3965(10) 0.9159(10) 0.5420(2)
O12? O 0.4279(12) 0.8380(9) 0.5488(4)
N16? N 0.5000 0.7500 0.5880(11)
C137? C 0.5000 0.7500 0.5751(11)
C138? C 0.5000 0.7500 0.5589(11)
H98? H 0.5291 0.7295 0.5552
H99? H 0.5032 0.7854 0.5552
H100? H 0.4677 0.7350 0.5552
Cl4? Cl 0.8587(4) 0.9530(4) 0.35900(13)
O13? O 0.8547(8) 0.9288(8) 0.37305(18)
O14? O 0.8913(7) 0.9957(6) 0.3605(2)
O15? O 0.8759(9) 0.9177(8) 0.3486(2)
O16? O 0.8094(6) 0.9726(8) 0.3552(2)
Cl5? Cl 0.8338(6) 0.9440(5) 0.35415(17)
O17? O 0.8397(11) 0.9090(10) 0.3660(3)
O18? O 0.8543(12) 0.9921(8) 0.3582(3)
O19? O 0.8563(11) 0.9265(10) 0.3411(2)
O20? O 0.7803(7) 0.9495(12) 0.3518(3)
Cl6? Cl 0.8898(9) 0.3176(8) 0.4993(3)
O21? O 0.8939(15) 0.3165(15) 0.4837(3)
O22? O 0.9085(16) 0.2714(11) 0.5054(4)
O23? O 0.9194(14) 0.3586(12) 0.5050(4)
O24? O 0.8379(10) 0.3243(16) 0.5032(5)
Cl7? Cl 0.8890(11) 0.3143(10) 0.5023(3)
O25? O 0.898(2) 0.3642(13) 0.4966(6)
O26? O 0.9197(18) 0.2808(17) 0.4937(5)
O27? O 0.9027(19) 0.311(2) 0.5174(3)
O28? O 0.8368(13) 0.3015(19) 0.5005(6)
Cl8? Cl 0.2617(5) 1.0799(6) 0.46734(14)
O29? O 0.2802(11) 1.0822(12) 0.48209(19)
O30? O 0.2897(11) 1.0428(10) 0.4593(3)
O31? O 0.2665(13) 1.1289(8) 0.4610(3)
O32? O 0.2098(7) 1.0644(13) 0.4679(4)
Cl9? Cl 0.2552(8) 1.0425(8) 0.4652(2)
O33? O 0.2606(19) 0.9904(10) 0.4616(5)
O34? O 0.3004(12) 1.0692(17) 0.4611(5)
O35? O 0.2459(18) 1.0505(17) 0.4804(3)
O36? O 0.2137(13) 1.0626(18) 0.4569(5)
Cl10? Cl 0.2517(8) 1.1113(9) 0.4721(2)
O37? O 0.2654(18) 1.0751(15) 0.4829(4)
O38? O 0.2925(14) 1.1200(18) 0.4621(5)
O39? O 0.2094(14) 1.0923(17) 0.4638(5)
O40? O 0.2361(16) 1.1579(11) 0.4785(5)
N17? N 0.773(4) 0.763(3) 0.3651(9)
C139? C 0.766(5) 0.790(4) 0.3551(10)
C140? C 0.762(5) 0.814(4) 0.3403(10)
H101? H 0.7967 0.8228 0.3368
H102? H 0.7415 0.8461 0.3410
H103? H 0.7455 0.7907 0.3333
N18? N 0.783(3) 0.779(3) 0.3786(8)
C141? C 0.781(4) 0.793(4) 0.3661(9)
C142? C 0.797(5) 0.793(5) 0.3503(8)
H104? H 0.8350 0.7927 0.3498
H105? H 0.7839 0.8236 0.3453
H106? H 0.7838 0.7620 0.3454
Cl11? Cl 0.4264(5) 0.8718(4) 0.55584(11)
O41? O 0.4185(7) 0.8423(6) 0.56864(16)
O42? O 0.3970(7) 0.8455(7) 0.54456(17)
O43? O 0.4069(7) 0.9225(5) 0.5569(2)
O44? O 0.4780(6) 0.8711(8) 0.5515(3)
Cl12? Cl 0.4242(7) 0.8714(7) 0.55557(19)
O45? O 0.3978(13) 0.8238(9) 0.5561(4)
O46? O 0.4434(12) 0.8779(13) 0.5410(2)
O47? O 0.4617(10) 0.8738(12) 0.5665(3)
O48? O 0.3856(11) 0.9098(11) 0.5573(4)
C143? C 0.481(3) 0.736(2) 0.5609(5)
H107? H 0.4880 0.7686 0.5560
H108? H 0.4458 0.7246 0.5588
H109? H 0.5053 0.7096 0.5570
N19? N 0.923(2) 0.483(2) 0.4770(7)
C144? C 0.913(2) 0.444(3) 0.4707(8)
C145? C 0.923(3) 0.400(3) 0.4610(8)
H110? H 0.9485 0.4093 0.4535
H111? H 0.8908 0.3892 0.4561
H112? H 0.9359 0.3709 0.4670
N20? N 1.024(3) 0.546(3) 0.4712(10)
C146? C 0.983(3) 0.530(4) 0.4738(9)
C147? C 0.938(3) 0.511(5) 0.4819(13)
H113? H 0.9432 0.4756 0.4850
H114? H 0.9072 0.5136 0.4755
H115? H 0.9322 0.5328 0.4908
N21? N 0.5107(12) 0.7584(11) 0.5880(4)
C148? C 0.4883(15) 0.7411(15) 0.5771(5)
loop_
_geom_bond_atom_site_label_1
_geom_bond_atom_site_label_2
_geom_bond_site_symmetry_1
_geom_bond_site_symmetry_2
Fe1 N1 1_555 1_555
Fe2 N7 1_555 1_555
N1 C1 1_555 1_555
N2 Fe1 1_555 1_555
N3 C30 1_555 1_555
N4 C34 1_555 1_555
C1 H1 1_555 1_555
C2 C1 1_555 1_555
H2 C2 1_555 1_555
C3 C2 1_555 1_555
H3 C3 1_555 1_555
C4 C3 1_555 1_555
H4 C4 1_555 1_555
C5 N1 1_555 1_555
C6 N2 1_555 1_555
H5 C6 1_555 1_555
C7 N2 1_555 1_555
C8 C7 1_555 1_555
H6 C8 1_555 1_555
C9 C8 1_555 1_555
H7 C9 1_555 1_555
C10 C9 1_555 1_555
C11 C10 1_555 1_555
H8 C11 1_555 1_555
C12 C7 1_555 1_555
H9 C12 1_555 1_555
C13 C10 1_555 1_555
C14 C13 1_555 1_555
H10 C14 1_555 1_555
C15 C14 1_555 1_555
H11 C15 1_555 1_555
C16 C15 1_555 1_555
H12 C16 1_555 1_555
C17 C16 1_555 1_555
C18 C17 1_555 1_555
H13 C18 1_555 1_555
C19 C18 1_555 1_555
C20 C19 1_555 1_555
C21 C20 1_555 1_555
H14 C21 1_555 1_555
C22 C21 1_555 1_555
H15 C22 1_555 1_555
C23 C22 1_555 1_555
H16 C23 1_555 1_555
C24 C19 1_555 1_555
C25 C24 1_555 1_555
H17 C25 1_555 1_555
C26 C13 1_555 1_555
C27 C20 1_555 1_555
C28 C27 1_555 1_555
H18 C28 1_555 1_555
C29 C28 1_555 1_555
H19 C29 1_555 1_555
C30 C29 1_555 1_555
C31 C30 1_555 1_555
H20 C31 1_555 1_555
C32 C27 1_555 1_555
H21 C32 1_555 1_555
C33 N3 1_555 1_555
H22 C33 1_555 1_555
C34 C33 1_555 1_555
C35 C34 1_555 1_555
H23 C35 1_555 1_555
C36 C35 1_555 1_555
H24 C36 1_555 1_555
C37 C36 1_555 1_555
H25 C37 1_555 1_555
C38 N4 1_555 1_555
H26 C38 1_555 1_555
N5 Fe1 1_555 1_555
N6 Fe1 1_555 1_555
N7 C68 1_555 1_555
N8 Fe2 1_555 1_555
C39 N5 1_555 1_555
H27 C39 1_555 1_555
C40 C39 1_555 1_555
H28 C40 1_555 1_555
C41 C40 1_555 1_555
H29 C41 1_555 1_555
C42 C41 1_555 1_555
H30 C42 1_555 1_555
C43 N5 1_555 1_555
C44 N6 1_555 1_555
H31 C44 1_555 1_555
C45 N6 1_555 1_555
C46 C45 1_555 1_555
H32 C46 1_555 1_555
C47 C46 1_555 1_555
H33 C47 1_555 1_555
C48 C47 1_555 1_555
C49 C48 1_555 1_555
H34 C49 1_555 1_555
C50 C45 1_555 1_555
H35 C50 1_555 1_555
C51 C48 1_555 1_555
C52 C51 1_555 1_555
H36 C52 1_555 1_555
C53 C52 1_555 1_555
H37 C53 1_555 1_555
C54 C53 1_555 1_555
H38 C54 1_555 1_555
C55 C54 1_555 1_555
C56 C55 1_555 1_555
H39 C56 1_555 1_555
C57 C56 1_555 1_555
C58 C57 1_555 1_555
C59 C58 1_555 1_555
H40 C59 1_555 1_555
C60 C59 1_555 1_555
H41 C60 1_555 1_555
C61 C60 1_555 1_555
H42 C61 1_555 1_555
C62 C57 1_555 1_555
C63 C62 1_555 1_555
H43 C63 1_555 1_555
C64 C51 1_555 1_555
C65 C58 1_555 1_555
C66 C65 1_555 1_555
H44 C66 1_555 1_555
C67 C66 1_555 1_555
H45 C67 1_555 1_555
C68 C67 1_555 1_555
C69 C68 1_555 1_555
H46 C69 1_555 1_555
C70 C65 1_555 1_555
H47 C70 1_555 1_555
C71 N7 1_555 1_555
H48 C71 1_555 1_555
C72 N8 1_555 1_555
C73 C72 1_555 1_555
H49 C73 1_555 1_555
C74 C73 1_555 1_555
H50 C74 1_555 1_555
C75 C74 1_555 1_555
H51 C75 1_555 1_555
C76 N8 1_555 1_555
H52 C76 1_555 1_555
N9 Fe1 1_555 1_555
N10 Fe1 1_555 1_555
C77 N9 1_555 1_555
H53 C77 1_555 1_555
C78 C77 1_555 1_555
H54 C78 1_555 1_555
C79 C78 1_555 1_555
H55 C79 1_555 1_555
C80 C79 1_555 1_555
H56 C80 1_555 1_555
C81 N9 1_555 1_555
C82 N10 1_555 1_555
H57 C82 1_555 1_555
C83 N10 1_555 1_555
C84 C83 1_555 1_555
H58 C84 1_555 1_555
C85 C84 1_555 1_555
H59 C85 1_555 1_555
C86 C85 1_555 1_555
C87 C86 1_555 1_555
H60 C87 1_555 1_555
C88 C83 1_555 1_555
H61 C88 1_555 1_555
C89 C86 1_555 1_555
C90 C89 1_555 1_555
H62 C90 1_555 1_555
C91 C90 1_555 1_555
H63 C91 1_555 1_555
C92 C91 1_555 1_555
H64 C92 1_555 1_555
C93 C92 1_555 1_555
C94 C89 1_555 1_555
C95 C93 1_555 1_555
H65 C95 1_555 1_555
N11 Fe2 1_555 1_555
N12 Fe2 1_555 1_555
C96 N11 1_555 1_555
H66 C96 1_555 1_555
C97 C96 1_555 1_555
H67 C97 1_555 1_555
C98 C97 1_555 1_555
H68 C98 1_555 1_555
C99 C98 1_555 1_555
H69 C99 1_555 1_555
C100 N11 1_555 1_555
C101 N12 1_555 1_555
H70 C101 1_555 1_555
C102 N12 1_555 1_555
C103 C102 1_555 1_555
H71 C103 1_555 1_555
C104 C103 1_555 1_555
H72 C104 1_555 1_555
C105 C104 1_555 1_555
C106 C105 1_555 1_555
H73 C106 1_555 1_555
C107 C102 1_555 1_555
H74 C107 1_555 1_555
C108 C105 1_555 1_555
C109 C108 1_555 1_555
H75 C109 1_555 1_555
C110 C109 1_555 1_555
H76 C110 1_555 1_555
C111 C110 1_555 1_555
H77 C111 1_555 1_555
C112 C111 1_555 1_555
C113 C108 1_555 1_555
C114 C112 1_555 1_555
H78 C114 1_555 1_555
C115 H79 1_555 1_555
C116 C115 1_555 1_555
H80 C116 1_555 1_555
C117 C116 1_555 1_555
C118 C117 1_555 1_555
H81 C118 1_555 1_555
C119 C118 1_555 1_555
H82 C119 1_555 1_555
C120 C119 1_555 1_555
C121 C120 1_555 1_555
H83 C121 1_555 1_555
C122 C121 1_555 1_555
H84 C122 1_555 1_555
C123 C122 1_555 1_555
H85 C123 1_555 1_555
C124 C123 1_555 1_555
C125 C124 1_555 1_555
H86 C125 1_555 1_555
C126 C125 1_555 1_555
H87 C126 1_555 1_555
C127 C126 1_555 1_555
C128 C115 1_555 1_555
H88 C128 1_555 1_555
C129 C117 1_555 1_555
C130 C120 1_555 1_555
Cl1 O1 1_555 1_555
O2 Cl1 1_555 1_555
O3 Cl1 1_555 1_555
O4 Cl1 1_555 1_555
N13 C131 1_555 1_555
C131 C132 1_555 1_555
C132 H89 1_555 1_555
H90 C132 1_555 1_555
H91 C132 1_555 1_555
N14 C133 1_555 1_555
C133 C134 1_555 1_555
C134 H92 1_555 1_555
H93 C134 1_555 1_555
H94 C134 1_555 1_555
N15 C135 1_555 1_555
C135 C136 1_555 1_555
C136 H95 1_555 1_555
H96 C136 1_555 1_555
H97 C136 1_555 1_555
N9E C77E 1_555 1_555
N10E C82E 1_555 1_555
C77E H53E 1_555 1_555
C78E C77E 1_555 1_555
H54E C78E 1_555 1_555
C79E C78E 1_555 1_555
H55E C79E 1_555 1_555
C80E C79E 1_555 1_555
H56E C80E 1_555 1_555
C81E N9E 1_555 1_555
C82E C81E 1_555 1_555
H57E C82E 1_555 1_555
C83E N10E 1_555 1_555
C84E C83E 1_555 1_555
H58E C84E 1_555 1_555
C85E C84E 1_555 1_555
H59E C85E 1_555 1_555
C86E C85E 1_555 1_555
C87E C86E 1_555 1_555
H60E C87E 1_555 1_555
C88E C83E 1_555 1_555
H61E C88E 1_555 1_555
C89E C86E 1_555 1_555
C90E C89E 1_555 1_555
H62E C90E 1_555 1_555
C91E C90E 1_555 1_555
H63E C91E 1_555 1_555
C92E C91E 1_555 1_555
H64E C92E 1_555 1_555
C93E C92E 1_555 1_555
C94E C95 1_555 1_555
C95E C94 1_555 1_555
H65E C95E 1_555 1_555
N11E C96E 1_555 1_555
N12E C101E 1_555 1_555
C96E H66E 1_555 1_555
C97E C96E 1_555 1_555
H67E C97E 1_555 1_555
C98E C97E 1_555 1_555
H68E C98E 1_555 1_555
C99E C98E 1_555 1_555
H69E C99E 1_555 1_555
C100E N11E 1_555 1_555
C101E C100E 1_555 1_555
H70E C101E 1_555 1_555
C102E N12E 1_555 1_555
C103E C102E 1_555 1_555
H71E C103E 1_555 1_555
C104E C103E 1_555 1_555
H72E C104E 1_555 1_555
C105E C104E 1_555 1_555
C106E C105E 1_555 1_555
H73E C106E 1_555 1_555
C107E C102E 1_555 1_555
H74E C107E 1_555 1_555
C108E C105E 1_555 1_555
C109E C108E 1_555 1_555
H75E C109E 1_555 1_555
C110E C109E 1_555 1_555
H76E C110E 1_555 1_555
C111E C110E 1_555 1_555
H77E C111E 1_555 1_555
C112E C111E 1_555 1_555
C113E C114 1_555 1_555
C114E C113 1_555 1_555
H78E C114E 1_555 1_555
Fe1E N9E 1_555 1_555
Fe2E N3 1_555 1_555
N1E Fe1E 1_555 1_555
N2E Fe1E 1_555 1_555
N3E Fe2 1_555 1_555
N4E Fe2 1_555 1_555
C1E N1E 1_555 1_555
H1E C1E 1_555 1_555
C2E C1E 1_555 1_555
H2E C2E 1_555 1_555
C3E C2E 1_555 1_555
H3E C3E 1_555 1_555
C4E C3E 1_555 1_555
H4E C4E 1_555 1_555
C5E N1E 1_555 1_555
C6E N2E 1_555 1_555
H5E C6E 1_555 1_555
C7E N2E 1_555 1_555
C8E C7E 1_555 1_555
H6E C8E 1_555 1_555
C9E C8E 1_555 1_555
H7E C9E 1_555 1_555
C10E C9E 1_555 1_555
C11E C10E 1_555 1_555
H8E C11E 1_555 1_555
C12E C7E 1_555 1_555
H9E C12E 1_555 1_555
C13E C10E 1_555 1_555
C14E C13E 1_555 1_555
H10E C14E 1_555 1_555
C15E C14E 1_555 1_555
H11E C15E 1_555 1_555
C16E C15E 1_555 1_555
H12E C16E 1_555 1_555
C17E C16E 1_555 1_555
C18E C17E 1_555 1_555
H13E C18E 1_555 1_555
C19E C18E 1_555 1_555
C20E C19E 1_555 1_555
C21E C20E 1_555 1_555
H14E C21E 1_555 1_555
C22E C21E 1_555 1_555
H15E C22E 1_555 1_555
C23E C22E 1_555 1_555
H16E C23E 1_555 1_555
C24E C19E 1_555 1_555
C25E C24E 1_555 1_555
H17E C25E 1_555 1_555
C26E C13E 1_555 1_555
C27E C20E 1_555 1_555
C28E C27E 1_555 1_555
H18E C28E 1_555 1_555
C29E C28E 1_555 1_555
H19E C29E 1_555 1_555
C30E N3E 1_555 1_555
C31E C30E 1_555 1_555
H20E C31E 1_555 1_555
C32E C27E 1_555 1_555
H21E C32E 1_555 1_555
C33E N3E 1_555 1_555
H22E C33E 1_555 1_555
C34E N4E 1_555 1_555
C35E C34E 1_555 1_555
H23E C35E 1_555 1_555
C36E C35E 1_555 1_555
H24E C36E 1_555 1_555
C37E C36E 1_555 1_555
H25E C37E 1_555 1_555
C38E N4E 1_555 1_555
H26E C38E 1_555 1_555
N5E Fe1E 1_555 1_555
N6E Fe1E 1_555 1_555
N7E Fe2E 1_555 1_555
N8E Fe2E 1_555 1_555
C39E N5E 1_555 1_555
H27E C39E 1_555 1_555
C40E C39E 1_555 1_555
H28E C40E 1_555 1_555
C41E C40E 1_555 1_555
H29E C41E 1_555 1_555
C42E C41E 1_555 1_555
H30E C42E 1_555 1_555
C43E N5E 1_555 1_555
C44E N6E 1_555 1_555
H31E C44E 1_555 1_555
C45E N6E 1_555 1_555
C46E C45E 1_555 1_555
H32E C46E 1_555 1_555
C47E C46E 1_555 1_555
H33E C47E 1_555 1_555
C48E C47E 1_555 1_555
C49E C48E 1_555 1_555
H34E C49E 1_555 1_555
C50E C45E 1_555 1_555
H35E C50E 1_555 1_555
C51E C48E 1_555 1_555
C52E C51E 1_555 1_555
H36E C52E 1_555 1_555
C53E C52E 1_555 1_555
H37E C53E 1_555 1_555
C54E C53E 1_555 1_555
H38E C54E 1_555 1_555
C55E C54E 1_555 1_555
C56E C55E 1_555 1_555
H39E C56E 1_555 1_555
C57E C56E 1_555 1_555
C58E C57E 1_555 1_555
C59E C58E 1_555 1_555
H40E C59E 1_555 1_555
C60E C59E 1_555 1_555
H41E C60E 1_555 1_555
C61E C60E 1_555 1_555
H42E C61E 1_555 1_555
C62E C57E 1_555 1_555
C63E C62E 1_555 1_555
H43E C63E 1_555 1_555
C64E C51E 1_555 1_555
C65E C58E 1_555 1_555
C66E C65E 1_555 1_555
H44E C66E 1_555 1_555
C67E C66E 1_555 1_555
H45E C67E 1_555 1_555
C68E N7E 1_555 1_555
C69E C68E 1_555 1_555
H46E C69E 1_555 1_555
C70E C65E 1_555 1_555
H47E C70E 1_555 1_555
C71E N7E 1_555 1_555
H48E C71E 1_555 1_555
C72E N8E 1_555 1_555
C73E C72E 1_555 1_555
H49E C73E 1_555 1_555
C74E C73E 1_555 1_555
H50E C74E 1_555 1_555
C75E C74E 1_555 1_555
H51E C75E 1_555 1_555
C76E N8E 1_555 1_555
H52E C76E 1_555 1_555
N4 Fe2E 1_555 1_555
C4 C5 1_555 1_555
C5 C6 1_555 1_555
C11 C12 1_555 1_555
C17 C26 1_555 1_555
C23 C24 1_555 1_555
C25 C26 1_555 1_555
C31 C32 1_555 1_555
C37 C38 1_555 1_555
C42 C43 1_555 1_555
C43 C44 1_555 1_555
C49 C50 1_555 1_555
C55 C64 1_555 1_555
C61 C62 1_555 1_555
C63 C64 1_555 1_555
C69 C70 1_555 1_555
C71 C72 1_555 1_555
C75 C76 1_555 1_555
C80 C81 1_555 1_555
C81 C82 1_555 1_555
C87 C88 1_555 1_555
C93 C94 1_555 1_555
C99 C100 1_555 1_555
C100 C101 1_555 1_555
C106 C107 1_555 1_555
C112 C113 1_555 1_555
C124 C130 1_555 1_555
C127 C128 1_555 1_555
C127 C129 1_555 1_555
C129 C130 1_555 1_555
N10E Fe1E 1_555 1_555
C80E C81E 1_555 1_555
C87E C88E 1_555 1_555
C89E C94E 1_555 1_555
C93E C94E 1_555 1_555
C93E C95E 1_555 1_555
N11E Fe2E 1_555 1_555
N12E Fe2E 1_555 1_555
C99E C100E 1_555 1_555
C106E C107E 1_555 1_555
C108E C113E 1_555 1_555
C112E C113E 1_555 1_555
C112E C114E 1_555 1_555
C4E C5E 1_555 1_555
C5E C6E 1_555 1_555
C11E C12E 1_555 1_555
C17E C26E 1_555 1_555
C23E C24E 1_555 1_555
C25E C26E 1_555 1_555
C29E C30E 1_555 1_555
C31E C32E 1_555 1_555
C33E C34E 1_555 1_555
C37E C38E 1_555 1_555
C42E C43E 1_555 1_555
C43E C44E 1_555 1_555
C49E C50E 1_555 1_555
C55E C64E 1_555 1_555
C61E C62E 1_555 1_555
C63E C64E 1_555 1_555
C67E C68E 1_555 1_555
C69E C70E 1_555 1_555
C71E C72E 1_555 1_555
C75E C76E 1_555 1_555

#END
