
#######################################################################
#
#                 Cambridge Crystallographic Data Centre
#                                CCDC 
#
#######################################################################
#
# If this CIF has been generated from an entry in the Cambridge 
# Structural Database, then it will include bibliographic, chemical, 
# crystal, experimental, refinement or atomic coordinate data resulting 
# from the CCDC's data processing and validation procedures.
#
#######################################################################

data_SAYHAE
_chemical_formula_moiety         'C204 H144 Fe4 N24 8+,8(O4 Re1 1-)'
_chemical_name_systematic        
"hexakis(\m-N,N'-[naphthalene-1,5-diyldi(4,1-phenylene)]bis[1-(pyridin-2-yl)methanimine])-tetra-iron(ii) octakis(tetraoxo-rhenium) unknown solvate"
_symmetry_cell_setting           rhombohedral
_symmetry_space_group_name_H-M   'R -3 c'
_symmetry_Int_Tables_number      167
_space_group_name_Hall           '-R 3 2"c'
loop_
_symmetry_equiv_pos_site_id
_symmetry_equiv_pos_as_xyz
1 x,y,z
2 -y,x-y,z
3 -x+y,-x,z
4 y,x,1/2-z
5 x-y,-y,1/2-z
6 -x,-x+y,1/2-z
7 2/3+x,1/3+y,1/3+z
8 2/3-y,1/3+x-y,1/3+z
9 2/3-x+y,1/3-x,1/3+z
10 2/3+y,1/3+x,5/6-z
11 2/3+x-y,1/3-y,5/6-z
12 2/3-x,1/3-x+y,5/6-z
13 1/3+x,2/3+y,2/3+z
14 1/3-y,2/3+x-y,2/3+z
15 1/3-x+y,2/3-x,2/3+z
16 1/3+y,2/3+x,1/6-z
17 1/3+x-y,2/3-y,1/6-z
18 1/3-x,2/3-x+y,1/6-z
19 -x,-y,-z
20 y,-x+y,-z
21 x-y,x,-z
22 -y,-x,1/2+z
23 -x+y,y,1/2+z
24 x,x-y,1/2+z
25 1/3-x,2/3-y,2/3-z
26 1/3+y,2/3-x+y,2/3-z
27 1/3+x-y,2/3+x,2/3-z
28 1/3-y,2/3-x,1/6+z
29 1/3-x+y,2/3+y,1/6+z
30 1/3+x,2/3+x-y,1/6+z
31 2/3-x,1/3-y,1/3-z
32 2/3+y,1/3-x+y,1/3-z
33 2/3+x-y,1/3+x,1/3-z
34 2/3-y,1/3-x,5/6+z
35 2/3-x+y,1/3+y,5/6+z
36 2/3+x,1/3+x-y,5/6+z
_cell_length_a                   22.39100(18)
_cell_length_b                   22.39100(18)
_cell_length_c                   180.579(3)
_cell_angle_alpha                90
_cell_angle_beta                 90
_cell_angle_gamma                120
_cell_volume                     78405.2
_exptl_crystal_colour            purple
_exptl_crystal_description       block
_cell_formula_units_Z            12
loop_
_atom_site_label
_atom_site_type_symbol
_atom_site_fract_x
_atom_site_fract_y
_atom_site_fract_z
Fe1 Fe 0.6667 0.3333 0.39688(2)
Fe2 Fe 0.26821(14) 0.40411(12) 0.47212(2)
N1 N 0.1949(11) 0.3246(8) 0.47907(11)
N2 N 0.2542(8) 0.3244(7) 0.46624(8)
N3 N 0.6081(6) 0.2471(7) 0.40215(6)
N4 N 0.6841(6) 0.2700(5) 0.39088(5)
C1 C 0.1726(12) 0.3304(10) 0.48578(12)
H1 H 0.1878 0.3748 0.4878
C2 C 0.1274(13) 0.2717(12) 0.48974(11)
H2 H 0.1112 0.2754 0.4945
C3 C 0.1067(12) 0.2082(10) 0.48664(11)
H3 H 0.0756 0.1675 0.4892
C4 C 0.1306(12) 0.2031(8) 0.47975(11)
H4 H 0.1157 0.1591 0.4776
C5 C 0.1765(10) 0.2625(8) 0.47594(9)
C6 C 0.2097(11) 0.2633(9) 0.46902(10)
H5 H 0.2000 0.2218 0.4666
C7 C 0.2921(7) 0.3268(6) 0.45972(8)
C8 C 0.2809(7) 0.3490(7) 0.45296(9)
H6 H 0.2486 0.3646 0.4527
C9 C 0.3153(7) 0.3492(7) 0.44658(8)
H7 H 0.3063 0.3650 0.4421
C10 C 0.3631(6) 0.3265(6) 0.44668(7)
C11 C 0.3739(7) 0.3044(7) 0.45347(7)
H8 H 0.4057 0.2881 0.4537
C12 C 0.3404(7) 0.3049(7) 0.45990(7)
H9 H 0.3504 0.2902 0.4644
C13 C 0.4040(7) 0.3308(6) 0.44000(7)
C14 C 0.4467(8) 0.3937(6) 0.43673(9)
H10 H 0.4511 0.4344 0.4389
C15 C 0.4833(9) 0.3989(7) 0.43032(9)
H11 H 0.5115 0.4432 0.4282
C16 C 0.4804(9) 0.3432(7) 0.42695(9)
H12 H 0.5056 0.3485 0.4225
C17 C 0.4391(7) 0.2773(6) 0.43013(7)
C18 C 0.4003(7) 0.2712(6) 0.43668(7)
C19 C 0.3582(9) 0.2044(7) 0.43966(9)
H13 H 0.3324 0.1987 0.4440
C20 C 0.3544(9) 0.1479(7) 0.43626(9)
H14 H 0.3261 0.1036 0.4384
C21 C 0.3909(8) 0.1537(6) 0.42982(9)
H15 H 0.3855 0.1133 0.4275
C22 C 0.4348(7) 0.2174(6) 0.42681(7)
C23 C 0.4797(7) 0.2224(7) 0.42046(7)
C24 C 0.5427(7) 0.2251(9) 0.42151(7)
H16 H 0.5566 0.2210 0.4264
C25 C 0.5853(7) 0.2339(8) 0.41555(7)
H17 H 0.6289 0.2376 0.4164
C26 C 0.5659(6) 0.2373(7) 0.40838(7)
C27 C 0.5026(7) 0.2342(8) 0.40731(7)
H18 H 0.4883 0.2370 0.4024
C28 C 0.4605(7) 0.2271(9) 0.41322(7)
H19 H 0.4179 0.2254 0.4124
C29 C 0.6087(7) 0.1916(7) 0.39994(7)
H20 H 0.5844 0.1482 0.4023
C30 C 0.6511(6) 0.2045(6) 0.39338(6)
C31 C 0.6579(7) 0.1539(6) 0.38967(7)
H21 H 0.6348 0.1077 0.3914
C32 C 0.6988(7) 0.1717(7) 0.38339(7)
H22 H 0.7025 0.1373 0.3807
C33 C 0.7340(8) 0.2393(7) 0.38103(7)
H23 H 0.7632 0.2522 0.3768
C34 C 0.7262(7) 0.2877(6) 0.38489(7)
H24 H 0.7506 0.3345 0.3833
N5 N 0.2143(6) 0.4264(7) 0.46616(8)
N6 N 0.3453(4) 0.4728(5) 0.46629(7)
N7 N 1.0576(6) 0.6648(9) 0.47973(9)
N8 N 1.1942(5) 0.7222(6) 0.47980(7)
C35 C 0.1455(7) 0.3964(8) 0.46689(10)
H25 H 0.1212 0.3622 0.4706
C36 C 0.1123(8) 0.4171(10) 0.46213(11)
H26 H 0.0636 0.3966 0.4624
C37 C 0.1476(7) 0.4670(10) 0.45690(10)
H27 H 0.1236 0.4815 0.4537
C38 C 0.2189(7) 0.4964(8) 0.45630(9)
H28 H 0.2441 0.5310 0.4527
C39 C 0.2521(5) 0.4741(7) 0.46105(8)
C40 C 0.3261(5) 0.4998(7) 0.46102(9)
H29 H 0.3570 0.5325 0.4575
C41 C 0.4166(4) 0.4956(5) 0.46666(7)
C42 C 0.4559(5) 0.5328(6) 0.47268(7)
H30 H 0.4361 0.5454 0.4766
C43 C 0.5252(5) 0.5513(7) 0.47280(7)
H31 H 0.5526 0.5758 0.4770
C44 C 0.5554(4) 0.5349(6) 0.46701(7)
C45 C 0.5155(5) 0.5000(7) 0.46088(7)
H32 H 0.5357 0.4903 0.4568
C46 C 0.4463(5) 0.4795(6) 0.46084(7)
H33 H 0.4185 0.4540 0.4568
C47 C 0.6303(5) 0.5572(7) 0.46686(7)
C48 C 0.6688(6) 0.5953(8) 0.46091(8)
H34 H 0.6468 0.6045 0.4569
C49 C 0.7397(6) 0.6207(9) 0.46065(9)
H35 H 0.7657 0.6474 0.4565
C50 C 0.7720(7) 0.6071(9) 0.46631(9)
H36 H 0.8202 0.6242 0.4660
C51 C 0.7351(6) 0.5682(8) 0.47260(7)
C52 C 0.6619(6) 0.5422(8) 0.47281(7)
C53 C 0.6248(7) 0.5011(9) 0.47893(8)
H37 H 0.5764 0.4833 0.4792
C54 C 0.6564(7) 0.4862(10) 0.48447(9)
H38 H 0.6297 0.4578 0.4885
C55 C 0.7272(7) 0.5119(9) 0.48437(8)
H39 H 0.7483 0.5008 0.4883
C56 C 0.7667(5) 0.5531(8) 0.47866(8)
C57 C 0.8430(5) 0.5829(8) 0.47890(8)
C58 C 0.8726(6) 0.5451(8) 0.47649(10)
H40 H 0.8442 0.4996 0.4747
C59 C 0.9437(6) 0.5732(9) 0.47673(10)
H41 H 0.9635 0.5465 0.4751
C60 C 0.9857(6) 0.6391(8) 0.47924(9)
C61 C 0.9567(6) 0.6780(8) 0.48158(11)
H42 H 0.9854 0.7239 0.4833
C62 C 0.8858(6) 0.6499(8) 0.48146(11)
H43 H 0.8662 0.6765 0.4831
C63 C 1.0832(5) 0.6567(9) 0.48565(9)
H44 H 1.0550 0.6318 0.4897
C64 C 1.1577(5) 0.6874(7) 0.48587(7)
C65 C 1.1928(6) 0.6821(7) 0.49197(7)
H45 H 1.1679 0.6575 0.4962
C66 C 1.2638(6) 0.7127(7) 0.49180(8)
H46 H 1.2880 0.7099 0.4960
C67 C 1.2989(7) 0.7469(7) 0.48561(8)
H47 H 1.3476 0.7669 0.4854
C68 C 1.2637(6) 0.7522(7) 0.47971(8)
H48 H 1.2885 0.7774 0.4755
Fe2A Fe 0.59589(12) -0.13590(18) 0.47212(2)
N1A N 0.6754(8) -0.1297(14) 0.47907(11)
N2A N 0.6756(7) -0.0702(11) 0.46624(8)
N3A N 0.7529(7) 0.3610(9) 0.40215(6)
N4A N 0.7300(5) 0.4141(8) 0.39088(5)
C1A C 0.6696(10) -0.1578(16) 0.48578(12)
H1A H 0.6252 -0.1870 0.4878
C2A C 0.7283(12) -0.1443(18) 0.48974(11)
H2A H 0.7246 -0.1642 0.4945
C3A C 0.7918(10) -0.1015(16) 0.48664(11)
H3A H 0.8325 -0.0919 0.4892
C4A C 0.7969(8) -0.0725(14) 0.47975(11)
H4A H 0.8409 -0.0434 0.4776
C5A C 0.7375(8) -0.0860(13) 0.47594(9)
C6A C 0.7367(9) -0.0536(14) 0.46902(10)
H5A H 0.7782 -0.0218 0.4666
C7A C 0.6732(6) -0.0347(9) 0.45972(8)
C8A C 0.6510(7) -0.0681(10) 0.45296(9)
H6A H 0.6354 -0.1160 0.4527
C9A C 0.6508(7) -0.0339(10) 0.44658(8)
H7A H 0.6350 -0.0587 0.4421
C10A C 0.6735(6) 0.0366(8) 0.44668(7)
C11A C 0.6956(7) 0.0695(10) 0.45347(7)
H8A H 0.7119 0.1176 0.4537
C12A C 0.6951(7) 0.0355(10) 0.45990(7)
H9A H 0.7098 0.0602 0.4644
C13A C 0.6692(6) 0.0732(9) 0.44000(7)
C14A C 0.6063(6) 0.0530(10) 0.43673(9)
H10A H 0.5656 0.0167 0.4389
C15A C 0.6011(7) 0.0844(11) 0.43032(9)
H11A H 0.5568 0.0683 0.4282
C16A C 0.6568(7) 0.1372(11) 0.42695(9)
H12A H 0.6515 0.1571 0.4225
C17A C 0.7227(6) 0.1618(9) 0.43013(7)
C18A C 0.7288(6) 0.1291(9) 0.43668(7)
C19A C 0.7956(7) 0.1538(11) 0.43966(9)
H13A H 0.8013 0.1337 0.4440
C20A C 0.8521(7) 0.2065(11) 0.43626(9)
H14A H 0.8964 0.2225 0.4384
C21A C 0.8463(6) 0.2372(10) 0.42982(9)
H15A H 0.8867 0.2722 0.4275
C22A C 0.7826(6) 0.2174(9) 0.42681(7)
C23A C 0.7776(7) 0.2573(10) 0.42046(7)
C24A C 0.7749(9) 0.3176(11) 0.42151(7)
H16A H 0.7790 0.3356 0.4264
C25A C 0.7661(8) 0.3514(11) 0.41555(7)
H17A H 0.7624 0.3913 0.4164
C26A C 0.7627(7) 0.3286(9) 0.40838(7)
C27A C 0.7658(8) 0.2684(11) 0.40731(7)
H18A H 0.7630 0.2513 0.4024
C28A C 0.7729(9) 0.2334(11) 0.41322(7)
H19A H 0.7746 0.1925 0.4124
C29A C 0.8084(7) 0.4171(10) 0.39994(7)
H20A H 0.8518 0.4362 0.4023
C30A C 0.7955(6) 0.4466(8) 0.39338(6)
C31A C 0.8461(6) 0.5040(9) 0.38967(7)
H21A H 0.8923 0.5271 0.3914
C32A C 0.8283(7) 0.5271(10) 0.38339(7)
H22A H 0.8627 0.5652 0.3807
C33A C 0.7607(7) 0.4947(11) 0.38103(7)
H23A H 0.7478 0.5110 0.3768
C34A C 0.7123(6) 0.4385(9) 0.38489(7)
H24A H 0.6655 0.4161 0.3833
N5A N 0.5736(7) -0.2121(9) 0.46616(8)
N6A N 0.5272(5) -0.1275(6) 0.46629(7)
N7A N 0.3352(9) 0.3928(11) 0.47973(9)
N8A N 0.2778(6) 0.4720(8) 0.47980(7)
C35A C 0.6036(8) -0.2509(11) 0.46689(10)
H25A H 0.6378 -0.2410 0.4706
C36A C 0.5829(10) -0.3048(13) 0.46213(11)
H26A H 0.6034 -0.3330 0.4624
C37A C 0.5330(10) -0.3194(12) 0.45690(10)
H27A H 0.5185 -0.3579 0.4537
C38A C 0.5036(8) -0.2775(11) 0.45630(9)
H28A H 0.4690 -0.2869 0.4527
C39A C 0.5259(7) -0.2220(9) 0.46105(8)
C40A C 0.5002(7) -0.1737(9) 0.46102(9)
H29A H 0.4675 -0.1755 0.4575
C41A C 0.5044(5) -0.0790(6) 0.46666(7)
C42A C 0.4672(6) -0.0769(8) 0.47268(7)
H30A H 0.4546 -0.1093 0.4766
C43A C 0.4487(7) -0.0261(9) 0.47280(7)
H31A H 0.4242 -0.0232 0.4770
C44A C 0.4651(6) 0.0205(7) 0.46701(7)
C45A C 0.5000(7) 0.0155(9) 0.46088(7)
H32A H 0.5097 0.0454 0.4568
C46A C 0.5205(6) -0.0332(8) 0.46084(7)
H33A H 0.5460 -0.0355 0.4568
C47A C 0.4428(7) 0.0731(9) 0.46686(7)
C48A C 0.4047(8) 0.0735(10) 0.46091(8)
H34A H 0.3955 0.0423 0.4569
C49A C 0.3793(9) 0.1190(11) 0.46065(9)
H35A H 0.3526 0.1183 0.4565
C50A C 0.3929(9) 0.1649(11) 0.46631(9)
H36A H 0.3758 0.1960 0.4660
C51A C 0.4318(8) 0.1669(10) 0.47260(7)
C52A C 0.4578(8) 0.1197(10) 0.47281(7)
C53A C 0.4989(9) 0.1237(11) 0.47893(8)
H37A H 0.5167 0.0931 0.4792
C54A C 0.5138(10) 0.1702(12) 0.48447(9)
H38A H 0.5422 0.1719 0.4885
C55A C 0.4881(9) 0.2153(11) 0.48437(8)
H39A H 0.4992 0.2475 0.4883
C56A C 0.4469(8) 0.2136(9) 0.47866(8)
C57A C 0.4171(8) 0.2601(9) 0.47890(8)
C58A C 0.4549(8) 0.3275(10) 0.47649(10)
H40A H 0.5004 0.3446 0.4747
C59A C 0.4268(9) 0.3705(11) 0.47673(10)
H41A H 0.4535 0.4170 0.4751
C60A C 0.3609(8) 0.3466(10) 0.47924(9)
C61A C 0.3220(8) 0.2787(10) 0.48158(11)
H42A H 0.2761 0.2615 0.4833
C62A C 0.3501(8) 0.2359(10) 0.48146(11)
H43A H 0.3235 0.1897 0.4831
C63A C 0.3433(9) 0.4265(10) 0.48565(9)
H44A H 0.3682 0.4232 0.4897
C64A C 0.3126(7) 0.4703(9) 0.48587(7)
C65A C 0.3179(7) 0.5107(9) 0.49197(7)
H45A H 0.3425 0.5104 0.4962
C66A C 0.2873(7) 0.5511(9) 0.49180(8)
H46A H 0.2901 0.5781 0.4960
C67A C 0.2531(7) 0.5520(10) 0.48561(8)
H47A H 0.2331 0.5807 0.4854
C68A C 0.2478(7) 0.5115(9) 0.47971(8)
H48A H 0.2226 0.5111 0.4755
Fe2B Fe 1.13590(18) 0.73179(14) 0.47212(2)
N1B N 1.1297(14) 0.8051(11) 0.47907(11)
N2B N 1.0702(11) 0.7458(8) 0.46624(8)
N3B N 0.6390(9) 0.3919(6) 0.40215(6)
N4B N 0.5859(8) 0.3159(6) 0.39088(5)
C1B C 1.1578(16) 0.8274(12) 0.48578(12)
H1B H 1.1870 0.8122 0.4878
C2B C 1.1443(18) 0.8726(13) 0.48974(11)
H2B H 1.1642 0.8888 0.4945
C3B C 1.1015(16) 0.8933(12) 0.48664(11)
H3B H 1.0919 0.9244 0.4892
C4B C 1.0725(14) 0.8694(12) 0.47975(11)
H4B H 1.0434 0.8843 0.4776
C5B C 1.0860(13) 0.8235(10) 0.47594(9)
C6B C 1.0536(14) 0.7903(11) 0.46902(10)
H5B H 1.0218 0.8000 0.4666
C7B C 1.0347(9) 0.7079(7) 0.45972(8)
C8B C 1.0681(10) 0.7191(7) 0.45296(9)
H6B H 1.1160 0.7514 0.4527
C9B C 1.0339(10) 0.6847(7) 0.44658(8)
H7B H 1.0587 0.6937 0.4421
C10B C 0.9634(8) 0.6369(6) 0.44668(7)
C11B C 0.9305(10) 0.6261(7) 0.45347(7)
H8B H 0.8824 0.5943 0.4537
C12B C 0.9645(10) 0.6596(7) 0.45990(7)
H9B H 0.9398 0.6496 0.4644
C13B C 0.9268(9) 0.5960(7) 0.44000(7)
C14B C 0.9470(10) 0.5533(8) 0.43673(9)
H10B H 0.9833 0.5489 0.4389
C15B C 0.9156(11) 0.5167(9) 0.43032(9)
H11B H 0.9317 0.4885 0.4282
C16B C 0.8628(11) 0.5196(9) 0.42695(9)
H12B H 0.8429 0.4944 0.4225
C17B C 0.8382(9) 0.5609(7) 0.43013(7)
C18B C 0.8709(9) 0.5997(7) 0.43668(7)
C19B C 0.8462(11) 0.6418(9) 0.43966(9)
H13B H 0.8663 0.6676 0.4440
C20B C 0.7935(11) 0.6456(9) 0.43626(9)
H14B H 0.7775 0.6739 0.4384
C21B C 0.7628(10) 0.6091(8) 0.42982(9)
H15B H 0.7278 0.6145 0.4275
C22B C 0.7826(9) 0.5652(7) 0.42681(7)
C23B C 0.7427(10) 0.5203(7) 0.42046(7)
C24B C 0.6824(11) 0.4573(7) 0.42151(7)
H16B H 0.6644 0.4434 0.4264
C25B C 0.6486(11) 0.4147(7) 0.41555(7)
H17B H 0.6087 0.3711 0.4164
C26B C 0.6714(9) 0.4341(6) 0.40838(7)
C27B C 0.7316(11) 0.4974(7) 0.40731(7)
H18B H 0.7487 0.5117 0.4024
C28B C 0.7666(11) 0.5395(7) 0.41322(7)
H19B H 0.8075 0.5821 0.4124
C29B C 0.5829(10) 0.3913(7) 0.39994(7)
H20B H 0.5638 0.4156 0.4023
C30B C 0.5534(8) 0.3489(6) 0.39338(6)
C31B C 0.4960(9) 0.3421(7) 0.38967(7)
H21B H 0.4729 0.3652 0.3914
C32B C 0.4729(10) 0.3012(7) 0.38339(7)
H22B H 0.4348 0.2975 0.3807
C33B C 0.5053(11) 0.2660(8) 0.38103(7)
H23B H 0.4890 0.2368 0.3768
C34B C 0.5615(9) 0.2738(7) 0.38489(7)
H24B H 0.5839 0.2494 0.3833
N5B N 1.2121(9) 0.7857(6) 0.46616(8)
N6B N 1.1275(6) 0.6547(4) 0.46629(7)
N7B N 0.6072(11) -0.0576(6) 0.47973(9)
N8B N 0.5280(8) -0.1942(5) 0.47980(7)
C35B C 1.2509(11) 0.8545(7) 0.46689(10)
H25B H 1.2410 0.8788 0.4706
C36B C 1.3048(13) 0.8877(8) 0.46213(11)
H26B H 1.3330 0.9364 0.4624
C37B C 1.3194(12) 0.8524(7) 0.45690(10)
H27B H 1.3579 0.8764 0.4537
C38B C 1.2775(11) 0.7811(7) 0.45630(9)
H28B H 1.2869 0.7559 0.4527
C39B C 1.2220(9) 0.7479(5) 0.46105(8)
C40B C 1.1737(9) 0.6739(5) 0.46102(9)
H29B H 1.1755 0.6430 0.4575
C41B C 1.0790(6) 0.5834(4) 0.46666(7)
C42B C 1.0769(8) 0.5441(5) 0.47268(7)
H30B H 1.1093 0.5639 0.4766
C43B C 1.0261(9) 0.4748(5) 0.47280(7)
H31B H 1.0232 0.4474 0.4770
C44B C 0.9795(7) 0.4446(4) 0.46701(7)
C45B C 0.9845(9) 0.4845(5) 0.46088(7)
H32B H 0.9546 0.4643 0.4568
C46B C 1.0332(8) 0.5537(5) 0.46084(7)
H33B H 1.0355 0.5815 0.4568
C47B C 0.9269(9) 0.3697(5) 0.46686(7)
C48B C 0.9265(10) 0.3312(6) 0.46091(8)
H34B H 0.9577 0.3532 0.4569
C49B C 0.8810(11) 0.2603(6) 0.46065(9)
H35B H 0.8817 0.2343 0.4565
C50B C 0.8351(11) 0.2280(7) 0.46631(9)
H36B H 0.8040 0.1798 0.4660
C51B C 0.8331(10) 0.2649(6) 0.47260(7)
C52B C 0.8803(10) 0.3381(6) 0.47281(7)
C53B C 0.8763(11) 0.3752(7) 0.47893(8)
H37B H 0.9069 0.4236 0.4792
C54B C 0.8298(12) 0.3436(7) 0.48447(9)
H38B H 0.8281 0.3703 0.4885
C55B C 0.7847(11) 0.2728(7) 0.48437(8)
H39B H 0.7525 0.2517 0.4883
C56B C 0.7864(9) 0.2333(5) 0.47866(8)
C57B C 0.7399(9) 0.1570(5) 0.47890(8)
C58B C 0.6725(10) 0.1274(6) 0.47649(10)
H40B H 0.6554 0.1558 0.4747
C59B C 0.6295(11) 0.0563(6) 0.47673(10)
H41B H 0.5830 0.0365 0.4751
C60B C 0.6534(10) 0.0143(6) 0.47924(9)
C61B C 0.7213(10) 0.0433(6) 0.48158(11)
H42B H 0.7385 0.0146 0.4833
C62B C 0.7641(10) 0.1142(6) 0.48146(11)
H43B H 0.8103 0.1338 0.4831
C63B C 0.5735(10) -0.0832(5) 0.48565(9)
H44B H 0.5768 -0.0550 0.4897
C64B C 0.5297(9) -0.1577(5) 0.48587(7)
C65B C 0.4893(9) -0.1928(6) 0.49197(7)
H45B H 0.4896 -0.1679 0.4962
C66B C 0.4489(9) -0.2638(6) 0.49180(8)
H46B H 0.4219 -0.2880 0.4960
C67B C 0.4480(10) -0.2989(7) 0.48561(8)
H47B H 0.4193 -0.3476 0.4854
C68B C 0.4885(9) -0.2637(6) 0.47971(8)
H48B H 0.4889 -0.2885 0.4755
Re1 Re 0.06061(8) 0.27251(9) 0.44565(2)
O1 O 0.0614(19) 0.2522(19) 0.45299(17)
O2 O 0.029(2) 0.321(2) 0.4446(2)
O3 O 0.134(2) 0.320(2) 0.4411(2)
O4 O 0.0101(18) 0.2039(17) 0.44164(17)
Re2 Re 0.3333 0.6667 0.46725(2)
O9 O 0.3725(4) 0.6223(4) 0.47043(8)
O10 O 0.3333 0.6667 0.45992(14)
O9A O 0.3777(4) 0.7502(6) 0.47043(8)
O9B O 0.2498(6) 0.6275(4) 0.47043(8)
loop_
_geom_bond_atom_site_label_1
_geom_bond_atom_site_label_2
_geom_bond_site_symmetry_1
_geom_bond_site_symmetry_2
Fe1 N3 1_555 1_555
Fe2 N1 1_555 1_555
N1 C1 1_555 1_555
N2 Fe2 1_555 1_555
N3 C26 1_555 1_555
N4 Fe1 1_555 1_555
C1 H1 1_555 1_555
C2 C1 1_555 1_555
H2 C2 1_555 1_555
C3 C2 1_555 1_555
H3 C3 1_555 1_555
C4 C3 1_555 1_555
H4 C4 1_555 1_555
C5 N1 1_555 1_555
C6 N2 1_555 1_555
H5 C6 1_555 1_555
C7 N2 1_555 1_555
C8 C7 1_555 1_555
H6 C8 1_555 1_555
C9 C8 1_555 1_555
H7 C9 1_555 1_555
C10 C9 1_555 1_555
C11 C10 1_555 1_555
H8 C11 1_555 1_555
C12 C7 1_555 1_555
H9 C12 1_555 1_555
C13 C10 1_555 1_555
C14 C13 1_555 1_555
H10 C14 1_555 1_555
C15 C14 1_555 1_555
H11 C15 1_555 1_555
C16 C15 1_555 1_555
H12 C16 1_555 1_555
C17 C16 1_555 1_555
C18 C13 1_555 1_555
C19 C18 1_555 1_555
H13 C19 1_555 1_555
C20 C19 1_555 1_555
H14 C20 1_555 1_555
C21 C20 1_555 1_555
H15 C21 1_555 1_555
C22 C17 1_555 1_555
C23 C22 1_555 1_555
C24 C23 1_555 1_555
H16 C24 1_555 1_555
C25 C24 1_555 1_555
H17 C25 1_555 1_555
C26 C25 1_555 1_555
C27 C26 1_555 1_555
H18 C27 1_555 1_555
C28 C23 1_555 1_555
H19 C28 1_555 1_555
C29 N3 1_555 1_555
H20 C29 1_555 1_555
C30 N4 1_555 1_555
C31 C30 1_555 1_555
H21 C31 1_555 1_555
C32 C31 1_555 1_555
H22 C32 1_555 1_555
C33 C32 1_555 1_555
H23 C33 1_555 1_555
C34 N4 1_555 1_555
H24 C34 1_555 1_555
N5 Fe2 1_555 1_555
N6 Fe2 1_555 1_555
N7 C60 1_555 1_555
N8 C64 1_555 1_555
C35 N5 1_555 1_555
H25 C35 1_555 1_555
C36 C35 1_555 1_555
H26 C36 1_555 1_555
C37 C36 1_555 1_555
H27 C37 1_555 1_555
C38 C37 1_555 1_555
H28 C38 1_555 1_555
C39 N5 1_555 1_555
C40 N6 1_555 1_555
H29 C40 1_555 1_555
C41 N6 1_555 1_555
C42 C41 1_555 1_555
H30 C42 1_555 1_555
C43 C42 1_555 1_555
H31 C43 1_555 1_555
C44 C43 1_555 1_555
C45 C44 1_555 1_555
H32 C45 1_555 1_555
C46 C41 1_555 1_555
H33 C46 1_555 1_555
C47 C44 1_555 1_555
C48 C47 1_555 1_555
H34 C48 1_555 1_555
C49 C48 1_555 1_555
H35 C49 1_555 1_555
C50 C49 1_555 1_555
H36 C50 1_555 1_555
C51 C50 1_555 1_555
C52 C47 1_555 1_555
C53 C52 1_555 1_555
H37 C53 1_555 1_555
C54 C53 1_555 1_555
H38 C54 1_555 1_555
C55 C54 1_555 1_555
H39 C55 1_555 1_555
C56 C51 1_555 1_555
C57 C56 1_555 1_555
C58 C57 1_555 1_555
H40 C58 1_555 1_555
C59 C58 1_555 1_555
H41 C59 1_555 1_555
C60 C59 1_555 1_555
C61 C60 1_555 1_555
H42 C61 1_555 1_555
C62 C57 1_555 1_555
H43 C62 1_555 1_555
C63 N7 1_555 1_555
H44 C63 1_555 1_555
C64 C63 1_555 1_555
C65 C64 1_555 1_555
H45 C65 1_555 1_555
C66 C65 1_555 1_555
H46 C66 1_555 1_555
C67 C66 1_555 1_555
H47 C67 1_555 1_555
C68 N8 1_555 1_555
H48 C68 1_555 1_555
Re1 O1 1_555 1_555
O2 Re1 1_555 1_555
O3 Re1 1_555 1_555
O4 Re1 1_555 1_555
Re2 O9 1_555 1_555
O10 Re2 1_555 1_555
Fe2A N1A 1_555 1_555
N1A C1A 1_555 1_555
N2A Fe2A 1_555 1_555
N3A Fe1 1_555 1_555
N4A Fe1 1_555 1_555
C1A H1A 1_555 1_555
C2A C1A 1_555 1_555
H2A C2A 1_555 1_555
C3A C2A 1_555 1_555
H3A C3A 1_555 1_555
C4A C3A 1_555 1_555
H4A C4A 1_555 1_555
C5A N1A 1_555 1_555
C6A N2A 1_555 1_555
H5A C6A 1_555 1_555
C7A N2A 1_555 1_555
C8A C7A 1_555 1_555
H6A C8A 1_555 1_555
C9A C8A 1_555 1_555
H7A C9A 1_555 1_555
C10A C9A 1_555 1_555
C11A C10A 1_555 1_555
H8A C11A 1_555 1_555
C12A C7A 1_555 1_555
H9A C12A 1_555 1_555
C13A C10A 1_555 1_555
C14A C13A 1_555 1_555
H10A C14A 1_555 1_555
C15A C14A 1_555 1_555
H11A C15A 1_555 1_555
C16A C15A 1_555 1_555
H12A C16A 1_555 1_555
C17A C16A 1_555 1_555
C18A C13A 1_555 1_555
C19A C18A 1_555 1_555
H13A C19A 1_555 1_555
C20A C19A 1_555 1_555
H14A C20A 1_555 1_555
C21A C20A 1_555 1_555
H15A C21A 1_555 1_555
C22A C17A 1_555 1_555
C23A C22A 1_555 1_555
C24A C23A 1_555 1_555
H16A C24A 1_555 1_555
C25A C24A 1_555 1_555
H17A C25A 1_555 1_555
C26A N3A 1_555 1_555
C27A C26A 1_555 1_555
H18A C27A 1_555 1_555
C28A C23A 1_555 1_555
H19A C28A 1_555 1_555
C29A N3A 1_555 1_555
H20A C29A 1_555 1_555
C30A N4A 1_555 1_555
C31A C30A 1_555 1_555
H21A C31A 1_555 1_555
C32A C31A 1_555 1_555
H22A C32A 1_555 1_555
C33A C32A 1_555 1_555
H23A C33A 1_555 1_555
C34A N4A 1_555 1_555
H24A C34A 1_555 1_555
N5A Fe2A 1_555 1_555
N6A Fe2A 1_555 1_555
N7A Fe2 1_555 1_555
N8A Fe2 1_555 1_555
C35A N5A 1_555 1_555
H25A C35A 1_555 1_555
C36A C35A 1_555 1_555
H26A C36A 1_555 1_555
C37A C36A 1_555 1_555
H27A C37A 1_555 1_555
C38A C37A 1_555 1_555
H28A C38A 1_555 1_555
C39A N5A 1_555 1_555
C40A N6A 1_555 1_555
H29A C40A 1_555 1_555
C41A N6A 1_555 1_555
C42A C41A 1_555 1_555
H30A C42A 1_555 1_555
C43A C42A 1_555 1_555
H31A C43A 1_555 1_555
C44A C43A 1_555 1_555
C45A C44A 1_555 1_555
H32A C45A 1_555 1_555
C46A C41A 1_555 1_555
H33A C46A 1_555 1_555
C47A C44A 1_555 1_555
C48A C47A 1_555 1_555
H34A C48A 1_555 1_555
C49A C48A 1_555 1_555
H35A C49A 1_555 1_555
C50A C49A 1_555 1_555
H36A C50A 1_555 1_555
C51A C50A 1_555 1_555
C52A C47A 1_555 1_555
C53A C52A 1_555 1_555
H37A C53A 1_555 1_555
C54A C53A 1_555 1_555
H38A C54A 1_555 1_555
C55A C54A 1_555 1_555
H39A C55A 1_555 1_555
C56A C51A 1_555 1_555
C57A C56A 1_555 1_555
C58A C57A 1_555 1_555
H40A C58A 1_555 1_555
C59A C58A 1_555 1_555
H41A C59A 1_555 1_555
C60A N7A 1_555 1_555
C61A C60A 1_555 1_555
H42A C61A 1_555 1_555
C62A C57A 1_555 1_555
H43A C62A 1_555 1_555
C63A N7A 1_555 1_555
H44A C63A 1_555 1_555
C64A N8A 1_555 1_555
C65A C64A 1_555 1_555
H45A C65A 1_555 1_555
C66A C65A 1_555 1_555
H46A C66A 1_555 1_555
C67A C66A 1_555 1_555
H47A C67A 1_555 1_555
C68A N8A 1_555 1_555
H48A C68A 1_555 1_555
Fe2B N7 1_555 1_555
N1B Fe2B 1_555 1_555
N2B Fe2B 1_555 1_555
N3B Fe1 1_555 1_555
N4B Fe1 1_555 1_555
C1B N1B 1_555 1_555
H1B C1B 1_555 1_555
C2B C1B 1_555 1_555
H2B C2B 1_555 1_555
C3B C2B 1_555 1_555
H3B C3B 1_555 1_555
C4B C3B 1_555 1_555
H4B C4B 1_555 1_555
C5B N1B 1_555 1_555
C6B N2B 1_555 1_555
H5B C6B 1_555 1_555
C7B N2B 1_555 1_555
C8B C7B 1_555 1_555
H6B C8B 1_555 1_555
C9B C8B 1_555 1_555
H7B C9B 1_555 1_555
C10B C9B 1_555 1_555
C11B C10B 1_555 1_555
H8B C11B 1_555 1_555
C12B C7B 1_555 1_555
H9B C12B 1_555 1_555
C13B C10B 1_555 1_555
C14B C13B 1_555 1_555
H10B C14B 1_555 1_555
C15B C14B 1_555 1_555
H11B C15B 1_555 1_555
C16B C15B 1_555 1_555
H12B C16B 1_555 1_555
C17B C16B 1_555 1_555
C18B C13B 1_555 1_555
C19B C18B 1_555 1_555
H13B C19B 1_555 1_555
C20B C19B 1_555 1_555
H14B C20B 1_555 1_555
C21B C20B 1_555 1_555
H15B C21B 1_555 1_555
C22B C17B 1_555 1_555
C23B C22B 1_555 1_555
C24B C23B 1_555 1_555
H16B C24B 1_555 1_555
C25B C24B 1_555 1_555
H17B C25B 1_555 1_555
C26B N3B 1_555 1_555
C27B C26B 1_555 1_555
H18B C27B 1_555 1_555
C28B C23B 1_555 1_555
H19B C28B 1_555 1_555
C29B N3B 1_555 1_555
H20B C29B 1_555 1_555
C30B N4B 1_555 1_555
C31B C30B 1_555 1_555
H21B C31B 1_555 1_555
C32B C31B 1_555 1_555
H22B C32B 1_555 1_555
C33B C32B 1_555 1_555
H23B C33B 1_555 1_555
C34B N4B 1_555 1_555
H24B C34B 1_555 1_555
N5B Fe2B 1_555 1_555
N6B Fe2B 1_555 1_555
N7B Fe2A 1_555 1_555
N8B Fe2A 1_555 1_555
C35B N5B 1_555 1_555
H25B C35B 1_555 1_555
C36B C35B 1_555 1_555
H26B C36B 1_555 1_555
C37B C36B 1_555 1_555
H27B C37B 1_555 1_555
C38B C37B 1_555 1_555
H28B C38B 1_555 1_555
C39B N5B 1_555 1_555
C40B N6B 1_555 1_555
H29B C40B 1_555 1_555
C41B N6B 1_555 1_555
C42B C41B 1_555 1_555
H30B C42B 1_555 1_555
C43B C42B 1_555 1_555
H31B C43B 1_555 1_555
C44B C43B 1_555 1_555
C45B C44B 1_555 1_555
H32B C45B 1_555 1_555
C46B C41B 1_555 1_555
H33B C46B 1_555 1_555
C47B C44B 1_555 1_555
C48B C47B 1_555 1_555
H34B C48B 1_555 1_555
C49B C48B 1_555 1_555
H35B C49B 1_555 1_555
C50B C49B 1_555 1_555
H36B C50B 1_555 1_555
C51B C50B 1_555 1_555
C52B C47B 1_555 1_555
C53B C52B 1_555 1_555
H37B C53B 1_555 1_555
C54B C53B 1_555 1_555
H38B C54B 1_555 1_555
C55B C54B 1_555 1_555
H39B C55B 1_555 1_555
C56B C51B 1_555 1_555
C57B C56B 1_555 1_555
C58B C57B 1_555 1_555
H40B C58B 1_555 1_555
C59B C58B 1_555 1_555
H41B C59B 1_555 1_555
C60B N7B 1_555 1_555
C61B C60B 1_555 1_555
H42B C61B 1_555 1_555
C62B C57B 1_555 1_555
H43B C62B 1_555 1_555
C63B N7B 1_555 1_555
H44B C63B 1_555 1_555
C64B N8B 1_555 1_555
C65B C64B 1_555 1_555
H45B C65B 1_555 1_555
C66B C65B 1_555 1_555
H46B C66B 1_555 1_555
C67B C66B 1_555 1_555
H47B C67B 1_555 1_555
C68B N8B 1_555 1_555
H48B C68B 1_555 1_555
O9A Re2 1_555 1_555
O9B Re2 1_555 1_555
C4 C5 1_555 1_555
C5 C6 1_555 1_555
C11 C12 1_555 1_555
C17 C18 1_555 1_555
C21 C22 1_555 1_555
C27 C28 1_555 1_555
C29 C30 1_555 1_555
C33 C34 1_555 1_555
N8 Fe2B 1_555 1_555
C38 C39 1_555 1_555
C39 C40 1_555 1_555
C45 C46 1_555 1_555
C51 C52 1_555 1_555
C55 C56 1_555 1_555
C61 C62 1_555 1_555
C67 C68 1_555 1_555
C4A C5A 1_555 1_555
C5A C6A 1_555 1_555
C11A C12A 1_555 1_555
C17A C18A 1_555 1_555
C21A C22A 1_555 1_555
C25A C26A 1_555 1_555
C27A C28A 1_555 1_555
C29A C30A 1_555 1_555
C33A C34A 1_555 1_555
C38A C39A 1_555 1_555
C39A C40A 1_555 1_555
C45A C46A 1_555 1_555
C51A C52A 1_555 1_555
C55A C56A 1_555 1_555
C59A C60A 1_555 1_555
C61A C62A 1_555 1_555
C63A C64A 1_555 1_555
C67A C68A 1_555 1_555
C4B C5B 1_555 1_555
C5B C6B 1_555 1_555
C11B C12B 1_555 1_555
C17B C18B 1_555 1_555
C21B C22B 1_555 1_555
C25B C26B 1_555 1_555
C27B C28B 1_555 1_555
C29B C30B 1_555 1_555
C33B C34B 1_555 1_555
C38B C39B 1_555 1_555
C39B C40B 1_555 1_555
C45B C46B 1_555 1_555
C51B C52B 1_555 1_555
C55B C56B 1_555 1_555
C59B C60B 1_555 1_555
C61B C62B 1_555 1_555
C63B C64B 1_555 1_555
C67B C68B 1_555 1_555

#END
