
#######################################################################
#
#                 Cambridge Crystallographic Data Centre
#                                CCDC 
#
#######################################################################
#
# If this CIF has been generated from an entry in the Cambridge 
# Structural Database, then it will include bibliographic, chemical, 
# crystal, experimental, refinement or atomic coordinate data resulting 
# from the CCDC's data processing and validation procedures.
#
#######################################################################

data_SEJTOQ
_chemical_name_common            
8-(t-Butylisocyano)-8-(eta$5!-cyclopentadienyl)-9-phenyl-8-ferra-7,9,10-tricarba-nido-undecaborane(9)
_chemical_formula_moiety         'C19 H28 B7 Fe1 N1'
_chemical_name_systematic        
8-(\h^5^-Cyclopentadienyl)-8-(t-butylisocyanide)-9-phenyl-8-ferra-7,9,10-tricarba-nido-undecaborane(9)
_symmetry_cell_setting           monoclinic
_symmetry_space_group_name_H-M   'P 21'
_symmetry_Int_Tables_number      4
_space_group_name_Hall           'P 2yb'
loop_
_symmetry_equiv_pos_site_id
_symmetry_equiv_pos_as_xyz
1 x,y,z
2 -x,1/2+y,-z
_cell_length_a                   10.5638(10)
_cell_length_b                   9.6335(5)
_cell_length_c                   11.0574(10)
_cell_angle_alpha                90
_cell_angle_beta                 113.370(3)
_cell_angle_gamma                90
_cell_volume                     1032.96
_exptl_crystal_colour            'brown red'
_cell_formula_units_Z            2
loop_
_atom_site_label
_atom_site_type_symbol
_atom_site_fract_x
_atom_site_fract_y
_atom_site_fract_z
Fe1 Fe 1.32091(9) 1.44506(11) 1.22485(8)
B1 B 1.1468(10) 1.1512(11) 1.2286(10)
B2 B 1.3009(10) 1.1421(11) 1.3730(10)
B3 B 1.2243(9) 1.3045(11) 1.3190(8)
B4 B 1.1525(9) 1.2987(10) 1.1358(9)
B5 B 1.1861(9) 1.1362(11) 1.0900(10)
B6 B 1.2914(10) 1.0473(10) 1.2350(10)
B7 B 1.4373(10) 1.1557(10) 1.3155(10)
C1 C 1.3866(8) 1.2892(8) 1.3713(8)
C2 C 1.2747(8) 1.2803(8) 1.0895(8)
C3 C 1.3599(8) 1.1505(8) 1.1527(8)
C4 C 1.5009(8) 1.4151(9) 1.2428(7)
N1 N 1.6170(7) 1.4038(7) 1.2599(6)
C5 C 1.7650(8) 1.3853(9) 1.2907(8)
C6 C 1.8323(10) 1.5266(11) 1.3185(10)
C7 C 1.7762(10) 1.3173(12) 1.1723(10)
C8 C 1.8217(9) 1.2908(11) 1.4109(9)
C9 C 1.2686(8) 1.3234(8) 0.9553(7)
C10 C 1.1447(8) 1.3609(10) 0.8554(8)
C11 C 1.1393(9) 1.4000(8) 0.7315(8)
C12 C 1.2578(10) 1.4011(9) 0.7090(8)
C13 C 1.3820(9) 1.3668(9) 0.8070(8)
C14 C 1.3864(8) 1.3275(9) 0.9290(7)
C15 C 1.3389(9) 1.6389(10) 1.1465(9)
C16 C 1.3968(9) 1.6438(9) 1.2898(8)
C17 C 1.2906(10) 1.6165(9) 1.3325(8)
C18 C 1.1647(9) 1.5933(9) 1.2157(9)
C19 C 1.1995(8) 1.6067(8) 1.1048(8)
H1 H 1.0488 1.1111 1.2267
H2 H 1.3059 1.0878 1.4620
H3 H 1.1755 1.3610 1.3760
H4 H 1.0569 1.3525 1.0736
H5 H 1.1184 1.0787 1.0023
H6 H 1.2961 0.9331 1.2393
H7 H 1.4475 1.3352 1.4563
H8 H 1.4038 1.1009 1.0990
H9 H 1.5418 1.1078 1.3706
H10 H 1.8197 1.5676 1.3920
H11 H 1.7912 1.5844 1.2424
H12 H 1.9291 1.5164 1.3390
H13 H 1.7357 1.2262 1.1604
H14 H 1.8713 1.3097 1.1860
H15 H 1.7280 1.3722 1.0952
H16 H 1.9186 1.2780 1.4365
H17 H 1.7757 1.2024 1.3900
H18 H 1.8050 1.3323 1.4826
H19 H 1.0642 1.3600 0.8709
H20 H 1.0559 1.4253 0.6647
H21 H 1.2538 1.4254 0.6262
H22 H 1.4621 1.3701 0.7915
H23 H 1.4707 1.3030 0.9950
H24 H 1.3860 1.6547 1.0923
H25 H 1.4885 1.6617 1.3439
H26 H 1.2989 1.6142 1.4192
H27 H 1.0780 1.5731 1.2138
H28 H 1.1383 1.5960 1.0176
loop_
_geom_bond_atom_site_label_1
_geom_bond_atom_site_label_2
_geom_bond_site_symmetry_1
_geom_bond_site_symmetry_2
Fe1 B3 1_555 1_555
B1 B2 1_555 1_555
B2 B3 1_555 1_555
B3 B1 1_555 1_555
B4 Fe1 1_555 1_555
B5 B1 1_555 1_555
B6 B1 1_555 1_555
B7 B2 1_555 1_555
C1 Fe1 1_555 1_555
C2 Fe1 1_555 1_555
C3 B5 1_555 1_555
C4 Fe1 1_555 1_555
N1 C4 1_555 1_555
C5 N1 1_555 1_555
C6 C5 1_555 1_555
C7 C5 1_555 1_555
C8 C5 1_555 1_555
C9 C2 1_555 1_555
C10 C9 1_555 1_555
C11 C10 1_555 1_555
C12 C11 1_555 1_555
C13 C12 1_555 1_555
C14 C9 1_555 1_555
C15 Fe1 1_555 1_555
C16 Fe1 1_555 1_555
C17 Fe1 1_555 1_555
C18 Fe1 1_555 1_555
C19 Fe1 1_555 1_555
H1 B1 1_555 1_555
H2 B2 1_555 1_555
H3 B3 1_555 1_555
H4 B4 1_555 1_555
H5 B5 1_555 1_555
H6 B6 1_555 1_555
H7 C1 1_555 1_555
H8 C3 1_555 1_555
H9 B7 1_555 1_555
H10 C6 1_555 1_555
H11 C6 1_555 1_555
H12 C6 1_555 1_555
H13 C7 1_555 1_555
H14 C7 1_555 1_555
H15 C7 1_555 1_555
H16 C8 1_555 1_555
H17 C8 1_555 1_555
H18 C8 1_555 1_555
H19 C10 1_555 1_555
H20 C11 1_555 1_555
H21 C12 1_555 1_555
H22 C13 1_555 1_555
H23 C14 1_555 1_555
H24 C15 1_555 1_555
H25 C16 1_555 1_555
H26 C17 1_555 1_555
H27 C18 1_555 1_555
H28 C19 1_555 1_555
B1 B4 1_555 1_555
B2 B6 1_555 1_555
B2 C1 1_555 1_555
B3 B4 1_555 1_555
B3 C1 1_555 1_555
B4 B5 1_555 1_555
B4 C2 1_555 1_555
B5 B6 1_555 1_555
B5 C2 1_555 1_555
B6 B7 1_555 1_555
B6 C3 1_555 1_555
B7 C1 1_555 1_555
B7 C3 1_555 1_555
C2 C3 1_555 1_555
C13 C14 1_555 1_555
C15 C16 1_555 1_555
C15 C19 1_555 1_555
C16 C17 1_555 1_555
C17 C18 1_555 1_555
C18 C19 1_555 1_555

#END
