
#######################################################################
#
#                 Cambridge Crystallographic Data Centre
#                                CCDC 
#
#######################################################################
#
# If this CIF has been generated from an entry in the Cambridge 
# Structural Database, then it will include bibliographic, chemical, 
# crystal, experimental, refinement or atomic coordinate data resulting 
# from the CCDC's data processing and validation procedures.
#
#######################################################################

data_SEQNAE
_chemical_formula_moiety         
'C180 H144 Hg4 N36 8+,8(Cl1 O4 1-),3(C1 H3 N1 O2)'
_chemical_name_systematic        
"hexakis(\m~2~-3,3'-bis(3-(2-Pyridyl)pyrazol-1-ylmethyl)-1,1'-biphenyl-N,N',N'',N''')-tetra-mercury(ii) perchlorate clathrate heptaperchlorate nitromethane solvate"
_symmetry_cell_setting           triclinic
_symmetry_space_group_name_H-M   'P -1'
_symmetry_Int_Tables_number      2
_space_group_name_Hall           '-P 1'
loop_
_symmetry_equiv_pos_site_id
_symmetry_equiv_pos_as_xyz
1 x,y,z
2 -x,-y,-z
_cell_length_a                   18.823(11)
_cell_length_b                   19.008(10)
_cell_length_c                   30.656(17)
_cell_angle_alpha                86.704(9)
_cell_angle_beta                 89.145(9)
_cell_angle_gamma                66.948(9)
_cell_volume                     10075.5
_exptl_crystal_colour            colorless
_exptl_crystal_description       plate
_cell_formula_units_Z            2
loop_
_atom_site_label
_atom_site_type_symbol
_atom_site_fract_x
_atom_site_fract_y
_atom_site_fract_z
N1 N 0.1819(10) -0.0061(8) 0.0040(4)
C1 C 0.2037(13) -0.0648(9) 0.0350(4)
C2 C 0.2201(15) -0.1390(10) 0.0224(6)
C3 C 0.2150(16) -0.1516(12) -0.0208(6)
C4 C 0.1931(15) -0.0923(12) -0.0518(6)
C5 C 0.1760(15) -0.0177(11) -0.0390(5)
N2 N 0.2035(8) 0.0245(7) 0.0868(4)
N3 N 0.2204(10) 0.0242(8) 0.1298(4)
C6 C 0.2400(14) -0.0484(10) 0.1495(5)
C7 C 0.2323(13) -0.0932(10) 0.1173(5)
C8 C 0.2143(12) -0.0491(9) 0.0784(4)
C9 C 0.2203(10) 0.0927(11) 0.1489(6)
C10 C 0.3014(9) 0.0929(9) 0.1462(6)
C11 C 0.3131(9) 0.1487(9) 0.1689(5)
C12 C 0.3850(8) 0.1516(9) 0.1701(5)
C13 C 0.4432(9) 0.1036(10) 0.1443(6)
C14 C 0.4315(11) 0.0480(12) 0.1206(7)
C15 C 0.3601(10) 0.0418(11) 0.1228(7)
C16 C 0.3047(10) 0.4215(9) 0.2151(6)
C17 C 0.3630(9) 0.3370(8) 0.2185(5)
C18 C 0.3474(9) 0.2848(8) 0.1945(5)
C19 C 0.3992(9) 0.2096(8) 0.1954(5)
C20 C 0.4640(9) 0.1854(9) 0.2219(5)
C21 C 0.4787(10) 0.2356(9) 0.2479(6)
C22 C 0.4277(9) 0.3117(9) 0.2455(6)
N4 N 0.3175(8) 0.4767(8) 0.2830(3)
N5 N 0.3303(8) 0.4700(8) 0.2392(4)
C23 C 0.3740(11) 0.5104(11) 0.2243(5)
C24 C 0.3893(12) 0.5437(11) 0.2593(5)
C25 C 0.3558(10) 0.5218(10) 0.2960(4)
N6 N 0.3185(9) 0.5076(9) 0.3688(4)
C26 C 0.3554(11) 0.5390(11) 0.3401(4)
C27 C 0.3928(12) 0.5846(12) 0.3541(6)
C28 C 0.3935(15) 0.5940(14) 0.3980(6)
C29 C 0.3607(16) 0.5583(15) 0.4276(6)
C30 C 0.3202(11) 0.5165(11) 0.4120(5)
N7 N 0.2891(9) 0.1023(9) 0.0065(6)
C31 C 0.3172(9) 0.1537(10) 0.0190(6)
C32 C 0.3921(11) 0.1461(13) 0.0078(8)
C33 C 0.4333(12) 0.0900(13) -0.0195(8)
C34 C 0.4056(12) 0.0386(13) -0.0332(8)
C35 C 0.3330(11) 0.0431(11) -0.0176(7)
N8 N 0.1932(8) 0.2215(8) 0.0530(5)
N9 N 0.1610(8) 0.2859(8) 0.0753(5)
C36 C 0.2168(11) 0.3149(12) 0.0831(8)
C37 C 0.2834(10) 0.2705(11) 0.0627(7)
C38 C 0.2692(9) 0.2116(10) 0.0441(7)
C39 C 0.0834(10) 0.3111(10) 0.0858(5)
C40 C 0.0284(8) 0.3635(10) 0.0502(5)
C41 C -0.0479(8) 0.4062(9) 0.0605(5)
C42 C -0.1002(8) 0.4543(9) 0.0296(5)
C43 C -0.0728(9) 0.4588(10) -0.0126(5)
C44 C 0.0035(9) 0.4143(10) -0.0236(5)
C45 C 0.0549(9) 0.3674(9) 0.0084(4)
C46 C -0.3415(12) 0.4632(12) 0.1037(7)
C47 C -0.2997(9) 0.5052(9) 0.0754(6)
C48 C -0.2228(9) 0.4647(10) 0.0665(6)
C49 C -0.1822(8) 0.4981(9) 0.0407(6)
C50 C -0.2192(9) 0.5739(9) 0.0246(6)
C51 C -0.2970(10) 0.6156(10) 0.0335(7)
C52 C -0.3364(10) 0.5806(9) 0.0589(6)
N10 N -0.4358(7) 0.5576(8) 0.1461(4)
N11 N -0.4172(9) 0.5095(9) 0.1120(5)
C53 C -0.4834(11) 0.5282(13) 0.0868(6)
C54 C -0.5440(10) 0.5844(12) 0.1063(6)
C55 C -0.5143(9) 0.5989(10) 0.1447(5)
N12 N -0.5068(8) 0.6566(9) 0.2100(4)
C56 C -0.5508(9) 0.6532(11) 0.1759(6)
C57 C -0.6277(9) 0.7022(11) 0.1725(6)
C58 C -0.6614(11) 0.7514(13) 0.2048(7)
C59 C -0.6169(11) 0.7574(12) 0.2382(7)
C60 C -0.5385(11) 0.7067(11) 0.2415(6)
N13 N 0.1133(8) 0.1751(8) -0.0447(4)
C61 C 0.0370(8) 0.2274(9) -0.0449(4)
C62 C 0.0049(8) 0.2723(8) -0.0826(5)
C63 C 0.0490(11) 0.2648(10) -0.1201(4)
C64 C 0.1252(11) 0.2124(11) -0.1200(4)
C65 C 0.1574(8) 0.1676(9) -0.0823(6)
N14 N 0.0331(9) 0.1813(10) 0.0305(5)
N15 N -0.0224(10) 0.1909(11) 0.0612(5)
C66 C -0.0922(10) 0.2400(11) 0.0444(6)
C67 C -0.0816(10) 0.2608(15) 0.0013(6)
C68 C -0.0027(10) 0.2229(12) -0.0071(5)
C69 C -0.0040(12) 0.1506(9) 0.0971(6)
C70 C 0.0057(11) 0.0662(7) 0.0984(5)
C71 C 0.0130(11) 0.0245(10) 0.1380(4)
C72 C 0.0213(12) -0.0516(9) 0.1387(5)
C73 C 0.0223(12) -0.0859(8) 0.0997(6)
C74 C 0.0150(11) -0.0442(10) 0.0601(5)
C75 C 0.0067(11) 0.0318(10) 0.0594(4)
C76 C 0.1377(16) -0.1458(18) 0.2858(9)
C77 C 0.0736(10) -0.1385(11) 0.2520(5)
C78 C 0.0719(10) -0.0981(11) 0.2125(6)
C79 C 0.0188(11) -0.0932(10) 0.1803(5)
C80 C -0.0326(10) -0.1288(11) 0.1875(5)
C81 C -0.0310(10) -0.1692(11) 0.2270(6)
C82 C 0.0221(12) -0.1740(10) 0.2593(5)
N16 N 0.0866(8) -0.1765(7) 0.3533(4)
N17 N 0.1497(10) -0.1969(11) 0.3239(4)
C83 C 0.2037(9) -0.2709(11) 0.3376(7)
C84 C 0.1741(10) -0.2963(8) 0.3755(7)
C85 C 0.1018(9) -0.2379(9) 0.3852(5)
N18 N -0.0161(7) -0.1694(7) 0.4189(4)
C86 C 0.0487(9) -0.2353(9) 0.4180(5)
C87 C 0.0559(11) -0.2979(10) 0.4459(6)
C88 C 0.0006(11) -0.2916(11) 0.4762(7)
C89 C -0.0643(11) -0.2254(10) 0.4776(6)
C90 C -0.0717(9) -0.1626(9) 0.4478(5)
N19 N 0.3625(8) 0.3161(7) 0.3572(4)
C91 C 0.3645(9) 0.2483(9) 0.3418(5)
C92 C 0.4277(9) 0.1794(9) 0.3495(6)
C93 C 0.4916(11) 0.1812(12) 0.3713(7)
C94 C 0.4918(11) 0.2461(11) 0.3865(7)
C95 C 0.4267(11) 0.3127(11) 0.3799(7)
N20 N 0.2452(7) 0.3231(7) 0.3033(4)
N21 N 0.1902(8) 0.3092(8) 0.2818(4)
C96 C 0.2089(10) 0.2340(9) 0.2807(6)
C97 C 0.2781(10) 0.1970(9) 0.3027(6)
C98 C 0.2986(9) 0.2542(9) 0.3160(6)
C99 C 0.1258(9) 0.3707(9) 0.2593(5)
C100 C 0.0613(9) 0.4113(9) 0.2901(5)
C101 C 0.0004(9) 0.4773(9) 0.2734(5)
C102 C -0.0634(9) 0.5156(9) 0.2988(5)
C103 C -0.0659(10) 0.4884(9) 0.3403(5)
C104 C -0.0122(10) 0.4211(10) 0.3570(6)
C105 C 0.0542(10) 0.3806(10) 0.3313(5)
C106 C -0.3416(10) 0.7057(11) 0.2982(7)
C107 C -0.2585(9) 0.6761(9) 0.2800(6)
C108 C -0.2005(8) 0.6111(9) 0.2968(5)
C109 C -0.1258(8) 0.5893(8) 0.2802(5)
C110 C -0.1100(9) 0.6340(9) 0.2474(5)
C111 C -0.1692(10) 0.7044(11) 0.2327(6)
C112 C -0.2436(10) 0.7216(10) 0.2479(6)
N22 N -0.3691(9) 0.5935(8) 0.2872(4)
N23 N -0.3631(9) 0.6441(8) 0.3156(4)
C113 C -0.3769(12) 0.6227(10) 0.3575(5)
C114 C -0.3929(11) 0.5578(9) 0.3562(4)
C115 C -0.3875(11) 0.5400(9) 0.3121(4)
N24 N -0.3899(8) 0.4747(7) 0.2480(4)
C116 C -0.4010(11) 0.4808(8) 0.2919(4)
C117 C -0.4142(11) 0.4221(9) 0.3158(5)
C118 C -0.4276(11) 0.3668(9) 0.2942(5)
C119 C -0.4193(11) 0.3633(9) 0.2499(5)
C120 C -0.4023(11) 0.4201(9) 0.2262(5)
N25 N -0.3312(7) 0.6520(7) 0.1700(4)
C121 C -0.2563(10) 0.6304(9) 0.1561(6)
C122 C -0.2376(11) 0.6787(10) 0.1252(6)
C123 C -0.2935(11) 0.7504(11) 0.1145(7)
C124 C -0.3646(11) 0.7772(11) 0.1311(7)
C125 C -0.3806(11) 0.7235(10) 0.1574(7)
N26 N -0.2303(8) 0.5027(7) 0.1859(5)
N27 N -0.1681(8) 0.4375(8) 0.1948(5)
C126 C -0.1036(9) 0.4466(9) 0.1838(6)
C127 C -0.1248(9) 0.5207(9) 0.1666(6)
C128 C -0.2026(8) 0.5546(8) 0.1693(5)
C129 C -0.1798(11) 0.3686(10) 0.2070(5)
C130 C -0.1968(11) 0.3592(10) 0.2549(5)
C131 C -0.2155(11) 0.2958(9) 0.2660(5)
C132 C -0.2300(11) 0.2808(10) 0.3094(5)
C133 C -0.2239(11) 0.3265(10) 0.3395(6)
C134 C -0.1955(12) 0.3821(11) 0.3312(6)
C135 C -0.1856(12) 0.4019(11) 0.2864(5)
C136 C -0.2285(17) 0.0641(15) 0.4157(7)
C137 C -0.2500(14) 0.1126(12) 0.3722(6)
C138 C -0.2298(13) 0.1737(11) 0.3622(6)
C139 C -0.2525(11) 0.2134(10) 0.3216(5)
C140 C -0.2906(11) 0.1903(10) 0.2912(5)
C141 C -0.3114(13) 0.1273(11) 0.3025(6)
C142 C -0.2922(13) 0.0910(12) 0.3437(6)
N28 N -0.0947(8) 0.0369(9) 0.4256(5)
N29 N -0.1674(8) 0.0780(9) 0.4392(5)
C143 C -0.1677(10) 0.1310(12) 0.4681(7)
C144 C -0.0918(9) 0.1203(10) 0.4743(6)
C145 C -0.0460(7) 0.0614(10) 0.4479(6)
N30 N 0.0626(7) -0.0254(8) 0.4114(5)
C146 C 0.0337(7) 0.0287(9) 0.4415(5)
C147 C 0.0837(8) 0.0508(10) 0.4651(5)
C148 C 0.1622(9) 0.0163(10) 0.4587(6)
C149 C 0.1907(9) -0.0411(10) 0.4298(6)
C150 C 0.1396(8) -0.0607(10) 0.4052(6)
N31 N -0.1104(9) -0.0721(8) 0.3281(5)
C151 C -0.1309(11) -0.0267(10) 0.2895(6)
C152 C -0.1824(13) -0.0357(13) 0.2602(7)
C153 C -0.2135(14) -0.0902(13) 0.2711(7)
C154 C -0.2001(13) -0.1295(13) 0.3103(7)
C155 C -0.1438(11) -0.1230(11) 0.3362(6)
N32 N -0.0298(9) 0.0201(8) 0.3052(5)
N33 N -0.0122(8) 0.0783(8) 0.2878(5)
C156 C -0.0558(11) 0.1135(11) 0.2534(6)
C157 C -0.1110(12) 0.0838(11) 0.2490(6)
C158 C -0.0934(10) 0.0266(10) 0.2820(6)
C159 C 0.0597(11) 0.0849(11) 0.3021(6)
C160 C 0.0463(9) 0.1374(10) 0.3390(5)
C161 C 0.1121(9) 0.1400(9) 0.3579(5)
C162 C 0.1072(8) 0.1904(9) 0.3898(5)
C163 C 0.0373(9) 0.2325(10) 0.4059(6)
C164 C -0.0275(10) 0.2285(11) 0.3896(6)
C165 C -0.0246(9) 0.1793(10) 0.3556(5)
C166 C 0.2468(12) 0.3331(10) 0.4610(7)
C167 C 0.2450(9) 0.2614(9) 0.4406(6)
C168 C 0.1783(10) 0.2606(10) 0.4246(6)
C169 C 0.1817(9) 0.1911(9) 0.4079(6)
C170 C 0.2497(10) 0.1272(10) 0.4092(7)
C171 C 0.3176(11) 0.1307(11) 0.4248(7)
C172 C 0.3133(11) 0.1988(10) 0.4415(7)
N34 N 0.1803(7) 0.4381(7) 0.4069(4)
N35 N 0.1829(8) 0.4000(8) 0.4466(4)
C173 C 0.1119(10) 0.4342(11) 0.4662(5)
C174 C 0.0654(9) 0.4945(10) 0.4389(5)
C175 C 0.1090(8) 0.4971(9) 0.4020(4)
N36 N 0.1437(7) 0.5271(7) 0.3300(4)
C176 C 0.0906(8) 0.5467(8) 0.3637(4)
C177 C 0.0216(8) 0.6107(8) 0.3593(4)
C178 C 0.0052(9) 0.6562(9) 0.3209(5)
C179 C 0.0589(9) 0.6384(9) 0.2878(5)
C180 C 0.1272(8) 0.5726(8) 0.2923(4)
Hg1 Hg 0.16514(5) 0.11557(5) 0.02853(3)
Hg2 Hg 0.25739(5) 0.42505(4) 0.34046(2)
Hg3 Hg -0.36553(5) 0.57187(5) 0.21077(2)
Hg4 Hg -0.02225(6) -0.05804(5) 0.37226(2)
H1 H 0.2347 -0.1806 0.0437
H2 H 0.2268 -0.2022 -0.0293
H3 H 0.1896 -0.1015 -0.0816
H4 H 0.1604 0.0242 -0.0601
H5 H 0.2554 -0.0642 0.1790
H6 H 0.2385 -0.1452 0.1212
H7 H 0.2040 0.0936 0.1798
H8 H 0.1832 0.1389 0.1329
H9 H 0.2712 0.1852 0.1836
H10 H 0.4915 0.1085 0.1427
H11 H 0.4716 0.0151 0.1032
H12 H 0.3521 0.0026 0.1082
H13 H 0.2977 0.4401 0.1840
H14 H 0.2541 0.4246 0.2264
H15 H 0.3013 0.3008 0.1776
H16 H 0.4991 0.1334 0.2223
H17 H 0.5224 0.2183 0.2669
H18 H 0.4373 0.3473 0.2626
H19 H 0.3903 0.5142 0.1951
H20 H 0.4174 0.5757 0.2589
H21 H 0.4167 0.6081 0.3340
H22 H 0.4172 0.6259 0.4084
H23 H 0.3654 0.5621 0.4581
H24 H 0.2942 0.4946 0.4318
H25 H 0.4138 0.1791 0.0188
H26 H 0.4826 0.0868 -0.0291
H27 H 0.4343 0.0008 -0.0527
H28 H 0.3148 0.0046 -0.0240
H29 H 0.2099 0.3579 0.0996
H30 H 0.3304 0.2782 0.0615
H31 H 0.0748 0.3391 0.1129
H32 H 0.0703 0.2659 0.0919
H33 H -0.0648 0.4024 0.0895
H34 H -0.1065 0.4927 -0.0343
H35 H 0.0204 0.4162 -0.0528
H36 H 0.1073 0.3385 0.0014
H37 H -0.3402 0.4182 0.0885
H38 H -0.3133 0.4444 0.1318
H39 H -0.1975 0.4136 0.0783
H40 H -0.1913 0.5974 0.0074
H41 H -0.3223 0.6670 0.0222
H42 H -0.3893 0.6084 0.0652
H43 H -0.4865 0.5059 0.0603
H44 H -0.5956 0.6085 0.0958
H45 H -0.6573 0.7017 0.1478
H46 H -0.7154 0.7812 0.2040
H47 H -0.6385 0.7952 0.2589
H48 H -0.5081 0.7078 0.2657
H49 H -0.0473 0.3081 -0.0827
H50 H 0.0270 0.2955 -0.1459
H51 H 0.1554 0.2073 -0.1456
H52 H 0.2095 0.1318 -0.0822
H53 H -0.1399 0.2570 0.0595
H54 H -0.1202 0.2941 -0.0184
H55 H -0.0437 0.1766 0.1188
H56 H 0.0452 0.1516 0.1073
H57 H 0.0123 0.0479 0.1646
H58 H 0.0280 -0.1378 0.1001
H59 H 0.0157 -0.0676 0.0334
H60 H 0.0017 0.0603 0.0323
H61 H 0.1872 -0.1615 0.2700
H62 H 0.1264 -0.0940 0.2960
H63 H 0.1070 -0.0737 0.2076
H64 H -0.0689 -0.1255 0.1655
H65 H -0.0661 -0.1935 0.2320
H66 H 0.0233 -0.2016 0.2863
H67 H 0.2513 -0.2986 0.3239
H68 H 0.1985 -0.3439 0.3915
H69 H 0.0993 -0.3449 0.4439
H70 H 0.0070 -0.3334 0.4965
H71 H -0.1038 -0.2214 0.4981
H72 H -0.1160 -0.1161 0.4486
H73 H 0.4274 0.1327 0.3402
H74 H 0.5362 0.1352 0.3755
H75 H 0.5356 0.2462 0.4014
H76 H 0.4260 0.3582 0.3915
H77 H 0.1797 0.2102 0.2671
H78 H 0.3056 0.1433 0.3076
H79 H 0.1056 0.3491 0.2362
H80 H 0.1446 0.4082 0.2451
H81 H 0.0027 0.4961 0.2442
H82 H -0.1069 0.5175 0.3585
H83 H -0.0185 0.4012 0.3852
H84 H 0.0926 0.3336 0.3423
H85 H -0.3458 0.7409 0.3217
H86 H -0.3783 0.7352 0.2746
H87 H -0.2110 0.5808 0.3197
H88 H -0.0600 0.6178 0.2349
H89 H -0.1581 0.7390 0.2129
H90 H -0.2849 0.7656 0.2359
H91 H -0.3756 0.6483 0.3830
H92 H -0.4050 0.5308 0.3802
H93 H -0.4139 0.4204 0.3469
H94 H -0.4427 0.3308 0.3103
H95 H -0.4251 0.3231 0.2353
H96 H -0.3994 0.4205 0.1952
H97 H -0.1880 0.6623 0.1122
H98 H -0.2806 0.7827 0.0939
H99 H -0.4008 0.8283 0.1255
H100 H -0.4320 0.7387 0.1677
H101 H -0.0525 0.4091 0.1871
H102 H -0.0912 0.5436 0.1550
H103 H -0.1329 0.3240 0.1994
H104 H -0.2232 0.3679 0.1894
H105 H -0.2183 0.2635 0.2441
H106 H -0.2403 0.3199 0.3684
H107 H -0.1828 0.4066 0.3543
H108 H -0.1716 0.4439 0.2788
H109 H -0.2749 0.0772 0.4343
H110 H -0.2102 0.0092 0.4099
H111 H -0.2012 0.1886 0.3824
H112 H -0.3029 0.2160 0.2631
H113 H -0.3380 0.1104 0.2822
H114 H -0.3085 0.0509 0.3523
H115 H -0.2117 0.1676 0.4812
H116 H -0.0735 0.1478 0.4930
H117 H 0.0637 0.0896 0.4854
H118 H 0.1964 0.0320 0.4741
H119 H 0.2449 -0.0674 0.4266
H120 H 0.1590 -0.0986 0.3843
H121 H -0.1960 -0.0056 0.2335
H122 H -0.2450 -0.0998 0.2502
H123 H -0.2279 -0.1599 0.3195
H124 H -0.1273 -0.1566 0.3616
H125 H -0.0499 0.1527 0.2349
H126 H -0.1519 0.0991 0.2282
H127 H 0.0818 0.1044 0.2770
H128 H 0.0978 0.0334 0.3115
H129 H 0.1616 0.1064 0.3487
H130 H 0.0334 0.2651 0.4290
H131 H -0.0762 0.2595 0.4011
H132 H -0.0702 0.1756 0.3450
H133 H 0.2458 0.3265 0.4933
H134 H 0.2953 0.3390 0.4528
H135 H 0.1313 0.3047 0.4245
H136 H 0.2506 0.0803 0.3994
H137 H 0.3654 0.0877 0.4241
H138 H 0.3582 0.2017 0.4536
H139 H 0.0975 0.4188 0.4938
H140 H 0.0136 0.5280 0.4442
H141 H -0.0143 0.6232 0.3826
H142 H -0.0424 0.6991 0.3173
H143 H 0.0495 0.6709 0.2619
H144 H 0.1627 0.5593 0.2688
Cl1 Cl 0.0484(3) 0.2345(3) 0.19844(15)
O1 O 0.1141(6) 0.2506(7) 0.1856(4)
O2 O -0.0106(7) 0.2693(9) 0.1656(4)
O3 O 0.0690(9) 0.1536(6) 0.2012(5)
O4 O 0.0195(8) 0.2668(8) 0.2396(4)
Cl2 Cl 0.8105(3) 0.6931(3) 0.41313(15)
O5 O 0.8641(8) 0.6204(7) 0.4293(5)
O6 O 0.7446(8) 0.6869(11) 0.3939(6)
O7 O 0.8468(9) 0.7268(8) 0.3814(4)
O8 O 0.7859(10) 0.7415(8) 0.4493(4)
Cl3 Cl -0.3807(7) 0.3620(7) 0.4484(4)
O9 O -0.399(3) 0.353(3) 0.4932(6)
O10 O -0.327(2) 0.2913(15) 0.4341(15)
O11 O -0.351(2) 0.421(2) 0.4434(15)
O12 O -0.4503(16) 0.386(2) 0.4225(12)
Cl5 Cl 0.2747(4) -0.0302(3) 0.28447(19)
O17 O 0.3535(7) -0.0830(11) 0.2824(8)
O18 O 0.2445(12) -0.0357(14) 0.3269(5)
O19 O 0.2691(14) 0.0457(7) 0.2746(7)
O20 O 0.2309(13) -0.0502(13) 0.2529(6)
Cl7 Cl 0.1012(3) 0.5122(3) 0.15411(16)
O25 O 0.1221(12) 0.5308(11) 0.1953(4)
O26 O 0.1636(11) 0.4956(15) 0.1246(6)
O27 O 0.0828(14) 0.4450(10) 0.1616(7)
O28 O 0.0333(11) 0.5736(11) 0.1374(8)
Cl9 Cl -0.2709(9) 0.2522(9) 0.1362(5)
O33 O -0.2114(16) 0.1904(15) 0.1599(11)
O34 O -0.3247(16) 0.3002(16) 0.1661(8)
O35 O -0.2373(18) 0.2954(17) 0.1102(10)
O36 O -0.3103(17) 0.2194(18) 0.1092(10)
Cl11 Cl -0.4548(6) 0.6986(6) 0.4771(3)
O41 O -0.4178(16) 0.7432(14) 0.4563(9)
O42 O -0.4007(12) 0.6380(11) 0.5049(7)
O43 O -0.4808(15) 0.6611(14) 0.4450(7)
O44 O -0.5184(12) 0.7442(14) 0.5019(8)
Cl12 Cl 0.2990(9) 0.0516(8) -0.1568(4)
O45 O 0.312(3) 0.058(3) -0.1114(6)
O46 O 0.302(3) -0.0235(15) -0.1629(15)
O47 O 0.356(2) 0.066(3) -0.1822(13)
O48 O 0.2237(15) 0.107(2) -0.1687(14)
Cl14 Cl -0.4172(6) 0.0682(6) 0.4940(3)
O53 O -0.401(2) -0.0012(14) 0.4717(11)
O54 O -0.424(3) 0.1284(17) 0.4622(11)
O55 O -0.3539(16) 0.056(2) 0.5227(11)
O56 O -0.4860(15) 0.085(2) 0.5179(13)
Cl16 Cl 0.3480(7) -0.3455(7) 0.0012(4)
O61 O 0.3874(15) -0.3047(13) -0.0219(8)
O62 O 0.3303(15) -0.3181(13) 0.0441(5)
O63 O 0.3951(12) -0.4254(8) 0.0043(7)
O64 O 0.2774(11) -0.3338(15) -0.0207(9)
Cl17 Cl 0.4328(7) -0.1801(6) 0.0797(4)
O65 O 0.3801(12) -0.2182(12) 0.0828(8)
O66 O 0.5028(10) -0.2311(12) 0.0610(8)
O67 O 0.4002(13) -0.1115(10) 0.0531(7)
O68 O 0.4482(15) -0.1642(14) 0.1225(5)
C181 C 0.2553(13) 0.4916(13) 0.5568(7)
N37 N 0.1872(11) 0.5449(10) 0.5320(6)
O69 O 0.1934(10) 0.5510(9) 0.4925(5)
O70 O 0.1248(12) 0.5808(12) 0.5474(7)
H145 H 0.2905 0.5168 0.5627
H146 H 0.2819 0.4474 0.5393
H147 H 0.2390 0.4744 0.5845
C182 C 0.264(2) 0.5338(18) 0.0575(9)
N38 N 0.2503(15) 0.5881(15) 0.0918(8)
O71 O 0.197(2) 0.6497(18) 0.0878(12)
O72 O 0.2881(18) 0.5773(17) 0.1252(9)
H148 H 0.2384 0.4992 0.0658
H149 H 0.3192 0.5038 0.0530
H150 H 0.2410 0.5635 0.0305
C183 C -0.387(2) -0.104(2) 0.3933(15)
N39 N -0.4428(17) -0.0371(16) 0.3686(9)
O73 O -0.5100(18) -0.020(2) 0.3781(11)
O74 O -0.431(2) 0.0000(19) 0.3386(11)
H151 H -0.3460 -0.1373 0.3745
H152 H -0.4132 -0.1345 0.4078
H153 H -0.3634 -0.0845 0.4154
C185 C -0.523(3) 0.9822(19) 0.2407(16)
N41 N -0.4838(17) 0.9013(18) 0.2556(10)
O77 O -0.458(2) 0.887(2) 0.2928(10)
O78 O -0.4738(19) 0.8479(17) 0.2335(10)
H157 H -0.4924 0.9964 0.2183
H158 H -0.5301 1.0143 0.2656
H159 H -0.5734 0.9900 0.2284
loop_
_geom_bond_atom_site_label_1
_geom_bond_atom_site_label_2
_geom_bond_site_symmetry_1
_geom_bond_site_symmetry_2
N1 C1 1_555 1_555
C1 C2 1_555 1_555
C2 C3 1_555 1_555
C3 C4 1_555 1_555
C4 C5 1_555 1_555
C5 N1 1_555 1_555
N2 N3 1_555 1_555
N3 C6 1_555 1_555
C6 C7 1_555 1_555
C7 C8 1_555 1_555
C8 C1 1_555 1_555
C9 N3 1_555 1_555
C10 C9 1_555 1_555
C11 C10 1_555 1_555
C12 C11 1_555 1_555
C13 C12 1_555 1_555
C14 C13 1_555 1_555
C15 C10 1_555 1_555
C16 C17 1_555 1_555
C17 C18 1_555 1_555
C18 C19 1_555 1_555
C19 C12 1_555 1_555
C20 C19 1_555 1_555
C21 C20 1_555 1_555
C22 C17 1_555 1_555
N4 N5 1_555 1_555
N5 C16 1_555 1_555
C23 N5 1_555 1_555
C24 C23 1_555 1_555
C25 N4 1_555 1_555
N6 C26 1_555 1_555
C26 C25 1_555 1_555
C27 C26 1_555 1_555
C28 C27 1_555 1_555
C29 C28 1_555 1_555
C30 N6 1_555 1_555
N7 C31 1_555 1_555
C31 C32 1_555 1_555
C32 C33 1_555 1_555
C33 C34 1_555 1_555
C34 C35 1_555 1_555
C35 N7 1_555 1_555
N8 N9 1_555 1_555
N9 C36 1_555 1_555
C36 C37 1_555 1_555
C37 C38 1_555 1_555
C38 C31 1_555 1_555
C39 N9 1_555 1_555
C40 C39 1_555 1_555
C41 C40 1_555 1_555
C42 C41 1_555 1_555
C43 C42 1_555 1_555
C44 C43 1_555 1_555
C45 C40 1_555 1_555
C46 C47 1_555 1_555
C47 C48 1_555 1_555
C48 C49 1_555 1_555
C49 C42 1_555 1_555
C50 C49 1_555 1_555
C51 C50 1_555 1_555
C52 C47 1_555 1_555
N10 N11 1_555 1_555
N11 C46 1_555 1_555
C53 N11 1_555 1_555
C54 C53 1_555 1_555
C55 N10 1_555 1_555
N12 C56 1_555 1_555
C56 C55 1_555 1_555
C57 C56 1_555 1_555
C58 C57 1_555 1_555
C59 C58 1_555 1_555
C60 N12 1_555 1_555
N13 C61 1_555 1_555
C61 C62 1_555 1_555
C62 C63 1_555 1_555
C63 C64 1_555 1_555
C64 C65 1_555 1_555
C65 N13 1_555 1_555
N14 N15 1_555 1_555
N15 C66 1_555 1_555
C66 C67 1_555 1_555
C67 C68 1_555 1_555
C68 C61 1_555 1_555
C69 N15 1_555 1_555
C70 C69 1_555 1_555
C71 C70 1_555 1_555
C72 C71 1_555 1_555
C73 C72 1_555 1_555
C74 C73 1_555 1_555
C75 C70 1_555 1_555
C76 C77 1_555 1_555
C77 C78 1_555 1_555
C78 C79 1_555 1_555
C79 C72 1_555 1_555
C80 C79 1_555 1_555
C81 C80 1_555 1_555
C82 C77 1_555 1_555
N16 N17 1_555 1_555
N17 C76 1_555 1_555
C83 N17 1_555 1_555
C84 C83 1_555 1_555
C85 N16 1_555 1_555
N18 C86 1_555 1_555
C86 C85 1_555 1_555
C87 C86 1_555 1_555
C88 C87 1_555 1_555
C89 C88 1_555 1_555
C90 N18 1_555 1_555
N19 C91 1_555 1_555
C91 C92 1_555 1_555
C92 C93 1_555 1_555
C93 C94 1_555 1_555
C94 C95 1_555 1_555
C95 N19 1_555 1_555
N20 N21 1_555 1_555
N21 C96 1_555 1_555
C96 C97 1_555 1_555
C97 C98 1_555 1_555
C98 C91 1_555 1_555
C99 N21 1_555 1_555
C100 C99 1_555 1_555
C101 C100 1_555 1_555
C102 C101 1_555 1_555
C103 C102 1_555 1_555
C104 C103 1_555 1_555
C105 C100 1_555 1_555
C106 C107 1_555 1_555
C107 C108 1_555 1_555
C108 C109 1_555 1_555
C109 C102 1_555 1_555
C110 C109 1_555 1_555
C111 C110 1_555 1_555
C112 C107 1_555 1_555
N22 N23 1_555 1_555
N23 C106 1_555 1_555
C113 N23 1_555 1_555
C114 C113 1_555 1_555
C115 N22 1_555 1_555
N24 C116 1_555 1_555
C116 C115 1_555 1_555
C117 C116 1_555 1_555
C118 C117 1_555 1_555
C119 C118 1_555 1_555
C120 N24 1_555 1_555
N25 C121 1_555 1_555
C121 C122 1_555 1_555
C122 C123 1_555 1_555
C123 C124 1_555 1_555
C124 C125 1_555 1_555
C125 N25 1_555 1_555
N26 N27 1_555 1_555
N27 C126 1_555 1_555
C126 C127 1_555 1_555
C127 C128 1_555 1_555
C128 C121 1_555 1_555
C129 N27 1_555 1_555
C130 C129 1_555 1_555
C131 C130 1_555 1_555
C132 C131 1_555 1_555
C133 C132 1_555 1_555
C134 C133 1_555 1_555
C135 C130 1_555 1_555
C136 C137 1_555 1_555
C137 C138 1_555 1_555
C138 C139 1_555 1_555
C139 C132 1_555 1_555
C140 C139 1_555 1_555
C141 C140 1_555 1_555
C142 C137 1_555 1_555
N28 N29 1_555 1_555
N29 C136 1_555 1_555
C143 N29 1_555 1_555
C144 C143 1_555 1_555
C145 N28 1_555 1_555
N30 C146 1_555 1_555
C146 C145 1_555 1_555
C147 C146 1_555 1_555
C148 C147 1_555 1_555
C149 C148 1_555 1_555
C150 N30 1_555 1_555
N31 C151 1_555 1_555
C151 C152 1_555 1_555
C152 C153 1_555 1_555
C153 C154 1_555 1_555
C154 C155 1_555 1_555
C155 N31 1_555 1_555
N32 N33 1_555 1_555
N33 C156 1_555 1_555
C156 C157 1_555 1_555
C157 C158 1_555 1_555
C158 C151 1_555 1_555
C159 N33 1_555 1_555
C160 C159 1_555 1_555
C161 C160 1_555 1_555
C162 C161 1_555 1_555
C163 C162 1_555 1_555
C164 C163 1_555 1_555
C165 C160 1_555 1_555
C166 C167 1_555 1_555
C167 C168 1_555 1_555
C168 C169 1_555 1_555
C169 C162 1_555 1_555
C170 C169 1_555 1_555
C171 C170 1_555 1_555
C172 C167 1_555 1_555
N34 N35 1_555 1_555
N35 C166 1_555 1_555
C173 N35 1_555 1_555
C174 C173 1_555 1_555
C175 N34 1_555 1_555
N36 C176 1_555 1_555
C176 C175 1_555 1_555
C177 C176 1_555 1_555
C178 C177 1_555 1_555
C179 C178 1_555 1_555
C180 N36 1_555 1_555
Cl1 O1 1_555 1_555
O2 Cl1 1_555 1_555
O3 Cl1 1_555 1_555
O4 Cl1 1_555 1_555
Cl2 O5 1_555 1_555
O6 Cl2 1_555 1_555
O7 Cl2 1_555 1_555
O8 Cl2 1_555 1_555
Cl3 O9 1_555 1_555
O10 Cl3 1_555 1_555
O11 Cl3 1_555 1_555
O12 Cl3 1_555 1_555
Cl5 O17 1_555 1_555
O18 Cl5 1_555 1_555
O19 Cl5 1_555 1_555
O20 Cl5 1_555 1_555
Cl7 O25 1_555 1_555
O26 Cl7 1_555 1_555
O27 Cl7 1_555 1_555
O28 Cl7 1_555 1_555
Cl9 O33 1_555 1_555
O34 Cl9 1_555 1_555
O35 Cl9 1_555 1_555
O36 Cl9 1_555 1_555
Cl11 O41 1_555 1_555
O42 Cl11 1_555 1_555
O43 Cl11 1_555 1_555
O44 Cl11 1_555 1_555
Cl12 O45 1_555 1_555
O46 Cl12 1_555 1_555
O47 Cl12 1_555 1_555
O48 Cl12 1_555 1_555
Cl14 O53 1_555 1_555
O54 Cl14 1_555 1_555
O55 Cl14 1_555 1_555
O56 Cl14 1_555 1_555
Cl16 O61 1_555 1_555
O62 Cl16 1_555 1_555
O63 Cl16 1_555 1_555
O64 Cl16 1_555 1_555
Cl17 O65 1_555 1_555
O66 Cl17 1_555 1_555
O67 Cl17 1_555 1_555
O68 Cl17 1_555 1_555
C181 N37 1_555 1_555
N37 O69 1_555 1_555
O70 N37 1_555 1_555
C182 N38 1_555 1_555
N38 O71 1_555 1_555
O72 N38 1_555 1_555
C183 N39 1_555 1_555
N39 O73 1_555 1_555
O74 N39 1_555 1_555
C185 N41 1_555 1_555
N41 O77 1_555 1_555
O78 N41 1_555 1_555
Hg1 N1 1_555 1_555
Hg2 N4 1_555 1_555
Hg3 N10 1_555 1_555
Hg4 N16 1_555 1_555
H1 C2 1_555 1_555
H2 C3 1_555 1_555
H3 C4 1_555 1_555
H4 C5 1_555 1_555
H5 C6 1_555 1_555
H6 C7 1_555 1_555
H7 C9 1_555 1_555
H8 C9 1_555 1_555
H9 C11 1_555 1_555
H10 C13 1_555 1_555
H11 C14 1_555 1_555
H12 C15 1_555 1_555
H13 C16 1_555 1_555
H14 C16 1_555 1_555
H15 C18 1_555 1_555
H16 C20 1_555 1_555
H17 C21 1_555 1_555
H18 C22 1_555 1_555
H19 C23 1_555 1_555
H20 C24 1_555 1_555
H21 C27 1_555 1_555
H22 C28 1_555 1_555
H23 C29 1_555 1_555
H24 C30 1_555 1_555
H25 C32 1_555 1_555
H26 C33 1_555 1_555
H27 C34 1_555 1_555
H28 C35 1_555 1_555
H29 C36 1_555 1_555
H30 C37 1_555 1_555
H31 C39 1_555 1_555
H32 C39 1_555 1_555
H33 C41 1_555 1_555
H34 C43 1_555 1_555
H35 C44 1_555 1_555
H36 C45 1_555 1_555
H37 C46 1_555 1_555
H38 C46 1_555 1_555
H39 C48 1_555 1_555
H40 C50 1_555 1_555
H41 C51 1_555 1_555
H42 C52 1_555 1_555
H43 C53 1_555 1_555
H44 C54 1_555 1_555
H45 C57 1_555 1_555
H46 C58 1_555 1_555
H47 C59 1_555 1_555
H48 C60 1_555 1_555
H49 C62 1_555 1_555
H50 C63 1_555 1_555
H51 C64 1_555 1_555
H52 C65 1_555 1_555
H53 C66 1_555 1_555
H54 C67 1_555 1_555
H55 C69 1_555 1_555
H56 C69 1_555 1_555
H57 C71 1_555 1_555
H58 C73 1_555 1_555
H59 C74 1_555 1_555
H60 C75 1_555 1_555
H61 C76 1_555 1_555
H62 C76 1_555 1_555
H63 C78 1_555 1_555
H64 C80 1_555 1_555
H65 C81 1_555 1_555
H66 C82 1_555 1_555
H67 C83 1_555 1_555
H68 C84 1_555 1_555
H69 C87 1_555 1_555
H70 C88 1_555 1_555
H71 C89 1_555 1_555
H72 C90 1_555 1_555
H73 C92 1_555 1_555
H74 C93 1_555 1_555
H75 C94 1_555 1_555
H76 C95 1_555 1_555
H77 C96 1_555 1_555
H78 C97 1_555 1_555
H79 C99 1_555 1_555
H80 C99 1_555 1_555
H81 C101 1_555 1_555
H82 C103 1_555 1_555
H83 C104 1_555 1_555
H84 C105 1_555 1_555
H85 C106 1_555 1_555
H86 C106 1_555 1_555
H87 C108 1_555 1_555
H88 C110 1_555 1_555
H89 C111 1_555 1_555
H90 C112 1_555 1_555
H91 C113 1_555 1_555
H92 C114 1_555 1_555
H93 C117 1_555 1_555
H94 C118 1_555 1_555
H95 C119 1_555 1_555
H96 C120 1_555 1_555
H97 C122 1_555 1_555
H98 C123 1_555 1_555
H99 C124 1_555 1_555
H100 C125 1_555 1_555
H101 C126 1_555 1_555
H102 C127 1_555 1_555
H103 C129 1_555 1_555
H104 C129 1_555 1_555
H105 C131 1_555 1_555
H106 C133 1_555 1_555
H107 C134 1_555 1_555
H108 C135 1_555 1_555
H109 C136 1_555 1_555
H110 C136 1_555 1_555
H111 C138 1_555 1_555
H112 C140 1_555 1_555
H113 C141 1_555 1_555
H114 C142 1_555 1_555
H115 C143 1_555 1_555
H116 C144 1_555 1_555
H117 C147 1_555 1_555
H118 C148 1_555 1_555
H119 C149 1_555 1_555
H120 C150 1_555 1_555
H121 C152 1_555 1_555
H122 C153 1_555 1_555
H123 C154 1_555 1_555
H124 C155 1_555 1_555
H125 C156 1_555 1_555
H126 C157 1_555 1_555
H127 C159 1_555 1_555
H128 C159 1_555 1_555
H129 C161 1_555 1_555
H130 C163 1_555 1_555
H131 C164 1_555 1_555
H132 C165 1_555 1_555
H133 C166 1_555 1_555
H134 C166 1_555 1_555
H135 C168 1_555 1_555
H136 C170 1_555 1_555
H137 C171 1_555 1_555
H138 C172 1_555 1_555
H139 C173 1_555 1_555
H140 C174 1_555 1_555
H141 C177 1_555 1_555
H142 C178 1_555 1_555
H143 C179 1_555 1_555
H144 C180 1_555 1_555
H145 C181 1_555 1_555
H146 C181 1_555 1_555
H147 C181 1_555 1_555
H148 C182 1_555 1_555
H149 C182 1_555 1_555
H150 C182 1_555 1_555
H151 C183 1_555 1_555
H152 C183 1_555 1_555
H153 C183 1_555 1_555
H157 C185 1_555 1_555
H158 C185 1_555 1_555
H159 C185 1_555 1_555
N2 C8 1_555 1_555
N2 Hg1 1_555 1_555
C14 C15 1_555 1_555
C21 C22 1_555 1_555
C24 C25 1_555 1_555
N6 Hg2 1_555 1_555
C29 C30 1_555 1_555
N7 Hg1 1_555 1_555
N8 C38 1_555 1_555
N8 Hg1 1_555 1_555
C44 C45 1_555 1_555
C51 C52 1_555 1_555
C54 C55 1_555 1_555
N12 Hg3 1_555 1_555
C59 C60 1_555 1_555
N13 Hg1 1_555 1_555
N14 C68 1_555 1_555
N14 Hg1 1_555 1_555
C74 C75 1_555 1_555
C81 C82 1_555 1_555
C84 C85 1_555 1_555
N18 Hg4 1_555 1_555
C89 C90 1_555 1_555
N19 Hg2 1_555 1_555
N20 C98 1_555 1_555
N20 Hg2 1_555 1_555
C104 C105 1_555 1_555
C111 C112 1_555 1_555
N22 Hg3 1_555 1_555
C114 C115 1_555 1_555
N24 Hg3 1_555 1_555
C119 C120 1_555 1_555
N25 Hg3 1_555 1_555
N26 C128 1_555 1_555
N26 Hg3 1_555 1_555
C134 C135 1_555 1_555
C141 C142 1_555 1_555
N28 Hg4 1_555 1_555
C144 C145 1_555 1_555
N30 Hg4 1_555 1_555
C149 C150 1_555 1_555
N31 Hg4 1_555 1_555
N32 C158 1_555 1_555
N32 Hg4 1_555 1_555
C164 C165 1_555 1_555
C171 C172 1_555 1_555
N34 Hg2 1_555 1_555
C174 C175 1_555 1_555
N36 Hg2 1_555 1_555
C179 C180 1_555 1_555

#END
