# generated using pymatgen
data_Hg4H159C185N41(Cl2O13)6
_symmetry_space_group_name_H-M   'P 1'
_cell_length_a   18.82300000
_cell_length_b   19.00800000
_cell_length_c   30.65600000
_cell_angle_alpha   86.70400000
_cell_angle_beta   89.14500000
_cell_angle_gamma   66.94800000
_symmetry_Int_Tables_number   1
_chemical_formula_structural   Hg4H159C185N41(Cl2O13)6
_chemical_formula_sum   'Hg8 H318 C370 N82 Cl24 O156'
_cell_volume   10075.47427251
_cell_formula_units_Z   2
loop_
 _symmetry_equiv_pos_site_id
 _symmetry_equiv_pos_as_xyz
  1  'x, y, z'
loop_
 _atom_site_type_symbol
 _atom_site_label
 _atom_site_symmetry_multiplicity
 _atom_site_fract_x
 _atom_site_fract_y
 _atom_site_fract_z
 _atom_site_occupancy
  Hg  Hg1  1  0.165140  0.115570  0.028530  1
  Hg  Hg2  1  0.834860  0.884430  0.971470  1
  Hg  Hg3  1  0.257390  0.425050  0.340460  1
  Hg  Hg4  1  0.742610  0.574950  0.659540  1
  Hg  Hg5  1  0.634470  0.571870  0.210770  1
  Hg  Hg6  1  0.365530  0.428130  0.789230  1
  Hg  Hg7  1  0.977750  0.941960  0.372260  1
  Hg  Hg8  1  0.022250  0.058040  0.627740  1
  H  H9  1  0.234700  0.819400  0.043700  1
  H  H10  1  0.765300  0.180600  0.956300  1
  H  H11  1  0.226800  0.797800  0.970700  1
  H  H12  1  0.773200  0.202200  0.029300  1
  H  H13  1  0.189600  0.898500  0.918400  1
  H  H14  1  0.810400  0.101500  0.081600  1
  H  H15  1  0.160400  0.024200  0.939900  1
  H  H16  1  0.839600  0.975800  0.060100  1
  H  H17  1  0.255400  0.935800  0.179000  1
  H  H18  1  0.744600  0.064200  0.821000  1
  H  H19  1  0.238500  0.854800  0.121200  1
  H  H20  1  0.761500  0.145200  0.878800  1
  H  H21  1  0.204000  0.093600  0.179800  1
  H  H22  1  0.796000  0.906400  0.820200  1
  H  H23  1  0.183200  0.138900  0.132900  1
  H  H24  1  0.816800  0.861100  0.867100  1
  H  H25  1  0.271200  0.185200  0.183600  1
  H  H26  1  0.728800  0.814800  0.816400  1
  H  H27  1  0.491500  0.108500  0.142700  1
  H  H28  1  0.508500  0.891500  0.857300  1
  H  H29  1  0.471600  0.015100  0.103200  1
  H  H30  1  0.528400  0.984900  0.896800  1
  H  H31  1  0.352100  0.002600  0.108200  1
  H  H32  1  0.647900  0.997400  0.891800  1
  H  H33  1  0.297700  0.440100  0.184000  1
  H  H34  1  0.702300  0.559900  0.816000  1
  H  H35  1  0.254100  0.424600  0.226400  1
  H  H36  1  0.745900  0.575400  0.773600  1
  H  H37  1  0.301300  0.300800  0.177600  1
  H  H38  1  0.698700  0.699200  0.822400  1
  H  H39  1  0.499100  0.133400  0.222300  1
  H  H40  1  0.500900  0.866600  0.777700  1
  H  H41  1  0.522400  0.218300  0.266900  1
  H  H42  1  0.477600  0.781700  0.733100  1
  H  H43  1  0.437300  0.347300  0.262600  1
  H  H44  1  0.562700  0.652700  0.737400  1
  H  H45  1  0.390300  0.514200  0.195100  1
  H  H46  1  0.609700  0.485800  0.804900  1
  H  H47  1  0.417400  0.575700  0.258900  1
  H  H48  1  0.582600  0.424300  0.741100  1
  H  H49  1  0.416700  0.608100  0.334000  1
  H  H50  1  0.583300  0.391900  0.666000  1
  H  H51  1  0.417200  0.625900  0.408400  1
  H  H52  1  0.582800  0.374100  0.591600  1
  H  H53  1  0.365400  0.562100  0.458100  1
  H  H54  1  0.634600  0.437900  0.541900  1
  H  H55  1  0.294200  0.494600  0.431800  1
  H  H56  1  0.705800  0.505400  0.568200  1
  H  H57  1  0.413800  0.179100  0.018800  1
  H  H58  1  0.586200  0.820900  0.981200  1
  H  H59  1  0.482600  0.086800  0.970900  1
  H  H60  1  0.517400  0.913200  0.029100  1
  H  H61  1  0.434300  0.000800  0.947300  1
  H  H62  1  0.565700  0.999200  0.052700  1
  H  H63  1  0.314800  0.004600  0.976000  1
  H  H64  1  0.685200  0.995400  0.024000  1
  H  H65  1  0.209900  0.357900  0.099600  1
  H  H66  1  0.790100  0.642100  0.900400  1
  H  H67  1  0.330400  0.278200  0.061500  1
  H  H68  1  0.669600  0.721800  0.938500  1
  H  H69  1  0.074800  0.339100  0.112900  1
  H  H70  1  0.925200  0.660900  0.887100  1
  H  H71  1  0.070300  0.265900  0.091900  1
  H  H72  1  0.929700  0.734100  0.908100  1
  H  H73  1  0.935200  0.402400  0.089500  1
  H  H74  1  0.064800  0.597600  0.910500  1
  H  H75  1  0.893500  0.492700  0.965700  1
  H  H76  1  0.106500  0.507300  0.034300  1
  H  H77  1  0.020400  0.416200  0.947200  1
  H  H78  1  0.979600  0.583800  0.052800  1
  H  H79  1  0.107300  0.338500  0.001400  1
  H  H80  1  0.892700  0.661500  0.998600  1
  H  H81  1  0.659800  0.418200  0.088500  1
  H  H82  1  0.340200  0.581800  0.911500  1
  H  H83  1  0.686700  0.444400  0.131800  1
  H  H84  1  0.313300  0.555600  0.868200  1
  H  H85  1  0.802500  0.413600  0.078300  1
  H  H86  1  0.197500  0.586400  0.921700  1
  H  H87  1  0.808700  0.597400  0.007400  1
  H  H88  1  0.191300  0.402600  0.992600  1
  H  H89  1  0.677700  0.667000  0.022200  1
  H  H90  1  0.322300  0.333000  0.977800  1
  H  H91  1  0.610700  0.608400  0.065200  1
  H  H92  1  0.389300  0.391600  0.934800  1
  H  H93  1  0.513500  0.505900  0.060300  1
  H  H94  1  0.486500  0.494100  0.939700  1
  H  H95  1  0.404400  0.608500  0.095800  1
  H  H96  1  0.595600  0.391500  0.904200  1
  H  H97  1  0.342700  0.701700  0.147800  1
  H  H98  1  0.657300  0.298300  0.852200  1
  H  H99  1  0.284600  0.781200  0.204000  1
  H  H100  1  0.715400  0.218800  0.796000  1
  H  H101  1  0.361500  0.795200  0.258900  1
  H  H102  1  0.638500  0.204800  0.741100  1
  H  H103  1  0.491900  0.707800  0.265700  1
  H  H104  1  0.508100  0.292200  0.734300  1
  H  H105  1  0.952700  0.308100  0.917300  1
  H  H106  1  0.047300  0.691900  0.082700  1
  H  H107  1  0.027000  0.295500  0.854100  1
  H  H108  1  0.973000  0.704500  0.145900  1
  H  H109  1  0.155400  0.207300  0.854400  1
  H  H110  1  0.844600  0.792700  0.145600  1
  H  H111  1  0.209500  0.131800  0.917800  1
  H  H112  1  0.790500  0.868200  0.082200  1
  H  H113  1  0.860100  0.257000  0.059500  1
  H  H114  1  0.139900  0.743000  0.940500  1
  H  H115  1  0.879800  0.294100  0.981600  1
  H  H116  1  0.120200  0.705900  0.018400  1
  H  H117  1  0.956300  0.176600  0.118800  1
  H  H118  1  0.043700  0.823400  0.881200  1
  H  H119  1  0.045200  0.151600  0.107300  1
  H  H120  1  0.954800  0.848400  0.892700  1
  H  H121  1  0.012300  0.047900  0.164600  1
  H  H122  1  0.987700  0.952100  0.835400  1
  H  H123  1  0.028000  0.862200  0.100100  1
  H  H124  1  0.972000  0.137800  0.899900  1
  H  H125  1  0.015700  0.932400  0.033400  1
  H  H126  1  0.984300  0.067600  0.966600  1
  H  H127  1  0.001700  0.060300  0.032300  1
  H  H128  1  0.998300  0.939700  0.967700  1
  H  H129  1  0.187200  0.838500  0.270000  1
  H  H130  1  0.812800  0.161500  0.730000  1
  H  H131  1  0.126400  0.906000  0.296000  1
  H  H132  1  0.873600  0.094000  0.704000  1
  H  H133  1  0.107000  0.926300  0.207600  1
  H  H134  1  0.893000  0.073700  0.792400  1
  H  H135  1  0.931100  0.874500  0.165500  1
  H  H136  1  0.068900  0.125500  0.834500  1
  H  H137  1  0.933900  0.806500  0.232000  1
  H  H138  1  0.066100  0.193500  0.768000  1
  H  H139  1  0.023300  0.798400  0.286300  1
  H  H140  1  0.976700  0.201600  0.713700  1
  H  H141  1  0.251300  0.701400  0.323900  1
  H  H142  1  0.748700  0.298600  0.676100  1
  H  H143  1  0.198500  0.656100  0.391500  1
  H  H144  1  0.801500  0.343900  0.608500  1
  H  H145  1  0.099300  0.655100  0.443900  1
  H  H146  1  0.900700  0.344900  0.556100  1
  H  H147  1  0.007000  0.666600  0.496500  1
  H  H148  1  0.993000  0.333400  0.503500  1
  H  H149  1  0.896200  0.778600  0.498100  1
  H  H150  1  0.103800  0.221400  0.501900  1
  H  H151  1  0.884000  0.883900  0.448600  1
  H  H152  1  0.116000  0.116100  0.551400  1
  H  H153  1  0.427400  0.132700  0.340200  1
  H  H154  1  0.572600  0.867300  0.659800  1
  H  H155  1  0.536200  0.135200  0.375500  1
  H  H156  1  0.463800  0.864800  0.624500  1
  H  H157  1  0.535600  0.246200  0.401400  1
  H  H158  1  0.464400  0.753800  0.598600  1
  H  H159  1  0.426000  0.358200  0.391500  1
  H  H160  1  0.574000  0.641800  0.608500  1
  H  H161  1  0.179700  0.210200  0.267100  1
  H  H162  1  0.820300  0.789800  0.732900  1
  H  H163  1  0.305600  0.143300  0.307600  1
  H  H164  1  0.694400  0.856700  0.692400  1
  H  H165  1  0.105600  0.349100  0.236200  1
  H  H166  1  0.894400  0.650900  0.763800  1
  H  H167  1  0.144600  0.408200  0.245100  1
  H  H168  1  0.855400  0.591800  0.754900  1
  H  H169  1  0.002700  0.496100  0.244200  1
  H  H170  1  0.997300  0.503900  0.755800  1
  H  H171  1  0.893100  0.517500  0.358500  1
  H  H172  1  0.106900  0.482500  0.641500  1
  H  H173  1  0.981500  0.401200  0.385200  1
  H  H174  1  0.018500  0.598800  0.614800  1
  H  H175  1  0.092600  0.333600  0.342300  1
  H  H176  1  0.907400  0.666400  0.657700  1
  H  H177  1  0.654200  0.740900  0.321700  1
  H  H178  1  0.345800  0.259100  0.678300  1
  H  H179  1  0.621700  0.735200  0.274600  1
  H  H180  1  0.378300  0.264800  0.725400  1
  H  H181  1  0.789000  0.580800  0.319700  1
  H  H182  1  0.211000  0.419200  0.680300  1
  H  H183  1  0.940000  0.617800  0.234900  1
  H  H184  1  0.060000  0.382200  0.765100  1
  H  H185  1  0.841900  0.739000  0.212900  1
  H  H186  1  0.158100  0.261000  0.787100  1
  H  H187  1  0.715100  0.765600  0.235900  1
  H  H188  1  0.284900  0.234400  0.764100  1
  H  H189  1  0.624400  0.648300  0.383000  1
  H  H190  1  0.375600  0.351700  0.617000  1
  H  H191  1  0.595000  0.530800  0.380200  1
  H  H192  1  0.405000  0.469200  0.619800  1
  H  H193  1  0.586100  0.420400  0.346900  1
  H  H194  1  0.413900  0.579600  0.653100  1
  H  H195  1  0.557300  0.330800  0.310300  1
  H  H196  1  0.442700  0.669200  0.689700  1
  H  H197  1  0.574900  0.323100  0.235300  1
  H  H198  1  0.425100  0.676900  0.764700  1
  H  H199  1  0.600600  0.420500  0.195200  1
  H  H200  1  0.399400  0.579500  0.804800  1
  H  H201  1  0.812000  0.662300  0.112200  1
  H  H202  1  0.188000  0.337700  0.887800  1
  H  H203  1  0.719400  0.782700  0.093900  1
  H  H204  1  0.280600  0.217300  0.906100  1
  H  H205  1  0.599200  0.828300  0.125500  1
  H  H206  1  0.400800  0.171700  0.874500  1
  H  H207  1  0.568000  0.738700  0.167700  1
  H  H208  1  0.432000  0.261300  0.832300  1
  H  H209  1  0.947500  0.409100  0.187100  1
  H  H210  1  0.052500  0.590900  0.812900  1
  H  H211  1  0.908800  0.543600  0.155000  1
  H  H212  1  0.091200  0.456400  0.845000  1
  H  H213  1  0.867100  0.324000  0.199400  1
  H  H214  1  0.132900  0.676000  0.800600  1
  H  H215  1  0.776800  0.367900  0.189400  1
  H  H216  1  0.223200  0.632100  0.810600  1
  H  H217  1  0.781700  0.263500  0.244100  1
  H  H218  1  0.218300  0.736500  0.755900  1
  H  H219  1  0.759700  0.319900  0.368400  1
  H  H220  1  0.240300  0.680100  0.631600  1
  H  H221  1  0.817200  0.406600  0.354300  1
  H  H222  1  0.182800  0.593400  0.645700  1
  H  H223  1  0.828400  0.443900  0.278800  1
  H  H224  1  0.171600  0.556100  0.721200  1
  H  H225  1  0.725100  0.077200  0.434300  1
  H  H226  1  0.274900  0.922800  0.565700  1
  H  H227  1  0.789800  0.009200  0.409900  1
  H  H228  1  0.210200  0.990800  0.590100  1
  H  H229  1  0.798800  0.188600  0.382400  1
  H  H230  1  0.201200  0.811400  0.617600  1
  H  H231  1  0.697100  0.216000  0.263100  1
  H  H232  1  0.302900  0.784000  0.736900  1
  H  H233  1  0.662000  0.110400  0.282200  1
  H  H234  1  0.338000  0.889600  0.717800  1
  H  H235  1  0.691500  0.050900  0.352300  1
  H  H236  1  0.308500  0.949100  0.647700  1
  H  H237  1  0.788300  0.167600  0.481200  1
  H  H238  1  0.211700  0.832400  0.518800  1
  H  H239  1  0.926500  0.147800  0.493000  1
  H  H240  1  0.073500  0.852200  0.507000  1
  H  H241  1  0.063700  0.089600  0.485400  1
  H  H242  1  0.936300  0.910400  0.514600  1
  H  H243  1  0.196400  0.032000  0.474100  1
  H  H244  1  0.803600  0.968000  0.525900  1
  H  H245  1  0.244900  0.932600  0.426600  1
  H  H246  1  0.755100  0.067400  0.573400  1
  H  H247  1  0.159000  0.901400  0.384300  1
  H  H248  1  0.841000  0.098600  0.615700  1
  H  H249  1  0.804000  0.994400  0.233500  1
  H  H250  1  0.196000  0.005600  0.766500  1
  H  H251  1  0.755000  0.900200  0.250200  1
  H  H252  1  0.245000  0.099800  0.749800  1
  H  H253  1  0.772100  0.840100  0.319500  1
  H  H254  1  0.227900  0.159900  0.680500  1
  H  H255  1  0.872700  0.843400  0.361600  1
  H  H256  1  0.127300  0.156600  0.638400  1
  H  H257  1  0.950100  0.152700  0.234900  1
  H  H258  1  0.049900  0.847300  0.765100  1
  H  H259  1  0.848100  0.099100  0.228200  1
  H  H260  1  0.151900  0.900900  0.771800  1
  H  H261  1  0.081800  0.104400  0.277000  1
  H  H262  1  0.918200  0.895600  0.723000  1
  H  H263  1  0.097800  0.033400  0.311500  1
  H  H264  1  0.902200  0.966600  0.688500  1
  H  H265  1  0.161600  0.106400  0.348700  1
  H  H266  1  0.838400  0.893600  0.651300  1
  H  H267  1  0.033400  0.265100  0.429000  1
  H  H268  1  0.966600  0.734900  0.571000  1
  H  H269  1  0.923800  0.259500  0.401100  1
  H  H270  1  0.076200  0.740500  0.598900  1
  H  H271  1  0.929800  0.175600  0.345000  1
  H  H272  1  0.070200  0.824400  0.655000  1
  H  H273  1  0.245800  0.326500  0.493300  1
  H  H274  1  0.754200  0.673500  0.506700  1
  H  H275  1  0.295300  0.339000  0.452800  1
  H  H276  1  0.704700  0.661000  0.547200  1
  H  H277  1  0.131300  0.304700  0.424500  1
  H  H278  1  0.868700  0.695300  0.575500  1
  H  H279  1  0.250600  0.080300  0.399400  1
  H  H280  1  0.749400  0.919700  0.600600  1
  H  H281  1  0.365400  0.087700  0.424100  1
  H  H282  1  0.634600  0.912300  0.575900  1
  H  H283  1  0.358200  0.201700  0.453600  1
  H  H284  1  0.641800  0.798300  0.546400  1
  H  H285  1  0.097500  0.418800  0.493800  1
  H  H286  1  0.902500  0.581200  0.506200  1
  H  H287  1  0.013600  0.528000  0.444200  1
  H  H288  1  0.986400  0.472000  0.555800  1
  H  H289  1  0.985700  0.623200  0.382600  1
  H  H290  1  0.014300  0.376800  0.617400  1
  H  H291  1  0.957600  0.699100  0.317300  1
  H  H292  1  0.042400  0.300900  0.682700  1
  H  H293  1  0.049500  0.670900  0.261900  1
  H  H294  1  0.950500  0.329100  0.738100  1
  H  H295  1  0.162700  0.559300  0.268800  1
  H  H296  1  0.837300  0.440700  0.731200  1
  H  H297  1  0.290500  0.516800  0.562700  1
  H  H298  1  0.709500  0.483200  0.437300  1
  H  H299  1  0.281900  0.447400  0.539300  1
  H  H300  1  0.718100  0.552600  0.460700  1
  H  H301  1  0.239000  0.474400  0.584500  1
  H  H302  1  0.761000  0.525600  0.415500  1
  H  H303  1  0.238400  0.499200  0.065800  1
  H  H304  1  0.761600  0.500800  0.934200  1
  H  H305  1  0.319200  0.503800  0.053000  1
  H  H306  1  0.680800  0.496200  0.947000  1
  H  H307  1  0.241000  0.563500  0.030500  1
  H  H308  1  0.759000  0.436500  0.969500  1
  H  H309  1  0.654000  0.862700  0.374500  1
  H  H310  1  0.346000  0.137300  0.625500  1
  H  H311  1  0.586800  0.865500  0.407800  1
  H  H312  1  0.413200  0.134500  0.592200  1
  H  H313  1  0.636600  0.915500  0.415400  1
  H  H314  1  0.363400  0.084500  0.584600  1
  H  H315  1  0.507600  0.996400  0.218300  1
  H  H316  1  0.492400  0.003600  0.781700  1
  H  H317  1  0.469900  0.014300  0.265600  1
  H  H318  1  0.530100  0.985700  0.734400  1
  H  H319  1  0.426600  0.990000  0.228400  1
  H  H320  1  0.573400  0.010000  0.771600  1
  H  H321  1  0.658600  0.829300  0.464600  1
  H  H322  1  0.341400  0.170700  0.535400  1
  H  H323  1  0.621500  0.871400  0.418800  1
  H  H324  1  0.378500  0.128600  0.581200  1
  H  H325  1  0.602600  0.918100  0.462200  1
  H  H326  1  0.397400  0.081900  0.537800  1
  C  C327  1  0.203700  0.935200  0.035000  1
  C  C328  1  0.796300  0.064800  0.965000  1
  C  C329  1  0.220100  0.861000  0.022400  1
  C  C330  1  0.779900  0.139000  0.977600  1
  C  C331  1  0.215000  0.848400  0.979200  1
  C  C332  1  0.785000  0.151600  0.020800  1
  C  C333  1  0.193100  0.907700  0.948200  1
  C  C334  1  0.806900  0.092300  0.051800  1
  C  C335  1  0.176000  0.982300  0.961000  1
  C  C336  1  0.824000  0.017700  0.039000  1
  C  C337  1  0.240000  0.951600  0.149500  1
  C  C338  1  0.760000  0.048400  0.850500  1
  C  C339  1  0.232300  0.906800  0.117300  1
  C  C340  1  0.767700  0.093200  0.882700  1
  C  C341  1  0.214300  0.950900  0.078400  1
  C  C342  1  0.785700  0.049100  0.921600  1
  C  C343  1  0.220300  0.092700  0.148900  1
  C  C344  1  0.779700  0.907300  0.851100  1
  C  C345  1  0.301400  0.092900  0.146200  1
  C  C346  1  0.698600  0.907100  0.853800  1
  C  C347  1  0.313100  0.148700  0.168900  1
  C  C348  1  0.686900  0.851300  0.831100  1
  C  C349  1  0.385000  0.151600  0.170100  1
  C  C350  1  0.615000  0.848400  0.829900  1
  C  C351  1  0.443200  0.103600  0.144300  1
  C  C352  1  0.556800  0.896400  0.855700  1
  C  C353  1  0.431500  0.048000  0.120600  1
  C  C354  1  0.568500  0.952000  0.879400  1
  C  C355  1  0.360100  0.041800  0.122800  1
  C  C356  1  0.639900  0.958200  0.877200  1
  C  C357  1  0.304700  0.421500  0.215100  1
  C  C358  1  0.695300  0.578500  0.784900  1
  C  C359  1  0.363000  0.337000  0.218500  1
  C  C360  1  0.637000  0.663000  0.781500  1
  C  C361  1  0.347400  0.284800  0.194500  1
  C  C362  1  0.652600  0.715200  0.805500  1
  C  C363  1  0.399200  0.209600  0.195400  1
  C  C364  1  0.600800  0.790400  0.804600  1
  C  C365  1  0.464000  0.185400  0.221900  1
  C  C366  1  0.536000  0.814600  0.778100  1
  C  C367  1  0.478700  0.235600  0.247900  1
  C  C368  1  0.521300  0.764400  0.752100  1
  C  C369  1  0.427700  0.311700  0.245500  1
  C  C370  1  0.572300  0.688300  0.754500  1
  C  C371  1  0.374000  0.510400  0.224300  1
  C  C372  1  0.626000  0.489600  0.775700  1
  C  C373  1  0.389300  0.543700  0.259300  1
  C  C374  1  0.610700  0.456300  0.740700  1
  C  C375  1  0.355800  0.521800  0.296000  1
  C  C376  1  0.644200  0.478200  0.704000  1
  C  C377  1  0.355400  0.539000  0.340100  1
  C  C378  1  0.644600  0.461000  0.659900  1
  C  C379  1  0.392800  0.584600  0.354100  1
  C  C380  1  0.607200  0.415400  0.645900  1
  C  C381  1  0.393500  0.594000  0.398000  1
  C  C382  1  0.606500  0.406000  0.602000  1
  C  C383  1  0.360700  0.558300  0.427600  1
  C  C384  1  0.639300  0.441700  0.572400  1
  C  C385  1  0.320200  0.516500  0.412000  1
  C  C386  1  0.679800  0.483500  0.588000  1
  C  C387  1  0.317200  0.153700  0.019000  1
  C  C388  1  0.682800  0.846300  0.981000  1
  C  C389  1  0.392100  0.146100  0.007800  1
  C  C390  1  0.607900  0.853900  0.992200  1
  C  C391  1  0.433300  0.090000  0.980500  1
  C  C392  1  0.566700  0.910000  0.019500  1
  C  C393  1  0.405600  0.038600  0.966800  1
  C  C394  1  0.594400  0.961400  0.033200  1
  C  C395  1  0.333000  0.043100  0.982400  1
  C  C396  1  0.667000  0.956900  0.017600  1
  C  C397  1  0.216800  0.314900  0.083100  1
  C  C398  1  0.783200  0.685100  0.916900  1
  C  C399  1  0.283400  0.270500  0.062700  1
  C  C400  1  0.716600  0.729500  0.937300  1
  C  C401  1  0.269200  0.211600  0.044100  1
  C  C402  1  0.730800  0.788400  0.955900  1
  C  C403  1  0.083400  0.311100  0.085800  1
  C  C404  1  0.916600  0.688900  0.914200  1
  C  C405  1  0.028400  0.363500  0.050200  1
  C  C406  1  0.971600  0.636500  0.949800  1
  C  C407  1  0.952100  0.406200  0.060500  1
  C  C408  1  0.047900  0.593800  0.939500  1
  C  C409  1  0.899800  0.454300  0.029600  1
  C  C410  1  0.100200  0.545700  0.970400  1
  C  C411  1  0.927200  0.458800  0.987400  1
  C  C412  1  0.072800  0.541200  0.012600  1
  C  C413  1  0.003500  0.414300  0.976400  1
  C  C414  1  0.996500  0.585700  0.023600  1
  C  C415  1  0.054900  0.367400  0.008400  1
  C  C416  1  0.945100  0.632600  0.991600  1
  C  C417  1  0.658500  0.463200  0.103700  1
  C  C418  1  0.341500  0.536800  0.896300  1
  C  C419  1  0.700300  0.505200  0.075400  1
  C  C420  1  0.299700  0.494800  0.924600  1
  C  C421  1  0.777200  0.464700  0.066500  1
  C  C422  1  0.222800  0.535300  0.933500  1
  C  C423  1  0.817800  0.498100  0.040700  1
  C  C424  1  0.182200  0.501900  0.959300  1
  C  C425  1  0.780800  0.573900  0.024600  1
  C  C426  1  0.219200  0.426100  0.975400  1
  C  C427  1  0.703000  0.615600  0.033500  1
  C  C428  1  0.297000  0.384400  0.966500  1
  C  C429  1  0.663600  0.580600  0.058900  1
  C  C430  1  0.336400  0.419400  0.941100  1
  C  C431  1  0.516600  0.528200  0.086800  1
  C  C432  1  0.483400  0.471800  0.913200  1
  C  C433  1  0.456000  0.584400  0.106300  1
  C  C434  1  0.544000  0.415600  0.893700  1
  C  C435  1  0.485700  0.598900  0.144700  1
  C  C436  1  0.514300  0.401100  0.855300  1
  C  C437  1  0.449200  0.653200  0.175900  1
  C  C438  1  0.550800  0.346800  0.824100  1
  C  C439  1  0.372300  0.702200  0.172500  1
  C  C440  1  0.627700  0.297800  0.827500  1
  C  C441  1  0.338600  0.751400  0.204800  1
  C  C442  1  0.661400  0.248600  0.795200  1
  C  C443  1  0.383100  0.757400  0.238200  1
  C  C444  1  0.616900  0.242600  0.761800  1
  C  C445  1  0.461500  0.706700  0.241500  1
  C  C446  1  0.538500  0.293300  0.758500  1
  C  C447  1  0.037000  0.227400  0.955100  1
  C  C448  1  0.963000  0.772600  0.044900  1
  C  C449  1  0.004900  0.272300  0.917400  1
  C  C450  1  0.995100  0.727700  0.082600  1
  C  C451  1  0.049000  0.264800  0.879900  1
  C  C452  1  0.951000  0.735200  0.120100  1
  C  C453  1  0.125200  0.212400  0.880000  1
  C  C454  1  0.874800  0.787600  0.120000  1
  C  C455  1  0.157400  0.167600  0.917700  1
  C  C456  1  0.842600  0.832400  0.082300  1
  C  C457  1  0.907800  0.240000  0.044400  1
  C  C458  1  0.092200  0.760000  0.955600  1
  C  C459  1  0.918400  0.260800  0.001300  1
  C  C460  1  0.081600  0.739200  0.998700  1
  C  C461  1  0.997300  0.222900  0.992900  1
  C  C462  1  0.002700  0.777100  0.007100  1
  C  C463  1  0.996000  0.150600  0.097100  1
  C  C464  1  0.004000  0.849400  0.902900  1
  C  C465  1  0.005700  0.066200  0.098400  1
  C  C466  1  0.994300  0.933800  0.901600  1
  C  C467  1  0.013000  0.024500  0.138000  1
  C  C468  1  0.987000  0.975500  0.862000  1
  C  C469  1  0.021300  0.948400  0.138700  1
  C  C470  1  0.978700  0.051600  0.861300  1
  C  C471  1  0.022300  0.914100  0.099700  1
  C  C472  1  0.977700  0.085900  0.900300  1
  C  C473  1  0.015000  0.955800  0.060100  1
  C  C474  1  0.985000  0.044200  0.939900  1
  C  C475  1  0.006700  0.031800  0.059400  1
  C  C476  1  0.993300  0.968200  0.940600  1
  C  C477  1  0.137700  0.854200  0.285800  1
  C  C478  1  0.862300  0.145800  0.714200  1
  C  C479  1  0.073600  0.861500  0.252000  1
  C  C480  1  0.926400  0.138500  0.748000  1
  C  C481  1  0.071900  0.901900  0.212500  1
  C  C482  1  0.928100  0.098100  0.787500  1
  C  C483  1  0.018800  0.906800  0.180300  1
  C  C484  1  0.981200  0.093200  0.819700  1
  C  C485  1  0.967400  0.871200  0.187500  1
  C  C486  1  0.032600  0.128800  0.812500  1
  C  C487  1  0.969000  0.830800  0.227000  1
  C  C488  1  0.031000  0.169200  0.773000  1
  C  C489  1  0.022100  0.826000  0.259300  1
  C  C490  1  0.977900  0.174000  0.740700  1
  C  C491  1  0.203700  0.729100  0.337600  1
  C  C492  1  0.796300  0.270900  0.662400  1
  C  C493  1  0.174100  0.703700  0.375500  1
  C  C494  1  0.825900  0.296300  0.624500  1
  C  C495  1  0.101800  0.762100  0.385200  1
  C  C496  1  0.898200  0.237900  0.614800  1
  C  C497  1  0.048700  0.764700  0.418000  1
  C  C498  1  0.951300  0.235300  0.582000  1
  C  C499  1  0.055900  0.702100  0.445900  1
  C  C500  1  0.944100  0.297900  0.554100  1
  C  C501  1  0.000600  0.708400  0.476200  1
  C  C502  1  0.999400  0.291600  0.523800  1
  C  C503  1  0.935700  0.774600  0.477600  1
  C  C504  1  0.064300  0.225400  0.522400  1
  C  C505  1  0.928300  0.837400  0.447800  1
  C  C506  1  0.071700  0.162600  0.552200  1
  C  C507  1  0.364500  0.248300  0.341800  1
  C  C508  1  0.635500  0.751700  0.658200  1
  C  C509  1  0.427700  0.179400  0.349500  1
  C  C510  1  0.572300  0.820600  0.650500  1
  C  C511  1  0.491600  0.181200  0.371300  1
  C  C512  1  0.508400  0.818800  0.628700  1
  C  C513  1  0.491800  0.246100  0.386500  1
  C  C514  1  0.508200  0.753900  0.613500  1
  C  C515  1  0.426700  0.312700  0.379900  1
  C  C516  1  0.573300  0.687300  0.620100  1
  C  C517  1  0.208900  0.234000  0.280700  1
  C  C518  1  0.791100  0.766000  0.719300  1
  C  C519  1  0.278100  0.197000  0.302700  1
  C  C520  1  0.721900  0.803000  0.697300  1
  C  C521  1  0.298600  0.254200  0.316000  1
  C  C522  1  0.701400  0.745800  0.684000  1
  C  C523  1  0.125800  0.370700  0.259300  1
  C  C524  1  0.874200  0.629300  0.740700  1
  C  C525  1  0.061300  0.411300  0.290100  1
  C  C526  1  0.938700  0.588700  0.709900  1
  C  C527  1  0.000400  0.477300  0.273400  1
  C  C528  1  0.999600  0.522700  0.726600  1
  C  C529  1  0.936600  0.515600  0.298800  1
  C  C530  1  0.063400  0.484400  0.701200  1
  C  C531  1  0.934100  0.488400  0.340300  1
  C  C532  1  0.065900  0.511600  0.659700  1
  C  C533  1  0.987800  0.421100  0.357000  1
  C  C534  1  0.012200  0.578900  0.643000  1
  C  C535  1  0.054200  0.380600  0.331300  1
  C  C536  1  0.945800  0.619400  0.668700  1
  C  C537  1  0.658400  0.705700  0.298200  1
  C  C538  1  0.341600  0.294300  0.701800  1
  C  C539  1  0.741500  0.676100  0.280000  1
  C  C540  1  0.258500  0.323900  0.720000  1
  C  C541  1  0.799500  0.611100  0.296800  1
  C  C542  1  0.200500  0.388900  0.703200  1
  C  C543  1  0.874200  0.589300  0.280200  1
  C  C544  1  0.125800  0.410700  0.719800  1
  C  C545  1  0.890000  0.634000  0.247400  1
  C  C546  1  0.110000  0.366000  0.752600  1
  C  C547  1  0.830800  0.704400  0.232700  1
  C  C548  1  0.169200  0.295600  0.767300  1
  C  C549  1  0.756400  0.721600  0.247900  1
  C  C550  1  0.243600  0.278400  0.752100  1
  C  C551  1  0.623100  0.622700  0.357500  1
  C  C552  1  0.376900  0.377300  0.642500  1
  C  C553  1  0.607100  0.557800  0.356200  1
  C  C554  1  0.392900  0.442200  0.643800  1
  C  C555  1  0.612500  0.540000  0.312100  1
  C  C556  1  0.387500  0.460000  0.687900  1
  C  C557  1  0.599000  0.480800  0.291900  1
  C  C558  1  0.401000  0.519200  0.708100  1
  C  C559  1  0.585800  0.422100  0.315800  1
  C  C560  1  0.414200  0.577900  0.684200  1
  C  C561  1  0.572400  0.366800  0.294200  1
  C  C562  1  0.427600  0.633200  0.705800  1
  C  C563  1  0.580700  0.363300  0.249900  1
  C  C564  1  0.419300  0.636700  0.750100  1
  C  C565  1  0.597700  0.420100  0.226200  1
  C  C566  1  0.402300  0.579900  0.773800  1
  C  C567  1  0.743700  0.630400  0.156100  1
  C  C568  1  0.256300  0.369600  0.843900  1
  C  C569  1  0.762400  0.678700  0.125200  1
  C  C570  1  0.237600  0.321300  0.874800  1
  C  C571  1  0.706500  0.750400  0.114500  1
  C  C572  1  0.293500  0.249600  0.885500  1
  C  C573  1  0.635400  0.777200  0.131100  1
  C  C574  1  0.364600  0.222800  0.868900  1
  C  C575  1  0.619400  0.723500  0.157400  1
  C  C576  1  0.380600  0.276500  0.842600  1
  C  C577  1  0.896400  0.446600  0.183800  1
  C  C578  1  0.103600  0.553400  0.816200  1
  C  C579  1  0.875200  0.520700  0.166600  1
  C  C580  1  0.124800  0.479300  0.833400  1
  C  C581  1  0.797400  0.554600  0.169300  1
  C  C582  1  0.202600  0.445400  0.830700  1
  C  C583  1  0.820200  0.368600  0.207000  1
  C  C584  1  0.179800  0.631400  0.793000  1
  C  C585  1  0.803200  0.359200  0.254900  1
  C  C586  1  0.196800  0.640800  0.745100  1
  C  C587  1  0.784500  0.295800  0.266000  1
  C  C588  1  0.215500  0.704200  0.734000  1
  C  C589  1  0.770000  0.280800  0.309400  1
  C  C590  1  0.230000  0.719200  0.690600  1
  C  C591  1  0.776100  0.326500  0.339500  1
  C  C592  1  0.223900  0.673500  0.660500  1
  C  C593  1  0.804500  0.382100  0.331200  1
  C  C594  1  0.195500  0.617900  0.668800  1
  C  C595  1  0.814400  0.401900  0.286400  1
  C  C596  1  0.185600  0.598100  0.713600  1
  C  C597  1  0.771500  0.064100  0.415700  1
  C  C598  1  0.228500  0.935900  0.584300  1
  C  C599  1  0.750000  0.112600  0.372200  1
  C  C600  1  0.250000  0.887400  0.627800  1
  C  C601  1  0.770200  0.173700  0.362200  1
  C  C602  1  0.229800  0.826300  0.637800  1
  C  C603  1  0.747500  0.213400  0.321600  1
  C  C604  1  0.252500  0.786600  0.678400  1
  C  C605  1  0.709400  0.190300  0.291200  1
  C  C606  1  0.290600  0.809700  0.708800  1
  C  C607  1  0.688600  0.127300  0.302500  1
  C  C608  1  0.311400  0.872700  0.697500  1
  C  C609  1  0.707800  0.091000  0.343700  1
  C  C610  1  0.292200  0.909000  0.656300  1
  C  C611  1  0.832300  0.131000  0.468100  1
  C  C612  1  0.167700  0.869000  0.531900  1
  C  C613  1  0.908200  0.120300  0.474300  1
  C  C614  1  0.091800  0.879700  0.525700  1
  C  C615  1  0.954000  0.061400  0.447900  1
  C  C616  1  0.046000  0.938600  0.552100  1
  C  C617  1  0.033700  0.028700  0.441500  1
  C  C618  1  0.966300  0.971300  0.558500  1
  C  C619  1  0.083700  0.050800  0.465100  1
  C  C620  1  0.916300  0.949200  0.534900  1
  C  C621  1  0.162200  0.016300  0.458700  1
  C  C622  1  0.837800  0.983700  0.541300  1
  C  C623  1  0.190700  0.958900  0.429800  1
  C  C624  1  0.809300  0.041100  0.570200  1
  C  C625  1  0.139600  0.939300  0.405200  1
  C  C626  1  0.860400  0.060700  0.594800  1
  C  C627  1  0.869100  0.973300  0.289500  1
  C  C628  1  0.130900  0.026700  0.710500  1
  C  C629  1  0.817600  0.964300  0.260200  1
  C  C630  1  0.182400  0.035700  0.739800  1
  C  C631  1  0.786500  0.909800  0.271100  1
  C  C632  1  0.213500  0.090200  0.728900  1
  C  C633  1  0.799900  0.870500  0.310300  1
  C  C634  1  0.200100  0.129500  0.689700  1
  C  C635  1  0.856200  0.877000  0.336200  1
  C  C636  1  0.143800  0.123000  0.663800  1
  C  C637  1  0.944200  0.113500  0.253400  1
  C  C638  1  0.055800  0.886500  0.746600  1
  C  C639  1  0.889000  0.083800  0.249000  1
  C  C640  1  0.111000  0.916200  0.751000  1
  C  C641  1  0.906600  0.026600  0.282000  1
  C  C642  1  0.093400  0.973400  0.718000  1
  C  C643  1  0.059700  0.084900  0.302100  1
  C  C644  1  0.940300  0.915100  0.697900  1
  C  C645  1  0.046300  0.137400  0.339000  1
  C  C646  1  0.953700  0.862600  0.661000  1
  C  C647  1  0.112100  0.140000  0.357900  1
  C  C648  1  0.887900  0.860000  0.642100  1
  C  C649  1  0.107200  0.190400  0.389800  1
  C  C650  1  0.892800  0.809600  0.610200  1
  C  C651  1  0.037300  0.232500  0.405900  1
  C  C652  1  0.962700  0.767500  0.594100  1
  C  C653  1  0.972500  0.228500  0.389600  1
  C  C654  1  0.027500  0.771500  0.610400  1
  C  C655  1  0.975400  0.179300  0.355600  1
  C  C656  1  0.024600  0.820700  0.644400  1
  C  C657  1  0.246800  0.333100  0.461000  1
  C  C658  1  0.753200  0.666900  0.539000  1
  C  C659  1  0.245000  0.261400  0.440600  1
  C  C660  1  0.755000  0.738600  0.559400  1
  C  C661  1  0.178300  0.260600  0.424600  1
  C  C662  1  0.821700  0.739400  0.575400  1
  C  C663  1  0.181700  0.191100  0.407900  1
  C  C664  1  0.818300  0.808900  0.592100  1
  C  C665  1  0.249700  0.127200  0.409200  1
  C  C666  1  0.750300  0.872800  0.590800  1
  C  C667  1  0.317600  0.130700  0.424800  1
  C  C668  1  0.682400  0.869300  0.575200  1
  C  C669  1  0.313300  0.198800  0.441500  1
  C  C670  1  0.686700  0.801200  0.558500  1
  C  C671  1  0.111900  0.434200  0.466200  1
  C  C672  1  0.888100  0.565800  0.533800  1
  C  C673  1  0.065400  0.494500  0.438900  1
  C  C674  1  0.934600  0.505500  0.561100  1
  C  C675  1  0.109000  0.497100  0.402000  1
  C  C676  1  0.891000  0.502900  0.598000  1
  C  C677  1  0.090600  0.546700  0.363700  1
  C  C678  1  0.909400  0.453300  0.636300  1
  C  C679  1  0.021600  0.610700  0.359300  1
  C  C680  1  0.978400  0.389300  0.640700  1
  C  C681  1  0.005200  0.656200  0.320900  1
  C  C682  1  0.994800  0.343800  0.679100  1
  C  C683  1  0.058900  0.638400  0.287800  1
  C  C684  1  0.941100  0.361600  0.712200  1
  C  C685  1  0.127200  0.572600  0.292300  1
  C  C686  1  0.872800  0.427400  0.707700  1
  C  C687  1  0.255300  0.491600  0.556800  1
  C  C688  1  0.744700  0.508400  0.443200  1
  C  C689  1  0.264000  0.533800  0.057500  1
  C  C690  1  0.736000  0.466200  0.942500  1
  C  C691  1  0.613000  0.896000  0.393300  1
  C  C692  1  0.387000  0.104000  0.606700  1
  C  C693  1  0.477000  0.982200  0.240700  1
  C  C694  1  0.523000  0.017800  0.759300  1
  C  C695  1  0.642000  0.878000  0.446800  1
  C  C696  1  0.358000  0.122000  0.553200  1
  N  N697  1  0.181900  0.993900  0.004000  1
  N  N698  1  0.818100  0.006100  0.996000  1
  N  N699  1  0.203500  0.024500  0.086800  1
  N  N700  1  0.796500  0.975500  0.913200  1
  N  N701  1  0.220400  0.024200  0.129800  1
  N  N702  1  0.779600  0.975800  0.870200  1
  N  N703  1  0.317500  0.476700  0.283000  1
  N  N704  1  0.682500  0.523300  0.717000  1
  N  N705  1  0.330300  0.470000  0.239200  1
  N  N706  1  0.669700  0.530000  0.760800  1
  N  N707  1  0.318500  0.507600  0.368800  1
  N  N708  1  0.681500  0.492400  0.631200  1
  N  N709  1  0.289100  0.102300  0.006500  1
  N  N710  1  0.710900  0.897700  0.993500  1
  N  N711  1  0.193200  0.221500  0.053000  1
  N  N712  1  0.806800  0.778500  0.947000  1
  N  N713  1  0.161000  0.285900  0.075300  1
  N  N714  1  0.839000  0.714100  0.924700  1
  N  N715  1  0.564200  0.557600  0.146100  1
  N  N716  1  0.435800  0.442400  0.853900  1
  N  N717  1  0.582800  0.509500  0.112000  1
  N  N718  1  0.417200  0.490500  0.888000  1
  N  N719  1  0.493200  0.656600  0.210000  1
  N  N720  1  0.506800  0.343400  0.790000  1
  N  N721  1  0.113300  0.175100  0.955300  1
  N  N722  1  0.886700  0.824900  0.044700  1
  N  N723  1  0.033100  0.181300  0.030500  1
  N  N724  1  0.966900  0.818700  0.969500  1
  N  N725  1  0.977600  0.190900  0.061200  1
  N  N726  1  0.022400  0.809100  0.938800  1
  N  N727  1  0.086600  0.823500  0.353300  1
  N  N728  1  0.913400  0.176500  0.646700  1
  N  N729  1  0.149700  0.803100  0.323900  1
  N  N730  1  0.850300  0.196900  0.676100  1
  N  N731  1  0.983900  0.830600  0.418900  1
  N  N732  1  0.016100  0.169400  0.581100  1
  N  N733  1  0.362500  0.316100  0.357200  1
  N  N734  1  0.637500  0.683900  0.642800  1
  N  N735  1  0.245200  0.323100  0.303300  1
  N  N736  1  0.754800  0.676900  0.696700  1
  N  N737  1  0.190200  0.309200  0.281800  1
  N  N738  1  0.809800  0.690800  0.718200  1
  N  N739  1  0.630900  0.593500  0.287200  1
  N  N740  1  0.369100  0.406500  0.712800  1
  N  N741  1  0.636900  0.644100  0.315600  1
  N  N742  1  0.363100  0.355900  0.684400  1
  N  N743  1  0.610100  0.474700  0.248000  1
  N  N744  1  0.389900  0.525300  0.752000  1
  N  N745  1  0.668800  0.652000  0.170000  1
  N  N746  1  0.331200  0.348000  0.830000  1
  N  N747  1  0.769700  0.502700  0.185900  1
  N  N748  1  0.230300  0.497300  0.814100  1
  N  N749  1  0.831900  0.437500  0.194800  1
  N  N750  1  0.168100  0.562500  0.805200  1
  N  N751  1  0.905300  0.036900  0.425600  1
  N  N752  1  0.094700  0.963100  0.574400  1
  N  N753  1  0.832600  0.078000  0.439200  1
  N  N754  1  0.167400  0.922000  0.560800  1
  N  N755  1  0.062600  0.974600  0.411400  1
  N  N756  1  0.937400  0.025400  0.588600  1
  N  N757  1  0.889600  0.927900  0.328100  1
  N  N758  1  0.110400  0.072100  0.671900  1
  N  N759  1  0.970200  0.020100  0.305200  1
  N  N760  1  0.029800  0.979900  0.694800  1
  N  N761  1  0.987800  0.078300  0.287800  1
  N  N762  1  0.012200  0.921700  0.712200  1
  N  N763  1  0.180300  0.438100  0.406900  1
  N  N764  1  0.819700  0.561900  0.593100  1
  N  N765  1  0.182900  0.400000  0.446600  1
  N  N766  1  0.817100  0.600000  0.553400  1
  N  N767  1  0.143700  0.527100  0.330000  1
  N  N768  1  0.856300  0.472900  0.670000  1
  N  N769  1  0.187200  0.544900  0.532000  1
  N  N770  1  0.812800  0.455100  0.468000  1
  N  N771  1  0.250300  0.588100  0.091800  1
  N  N772  1  0.749700  0.411900  0.908200  1
  N  N773  1  0.557200  0.962900  0.368600  1
  N  N774  1  0.442800  0.037100  0.631400  1
  N  N775  1  0.516200  0.901300  0.255600  1
  N  N776  1  0.483800  0.098700  0.744400  1
  N  N777  1  0.707700  0.900400  0.439600  1
  N  N778  1  0.292300  0.099600  0.560400  1
  Cl  Cl779  1  0.048400  0.234500  0.198440  1
  Cl  Cl780  1  0.951600  0.765500  0.801560  1
  Cl  Cl781  1  0.810500  0.693100  0.413130  1
  Cl  Cl782  1  0.189500  0.306900  0.586870  1
  Cl  Cl783  1  0.729100  0.252200  0.136200  1
  Cl  Cl784  1  0.270900  0.747800  0.863800  1
  Cl  Cl785  1  0.545200  0.698600  0.477100  1
  Cl  Cl786  1  0.454800  0.301400  0.522900  1
  Cl  Cl787  1  0.348000  0.654500  0.001200  1
  Cl  Cl788  1  0.652000  0.345500  0.998800  1
  Cl  Cl789  1  0.432800  0.819900  0.079700  1
  Cl  Cl790  1  0.567200  0.180100  0.920300  1
  Cl  Cl791  1  0.757100  0.232100  0.147500  1
  Cl  Cl792  1  0.242900  0.767900  0.852500  1
  Cl  Cl793  1  0.619300  0.362000  0.448400  1.0
  Cl  Cl794  1  0.380700  0.638000  0.551600  1.0
  Cl  Cl795  1  0.274700  0.969800  0.284470  1.0
  Cl  Cl796  1  0.725300  0.030200  0.715530  1.0
  Cl  Cl797  1  0.101200  0.512200  0.154110  1.0
  Cl  Cl798  1  0.898800  0.487800  0.845890  1.0
  Cl  Cl799  1  0.299000  0.051600  0.843200  1.0
  Cl  Cl800  1  0.701000  0.948400  0.156800  1.0
  Cl  Cl801  1  0.582800  0.068200  0.494000  1.0
  Cl  Cl802  1  0.417200  0.931800  0.506000  1.0
  O  O803  1  0.114100  0.250600  0.185600  1
  O  O804  1  0.885900  0.749400  0.814400  1
  O  O805  1  0.989400  0.269300  0.165600  1
  O  O806  1  0.010600  0.730700  0.834400  1
  O  O807  1  0.069000  0.153600  0.201200  1
  O  O808  1  0.931000  0.846400  0.798800  1
  O  O809  1  0.019500  0.266800  0.239600  1
  O  O810  1  0.980500  0.733200  0.760400  1
  O  O811  1  0.864100  0.620400  0.429300  1
  O  O812  1  0.135900  0.379600  0.570700  1
  O  O813  1  0.744600  0.686900  0.393900  1
  O  O814  1  0.255400  0.313100  0.606100  1
  O  O815  1  0.846800  0.726800  0.381400  1
  O  O816  1  0.153200  0.273200  0.618600  1
  O  O817  1  0.785900  0.741500  0.449300  1
  O  O818  1  0.214100  0.258500  0.550700  1
  O  O819  1  0.601000  0.353000  0.493200  1
  O  O820  1  0.399000  0.647000  0.506800  1
  O  O821  1  0.673000  0.291300  0.434100  1
  O  O822  1  0.327000  0.708700  0.565900  1
  O  O823  1  0.649000  0.421000  0.443400  1
  O  O824  1  0.351000  0.579000  0.556600  1
  O  O825  1  0.549700  0.386000  0.422500  1
  O  O826  1  0.450300  0.614000  0.577500  1
  O  O827  1  0.353500  0.917000  0.282400  1
  O  O828  1  0.646500  0.083000  0.717600  1
  O  O829  1  0.244500  0.964300  0.326900  1
  O  O830  1  0.755500  0.035700  0.673100  1
  O  O831  1  0.269100  0.045700  0.274600  1
  O  O832  1  0.730900  0.954300  0.725400  1
  O  O833  1  0.230900  0.949800  0.252900  1
  O  O834  1  0.769100  0.050200  0.747100  1
  O  O835  1  0.122100  0.530800  0.195300  1
  O  O836  1  0.877900  0.469200  0.804700  1
  O  O837  1  0.163600  0.495600  0.124600  1
  O  O838  1  0.836400  0.504400  0.875400  1
  O  O839  1  0.082800  0.445000  0.161600  1
  O  O840  1  0.917200  0.555000  0.838400  1
  O  O841  1  0.033300  0.573600  0.137400  1
  O  O842  1  0.966700  0.426400  0.862600  1
  O  O843  1  0.788600  0.190400  0.159900  1
  O  O844  1  0.211400  0.809600  0.840100  1
  O  O845  1  0.675300  0.300200  0.166100  1
  O  O846  1  0.324700  0.699800  0.833900  1
  O  O847  1  0.762700  0.295400  0.110200  1
  O  O848  1  0.237300  0.704600  0.889800  1
  O  O849  1  0.689700  0.219400  0.109200  1
  O  O850  1  0.310300  0.780600  0.890800  1
  O  O851  1  0.582200  0.743200  0.456300  1
  O  O852  1  0.417800  0.256800  0.543700  1
  O  O853  1  0.599300  0.638000  0.504900  1
  O  O854  1  0.400700  0.362000  0.495100  1
  O  O855  1  0.519200  0.661100  0.445000  1
  O  O856  1  0.480800  0.338900  0.555000  1
  O  O857  1  0.481600  0.744200  0.501900  1
  O  O858  1  0.518400  0.255800  0.498100  1
  O  O859  1  0.312000  0.058000  0.888600  1
  O  O860  1  0.688000  0.942000  0.111400  1
  O  O861  1  0.302000  0.976500  0.837100  1
  O  O862  1  0.698000  0.023500  0.162900  1
  O  O863  1  0.356000  0.066000  0.817800  1
  O  O864  1  0.644000  0.934000  0.182200  1
  O  O865  1  0.223700  0.107000  0.831300  1
  O  O866  1  0.776300  0.893000  0.168700  1
  O  O867  1  0.599000  0.998800  0.471700  1
  O  O868  1  0.401000  0.001200  0.528300  1
  O  O869  1  0.576000  0.128400  0.462200  1
  O  O870  1  0.424000  0.871600  0.537800  1
  O  O871  1  0.646100  0.056000  0.522700  1
  O  O872  1  0.353900  0.944000  0.477300  1
  O  O873  1  0.514000  0.085000  0.517900  1
  O  O874  1  0.486000  0.915000  0.482100  1
  O  O875  1  0.387400  0.695300  0.978100  1
  O  O876  1  0.612600  0.304700  0.021900  1
  O  O877  1  0.330300  0.681900  0.044100  1
  O  O878  1  0.669700  0.318100  0.955900  1
  O  O879  1  0.395100  0.574600  0.004300  1
  O  O880  1  0.604900  0.425400  0.995700  1
  O  O881  1  0.277400  0.666200  0.979300  1
  O  O882  1  0.722600  0.333800  0.020700  1
  O  O883  1  0.380100  0.781800  0.082800  1
  O  O884  1  0.619900  0.218200  0.917200  1
  O  O885  1  0.502800  0.768900  0.061000  1
  O  O886  1  0.497200  0.231100  0.939000  1
  O  O887  1  0.400200  0.888500  0.053100  1
  O  O888  1  0.599800  0.111500  0.946900  1
  O  O889  1  0.448200  0.835800  0.122500  1
  O  O890  1  0.551800  0.164200  0.877500  1
  O  O891  1  0.193400  0.551000  0.492500  1
  O  O892  1  0.806600  0.449000  0.507500  1
  O  O893  1  0.124800  0.580800  0.547400  1
  O  O894  1  0.875200  0.419200  0.452600  1
  O  O895  1  0.197000  0.649700  0.087800  1
  O  O896  1  0.803000  0.350300  0.912200  1
  O  O897  1  0.288100  0.577300  0.125200  1
  O  O898  1  0.711900  0.422700  0.874800  1
  O  O899  1  0.490000  0.980000  0.378100  1
  O  O900  1  0.510000  0.020000  0.621900  1
  O  O901  1  0.569000  0.000000  0.338600  1
  O  O902  1  0.431000  0.000000  0.661400  1
  O  O903  1  0.542000  0.887000  0.292800  1
  O  O904  1  0.458000  0.113000  0.707200  1
  O  O905  1  0.526200  0.847900  0.233500  1
  O  O906  1  0.473800  0.152100  0.766500  1
  O  O907  1  0.611000  0.327000  0.490100  1
  O  O908  1  0.389000  0.673000  0.509900  1
  O  O909  1  0.615000  0.315000  0.414700  1
  O  O910  1  0.385000  0.685000  0.585300  1
  O  O911  1  0.559000  0.435900  0.443200  1
  O  O912  1  0.441000  0.564100  0.556800  1
  O  O913  1  0.692700  0.368000  0.447700  1
  O  O914  1  0.307300  0.632000  0.552300  1
  O  O915  1  0.289400  0.915400  0.252600  1
  O  O916  1  0.710600  0.084600  0.747400  1
  O  O917  1  0.221400  0.043300  0.266700  1
  O  O918  1  0.778600  0.956700  0.733300  1
  O  O919  1  0.343000  0.978000  0.297600  1
  O  O920  1  0.657000  0.022000  0.702400  1
  O  O921  1  0.239800  0.948300  0.322000  1
  O  O922  1  0.760200  0.051700  0.678000  1
  O  O923  1  0.084700  0.551700  0.192800  1
  O  O924  1  0.915300  0.448300  0.807200  1
  O  O925  1  0.158700  0.435900  0.161200  1
  O  O926  1  0.841300  0.564100  0.838800  1
  O  O927  1  0.132100  0.551900  0.121800  1
  O  O928  1  0.867900  0.448100  0.878200  1
  O  O929  1  0.033400  0.508700  0.135600  1
  O  O930  1  0.966600  0.491300  0.864400  1
  O  O931  1  0.834100  0.219900  0.159200  1
  O  O932  1  0.165900  0.780100  0.840800  1
  O  O933  1  0.703800  0.293800  0.171800  1
  O  O934  1  0.296200  0.706200  0.828200  1
  O  O935  1  0.744000  0.255000  0.101800  1
  O  O936  1  0.256000  0.745000  0.898200  1
  O  O937  1  0.742400  0.165000  0.156500  1
  O  O938  1  0.257600  0.835000  0.843500  1
  O  O939  1  0.348000  0.043000  0.879600  1
  O  O940  1  0.652000  0.957000  0.120400  1
  O  O941  1  0.341000  0.997000  0.811700  1
  O  O942  1  0.659000  0.003000  0.188300  1
  O  O943  1  0.275000  0.126900  0.823300  1
  O  O944  1  0.725000  0.873100  0.176700  1
  O  O945  1  0.233300  0.037000  0.856800  1
  O  O946  1  0.766700  0.963000  0.143200  1
  O  O947  1  0.506400  0.118000  0.503500  1
  O  O948  1  0.493600  0.882000  0.496500  1
  O  O949  1  0.594000  0.070000  0.447300  1
  O  O950  1  0.406000  0.930000  0.552700  1
  O  O951  1  0.597000  0.991800  0.509100  1
  O  O952  1  0.403000  0.008200  0.490900  1
  O  O953  1  0.637500  0.093000  0.513200  1
  O  O954  1  0.362500  0.907000  0.486800  1
  O  O955  1  0.725600  0.907300  0.401800  1
  O  O956  1  0.274400  0.092700  0.598200  1
  O  O957  1  0.747000  0.912800  0.465800  1
  O  O958  1  0.253000  0.087200  0.534200  1
