# generated using pymatgen
data_Mn4H208Pd6C240N60O197
_symmetry_space_group_name_H-M   'P 1'
_cell_length_a   26.08440000
_cell_length_b   26.08440000
_cell_length_c   31.49000000
_cell_angle_alpha   90.00000000
_cell_angle_beta   90.00000000
_cell_angle_gamma   90.00000000
_symmetry_Int_Tables_number   1
_chemical_formula_structural   Mn4H208Pd6C240N60O197
_chemical_formula_sum   'Mn16 H832 Pd24 C960 N240 O788'
_cell_volume   21425.66762661
_cell_formula_units_Z   4
loop_
 _symmetry_equiv_pos_site_id
 _symmetry_equiv_pos_as_xyz
  1  'x, y, z'
loop_
 _atom_site_type_symbol
 _atom_site_label
 _atom_site_symmetry_multiplicity
 _atom_site_fract_x
 _atom_site_fract_y
 _atom_site_fract_z
 _atom_site_occupancy
  Mn  Mn1  1  0.505890  0.822730  0.082390  1.0
  Mn  Mn2  1  0.927270  0.755890  0.332390  1.0
  Mn  Mn3  1  0.005890  0.322730  0.582390  1.0
  Mn  Mn4  1  0.427270  0.255890  0.832390  1.0
  Mn  Mn5  1  0.072730  0.744110  0.332390  1.0
  Mn  Mn6  1  0.994110  0.177270  0.582390  1.0
  Mn  Mn7  1  0.572730  0.244110  0.832390  1.0
  Mn  Mn8  1  0.494110  0.677270  0.082390  1.0
  Mn  Mn9  1  0.494110  0.177270  0.917610  1.0
  Mn  Mn10  1  0.072730  0.244110  0.667610  1.0
  Mn  Mn11  1  0.994110  0.677270  0.417610  1.0
  Mn  Mn12  1  0.572730  0.744110  0.167610  1.0
  Mn  Mn13  1  0.927270  0.255890  0.667610  1.0
  Mn  Mn14  1  0.005890  0.822730  0.417610  1.0
  Mn  Mn15  1  0.427270  0.755890  0.167610  1.0
  Mn  Mn16  1  0.505890  0.322730  0.917610  1.0
  H  H17  1  0.894200  0.927200  0.153100  1
  H  H18  1  0.822800  0.144200  0.403100  1
  H  H19  1  0.394200  0.427200  0.653100  1
  H  H20  1  0.322800  0.644200  0.903100  1
  H  H21  1  0.177200  0.355800  0.403100  1
  H  H22  1  0.605800  0.072800  0.653100  1
  H  H23  1  0.677200  0.855800  0.903100  1
  H  H24  1  0.105800  0.572800  0.153100  1
  H  H25  1  0.105800  0.072800  0.846900  1
  H  H26  1  0.177200  0.855800  0.596900  1
  H  H27  1  0.605800  0.572800  0.346900  1
  H  H28  1  0.677200  0.355800  0.096900  1
  H  H29  1  0.822800  0.644200  0.596900  1
  H  H30  1  0.394200  0.927200  0.346900  1
  H  H31  1  0.322800  0.144200  0.096900  1
  H  H32  1  0.894200  0.427200  0.846900  1
  H  H33  1  0.926500  0.919400  0.110400  1
  H  H34  1  0.830600  0.176500  0.360400  1
  H  H35  1  0.426500  0.419400  0.610400  1
  H  H36  1  0.330600  0.676500  0.860400  1
  H  H37  1  0.169400  0.323500  0.360400  1
  H  H38  1  0.573500  0.080600  0.610400  1
  H  H39  1  0.669400  0.823500  0.860400  1
  H  H40  1  0.073500  0.580600  0.110400  1
  H  H41  1  0.073500  0.080600  0.889600  1
  H  H42  1  0.169400  0.823500  0.639600  1
  H  H43  1  0.573500  0.580600  0.389600  1
  H  H44  1  0.669400  0.323500  0.139600  1
  H  H45  1  0.830600  0.676500  0.639600  1
  H  H46  1  0.426500  0.919400  0.389600  1
  H  H47  1  0.330600  0.176500  0.139600  1
  H  H48  1  0.926500  0.419400  0.889600  1
  H  H49  1  0.875100  0.887100  0.118000  1
  H  H50  1  0.862900  0.125100  0.368000  1
  H  H51  1  0.375100  0.387100  0.618000  1
  H  H52  1  0.362900  0.625100  0.868000  1
  H  H53  1  0.137100  0.374900  0.368000  1
  H  H54  1  0.624900  0.112900  0.618000  1
  H  H55  1  0.637100  0.874900  0.868000  1
  H  H56  1  0.124900  0.612900  0.118000  1
  H  H57  1  0.124900  0.112900  0.882000  1
  H  H58  1  0.137100  0.874900  0.632000  1
  H  H59  1  0.624900  0.612900  0.382000  1
  H  H60  1  0.637100  0.374900  0.132000  1
  H  H61  1  0.862900  0.625100  0.632000  1
  H  H62  1  0.375100  0.887100  0.382000  1
  H  H63  1  0.362900  0.125100  0.132000  1
  H  H64  1  0.875100  0.387100  0.882000  1
  H  H65  1  0.838100  0.974300  0.036100  1
  H  H66  1  0.775700  0.088100  0.286100  1
  H  H67  1  0.338100  0.474300  0.536100  1
  H  H68  1  0.275700  0.588100  0.786100  1
  H  H69  1  0.224300  0.411900  0.286100  1
  H  H70  1  0.661900  0.025700  0.536100  1
  H  H71  1  0.724300  0.911900  0.786100  1
  H  H72  1  0.161900  0.525700  0.036100  1
  H  H73  1  0.161900  0.025700  0.963900  1
  H  H74  1  0.224300  0.911900  0.713900  1
  H  H75  1  0.661900  0.525700  0.463900  1
  H  H76  1  0.724300  0.411900  0.213900  1
  H  H77  1  0.775700  0.588100  0.713900  1
  H  H78  1  0.338100  0.974300  0.463900  1
  H  H79  1  0.275700  0.088100  0.213900  1
  H  H80  1  0.838100  0.474300  0.963900  1
  H  H81  1  0.841400  0.915000  0.048700  1
  H  H82  1  0.835000  0.091400  0.298700  1
  H  H83  1  0.341400  0.415000  0.548700  1
  H  H84  1  0.335000  0.591400  0.798700  1
  H  H85  1  0.165000  0.408600  0.298700  1
  H  H86  1  0.658600  0.085000  0.548700  1
  H  H87  1  0.665000  0.908600  0.798700  1
  H  H88  1  0.158600  0.585000  0.048700  1
  H  H89  1  0.158600  0.085000  0.951300  1
  H  H90  1  0.165000  0.908600  0.701300  1
  H  H91  1  0.658600  0.585000  0.451300  1
  H  H92  1  0.665000  0.408600  0.201300  1
  H  H93  1  0.835000  0.591400  0.701300  1
  H  H94  1  0.341400  0.915000  0.451300  1
  H  H95  1  0.335000  0.091400  0.201300  1
  H  H96  1  0.841400  0.415000  0.951300  1
  H  H97  1  0.892800  0.947000  0.040400  1
  H  H98  1  0.803000  0.142800  0.290400  1
  H  H99  1  0.392800  0.447000  0.540400  1
  H  H100  1  0.303000  0.642800  0.790400  1
  H  H101  1  0.197000  0.357200  0.290400  1
  H  H102  1  0.607200  0.053000  0.540400  1
  H  H103  1  0.697000  0.857200  0.790400  1
  H  H104  1  0.107200  0.553000  0.040400  1
  H  H105  1  0.107200  0.053000  0.959600  1
  H  H106  1  0.197000  0.857200  0.709600  1
  H  H107  1  0.607200  0.553000  0.459600  1
  H  H108  1  0.697000  0.357200  0.209600  1
  H  H109  1  0.803000  0.642800  0.709600  1
  H  H110  1  0.392800  0.947000  0.459600  1
  H  H111  1  0.303000  0.142800  0.209600  1
  H  H112  1  0.892800  0.447000  0.959600  1
  H  H113  1  0.904000  0.996400  0.152400  1
  H  H114  1  0.753600  0.154000  0.402400  1
  H  H115  1  0.404000  0.496400  0.652400  1
  H  H116  1  0.253600  0.654000  0.902400  1
  H  H117  1  0.246400  0.346000  0.402400  1
  H  H118  1  0.596000  0.003600  0.652400  1
  H  H119  1  0.746400  0.846000  0.902400  1
  H  H120  1  0.096000  0.503600  0.152400  1
  H  H121  1  0.096000  0.003600  0.847600  1
  H  H122  1  0.246400  0.846000  0.597600  1
  H  H123  1  0.596000  0.503600  0.347600  1
  H  H124  1  0.746400  0.346000  0.097600  1
  H  H125  1  0.753600  0.654000  0.597600  1
  H  H126  1  0.404000  0.996400  0.347600  1
  H  H127  1  0.253600  0.154000  0.097600  1
  H  H128  1  0.904000  0.496400  0.847600  1
  H  H129  1  0.917600  0.023300  0.108200  1
  H  H130  1  0.726700  0.167600  0.358200  1
  H  H131  1  0.417600  0.523300  0.608200  1
  H  H132  1  0.226700  0.667600  0.858200  1
  H  H133  1  0.273300  0.332400  0.358200  1
  H  H134  1  0.582400  0.976700  0.608200  1
  H  H135  1  0.773300  0.832400  0.858200  1
  H  H136  1  0.082400  0.476700  0.108200  1
  H  H137  1  0.082400  0.976700  0.891800  1
  H  H138  1  0.273300  0.832400  0.641800  1
  H  H139  1  0.582400  0.476700  0.391800  1
  H  H140  1  0.773300  0.332400  0.141800  1
  H  H141  1  0.726700  0.667600  0.641800  1
  H  H142  1  0.417600  0.023300  0.391800  1
  H  H143  1  0.226700  0.167600  0.141800  1
  H  H144  1  0.917600  0.523300  0.891800  1
  H  H145  1  0.844500  0.070500  0.110400  1
  H  H146  1  0.679500  0.094500  0.360400  1
  H  H147  1  0.344500  0.570500  0.610400  1
  H  H148  1  0.179500  0.594500  0.860400  1
  H  H149  1  0.320500  0.405500  0.360400  1
  H  H150  1  0.655500  0.929500  0.610400  1
  H  H151  1  0.820500  0.905500  0.860400  1
  H  H152  1  0.155500  0.429500  0.110400  1
  H  H153  1  0.155500  0.929500  0.889600  1
  H  H154  1  0.320500  0.905500  0.639600  1
  H  H155  1  0.655500  0.429500  0.389600  1
  H  H156  1  0.820500  0.405500  0.139600  1
  H  H157  1  0.679500  0.594500  0.639600  1
  H  H158  1  0.344500  0.070500  0.389600  1
  H  H159  1  0.179500  0.094500  0.139600  1
  H  H160  1  0.844500  0.570500  0.889600  1
  H  H161  1  0.873700  0.077300  0.155100  1
  H  H162  1  0.672700  0.123700  0.405100  1
  H  H163  1  0.373700  0.577300  0.655100  1
  H  H164  1  0.172700  0.623700  0.905100  1
  H  H165  1  0.327300  0.376300  0.405100  1
  H  H166  1  0.626300  0.922700  0.655100  1
  H  H167  1  0.827300  0.876300  0.905100  1
  H  H168  1  0.126300  0.422700  0.155100  1
  H  H169  1  0.126300  0.922700  0.844900  1
  H  H170  1  0.327300  0.876300  0.594900  1
  H  H171  1  0.626300  0.422700  0.344900  1
  H  H172  1  0.827300  0.376300  0.094900  1
  H  H173  1  0.672700  0.623700  0.594900  1
  H  H174  1  0.373700  0.077300  0.344900  1
  H  H175  1  0.172700  0.123700  0.094900  1
  H  H176  1  0.873700  0.577300  0.844900  1
  H  H177  1  0.759700  0.083700  0.130300  1
  H  H178  1  0.666300  0.009700  0.380300  1
  H  H179  1  0.259700  0.583700  0.630300  1
  H  H180  1  0.166300  0.509700  0.880300  1
  H  H181  1  0.333700  0.490300  0.380300  1
  H  H182  1  0.740300  0.916300  0.630300  1
  H  H183  1  0.833700  0.990300  0.880300  1
  H  H184  1  0.240300  0.416300  0.130300  1
  H  H185  1  0.240300  0.916300  0.869700  1
  H  H186  1  0.333700  0.990300  0.619700  1
  H  H187  1  0.740300  0.416300  0.369700  1
  H  H188  1  0.833700  0.490300  0.119700  1
  H  H189  1  0.666300  0.509700  0.619700  1
  H  H190  1  0.259700  0.083700  0.369700  1
  H  H191  1  0.166300  0.009700  0.119700  1
  H  H192  1  0.759700  0.583700  0.869700  1
  H  H193  1  0.783600  0.105000  0.173700  1
  H  H194  1  0.645000  0.033600  0.423700  1
  H  H195  1  0.283600  0.605000  0.673700  1
  H  H196  1  0.145000  0.533600  0.923700  1
  H  H197  1  0.355000  0.466400  0.423700  1
  H  H198  1  0.716400  0.895000  0.673700  1
  H  H199  1  0.855000  0.966400  0.923700  1
  H  H200  1  0.216400  0.395000  0.173700  1
  H  H201  1  0.216400  0.895000  0.826300  1
  H  H202  1  0.355000  0.966400  0.576300  1
  H  H203  1  0.716400  0.395000  0.326300  1
  H  H204  1  0.855000  0.466400  0.076300  1
  H  H205  1  0.645000  0.533600  0.576300  1
  H  H206  1  0.283600  0.105000  0.326300  1
  H  H207  1  0.145000  0.033600  0.076300  1
  H  H208  1  0.783600  0.605000  0.826300  1
  H  H209  1  0.739200  0.062600  0.174900  1
  H  H210  1  0.687400  0.989200  0.424900  1
  H  H211  1  0.239200  0.562600  0.674900  1
  H  H212  1  0.187400  0.489200  0.924900  1
  H  H213  1  0.312600  0.510800  0.424900  1
  H  H214  1  0.760800  0.937400  0.674900  1
  H  H215  1  0.812600  0.010800  0.924900  1
  H  H216  1  0.260800  0.437400  0.174900  1
  H  H217  1  0.260800  0.937400  0.825100  1
  H  H218  1  0.312600  0.010800  0.575100  1
  H  H219  1  0.760800  0.437400  0.325100  1
  H  H220  1  0.812600  0.510800  0.075100  1
  H  H221  1  0.687400  0.489200  0.575100  1
  H  H222  1  0.239200  0.062600  0.325100  1
  H  H223  1  0.187400  0.989200  0.075100  1
  H  H224  1  0.739200  0.562600  0.825100  1
  H  H225  1  0.791800  0.005400  0.217100  1
  H  H226  1  0.744600  0.041800  0.467100  1
  H  H227  1  0.291800  0.505400  0.717100  1
  H  H228  1  0.244600  0.541800  0.967100  1
  H  H229  1  0.255400  0.458200  0.467100  1
  H  H230  1  0.708200  0.994600  0.717100  1
  H  H231  1  0.755400  0.958200  0.967100  1
  H  H232  1  0.208200  0.494600  0.217100  1
  H  H233  1  0.208200  0.994600  0.782900  1
  H  H234  1  0.255400  0.958200  0.532900  1
  H  H235  1  0.708200  0.494600  0.282900  1
  H  H236  1  0.755400  0.458200  0.032900  1
  H  H237  1  0.744600  0.541800  0.532900  1
  H  H238  1  0.291800  0.005400  0.282900  1
  H  H239  1  0.244600  0.041800  0.032900  1
  H  H240  1  0.791800  0.505400  0.782900  1
  H  H241  1  0.830300  0.053100  0.218100  1
  H  H242  1  0.696900  0.080300  0.468100  1
  H  H243  1  0.330300  0.553100  0.718100  1
  H  H244  1  0.196900  0.580300  0.968100  1
  H  H245  1  0.303100  0.419700  0.468100  1
  H  H246  1  0.669700  0.946900  0.718100  1
  H  H247  1  0.803100  0.919700  0.968100  1
  H  H248  1  0.169700  0.446900  0.218100  1
  H  H249  1  0.169700  0.946900  0.781900  1
  H  H250  1  0.303100  0.919700  0.531900  1
  H  H251  1  0.669700  0.446900  0.281900  1
  H  H252  1  0.803100  0.419700  0.031900  1
  H  H253  1  0.696900  0.580300  0.531900  1
  H  H254  1  0.330300  0.053100  0.281900  1
  H  H255  1  0.196900  0.080300  0.031900  1
  H  H256  1  0.830300  0.553100  0.781900  1
  H  H257  1  0.851400  0.997100  0.206900  1
  H  H258  1  0.752900  0.101400  0.456900  1
  H  H259  1  0.351400  0.497100  0.706900  1
  H  H260  1  0.252900  0.601400  0.956900  1
  H  H261  1  0.247100  0.398600  0.456900  1
  H  H262  1  0.648600  0.002900  0.706900  1
  H  H263  1  0.747100  0.898600  0.956900  1
  H  H264  1  0.148600  0.502900  0.206900  1
  H  H265  1  0.148600  0.002900  0.793100  1
  H  H266  1  0.247100  0.898600  0.543100  1
  H  H267  1  0.648600  0.502900  0.293100  1
  H  H268  1  0.747100  0.398600  0.043100  1
  H  H269  1  0.752900  0.601400  0.543100  1
  H  H270  1  0.351400  0.997100  0.293100  1
  H  H271  1  0.252900  0.101400  0.043100  1
  H  H272  1  0.851400  0.497100  0.793100  1
  H  H273  1  0.790800  0.851800  0.141600  1.0
  H  H274  1  0.898200  0.040800  0.391600  1.0
  H  H275  1  0.290800  0.351800  0.641600  1.0
  H  H276  1  0.398200  0.540800  0.891600  1.0
  H  H277  1  0.101800  0.459200  0.391600  1.0
  H  H278  1  0.709200  0.148200  0.641600  1.0
  H  H279  1  0.601800  0.959200  0.891600  1.0
  H  H280  1  0.209200  0.648200  0.141600  1.0
  H  H281  1  0.209200  0.148200  0.858400  1.0
  H  H282  1  0.101800  0.959200  0.608400  1.0
  H  H283  1  0.709200  0.648200  0.358400  1.0
  H  H284  1  0.601800  0.459200  0.108400  1.0
  H  H285  1  0.898200  0.540800  0.608400  1.0
  H  H286  1  0.290800  0.851800  0.358400  1.0
  H  H287  1  0.398200  0.040800  0.108400  1.0
  H  H288  1  0.790800  0.351800  0.858400  1.0
  H  H289  1  0.755200  0.777700  0.113400  1.0
  H  H290  1  0.972300  0.005200  0.363400  1.0
  H  H291  1  0.255200  0.277700  0.613400  1.0
  H  H292  1  0.472300  0.505200  0.863400  1.0
  H  H293  1  0.027700  0.494800  0.363400  1.0
  H  H294  1  0.744800  0.222300  0.613400  1.0
  H  H295  1  0.527700  0.994800  0.863400  1.0
  H  H296  1  0.244800  0.722300  0.113400  1.0
  H  H297  1  0.244800  0.222300  0.886600  1.0
  H  H298  1  0.027700  0.994800  0.636600  1.0
  H  H299  1  0.744800  0.722300  0.386600  1.0
  H  H300  1  0.527700  0.494800  0.136600  1.0
  H  H301  1  0.972300  0.505200  0.636600  1.0
  H  H302  1  0.255200  0.777700  0.386600  1.0
  H  H303  1  0.472300  0.005200  0.136600  1.0
  H  H304  1  0.755200  0.277700  0.886600  1.0
  H  H305  1  0.693800  0.863300  0.018700  1.0
  H  H306  1  0.886700  0.943800  0.268700  1.0
  H  H307  1  0.193800  0.363300  0.518700  1.0
  H  H308  1  0.386700  0.443800  0.768700  1.0
  H  H309  1  0.113300  0.556200  0.268700  1.0
  H  H310  1  0.806200  0.136700  0.518700  1.0
  H  H311  1  0.613300  0.056200  0.768700  1.0
  H  H312  1  0.306200  0.636700  0.018700  1.0
  H  H313  1  0.306200  0.136700  0.981300  1.0
  H  H314  1  0.113300  0.056200  0.731300  1.0
  H  H315  1  0.806200  0.636700  0.481300  1.0
  H  H316  1  0.613300  0.556200  0.231300  1.0
  H  H317  1  0.886700  0.443800  0.731300  1.0
  H  H318  1  0.193800  0.863300  0.481300  1.0
  H  H319  1  0.386700  0.943800  0.231300  1.0
  H  H320  1  0.693800  0.363300  0.981300  1.0
  H  H321  1  0.731500  0.935500  0.049000  1.0
  H  H322  1  0.814500  0.981500  0.299000  1.0
  H  H323  1  0.231500  0.435500  0.549000  1.0
  H  H324  1  0.314500  0.481500  0.799000  1.0
  H  H325  1  0.185500  0.518500  0.299000  1.0
  H  H326  1  0.768500  0.064500  0.549000  1.0
  H  H327  1  0.685500  0.018500  0.799000  1.0
  H  H328  1  0.268500  0.564500  0.049000  1.0
  H  H329  1  0.268500  0.064500  0.951000  1.0
  H  H330  1  0.185500  0.018500  0.701000  1.0
  H  H331  1  0.768500  0.564500  0.451000  1.0
  H  H332  1  0.685500  0.518500  0.201000  1.0
  H  H333  1  0.814500  0.481500  0.701000  1.0
  H  H334  1  0.231500  0.935500  0.451000  1.0
  H  H335  1  0.314500  0.981500  0.201000  1.0
  H  H336  1  0.731500  0.435500  0.951000  1.0
  H  H337  1  0.564500  0.816900  0.891900  1.0
  H  H338  1  0.933100  0.814500  0.141900  1.0
  H  H339  1  0.064500  0.316900  0.391900  1.0
  H  H340  1  0.433100  0.314500  0.641900  1.0
  H  H341  1  0.066900  0.685500  0.141900  1.0
  H  H342  1  0.935500  0.183100  0.391900  1.0
  H  H343  1  0.566900  0.185500  0.641900  1.0
  H  H344  1  0.435500  0.683100  0.891900  1.0
  H  H345  1  0.435500  0.183100  0.108100  1.0
  H  H346  1  0.066900  0.185500  0.858100  1.0
  H  H347  1  0.935500  0.683100  0.608100  1.0
  H  H348  1  0.566900  0.685500  0.358100  1.0
  H  H349  1  0.933100  0.314500  0.858100  1.0
  H  H350  1  0.064500  0.816900  0.608100  1.0
  H  H351  1  0.433100  0.814500  0.358100  1.0
  H  H352  1  0.564500  0.316900  0.108100  1.0
  H  H353  1  0.616400  0.811900  0.951500  1.0
  H  H354  1  0.938100  0.866400  0.201500  1.0
  H  H355  1  0.116400  0.311900  0.451500  1.0
  H  H356  1  0.438100  0.366400  0.701500  1.0
  H  H357  1  0.061900  0.633600  0.201500  1.0
  H  H358  1  0.883600  0.188100  0.451500  1.0
  H  H359  1  0.561900  0.133600  0.701500  1.0
  H  H360  1  0.383600  0.688100  0.951500  1.0
  H  H361  1  0.383600  0.188100  0.048500  1.0
  H  H362  1  0.061900  0.133600  0.798500  1.0
  H  H363  1  0.883600  0.688100  0.548500  1.0
  H  H364  1  0.561900  0.633600  0.298500  1.0
  H  H365  1  0.938100  0.366400  0.798500  1.0
  H  H366  1  0.116400  0.811900  0.548500  1.0
  H  H367  1  0.438100  0.866400  0.298500  1.0
  H  H368  1  0.616400  0.311900  0.048500  1.0
  H  H369  1  0.601300  0.657300  0.948300  1.0
  H  H370  1  0.092700  0.851300  0.198300  1.0
  H  H371  1  0.101300  0.157300  0.448300  1.0
  H  H372  1  0.592700  0.351300  0.698300  1.0
  H  H373  1  0.907300  0.648700  0.198300  1.0
  H  H374  1  0.898700  0.342700  0.448300  1.0
  H  H375  1  0.407300  0.148700  0.698300  1.0
  H  H376  1  0.398700  0.842700  0.948300  1.0
  H  H377  1  0.398700  0.342700  0.051700  1.0
  H  H378  1  0.907300  0.148700  0.801700  1.0
  H  H379  1  0.898700  0.842700  0.551700  1.0
  H  H380  1  0.407300  0.648700  0.301700  1.0
  H  H381  1  0.092700  0.351300  0.801700  1.0
  H  H382  1  0.101300  0.657300  0.551700  1.0
  H  H383  1  0.592700  0.851300  0.301700  1.0
  H  H384  1  0.601300  0.157300  0.051700  1.0
  H  H385  1  0.549000  0.666300  0.888700  1.0
  H  H386  1  0.083700  0.799000  0.138700  1.0
  H  H387  1  0.049000  0.166300  0.388700  1.0
  H  H388  1  0.583700  0.299000  0.638700  1.0
  H  H389  1  0.916300  0.701000  0.138700  1.0
  H  H390  1  0.951000  0.333700  0.388700  1.0
  H  H391  1  0.416300  0.201000  0.638700  1.0
  H  H392  1  0.451000  0.833700  0.888700  1.0
  H  H393  1  0.451000  0.333700  0.111300  1.0
  H  H394  1  0.916300  0.201000  0.861300  1.0
  H  H395  1  0.951000  0.833700  0.611300  1.0
  H  H396  1  0.416300  0.701000  0.361300  1.0
  H  H397  1  0.083700  0.299000  0.861300  1.0
  H  H398  1  0.049000  0.666300  0.611300  1.0
  H  H399  1  0.583700  0.799000  0.361300  1.0
  H  H400  1  0.549000  0.166300  0.111300  1.0
  H  H401  1  0.680000  0.996600  0.107700  1.0
  H  H402  1  0.753400  0.930000  0.357700  1.0
  H  H403  1  0.180000  0.496600  0.607700  1.0
  H  H404  1  0.253400  0.430000  0.857700  1.0
  H  H405  1  0.246600  0.570000  0.357700  1.0
  H  H406  1  0.820000  0.003400  0.607700  1.0
  H  H407  1  0.746600  0.070000  0.857700  1.0
  H  H408  1  0.320000  0.503400  0.107700  1.0
  H  H409  1  0.320000  0.003400  0.892300  1.0
  H  H410  1  0.246600  0.070000  0.642300  1.0
  H  H411  1  0.820000  0.503400  0.392300  1.0
  H  H412  1  0.746600  0.570000  0.142300  1.0
  H  H413  1  0.753400  0.430000  0.642300  1.0
  H  H414  1  0.180000  0.996600  0.392300  1.0
  H  H415  1  0.253400  0.930000  0.142300  1.0
  H  H416  1  0.680000  0.496600  0.892300  1.0
  H  H417  1  0.597500  0.985000  0.135800  1.0
  H  H418  1  0.765000  0.847500  0.385800  1.0
  H  H419  1  0.097500  0.485000  0.635800  1.0
  H  H420  1  0.265000  0.347500  0.885800  1.0
  H  H421  1  0.235000  0.652500  0.385800  1.0
  H  H422  1  0.902500  0.015000  0.635800  1.0
  H  H423  1  0.735000  0.152500  0.885800  1.0
  H  H424  1  0.402500  0.515000  0.135800  1.0
  H  H425  1  0.402500  0.015000  0.864200  1.0
  H  H426  1  0.235000  0.152500  0.614200  1.0
  H  H427  1  0.902500  0.515000  0.364200  1.0
  H  H428  1  0.735000  0.652500  0.114200  1.0
  H  H429  1  0.765000  0.347500  0.614200  1.0
  H  H430  1  0.097500  0.985000  0.364200  1.0
  H  H431  1  0.265000  0.847500  0.114200  1.0
  H  H432  1  0.597500  0.485000  0.864200  1.0
  H  H433  1  0.661200  0.910700  0.235300  1.0
  H  H434  1  0.839300  0.911200  0.485300  1.0
  H  H435  1  0.161200  0.410700  0.735300  1.0
  H  H436  1  0.339300  0.411200  0.985300  1.0
  H  H437  1  0.160700  0.588800  0.485300  1.0
  H  H438  1  0.838800  0.089300  0.735300  1.0
  H  H439  1  0.660700  0.088800  0.985300  1.0
  H  H440  1  0.338800  0.589300  0.235300  1.0
  H  H441  1  0.338800  0.089300  0.764700  1.0
  H  H442  1  0.160700  0.088800  0.514700  1.0
  H  H443  1  0.838800  0.589300  0.264700  1.0
  H  H444  1  0.660700  0.588800  0.014700  1.0
  H  H445  1  0.839300  0.411200  0.514700  1.0
  H  H446  1  0.161200  0.910700  0.264700  1.0
  H  H447  1  0.339300  0.911200  0.014700  1.0
  H  H448  1  0.661200  0.410700  0.764700  1.0
  H  H449  1  0.741600  0.928300  0.207600  1.0
  H  H450  1  0.821700  0.991600  0.457600  1.0
  H  H451  1  0.241600  0.428300  0.707600  1.0
  H  H452  1  0.321700  0.491600  0.957600  1.0
  H  H453  1  0.178300  0.508400  0.457600  1.0
  H  H454  1  0.758400  0.071700  0.707600  1.0
  H  H455  1  0.678300  0.008400  0.957600  1.0
  H  H456  1  0.258400  0.571700  0.207600  1.0
  H  H457  1  0.258400  0.071700  0.792400  1.0
  H  H458  1  0.178300  0.008400  0.542400  1.0
  H  H459  1  0.758400  0.571700  0.292400  1.0
  H  H460  1  0.678300  0.508400  0.042400  1.0
  H  H461  1  0.821700  0.491600  0.542400  1.0
  H  H462  1  0.241600  0.928300  0.292400  1.0
  H  H463  1  0.321700  0.991600  0.042400  1.0
  H  H464  1  0.741600  0.428300  0.792400  1.0
  H  H465  1  0.592500  0.681700  0.762900  1.0
  H  H466  1  0.068300  0.842500  0.012900  1.0
  H  H467  1  0.092500  0.181700  0.262900  1.0
  H  H468  1  0.568300  0.342500  0.512900  1.0
  H  H469  1  0.931700  0.657500  0.012900  1.0
  H  H470  1  0.907500  0.318300  0.262900  1.0
  H  H471  1  0.431700  0.157500  0.512900  1.0
  H  H472  1  0.407500  0.818300  0.762900  1.0
  H  H473  1  0.407500  0.318300  0.237100  1.0
  H  H474  1  0.931700  0.157500  0.987100  1.0
  H  H475  1  0.907500  0.818300  0.737100  1.0
  H  H476  1  0.431700  0.657500  0.487100  1.0
  H  H477  1  0.068300  0.342500  0.987100  1.0
  H  H478  1  0.092500  0.681700  0.737100  1.0
  H  H479  1  0.568300  0.842500  0.487100  1.0
  H  H480  1  0.592500  0.181700  0.237100  1.0
  H  H481  1  0.536900  0.665300  0.779500  1.0
  H  H482  1  0.084700  0.786900  0.029500  1.0
  H  H483  1  0.036900  0.165300  0.279500  1.0
  H  H484  1  0.584700  0.286900  0.529500  1.0
  H  H485  1  0.915300  0.713100  0.029500  1.0
  H  H486  1  0.963100  0.334700  0.279500  1.0
  H  H487  1  0.415300  0.213100  0.529500  1.0
  H  H488  1  0.463100  0.834700  0.779500  1.0
  H  H489  1  0.463100  0.334700  0.220500  1.0
  H  H490  1  0.915300  0.213100  0.970500  1.0
  H  H491  1  0.963100  0.834700  0.720500  1.0
  H  H492  1  0.415300  0.713100  0.470500  1.0
  H  H493  1  0.084700  0.286900  0.970500  1.0
  H  H494  1  0.036900  0.665300  0.720500  1.0
  H  H495  1  0.584700  0.786900  0.470500  1.0
  H  H496  1  0.536900  0.165300  0.220500  1.0
  H  H497  1  0.582600  0.674200  0.812600  1.0
  H  H498  1  0.075800  0.832600  0.062600  1.0
  H  H499  1  0.082600  0.174200  0.312600  1.0
  H  H500  1  0.575800  0.332600  0.562600  1.0
  H  H501  1  0.924200  0.667400  0.062600  1.0
  H  H502  1  0.917400  0.325800  0.312600  1.0
  H  H503  1  0.424200  0.167400  0.562600  1.0
  H  H504  1  0.417400  0.825800  0.812600  1.0
  H  H505  1  0.417400  0.325800  0.187400  1.0
  H  H506  1  0.924200  0.167400  0.937400  1.0
  H  H507  1  0.917400  0.825800  0.687400  1.0
  H  H508  1  0.424200  0.667400  0.437400  1.0
  H  H509  1  0.075800  0.332600  0.937400  1.0
  H  H510  1  0.082600  0.674200  0.687400  1.0
  H  H511  1  0.575800  0.832600  0.437400  1.0
  H  H512  1  0.582600  0.174200  0.187400  1.0
  H  H513  1  0.624100  0.765900  0.772500  1.0
  H  H514  1  0.984100  0.874100  0.022500  1.0
  H  H515  1  0.124100  0.265900  0.272500  1.0
  H  H516  1  0.484100  0.374100  0.522500  1.0
  H  H517  1  0.015900  0.625900  0.022500  1.0
  H  H518  1  0.875900  0.234100  0.272500  1.0
  H  H519  1  0.515900  0.125900  0.522500  1.0
  H  H520  1  0.375900  0.734100  0.772500  1.0
  H  H521  1  0.375900  0.234100  0.227500  1.0
  H  H522  1  0.015900  0.125900  0.977500  1.0
  H  H523  1  0.875900  0.734100  0.727500  1.0
  H  H524  1  0.515900  0.625900  0.477500  1.0
  H  H525  1  0.984100  0.374100  0.977500  1.0
  H  H526  1  0.124100  0.765900  0.727500  1.0
  H  H527  1  0.484100  0.874100  0.477500  1.0
  H  H528  1  0.624100  0.265900  0.227500  1.0
  H  H529  1  0.616700  0.761200  0.822800  1.0
  H  H530  1  0.988800  0.866700  0.072800  1.0
  H  H531  1  0.116700  0.261200  0.322800  1.0
  H  H532  1  0.488800  0.366700  0.572800  1.0
  H  H533  1  0.011200  0.633300  0.072800  1.0
  H  H534  1  0.883300  0.238800  0.322800  1.0
  H  H535  1  0.511200  0.133300  0.572800  1.0
  H  H536  1  0.383300  0.738800  0.822800  1.0
  H  H537  1  0.383300  0.238800  0.177200  1.0
  H  H538  1  0.011200  0.133300  0.927200  1.0
  H  H539  1  0.883300  0.738800  0.677200  1.0
  H  H540  1  0.511200  0.633300  0.427200  1.0
  H  H541  1  0.988800  0.366700  0.927200  1.0
  H  H542  1  0.116700  0.761200  0.677200  1.0
  H  H543  1  0.488800  0.866700  0.427200  1.0
  H  H544  1  0.616700  0.261200  0.177200  1.0
  H  H545  1  0.591400  0.808100  0.797600  1.0
  H  H546  1  0.941900  0.841400  0.047600  1.0
  H  H547  1  0.091400  0.308100  0.297600  1.0
  H  H548  1  0.441900  0.341400  0.547600  1.0
  H  H549  1  0.058100  0.658600  0.047600  1.0
  H  H550  1  0.908600  0.191900  0.297600  1.0
  H  H551  1  0.558100  0.158600  0.547600  1.0
  H  H552  1  0.408600  0.691900  0.797600  1.0
  H  H553  1  0.408600  0.191900  0.202400  1.0
  H  H554  1  0.058100  0.158600  0.952400  1.0
  H  H555  1  0.908600  0.691900  0.702400  1.0
  H  H556  1  0.558100  0.658600  0.452400  1.0
  H  H557  1  0.941900  0.341400  0.952400  1.0
  H  H558  1  0.091400  0.808100  0.702400  1.0
  H  H559  1  0.441900  0.841400  0.452400  1.0
  H  H560  1  0.591400  0.308100  0.202400  1.0
  H  H561  1  0.545800  0.744500  0.724400  1.0
  H  H562  1  0.005500  0.795800  0.974400  1.0
  H  H563  1  0.045800  0.244500  0.224400  1.0
  H  H564  1  0.505500  0.295800  0.474400  1.0
  H  H565  1  0.994500  0.704200  0.974400  1.0
  H  H566  1  0.954200  0.255500  0.224400  1.0
  H  H567  1  0.494500  0.204200  0.474400  1.0
  H  H568  1  0.454200  0.755500  0.724400  1.0
  H  H569  1  0.454200  0.255500  0.275600  1.0
  H  H570  1  0.994500  0.204200  0.025600  1.0
  H  H571  1  0.954200  0.755500  0.775600  1.0
  H  H572  1  0.494500  0.704200  0.525600  1.0
  H  H573  1  0.005500  0.295800  0.025600  1.0
  H  H574  1  0.045800  0.744500  0.775600  1.0
  H  H575  1  0.505500  0.795800  0.525600  1.0
  H  H576  1  0.545800  0.244500  0.275600  1.0
  H  H577  1  0.529200  0.796700  0.747700  1.0
  H  H578  1  0.953300  0.779200  0.997700  1.0
  H  H579  1  0.029200  0.296700  0.247700  1.0
  H  H580  1  0.453300  0.279200  0.497700  1.0
  H  H581  1  0.046700  0.720800  0.997700  1.0
  H  H582  1  0.970800  0.203300  0.247700  1.0
  H  H583  1  0.546700  0.220800  0.497700  1.0
  H  H584  1  0.470800  0.703300  0.747700  1.0
  H  H585  1  0.470800  0.203300  0.252300  1.0
  H  H586  1  0.046700  0.220800  0.002300  1.0
  H  H587  1  0.970800  0.703300  0.752300  1.0
  H  H588  1  0.546700  0.720800  0.502300  1.0
  H  H589  1  0.953300  0.279200  0.002300  1.0
  H  H590  1  0.029200  0.796700  0.752300  1.0
  H  H591  1  0.453300  0.779200  0.502300  1.0
  H  H592  1  0.529200  0.296700  0.252300  1.0
  H  H593  1  0.922000  0.922800  0.096600  1.0
  H  H594  1  0.827200  0.172000  0.346600  1.0
  H  H595  1  0.422000  0.422800  0.596600  1.0
  H  H596  1  0.327200  0.672000  0.846600  1.0
  H  H597  1  0.172800  0.328000  0.346600  1.0
  H  H598  1  0.578000  0.077200  0.596600  1.0
  H  H599  1  0.672800  0.828000  0.846600  1.0
  H  H600  1  0.078000  0.577200  0.096600  1.0
  H  H601  1  0.078000  0.077200  0.903400  1.0
  H  H602  1  0.172800  0.828000  0.653400  1.0
  H  H603  1  0.578000  0.577200  0.403400  1.0
  H  H604  1  0.672800  0.328000  0.153400  1.0
  H  H605  1  0.827200  0.672000  0.653400  1.0
  H  H606  1  0.422000  0.922800  0.403400  1.0
  H  H607  1  0.327200  0.172000  0.153400  1.0
  H  H608  1  0.922000  0.422800  0.903400  1.0
  H  H609  1  0.870400  0.890000  0.100400  1.0
  H  H610  1  0.860000  0.120400  0.350400  1.0
  H  H611  1  0.370400  0.390000  0.600400  1.0
  H  H612  1  0.360000  0.620400  0.850400  1.0
  H  H613  1  0.140000  0.379600  0.350400  1.0
  H  H614  1  0.629600  0.110000  0.600400  1.0
  H  H615  1  0.640000  0.879600  0.850400  1.0
  H  H616  1  0.129600  0.610000  0.100400  1.0
  H  H617  1  0.129600  0.110000  0.899600  1.0
  H  H618  1  0.140000  0.879600  0.649600  1.0
  H  H619  1  0.629600  0.610000  0.399600  1.0
  H  H620  1  0.640000  0.379600  0.149600  1.0
  H  H621  1  0.860000  0.620400  0.649600  1.0
  H  H622  1  0.370400  0.890000  0.399600  1.0
  H  H623  1  0.360000  0.120400  0.149600  1.0
  H  H624  1  0.870400  0.390000  0.899600  1.0
  H  H625  1  0.892900  0.918700  0.141200  1.0
  H  H626  1  0.831300  0.142900  0.391200  1.0
  H  H627  1  0.392900  0.418700  0.641200  1.0
  H  H628  1  0.331300  0.642900  0.891200  1.0
  H  H629  1  0.168700  0.357100  0.391200  1.0
  H  H630  1  0.607100  0.081300  0.641200  1.0
  H  H631  1  0.668700  0.857100  0.891200  1.0
  H  H632  1  0.107100  0.581300  0.141200  1.0
  H  H633  1  0.107100  0.081300  0.858800  1.0
  H  H634  1  0.168700  0.857100  0.608800  1.0
  H  H635  1  0.607100  0.581300  0.358800  1.0
  H  H636  1  0.668700  0.357100  0.108800  1.0
  H  H637  1  0.831300  0.642900  0.608800  1.0
  H  H638  1  0.392900  0.918700  0.358800  1.0
  H  H639  1  0.331300  0.142900  0.108800  1.0
  H  H640  1  0.892900  0.418700  0.858800  1.0
  H  H641  1  0.880800  0.960200  0.038900  1.0
  H  H642  1  0.789800  0.130800  0.288900  1.0
  H  H643  1  0.380800  0.460200  0.538900  1.0
  H  H644  1  0.289800  0.630800  0.788900  1.0
  H  H645  1  0.210200  0.369200  0.288900  1.0
  H  H646  1  0.619200  0.039800  0.538900  1.0
  H  H647  1  0.710200  0.869200  0.788900  1.0
  H  H648  1  0.119200  0.539800  0.038900  1.0
  H  H649  1  0.119200  0.039800  0.961100  1.0
  H  H650  1  0.210200  0.869200  0.711100  1.0
  H  H651  1  0.619200  0.539800  0.461100  1.0
  H  H652  1  0.710200  0.369200  0.211100  1.0
  H  H653  1  0.789800  0.630800  0.711100  1.0
  H  H654  1  0.380800  0.960200  0.461100  1.0
  H  H655  1  0.289800  0.130800  0.211100  1.0
  H  H656  1  0.880800  0.460200  0.961100  1.0
  H  H657  1  0.864100  0.016400  0.053800  1.0
  H  H658  1  0.733600  0.114100  0.303800  1.0
  H  H659  1  0.364100  0.516400  0.553800  1.0
  H  H660  1  0.233600  0.614100  0.803800  1.0
  H  H661  1  0.266400  0.385900  0.303800  1.0
  H  H662  1  0.635900  0.983600  0.553800  1.0
  H  H663  1  0.766400  0.885900  0.803800  1.0
  H  H664  1  0.135900  0.483600  0.053800  1.0
  H  H665  1  0.135900  0.983600  0.946200  1.0
  H  H666  1  0.266400  0.885900  0.696200  1.0
  H  H667  1  0.635900  0.483600  0.446200  1.0
  H  H668  1  0.766400  0.385900  0.196200  1.0
  H  H669  1  0.733600  0.614100  0.696200  1.0
  H  H670  1  0.364100  0.016400  0.446200  1.0
  H  H671  1  0.233600  0.114100  0.196200  1.0
  H  H672  1  0.864100  0.516400  0.946200  1.0
  H  H673  1  0.821500  0.973400  0.045500  1.0
  H  H674  1  0.776600  0.071500  0.295500  1.0
  H  H675  1  0.321500  0.473400  0.545500  1.0
  H  H676  1  0.276600  0.571500  0.795500  1.0
  H  H677  1  0.223400  0.428500  0.295500  1.0
  H  H678  1  0.678500  0.026600  0.545500  1.0
  H  H679  1  0.723400  0.928500  0.795500  1.0
  H  H680  1  0.178500  0.526600  0.045500  1.0
  H  H681  1  0.178500  0.026600  0.954500  1.0
  H  H682  1  0.223400  0.928500  0.704500  1.0
  H  H683  1  0.678500  0.526600  0.454500  1.0
  H  H684  1  0.723400  0.428500  0.204500  1.0
  H  H685  1  0.776600  0.571500  0.704500  1.0
  H  H686  1  0.321500  0.973400  0.454500  1.0
  H  H687  1  0.276600  0.071500  0.204500  1.0
  H  H688  1  0.821500  0.473400  0.954500  1.0
  H  H689  1  0.864500  0.037500  0.084100  1.0
  H  H690  1  0.712500  0.114500  0.334100  1.0
  H  H691  1  0.364500  0.537500  0.584100  1.0
  H  H692  1  0.212500  0.614500  0.834100  1.0
  H  H693  1  0.287500  0.385500  0.334100  1.0
  H  H694  1  0.635500  0.962500  0.584100  1.0
  H  H695  1  0.787500  0.885500  0.834100  1.0
  H  H696  1  0.135500  0.462500  0.084100  1.0
  H  H697  1  0.135500  0.962500  0.915900  1.0
  H  H698  1  0.287500  0.885500  0.665900  1.0
  H  H699  1  0.635500  0.462500  0.415900  1.0
  H  H700  1  0.787500  0.385500  0.165900  1.0
  H  H701  1  0.712500  0.614500  0.665900  1.0
  H  H702  1  0.364500  0.037500  0.415900  1.0
  H  H703  1  0.212500  0.114500  0.165900  1.0
  H  H704  1  0.864500  0.537500  0.915900  1.0
  H  H705  1  0.918400  0.012900  0.098200  1.0
  H  H706  1  0.737100  0.168400  0.348200  1.0
  H  H707  1  0.418400  0.512900  0.598200  1.0
  H  H708  1  0.237100  0.668400  0.848200  1.0
  H  H709  1  0.262900  0.331600  0.348200  1.0
  H  H710  1  0.581600  0.987100  0.598200  1.0
  H  H711  1  0.762900  0.831600  0.848200  1.0
  H  H712  1  0.081600  0.487100  0.098200  1.0
  H  H713  1  0.081600  0.987100  0.901800  1.0
  H  H714  1  0.262900  0.831600  0.651800  1.0
  H  H715  1  0.581600  0.487100  0.401800  1.0
  H  H716  1  0.762900  0.331600  0.151800  1.0
  H  H717  1  0.737100  0.668400  0.651800  1.0
  H  H718  1  0.418400  0.012900  0.401800  1.0
  H  H719  1  0.237100  0.168400  0.151800  1.0
  H  H720  1  0.918400  0.512900  0.901800  1.0
  H  H721  1  0.885600  0.064300  0.154000  1.0
  H  H722  1  0.685700  0.135600  0.404000  1.0
  H  H723  1  0.385600  0.564300  0.654000  1.0
  H  H724  1  0.185700  0.635600  0.904000  1.0
  H  H725  1  0.314300  0.364400  0.404000  1.0
  H  H726  1  0.614400  0.935700  0.654000  1.0
  H  H727  1  0.814300  0.864400  0.904000  1.0
  H  H728  1  0.114400  0.435700  0.154000  1.0
  H  H729  1  0.114400  0.935700  0.846000  1.0
  H  H730  1  0.314300  0.864400  0.596000  1.0
  H  H731  1  0.614400  0.435700  0.346000  1.0
  H  H732  1  0.814300  0.364400  0.096000  1.0
  H  H733  1  0.685700  0.635600  0.596000  1.0
  H  H734  1  0.385600  0.064300  0.346000  1.0
  H  H735  1  0.185700  0.135600  0.096000  1.0
  H  H736  1  0.885600  0.564300  0.846000  1.0
  H  H737  1  0.888600  0.005600  0.168900  1.0
  H  H738  1  0.744400  0.138600  0.418900  1.0
  H  H739  1  0.388600  0.505600  0.668900  1.0
  H  H740  1  0.244400  0.638600  0.918900  1.0
  H  H741  1  0.255600  0.361400  0.418900  1.0
  H  H742  1  0.611400  0.994400  0.668900  1.0
  H  H743  1  0.755600  0.861400  0.918900  1.0
  H  H744  1  0.111400  0.494400  0.168900  1.0
  H  H745  1  0.111400  0.994400  0.831100  1.0
  H  H746  1  0.255600  0.861400  0.581100  1.0
  H  H747  1  0.611400  0.494400  0.331100  1.0
  H  H748  1  0.755600  0.361400  0.081100  1.0
  H  H749  1  0.744400  0.638600  0.581100  1.0
  H  H750  1  0.388600  0.005600  0.331100  1.0
  H  H751  1  0.244400  0.138600  0.081100  1.0
  H  H752  1  0.888600  0.505600  0.831100  1.0
  H  H753  1  0.799900  0.104100  0.153300  1.0
  H  H754  1  0.645900  0.049900  0.403300  1.0
  H  H755  1  0.299900  0.604100  0.653300  1.0
  H  H756  1  0.145900  0.549900  0.903300  1.0
  H  H757  1  0.354100  0.450100  0.403300  1.0
  H  H758  1  0.700100  0.895900  0.653300  1.0
  H  H759  1  0.854100  0.950100  0.903300  1.0
  H  H760  1  0.200100  0.395900  0.153300  1.0
  H  H761  1  0.200100  0.895900  0.846700  1.0
  H  H762  1  0.354100  0.950100  0.596700  1.0
  H  H763  1  0.700100  0.395900  0.346700  1.0
  H  H764  1  0.854100  0.450100  0.096700  1.0
  H  H765  1  0.645900  0.549900  0.596700  1.0
  H  H766  1  0.299900  0.104100  0.346700  1.0
  H  H767  1  0.145900  0.049900  0.096700  1.0
  H  H768  1  0.799900  0.604100  0.846700  1.0
  H  H769  1  0.751400  0.069500  0.141200  1.0
  H  H770  1  0.680500  0.001400  0.391200  1.0
  H  H771  1  0.251400  0.569500  0.641200  1.0
  H  H772  1  0.180500  0.501400  0.891200  1.0
  H  H773  1  0.319500  0.498600  0.391200  1.0
  H  H774  1  0.748600  0.930500  0.641200  1.0
  H  H775  1  0.819500  0.998600  0.891200  1.0
  H  H776  1  0.248600  0.430500  0.141200  1.0
  H  H777  1  0.248600  0.930500  0.858800  1.0
  H  H778  1  0.319500  0.998600  0.608800  1.0
  H  H779  1  0.748600  0.430500  0.358800  1.0
  H  H780  1  0.819500  0.498600  0.108800  1.0
  H  H781  1  0.680500  0.501400  0.608800  1.0
  H  H782  1  0.251400  0.069500  0.358800  1.0
  H  H783  1  0.180500  0.001400  0.108800  1.0
  H  H784  1  0.751400  0.569500  0.858800  1.0
  H  H785  1  0.798600  0.074200  0.109000  1.0
  H  H786  1  0.675800  0.048600  0.359000  1.0
  H  H787  1  0.298600  0.574200  0.609000  1.0
  H  H788  1  0.175800  0.548600  0.859000  1.0
  H  H789  1  0.324200  0.451400  0.359000  1.0
  H  H790  1  0.701400  0.925800  0.609000  1.0
  H  H791  1  0.824200  0.951400  0.859000  1.0
  H  H792  1  0.201400  0.425800  0.109000  1.0
  H  H793  1  0.201400  0.925800  0.891000  1.0
  H  H794  1  0.324200  0.951400  0.641000  1.0
  H  H795  1  0.701400  0.425800  0.391000  1.0
  H  H796  1  0.824200  0.451400  0.141000  1.0
  H  H797  1  0.675800  0.548600  0.641000  1.0
  H  H798  1  0.298600  0.074200  0.391000  1.0
  H  H799  1  0.175800  0.048600  0.141000  1.0
  H  H800  1  0.798600  0.574200  0.891000  1.0
  H  H801  1  0.816700  0.058500  0.217400  1.0
  H  H802  1  0.691500  0.066700  0.467400  1.0
  H  H803  1  0.316700  0.558500  0.717400  1.0
  H  H804  1  0.191500  0.566700  0.967400  1.0
  H  H805  1  0.308500  0.433300  0.467400  1.0
  H  H806  1  0.683300  0.941500  0.717400  1.0
  H  H807  1  0.808500  0.933300  0.967400  1.0
  H  H808  1  0.183300  0.441500  0.217400  1.0
  H  H809  1  0.183300  0.941500  0.782600  1.0
  H  H810  1  0.308500  0.933300  0.532600  1.0
  H  H811  1  0.683300  0.441500  0.282600  1.0
  H  H812  1  0.808500  0.433300  0.032600  1.0
  H  H813  1  0.691500  0.566700  0.532600  1.0
  H  H814  1  0.316700  0.058500  0.282600  1.0
  H  H815  1  0.191500  0.066700  0.032600  1.0
  H  H816  1  0.816700  0.558500  0.782600  1.0
  H  H817  1  0.825000  0.997800  0.215100  1.0
  H  H818  1  0.752200  0.075000  0.465100  1.0
  H  H819  1  0.325000  0.497800  0.715100  1.0
  H  H820  1  0.252200  0.575000  0.965100  1.0
  H  H821  1  0.247800  0.425000  0.465100  1.0
  H  H822  1  0.675000  0.002200  0.715100  1.0
  H  H823  1  0.747800  0.925000  0.965100  1.0
  H  H824  1  0.175000  0.502200  0.215100  1.0
  H  H825  1  0.175000  0.002200  0.784900  1.0
  H  H826  1  0.247800  0.925000  0.534900  1.0
  H  H827  1  0.675000  0.502200  0.284900  1.0
  H  H828  1  0.747800  0.425000  0.034900  1.0
  H  H829  1  0.752200  0.575000  0.534900  1.0
  H  H830  1  0.325000  0.997800  0.284900  1.0
  H  H831  1  0.252200  0.075000  0.034900  1.0
  H  H832  1  0.825000  0.497800  0.784900  1.0
  H  H833  1  0.768600  0.021300  0.210300  1.0
  H  H834  1  0.728700  0.018600  0.460300  1.0
  H  H835  1  0.268600  0.521300  0.710300  1.0
  H  H836  1  0.228700  0.518600  0.960300  1.0
  H  H837  1  0.271300  0.481400  0.460300  1.0
  H  H838  1  0.731400  0.978700  0.710300  1.0
  H  H839  1  0.771300  0.981400  0.960300  1.0
  H  H840  1  0.231400  0.478700  0.210300  1.0
  H  H841  1  0.231400  0.978700  0.789700  1.0
  H  H842  1  0.271300  0.981400  0.539700  1.0
  H  H843  1  0.731400  0.478700  0.289700  1.0
  H  H844  1  0.771300  0.481400  0.039700  1.0
  H  H845  1  0.728700  0.518600  0.539700  1.0
  H  H846  1  0.268600  0.021300  0.289700  1.0
  H  H847  1  0.228700  0.018600  0.039700  1.0
  H  H848  1  0.768600  0.521300  0.789700  1.0
  Pd  Pd849  1  0.500000  0.750000  0.837407  1.0
  Pd  Pd850  1  0.000000  0.750000  0.087407  1.0
  Pd  Pd851  1  0.000000  0.250000  0.337407  1.0
  Pd  Pd852  1  0.500000  0.250000  0.587407  1.0
  Pd  Pd853  1  0.500000  0.250000  0.162593  1.0
  Pd  Pd854  1  0.000000  0.250000  0.912593  1.0
  Pd  Pd855  1  0.000000  0.750000  0.662593  1.0
  Pd  Pd856  1  0.500000  0.750000  0.412593  1.0
  Pd  Pd857  1  0.788206  0.964648  0.127391  1.0
  Pd  Pd858  1  0.785352  0.038206  0.377391  1.0
  Pd  Pd859  1  0.288206  0.464648  0.627391  1.0
  Pd  Pd860  1  0.285352  0.538206  0.877391  1.0
  Pd  Pd861  1  0.214648  0.461794  0.377391  1.0
  Pd  Pd862  1  0.711794  0.035352  0.627391  1.0
  Pd  Pd863  1  0.714648  0.961794  0.877391  1.0
  Pd  Pd864  1  0.211794  0.535352  0.127391  1.0
  Pd  Pd865  1  0.211794  0.035352  0.872609  1.0
  Pd  Pd866  1  0.214648  0.961794  0.622609  1.0
  Pd  Pd867  1  0.711794  0.535352  0.372609  1.0
  Pd  Pd868  1  0.714648  0.461794  0.122609  1.0
  Pd  Pd869  1  0.785352  0.538206  0.622609  1.0
  Pd  Pd870  1  0.288206  0.964648  0.372609  1.0
  Pd  Pd871  1  0.285352  0.038206  0.122609  1.0
  Pd  Pd872  1  0.788206  0.464648  0.872609  1.0
  C  C873  1  0.891900  0.920300  0.122500  1
  C  C874  1  0.829700  0.141900  0.372500  1
  C  C875  1  0.391900  0.420300  0.622500  1
  C  C876  1  0.329700  0.641900  0.872500  1
  C  C877  1  0.170300  0.358100  0.372500  1
  C  C878  1  0.608100  0.079700  0.622500  1
  C  C879  1  0.670300  0.858100  0.872500  1
  C  C880  1  0.108100  0.579700  0.122500  1
  C  C881  1  0.108100  0.079700  0.877500  1
  C  C882  1  0.170300  0.858100  0.627500  1
  C  C883  1  0.608100  0.579700  0.377500  1
  C  C884  1  0.670300  0.358100  0.127500  1
  C  C885  1  0.829700  0.641900  0.627500  1
  C  C886  1  0.391900  0.920300  0.377500  1
  C  C887  1  0.329700  0.141900  0.127500  1
  C  C888  1  0.891900  0.420300  0.877500  1
  C  C889  1  0.857900  0.948500  0.051800  1
  C  C890  1  0.801500  0.107900  0.301800  1
  C  C891  1  0.357900  0.448500  0.551800  1
  C  C892  1  0.301500  0.607900  0.801800  1
  C  C893  1  0.198500  0.392100  0.301800  1
  C  C894  1  0.642100  0.051500  0.551800  1
  C  C895  1  0.698500  0.892100  0.801800  1
  C  C896  1  0.142100  0.551500  0.051800  1
  C  C897  1  0.142100  0.051500  0.948200  1
  C  C898  1  0.198500  0.892100  0.698200  1
  C  C899  1  0.642100  0.551500  0.448200  1
  C  C900  1  0.698500  0.392100  0.198200  1
  C  C901  1  0.801500  0.607900  0.698200  1
  C  C902  1  0.357900  0.948500  0.448200  1
  C  C903  1  0.301500  0.107900  0.198200  1
  C  C904  1  0.857900  0.448500  0.948200  1
  C  C905  1  0.889100  0.010400  0.125900  1
  C  C906  1  0.739600  0.139100  0.375900  1
  C  C907  1  0.389100  0.510400  0.625900  1
  C  C908  1  0.239600  0.639100  0.875900  1
  C  C909  1  0.260400  0.360900  0.375900  1
  C  C910  1  0.610900  0.989600  0.625900  1
  C  C911  1  0.760400  0.860900  0.875900  1
  C  C912  1  0.110900  0.489600  0.125900  1
  C  C913  1  0.110900  0.989600  0.874100  1
  C  C914  1  0.260400  0.860900  0.624100  1
  C  C915  1  0.610900  0.489600  0.374100  1
  C  C916  1  0.760400  0.360900  0.124100  1
  C  C917  1  0.739600  0.639100  0.624100  1
  C  C918  1  0.389100  0.010400  0.374100  1
  C  C919  1  0.239600  0.139100  0.124100  1
  C  C920  1  0.889100  0.510400  0.874100  1
  C  C921  1  0.855800  0.052500  0.136400  1
  C  C922  1  0.697500  0.105800  0.386400  1
  C  C923  1  0.355800  0.552500  0.636400  1
  C  C924  1  0.197500  0.605800  0.886400  1
  C  C925  1  0.302500  0.394200  0.386400  1
  C  C926  1  0.644200  0.947500  0.636400  1
  C  C927  1  0.802500  0.894200  0.886400  1
  C  C928  1  0.144200  0.447500  0.136400  1
  C  C929  1  0.144200  0.947500  0.863600  1
  C  C930  1  0.302500  0.894200  0.613600  1
  C  C931  1  0.644200  0.447500  0.363600  1
  C  C932  1  0.802500  0.394200  0.113600  1
  C  C933  1  0.697500  0.605800  0.613600  1
  C  C934  1  0.355800  0.052500  0.363600  1
  C  C935  1  0.197500  0.105800  0.113600  1
  C  C936  1  0.855800  0.552500  0.863600  1
  C  C937  1  0.769500  0.074700  0.159400  1
  C  C938  1  0.675300  0.019500  0.409400  1
  C  C939  1  0.269500  0.574700  0.659400  1
  C  C940  1  0.175300  0.519500  0.909400  1
  C  C941  1  0.324700  0.480500  0.409400  1
  C  C942  1  0.730500  0.925300  0.659400  1
  C  C943  1  0.824700  0.980500  0.909400  1
  C  C944  1  0.230500  0.425300  0.159400  1
  C  C945  1  0.230500  0.925300  0.840600  1
  C  C946  1  0.324700  0.980500  0.590600  1
  C  C947  1  0.730500  0.425300  0.340600  1
  C  C948  1  0.824700  0.480500  0.090600  1
  C  C949  1  0.675300  0.519500  0.590600  1
  C  C950  1  0.269500  0.074700  0.340600  1
  C  C951  1  0.175300  0.019500  0.090600  1
  C  C952  1  0.769500  0.574700  0.840600  1
  C  C953  1  0.822300  0.020600  0.204000  1
  C  C954  1  0.729400  0.072300  0.454000  1
  C  C955  1  0.322300  0.520600  0.704000  1
  C  C956  1  0.229400  0.572300  0.954000  1
  C  C957  1  0.270600  0.427700  0.454000  1
  C  C958  1  0.677700  0.979400  0.704000  1
  C  C959  1  0.770600  0.927700  0.954000  1
  C  C960  1  0.177700  0.479400  0.204000  1
  C  C961  1  0.177700  0.979400  0.796000  1
  C  C962  1  0.270600  0.927700  0.546000  1
  C  C963  1  0.677700  0.479400  0.296000  1
  C  C964  1  0.770600  0.427700  0.046000  1
  C  C965  1  0.729400  0.572300  0.546000  1
  C  C966  1  0.322300  0.020600  0.296000  1
  C  C967  1  0.229400  0.072300  0.046000  1
  C  C968  1  0.822300  0.520600  0.796000  1
  C  C969  1  0.496000  0.667100  0.133500  1
  C  C970  1  0.082900  0.746000  0.383500  1
  C  C971  1  0.996000  0.167100  0.633500  1
  C  C972  1  0.582900  0.246000  0.883500  1
  C  C973  1  0.917100  0.754000  0.383500  1
  C  C974  1  0.004000  0.332900  0.633500  1
  C  C975  1  0.417100  0.254000  0.883500  1
  C  C976  1  0.504000  0.832900  0.133500  1
  C  C977  1  0.504000  0.332900  0.866500  1
  C  C978  1  0.917100  0.254000  0.616500  1
  C  C979  1  0.004000  0.832900  0.366500  1
  C  C980  1  0.417100  0.754000  0.116500  1
  C  C981  1  0.082900  0.246000  0.616500  1
  C  C982  1  0.996000  0.667100  0.366500  1
  C  C983  1  0.582900  0.746000  0.116500  1
  C  C984  1  0.496000  0.167100  0.866500  1
  C  C985  1  0.771030  0.853890  0.116290  1.0
  C  C986  1  0.896110  0.021030  0.366290  1.0
  C  C987  1  0.271030  0.353890  0.616290  1.0
  C  C988  1  0.396110  0.521030  0.866290  1.0
  C  C989  1  0.103890  0.478970  0.366290  1.0
  C  C990  1  0.728970  0.146110  0.616290  1.0
  C  C991  1  0.603890  0.978970  0.866290  1.0
  C  C992  1  0.228970  0.646110  0.116290  1.0
  C  C993  1  0.228970  0.146110  0.883710  1.0
  C  C994  1  0.103890  0.978970  0.633710  1.0
  C  C995  1  0.728970  0.646110  0.383710  1.0
  C  C996  1  0.603890  0.478970  0.133710  1.0
  C  C997  1  0.896110  0.521030  0.633710  1.0
  C  C998  1  0.271030  0.853890  0.383710  1.0
  C  C999  1  0.396110  0.021030  0.133710  1.0
  C  C1000  1  0.771030  0.353890  0.883710  1.0
  C  C1001  1  0.749940  0.809750  0.099800  1.0
  C  C1002  1  0.940250  0.999940  0.349800  1.0
  C  C1003  1  0.249940  0.309750  0.599800  1.0
  C  C1004  1  0.440250  0.499940  0.849800  1.0
  C  C1005  1  0.059750  0.500060  0.349800  1.0
  C  C1006  1  0.750060  0.190250  0.599800  1.0
  C  C1007  1  0.559750  0.000060  0.849800  1.0
  C  C1008  1  0.250060  0.690250  0.099800  1.0
  C  C1009  1  0.250060  0.190250  0.900200  1.0
  C  C1010  1  0.059750  0.000060  0.650200  1.0
  C  C1011  1  0.750060  0.690250  0.400200  1.0
  C  C1012  1  0.559750  0.500060  0.150200  1.0
  C  C1013  1  0.940250  0.499940  0.650200  1.0
  C  C1014  1  0.249940  0.809750  0.400200  1.0
  C  C1015  1  0.440250  0.999940  0.150200  1.0
  C  C1016  1  0.749940  0.309750  0.900200  1.0
  C  C1017  1  0.720760  0.812760  0.062840  1.0
  C  C1018  1  0.937240  0.970760  0.312840  1.0
  C  C1019  1  0.220760  0.312760  0.562840  1.0
  C  C1020  1  0.437240  0.470760  0.812840  1.0
  C  C1021  1  0.062760  0.529240  0.312840  1.0
  C  C1022  1  0.779240  0.187240  0.562840  1.0
  C  C1023  1  0.562760  0.029240  0.812840  1.0
  C  C1024  1  0.279240  0.687240  0.062840  1.0
  C  C1025  1  0.279240  0.187240  0.937160  1.0
  C  C1026  1  0.062760  0.029240  0.687160  1.0
  C  C1027  1  0.779240  0.687240  0.437160  1.0
  C  C1028  1  0.562760  0.529240  0.187160  1.0
  C  C1029  1  0.937240  0.470760  0.687160  1.0
  C  C1030  1  0.220760  0.812760  0.437160  1.0
  C  C1031  1  0.437240  0.970760  0.187160  1.0
  C  C1032  1  0.720760  0.312760  0.937160  1.0
  C  C1033  1  0.713750  0.860220  0.043800  1.0
  C  C1034  1  0.889780  0.963750  0.293800  1.0
  C  C1035  1  0.213750  0.360220  0.543800  1.0
  C  C1036  1  0.389780  0.463750  0.793800  1.0
  C  C1037  1  0.110220  0.536250  0.293800  1.0
  C  C1038  1  0.786250  0.139780  0.543800  1.0
  C  C1039  1  0.610220  0.036250  0.793800  1.0
  C  C1040  1  0.286250  0.639780  0.043800  1.0
  C  C1041  1  0.286250  0.139780  0.956200  1.0
  C  C1042  1  0.110220  0.036250  0.706200  1.0
  C  C1043  1  0.786250  0.639780  0.456200  1.0
  C  C1044  1  0.610220  0.536250  0.206200  1.0
  C  C1045  1  0.889780  0.463750  0.706200  1.0
  C  C1046  1  0.213750  0.860220  0.456200  1.0
  C  C1047  1  0.389780  0.963750  0.206200  1.0
  C  C1048  1  0.713750  0.360220  0.956200  1.0
  C  C1049  1  0.736200  0.902930  0.061990  1.0
  C  C1050  1  0.847070  0.986200  0.311990  1.0
  C  C1051  1  0.236200  0.402930  0.561990  1.0
  C  C1052  1  0.347070  0.486200  0.811990  1.0
  C  C1053  1  0.152930  0.513800  0.311990  1.0
  C  C1054  1  0.763800  0.097070  0.561990  1.0
  C  C1055  1  0.652930  0.013800  0.811990  1.0
  C  C1056  1  0.263800  0.597070  0.061990  1.0
  C  C1057  1  0.263800  0.097070  0.938010  1.0
  C  C1058  1  0.152930  0.013800  0.688010  1.0
  C  C1059  1  0.763800  0.597070  0.438010  1.0
  C  C1060  1  0.652930  0.513800  0.188010  1.0
  C  C1061  1  0.847070  0.486200  0.688010  1.0
  C  C1062  1  0.236200  0.902930  0.438010  1.0
  C  C1063  1  0.347070  0.986200  0.188010  1.0
  C  C1064  1  0.736200  0.402930  0.938010  1.0
  C  C1065  1  0.571980  0.784200  0.903660  1.0
  C  C1066  1  0.965800  0.821980  0.153660  1.0
  C  C1067  1  0.071980  0.284200  0.403660  1.0
  C  C1068  1  0.465800  0.321980  0.653660  1.0
  C  C1069  1  0.034200  0.678020  0.153660  1.0
  C  C1070  1  0.928020  0.215800  0.403660  1.0
  C  C1071  1  0.534200  0.178020  0.653660  1.0
  C  C1072  1  0.428020  0.715800  0.903660  1.0
  C  C1073  1  0.428020  0.215800  0.096340  1.0
  C  C1074  1  0.034200  0.178020  0.846340  1.0
  C  C1075  1  0.928020  0.715800  0.596340  1.0
  C  C1076  1  0.534200  0.678020  0.346340  1.0
  C  C1077  1  0.965800  0.321980  0.846340  1.0
  C  C1078  1  0.071980  0.784200  0.596340  1.0
  C  C1079  1  0.465800  0.821980  0.346340  1.0
  C  C1080  1  0.571980  0.284200  0.096340  1.0
  C  C1081  1  0.603100  0.781550  0.938980  1.0
  C  C1082  1  0.968450  0.853100  0.188980  1.0
  C  C1083  1  0.103100  0.281550  0.438980  1.0
  C  C1084  1  0.468450  0.353100  0.688980  1.0
  C  C1085  1  0.031550  0.646900  0.188980  1.0
  C  C1086  1  0.896900  0.218450  0.438980  1.0
  C  C1087  1  0.531550  0.146900  0.688980  1.0
  C  C1088  1  0.396900  0.718450  0.938980  1.0
  C  C1089  1  0.396900  0.218450  0.061020  1.0
  C  C1090  1  0.031550  0.146900  0.811020  1.0
  C  C1091  1  0.896900  0.718450  0.561020  1.0
  C  C1092  1  0.531550  0.646900  0.311020  1.0
  C  C1093  1  0.968450  0.353100  0.811020  1.0
  C  C1094  1  0.103100  0.781550  0.561020  1.0
  C  C1095  1  0.468450  0.853100  0.311020  1.0
  C  C1096  1  0.603100  0.281550  0.061020  1.0
  C  C1097  1  0.614690  0.733760  0.955910  1.0
  C  C1098  1  0.016240  0.864690  0.205910  1.0
  C  C1099  1  0.114690  0.233760  0.455910  1.0
  C  C1100  1  0.516240  0.364690  0.705910  1.0
  C  C1101  1  0.983760  0.635310  0.205910  1.0
  C  C1102  1  0.885310  0.266240  0.455910  1.0
  C  C1103  1  0.483760  0.135310  0.705910  1.0
  C  C1104  1  0.385310  0.766240  0.955910  1.0
  C  C1105  1  0.385310  0.266240  0.044090  1.0
  C  C1106  1  0.983760  0.135310  0.794090  1.0
  C  C1107  1  0.885310  0.766240  0.544090  1.0
  C  C1108  1  0.483760  0.635310  0.294090  1.0
  C  C1109  1  0.016240  0.364690  0.794090  1.0
  C  C1110  1  0.114690  0.733760  0.544090  1.0
  C  C1111  1  0.516240  0.864690  0.294090  1.0
  C  C1112  1  0.614690  0.233760  0.044090  1.0
  C  C1113  1  0.594200  0.690390  0.937140  1.0
  C  C1114  1  0.059610  0.844200  0.187140  1.0
  C  C1115  1  0.094200  0.190390  0.437140  1.0
  C  C1116  1  0.559610  0.344200  0.687140  1.0
  C  C1117  1  0.940390  0.655800  0.187140  1.0
  C  C1118  1  0.905800  0.309610  0.437140  1.0
  C  C1119  1  0.440390  0.155800  0.687140  1.0
  C  C1120  1  0.405800  0.809610  0.937140  1.0
  C  C1121  1  0.405800  0.309610  0.062860  1.0
  C  C1122  1  0.940390  0.155800  0.812860  1.0
  C  C1123  1  0.905800  0.809610  0.562860  1.0
  C  C1124  1  0.440390  0.655800  0.312860  1.0
  C  C1125  1  0.059610  0.344200  0.812860  1.0
  C  C1126  1  0.094200  0.690390  0.562860  1.0
  C  C1127  1  0.559610  0.844200  0.312860  1.0
  C  C1128  1  0.594200  0.190390  0.062860  1.0
  C  C1129  1  0.562960  0.696040  0.901730  1.0
  C  C1130  1  0.053960  0.812960  0.151730  1.0
  C  C1131  1  0.062960  0.196040  0.401730  1.0
  C  C1132  1  0.553960  0.312960  0.651730  1.0
  C  C1133  1  0.946040  0.687040  0.151730  1.0
  C  C1134  1  0.937040  0.303960  0.401730  1.0
  C  C1135  1  0.446040  0.187040  0.651730  1.0
  C  C1136  1  0.437040  0.803960  0.901730  1.0
  C  C1137  1  0.437040  0.303960  0.098270  1.0
  C  C1138  1  0.946040  0.187040  0.848270  1.0
  C  C1139  1  0.937040  0.803960  0.598270  1.0
  C  C1140  1  0.446040  0.687040  0.348270  1.0
  C  C1141  1  0.053960  0.312960  0.848270  1.0
  C  C1142  1  0.062960  0.696040  0.598270  1.0
  C  C1143  1  0.553960  0.812960  0.348270  1.0
  C  C1144  1  0.562960  0.196040  0.098270  1.0
  C  C1145  1  0.676000  0.979700  0.134230  1.0
  C  C1146  1  0.770300  0.926000  0.384230  1.0
  C  C1147  1  0.176000  0.479700  0.634230  1.0
  C  C1148  1  0.270300  0.426000  0.884230  1.0
  C  C1149  1  0.229700  0.574000  0.384230  1.0
  C  C1150  1  0.824000  0.020300  0.634230  1.0
  C  C1151  1  0.729700  0.074000  0.884230  1.0
  C  C1152  1  0.324000  0.520300  0.134230  1.0
  C  C1153  1  0.324000  0.020300  0.865770  1.0
  C  C1154  1  0.229700  0.074000  0.615770  1.0
  C  C1155  1  0.824000  0.520300  0.365770  1.0
  C  C1156  1  0.729700  0.574000  0.115770  1.0
  C  C1157  1  0.770300  0.426000  0.615770  1.0
  C  C1158  1  0.176000  0.979700  0.365770  1.0
  C  C1159  1  0.270300  0.926000  0.115770  1.0
  C  C1160  1  0.676000  0.479700  0.865770  1.0
  C  C1161  1  0.626600  0.972200  0.150460  1.0
  C  C1162  1  0.777800  0.876600  0.400460  1.0
  C  C1163  1  0.126600  0.472200  0.650460  1.0
  C  C1164  1  0.277800  0.376600  0.900460  1.0
  C  C1165  1  0.222200  0.623400  0.400460  1.0
  C  C1166  1  0.873400  0.027800  0.650460  1.0
  C  C1167  1  0.722200  0.123400  0.900460  1.0
  C  C1168  1  0.373400  0.527800  0.150460  1.0
  C  C1169  1  0.373400  0.027800  0.849540  1.0
  C  C1170  1  0.222200  0.123400  0.599540  1.0
  C  C1171  1  0.873400  0.527800  0.349540  1.0
  C  C1172  1  0.722200  0.623400  0.099540  1.0
  C  C1173  1  0.777800  0.376600  0.599540  1.0
  C  C1174  1  0.126600  0.972200  0.349540  1.0
  C  C1175  1  0.277800  0.876600  0.099540  1.0
  C  C1176  1  0.626600  0.472200  0.849540  1.0
  C  C1177  1  0.621000  0.945800  0.188150  1.0
  C  C1178  1  0.804200  0.871000  0.438150  1.0
  C  C1179  1  0.121000  0.445800  0.688150  1.0
  C  C1180  1  0.304200  0.371000  0.938150  1.0
  C  C1181  1  0.195800  0.629000  0.438150  1.0
  C  C1182  1  0.879000  0.054200  0.688150  1.0
  C  C1183  1  0.695800  0.129000  0.938150  1.0
  C  C1184  1  0.379000  0.554200  0.188150  1.0
  C  C1185  1  0.379000  0.054200  0.811850  1.0
  C  C1186  1  0.195800  0.129000  0.561850  1.0
  C  C1187  1  0.879000  0.554200  0.311850  1.0
  C  C1188  1  0.695800  0.629000  0.061850  1.0
  C  C1189  1  0.804200  0.371000  0.561850  1.0
  C  C1190  1  0.121000  0.945800  0.311850  1.0
  C  C1191  1  0.304200  0.871000  0.061850  1.0
  C  C1192  1  0.621000  0.445800  0.811850  1.0
  C  C1193  1  0.664300  0.929000  0.209340  1.0
  C  C1194  1  0.821000  0.914300  0.459340  1.0
  C  C1195  1  0.164300  0.429000  0.709340  1.0
  C  C1196  1  0.321000  0.414300  0.959340  1.0
  C  C1197  1  0.179000  0.585700  0.459340  1.0
  C  C1198  1  0.835700  0.071000  0.709340  1.0
  C  C1199  1  0.679000  0.085700  0.959340  1.0
  C  C1200  1  0.335700  0.571000  0.209340  1.0
  C  C1201  1  0.335700  0.071000  0.790660  1.0
  C  C1202  1  0.179000  0.085700  0.540660  1.0
  C  C1203  1  0.835700  0.571000  0.290660  1.0
  C  C1204  1  0.679000  0.585700  0.040660  1.0
  C  C1205  1  0.821000  0.414300  0.540660  1.0
  C  C1206  1  0.164300  0.929000  0.290660  1.0
  C  C1207  1  0.321000  0.914300  0.040660  1.0
  C  C1208  1  0.664300  0.429000  0.790660  1.0
  C  C1209  1  0.712000  0.939000  0.192440  1.0
  C  C1210  1  0.811000  0.962000  0.442440  1.0
  C  C1211  1  0.212000  0.439000  0.692440  1.0
  C  C1212  1  0.311000  0.462000  0.942440  1.0
  C  C1213  1  0.189000  0.538000  0.442440  1.0
  C  C1214  1  0.788000  0.061000  0.692440  1.0
  C  C1215  1  0.689000  0.038000  0.942440  1.0
  C  C1216  1  0.288000  0.561000  0.192440  1.0
  C  C1217  1  0.288000  0.061000  0.807560  1.0
  C  C1218  1  0.189000  0.038000  0.557560  1.0
  C  C1219  1  0.788000  0.561000  0.307560  1.0
  C  C1220  1  0.689000  0.538000  0.057560  1.0
  C  C1221  1  0.811000  0.462000  0.557560  1.0
  C  C1222  1  0.212000  0.939000  0.307560  1.0
  C  C1223  1  0.311000  0.962000  0.057560  1.0
  C  C1224  1  0.712000  0.439000  0.807560  1.0
  C  C1225  1  0.697610  0.765970  0.044060  1.0
  C  C1226  1  0.984030  0.947610  0.294060  1.0
  C  C1227  1  0.197610  0.265970  0.544060  1.0
  C  C1228  1  0.484030  0.447610  0.794060  1.0
  C  C1229  1  0.015970  0.552390  0.294060  1.0
  C  C1230  1  0.802390  0.234030  0.544060  1.0
  C  C1231  1  0.515970  0.052390  0.794060  1.0
  C  C1232  1  0.302390  0.734030  0.044060  1.0
  C  C1233  1  0.302390  0.234030  0.955940  1.0
  C  C1234  1  0.015970  0.052390  0.705940  1.0
  C  C1235  1  0.802390  0.734030  0.455940  1.0
  C  C1236  1  0.515970  0.552390  0.205940  1.0
  C  C1237  1  0.984030  0.447610  0.705940  1.0
  C  C1238  1  0.197610  0.765970  0.455940  1.0
  C  C1239  1  0.484030  0.947610  0.205940  1.0
  C  C1240  1  0.697610  0.265970  0.955940  1.0
  C  C1241  1  0.648210  0.729180  0.993500  1.0
  C  C1242  1  0.020820  0.898210  0.243500  1.0
  C  C1243  1  0.148210  0.229180  0.493500  1.0
  C  C1244  1  0.520820  0.398210  0.743500  1.0
  C  C1245  1  0.979180  0.601790  0.243500  1.0
  C  C1246  1  0.851790  0.270820  0.493500  1.0
  C  C1247  1  0.479180  0.101790  0.743500  1.0
  C  C1248  1  0.351790  0.770820  0.993500  1.0
  C  C1249  1  0.351790  0.270820  0.006500  1.0
  C  C1250  1  0.979180  0.101790  0.756500  1.0
  C  C1251  1  0.851790  0.770820  0.506500  1.0
  C  C1252  1  0.479180  0.601790  0.256500  1.0
  C  C1253  1  0.020820  0.398210  0.756500  1.0
  C  C1254  1  0.148210  0.729180  0.506500  1.0
  C  C1255  1  0.520820  0.898210  0.256500  1.0
  C  C1256  1  0.648210  0.229180  0.006500  1.0
  C  C1257  1  0.569500  0.935600  0.206280  1.0
  C  C1258  1  0.814400  0.819500  0.456280  1.0
  C  C1259  1  0.069500  0.435600  0.706280  1.0
  C  C1260  1  0.314400  0.319500  0.956280  1.0
  C  C1261  1  0.185600  0.680500  0.456280  1.0
  C  C1262  1  0.930500  0.064400  0.706280  1.0
  C  C1263  1  0.685600  0.180500  0.956280  1.0
  C  C1264  1  0.430500  0.564400  0.206280  1.0
  C  C1265  1  0.430500  0.064400  0.793720  1.0
  C  C1266  1  0.185600  0.180500  0.543720  1.0
  C  C1267  1  0.930500  0.564400  0.293720  1.0
  C  C1268  1  0.685600  0.680500  0.043720  1.0
  C  C1269  1  0.814400  0.319500  0.543720  1.0
  C  C1270  1  0.069500  0.935600  0.293720  1.0
  C  C1271  1  0.314400  0.819500  0.043720  1.0
  C  C1272  1  0.569500  0.435600  0.793720  1.0
  C  C1273  1  0.567400  0.685800  0.785800  1.0
  C  C1274  1  0.064200  0.817400  0.035800  1.0
  C  C1275  1  0.067400  0.185800  0.285800  1.0
  C  C1276  1  0.564200  0.317400  0.535800  1.0
  C  C1277  1  0.935800  0.682600  0.035800  1.0
  C  C1278  1  0.932600  0.314200  0.285800  1.0
  C  C1279  1  0.435800  0.182600  0.535800  1.0
  C  C1280  1  0.432600  0.814200  0.785800  1.0
  C  C1281  1  0.432600  0.314200  0.214200  1.0
  C  C1282  1  0.935800  0.182600  0.964200  1.0
  C  C1283  1  0.932600  0.814200  0.714200  1.0
  C  C1284  1  0.435800  0.682600  0.464200  1.0
  C  C1285  1  0.064200  0.317400  0.964200  1.0
  C  C1286  1  0.067400  0.685800  0.714200  1.0
  C  C1287  1  0.564200  0.817400  0.464200  1.0
  C  C1288  1  0.567400  0.185800  0.214200  1.0
  C  C1289  1  0.600300  0.771600  0.796150  1.0
  C  C1290  1  0.978400  0.850300  0.046150  1.0
  C  C1291  1  0.100300  0.271600  0.296150  1.0
  C  C1292  1  0.478400  0.350300  0.546150  1.0
  C  C1293  1  0.021600  0.649700  0.046150  1.0
  C  C1294  1  0.899700  0.228400  0.296150  1.0
  C  C1295  1  0.521600  0.149700  0.546150  1.0
  C  C1296  1  0.399700  0.728400  0.796150  1.0
  C  C1297  1  0.399700  0.228400  0.203850  1.0
  C  C1298  1  0.021600  0.149700  0.953850  1.0
  C  C1299  1  0.899700  0.728400  0.703850  1.0
  C  C1300  1  0.521600  0.649700  0.453850  1.0
  C  C1301  1  0.978400  0.350300  0.953850  1.0
  C  C1302  1  0.100300  0.771600  0.703850  1.0
  C  C1303  1  0.478400  0.850300  0.453850  1.0
  C  C1304  1  0.600300  0.271600  0.203850  1.0
  C  C1305  1  0.527700  0.758800  0.749300  1.0
  C  C1306  1  0.991200  0.777700  0.999300  1.0
  C  C1307  1  0.027700  0.258800  0.249300  1.0
  C  C1308  1  0.491200  0.277700  0.499300  1.0
  C  C1309  1  0.008800  0.722300  0.999300  1.0
  C  C1310  1  0.972300  0.241200  0.249300  1.0
  C  C1311  1  0.508800  0.222300  0.499300  1.0
  C  C1312  1  0.472300  0.741200  0.749300  1.0
  C  C1313  1  0.472300  0.241200  0.250700  1.0
  C  C1314  1  0.008800  0.222300  0.000700  1.0
  C  C1315  1  0.972300  0.741200  0.750700  1.0
  C  C1316  1  0.508800  0.722300  0.500700  1.0
  C  C1317  1  0.991200  0.277700  0.000700  1.0
  C  C1318  1  0.027700  0.758800  0.750700  1.0
  C  C1319  1  0.491200  0.777700  0.500700  1.0
  C  C1320  1  0.527700  0.258800  0.250700  1.0
  C  C1321  1  0.888400  0.920700  0.110400  1.0
  C  C1322  1  0.829300  0.138400  0.360400  1.0
  C  C1323  1  0.388400  0.420700  0.610400  1.0
  C  C1324  1  0.329300  0.638400  0.860400  1.0
  C  C1325  1  0.170700  0.361600  0.360400  1.0
  C  C1326  1  0.611600  0.079300  0.610400  1.0
  C  C1327  1  0.670700  0.861600  0.860400  1.0
  C  C1328  1  0.111600  0.579300  0.110400  1.0
  C  C1329  1  0.111600  0.079300  0.889600  1.0
  C  C1330  1  0.170700  0.861600  0.639600  1.0
  C  C1331  1  0.611600  0.579300  0.389600  1.0
  C  C1332  1  0.670700  0.361600  0.139600  1.0
  C  C1333  1  0.829300  0.638400  0.639600  1.0
  C  C1334  1  0.388400  0.920700  0.389600  1.0
  C  C1335  1  0.329300  0.138400  0.139600  1.0
  C  C1336  1  0.888400  0.420700  0.889600  1.0
  C  C1337  1  0.856300  0.979700  0.056000  1.0
  C  C1338  1  0.770300  0.106300  0.306000  1.0
  C  C1339  1  0.356300  0.479700  0.556000  1.0
  C  C1340  1  0.270300  0.606300  0.806000  1.0
  C  C1341  1  0.229700  0.393700  0.306000  1.0
  C  C1342  1  0.643700  0.020300  0.556000  1.0
  C  C1343  1  0.729700  0.893700  0.806000  1.0
  C  C1344  1  0.143700  0.520300  0.056000  1.0
  C  C1345  1  0.143700  0.020300  0.944000  1.0
  C  C1346  1  0.229700  0.893700  0.694000  1.0
  C  C1347  1  0.643700  0.520300  0.444000  1.0
  C  C1348  1  0.729700  0.393700  0.194000  1.0
  C  C1349  1  0.770300  0.606300  0.694000  1.0
  C  C1350  1  0.356300  0.979700  0.444000  1.0
  C  C1351  1  0.270300  0.106300  0.194000  1.0
  C  C1352  1  0.856300  0.479700  0.944000  1.0
  C  C1353  1  0.881100  0.013500  0.104200  1.0
  C  C1354  1  0.736500  0.131100  0.354200  1.0
  C  C1355  1  0.381100  0.513500  0.604200  1.0
  C  C1356  1  0.236500  0.631100  0.854200  1.0
  C  C1357  1  0.263500  0.368900  0.354200  1.0
  C  C1358  1  0.618900  0.986500  0.604200  1.0
  C  C1359  1  0.763500  0.868900  0.854200  1.0
  C  C1360  1  0.118900  0.486500  0.104200  1.0
  C  C1361  1  0.118900  0.986500  0.895800  1.0
  C  C1362  1  0.263500  0.868900  0.645800  1.0
  C  C1363  1  0.618900  0.486500  0.395800  1.0
  C  C1364  1  0.763500  0.368900  0.145800  1.0
  C  C1365  1  0.736500  0.631100  0.645800  1.0
  C  C1366  1  0.381100  0.013500  0.395800  1.0
  C  C1367  1  0.236500  0.131100  0.145800  1.0
  C  C1368  1  0.881100  0.513500  0.895800  1.0
  C  C1369  1  0.871300  0.029700  0.149200  1.0
  C  C1370  1  0.720300  0.121300  0.399200  1.0
  C  C1371  1  0.371300  0.529700  0.649200  1.0
  C  C1372  1  0.220300  0.621300  0.899200  1.0
  C  C1373  1  0.279700  0.378700  0.399200  1.0
  C  C1374  1  0.628700  0.970300  0.649200  1.0
  C  C1375  1  0.779700  0.878700  0.899200  1.0
  C  C1376  1  0.128700  0.470300  0.149200  1.0
  C  C1377  1  0.128700  0.970300  0.850800  1.0
  C  C1378  1  0.279700  0.878700  0.600800  1.0
  C  C1379  1  0.628700  0.470300  0.350800  1.0
  C  C1380  1  0.779700  0.378700  0.100800  1.0
  C  C1381  1  0.720300  0.621300  0.600800  1.0
  C  C1382  1  0.371300  0.029700  0.350800  1.0
  C  C1383  1  0.220300  0.121300  0.100800  1.0
  C  C1384  1  0.871300  0.529700  0.850800  1.0
  C  C1385  1  0.788800  0.072700  0.139000  1.0
  C  C1386  1  0.677300  0.038800  0.389000  1.0
  C  C1387  1  0.288800  0.572700  0.639000  1.0
  C  C1388  1  0.177300  0.538800  0.889000  1.0
  C  C1389  1  0.322700  0.461200  0.389000  1.0
  C  C1390  1  0.711200  0.927300  0.639000  1.0
  C  C1391  1  0.822700  0.961200  0.889000  1.0
  C  C1392  1  0.211200  0.427300  0.139000  1.0
  C  C1393  1  0.211200  0.927300  0.861000  1.0
  C  C1394  1  0.322700  0.961200  0.611000  1.0
  C  C1395  1  0.711200  0.427300  0.361000  1.0
  C  C1396  1  0.822700  0.461200  0.111000  1.0
  C  C1397  1  0.677300  0.538800  0.611000  1.0
  C  C1398  1  0.288800  0.072700  0.361000  1.0
  C  C1399  1  0.177300  0.038800  0.111000  1.0
  C  C1400  1  0.788800  0.572700  0.861000  1.0
  C  C1401  1  0.805000  0.026600  0.204000  1.0
  C  C1402  1  0.723400  0.055000  0.454000  1.0
  C  C1403  1  0.305000  0.526600  0.704000  1.0
  C  C1404  1  0.223400  0.555000  0.954000  1.0
  C  C1405  1  0.276600  0.445000  0.454000  1.0
  C  C1406  1  0.695000  0.973400  0.704000  1.0
  C  C1407  1  0.776600  0.945000  0.954000  1.0
  C  C1408  1  0.195000  0.473400  0.204000  1.0
  C  C1409  1  0.195000  0.973400  0.796000  1.0
  C  C1410  1  0.276600  0.945000  0.546000  1.0
  C  C1411  1  0.695000  0.473400  0.296000  1.0
  C  C1412  1  0.776600  0.445000  0.046000  1.0
  C  C1413  1  0.723400  0.555000  0.546000  1.0
  C  C1414  1  0.305000  0.026600  0.296000  1.0
  C  C1415  1  0.223400  0.055000  0.046000  1.0
  C  C1416  1  0.805000  0.526600  0.796000  1.0
  C  C1417  1  0.554000  0.881600  0.096600  1.0
  C  C1418  1  0.868400  0.804000  0.346600  1.0
  C  C1419  1  0.054000  0.381600  0.596600  1.0
  C  C1420  1  0.368400  0.304000  0.846600  1.0
  C  C1421  1  0.131600  0.696000  0.346600  1.0
  C  C1422  1  0.946000  0.118400  0.596600  1.0
  C  C1423  1  0.631600  0.196000  0.846600  1.0
  C  C1424  1  0.446000  0.618400  0.096600  1.0
  C  C1425  1  0.446000  0.118400  0.903400  1.0
  C  C1426  1  0.131600  0.196000  0.653400  1.0
  C  C1427  1  0.946000  0.618400  0.403400  1.0
  C  C1428  1  0.631600  0.696000  0.153400  1.0
  C  C1429  1  0.868400  0.304000  0.653400  1.0
  C  C1430  1  0.054000  0.881600  0.403400  1.0
  C  C1431  1  0.368400  0.804000  0.153400  1.0
  C  C1432  1  0.554000  0.381600  0.903400  1.0
  C  C1433  1  0.525400  0.911200  0.069000  1.0
  C  C1434  1  0.838800  0.775400  0.319000  1.0
  C  C1435  1  0.025400  0.411200  0.569000  1.0
  C  C1436  1  0.338800  0.275400  0.819000  1.0
  C  C1437  1  0.161200  0.724600  0.319000  1.0
  C  C1438  1  0.974600  0.088800  0.569000  1.0
  C  C1439  1  0.661200  0.224600  0.819000  1.0
  C  C1440  1  0.474600  0.588800  0.069000  1.0
  C  C1441  1  0.474600  0.088800  0.931000  1.0
  C  C1442  1  0.161200  0.224600  0.681000  1.0
  C  C1443  1  0.974600  0.588800  0.431000  1.0
  C  C1444  1  0.661200  0.724600  0.181000  1.0
  C  C1445  1  0.838800  0.275400  0.681000  1.0
  C  C1446  1  0.025400  0.911200  0.431000  1.0
  C  C1447  1  0.338800  0.775400  0.181000  1.0
  C  C1448  1  0.525400  0.411200  0.931000  1.0
  C  C1449  1  0.472000  0.910200  0.071300  1.0
  C  C1450  1  0.839800  0.722000  0.321300  1.0
  C  C1451  1  0.972000  0.410200  0.571300  1.0
  C  C1452  1  0.339800  0.222000  0.821300  1.0
  C  C1453  1  0.160200  0.778000  0.321300  1.0
  C  C1454  1  0.028000  0.089800  0.571300  1.0
  C  C1455  1  0.660200  0.278000  0.821300  1.0
  C  C1456  1  0.528000  0.589800  0.071300  1.0
  C  C1457  1  0.528000  0.089800  0.928700  1.0
  C  C1458  1  0.160200  0.278000  0.678700  1.0
  C  C1459  1  0.028000  0.589800  0.428700  1.0
  C  C1460  1  0.660200  0.778000  0.178700  1.0
  C  C1461  1  0.839800  0.222000  0.678700  1.0
  C  C1462  1  0.972000  0.910200  0.428700  1.0
  C  C1463  1  0.339800  0.722000  0.178700  1.0
  C  C1464  1  0.472000  0.410200  0.928700  1.0
  C  C1465  1  0.448100  0.879900  0.101300  1.0
  C  C1466  1  0.870100  0.698100  0.351300  1.0
  C  C1467  1  0.948100  0.379900  0.601300  1.0
  C  C1468  1  0.370100  0.198100  0.851300  1.0
  C  C1469  1  0.129900  0.801900  0.351300  1.0
  C  C1470  1  0.051900  0.120100  0.601300  1.0
  C  C1471  1  0.629900  0.301900  0.851300  1.0
  C  C1472  1  0.551900  0.620100  0.101300  1.0
  C  C1473  1  0.551900  0.120100  0.898700  1.0
  C  C1474  1  0.129900  0.301900  0.648700  1.0
  C  C1475  1  0.051900  0.620100  0.398700  1.0
  C  C1476  1  0.629900  0.801900  0.148700  1.0
  C  C1477  1  0.870100  0.198100  0.648700  1.0
  C  C1478  1  0.948100  0.879900  0.398700  1.0
  C  C1479  1  0.370100  0.698100  0.148700  1.0
  C  C1480  1  0.448100  0.379900  0.898700  1.0
  C  C1481  1  0.476700  0.850200  0.130500  1.0
  C  C1482  1  0.899800  0.726700  0.380500  1.0
  C  C1483  1  0.976700  0.350200  0.630500  1.0
  C  C1484  1  0.399800  0.226700  0.880500  1.0
  C  C1485  1  0.100200  0.773300  0.380500  1.0
  C  C1486  1  0.023300  0.149800  0.630500  1.0
  C  C1487  1  0.600200  0.273300  0.880500  1.0
  C  C1488  1  0.523300  0.649800  0.130500  1.0
  C  C1489  1  0.523300  0.149800  0.869500  1.0
  C  C1490  1  0.100200  0.273300  0.619500  1.0
  C  C1491  1  0.023300  0.649800  0.369500  1.0
  C  C1492  1  0.600200  0.773300  0.119500  1.0
  C  C1493  1  0.899800  0.226700  0.619500  1.0
  C  C1494  1  0.976700  0.850200  0.369500  1.0
  C  C1495  1  0.399800  0.726700  0.119500  1.0
  C  C1496  1  0.476700  0.350200  0.869500  1.0
  C  C1497  1  0.530600  0.851000  0.127900  1.0
  C  C1498  1  0.899000  0.780600  0.377900  1.0
  C  C1499  1  0.030600  0.351000  0.627900  1.0
  C  C1500  1  0.399000  0.280600  0.877900  1.0
  C  C1501  1  0.101000  0.719400  0.377900  1.0
  C  C1502  1  0.969400  0.149000  0.627900  1.0
  C  C1503  1  0.601000  0.219400  0.877900  1.0
  C  C1504  1  0.469400  0.649000  0.127900  1.0
  C  C1505  1  0.469400  0.149000  0.872100  1.0
  C  C1506  1  0.101000  0.219400  0.622100  1.0
  C  C1507  1  0.969400  0.649000  0.372100  1.0
  C  C1508  1  0.601000  0.719400  0.122100  1.0
  C  C1509  1  0.899000  0.280600  0.622100  1.0
  C  C1510  1  0.030600  0.851000  0.372100  1.0
  C  C1511  1  0.399000  0.780600  0.122100  1.0
  C  C1512  1  0.530600  0.351000  0.872100  1.0
  C  C1513  1  0.561400  0.821000  0.158200  1.0
  C  C1514  1  0.929000  0.811400  0.408200  1.0
  C  C1515  1  0.061400  0.321000  0.658200  1.0
  C  C1516  1  0.429000  0.311400  0.908200  1.0
  C  C1517  1  0.071000  0.688600  0.408200  1.0
  C  C1518  1  0.938600  0.179000  0.658200  1.0
  C  C1519  1  0.571000  0.188600  0.908200  1.0
  C  C1520  1  0.438600  0.679000  0.158200  1.0
  C  C1521  1  0.438600  0.179000  0.841800  1.0
  C  C1522  1  0.071000  0.188600  0.591800  1.0
  C  C1523  1  0.938600  0.679000  0.341800  1.0
  C  C1524  1  0.571000  0.688600  0.091800  1.0
  C  C1525  1  0.929000  0.311400  0.591800  1.0
  C  C1526  1  0.061400  0.821000  0.341800  1.0
  C  C1527  1  0.429000  0.811400  0.091800  1.0
  C  C1528  1  0.561400  0.321000  0.841800  1.0
  C  C1529  1  0.537000  0.792100  0.190400  1.0
  C  C1530  1  0.957900  0.787000  0.440400  1.0
  C  C1531  1  0.037000  0.292100  0.690400  1.0
  C  C1532  1  0.457900  0.287000  0.940400  1.0
  C  C1533  1  0.042100  0.713000  0.440400  1.0
  C  C1534  1  0.963000  0.207900  0.690400  1.0
  C  C1535  1  0.542100  0.213000  0.940400  1.0
  C  C1536  1  0.463000  0.707900  0.190400  1.0
  C  C1537  1  0.463000  0.207900  0.809600  1.0
  C  C1538  1  0.042100  0.213000  0.559600  1.0
  C  C1539  1  0.963000  0.707900  0.309600  1.0
  C  C1540  1  0.542100  0.713000  0.059600  1.0
  C  C1541  1  0.957900  0.287000  0.559600  1.0
  C  C1542  1  0.037000  0.792100  0.309600  1.0
  C  C1543  1  0.457900  0.787000  0.059600  1.0
  C  C1544  1  0.537000  0.292100  0.809600  1.0
  C  C1545  1  0.480900  0.792100  0.193400  1.0
  C  C1546  1  0.957900  0.730900  0.443400  1.0
  C  C1547  1  0.980900  0.292100  0.693400  1.0
  C  C1548  1  0.457900  0.230900  0.943400  1.0
  C  C1549  1  0.042100  0.769100  0.443400  1.0
  C  C1550  1  0.019100  0.207900  0.693400  1.0
  C  C1551  1  0.542100  0.269100  0.943400  1.0
  C  C1552  1  0.519100  0.707900  0.193400  1.0
  C  C1553  1  0.519100  0.207900  0.806600  1.0
  C  C1554  1  0.042100  0.269100  0.556600  1.0
  C  C1555  1  0.019100  0.707900  0.306600  1.0
  C  C1556  1  0.542100  0.769100  0.056600  1.0
  C  C1557  1  0.957900  0.230900  0.556600  1.0
  C  C1558  1  0.980900  0.792100  0.306600  1.0
  C  C1559  1  0.457900  0.730900  0.056600  1.0
  C  C1560  1  0.480900  0.292100  0.806600  1.0
  C  C1561  1  0.451100  0.820200  0.164100  1.0
  C  C1562  1  0.929800  0.701100  0.414100  1.0
  C  C1563  1  0.951100  0.320200  0.664100  1.0
  C  C1564  1  0.429800  0.201100  0.914100  1.0
  C  C1565  1  0.070200  0.798900  0.414100  1.0
  C  C1566  1  0.048900  0.179800  0.664100  1.0
  C  C1567  1  0.570200  0.298900  0.914100  1.0
  C  C1568  1  0.548900  0.679800  0.164100  1.0
  C  C1569  1  0.548900  0.179800  0.835900  1.0
  C  C1570  1  0.070200  0.298900  0.585900  1.0
  C  C1571  1  0.048900  0.679800  0.335900  1.0
  C  C1572  1  0.570200  0.798900  0.085900  1.0
  C  C1573  1  0.929800  0.201100  0.585900  1.0
  C  C1574  1  0.951100  0.820200  0.335900  1.0
  C  C1575  1  0.429800  0.701100  0.085900  1.0
  C  C1576  1  0.451100  0.320200  0.835900  1.0
  C  C1577  1  0.570300  0.852800  0.081400  1.0
  C  C1578  1  0.897200  0.820300  0.331400  1.0
  C  C1579  1  0.070300  0.352800  0.581400  1.0
  C  C1580  1  0.397200  0.320300  0.831400  1.0
  C  C1581  1  0.102800  0.679700  0.331400  1.0
  C  C1582  1  0.929700  0.147200  0.581400  1.0
  C  C1583  1  0.602800  0.179700  0.831400  1.0
  C  C1584  1  0.429700  0.647200  0.081400  1.0
  C  C1585  1  0.429700  0.147200  0.918600  1.0
  C  C1586  1  0.102800  0.179700  0.668600  1.0
  C  C1587  1  0.929700  0.647200  0.418600  1.0
  C  C1588  1  0.602800  0.679700  0.168600  1.0
  C  C1589  1  0.897200  0.320300  0.668600  1.0
  C  C1590  1  0.070300  0.852800  0.418600  1.0
  C  C1591  1  0.397200  0.820300  0.168600  1.0
  C  C1592  1  0.570300  0.352800  0.918600  1.0
  C  C1593  1  0.544000  0.876800  0.049200  1.0
  C  C1594  1  0.873200  0.794000  0.299200  1.0
  C  C1595  1  0.044000  0.376800  0.549200  1.0
  C  C1596  1  0.373200  0.294000  0.799200  1.0
  C  C1597  1  0.126800  0.706000  0.299200  1.0
  C  C1598  1  0.956000  0.123200  0.549200  1.0
  C  C1599  1  0.626800  0.206000  0.799200  1.0
  C  C1600  1  0.456000  0.623200  0.049200  1.0
  C  C1601  1  0.456000  0.123200  0.950800  1.0
  C  C1602  1  0.126800  0.206000  0.700800  1.0
  C  C1603  1  0.956000  0.623200  0.450800  1.0
  C  C1604  1  0.626800  0.706000  0.200800  1.0
  C  C1605  1  0.873200  0.294000  0.700800  1.0
  C  C1606  1  0.044000  0.876800  0.450800  1.0
  C  C1607  1  0.373200  0.794000  0.200800  1.0
  C  C1608  1  0.544000  0.376800  0.950800  1.0
  C  C1609  1  0.516100  0.847600  0.020200  1.0
  C  C1610  1  0.902400  0.766100  0.270200  1.0
  C  C1611  1  0.016100  0.347600  0.520200  1.0
  C  C1612  1  0.402400  0.266100  0.770200  1.0
  C  C1613  1  0.097600  0.733900  0.270200  1.0
  C  C1614  1  0.983900  0.152400  0.520200  1.0
  C  C1615  1  0.597600  0.233900  0.770200  1.0
  C  C1616  1  0.483900  0.652400  0.020200  1.0
  C  C1617  1  0.483900  0.152400  0.979800  1.0
  C  C1618  1  0.097600  0.233900  0.729800  1.0
  C  C1619  1  0.983900  0.652400  0.479800  1.0
  C  C1620  1  0.597600  0.733900  0.229800  1.0
  C  C1621  1  0.902400  0.266100  0.729800  1.0
  C  C1622  1  0.016100  0.847600  0.479800  1.0
  C  C1623  1  0.402400  0.766100  0.229800  1.0
  C  C1624  1  0.516100  0.347600  0.979800  1.0
  C  C1625  1  0.455200  0.765300  0.226200  1.0
  C  C1626  1  0.984700  0.705200  0.476200  1.0
  C  C1627  1  0.955200  0.265300  0.726200  1.0
  C  C1628  1  0.484700  0.205200  0.976200  1.0
  C  C1629  1  0.015300  0.794800  0.476200  1.0
  C  C1630  1  0.044800  0.234700  0.726200  1.0
  C  C1631  1  0.515300  0.294800  0.976200  1.0
  C  C1632  1  0.544800  0.734700  0.226200  1.0
  C  C1633  1  0.544800  0.234700  0.773800  1.0
  C  C1634  1  0.015300  0.294800  0.523800  1.0
  C  C1635  1  0.044800  0.734700  0.273800  1.0
  C  C1636  1  0.515300  0.794800  0.023800  1.0
  C  C1637  1  0.984700  0.205200  0.523800  1.0
  C  C1638  1  0.955200  0.765300  0.273800  1.0
  C  C1639  1  0.484700  0.705200  0.023800  1.0
  C  C1640  1  0.455200  0.265300  0.773800  1.0
  C  C1641  1  0.567600  0.763700  0.218700  1.0
  C  C1642  1  0.986300  0.817600  0.468700  1.0
  C  C1643  1  0.067600  0.263700  0.718700  1.0
  C  C1644  1  0.486300  0.317600  0.968700  1.0
  C  C1645  1  0.013700  0.682400  0.468700  1.0
  C  C1646  1  0.932400  0.236300  0.718700  1.0
  C  C1647  1  0.513700  0.182400  0.968700  1.0
  C  C1648  1  0.432400  0.736300  0.218700  1.0
  C  C1649  1  0.432400  0.236300  0.781300  1.0
  C  C1650  1  0.013700  0.182400  0.531300  1.0
  C  C1651  1  0.932400  0.736300  0.281300  1.0
  C  C1652  1  0.513700  0.682400  0.031300  1.0
  C  C1653  1  0.986300  0.317600  0.531300  1.0
  C  C1654  1  0.067600  0.763700  0.281300  1.0
  C  C1655  1  0.486300  0.817600  0.031300  1.0
  C  C1656  1  0.567600  0.263700  0.781300  1.0
  C  C1657  1  0.487200  0.870500  0.034700  1.0
  C  C1658  1  0.879500  0.737200  0.284700  1.0
  C  C1659  1  0.987200  0.370500  0.534700  1.0
  C  C1660  1  0.379500  0.237200  0.784700  1.0
  C  C1661  1  0.120500  0.762800  0.284700  1.0
  C  C1662  1  0.012800  0.129500  0.534700  1.0
  C  C1663  1  0.620500  0.262800  0.784700  1.0
  C  C1664  1  0.512800  0.629500  0.034700  1.0
  C  C1665  1  0.512800  0.129500  0.965300  1.0
  C  C1666  1  0.120500  0.262800  0.715300  1.0
  C  C1667  1  0.012800  0.629500  0.465300  1.0
  C  C1668  1  0.620500  0.762800  0.215300  1.0
  C  C1669  1  0.879500  0.237200  0.715300  1.0
  C  C1670  1  0.987200  0.870500  0.465300  1.0
  C  C1671  1  0.379500  0.737200  0.215300  1.0
  C  C1672  1  0.487200  0.370500  0.965300  1.0
  C  C1673  1  0.458900  0.894400  0.066400  1.0
  C  C1674  1  0.855600  0.708900  0.316400  1.0
  C  C1675  1  0.958900  0.394400  0.566400  1.0
  C  C1676  1  0.355600  0.208900  0.816400  1.0
  C  C1677  1  0.144400  0.791100  0.316400  1.0
  C  C1678  1  0.041100  0.105600  0.566400  1.0
  C  C1679  1  0.644400  0.291100  0.816400  1.0
  C  C1680  1  0.541100  0.605600  0.066400  1.0
  C  C1681  1  0.541100  0.105600  0.933600  1.0
  C  C1682  1  0.144400  0.291100  0.683600  1.0
  C  C1683  1  0.041100  0.605600  0.433600  1.0
  C  C1684  1  0.644400  0.791100  0.183600  1.0
  C  C1685  1  0.855600  0.208900  0.683600  1.0
  C  C1686  1  0.958900  0.894400  0.433600  1.0
  C  C1687  1  0.355600  0.708900  0.183600  1.0
  C  C1688  1  0.458900  0.394400  0.933600  1.0
  C  C1689  1  0.430400  0.865500  0.094400  1.0
  C  C1690  1  0.884500  0.680400  0.344400  1.0
  C  C1691  1  0.930400  0.365500  0.594400  1.0
  C  C1692  1  0.384500  0.180400  0.844400  1.0
  C  C1693  1  0.115500  0.819600  0.344400  1.0
  C  C1694  1  0.069600  0.134500  0.594400  1.0
  C  C1695  1  0.615500  0.319600  0.844400  1.0
  C  C1696  1  0.569600  0.634500  0.094400  1.0
  C  C1697  1  0.569600  0.134500  0.905600  1.0
  C  C1698  1  0.115500  0.319600  0.655600  1.0
  C  C1699  1  0.069600  0.634500  0.405600  1.0
  C  C1700  1  0.615500  0.819600  0.155600  1.0
  C  C1701  1  0.884500  0.180400  0.655600  1.0
  C  C1702  1  0.930400  0.865500  0.405600  1.0
  C  C1703  1  0.384500  0.680400  0.155600  1.0
  C  C1704  1  0.430400  0.365500  0.905600  1.0
  C  C1705  1  0.511000  0.837000  0.981200  1.0
  C  C1706  1  0.913000  0.761000  0.231200  1.0
  C  C1707  1  0.011000  0.337000  0.481200  1.0
  C  C1708  1  0.413000  0.261000  0.731200  1.0
  C  C1709  1  0.087000  0.739000  0.231200  1.0
  C  C1710  1  0.989000  0.163000  0.481200  1.0
  C  C1711  1  0.587000  0.239000  0.731200  1.0
  C  C1712  1  0.489000  0.663000  0.981200  1.0
  C  C1713  1  0.489000  0.163000  0.018800  1.0
  C  C1714  1  0.087000  0.239000  0.768800  1.0
  C  C1715  1  0.989000  0.663000  0.518800  1.0
  C  C1716  1  0.587000  0.739000  0.268800  1.0
  C  C1717  1  0.913000  0.261000  0.768800  1.0
  C  C1718  1  0.011000  0.837000  0.518800  1.0
  C  C1719  1  0.413000  0.761000  0.268800  1.0
  C  C1720  1  0.511000  0.337000  0.018800  1.0
  C  C1721  1  0.434900  0.787900  0.228600  1.0
  C  C1722  1  0.962100  0.684900  0.478600  1.0
  C  C1723  1  0.934900  0.287900  0.728600  1.0
  C  C1724  1  0.462100  0.184900  0.978600  1.0
  C  C1725  1  0.037900  0.815100  0.478600  1.0
  C  C1726  1  0.065100  0.212100  0.728600  1.0
  C  C1727  1  0.537900  0.315100  0.978600  1.0
  C  C1728  1  0.565100  0.712100  0.228600  1.0
  C  C1729  1  0.565100  0.212100  0.771400  1.0
  C  C1730  1  0.037900  0.315100  0.521400  1.0
  C  C1731  1  0.065100  0.712100  0.271400  1.0
  C  C1732  1  0.537900  0.815100  0.021400  1.0
  C  C1733  1  0.962100  0.184900  0.521400  1.0
  C  C1734  1  0.934900  0.787900  0.271400  1.0
  C  C1735  1  0.462100  0.684900  0.021400  1.0
  C  C1736  1  0.434900  0.287900  0.771400  1.0
  C  C1737  1  0.402900  0.819100  0.203000  1.0
  C  C1738  1  0.930900  0.652900  0.453000  1.0
  C  C1739  1  0.902900  0.319100  0.703000  1.0
  C  C1740  1  0.430900  0.152900  0.953000  1.0
  C  C1741  1  0.069100  0.847100  0.453000  1.0
  C  C1742  1  0.097100  0.180900  0.703000  1.0
  C  C1743  1  0.569100  0.347100  0.953000  1.0
  C  C1744  1  0.597100  0.680900  0.203000  1.0
  C  C1745  1  0.597100  0.180900  0.797000  1.0
  C  C1746  1  0.069100  0.347100  0.547000  1.0
  C  C1747  1  0.097100  0.680900  0.297000  1.0
  C  C1748  1  0.569100  0.847100  0.047000  1.0
  C  C1749  1  0.930900  0.152900  0.547000  1.0
  C  C1750  1  0.902900  0.819100  0.297000  1.0
  C  C1751  1  0.430900  0.652900  0.047000  1.0
  C  C1752  1  0.402900  0.319100  0.797000  1.0
  C  C1753  1  0.433600  0.836700  0.167900  1.0
  C  C1754  1  0.913300  0.683600  0.417900  1.0
  C  C1755  1  0.933600  0.336700  0.667900  1.0
  C  C1756  1  0.413300  0.183600  0.917900  1.0
  C  C1757  1  0.086700  0.816400  0.417900  1.0
  C  C1758  1  0.066400  0.163300  0.667900  1.0
  C  C1759  1  0.586700  0.316400  0.917900  1.0
  C  C1760  1  0.566400  0.663300  0.167900  1.0
  C  C1761  1  0.566400  0.163300  0.832100  1.0
  C  C1762  1  0.086700  0.316400  0.582100  1.0
  C  C1763  1  0.066400  0.663300  0.332100  1.0
  C  C1764  1  0.586700  0.816400  0.082100  1.0
  C  C1765  1  0.913300  0.183600  0.582100  1.0
  C  C1766  1  0.933600  0.836700  0.332100  1.0
  C  C1767  1  0.413300  0.683600  0.082100  1.0
  C  C1768  1  0.433600  0.336700  0.832100  1.0
  C  C1769  1  0.482800  0.814200  0.172700  1.0
  C  C1770  1  0.935800  0.732800  0.422700  1.0
  C  C1771  1  0.982800  0.314200  0.672700  1.0
  C  C1772  1  0.435800  0.232800  0.922700  1.0
  C  C1773  1  0.064200  0.767200  0.422700  1.0
  C  C1774  1  0.017200  0.185800  0.672700  1.0
  C  C1775  1  0.564200  0.267200  0.922700  1.0
  C  C1776  1  0.517200  0.685800  0.172700  1.0
  C  C1777  1  0.517200  0.185800  0.827300  1.0
  C  C1778  1  0.064200  0.267200  0.577300  1.0
  C  C1779  1  0.017200  0.685800  0.327300  1.0
  C  C1780  1  0.564200  0.767200  0.077300  1.0
  C  C1781  1  0.935800  0.232800  0.577300  1.0
  C  C1782  1  0.982800  0.814200  0.327300  1.0
  C  C1783  1  0.435800  0.732800  0.077300  1.0
  C  C1784  1  0.482800  0.314200  0.827300  1.0
  C  C1785  1  0.484500  0.781700  0.209800  1.0
  C  C1786  1  0.968300  0.734500  0.459800  1.0
  C  C1787  1  0.984500  0.281700  0.709800  1.0
  C  C1788  1  0.468300  0.234500  0.959800  1.0
  C  C1789  1  0.031700  0.765500  0.459800  1.0
  C  C1790  1  0.015500  0.218300  0.709800  1.0
  C  C1791  1  0.531700  0.265500  0.959800  1.0
  C  C1792  1  0.515500  0.718300  0.209800  1.0
  C  C1793  1  0.515500  0.218300  0.790200  1.0
  C  C1794  1  0.031700  0.265500  0.540200  1.0
  C  C1795  1  0.015500  0.718300  0.290200  1.0
  C  C1796  1  0.531700  0.765500  0.040200  1.0
  C  C1797  1  0.968300  0.234500  0.540200  1.0
  C  C1798  1  0.984500  0.781700  0.290200  1.0
  C  C1799  1  0.468300  0.734500  0.040200  1.0
  C  C1800  1  0.484500  0.281700  0.790200  1.0
  C  C1801  1  0.467200  0.882400  0.070300  1.0
  C  C1802  1  0.867600  0.717200  0.320300  1.0
  C  C1803  1  0.967200  0.382400  0.570300  1.0
  C  C1804  1  0.367600  0.217200  0.820300  1.0
  C  C1805  1  0.132400  0.782800  0.320300  1.0
  C  C1806  1  0.032800  0.117600  0.570300  1.0
  C  C1807  1  0.632400  0.282800  0.820300  1.0
  C  C1808  1  0.532800  0.617600  0.070300  1.0
  C  C1809  1  0.532800  0.117600  0.929700  1.0
  C  C1810  1  0.132400  0.282800  0.679700  1.0
  C  C1811  1  0.032800  0.617600  0.429700  1.0
  C  C1812  1  0.632400  0.782800  0.179700  1.0
  C  C1813  1  0.867600  0.217200  0.679700  1.0
  C  C1814  1  0.967200  0.882400  0.429700  1.0
  C  C1815  1  0.367600  0.717200  0.179700  1.0
  C  C1816  1  0.467200  0.382400  0.929700  1.0
  C  C1817  1  0.538200  0.801900  0.171800  1.0
  C  C1818  1  0.948100  0.788200  0.421800  1.0
  C  C1819  1  0.038200  0.301900  0.671800  1.0
  C  C1820  1  0.448100  0.288200  0.921800  1.0
  C  C1821  1  0.051900  0.711800  0.421800  1.0
  C  C1822  1  0.961800  0.198100  0.671800  1.0
  C  C1823  1  0.551900  0.211800  0.921800  1.0
  C  C1824  1  0.461800  0.698100  0.171800  1.0
  C  C1825  1  0.461800  0.198100  0.828200  1.0
  C  C1826  1  0.051900  0.211800  0.578200  1.0
  C  C1827  1  0.961800  0.698100  0.328200  1.0
  C  C1828  1  0.551900  0.711800  0.078200  1.0
  C  C1829  1  0.948100  0.288200  0.578200  1.0
  C  C1830  1  0.038200  0.801900  0.328200  1.0
  C  C1831  1  0.448100  0.788200  0.078200  1.0
  C  C1832  1  0.538200  0.301900  0.828200  1.0
  N  N1833  1  0.401900  0.574500  0.966000  1
  N  N1834  1  0.175500  0.651900  0.216000  1
  N  N1835  1  0.901900  0.074500  0.466000  1
  N  N1836  1  0.675500  0.151900  0.716000  1
  N  N1837  1  0.824500  0.848100  0.216000  1
  N  N1838  1  0.098100  0.425500  0.466000  1
  N  N1839  1  0.324500  0.348100  0.716000  1
  N  N1840  1  0.598100  0.925500  0.966000  1
  N  N1841  1  0.598100  0.425500  0.034000  1
  N  N1842  1  0.824500  0.348100  0.784000  1
  N  N1843  1  0.098100  0.925500  0.534000  1
  N  N1844  1  0.324500  0.848100  0.284000  1
  N  N1845  1  0.175500  0.151900  0.784000  1
  N  N1846  1  0.901900  0.574500  0.534000  1
  N  N1847  1  0.675500  0.651900  0.284000  1
  N  N1848  1  0.401900  0.074500  0.034000  1
  N  N1849  1  0.731300  0.574800  0.951600  1
  N  N1850  1  0.175200  0.981300  0.201600  1
  N  N1851  1  0.231300  0.074800  0.451600  1
  N  N1852  1  0.675200  0.481300  0.701600  1
  N  N1853  1  0.824800  0.518700  0.201600  1
  N  N1854  1  0.768700  0.425200  0.451600  1
  N  N1855  1  0.324800  0.018700  0.701600  1
  N  N1856  1  0.268700  0.925200  0.951600  1
  N  N1857  1  0.268700  0.425200  0.048400  1
  N  N1858  1  0.824800  0.018700  0.798400  1
  N  N1859  1  0.768700  0.925200  0.548400  1
  N  N1860  1  0.324800  0.518700  0.298400  1
  N  N1861  1  0.175200  0.481300  0.798400  1
  N  N1862  1  0.231300  0.574800  0.548400  1
  N  N1863  1  0.675200  0.981300  0.298400  1
  N  N1864  1  0.731300  0.074800  0.048400  1
  N  N1865  1  0.470000  0.030900  0.641200  1
  N  N1866  1  0.719100  0.720000  0.891200  1
  N  N1867  1  0.970000  0.530900  0.141200  1
  N  N1868  1  0.219100  0.220000  0.391200  1
  N  N1869  1  0.280900  0.780000  0.891200  1
  N  N1870  1  0.030000  0.969100  0.141200  1
  N  N1871  1  0.780900  0.280000  0.391200  1
  N  N1872  1  0.530000  0.469100  0.641200  1
  N  N1873  1  0.530000  0.969100  0.358800  1
  N  N1874  1  0.280900  0.280000  0.108800  1
  N  N1875  1  0.030000  0.469100  0.858800  1
  N  N1876  1  0.780900  0.780000  0.608800  1
  N  N1877  1  0.719100  0.220000  0.108800  1
  N  N1878  1  0.970000  0.030900  0.858800  1
  N  N1879  1  0.219100  0.720000  0.608800  1
  N  N1880  1  0.470000  0.530900  0.358800  1
  N  N1881  1  0.353200  0.824100  0.502200  1
  N  N1882  1  0.925900  0.603200  0.752200  1
  N  N1883  1  0.853200  0.324100  0.002200  1
  N  N1884  1  0.425900  0.103200  0.252200  1
  N  N1885  1  0.074100  0.896800  0.752200  1
  N  N1886  1  0.146800  0.175900  0.002200  1
  N  N1887  1  0.574100  0.396800  0.252200  1
  N  N1888  1  0.646800  0.675900  0.502200  1
  N  N1889  1  0.646800  0.175900  0.497800  1
  N  N1890  1  0.074100  0.396800  0.247800  1
  N  N1891  1  0.146800  0.675900  0.997800  1
  N  N1892  1  0.574100  0.896800  0.747800  1
  N  N1893  1  0.925900  0.103200  0.247800  1
  N  N1894  1  0.853200  0.824100  0.997800  1
  N  N1895  1  0.425900  0.603200  0.747800  1
  N  N1896  1  0.353200  0.324100  0.497800  1
  N  N1897  1  0.382900  0.559900  0.983400  1
  N  N1898  1  0.190100  0.632900  0.233400  1
  N  N1899  1  0.882900  0.059900  0.483400  1
  N  N1900  1  0.690100  0.132900  0.733400  1
  N  N1901  1  0.809900  0.867100  0.233400  1
  N  N1902  1  0.117100  0.440100  0.483400  1
  N  N1903  1  0.309900  0.367100  0.733400  1
  N  N1904  1  0.617100  0.940100  0.983400  1
  N  N1905  1  0.617100  0.440100  0.016600  1
  N  N1906  1  0.809900  0.367100  0.766600  1
  N  N1907  1  0.117100  0.940100  0.516600  1
  N  N1908  1  0.309900  0.867100  0.266600  1
  N  N1909  1  0.190100  0.132900  0.766600  1
  N  N1910  1  0.882900  0.559900  0.516600  1
  N  N1911  1  0.690100  0.632900  0.266600  1
  N  N1912  1  0.382900  0.059900  0.016600  1
  N  N1913  1  0.317800  0.789300  0.501700  1
  N  N1914  1  0.960700  0.567800  0.751700  1
  N  N1915  1  0.817800  0.289300  0.001700  1
  N  N1916  1  0.460700  0.067800  0.251700  1
  N  N1917  1  0.039300  0.932200  0.751700  1
  N  N1918  1  0.182200  0.210700  0.001700  1
  N  N1919  1  0.539300  0.432200  0.251700  1
  N  N1920  1  0.682200  0.710700  0.501700  1
  N  N1921  1  0.682200  0.210700  0.498300  1
  N  N1922  1  0.039300  0.432200  0.248300  1
  N  N1923  1  0.182200  0.710700  0.998300  1
  N  N1924  1  0.539300  0.932200  0.748300  1
  N  N1925  1  0.960700  0.067800  0.248300  1
  N  N1926  1  0.817800  0.789300  0.998300  1
  N  N1927  1  0.460700  0.567800  0.748300  1
  N  N1928  1  0.317800  0.289300  0.498300  1
  N  N1929  1  0.764600  0.899620  0.097800  1.0
  N  N1930  1  0.850380  0.014600  0.347800  1.0
  N  N1931  1  0.264600  0.399620  0.597800  1.0
  N  N1932  1  0.350380  0.514600  0.847800  1.0
  N  N1933  1  0.149620  0.485400  0.347800  1.0
  N  N1934  1  0.735400  0.100380  0.597800  1.0
  N  N1935  1  0.649620  0.985400  0.847800  1.0
  N  N1936  1  0.235400  0.600380  0.097800  1.0
  N  N1937  1  0.235400  0.100380  0.902200  1.0
  N  N1938  1  0.149620  0.985400  0.652200  1.0
  N  N1939  1  0.735400  0.600380  0.402200  1.0
  N  N1940  1  0.649620  0.485400  0.152200  1.0
  N  N1941  1  0.850380  0.514600  0.652200  1.0
  N  N1942  1  0.264600  0.899620  0.402200  1.0
  N  N1943  1  0.350380  0.014600  0.152200  1.0
  N  N1944  1  0.764600  0.399620  0.902200  1.0
  N  N1945  1  0.551840  0.742370  0.885270  1.0
  N  N1946  1  0.007630  0.801840  0.135270  1.0
  N  N1947  1  0.051840  0.242370  0.385270  1.0
  N  N1948  1  0.507630  0.301840  0.635270  1.0
  N  N1949  1  0.992370  0.698160  0.135270  1.0
  N  N1950  1  0.948160  0.257630  0.385270  1.0
  N  N1951  1  0.492370  0.198160  0.635270  1.0
  N  N1952  1  0.448160  0.757630  0.885270  1.0
  N  N1953  1  0.448160  0.257630  0.114730  1.0
  N  N1954  1  0.992370  0.198160  0.864730  1.0
  N  N1955  1  0.948160  0.757630  0.614730  1.0
  N  N1956  1  0.492370  0.698160  0.364730  1.0
  N  N1957  1  0.007630  0.301840  0.864730  1.0
  N  N1958  1  0.051840  0.742370  0.614730  1.0
  N  N1959  1  0.507630  0.801840  0.364730  1.0
  N  N1960  1  0.551840  0.242370  0.114730  1.0
  N  N1961  1  0.717820  0.963470  0.155160  1.0
  N  N1962  1  0.786530  0.967820  0.405160  1.0
  N  N1963  1  0.217820  0.463470  0.655160  1.0
  N  N1964  1  0.286530  0.467820  0.905160  1.0
  N  N1965  1  0.213470  0.532180  0.405160  1.0
  N  N1966  1  0.782180  0.036530  0.655160  1.0
  N  N1967  1  0.713470  0.032180  0.905160  1.0
  N  N1968  1  0.282180  0.536530  0.155160  1.0
  N  N1969  1  0.282180  0.036530  0.844840  1.0
  N  N1970  1  0.213470  0.032180  0.594840  1.0
  N  N1971  1  0.782180  0.536530  0.344840  1.0
  N  N1972  1  0.713470  0.532180  0.094840  1.0
  N  N1973  1  0.786530  0.467820  0.594840  1.0
  N  N1974  1  0.217820  0.963470  0.344840  1.0
  N  N1975  1  0.286530  0.967820  0.094840  1.0
  N  N1976  1  0.717820  0.463470  0.844840  1.0
  N  N1977  1  0.668470  0.772340  0.009210  1.0
  N  N1978  1  0.977660  0.918470  0.259210  1.0
  N  N1979  1  0.168470  0.272340  0.509210  1.0
  N  N1980  1  0.477660  0.418470  0.759210  1.0
  N  N1981  1  0.022340  0.581530  0.259210  1.0
  N  N1982  1  0.831530  0.227660  0.509210  1.0
  N  N1983  1  0.522340  0.081530  0.759210  1.0
  N  N1984  1  0.331530  0.727660  0.009210  1.0
  N  N1985  1  0.331530  0.227660  0.990790  1.0
  N  N1986  1  0.022340  0.081530  0.740790  1.0
  N  N1987  1  0.831530  0.727660  0.490790  1.0
  N  N1988  1  0.522340  0.581530  0.240790  1.0
  N  N1989  1  0.977660  0.418470  0.740790  1.0
  N  N1990  1  0.168470  0.772340  0.490790  1.0
  N  N1991  1  0.477660  0.918470  0.240790  1.0
  N  N1992  1  0.668470  0.272340  0.990790  1.0
  N  N1993  1  0.656010  0.682270  0.009240  1.0
  N  N1994  1  0.067730  0.906010  0.259240  1.0
  N  N1995  1  0.156010  0.182270  0.509240  1.0
  N  N1996  1  0.567730  0.406010  0.759240  1.0
  N  N1997  1  0.932270  0.593990  0.259240  1.0
  N  N1998  1  0.843990  0.317730  0.509240  1.0
  N  N1999  1  0.432270  0.093990  0.759240  1.0
  N  N2000  1  0.343990  0.817730  0.009240  1.0
  N  N2001  1  0.343990  0.317730  0.990760  1.0
  N  N2002  1  0.932270  0.093990  0.740760  1.0
  N  N2003  1  0.843990  0.817730  0.490760  1.0
  N  N2004  1  0.432270  0.593990  0.240760  1.0
  N  N2005  1  0.067730  0.406010  0.740760  1.0
  N  N2006  1  0.156010  0.682270  0.490760  1.0
  N  N2007  1  0.567730  0.906010  0.240760  1.0
  N  N2008  1  0.656010  0.182270  0.990760  1.0
  N  N2009  1  0.707220  0.721150  0.062690  1.0
  N  N2010  1  0.028850  0.957220  0.312690  1.0
  N  N2011  1  0.207220  0.221150  0.562690  1.0
  N  N2012  1  0.528850  0.457220  0.812690  1.0
  N  N2013  1  0.971150  0.542780  0.312690  1.0
  N  N2014  1  0.792780  0.278850  0.562690  1.0
  N  N2015  1  0.471150  0.042780  0.812690  1.0
  N  N2016  1  0.292780  0.778850  0.062690  1.0
  N  N2017  1  0.292780  0.278850  0.937310  1.0
  N  N2018  1  0.971150  0.042780  0.687310  1.0
  N  N2019  1  0.792780  0.778850  0.437310  1.0
  N  N2020  1  0.471150  0.542780  0.187310  1.0
  N  N2021  1  0.028850  0.457220  0.687310  1.0
  N  N2022  1  0.207220  0.721150  0.437310  1.0
  N  N2023  1  0.528850  0.957220  0.187310  1.0
  N  N2024  1  0.707220  0.221150  0.937310  1.0
  N  N2025  1  0.552860  0.740710  0.789460  1.0
  N  N2026  1  0.009290  0.802860  0.039460  1.0
  N  N2027  1  0.052860  0.240710  0.289460  1.0
  N  N2028  1  0.509290  0.302860  0.539460  1.0
  N  N2029  1  0.990710  0.697140  0.039460  1.0
  N  N2030  1  0.947140  0.259290  0.289460  1.0
  N  N2031  1  0.490710  0.197140  0.539460  1.0
  N  N2032  1  0.447140  0.759290  0.789460  1.0
  N  N2033  1  0.447140  0.259290  0.210540  1.0
  N  N2034  1  0.990710  0.197140  0.960540  1.0
  N  N2035  1  0.947140  0.759290  0.710540  1.0
  N  N2036  1  0.490710  0.697140  0.460540  1.0
  N  N2037  1  0.009290  0.302860  0.960540  1.0
  N  N2038  1  0.052860  0.740710  0.710540  1.0
  N  N2039  1  0.509290  0.802860  0.460540  1.0
  N  N2040  1  0.552860  0.240710  0.210540  1.0
  N  N2041  1  0.859880  0.963760  0.100380  1.0
  N  N2042  1  0.786240  0.109880  0.350380  1.0
  N  N2043  1  0.359880  0.463760  0.600380  1.0
  N  N2044  1  0.286240  0.609880  0.850380  1.0
  N  N2045  1  0.213760  0.390120  0.350380  1.0
  N  N2046  1  0.640120  0.036240  0.600380  1.0
  N  N2047  1  0.713760  0.890120  0.850380  1.0
  N  N2048  1  0.140120  0.536240  0.100380  1.0
  N  N2049  1  0.140120  0.036240  0.899620  1.0
  N  N2050  1  0.213760  0.890120  0.649620  1.0
  N  N2051  1  0.640120  0.536240  0.399620  1.0
  N  N2052  1  0.713760  0.390120  0.149620  1.0
  N  N2053  1  0.786240  0.609880  0.649620  1.0
  N  N2054  1  0.359880  0.963760  0.399620  1.0
  N  N2055  1  0.286240  0.109880  0.149620  1.0
  N  N2056  1  0.859880  0.463760  0.899620  1.0
  N  N2057  1  0.812160  0.030060  0.158320  1.0
  N  N2058  1  0.719940  0.062160  0.408320  1.0
  N  N2059  1  0.312160  0.530060  0.658320  1.0
  N  N2060  1  0.219940  0.562160  0.908320  1.0
  N  N2061  1  0.280060  0.437840  0.408320  1.0
  N  N2062  1  0.687840  0.969940  0.658320  1.0
  N  N2063  1  0.780060  0.937840  0.908320  1.0
  N  N2064  1  0.187840  0.469940  0.158320  1.0
  N  N2065  1  0.187840  0.969940  0.841680  1.0
  N  N2066  1  0.280060  0.937840  0.591680  1.0
  N  N2067  1  0.687840  0.469940  0.341680  1.0
  N  N2068  1  0.780060  0.437840  0.091680  1.0
  N  N2069  1  0.719940  0.562160  0.591680  1.0
  N  N2070  1  0.312160  0.030060  0.341680  1.0
  N  N2071  1  0.219940  0.062160  0.091680  1.0
  N  N2072  1  0.812160  0.530060  0.841680  1.0
  O  O2073  1  0.428300  0.601900  0.942900  1
  O  O2074  1  0.148100  0.678300  0.192900  1
  O  O2075  1  0.928300  0.101900  0.442900  1
  O  O2076  1  0.648100  0.178300  0.692900  1
  O  O2077  1  0.851900  0.821700  0.192900  1
  O  O2078  1  0.071700  0.398100  0.442900  1
  O  O2079  1  0.351900  0.321700  0.692900  1
  O  O2080  1  0.571700  0.898100  0.942900  1
  O  O2081  1  0.571700  0.398100  0.057100  1
  O  O2082  1  0.851900  0.321700  0.807100  1
  O  O2083  1  0.071700  0.898100  0.557100  1
  O  O2084  1  0.351900  0.821700  0.307100  1
  O  O2085  1  0.148100  0.178300  0.807100  1
  O  O2086  1  0.928300  0.601900  0.557100  1
  O  O2087  1  0.648100  0.678300  0.307100  1
  O  O2088  1  0.428300  0.101900  0.057100  1
  O  O2089  1  0.354200  0.579800  0.967500  1
  O  O2090  1  0.170200  0.604200  0.217500  1
  O  O2091  1  0.854200  0.079800  0.467500  1
  O  O2092  1  0.670200  0.104200  0.717500  1
  O  O2093  1  0.829800  0.895800  0.217500  1
  O  O2094  1  0.145800  0.420200  0.467500  1
  O  O2095  1  0.329800  0.395800  0.717500  1
  O  O2096  1  0.645800  0.920200  0.967500  1
  O  O2097  1  0.645800  0.420200  0.032500  1
  O  O2098  1  0.829800  0.395800  0.782500  1
  O  O2099  1  0.145800  0.920200  0.532500  1
  O  O2100  1  0.329800  0.895800  0.282500  1
  O  O2101  1  0.170200  0.104200  0.782500  1
  O  O2102  1  0.854200  0.579800  0.532500  1
  O  O2103  1  0.670200  0.604200  0.282500  1
  O  O2104  1  0.354200  0.079800  0.032500  1
  O  O2105  1  0.429800  0.550000  0.991400  1
  O  O2106  1  0.200000  0.679800  0.241400  1
  O  O2107  1  0.929800  0.050000  0.491400  1
  O  O2108  1  0.700000  0.179800  0.741400  1
  O  O2109  1  0.800000  0.820200  0.241400  1
  O  O2110  1  0.070200  0.450000  0.491400  1
  O  O2111  1  0.300000  0.320200  0.741400  1
  O  O2112  1  0.570200  0.950000  0.991400  1
  O  O2113  1  0.570200  0.450000  0.008600  1
  O  O2114  1  0.800000  0.320200  0.758600  1
  O  O2115  1  0.070200  0.950000  0.508600  1
  O  O2116  1  0.300000  0.820200  0.258600  1
  O  O2117  1  0.200000  0.179800  0.758600  1
  O  O2118  1  0.929800  0.550000  0.508600  1
  O  O2119  1  0.700000  0.679800  0.258600  1
  O  O2120  1  0.429800  0.050000  0.008600  1
  O  O2121  1  0.761600  0.607200  0.963400  1
  O  O2122  1  0.142800  0.011600  0.213400  1
  O  O2123  1  0.261600  0.107200  0.463400  1
  O  O2124  1  0.642800  0.511600  0.713400  1
  O  O2125  1  0.857200  0.488400  0.213400  1
  O  O2126  1  0.738400  0.392800  0.463400  1
  O  O2127  1  0.357200  0.988400  0.713400  1
  O  O2128  1  0.238400  0.892800  0.963400  1
  O  O2129  1  0.238400  0.392800  0.036600  1
  O  O2130  1  0.857200  0.988400  0.786600  1
  O  O2131  1  0.738400  0.892800  0.536600  1
  O  O2132  1  0.357200  0.488400  0.286600  1
  O  O2133  1  0.142800  0.511600  0.786600  1
  O  O2134  1  0.261600  0.607200  0.536600  1
  O  O2135  1  0.642800  0.011600  0.286600  1
  O  O2136  1  0.761600  0.107200  0.036600  1
  O  O2137  1  0.688400  0.587700  0.933300  1
  O  O2138  1  0.162300  0.938400  0.183300  1
  O  O2139  1  0.188400  0.087700  0.433300  1
  O  O2140  1  0.662300  0.438400  0.683300  1
  O  O2141  1  0.837700  0.561600  0.183300  1
  O  O2142  1  0.811600  0.412300  0.433300  1
  O  O2143  1  0.337700  0.061600  0.683300  1
  O  O2144  1  0.311600  0.912300  0.933300  1
  O  O2145  1  0.311600  0.412300  0.066700  1
  O  O2146  1  0.837700  0.061600  0.816700  1
  O  O2147  1  0.811600  0.912300  0.566700  1
  O  O2148  1  0.337700  0.561600  0.316700  1
  O  O2149  1  0.162300  0.438400  0.816700  1
  O  O2150  1  0.188400  0.587700  0.566700  1
  O  O2151  1  0.662300  0.938400  0.316700  1
  O  O2152  1  0.688400  0.087700  0.066700  1
  O  O2153  1  0.736900  0.529500  0.952800  1
  O  O2154  1  0.220500  0.986900  0.202800  1
  O  O2155  1  0.236900  0.029500  0.452800  1
  O  O2156  1  0.720500  0.486900  0.702800  1
  O  O2157  1  0.779500  0.513100  0.202800  1
  O  O2158  1  0.763100  0.470500  0.452800  1
  O  O2159  1  0.279500  0.013100  0.702800  1
  O  O2160  1  0.263100  0.970500  0.952800  1
  O  O2161  1  0.263100  0.470500  0.047200  1
  O  O2162  1  0.779500  0.013100  0.797200  1
  O  O2163  1  0.763100  0.970500  0.547200  1
  O  O2164  1  0.279500  0.513100  0.297200  1
  O  O2165  1  0.220500  0.486900  0.797200  1
  O  O2166  1  0.236900  0.529500  0.547200  1
  O  O2167  1  0.720500  0.986900  0.297200  1
  O  O2168  1  0.736900  0.029500  0.047200  1
  O  O2169  1  0.446400  0.070000  0.609900  1
  O  O2170  1  0.680000  0.696400  0.859900  1
  O  O2171  1  0.946400  0.570000  0.109900  1
  O  O2172  1  0.180000  0.196400  0.359900  1
  O  O2173  1  0.320000  0.803600  0.859900  1
  O  O2174  1  0.053600  0.930000  0.109900  1
  O  O2175  1  0.820000  0.303600  0.359900  1
  O  O2176  1  0.553600  0.430000  0.609900  1
  O  O2177  1  0.553600  0.930000  0.390100  1
  O  O2178  1  0.320000  0.303600  0.140100  1
  O  O2179  1  0.053600  0.430000  0.890100  1
  O  O2180  1  0.820000  0.803600  0.640100  1
  O  O2181  1  0.680000  0.196400  0.140100  1
  O  O2182  1  0.946400  0.070000  0.890100  1
  O  O2183  1  0.180000  0.696400  0.640100  1
  O  O2184  1  0.446400  0.570000  0.390100  1
  O  O2185  1  0.422900  0.024400  0.658900  1
  O  O2186  1  0.725600  0.672900  0.908900  1
  O  O2187  1  0.922900  0.524400  0.158900  1
  O  O2188  1  0.225600  0.172900  0.408900  1
  O  O2189  1  0.274400  0.827100  0.908900  1
  O  O2190  1  0.077100  0.975600  0.158900  1
  O  O2191  1  0.774400  0.327100  0.408900  1
  O  O2192  1  0.577100  0.475600  0.658900  1
  O  O2193  1  0.577100  0.975600  0.341100  1
  O  O2194  1  0.274400  0.327100  0.091100  1
  O  O2195  1  0.077100  0.475600  0.841100  1
  O  O2196  1  0.774400  0.827100  0.591100  1
  O  O2197  1  0.725600  0.172900  0.091100  1
  O  O2198  1  0.922900  0.024400  0.841100  1
  O  O2199  1  0.225600  0.672900  0.591100  1
  O  O2200  1  0.422900  0.524400  0.341100  1
  O  O2201  1  0.506700  0.010000  0.659400  1
  O  O2202  1  0.740000  0.756700  0.909400  1
  O  O2203  1  0.006700  0.510000  0.159400  1
  O  O2204  1  0.240000  0.256700  0.409400  1
  O  O2205  1  0.260000  0.743300  0.909400  1
  O  O2206  1  0.993300  0.990000  0.159400  1
  O  O2207  1  0.760000  0.243300  0.409400  1
  O  O2208  1  0.493300  0.490000  0.659400  1
  O  O2209  1  0.493300  0.990000  0.340600  1
  O  O2210  1  0.260000  0.243300  0.090600  1
  O  O2211  1  0.993300  0.490000  0.840600  1
  O  O2212  1  0.760000  0.743300  0.590600  1
  O  O2213  1  0.740000  0.256700  0.090600  1
  O  O2214  1  0.006700  0.010000  0.840600  1
  O  O2215  1  0.240000  0.756700  0.590600  1
  O  O2216  1  0.506700  0.510000  0.340600  1
  O  O2217  1  0.346400  0.861300  0.480600  1
  O  O2218  1  0.888700  0.596400  0.730600  1
  O  O2219  1  0.846400  0.361300  0.980600  1
  O  O2220  1  0.388700  0.096400  0.230600  1
  O  O2221  1  0.111300  0.903600  0.730600  1
  O  O2222  1  0.153600  0.138700  0.980600  1
  O  O2223  1  0.611300  0.403600  0.230600  1
  O  O2224  1  0.653600  0.638700  0.480600  1
  O  O2225  1  0.653600  0.138700  0.519400  1
  O  O2226  1  0.111300  0.403600  0.269400  1
  O  O2227  1  0.153600  0.638700  0.019400  1
  O  O2228  1  0.611300  0.903600  0.769400  1
  O  O2229  1  0.888700  0.096400  0.269400  1
  O  O2230  1  0.846400  0.861300  0.019400  1
  O  O2231  1  0.388700  0.596400  0.769400  1
  O  O2232  1  0.346400  0.361300  0.519400  1
  O  O2233  1  0.340900  0.780000  0.487300  1
  O  O2234  1  0.970000  0.590900  0.737300  1
  O  O2235  1  0.840900  0.280000  0.987300  1
  O  O2236  1  0.470000  0.090900  0.237300  1
  O  O2237  1  0.030000  0.909100  0.737300  1
  O  O2238  1  0.159100  0.220000  0.987300  1
  O  O2239  1  0.530000  0.409100  0.237300  1
  O  O2240  1  0.659100  0.720000  0.487300  1
  O  O2241  1  0.659100  0.220000  0.512700  1
  O  O2242  1  0.030000  0.409100  0.262700  1
  O  O2243  1  0.159100  0.720000  0.012700  1
  O  O2244  1  0.530000  0.909100  0.762700  1
  O  O2245  1  0.970000  0.090900  0.262700  1
  O  O2246  1  0.840900  0.780000  0.012700  1
  O  O2247  1  0.470000  0.590900  0.762700  1
  O  O2248  1  0.340900  0.280000  0.512700  1
  O  O2249  1  0.375500  0.833300  0.538100  1
  O  O2250  1  0.916700  0.625500  0.788100  1
  O  O2251  1  0.875500  0.333300  0.038100  1
  O  O2252  1  0.416700  0.125500  0.288100  1
  O  O2253  1  0.083300  0.874500  0.788100  1
  O  O2254  1  0.124500  0.166700  0.038100  1
  O  O2255  1  0.583300  0.374500  0.288100  1
  O  O2256  1  0.624500  0.666700  0.538100  1
  O  O2257  1  0.624500  0.166700  0.461900  1
  O  O2258  1  0.083300  0.374500  0.211900  1
  O  O2259  1  0.124500  0.666700  0.961900  1
  O  O2260  1  0.583300  0.874500  0.711900  1
  O  O2261  1  0.916700  0.125500  0.211900  1
  O  O2262  1  0.875500  0.833300  0.961900  1
  O  O2263  1  0.416700  0.625500  0.711900  1
  O  O2264  1  0.375500  0.333300  0.461900  1
  O  O2265  1  0.375500  0.775660  0.403950  1
  O  O2266  1  0.974340  0.625500  0.653950  1
  O  O2267  1  0.875500  0.275660  0.903950  1
  O  O2268  1  0.474340  0.125500  0.153950  1
  O  O2269  1  0.025660  0.874500  0.653950  1
  O  O2270  1  0.124500  0.224340  0.903950  1
  O  O2271  1  0.525660  0.374500  0.153950  1
  O  O2272  1  0.624500  0.724340  0.403950  1
  O  O2273  1  0.624500  0.224340  0.596050  1
  O  O2274  1  0.025660  0.374500  0.346050  1
  O  O2275  1  0.124500  0.724340  0.096050  1
  O  O2276  1  0.525660  0.874500  0.846050  1
  O  O2277  1  0.974340  0.125500  0.346050  1
  O  O2278  1  0.875500  0.775660  0.096050  1
  O  O2279  1  0.474340  0.625500  0.846050  1
  O  O2280  1  0.375500  0.275660  0.596050  1
  O  O2281  1  0.504200  0.571900  0.918900  1
  O  O2282  1  0.178100  0.754200  0.168900  1
  O  O2283  1  0.004200  0.071900  0.418900  1
  O  O2284  1  0.678100  0.254200  0.668900  1
  O  O2285  1  0.821900  0.745800  0.168900  1
  O  O2286  1  0.995800  0.428100  0.418900  1
  O  O2287  1  0.321900  0.245800  0.668900  1
  O  O2288  1  0.495800  0.928100  0.918900  1
  O  O2289  1  0.495800  0.428100  0.081100  1
  O  O2290  1  0.821900  0.245800  0.831100  1
  O  O2291  1  0.995800  0.928100  0.581100  1
  O  O2292  1  0.321900  0.745800  0.331100  1
  O  O2293  1  0.178100  0.254200  0.831100  1
  O  O2294  1  0.004200  0.571900  0.581100  1
  O  O2295  1  0.678100  0.754200  0.331100  1
  O  O2296  1  0.504200  0.071900  0.081100  1
  O  O2297  1  0.500000  0.750000  0.625000  1
  O  O2298  1  0.000000  0.750000  0.875000  1
  O  O2299  1  0.000000  0.250000  0.125000  1
  O  O2300  1  0.500000  0.250000  0.375000  1
  O  O2301  1  0.283700  0.156900  0.693600  1
  O  O2302  1  0.593100  0.533700  0.943600  1
  O  O2303  1  0.783700  0.656900  0.193600  1
  O  O2304  1  0.093100  0.033700  0.443600  1
  O  O2305  1  0.406900  0.966300  0.943600  1
  O  O2306  1  0.216300  0.843100  0.193600  1
  O  O2307  1  0.906900  0.466300  0.443600  1
  O  O2308  1  0.716300  0.343100  0.693600  1
  O  O2309  1  0.716300  0.843100  0.306400  1
  O  O2310  1  0.406900  0.466300  0.056400  1
  O  O2311  1  0.216300  0.343100  0.806400  1
  O  O2312  1  0.906900  0.966300  0.556400  1
  O  O2313  1  0.593100  0.033700  0.056400  1
  O  O2314  1  0.783700  0.156900  0.806400  1
  O  O2315  1  0.093100  0.533700  0.556400  1
  O  O2316  1  0.283700  0.656900  0.306400  1
  O  O2317  1  0.909800  0.137900  0.072100  1
  O  O2318  1  0.612100  0.159800  0.322100  1
  O  O2319  1  0.409800  0.637900  0.572100  1
  O  O2320  1  0.112100  0.659800  0.822100  1
  O  O2321  1  0.387900  0.340200  0.322100  1
  O  O2322  1  0.590200  0.862100  0.572100  1
  O  O2323  1  0.887900  0.840200  0.822100  1
  O  O2324  1  0.090200  0.362100  0.072100  1
  O  O2325  1  0.090200  0.862100  0.927900  1
  O  O2326  1  0.387900  0.840200  0.677900  1
  O  O2327  1  0.590200  0.362100  0.427900  1
  O  O2328  1  0.887900  0.340200  0.177900  1
  O  O2329  1  0.612100  0.659800  0.677900  1
  O  O2330  1  0.409800  0.137900  0.427900  1
  O  O2331  1  0.112100  0.159800  0.177900  1
  O  O2332  1  0.909800  0.637900  0.927900  1
  O  O2333  1  0.581200  0.972700  0.463700  1
  O  O2334  1  0.777300  0.831200  0.713700  1
  O  O2335  1  0.081200  0.472700  0.963700  1
  O  O2336  1  0.277300  0.331200  0.213700  1
  O  O2337  1  0.222700  0.668800  0.713700  1
  O  O2338  1  0.918800  0.027300  0.963700  1
  O  O2339  1  0.722700  0.168800  0.213700  1
  O  O2340  1  0.418800  0.527300  0.463700  1
  O  O2341  1  0.418800  0.027300  0.536300  1
  O  O2342  1  0.222700  0.168800  0.286300  1
  O  O2343  1  0.918800  0.527300  0.036300  1
  O  O2344  1  0.722700  0.668800  0.786300  1
  O  O2345  1  0.777300  0.331200  0.286300  1
  O  O2346  1  0.081200  0.972700  0.036300  1
  O  O2347  1  0.277300  0.831200  0.786300  1
  O  O2348  1  0.581200  0.472700  0.536300  1
  O  O2349  1  0.834400  0.596800  0.006800  1
  O  O2350  1  0.153200  0.084400  0.256800  1
  O  O2351  1  0.334400  0.096800  0.506800  1
  O  O2352  1  0.653200  0.584400  0.756800  1
  O  O2353  1  0.846800  0.415600  0.256800  1
  O  O2354  1  0.665600  0.403200  0.506800  1
  O  O2355  1  0.346800  0.915600  0.756800  1
  O  O2356  1  0.165600  0.903200  0.006800  1
  O  O2357  1  0.165600  0.403200  0.993200  1
  O  O2358  1  0.846800  0.915600  0.743200  1
  O  O2359  1  0.665600  0.903200  0.493200  1
  O  O2360  1  0.346800  0.415600  0.243200  1
  O  O2361  1  0.153200  0.584400  0.743200  1
  O  O2362  1  0.334400  0.596800  0.493200  1
  O  O2363  1  0.653200  0.084400  0.243200  1
  O  O2364  1  0.834400  0.096800  0.993200  1
  O  O2365  1  0.646300  0.616400  0.855800  1
  O  O2366  1  0.133600  0.896300  0.105800  1
  O  O2367  1  0.146300  0.116400  0.355800  1
  O  O2368  1  0.633600  0.396300  0.605800  1
  O  O2369  1  0.866400  0.603700  0.105800  1
  O  O2370  1  0.853700  0.383600  0.355800  1
  O  O2371  1  0.366400  0.103700  0.605800  1
  O  O2372  1  0.353700  0.883600  0.855800  1
  O  O2373  1  0.353700  0.383600  0.144200  1
  O  O2374  1  0.866400  0.103700  0.894200  1
  O  O2375  1  0.853700  0.883600  0.644200  1
  O  O2376  1  0.366400  0.603700  0.394200  1
  O  O2377  1  0.133600  0.396300  0.894200  1
  O  O2378  1  0.146300  0.616400  0.644200  1
  O  O2379  1  0.633600  0.896300  0.394200  1
  O  O2380  1  0.646300  0.116400  0.144200  1
  O  O2381  1  0.541200  0.933900  0.534900  1
  O  O2382  1  0.816100  0.791200  0.784900  1
  O  O2383  1  0.041200  0.433900  0.034900  1
  O  O2384  1  0.316100  0.291200  0.284900  1
  O  O2385  1  0.183900  0.708800  0.784900  1
  O  O2386  1  0.958800  0.066100  0.034900  1
  O  O2387  1  0.683900  0.208800  0.284900  1
  O  O2388  1  0.458800  0.566100  0.534900  1
  O  O2389  1  0.458800  0.066100  0.465100  1
  O  O2390  1  0.183900  0.208800  0.215100  1
  O  O2391  1  0.958800  0.566100  0.965100  1
  O  O2392  1  0.683900  0.708800  0.715100  1
  O  O2393  1  0.816100  0.291200  0.215100  1
  O  O2394  1  0.041200  0.933900  0.965100  1
  O  O2395  1  0.316100  0.791200  0.715100  1
  O  O2396  1  0.541200  0.433900  0.465100  1
  O  O2397  1  0.453500  0.905900  0.639500  1
  O  O2398  1  0.844100  0.703500  0.889500  1
  O  O2399  1  0.953500  0.405900  0.139500  1
  O  O2400  1  0.344100  0.203500  0.389500  1
  O  O2401  1  0.155900  0.796500  0.889500  1
  O  O2402  1  0.046500  0.094100  0.139500  1
  O  O2403  1  0.655900  0.296500  0.389500  1
  O  O2404  1  0.546500  0.594100  0.639500  1
  O  O2405  1  0.546500  0.094100  0.360500  1
  O  O2406  1  0.155900  0.296500  0.110500  1
  O  O2407  1  0.046500  0.594100  0.860500  1
  O  O2408  1  0.655900  0.796500  0.610500  1
  O  O2409  1  0.844100  0.203500  0.110500  1
  O  O2410  1  0.953500  0.905900  0.860500  1
  O  O2411  1  0.344100  0.703500  0.610500  1
  O  O2412  1  0.453500  0.405900  0.360500  1
  O  O2413  1  0.331700  0.682900  0.699600  1
  O  O2414  1  0.067100  0.581700  0.949600  1
  O  O2415  1  0.831700  0.182900  0.199600  1
  O  O2416  1  0.567100  0.081700  0.449600  1
  O  O2417  1  0.932900  0.918300  0.949600  1
  O  O2418  1  0.168300  0.317100  0.199600  1
  O  O2419  1  0.432900  0.418300  0.449600  1
  O  O2420  1  0.668300  0.817100  0.699600  1
  O  O2421  1  0.668300  0.317100  0.300400  1
  O  O2422  1  0.932900  0.418300  0.050400  1
  O  O2423  1  0.168300  0.817100  0.800400  1
  O  O2424  1  0.432900  0.918300  0.550400  1
  O  O2425  1  0.067100  0.081700  0.050400  1
  O  O2426  1  0.831700  0.682900  0.800400  1
  O  O2427  1  0.567100  0.581700  0.550400  1
  O  O2428  1  0.331700  0.182900  0.300400  1
  O  O2429  1  0.409800  0.779300  0.597100  1
  O  O2430  1  0.970700  0.659800  0.847100  1
  O  O2431  1  0.909800  0.279300  0.097100  1
  O  O2432  1  0.470700  0.159800  0.347100  1
  O  O2433  1  0.029300  0.840200  0.847100  1
  O  O2434  1  0.090200  0.220700  0.097100  1
  O  O2435  1  0.529300  0.340200  0.347100  1
  O  O2436  1  0.590200  0.720700  0.597100  1
  O  O2437  1  0.590200  0.220700  0.402900  1
  O  O2438  1  0.029300  0.340200  0.152900  1
  O  O2439  1  0.090200  0.720700  0.902900  1
  O  O2440  1  0.529300  0.840200  0.652900  1
  O  O2441  1  0.970700  0.159800  0.152900  1
  O  O2442  1  0.909800  0.779300  0.902900  1
  O  O2443  1  0.470700  0.659800  0.652900  1
  O  O2444  1  0.409800  0.279300  0.402900  1
  O  O2445  1  0.442900  0.962000  0.729300  1
  O  O2446  1  0.788000  0.692900  0.979300  1
  O  O2447  1  0.942900  0.462000  0.229300  1
  O  O2448  1  0.288000  0.192900  0.479300  1
  O  O2449  1  0.212000  0.807100  0.979300  1
  O  O2450  1  0.057100  0.038000  0.229300  1
  O  O2451  1  0.712000  0.307100  0.479300  1
  O  O2452  1  0.557100  0.538000  0.729300  1
  O  O2453  1  0.557100  0.038000  0.270700  1
  O  O2454  1  0.212000  0.307100  0.020700  1
  O  O2455  1  0.057100  0.538000  0.770700  1
  O  O2456  1  0.712000  0.807100  0.520700  1
  O  O2457  1  0.788000  0.192900  0.020700  1
  O  O2458  1  0.942900  0.962000  0.770700  1
  O  O2459  1  0.288000  0.692900  0.520700  1
  O  O2460  1  0.442900  0.462000  0.270700  1
  O  O2461  1  0.505300  0.991700  0.462400  1
  O  O2462  1  0.758300  0.755300  0.712400  1
  O  O2463  1  0.005300  0.491700  0.962400  1
  O  O2464  1  0.258300  0.255300  0.212400  1
  O  O2465  1  0.241700  0.744700  0.712400  1
  O  O2466  1  0.994700  0.008300  0.962400  1
  O  O2467  1  0.741700  0.244700  0.212400  1
  O  O2468  1  0.494700  0.508300  0.462400  1
  O  O2469  1  0.494700  0.008300  0.537600  1
  O  O2470  1  0.241700  0.244700  0.287600  1
  O  O2471  1  0.994700  0.508300  0.037600  1
  O  O2472  1  0.741700  0.744700  0.787600  1
  O  O2473  1  0.758300  0.255300  0.287600  1
  O  O2474  1  0.005300  0.991700  0.037600  1
  O  O2475  1  0.258300  0.755300  0.787600  1
  O  O2476  1  0.505300  0.491700  0.537600  1
  O  O2477  1  0.424600  0.536200  0.978500  1
  O  O2478  1  0.213800  0.674600  0.228500  1
  O  O2479  1  0.924600  0.036200  0.478500  1
  O  O2480  1  0.713800  0.174600  0.728500  1
  O  O2481  1  0.786200  0.825400  0.228500  1
  O  O2482  1  0.075400  0.463800  0.478500  1
  O  O2483  1  0.286200  0.325400  0.728500  1
  O  O2484  1  0.575400  0.963800  0.978500  1
  O  O2485  1  0.575400  0.463800  0.021500  1
  O  O2486  1  0.786200  0.325400  0.771500  1
  O  O2487  1  0.075400  0.963800  0.521500  1
  O  O2488  1  0.286200  0.825400  0.271500  1
  O  O2489  1  0.213800  0.174600  0.771500  1
  O  O2490  1  0.924600  0.536200  0.521500  1
  O  O2491  1  0.713800  0.674600  0.271500  1
  O  O2492  1  0.424600  0.036200  0.021500  1
  O  O2493  1  0.355900  0.545700  0.013600  1
  O  O2494  1  0.204300  0.605900  0.263600  1
  O  O2495  1  0.855900  0.045700  0.513600  1
  O  O2496  1  0.704300  0.105900  0.763600  1
  O  O2497  1  0.795700  0.894100  0.263600  1
  O  O2498  1  0.144100  0.454300  0.513600  1
  O  O2499  1  0.295700  0.394100  0.763600  1
  O  O2500  1  0.644100  0.954300  0.013600  1
  O  O2501  1  0.644100  0.454300  0.986400  1
  O  O2502  1  0.795700  0.394100  0.736400  1
  O  O2503  1  0.144100  0.954300  0.486400  1
  O  O2504  1  0.295700  0.894100  0.236400  1
  O  O2505  1  0.204300  0.105900  0.736400  1
  O  O2506  1  0.855900  0.545700  0.486400  1
  O  O2507  1  0.704300  0.605900  0.236400  1
  O  O2508  1  0.355900  0.045700  0.986400  1
  O  O2509  1  0.367000  0.590200  0.956100  1
  O  O2510  1  0.159800  0.617000  0.206100  1
  O  O2511  1  0.867000  0.090200  0.456100  1
  O  O2512  1  0.659800  0.117000  0.706100  1
  O  O2513  1  0.840200  0.883000  0.206100  1
  O  O2514  1  0.133000  0.409800  0.456100  1
  O  O2515  1  0.340200  0.383000  0.706100  1
  O  O2516  1  0.633000  0.909800  0.956100  1
  O  O2517  1  0.633000  0.409800  0.043900  1
  O  O2518  1  0.840200  0.383000  0.793900  1
  O  O2519  1  0.133000  0.909800  0.543900  1
  O  O2520  1  0.340200  0.883000  0.293900  1
  O  O2521  1  0.159800  0.117000  0.793900  1
  O  O2522  1  0.867000  0.590200  0.543900  1
  O  O2523  1  0.659800  0.617000  0.293900  1
  O  O2524  1  0.367000  0.090200  0.043900  1
  O  O2525  1  0.473400  0.056500  0.607600  1
  O  O2526  1  0.693500  0.723400  0.857600  1
  O  O2527  1  0.973400  0.556500  0.107600  1
  O  O2528  1  0.193500  0.223400  0.357600  1
  O  O2529  1  0.306500  0.776600  0.857600  1
  O  O2530  1  0.026600  0.943500  0.107600  1
  O  O2531  1  0.806500  0.276600  0.357600  1
  O  O2532  1  0.526600  0.443500  0.607600  1
  O  O2533  1  0.526600  0.943500  0.392400  1
  O  O2534  1  0.306500  0.276600  0.142400  1
  O  O2535  1  0.026600  0.443500  0.892400  1
  O  O2536  1  0.806500  0.776600  0.642400  1
  O  O2537  1  0.693500  0.223400  0.142400  1
  O  O2538  1  0.973400  0.056500  0.892400  1
  O  O2539  1  0.193500  0.723400  0.642400  1
  O  O2540  1  0.473400  0.556500  0.392400  1
  O  O2541  1  0.458800  0.000700  0.681500  1
  O  O2542  1  0.749300  0.708800  0.931500  1
  O  O2543  1  0.958800  0.500700  0.181500  1
  O  O2544  1  0.249300  0.208800  0.431500  1
  O  O2545  1  0.250700  0.791200  0.931500  1
  O  O2546  1  0.041200  0.999300  0.181500  1
  O  O2547  1  0.750700  0.291200  0.431500  1
  O  O2548  1  0.541200  0.499300  0.681500  1
  O  O2549  1  0.541200  0.999300  0.318500  1
  O  O2550  1  0.250700  0.291200  0.068500  1
  O  O2551  1  0.041200  0.499300  0.818500  1
  O  O2552  1  0.750700  0.791200  0.568500  1
  O  O2553  1  0.749300  0.208800  0.068500  1
  O  O2554  1  0.958800  0.000700  0.818500  1
  O  O2555  1  0.249300  0.708800  0.568500  1
  O  O2556  1  0.458800  0.500700  0.318500  1
  O  O2557  1  0.297800  0.799200  0.536000  1
  O  O2558  1  0.950800  0.547800  0.786000  1
  O  O2559  1  0.797800  0.299200  0.036000  1
  O  O2560  1  0.450800  0.047800  0.286000  1
  O  O2561  1  0.049200  0.952200  0.786000  1
  O  O2562  1  0.202200  0.200800  0.036000  1
  O  O2563  1  0.549200  0.452200  0.286000  1
  O  O2564  1  0.702200  0.700800  0.536000  1
  O  O2565  1  0.702200  0.200800  0.464000  1
  O  O2566  1  0.049200  0.452200  0.214000  1
  O  O2567  1  0.202200  0.700800  0.964000  1
  O  O2568  1  0.549200  0.952200  0.714000  1
  O  O2569  1  0.950800  0.047800  0.214000  1
  O  O2570  1  0.797800  0.799200  0.964000  1
  O  O2571  1  0.450800  0.547800  0.714000  1
  O  O2572  1  0.297800  0.299200  0.464000  1
  O  O2573  1  0.308300  0.747800  0.483600  1
  O  O2574  1  0.002200  0.558300  0.733600  1
  O  O2575  1  0.808300  0.247800  0.983600  1
  O  O2576  1  0.502200  0.058300  0.233600  1
  O  O2577  1  0.997800  0.941700  0.733600  1
  O  O2578  1  0.191700  0.252200  0.983600  1
  O  O2579  1  0.497800  0.441700  0.233600  1
  O  O2580  1  0.691700  0.752200  0.483600  1
  O  O2581  1  0.691700  0.252200  0.516400  1
  O  O2582  1  0.997800  0.441700  0.266400  1
  O  O2583  1  0.191700  0.752200  0.016400  1
  O  O2584  1  0.497800  0.941700  0.766400  1
  O  O2585  1  0.002200  0.058300  0.266400  1
  O  O2586  1  0.808300  0.747800  0.016400  1
  O  O2587  1  0.502200  0.558300  0.766400  1
  O  O2588  1  0.308300  0.247800  0.516400  1
  O  O2589  1  0.344000  0.821400  0.480200  1
  O  O2590  1  0.928600  0.594000  0.730200  1
  O  O2591  1  0.844000  0.321400  0.980200  1
  O  O2592  1  0.428600  0.094000  0.230200  1
  O  O2593  1  0.071400  0.906000  0.730200  1
  O  O2594  1  0.156000  0.178600  0.980200  1
  O  O2595  1  0.571400  0.406000  0.230200  1
  O  O2596  1  0.656000  0.678600  0.480200  1
  O  O2597  1  0.656000  0.178600  0.519800  1
  O  O2598  1  0.071400  0.406000  0.269800  1
  O  O2599  1  0.156000  0.678600  0.019800  1
  O  O2600  1  0.571400  0.906000  0.769800  1
  O  O2601  1  0.928600  0.094000  0.269800  1
  O  O2602  1  0.844000  0.821400  0.019800  1
  O  O2603  1  0.428600  0.594000  0.769800  1
  O  O2604  1  0.344000  0.321400  0.519800  1
  O  O2605  1  0.494400  0.662200  0.171100  1
  O  O2606  1  0.087800  0.744400  0.421100  1
  O  O2607  1  0.994400  0.162200  0.671100  1
  O  O2608  1  0.587800  0.244400  0.921100  1
  O  O2609  1  0.912200  0.755600  0.421100  1
  O  O2610  1  0.005600  0.337800  0.671100  1
  O  O2611  1  0.412200  0.255600  0.921100  1
  O  O2612  1  0.505600  0.837800  0.171100  1
  O  O2613  1  0.505600  0.337800  0.828900  1
  O  O2614  1  0.912200  0.255600  0.578900  1
  O  O2615  1  0.005600  0.837800  0.328900  1
  O  O2616  1  0.412200  0.755600  0.078900  1
  O  O2617  1  0.087800  0.244400  0.578900  1
  O  O2618  1  0.994400  0.662200  0.328900  1
  O  O2619  1  0.587800  0.744400  0.078900  1
  O  O2620  1  0.494400  0.162200  0.828900  1
  O  O2621  1  0.941500  0.117000  0.067900  1
  O  O2622  1  0.633000  0.191500  0.317900  1
  O  O2623  1  0.441500  0.617000  0.567900  1
  O  O2624  1  0.133000  0.691500  0.817900  1
  O  O2625  1  0.367000  0.308500  0.317900  1
  O  O2626  1  0.558500  0.883000  0.567900  1
  O  O2627  1  0.867000  0.808500  0.817900  1
  O  O2628  1  0.058500  0.383000  0.067900  1
  O  O2629  1  0.058500  0.883000  0.932100  1
  O  O2630  1  0.367000  0.808500  0.682100  1
  O  O2631  1  0.558500  0.383000  0.432100  1
  O  O2632  1  0.867000  0.308500  0.182100  1
  O  O2633  1  0.633000  0.691500  0.682100  1
  O  O2634  1  0.441500  0.117000  0.432100  1
  O  O2635  1  0.133000  0.191500  0.182100  1
  O  O2636  1  0.941500  0.617000  0.932100  1
  O  O2637  1  0.665800  0.598900  0.907300  1
  O  O2638  1  0.151100  0.915800  0.157300  1
  O  O2639  1  0.165800  0.098900  0.407300  1
  O  O2640  1  0.651100  0.415800  0.657300  1
  O  O2641  1  0.848900  0.584200  0.157300  1
  O  O2642  1  0.834200  0.401100  0.407300  1
  O  O2643  1  0.348900  0.084200  0.657300  1
  O  O2644  1  0.334200  0.901100  0.907300  1
  O  O2645  1  0.334200  0.401100  0.092700  1
  O  O2646  1  0.848900  0.084200  0.842700  1
  O  O2647  1  0.834200  0.901100  0.592700  1
  O  O2648  1  0.348900  0.584200  0.342700  1
  O  O2649  1  0.151100  0.415800  0.842700  1
  O  O2650  1  0.165800  0.598900  0.592700  1
  O  O2651  1  0.651100  0.915800  0.342700  1
  O  O2652  1  0.665800  0.098900  0.092700  1
  O  O2653  1  0.379200  0.653100  0.703400  1
  O  O2654  1  0.096900  0.629200  0.953400  1
  O  O2655  1  0.879200  0.153100  0.203400  1
  O  O2656  1  0.596900  0.129200  0.453400  1
  O  O2657  1  0.903100  0.870800  0.953400  1
  O  O2658  1  0.120800  0.346900  0.203400  1
  O  O2659  1  0.403100  0.370800  0.453400  1
  O  O2660  1  0.620800  0.846900  0.703400  1
  O  O2661  1  0.620800  0.346900  0.296600  1
  O  O2662  1  0.903100  0.370800  0.046600  1
  O  O2663  1  0.120800  0.846900  0.796600  1
  O  O2664  1  0.403100  0.870800  0.546600  1
  O  O2665  1  0.096900  0.129200  0.046600  1
  O  O2666  1  0.879200  0.653100  0.796600  1
  O  O2667  1  0.596900  0.629200  0.546600  1
  O  O2668  1  0.379200  0.153100  0.296600  1
  O  O2669  1  0.597500  0.586500  0.845400  1
  O  O2670  1  0.163500  0.847500  0.095400  1
  O  O2671  1  0.097500  0.086500  0.345400  1
  O  O2672  1  0.663500  0.347500  0.595400  1
  O  O2673  1  0.836500  0.652500  0.095400  1
  O  O2674  1  0.902500  0.413500  0.345400  1
  O  O2675  1  0.336500  0.152500  0.595400  1
  O  O2676  1  0.402500  0.913500  0.845400  1
  O  O2677  1  0.402500  0.413500  0.154600  1
  O  O2678  1  0.836500  0.152500  0.904600  1
  O  O2679  1  0.902500  0.913500  0.654600  1
  O  O2680  1  0.336500  0.652500  0.404600  1
  O  O2681  1  0.163500  0.347500  0.904600  1
  O  O2682  1  0.097500  0.586500  0.654600  1
  O  O2683  1  0.663500  0.847500  0.404600  1
  O  O2684  1  0.597500  0.086500  0.154600  1
  O  O2685  1  0.739300  0.973900  0.537500  1
  O  O2686  1  0.776100  0.989300  0.787500  1
  O  O2687  1  0.239300  0.473900  0.037500  1
  O  O2688  1  0.276100  0.489300  0.287500  1
  O  O2689  1  0.223900  0.510700  0.787500  1
  O  O2690  1  0.760700  0.026100  0.037500  1
  O  O2691  1  0.723900  0.010700  0.287500  1
  O  O2692  1  0.260700  0.526100  0.537500  1
  O  O2693  1  0.260700  0.026100  0.462500  1
  O  O2694  1  0.223900  0.010700  0.212500  1
  O  O2695  1  0.760700  0.526100  0.962500  1
  O  O2696  1  0.723900  0.510700  0.712500  1
  O  O2697  1  0.776100  0.489300  0.212500  1
  O  O2698  1  0.239300  0.973900  0.962500  1
  O  O2699  1  0.276100  0.989300  0.712500  1
  O  O2700  1  0.739300  0.473900  0.462500  1
  O  O2701  1  0.953000  0.932100  0.613200  1
  O  O2702  1  0.817900  0.203000  0.863200  1
  O  O2703  1  0.453000  0.432100  0.113200  1
  O  O2704  1  0.317900  0.703000  0.363200  1
  O  O2705  1  0.182100  0.297000  0.863200  1
  O  O2706  1  0.547000  0.067900  0.113200  1
  O  O2707  1  0.682100  0.797000  0.363200  1
  O  O2708  1  0.047000  0.567900  0.613200  1
  O  O2709  1  0.047000  0.067900  0.386800  1
  O  O2710  1  0.182100  0.797000  0.136800  1
  O  O2711  1  0.547000  0.567900  0.886800  1
  O  O2712  1  0.682100  0.297000  0.636800  1
  O  O2713  1  0.817900  0.703000  0.136800  1
  O  O2714  1  0.453000  0.932100  0.886800  1
  O  O2715  1  0.317900  0.203000  0.636800  1
  O  O2716  1  0.953000  0.432100  0.386800  1
  O  O2717  1  0.584500  0.942900  0.510600  1
  O  O2718  1  0.807100  0.834500  0.760600  1
  O  O2719  1  0.084500  0.442900  0.010600  1
  O  O2720  1  0.307100  0.334500  0.260600  1
  O  O2721  1  0.192900  0.665500  0.760600  1
  O  O2722  1  0.915500  0.057100  0.010600  1
  O  O2723  1  0.692900  0.165500  0.260600  1
  O  O2724  1  0.415500  0.557100  0.510600  1
  O  O2725  1  0.415500  0.057100  0.489400  1
  O  O2726  1  0.192900  0.165500  0.239400  1
  O  O2727  1  0.915500  0.557100  0.989400  1
  O  O2728  1  0.692900  0.665500  0.739400  1
  O  O2729  1  0.807100  0.334500  0.239400  1
  O  O2730  1  0.084500  0.942900  0.989400  1
  O  O2731  1  0.307100  0.834500  0.739400  1
  O  O2732  1  0.584500  0.442900  0.489400  1
  O  O2733  1  0.546000  0.028000  0.466800  1
  O  O2734  1  0.722000  0.796000  0.716800  1
  O  O2735  1  0.046000  0.528000  0.966800  1
  O  O2736  1  0.222000  0.296000  0.216800  1
  O  O2737  1  0.278000  0.704000  0.716800  1
  O  O2738  1  0.954000  0.972000  0.966800  1
  O  O2739  1  0.778000  0.204000  0.216800  1
  O  O2740  1  0.454000  0.472000  0.466800  1
  O  O2741  1  0.454000  0.972000  0.533200  1
  O  O2742  1  0.278000  0.204000  0.283200  1
  O  O2743  1  0.954000  0.472000  0.033200  1
  O  O2744  1  0.778000  0.704000  0.783200  1
  O  O2745  1  0.722000  0.296000  0.283200  1
  O  O2746  1  0.046000  0.028000  0.033200  1
  O  O2747  1  0.222000  0.796000  0.783200  1
  O  O2748  1  0.546000  0.528000  0.533200  1
  O  O2749  1  0.406800  0.746700  0.582100  1
  O  O2750  1  0.003300  0.656800  0.832100  1
  O  O2751  1  0.906800  0.246700  0.082100  1
  O  O2752  1  0.503300  0.156800  0.332100  1
  O  O2753  1  0.996700  0.843200  0.832100  1
  O  O2754  1  0.093200  0.253300  0.082100  1
  O  O2755  1  0.496700  0.343200  0.332100  1
  O  O2756  1  0.593200  0.753300  0.582100  1
  O  O2757  1  0.593200  0.253300  0.417900  1
  O  O2758  1  0.996700  0.343200  0.167900  1
  O  O2759  1  0.093200  0.753300  0.917900  1
  O  O2760  1  0.496700  0.843200  0.667900  1
  O  O2761  1  0.003300  0.156800  0.167900  1
  O  O2762  1  0.906800  0.746700  0.917900  1
  O  O2763  1  0.503300  0.656800  0.667900  1
  O  O2764  1  0.406800  0.246700  0.417900  1
  O  O2765  1  0.006800  0.915300  0.574200  1
  O  O2766  1  0.834700  0.256800  0.824200  1
  O  O2767  1  0.506800  0.415300  0.074200  1
  O  O2768  1  0.334700  0.756800  0.324200  1
  O  O2769  1  0.165300  0.243200  0.824200  1
  O  O2770  1  0.493200  0.084700  0.074200  1
  O  O2771  1  0.665300  0.743200  0.324200  1
  O  O2772  1  0.993200  0.584700  0.574200  1
  O  O2773  1  0.993200  0.084700  0.425800  1
  O  O2774  1  0.165300  0.743200  0.175800  1
  O  O2775  1  0.493200  0.584700  0.925800  1
  O  O2776  1  0.665300  0.243200  0.675800  1
  O  O2777  1  0.834700  0.756800  0.175800  1
  O  O2778  1  0.506800  0.915300  0.925800  1
  O  O2779  1  0.334700  0.256800  0.675800  1
  O  O2780  1  0.006800  0.415300  0.425800  1
  O  O2781  1  0.675400  0.926300  0.463100  1
  O  O2782  1  0.823700  0.925400  0.713100  1
  O  O2783  1  0.175400  0.426300  0.963100  1
  O  O2784  1  0.323700  0.425400  0.213100  1
  O  O2785  1  0.176300  0.574600  0.713100  1
  O  O2786  1  0.824600  0.073700  0.963100  1
  O  O2787  1  0.676300  0.074600  0.213100  1
  O  O2788  1  0.324600  0.573700  0.463100  1
  O  O2789  1  0.324600  0.073700  0.536900  1
  O  O2790  1  0.176300  0.074600  0.286900  1
  O  O2791  1  0.824600  0.573700  0.036900  1
  O  O2792  1  0.676300  0.574600  0.786900  1
  O  O2793  1  0.823700  0.425400  0.286900  1
  O  O2794  1  0.175400  0.926300  0.036900  1
  O  O2795  1  0.323700  0.925400  0.786900  1
  O  O2796  1  0.675400  0.426300  0.536900  1
  O  O2797  1  0.492700  0.911700  0.565300  1
  O  O2798  1  0.838300  0.742700  0.815300  1
  O  O2799  1  0.992700  0.411700  0.065300  1
  O  O2800  1  0.338300  0.242700  0.315300  1
  O  O2801  1  0.161700  0.757300  0.815300  1
  O  O2802  1  0.007300  0.088300  0.065300  1
  O  O2803  1  0.661700  0.257300  0.315300  1
  O  O2804  1  0.507300  0.588300  0.565300  1
  O  O2805  1  0.507300  0.088300  0.434700  1
  O  O2806  1  0.161700  0.257300  0.184700  1
  O  O2807  1  0.007300  0.588300  0.934700  1
  O  O2808  1  0.661700  0.757300  0.684700  1
  O  O2809  1  0.838300  0.242700  0.184700  1
  O  O2810  1  0.992700  0.911700  0.934700  1
  O  O2811  1  0.338300  0.742700  0.684700  1
  O  O2812  1  0.492700  0.411700  0.434700  1
  O  O2813  1  0.895100  0.952100  0.556200  1
  O  O2814  1  0.797900  0.145100  0.806200  1
  O  O2815  1  0.395100  0.452100  0.056200  1
  O  O2816  1  0.297900  0.645100  0.306200  1
  O  O2817  1  0.202100  0.354900  0.806200  1
  O  O2818  1  0.604900  0.047900  0.056200  1
  O  O2819  1  0.702100  0.854900  0.306200  1
  O  O2820  1  0.104900  0.547900  0.556200  1
  O  O2821  1  0.104900  0.047900  0.443800  1
  O  O2822  1  0.202100  0.854900  0.193800  1
  O  O2823  1  0.604900  0.547900  0.943800  1
  O  O2824  1  0.702100  0.354900  0.693800  1
  O  O2825  1  0.797900  0.645100  0.193800  1
  O  O2826  1  0.395100  0.952100  0.943800  1
  O  O2827  1  0.297900  0.145100  0.693800  1
  O  O2828  1  0.895100  0.452100  0.443800  1
  O  O2829  1  0.440800  0.920100  0.064500  1.0
  O  O2830  1  0.829900  0.690800  0.314500  1.0
  O  O2831  1  0.940800  0.420100  0.564500  1.0
  O  O2832  1  0.329900  0.190800  0.814500  1.0
  O  O2833  1  0.170100  0.809200  0.314500  1.0
  O  O2834  1  0.059200  0.079900  0.564500  1.0
  O  O2835  1  0.670100  0.309200  0.814500  1.0
  O  O2836  1  0.559200  0.579900  0.064500  1.0
  O  O2837  1  0.559200  0.079900  0.935500  1.0
  O  O2838  1  0.170100  0.309200  0.685500  1.0
  O  O2839  1  0.059200  0.579900  0.435500  1.0
  O  O2840  1  0.670100  0.809200  0.185500  1.0
  O  O2841  1  0.829900  0.190800  0.685500  1.0
  O  O2842  1  0.940800  0.920100  0.435500  1.0
  O  O2843  1  0.329900  0.690800  0.185500  1.0
  O  O2844  1  0.440800  0.420100  0.935500  1.0
  O  O2845  1  0.508600  0.834700  0.173000  1.0
  O  O2846  1  0.915300  0.758600  0.423000  1.0
  O  O2847  1  0.008600  0.334700  0.673000  1.0
  O  O2848  1  0.415300  0.258600  0.923000  1.0
  O  O2849  1  0.084700  0.741400  0.423000  1.0
  O  O2850  1  0.991400  0.165300  0.673000  1.0
  O  O2851  1  0.584700  0.241400  0.923000  1.0
  O  O2852  1  0.491400  0.665300  0.173000  1.0
  O  O2853  1  0.491400  0.165300  0.827000  1.0
  O  O2854  1  0.084700  0.241400  0.577000  1.0
  O  O2855  1  0.991400  0.665300  0.327000  1.0
  O  O2856  1  0.584700  0.741400  0.077000  1.0
  O  O2857  1  0.915300  0.258600  0.577000  1.0
  O  O2858  1  0.008600  0.834700  0.327000  1.0
  O  O2859  1  0.415300  0.758600  0.077000  1.0
  O  O2860  1  0.508600  0.334700  0.827000  1.0
