
#######################################################################
#
#                 Cambridge Crystallographic Data Centre
#                                CCDC 
#
#######################################################################
#
# If this CIF has been generated from an entry in the Cambridge 
# Structural Database, then it will include bibliographic, chemical, 
# crystal, experimental, refinement or atomic coordinate data resulting 
# from the CCDC's data processing and validation procedures.
#
#######################################################################

data_SERBAT
_chemical_formula_moiety         
'C108 H144 N36 Pd6 12+,12(N1 O3 1-),C9 H7 Mn1 O3,C18 H12 N6,15(H2 O1)'
_chemical_name_systematic        
'tetrakis(\m~3~-2,4,6-tris(4-pyridyl)triazine)-hexakis(1,2-bis(dimethylamino)ethane)-hexa-palladium dodecanitrate tricarbonyl-(\h^5^-1-methylcyclopentadienyl)-manganese 2,4,6-tris(4-pyridyl)triazine pentadecahydrate'
_symmetry_cell_setting           monoclinic
_symmetry_space_group_name_H-M   'C 2/c'
_symmetry_Int_Tables_number      15
_space_group_name_Hall           '-C 2yn'
loop_
_symmetry_equiv_pos_site_id
_symmetry_equiv_pos_as_xyz
1 x,y,z
2 1/2+x,1/2+y,z
3 -x,y,1/2-z
4 1/2-x,1/2+y,1/2-z
5 -x,-y,-z
6 1/2-x,1/2-y,-z
7 x,-y,1/2+z
8 1/2+x,1/2-y,1/2+z
_cell_length_a                   46.536(2)
_cell_length_b                   27.0974(13)
_cell_length_c                   37.7805(18)
_cell_angle_alpha                90
_cell_angle_beta                 101.4870(10)
_cell_angle_gamma                90
_cell_volume                     46687.1
_exptl_crystal_colour            yellow
_exptl_crystal_description       plate
_cell_formula_units_Z            8
loop_
_atom_site_label
_atom_site_type_symbol
_atom_site_fract_x
_atom_site_fract_y
_atom_site_fract_z
C1 C 0.3210(7) 0.7683(12) 0.8487(11)
C2 C 0.3484(4) 0.7989(7) 0.8603(7)
C3 C 0.3599(5) 0.8180(9) 0.8954(6)
C4 C 0.3860(5) 0.8451(8) 0.8938(6)
C5 C 0.3906(4) 0.8428(9) 0.8578(7)
C6 C 0.3674(6) 0.8143(9) 0.8370(5)
Mn1 Mn 0.35238(13) 0.8763(2) 0.85869(19)
C7 C 0.3153(4) 0.8713(8) 0.8335(6)
O1 O 0.2912(4) 0.8686(14) 0.8177(9)
C8 C 0.3444(3) 0.9199(8) 0.8922(5)
O2 O 0.3390(4) 0.9478(6) 0.9133(4)
C9 C 0.3665(8) 0.9207(11) 0.8307(8)
O3 O 0.3781(6) 0.9559(8) 0.8219(7)
N1 N 0.2750(3) 0.6943(4) 0.7536(4)
C10 C 0.2618(3) 0.7375(4) 0.7563(4)
C11 C 0.2752(2) 0.7834(4) 0.7550(3)
C12 C 0.3043(2) 0.7847(3) 0.7512(2)
C13 C 0.3184(3) 0.7401(3) 0.7483(3)
C14 C 0.3028(3) 0.6964(3) 0.7495(4)
N2 N 0.2727(4) 1.0537(4) 0.7437(5)
C15 C 0.3018(4) 1.0519(3) 0.7478(4)
C16 C 0.3179(3) 1.0085(3) 0.7490(4)
C17 C 0.3031(3) 0.9637(3) 0.7461(3)
C18 C 0.2727(3) 0.9645(4) 0.7423(4)
C19 C 0.2587(3) 1.0103(4) 0.7411(5)
N3 N 0.4540(2) 0.8751(6) 0.7486(5)
C20 C 0.4383(2) 0.8336(5) 0.7449(5)
C21 C 0.4085(2) 0.8314(4) 0.7450(4)
C22 C 0.3937(2) 0.8747(4) 0.7486(3)
C23 C 0.4095(2) 0.9183(4) 0.7522(4)
C24 C 0.4394(2) 0.9164(5) 0.7523(5)
C25 C 0.3198(2) 0.8326(3) 0.7496(2)
N4 N 0.3042(2) 0.8742(3) 0.7487(2)
C26 C 0.3194(2) 0.9160(3) 0.7477(2)
N5 N 0.3482(2) 0.9185(3) 0.7480(2)
C27 C 0.3617(2) 0.8745(3) 0.7486(2)
N6 N 0.3486(2) 0.8304(3) 0.7492(2)
Pd1 Pd 0.525499(17) 0.88210(3) 0.94591(2)
Pd2 Pd 0.285979(15) 1.11830(3) 0.941557(17)
Pd3 Pd 0.39725(2) 1.11635(3) 0.64573(2)
Pd4 Pd 0.15417(2) 0.87502(3) 0.65692(2)
Pd5 Pd 0.284743(18) 0.63864(3) 0.94939(2)
Pd6 Pd 0.39881(2) 0.63466(3) 0.66005(2)
N7 N 0.49678(17) 0.9303(3) 0.9179(2)
N8 N 0.31947(17) 1.1066(3) 0.9156(2)
N9 N 0.4033(2) 1.1080(3) 0.7008(2)
N10 N 0.4979(2) 0.8286(3) 0.9232(2)
N11 N 0.4052(2) 0.6433(4) 0.7142(2)
N12 N 0.32065(19) 0.6467(3) 0.9273(2)
N13 N 0.26953(16) 1.0552(3) 0.91806(18)
N14 N 0.26920(19) 0.7015(3) 0.9228(2)
N15 N 0.1691(2) 0.8745(3) 0.7117(2)
N16 N 0.3749(2) 1.0525(4) 0.6444(2)
N17 N 0.1977(2) 0.8767(4) 0.6538(2)
N18 N 0.3771(2) 0.6998(4) 0.6579(2)
N19 N 0.40801(18) 1.0365(3) 0.8779(2)
N20 N 0.38533(18) 1.0802(3) 0.8259(2)
N21 N 0.42935(17) 1.0361(3) 0.8253(2)
N22 N 0.43126(19) 0.7163(3) 0.8385(2)
N23 N 0.38757(19) 0.6717(3) 0.8395(2)
N24 N 0.41059(18) 0.7167(3) 0.8906(2)
N25 N 0.2506(2) 0.8770(3) 0.8844(2)
N26 N 0.2253(2) 0.8319(3) 0.8344(2)
N27 N 0.22592(18) 0.9198(3) 0.8324(2)
N28 N 0.3020(2) 0.9198(3) 0.6547(2)
N29 N 0.3025(2) 0.8314(3) 0.6589(2)
N30 N 0.3469(2) 0.8770(3) 0.6557(2)
C28 C 0.4722(2) 0.9430(4) 0.9313(3)
C29 C 0.4509(2) 0.9736(4) 0.9134(3)
C30 C 0.4520(2) 0.9906(4) 0.8793(3)
C31 C 0.4759(2) 0.9758(4) 0.8650(3)
C32 C 0.4968(2) 0.9457(4) 0.8851(3)
C33 C 0.3197(2) 1.1248(4) 0.8824(2)
C34 C 0.3407(2) 1.1125(4) 0.8626(3)
C35 C 0.3635(2) 1.0803(4) 0.8788(3)
C36 C 0.3634(2) 1.0633(4) 0.9134(3)
C37 C 0.3415(2) 1.0771(4) 0.9308(2)
C38 C 0.4263(3) 1.0798(5) 0.7183(3)
C39 C 0.4277(2) 1.0661(5) 0.7527(3)
C40 C 0.4063(2) 1.0804(4) 0.7725(3)
C41 C 0.3837(3) 1.1100(4) 0.7548(3)
C42 C 0.3835(3) 1.1226(5) 0.7182(3)
C43 C 0.4992(3) 0.8082(4) 0.8908(3)
C44 C 0.4778(3) 0.7782(4) 0.8733(3)
C45 C 0.4552(2) 0.7620(4) 0.8913(3)
C46 C 0.4540(2) 0.7812(4) 0.9245(3)
C47 C 0.4760(2) 0.8142(4) 0.9404(3)
C48 C 0.3838(3) 0.6289(4) 0.7316(3)
C49 C 0.3853(2) 0.6413(4) 0.7678(3)
C50 C 0.4078(2) 0.6701(4) 0.7852(3)
C51 C 0.4298(2) 0.6848(5) 0.7677(3)
C52 C 0.4274(2) 0.6696(5) 0.7324(3)
C53 C 0.3429(3) 0.6756(4) 0.9437(3)
C54 C 0.3664(2) 0.6895(5) 0.9276(3)
C55 C 0.3653(2) 0.6721(4) 0.8911(3)
C56 C 0.3439(3) 0.6414(4) 0.8760(3)
C57 C 0.3217(2) 0.6291(4) 0.8933(3)
C58 C 0.2784(2) 1.0118(4) 0.9335(2)
C59 C 0.2699(2) 0.9659(4) 0.9179(2)
C60 C 0.2512(2) 0.9652(4) 0.8842(2)
C61 C 0.2419(2) 1.0108(4) 0.8683(3)
C62 C 0.2518(2) 1.0543(3) 0.8859(2)
C63 C 0.2518(3) 0.7015(4) 0.8906(3)
C64 C 0.2425(3) 0.7432(4) 0.8716(3)
C65 C 0.2524(2) 0.7883(3) 0.8863(3)
C66 C 0.2709(3) 0.7893(4) 0.9194(3)
C67 C 0.2789(3) 0.7460(4) 0.9369(3)
C68 C 0.1764(3) 0.9168(4) 0.7284(3)
C69 C 0.1913(3) 0.9183(4) 0.7627(3)
C70 C 0.2004(3) 0.8755(4) 0.7814(3)
C71 C 0.1927(3) 0.8326(4) 0.7637(3)
C72 C 0.1769(3) 0.8320(4) 0.7284(3)
C73 C 0.3469(3) 1.0522(5) 0.6459(3)
C74 C 0.3315(3) 1.0105(5) 0.6492(3)
C75 C 0.3461(3) 0.9643(4) 0.6499(3)
C76 C 0.3762(3) 0.9645(4) 0.6488(3)
C77 C 0.3893(3) 1.0086(5) 0.6452(3)
C78 C 0.2128(2) 0.8334(4) 0.6552(3)
C79 C 0.2416(3) 0.8312(4) 0.6560(3)
C80 C 0.2567(3) 0.8760(4) 0.6570(3)
C81 C 0.2412(3) 0.9204(4) 0.6567(3)
C82 C 0.2117(3) 0.9179(5) 0.6549(3)
C83 C 0.3905(3) 0.7424(5) 0.6584(3)
C84 C 0.3778(3) 0.7862(5) 0.6594(3)
C85 C 0.3471(3) 0.7859(4) 0.6595(2)
C86 C 0.3328(3) 0.7421(4) 0.6592(3)
C87 C 0.3480(3) 0.6997(4) 0.6573(3)
C88 C 0.4287(2) 1.0231(4) 0.8603(3)
C89 C 0.3864(2) 1.0648(4) 0.8591(3)
C90 C 0.4070(2) 1.0653(4) 0.8105(3)
C91 C 0.4302(2) 0.7287(4) 0.8729(3)
C92 C 0.4086(2) 0.6865(4) 0.8235(3)
C93 C 0.3900(2) 0.6883(4) 0.8731(3)
C94 C 0.2425(2) 0.9181(4) 0.8662(3)
C95 C 0.2423(2) 0.8352(4) 0.8674(3)
C96 C 0.2187(2) 0.8761(4) 0.8182(3)
C97 C 0.3304(3) 0.9175(4) 0.6538(3)
C98 C 0.2890(2) 0.8766(4) 0.6569(3)
C99 C 0.3318(3) 0.8343(5) 0.6580(3)
C100 C 0.5691(3) 0.9607(5) 0.9470(4)
C101 C 0.5354(3) 0.9748(5) 0.9888(3)
C102 C 0.5740(3) 0.9136(5) 1.0019(4)
C103 C 0.5825(3) 0.8628(5) 0.9869(4)
C104 C 0.5657(3) 0.7975(5) 0.9509(3)
C105 C 0.5428(3) 0.8103(5) 1.0044(4)
C106 C 0.3327(3) 1.1714(5) 0.9890(3)
C107 C 0.3082(3) 1.2203(5) 0.9397(4)
C108 C 0.2827(3) 1.2014(6) 0.9864(4)
C109 C 0.2659(4) 1.1663(6) 0.9968(5)
C110 C 0.2252(3) 1.1427(5) 0.9466(3)
C111 C 0.2483(3) 1.0849(5) 0.9894(4)
C112 C 0.4079(4) 1.2209(7) 0.6663(5)
C113 C 0.4512(5) 1.1711(8) 0.6633(6)
C114 C 0.4151(6) 1.1999(10) 0.6118(7)
C115 C 0.4039(4) 1.1670(7) 0.5835(5)
C116 C 0.3593(4) 1.1286(6) 0.5756(5)
C117 C 0.4025(4) 1.0819(6) 0.5738(5)
C118 C 0.1042(4) 0.8301(7) 0.6800(5)
C119 C 0.1018(4) 0.9161(7) 0.6765(5)
C120 C 0.0955(4) 0.8713(7) 0.6232(5)
C121 C 0.1096(5) 0.8766(8) 0.5944(7)
C122 C 0.1504(3) 0.8334(5) 0.5853(4)
C123 C 0.1513(4) 0.9215(7) 0.5874(5)
C124 C 0.3089(3) 0.5372(5) 0.9531(3)
C125 C 0.3251(3) 0.5862(5) 1.0054(3)
C126 C 0.2741(3) 0.5545(5) 0.9911(3)
C127 C 0.2581(4) 0.5966(6) 1.0040(4)
C128 C 0.2231(3) 0.6157(5) 0.9482(4)
C129 C 0.2410(3) 0.6791(5) 0.9894(4)
C130 C 0.4037(4) 0.5306(6) 0.6805(5)
C131 C 0.4511(4) 0.5745(7) 0.6820(5)
C132 C 0.4206(4) 0.5548(6) 0.6252(5)
C133 C 0.4029(7) 0.5761(11) 0.5999(8)
C134 C 0.3629(4) 0.6251(6) 0.5876(5)
C135 C 0.4080(4) 0.6664(7) 0.5888(5)
N31 N 0.55248(19) 0.9371(3) 0.9715(2)
N32 N 0.5543(2) 0.8382(4) 0.9710(3)
N33 N 0.30443(19) 1.1811(3) 0.9665(2)
N34 N 0.25277(19) 1.1285(3) 0.9695(2)
N35 N 0.4196(3) 1.1820(4) 0.6486(3)
N36 N 0.3896(3) 1.1238(5) 0.5894(3)
N37 N 0.1111(2) 0.8728(4) 0.6599(3)
N38 N 0.1398(3) 0.8745(5) 0.6019(3)
N39 N 0.2999(2) 0.5749(3) 0.9758(2)
N40 N 0.2491(2) 0.6313(4) 0.9733(2)
N41 N 0.42004(19) 0.5693(4) 0.6623(2)
N42 N 0.3921(3) 0.6270(4) 0.6046(3)
H1 H 0.4701 0.9298 0.9539
H2 H 0.4351 0.9832 0.9246
H3 H 0.4779 0.9864 0.8416
H4 H 0.5125 0.9351 0.8742
H5 H 0.3047 1.1473 0.8721
H6 H 0.3398 1.1252 0.8390
H7 H 0.3786 1.0421 0.9250
H8 H 0.3419 1.0651 0.9545
H9 H 0.4413 1.0700 0.7061
H10 H 0.4436 1.0460 0.7642
H11 H 0.3688 1.1215 0.7667
H12 H 0.3680 1.1429 0.7059
H13 H 0.5156 0.8151 0.8802
H14 H 0.4777 0.7680 0.8492
H15 H 0.4386 0.7723 0.9365
H16 H 0.4757 0.8270 0.9637
H17 H 0.3676 0.6102 0.7191
H18 H 0.3708 0.6298 0.7803
H19 H 0.4458 0.7044 0.7794
H20 H 0.4426 0.6787 0.7202
H21 H 0.3427 0.6872 0.9674
H22 H 0.3821 0.7092 0.9399
H23 H 0.3440 0.6279 0.8528
H24 H 0.3065 0.6078 0.8815
H25 H 0.2913 1.0123 0.9564
H26 H 0.2766 0.9360 0.9299
H27 H 0.2287 1.0119 0.8456
H28 H 0.2457 1.0848 0.8745
H29 H 0.2454 0.6706 0.8800
H30 H 0.2296 0.7414 0.8487
H31 H 0.2780 0.8198 0.9299
H32 H 0.2918 0.7469 0.9598
H33 H 0.1709 0.9468 0.7159
H34 H 0.1957 0.9493 0.7742
H35 H 0.1982 0.8022 0.7757
H36 H 0.1718 0.8015 0.7163
H37 H 0.3369 1.0830 0.6445
H38 H 0.3115 1.0122 0.6511
H39 H 0.3871 0.9346 0.6505
H40 H 0.4093 1.0088 0.6433
H41 H 0.2023 0.8034 0.6556
H42 H 0.2514 0.8005 0.6559
H43 H 0.2510 0.9513 0.6577
H44 H 0.2009 0.9478 0.6543
H45 H 0.4109 0.7420 0.6580
H46 H 0.3886 0.8161 0.6600
H47 H 0.3126 0.7411 0.6603
H48 H 0.3379 0.6691 0.6556
H49 H 0.5816 0.9866 0.9599
H50 H 0.5555 0.9752 0.9265
H51 H 0.5813 0.9359 0.9381
H52 H 0.5488 1.0003 1.0008
H53 H 0.5260 0.9584 1.0066
H54 H 0.5204 0.9901 0.9701
H55 H 0.5649 0.9085 1.0232
H56 H 0.5915 0.9347 1.0090
H57 H 0.5945 0.8679 0.9683
H58 H 0.5939 0.8425 1.0066
H59 H 0.5798 0.7777 0.9678
H60 H 0.5753 0.8116 0.9324
H61 H 0.5493 0.7765 0.9394
H62 H 0.5582 0.7885 1.0171
H63 H 0.5253 0.7908 0.9947
H64 H 0.5380 0.8351 1.0213
H65 H 0.3410 1.2022 1.0002
H66 H 0.3458 1.1576 0.9742
H67 H 0.3305 1.1477 1.0079
H68 H 0.3176 1.2493 0.9526
H69 H 0.2890 1.2295 0.9255
H70 H 0.3206 1.2076 0.9236
H71 H 0.2931 1.2193 1.0080
H72 H 0.2700 1.2253 0.9707
H73 H 0.2496 1.1828 1.0056
H74 H 0.2778 1.1487 1.0176
H75 H 0.2104 1.1474 0.9614
H76 H 0.2188 1.1168 0.9287
H77 H 0.2279 1.1737 0.9342
H78 H 0.2325 1.0907 1.0026
H79 H 0.2665 1.0769 1.0065
H80 H 0.2430 1.0573 0.9726
H81 H 0.4199 1.2505 0.6662
H82 H 0.4078 1.2112 0.6912
H83 H 0.3878 1.2278 0.6536
H84 H 0.4625 1.2019 0.6652
H85 H 0.4586 1.1482 0.6472
H86 H 0.4532 1.1562 0.6873
H87 H 0.4016 1.2284 0.6098
H88 H 0.4341 1.2125 0.6076
H89 H 0.3901 1.1861 0.5652
H90 H 0.4205 1.1574 0.5722
H91 H 0.3558 1.1320 0.5493
H92 H 0.3518 1.1579 0.5861
H93 H 0.3491 1.0992 0.5819
H94 H 0.3983 1.0849 0.5475
H95 H 0.3940 1.0512 0.5808
H96 H 0.4237 1.0816 0.5828
H97 H 0.0833 0.8305 0.6809
H98 H 0.1159 0.8311 0.7046
H99 H 0.1087 0.7998 0.6680
H100 H 0.0809 0.9132 0.6772
H101 H 0.1049 0.9453 0.6625
H102 H 0.1132 0.9192 0.7012
H103 H 0.0850 0.8393 0.6199
H104 H 0.0803 0.8974 0.6206
H105 H 0.1023 0.8505 0.5766
H106 H 0.1037 0.9087 0.5827
H107 H 0.1434 0.8352 0.5591
H108 H 0.1433 0.8029 0.5945
H109 H 0.1719 0.8337 0.5907
H110 H 0.1449 0.9226 0.5611
H111 H 0.1728 0.9216 0.5936
H112 H 0.1437 0.9503 0.5982
H113 H 0.3158 0.5081 0.9677
H114 H 0.3249 0.5500 0.9422
H115 H 0.2923 0.5281 0.9340
H116 H 0.3320 0.5558 1.0184
H117 H 0.3190 0.6098 1.0221
H118 H 0.3411 0.6006 0.9952
H119 H 0.2606 0.5359 0.9721
H120 H 0.2814 0.5318 1.0114
H121 H 0.2405 0.5842 1.0124
H122 H 0.2709 0.6135 1.0244
H123 H 0.2066 0.6135 0.9607
H124 H 0.2266 0.5832 0.9383
H125 H 0.2185 0.6396 0.9284
H126 H 0.2238 0.6737 1.0004
H127 H 0.2363 0.7041 0.9704
H128 H 0.2575 0.6905 1.0080
H129 H 0.4140 0.4990 0.6816
H130 H 0.3837 0.5268 0.6665
H131 H 0.4030 0.5415 0.7051
H132 H 0.4610 0.5425 0.6827
H133 H 0.4515 0.5858 0.7067
H134 H 0.4613 0.5986 0.6694
H135 H 0.4407 0.5603 0.6211
H136 H 0.4168 0.5189 0.6230
H137 H 0.3854 0.5546 0.5935
H138 H 0.4123 0.5767 0.5786
H139 H 0.3615 0.6230 0.5614
H140 H 0.3529 0.6549 0.5934
H141 H 0.3537 0.5959 0.5960
H142 H 0.4042 0.6629 0.5625
H143 H 0.4291 0.6635 0.5984
H144 H 0.4012 0.6988 0.5952
N43 N 0.3371(2) 0.7689(4) 0.5722(3)
O4 O 0.3233(2) 0.7329(4) 0.5663(3)
O5 O 0.3243(3) 0.8115(4) 0.5794(3)
O6 O 0.3639(2) 0.7726(4) 0.5712(3)
N44 N 0.2582(6) 0.6839(9) 0.6493(9)
O7 O 0.2810(7) 0.6741(13) 0.6407(10)
O8 O 0.2434(8) 0.7247(11) 0.6408(11)
O9 O 0.2465(5) 0.6542(8) 0.6692(6)
N45 N 0.3135(4) 0.4849(6) 0.5917(5)
O10 O 0.3047(4) 0.4435(6) 0.5827(5)
O11 O 0.3064(3) 0.5246(5) 0.5742(4)
O12 O 0.3312(5) 0.4930(8) 0.6226(5)
N46 N 0.3069(9) 0.2768(10) 0.5502(7)
O13 O 0.3105(8) 0.2379(10) 0.5656(8)
O14 O 0.3165(4) 0.2869(7) 0.5206(5)
O15 O 0.3009(7) 0.3148(10) 0.5682(7)
O16 O 0.3243(5) 1.0524(8) 1.0094(6)
N47 N 0.3324(6) 1.0378(9) 1.0564(11)
O17 O 0.3579(5) 1.0324(9) 1.0567(7)
O18 O 0.3197(4) 1.0768(7) 1.0684(6)
O19 O 0.3162(6) 0.9975(9) 1.0531(9)
N48 N 0.2322(3) 0.8739(5) 0.5711(4)
O20 O 0.2209(3) 0.8360(5) 0.5645(4)
O21 O 0.2192(3) 0.9169(4) 0.5679(3)
O22 O 0.2612(3) 0.8756(6) 0.5805(5)
N49 N 0.3926(5) 1.1921(9) 0.9099(6)
O23 O 0.4144(5) 1.1557(10) 0.9181(6)
O24 O 0.3918(6) 1.2057(10) 0.8767(7)
O25 O 0.3771(4) 1.2016(6) 0.9230(4)
N50 N 0.2520(5) 0.5623(9) 0.8730(6)
O26 O 0.2497(10) 0.5936(14) 0.8497(12)
O27 O 0.2699(9) 0.5265(14) 0.8663(14)
O28 O 0.2283(8) 0.5420(17) 0.8786(14)
N51 N 0.4954(7) 1.0814(16) 0.9199(7)
O29 O 0.4788(6) 1.0922(13) 0.9388(8)
O30 O 0.4890(7) 1.0892(13) 0.8839(7)
O31 O 0.5219(6) 1.0671(13) 0.9320(8)
O32 O 0.5153(6) 1.1095(9) 0.9862(7)
N52 N 0.5536(9) 0.8718(11) 0.8557(12)
O33 O 0.5324(8) 0.8726(11) 0.8312(10)
O34 O 0.5672(8) 0.9139(11) 0.8650(11)
O35 O 0.5690(9) 0.8322(12) 0.8650(12)
N53 N 0.5269(12) 0.5924(16) 0.4885(12)
O36 O 0.5209(18) 0.6353(16) 0.4884(19)
O37 O 0.5310(14) 0.570(2) 0.4590(13)
O38 O 0.5219(12) 0.5617(19) 0.5131(13)
O39 O 0.4811(11) 0.599(3) 0.4257(19)
O40 O 0.5355(9) 1.2177(16) 0.9751(12)
O41 O 0.3811(3) 1.1256(5) 1.0818(4)
O42 O 0.4263(3) 0.4249(5) 1.0002(4)
O43 O 0.2679(2) 0.7696(4) 0.5840(3)
O44 O 0.4303(3) 0.3256(6) 0.9977(4)
O45 O 0.3795(3) 0.4824(5) 1.0044(4)
O46 O 0.2665(3) 0.9867(5) 0.5791(4)
O47 O 0.5192(3) 0.7011(5) 0.9483(4)
O48 O 0.5396(3) 1.0488(6) 0.8532(4)
O49 O 0.3203(4) 0.6415(7) 0.4929(5)
O50 O 0.3317(3) 0.5755(5) 0.6613(4)
O51 O 0.1560(3) 0.7460(6) 0.6563(4)
O52 O 0.4409(5) 0.6120(8) 0.8880(6)
O53 O 0.3812(4) 0.5574(7) 0.9527(5)
O54 O 0.5299(8) 0.6900(15) 0.8351(10)
O55 O 0.3478(6) 0.5097(10) 0.8374(7)
O56 O 0.4711(6) 0.5550(11) 0.5596(8)
O57 O 0.0549(6) 0.9714(10) 0.5629(8)
O58 O 0.5170(7) 0.6607(12) 0.8796(8)
O59 O 0.3944(10) 0.5297(15) 0.8868(11)
O60 O 0.3317(5) 0.8164(10) 0.9853(7)
O61 O 0.3873(7) 0.2964(12) 0.5283(9)
O62 O 0.3424(4) 0.6957(6) 0.5076(5)
O63 O 0.4025(6) 0.4526(11) 0.5585(8)
O64 O 0.4956(7) 0.5223(13) 0.6158(9)
O65 O 0.5369(7) 0.3117(11) 0.5528(8)
O66 O 0.5100(6) 0.7045(11) 0.5017(8)
O67 O 0.5396(15) 0.517(3) 0.4124(18)
O68 O 0.3669(12) 0.512(2) 0.7555(15)
O69 O 0.4450(16) 1.173(3) 0.8453(19)
O70 O 0.5185(11) 0.2312(18) 0.5936(13)
O71 O 0.3179(6) 0.9228(10) 0.9894(7)
O72 O 0.5728(14) 0.745(2) 0.4922(17)
O73 O 0.4468(11) 0.3167(19) 0.6072(14)
O74 O 0.4248(9) 0.4643(16) 0.3598(12)
O75 O 0.5262(12) 0.368(2) 0.6466(16)
O76 O 0.5869(8) 1.0740(14) 1.0240(9)
O77 O 0.4005(7) 0.3877(11) 0.4973(9)
O78 O 0.6387(13) 0.213(2) 0.7163(16)
O79 O 0.5000 0.6489(17) 0.7500
O80 O 0.6142(8) 0.3132(14) 0.7705(10)
O81 O 0.1739(14) 0.686(2) 0.7425(17)
O82 O 0.3283(5) 0.1761(10) 0.6454(7)
O83 O 0.5312(11) 0.4699(19) 0.7302(14)
O84 O 0.3925(11) 0.4279(19) 0.6144(14)
O85 O 0.4902(13) 0.442(2) 0.6649(16)
O86 O 0.5274(7) 0.5749(12) 0.7175(9)
O87 O 0.2048(7) 1.0400(12) 0.6628(9)
O88 O 0.4236(7) 0.5256(12) 0.7753(9)
O89 O 0.5415(8) 0.9757(13) 0.8264(10)
O90 O 0.3182(9) 0.5420(15) 0.7328(11)
O91 O 0.3749(8) 0.9827(13) 0.9827(9)
O92 O 0.4663(11) 1.179(2) 0.7575(14)
O93 O 0.4433(11) 0.4115(19) 0.6659(14)
O94 O 0.6221(13) 0.694(2) 0.4233(16)
O95 O 0.4836(9) 0.6905(15) 0.3194(11)
O96 O 0.6040(14) 0.782(3) 0.5107(17)
O97 O 0.5350(10) 0.6540(17) 0.5435(13)
O98 O 0.4554(15) 0.523(3) 0.3788(19)
O99 O 0.4423(12) 1.1219(17) 0.8882(16)
C136? C 0.4173(9) 0.8676(16) 0.8476(14)
C137? C 0.4117(11) 0.837(3) 0.9054(17)
C138? C 0.3324(7) 0.8673(15) 0.9040(8)
C139? C 0.3555(9) 0.8327(11) 0.9052(8)
C140? C 0.3816(6) 0.8595(14) 0.9045(8)
C141? C 0.3747(7) 0.9105(12) 0.9028(9)
C142? C 0.3442(8) 0.9154(12) 0.9025(9)
Mn2? Mn 0.3523(2) 0.8761(4) 0.8586(3)
C143? C 0.3140(3) 0.8783(6) 0.8368(4)
O100? O 0.2895(3) 0.8808(9) 0.8228(5)
C144? C 0.3657(4) 0.8253(8) 0.8353(6)
O101? O 0.3737(6) 0.7897(8) 0.8230(7)
C145? C 0.3664(4) 0.9284(8) 0.8370(7)
O102? O 0.3672(7) 0.9642(8) 0.8198(7)
N54? N 0.3407(8) 0.3745(13) 0.6445(10)
O103? O 0.3491(9) 0.4122(14) 0.6595(12)
O104? O 0.3155(9) 0.3693(17) 0.6221(13)
O105? O 0.3557(13) 0.3334(17) 0.649(2)
O106? O 0.3437(11) 0.9922(18) 0.9927(13)
O107? O 0.5645(7) 0.8784(12) 0.8736(9)
N55? N 0.5426(14) 0.6348(18) 0.5044(11)
O108? O 0.5419(10) 0.6209(15) 0.4737(10)
O109? O 0.5391(18) 0.6822(18) 0.5105(17)
O110? O 0.5599(15) 0.614(2) 0.5317(13)
N56? N 0.5438(5) 0.6247(9) 0.4377(7)
O111? O 0.5184(6) 0.6382(13) 0.4291(9)
O112? O 0.5582(11) 0.643(3) 0.4686(12)
O113? O 0.5590(11) 0.623(2) 0.4121(13)
N57? N 0.5017(12) 0.6291(19) 0.4278(16)
O114? O 0.5274(11) 0.610(2) 0.4243(16)
O115? O 0.5054(18) 0.661(3) 0.454(3)
O116? O 0.5952(16) 1.195(3) 1.016(2)
O117? O 0.5708(8) 1.1142(13) 1.0123(10)
O118? O 0.3287(3) 0.5490(6) 0.5172(4)
O119? O 0.3988(4) 0.9688(7) 0.9696(5)
O120? O 0.3896(4) 0.7350(6) 0.4851(4)
O121? O 0.3323(7) 0.2094(13) 0.6290(9)
O122? O 0.3128(4) 0.8829(7) 0.9733(5)
O123? O 0.3668(4) 0.7064(6) 0.5092(4)
O124? O 0.5119(12) 0.525(2) 0.5133(16)
O125? O 0.2518(5) 0.6962(9) 0.6298(6)
O126? O 0.5196(14) 0.543(3) 0.5298(19)
O127? O 0.3040(8) 0.1392(15) 0.6660(11)
O128? O 0.6213(6) 0.4225(11) 0.7729(8)
O129? O 0.5235(15) 0.405(3) 0.6675(19)
O130? O 0.3828(8) 0.9133(13) 0.9861(9)
O131? O 0.4707(12) 0.309(2) 0.6885(15)
O132? O 0.5970(9) 0.5386(16) 0.6005(12)
O133? O 0.4622(8) 0.7207(14) 0.6639(9)
O134? O 0.3281(4) 0.5985(8) 0.4945(5)
O135? O 0.4956(14) 1.003(2) 0.7687(15)
O136? O 0.4967(9) 0.2100(16) 0.5978(11)
O137? O 0.6181(17) 0.257(3) 0.757(2)
O138? O 0.3727(11) 0.5264(16) 0.8754(12)
O139? O 0.3334(13) 0.866(2) 0.9800(15)
O140? O 0.4198(19) 1.128(3) 0.922(2)
O141? O 0.5670(16) 0.386(2) 0.772(2)
O142? O 0.2220(10) 0.7172(16) 0.6728(12)
O143? O 0.5740(9) 0.2196(15) 0.7316(11)
O144? O 0.5673(12) 0.708(2) 0.5082(15)
O145? O 0.2027(8) 0.7216(13) 0.6813(9)
O146? O 0.4771(10) 0.5955(16) 0.8538(12)
loop_
_geom_bond_atom_site_label_1
_geom_bond_atom_site_label_2
_geom_bond_site_symmetry_1
_geom_bond_site_symmetry_2
C1 C2 1_555 1_555
C2 C3 1_555 1_555
C3 C4 1_555 1_555
C4 C5 1_555 1_555
C5 C6 1_555 1_555
C6 C2 1_555 1_555
Mn1 C2 1_555 1_555
C7 Mn1 1_555 1_555
O1 C7 1_555 1_555
C8 Mn1 1_555 1_555
O2 C8 1_555 1_555
C9 Mn1 1_555 1_555
O3 C9 1_555 1_555
N1 C10 1_555 1_555
C10 C11 1_555 1_555
C11 C12 1_555 1_555
C12 C13 1_555 1_555
C13 C14 1_555 1_555
C14 N1 1_555 1_555
N2 C15 1_555 1_555
C15 C16 1_555 1_555
C16 C17 1_555 1_555
C17 C18 1_555 1_555
C18 C19 1_555 1_555
C19 N2 1_555 1_555
N3 C20 1_555 1_555
C20 C21 1_555 1_555
C21 C22 1_555 1_555
C22 C23 1_555 1_555
C23 C24 1_555 1_555
C24 N3 1_555 1_555
C25 C12 1_555 1_555
N4 C25 1_555 1_555
C26 C17 1_555 1_555
N5 C26 1_555 1_555
C27 C22 1_555 1_555
N6 C25 1_555 1_555
Pd1 N7 1_555 1_555
Pd2 N8 1_555 1_555
Pd3 N9 1_555 1_555
Pd4 N15 1_555 1_555
Pd5 N12 1_555 1_555
Pd6 N11 1_555 1_555
N7 C28 1_555 1_555
N8 C33 1_555 1_555
N9 C38 1_555 1_555
N10 Pd1 1_555 1_555
N11 C48 1_555 1_555
N12 C53 1_555 1_555
N13 Pd2 1_555 1_555
N14 Pd5 1_555 1_555
N15 C68 1_555 1_555
N16 Pd3 1_555 1_555
N17 Pd4 1_555 1_555
N18 Pd6 1_555 1_555
N19 C88 1_555 1_555
N20 C89 1_555 1_555
N21 C88 1_555 1_555
N22 C91 1_555 1_555
N23 C92 1_555 1_555
N24 C91 1_555 1_555
N25 C94 1_555 1_555
N26 C95 1_555 1_555
N27 C94 1_555 1_555
N28 C97 1_555 1_555
N29 C98 1_555 1_555
N30 C97 1_555 1_555
C28 C29 1_555 1_555
C29 C30 1_555 1_555
C30 C31 1_555 1_555
C31 C32 1_555 1_555
C32 N7 1_555 1_555
C33 C34 1_555 1_555
C34 C35 1_555 1_555
C35 C36 1_555 1_555
C36 C37 1_555 1_555
C37 N8 1_555 1_555
C38 C39 1_555 1_555
C39 C40 1_555 1_555
C40 C41 1_555 1_555
C41 C42 1_555 1_555
C42 N9 1_555 1_555
C43 N10 1_555 1_555
C44 C43 1_555 1_555
C45 C44 1_555 1_555
C46 C45 1_555 1_555
C47 N10 1_555 1_555
C48 C49 1_555 1_555
C49 C50 1_555 1_555
C50 C51 1_555 1_555
C51 C52 1_555 1_555
C52 N11 1_555 1_555
C53 C54 1_555 1_555
C54 C55 1_555 1_555
C55 C56 1_555 1_555
C56 C57 1_555 1_555
C57 N12 1_555 1_555
C58 N13 1_555 1_555
C59 C58 1_555 1_555
C60 C59 1_555 1_555
C61 C60 1_555 1_555
C62 N13 1_555 1_555
C63 N14 1_555 1_555
C64 C63 1_555 1_555
C65 C64 1_555 1_555
C66 C65 1_555 1_555
C67 N14 1_555 1_555
C68 C69 1_555 1_555
C69 C70 1_555 1_555
C70 C71 1_555 1_555
C71 C72 1_555 1_555
C72 N15 1_555 1_555
C73 N16 1_555 1_555
C74 C73 1_555 1_555
C75 C74 1_555 1_555
C76 C75 1_555 1_555
C77 N16 1_555 1_555
C78 N17 1_555 1_555
C79 C78 1_555 1_555
C80 C79 1_555 1_555
C81 C80 1_555 1_555
C82 N17 1_555 1_555
C83 N18 1_555 1_555
C84 C83 1_555 1_555
C85 C84 1_555 1_555
C86 C85 1_555 1_555
C87 N18 1_555 1_555
C88 C30 1_555 1_555
C89 N19 1_555 1_555
C90 N20 1_555 1_555
C91 C45 1_555 1_555
C92 N22 1_555 1_555
C93 N23 1_555 1_555
C94 C60 1_555 1_555
C95 N25 1_555 1_555
C96 N26 1_555 1_555
C97 C75 1_555 1_555
C98 N28 1_555 1_555
C99 N29 1_555 1_555
C100 N31 1_555 1_555
C101 N31 1_555 1_555
C102 C103 1_555 1_555
C103 N32 1_555 1_555
C104 N32 1_555 1_555
C105 N32 1_555 1_555
C106 N33 1_555 1_555
C107 N33 1_555 1_555
C108 C109 1_555 1_555
C109 N34 1_555 1_555
C110 N34 1_555 1_555
C111 N34 1_555 1_555
C112 N35 1_555 1_555
C113 N35 1_555 1_555
C114 C115 1_555 1_555
C115 N36 1_555 1_555
C116 N36 1_555 1_555
C117 N36 1_555 1_555
C118 N37 1_555 1_555
C119 N37 1_555 1_555
C120 C121 1_555 1_555
C121 N38 1_555 1_555
C122 N38 1_555 1_555
C123 N38 1_555 1_555
C124 N39 1_555 1_555
C125 N39 1_555 1_555
C126 C127 1_555 1_555
C127 N40 1_555 1_555
C128 N40 1_555 1_555
C129 N40 1_555 1_555
C130 N41 1_555 1_555
C131 N41 1_555 1_555
C132 C133 1_555 1_555
C133 N42 1_555 1_555
C134 N42 1_555 1_555
C135 N42 1_555 1_555
N31 Pd1 1_555 1_555
N32 Pd1 1_555 1_555
N33 Pd2 1_555 1_555
N34 Pd2 1_555 1_555
N35 Pd3 1_555 1_555
N36 Pd3 1_555 1_555
N37 Pd4 1_555 1_555
N38 Pd4 1_555 1_555
N39 Pd5 1_555 1_555
N40 Pd5 1_555 1_555
N41 Pd6 1_555 1_555
N42 Pd6 1_555 1_555
H1 C28 1_555 1_555
H2 C29 1_555 1_555
H3 C31 1_555 1_555
H4 C32 1_555 1_555
H5 C33 1_555 1_555
H6 C34 1_555 1_555
H7 C36 1_555 1_555
H8 C37 1_555 1_555
H9 C38 1_555 1_555
H10 C39 1_555 1_555
H11 C41 1_555 1_555
H12 C42 1_555 1_555
H13 C43 1_555 1_555
H14 C44 1_555 1_555
H15 C46 1_555 1_555
H16 C47 1_555 1_555
H17 C48 1_555 1_555
H18 C49 1_555 1_555
H19 C51 1_555 1_555
H20 C52 1_555 1_555
H21 C53 1_555 1_555
H22 C54 1_555 1_555
H23 C56 1_555 1_555
H24 C57 1_555 1_555
H25 C58 1_555 1_555
H26 C59 1_555 1_555
H27 C61 1_555 1_555
H28 C62 1_555 1_555
H29 C63 1_555 1_555
H30 C64 1_555 1_555
H31 C66 1_555 1_555
H32 C67 1_555 1_555
H33 C68 1_555 1_555
H34 C69 1_555 1_555
H35 C71 1_555 1_555
H36 C72 1_555 1_555
H37 C73 1_555 1_555
H38 C74 1_555 1_555
H39 C76 1_555 1_555
H40 C77 1_555 1_555
H41 C78 1_555 1_555
H42 C79 1_555 1_555
H43 C81 1_555 1_555
H44 C82 1_555 1_555
H45 C83 1_555 1_555
H46 C84 1_555 1_555
H47 C86 1_555 1_555
H48 C87 1_555 1_555
H49 C100 1_555 1_555
H50 C100 1_555 1_555
H51 C100 1_555 1_555
H52 C101 1_555 1_555
H53 C101 1_555 1_555
H54 C101 1_555 1_555
H55 C102 1_555 1_555
H56 C102 1_555 1_555
H57 C103 1_555 1_555
H58 C103 1_555 1_555
H59 C104 1_555 1_555
H60 C104 1_555 1_555
H61 C104 1_555 1_555
H62 C105 1_555 1_555
H63 C105 1_555 1_555
H64 C105 1_555 1_555
H65 C106 1_555 1_555
H66 C106 1_555 1_555
H67 C106 1_555 1_555
H68 C107 1_555 1_555
H69 C107 1_555 1_555
H70 C107 1_555 1_555
H71 C108 1_555 1_555
H72 C108 1_555 1_555
H73 C109 1_555 1_555
H74 C109 1_555 1_555
H75 C110 1_555 1_555
H76 C110 1_555 1_555
H77 C110 1_555 1_555
H78 C111 1_555 1_555
H79 C111 1_555 1_555
H80 C111 1_555 1_555
H81 C112 1_555 1_555
H82 C112 1_555 1_555
H83 C112 1_555 1_555
H84 C113 1_555 1_555
H85 C113 1_555 1_555
H86 C113 1_555 1_555
H87 C114 1_555 1_555
H88 C114 1_555 1_555
H89 C115 1_555 1_555
H90 C115 1_555 1_555
H91 C116 1_555 1_555
H92 C116 1_555 1_555
H93 C116 1_555 1_555
H94 C117 1_555 1_555
H95 C117 1_555 1_555
H96 C117 1_555 1_555
H97 C118 1_555 1_555
H98 C118 1_555 1_555
H99 C118 1_555 1_555
H100 C119 1_555 1_555
H101 C119 1_555 1_555
H102 C119 1_555 1_555
H103 C120 1_555 1_555
H104 C120 1_555 1_555
H105 C121 1_555 1_555
H106 C121 1_555 1_555
H107 C122 1_555 1_555
H108 C122 1_555 1_555
H109 C122 1_555 1_555
H110 C123 1_555 1_555
H111 C123 1_555 1_555
H112 C123 1_555 1_555
H113 C124 1_555 1_555
H114 C124 1_555 1_555
H115 C124 1_555 1_555
H116 C125 1_555 1_555
H117 C125 1_555 1_555
H118 C125 1_555 1_555
H119 C126 1_555 1_555
H120 C126 1_555 1_555
H121 C127 1_555 1_555
H122 C127 1_555 1_555
H123 C128 1_555 1_555
H124 C128 1_555 1_555
H125 C128 1_555 1_555
H126 C129 1_555 1_555
H127 C129 1_555 1_555
H128 C129 1_555 1_555
H129 C130 1_555 1_555
H130 C130 1_555 1_555
H131 C130 1_555 1_555
H132 C131 1_555 1_555
H133 C131 1_555 1_555
H134 C131 1_555 1_555
H135 C132 1_555 1_555
H136 C132 1_555 1_555
H137 C133 1_555 1_555
H138 C133 1_555 1_555
H139 C134 1_555 1_555
H140 C134 1_555 1_555
H141 C134 1_555 1_555
H142 C135 1_555 1_555
H143 C135 1_555 1_555
H144 C135 1_555 1_555
N43 O4 1_555 1_555
O5 N43 1_555 1_555
O6 N43 1_555 1_555
N44 O7 1_555 1_555
O8 N44 1_555 1_555
O9 N44 1_555 1_555
N45 O10 1_555 1_555
O11 N45 1_555 1_555
O12 N45 1_555 1_555
N46 O13 1_555 1_555
O14 N46 1_555 1_555
O15 N46 1_555 1_555
N47 O17 1_555 1_555
O18 N47 1_555 1_555
O19 N47 1_555 1_555
N48 O20 1_555 1_555
O21 N48 1_555 1_555
O22 N48 1_555 1_555
N49 O23 1_555 1_555
O24 N49 1_555 1_555
O25 N49 1_555 1_555
N50 O26 1_555 1_555
O27 N50 1_555 1_555
O28 N50 1_555 1_555
N51 O29 1_555 1_555
O30 N51 1_555 1_555
O31 N51 1_555 1_555
N52 O33 1_555 1_555
O34 N52 1_555 1_555
O35 N52 1_555 1_555
N53 O36 1_555 1_555
O37 N53 1_555 1_555
O38 N53 1_555 1_555
C3 Mn1 1_555 1_555
C4 Mn1 1_555 1_555
C5 Mn1 1_555 1_555
C6 Mn1 1_555 1_555
N4 C26 1_555 1_555
N5 C27 1_555 1_555
C27 N6 1_555 1_555
N21 C90 1_555 1_555
N24 C93 1_555 1_555
N27 C96 1_555 1_555
N30 C99 1_555 1_555
C35 C89 1_555 1_555
C40 C90 1_555 1_555
C46 C47 1_555 1_555
C50 C92 1_555 1_555
C55 C93 1_555 1_555
C61 C62 1_555 1_555
C65 C95 1_555 1_555
C66 C67 1_555 1_555
C70 C96 1_555 1_555
C76 C77 1_555 1_555
C80 C98 1_555 1_555
C81 C82 1_555 1_555
C85 C99 1_555 1_555
C86 C87 1_555 1_555
C102 N31 1_555 1_555
C108 N33 1_555 1_555
C114 N35 1_555 1_555
C120 N37 1_555 1_555
C126 N39 1_555 1_555
C132 N41 1_555 1_555

#END
