# generated using pymatgen
data_Mn4H288Pd12C290(N38O97)3
_symmetry_space_group_name_H-M   'P 1'
_cell_length_a   27.09740000
_cell_length_b   37.78050000
_cell_length_c   46.53600000
_cell_angle_alpha   101.48700000
_cell_angle_beta   90.00000000
_cell_angle_gamma   90.00000000
_symmetry_Int_Tables_number   1
_chemical_formula_structural   Mn4H288Pd12C290(N38O97)3
_chemical_formula_sum   'Mn16 H1152 Pd48 C1160 N456 O1164'
_cell_volume   46687.12352879
_cell_formula_units_Z   4
loop_
 _symmetry_equiv_pos_site_id
 _symmetry_equiv_pos_as_xyz
  1  'x, y, z'
loop_
 _atom_site_type_symbol
 _atom_site_label
 _atom_site_symmetry_multiplicity
 _atom_site_fract_x
 _atom_site_fract_y
 _atom_site_fract_z
 _atom_site_occupancy
  Mn  Mn1  1  0.876300  0.858690  0.352380  1
  Mn  Mn2  1  0.376300  0.858690  0.852380  1
  Mn  Mn3  1  0.876300  0.641310  0.647620  1
  Mn  Mn4  1  0.376300  0.641310  0.147620  1
  Mn  Mn5  1  0.123700  0.141310  0.647620  1
  Mn  Mn6  1  0.623700  0.141310  0.147620  1
  Mn  Mn7  1  0.123700  0.358690  0.352380  1
  Mn  Mn8  1  0.623700  0.358690  0.852380  1
  Mn  Mn9  1  0.876100  0.858600  0.352300  1
  Mn  Mn10  1  0.376100  0.858600  0.852300  1
  Mn  Mn11  1  0.876100  0.641400  0.647700  1
  Mn  Mn12  1  0.376100  0.641400  0.147700  1
  Mn  Mn13  1  0.123900  0.141400  0.647700  1
  Mn  Mn14  1  0.623900  0.141400  0.147700  1
  Mn  Mn15  1  0.123900  0.358600  0.352300  1
  Mn  Mn16  1  0.623900  0.358600  0.852300  1
  H  H17  1  0.929800  0.953900  0.470100  1
  H  H18  1  0.429800  0.953900  0.970100  1
  H  H19  1  0.929800  0.546100  0.529900  1
  H  H20  1  0.429800  0.546100  0.029900  1
  H  H21  1  0.070200  0.046100  0.529900  1
  H  H22  1  0.570200  0.046100  0.029900  1
  H  H23  1  0.070200  0.453900  0.470100  1
  H  H24  1  0.570200  0.453900  0.970100  1
  H  H25  1  0.983200  0.924600  0.435100  1
  H  H26  1  0.483200  0.924600  0.935100  1
  H  H27  1  0.983200  0.575400  0.564900  1
  H  H28  1  0.483200  0.575400  0.064900  1
  H  H29  1  0.016800  0.075400  0.564900  1
  H  H30  1  0.516800  0.075400  0.064900  1
  H  H31  1  0.016800  0.424600  0.435100  1
  H  H32  1  0.516800  0.424600  0.935100  1
  H  H33  1  0.986400  0.841600  0.477900  1
  H  H34  1  0.486400  0.841600  0.977900  1
  H  H35  1  0.986400  0.658400  0.522100  1
  H  H36  1  0.486400  0.658400  0.022100  1
  H  H37  1  0.013600  0.158400  0.522100  1
  H  H38  1  0.513600  0.158400  0.022100  1
  H  H39  1  0.013600  0.341600  0.477900  1
  H  H40  1  0.513600  0.341600  0.977900  1
  H  H41  1  0.935100  0.874200  0.512500  1
  H  H42  1  0.435100  0.874200  0.012500  1
  H  H43  1  0.935100  0.625800  0.487500  1
  H  H44  1  0.435100  0.625800  0.987500  1
  H  H45  1  0.064900  0.125800  0.487500  1
  H  H46  1  0.564900  0.125800  0.987500  1
  H  H47  1  0.064900  0.374200  0.512500  1
  H  H48  1  0.564900  0.374200  0.012500  1
  H  H49  1  0.147300  0.872100  0.304700  1
  H  H50  1  0.647300  0.872100  0.804700  1
  H  H51  1  0.147300  0.627900  0.695300  1
  H  H52  1  0.647300  0.627900  0.195300  1
  H  H53  1  0.852700  0.127900  0.695300  1
  H  H54  1  0.352700  0.127900  0.195300  1
  H  H55  1  0.852700  0.372100  0.304700  1
  H  H56  1  0.352700  0.372100  0.804700  1
  H  H57  1  0.125200  0.839000  0.339800  1
  H  H58  1  0.625200  0.839000  0.839800  1
  H  H59  1  0.125200  0.661000  0.660200  1
  H  H60  1  0.625200  0.661000  0.160200  1
  H  H61  1  0.874800  0.161000  0.660200  1
  H  H62  1  0.374800  0.161000  0.160200  1
  H  H63  1  0.874800  0.339000  0.339800  1
  H  H64  1  0.374800  0.339000  0.839800  1
  H  H65  1  0.042100  0.925000  0.378600  1
  H  H66  1  0.542100  0.925000  0.878600  1
  H  H67  1  0.042100  0.575000  0.621400  1
  H  H68  1  0.542100  0.575000  0.121400  1
  H  H69  1  0.957900  0.075000  0.621400  1
  H  H70  1  0.457900  0.075000  0.121400  1
  H  H71  1  0.957900  0.425000  0.378600  1
  H  H72  1  0.457900  0.425000  0.878600  1
  H  H73  1  0.065100  0.954500  0.341900  1
  H  H74  1  0.565100  0.954500  0.841900  1
  H  H75  1  0.065100  0.545500  0.658100  1
  H  H76  1  0.565100  0.545500  0.158100  1
  H  H77  1  0.934900  0.045500  0.658100  1
  H  H78  1  0.434900  0.045500  0.158100  1
  H  H79  1  0.934900  0.454500  0.341900  1
  H  H80  1  0.434900  0.454500  0.841900  1
  H  H81  1  0.070000  0.706100  0.441300  1
  H  H82  1  0.570000  0.706100  0.941300  1
  H  H83  1  0.070000  0.793900  0.558700  1
  H  H84  1  0.570000  0.793900  0.058700  1
  H  H85  1  0.930000  0.293900  0.558700  1
  H  H86  1  0.430000  0.293900  0.058700  1
  H  H87  1  0.930000  0.206100  0.441300  1
  H  H88  1  0.430000  0.206100  0.941300  1
  H  H89  1  0.046000  0.764200  0.443600  1
  H  H90  1  0.546000  0.764200  0.943600  1
  H  H91  1  0.046000  0.735800  0.556400  1
  H  H92  1  0.546000  0.735800  0.056400  1
  H  H93  1  0.954000  0.235800  0.556400  1
  H  H94  1  0.454000  0.235800  0.056400  1
  H  H95  1  0.954000  0.264200  0.443600  1
  H  H96  1  0.454000  0.264200  0.943600  1
  H  H97  1  0.121500  0.766700  0.368800  1
  H  H98  1  0.621500  0.766700  0.868800  1
  H  H99  1  0.121500  0.733300  0.631200  1
  H  H100  1  0.621500  0.733300  0.131200  1
  H  H101  1  0.878500  0.233300  0.631200  1
  H  H102  1  0.378500  0.233300  0.131200  1
  H  H103  1  0.878500  0.266700  0.368800  1
  H  H104  1  0.378500  0.266700  0.868800  1
  H  H105  1  0.142900  0.705900  0.368000  1
  H  H106  1  0.642900  0.705900  0.868000  1
  H  H107  1  0.142900  0.794100  0.632000  1
  H  H108  1  0.642900  0.794100  0.132000  1
  H  H109  1  0.857100  0.294100  0.632000  1
  H  H110  1  0.357100  0.294100  0.132000  1
  H  H111  1  0.857100  0.205900  0.368000  1
  H  H112  1  0.357100  0.205900  0.868000  1
  H  H113  1  0.815100  0.880200  0.515600  1
  H  H114  1  0.315100  0.880200  0.015600  1
  H  H115  1  0.815100  0.619800  0.484400  1
  H  H116  1  0.315100  0.619800  0.984400  1
  H  H117  1  0.184900  0.119800  0.484400  1
  H  H118  1  0.684900  0.119800  0.984400  1
  H  H119  1  0.184900  0.380200  0.515600  1
  H  H120  1  0.684900  0.380200  0.015600  1
  H  H121  1  0.768000  0.849200  0.477700  1
  H  H122  1  0.268000  0.849200  0.977700  1
  H  H123  1  0.768000  0.650800  0.522300  1
  H  H124  1  0.268000  0.650800  0.022300  1
  H  H125  1  0.232000  0.150800  0.522300  1
  H  H126  1  0.732000  0.150800  0.022300  1
  H  H127  1  0.232000  0.349200  0.477700  1
  H  H128  1  0.732000  0.349200  0.977700  1
  H  H129  1  0.772300  0.936500  0.438600  1
  H  H130  1  0.272300  0.936500  0.938600  1
  H  H131  1  0.772300  0.563500  0.561400  1
  H  H132  1  0.272300  0.563500  0.061400  1
  H  H133  1  0.227700  0.063500  0.561400  1
  H  H134  1  0.727700  0.063500  0.061400  1
  H  H135  1  0.227700  0.436500  0.438600  1
  H  H136  1  0.727700  0.436500  0.938600  1
  H  H137  1  0.827000  0.963700  0.475700  1
  H  H138  1  0.327000  0.963700  0.975700  1
  H  H139  1  0.827000  0.536300  0.524300  1
  H  H140  1  0.327000  0.536300  0.024300  1
  H  H141  1  0.173000  0.036300  0.524300  1
  H  H142  1  0.673000  0.036300  0.024300  1
  H  H143  1  0.173000  0.463700  0.475700  1
  H  H144  1  0.673000  0.463700  0.975700  1
  H  H145  1  0.610200  0.719100  0.367600  1
  H  H146  1  0.110200  0.719100  0.867600  1
  H  H147  1  0.610200  0.780900  0.632400  1
  H  H148  1  0.110200  0.780900  0.132400  1
  H  H149  1  0.389800  0.280900  0.632400  1
  H  H150  1  0.889800  0.280900  0.132400  1
  H  H151  1  0.389800  0.219100  0.367600  1
  H  H152  1  0.889800  0.219100  0.867600  1
  H  H153  1  0.629800  0.780300  0.370800  1
  H  H154  1  0.129800  0.780300  0.870800  1
  H  H155  1  0.629800  0.719700  0.629200  1
  H  H156  1  0.129800  0.719700  0.129200  1
  H  H157  1  0.370200  0.219700  0.629200  1
  H  H158  1  0.870200  0.219700  0.129200  1
  H  H159  1  0.370200  0.280300  0.370800  1
  H  H160  1  0.870200  0.280300  0.870800  1
  H  H161  1  0.704400  0.779400  0.445800  1
  H  H162  1  0.204400  0.779400  0.945800  1
  H  H163  1  0.704400  0.720600  0.554200  1
  H  H164  1  0.204400  0.720600  0.054200  1
  H  H165  1  0.295600  0.220600  0.554200  1
  H  H166  1  0.795600  0.220600  0.054200  1
  H  H167  1  0.295600  0.279400  0.445800  1
  H  H168  1  0.795600  0.279400  0.945800  1
  H  H169  1  0.678700  0.720200  0.442600  1
  H  H170  1  0.178700  0.720200  0.942600  1
  H  H171  1  0.678700  0.779800  0.557400  1
  H  H172  1  0.178700  0.779800  0.057400  1
  H  H173  1  0.321300  0.279800  0.557400  1
  H  H174  1  0.821300  0.279800  0.057400  1
  H  H175  1  0.321300  0.220200  0.442600  1
  H  H176  1  0.821300  0.220200  0.942600  1
  H  H177  1  0.687200  0.967400  0.342700  1
  H  H178  1  0.187200  0.967400  0.842700  1
  H  H179  1  0.687200  0.532600  0.657300  1
  H  H180  1  0.187200  0.532600  0.157300  1
  H  H181  1  0.312800  0.032600  0.657300  1
  H  H182  1  0.812800  0.032600  0.157300  1
  H  H183  1  0.312800  0.467400  0.342700  1
  H  H184  1  0.812800  0.467400  0.842700  1
  H  H185  1  0.709200  0.939900  0.382100  1
  H  H186  1  0.209200  0.939900  0.882100  1
  H  H187  1  0.709200  0.560100  0.617900  1
  H  H188  1  0.209200  0.560100  0.117900  1
  H  H189  1  0.290800  0.060100  0.617900  1
  H  H190  1  0.790800  0.060100  0.117900  1
  H  H191  1  0.290800  0.439900  0.382100  1
  H  H192  1  0.790800  0.439900  0.882100  1
  H  H193  1  0.627900  0.852800  0.344000  1
  H  H194  1  0.127900  0.852800  0.844000  1
  H  H195  1  0.627900  0.647200  0.656000  1
  H  H196  1  0.127900  0.647200  0.156000  1
  H  H197  1  0.372100  0.147200  0.656000  1
  H  H198  1  0.872100  0.147200  0.156000  1
  H  H199  1  0.372100  0.352800  0.344000  1
  H  H200  1  0.872100  0.352800  0.844000  1
  H  H201  1  0.607800  0.881500  0.306500  1
  H  H202  1  0.107800  0.881500  0.806500  1
  H  H203  1  0.607800  0.618500  0.693500  1
  H  H204  1  0.107800  0.618500  0.193500  1
  H  H205  1  0.392200  0.118500  0.693500  1
  H  H206  1  0.892200  0.118500  0.193500  1
  H  H207  1  0.392200  0.381500  0.306500  1
  H  H208  1  0.892200  0.381500  0.806500  1
  H  H209  1  0.012300  0.956400  0.291300  1
  H  H210  1  0.512300  0.956400  0.791300  1
  H  H211  1  0.012300  0.543600  0.708700  1
  H  H212  1  0.512300  0.543600  0.208700  1
  H  H213  1  0.987700  0.043600  0.708700  1
  H  H214  1  0.487700  0.043600  0.208700  1
  H  H215  1  0.987700  0.456400  0.291300  1
  H  H216  1  0.487700  0.456400  0.791300  1
  H  H217  1  0.936000  0.929900  0.276600  1
  H  H218  1  0.436000  0.929900  0.776600  1
  H  H219  1  0.936000  0.570100  0.723400  1
  H  H220  1  0.436000  0.570100  0.223400  1
  H  H221  1  0.064000  0.070100  0.723400  1
  H  H222  1  0.564000  0.070100  0.223400  1
  H  H223  1  0.064000  0.429900  0.276600  1
  H  H224  1  0.564000  0.429900  0.776600  1
  H  H225  1  0.011900  0.845600  0.228700  1
  H  H226  1  0.511900  0.845600  0.728700  1
  H  H227  1  0.011900  0.654400  0.771300  1
  H  H228  1  0.511900  0.654400  0.271300  1
  H  H229  1  0.988100  0.154400  0.771300  1
  H  H230  1  0.488100  0.154400  0.271300  1
  H  H231  1  0.988100  0.345600  0.228700  1
  H  H232  1  0.488100  0.345600  0.728700  1
  H  H233  1  0.084800  0.874500  0.245700  1
  H  H234  1  0.584800  0.874500  0.745700  1
  H  H235  1  0.084800  0.625500  0.754300  1
  H  H236  1  0.584800  0.625500  0.254300  1
  H  H237  1  0.915200  0.125500  0.754300  1
  H  H238  1  0.415200  0.125500  0.254300  1
  H  H239  1  0.915200  0.374500  0.245700  1
  H  H240  1  0.415200  0.374500  0.745700  1
  H  H241  1  0.670600  0.880000  0.245400  1
  H  H242  1  0.170600  0.880000  0.745400  1
  H  H243  1  0.670600  0.620000  0.754600  1
  H  H244  1  0.170600  0.620000  0.254600  1
  H  H245  1  0.329400  0.120000  0.754600  1
  H  H246  1  0.829400  0.120000  0.254600  1
  H  H247  1  0.329400  0.380000  0.245400  1
  H  H248  1  0.829400  0.380000  0.745400  1
  H  H249  1  0.741400  0.848700  0.229600  1
  H  H250  1  0.241400  0.848700  0.729600  1
  H  H251  1  0.741400  0.651300  0.770400  1
  H  H252  1  0.241400  0.651300  0.270400  1
  H  H253  1  0.258600  0.151300  0.770400  1
  H  H254  1  0.758600  0.151300  0.270400  1
  H  H255  1  0.258600  0.348700  0.229600  1
  H  H256  1  0.758600  0.348700  0.729600  1
  H  H257  1  0.819800  0.929900  0.278000  1
  H  H258  1  0.319800  0.929900  0.778000  1
  H  H259  1  0.819800  0.570100  0.722000  1
  H  H260  1  0.319800  0.570100  0.222000  1
  H  H261  1  0.180200  0.070100  0.722000  1
  H  H262  1  0.680200  0.070100  0.222000  1
  H  H263  1  0.180200  0.429900  0.278000  1
  H  H264  1  0.680200  0.429900  0.778000  1
  H  H265  1  0.746900  0.959800  0.291800  1
  H  H266  1  0.246900  0.959800  0.791800  1
  H  H267  1  0.746900  0.540200  0.708200  1
  H  H268  1  0.246900  0.540200  0.208200  1
  H  H269  1  0.253100  0.040200  0.708200  1
  H  H270  1  0.753100  0.040200  0.208200  1
  H  H271  1  0.253100  0.459800  0.291800  1
  H  H272  1  0.753100  0.459800  0.791800  1
  H  H273  1  0.946800  0.715900  0.170900  1
  H  H274  1  0.446800  0.715900  0.670900  1
  H  H275  1  0.946800  0.784100  0.829100  1
  H  H276  1  0.446800  0.784100  0.329100  1
  H  H277  1  0.053200  0.284100  0.829100  1
  H  H278  1  0.553200  0.284100  0.329100  1
  H  H279  1  0.053200  0.215900  0.170900  1
  H  H280  1  0.553200  0.215900  0.670900  1
  H  H281  1  0.949300  0.774200  0.195700  1
  H  H282  1  0.449300  0.774200  0.695700  1
  H  H283  1  0.949300  0.725800  0.804300  1
  H  H284  1  0.449300  0.725800  0.304300  1
  H  H285  1  0.050700  0.225800  0.804300  1
  H  H286  1  0.550700  0.225800  0.304300  1
  H  H287  1  0.050700  0.274200  0.195700  1
  H  H288  1  0.550700  0.274200  0.695700  1
  H  H289  1  0.802200  0.775700  0.198200  1
  H  H290  1  0.302200  0.775700  0.698200  1
  H  H291  1  0.802200  0.724300  0.801800  1
  H  H292  1  0.302200  0.724300  0.301800  1
  H  H293  1  0.197800  0.224300  0.801800  1
  H  H294  1  0.697800  0.224300  0.301800  1
  H  H295  1  0.197800  0.275700  0.198200  1
  H  H296  1  0.697800  0.275700  0.698200  1
  H  H297  1  0.801500  0.716300  0.171800  1
  H  H298  1  0.301500  0.716300  0.671800  1
  H  H299  1  0.801500  0.783700  0.828200  1
  H  H300  1  0.301500  0.783700  0.328200  1
  H  H301  1  0.198500  0.283700  0.828200  1
  H  H302  1  0.698500  0.283700  0.328200  1
  H  H303  1  0.198500  0.216300  0.171800  1
  H  H304  1  0.698500  0.216300  0.671800  1
  H  H305  1  0.083000  0.644500  0.336900  1
  H  H306  1  0.583000  0.644500  0.836900  1
  H  H307  1  0.083000  0.855500  0.663100  1
  H  H308  1  0.583000  0.855500  0.163100  1
  H  H309  1  0.917000  0.355500  0.663100  1
  H  H310  1  0.417000  0.355500  0.163100  1
  H  H311  1  0.917000  0.144500  0.336900  1
  H  H312  1  0.417000  0.144500  0.836900  1
  H  H313  1  0.012200  0.651100  0.311500  1
  H  H314  1  0.512200  0.651100  0.811500  1
  H  H315  1  0.012200  0.848900  0.688500  1
  H  H316  1  0.512200  0.848900  0.188500  1
  H  H317  1  0.987800  0.348900  0.688500  1
  H  H318  1  0.487800  0.348900  0.188500  1
  H  H319  1  0.987800  0.151100  0.311500  1
  H  H320  1  0.487800  0.151100  0.811500  1
  H  H321  1  0.934600  0.650500  0.387100  1
  H  H322  1  0.434600  0.650500  0.887100  1
  H  H323  1  0.934600  0.849500  0.612900  1
  H  H324  1  0.434600  0.849500  0.112900  1
  H  H325  1  0.065400  0.349500  0.612900  1
  H  H326  1  0.565400  0.349500  0.112900  1
  H  H327  1  0.065400  0.150500  0.387100  1
  H  H328  1  0.565400  0.150500  0.887100  1
  H  H329  1  0.008800  0.643300  0.409300  1
  H  H330  1  0.508800  0.643300  0.909300  1
  H  H331  1  0.008800  0.856700  0.590700  1
  H  H332  1  0.508800  0.856700  0.090700  1
  H  H333  1  0.991200  0.356700  0.590700  1
  H  H334  1  0.491200  0.356700  0.090700  1
  H  H335  1  0.991200  0.143300  0.409300  1
  H  H336  1  0.491200  0.143300  0.909300  1
  H  H337  1  0.803400  0.655600  0.202300  1
  H  H338  1  0.303400  0.655600  0.702300  1
  H  H339  1  0.803400  0.844400  0.797700  1
  H  H340  1  0.303400  0.844400  0.297700  1
  H  H341  1  0.196600  0.344400  0.797700  1
  H  H342  1  0.696600  0.344400  0.297700  1
  H  H343  1  0.196600  0.155600  0.202300  1
  H  H344  1  0.696600  0.155600  0.702300  1
  H  H345  1  0.800500  0.655900  0.251400  1
  H  H346  1  0.300500  0.655900  0.751400  1
  H  H347  1  0.800500  0.844100  0.748600  1
  H  H348  1  0.300500  0.844100  0.248600  1
  H  H349  1  0.199500  0.344100  0.748600  1
  H  H350  1  0.699500  0.344100  0.248600  1
  H  H351  1  0.199500  0.155900  0.251400  1
  H  H352  1  0.699500  0.155900  0.751400  1
  H  H353  1  0.951300  0.657700  0.251000  1
  H  H354  1  0.451300  0.657700  0.751000  1
  H  H355  1  0.951300  0.842300  0.749000  1
  H  H356  1  0.451300  0.842300  0.249000  1
  H  H357  1  0.048700  0.342300  0.749000  1
  H  H358  1  0.548700  0.342300  0.249000  1
  H  H359  1  0.048700  0.157700  0.251000  1
  H  H360  1  0.548700  0.157700  0.751000  1
  H  H361  1  0.947800  0.654300  0.200900  1
  H  H362  1  0.447800  0.654300  0.700900  1
  H  H363  1  0.947800  0.845700  0.799100  1
  H  H364  1  0.447800  0.845700  0.299100  1
  H  H365  1  0.052200  0.345700  0.799100  1
  H  H366  1  0.552200  0.345700  0.299100  1
  H  H367  1  0.052200  0.154300  0.200900  1
  H  H368  1  0.552200  0.154300  0.700900  1
  H  H369  1  0.742000  0.658000  0.410900  1
  H  H370  1  0.242000  0.658000  0.910900  1
  H  H371  1  0.742000  0.842000  0.589100  1
  H  H372  1  0.242000  0.842000  0.089100  1
  H  H373  1  0.258000  0.342000  0.589100  1
  H  H374  1  0.758000  0.342000  0.089100  1
  H  H375  1  0.258000  0.158000  0.410900  1
  H  H376  1  0.758000  0.158000  0.910900  1
  H  H377  1  0.816100  0.660000  0.388600  1
  H  H378  1  0.316100  0.660000  0.888600  1
  H  H379  1  0.816100  0.840000  0.611400  1
  H  H380  1  0.316100  0.840000  0.111400  1
  H  H381  1  0.183900  0.340000  0.611400  1
  H  H382  1  0.683900  0.340000  0.111400  1
  H  H383  1  0.183900  0.160000  0.388600  1
  H  H384  1  0.683900  0.160000  0.888600  1
  H  H385  1  0.741100  0.660300  0.312600  1
  H  H386  1  0.241100  0.660300  0.812600  1
  H  H387  1  0.741100  0.839700  0.687400  1
  H  H388  1  0.241100  0.839700  0.187400  1
  H  H389  1  0.258900  0.339700  0.687400  1
  H  H390  1  0.758900  0.339700  0.187400  1
  H  H391  1  0.258900  0.160300  0.312600  1
  H  H392  1  0.758900  0.160300  0.812600  1
  H  H393  1  0.669100  0.655600  0.337900  1
  H  H394  1  0.169100  0.655600  0.837900  1
  H  H395  1  0.669100  0.844400  0.662100  1
  H  H396  1  0.169100  0.844400  0.162100  1
  H  H397  1  0.330900  0.344400  0.662100  1
  H  H398  1  0.830900  0.344400  0.162100  1
  H  H399  1  0.330900  0.155600  0.337900  1
  H  H400  1  0.830900  0.155600  0.837900  1
  H  H401  1  0.986600  0.959900  0.581600  1
  H  H402  1  0.486600  0.959900  0.081600  1
  H  H403  1  0.986600  0.540100  0.418400  1
  H  H404  1  0.486600  0.540100  0.918400  1
  H  H405  1  0.013400  0.040100  0.418400  1
  H  H406  1  0.513400  0.040100  0.918400  1
  H  H407  1  0.013400  0.459900  0.581600  1
  H  H408  1  0.513400  0.459900  0.081600  1
  H  H409  1  0.975200  0.926500  0.555500  1
  H  H410  1  0.475200  0.926500  0.055500  1
  H  H411  1  0.975200  0.573500  0.444500  1
  H  H412  1  0.475200  0.573500  0.944500  1
  H  H413  1  0.024800  0.073500  0.444500  1
  H  H414  1  0.524800  0.073500  0.944500  1
  H  H415  1  0.024800  0.426500  0.555500  1
  H  H416  1  0.524800  0.426500  0.055500  1
  H  H417  1  0.935900  0.938100  0.581300  1
  H  H418  1  0.435900  0.938100  0.081300  1
  H  H419  1  0.935900  0.561900  0.418700  1
  H  H420  1  0.435900  0.561900  0.918700  1
  H  H421  1  0.064100  0.061900  0.418700  1
  H  H422  1  0.564100  0.061900  0.918700  1
  H  H423  1  0.064100  0.438100  0.581300  1
  H  H424  1  0.564100  0.438100  0.081300  1
  H  H425  1  0.000300  0.000800  0.548800  1
  H  H426  1  0.500300  0.000800  0.048800  1
  H  H427  1  0.000300  0.499200  0.451200  1
  H  H428  1  0.500300  0.499200  0.951200  1
  H  H429  1  0.999700  0.999200  0.451200  1
  H  H430  1  0.499700  0.999200  0.951200  1
  H  H431  1  0.999700  0.500800  0.548800  1
  H  H432  1  0.499700  0.500800  0.048800  1
  H  H433  1  0.958400  0.006600  0.526000  1
  H  H434  1  0.458400  0.006600  0.026000  1
  H  H435  1  0.958400  0.493400  0.474000  1
  H  H436  1  0.458400  0.493400  0.974000  1
  H  H437  1  0.041600  0.993400  0.474000  1
  H  H438  1  0.541600  0.993400  0.974000  1
  H  H439  1  0.041600  0.506600  0.526000  1
  H  H440  1  0.541600  0.506600  0.026000  1
  H  H441  1  0.990100  0.970100  0.520400  1
  H  H442  1  0.490100  0.970100  0.020400  1
  H  H443  1  0.990100  0.529900  0.479600  1
  H  H444  1  0.490100  0.529900  0.979600  1
  H  H445  1  0.009900  0.029900  0.479600  1
  H  H446  1  0.509900  0.029900  0.979600  1
  H  H447  1  0.009900  0.470100  0.520400  1
  H  H448  1  0.509900  0.470100  0.020400  1
  H  H449  1  0.908500  0.023200  0.564900  1
  H  H450  1  0.408500  0.023200  0.064900  1
  H  H451  1  0.908500  0.476800  0.435100  1
  H  H452  1  0.408500  0.476800  0.935100  1
  H  H453  1  0.091500  0.976800  0.435100  1
  H  H454  1  0.591500  0.976800  0.935100  1
  H  H455  1  0.091500  0.523200  0.564900  1
  H  H456  1  0.591500  0.523200  0.064900  1
  H  H457  1  0.934700  0.009000  0.591500  1
  H  H458  1  0.434700  0.009000  0.091500  1
  H  H459  1  0.934700  0.491000  0.408500  1
  H  H460  1  0.434700  0.491000  0.908500  1
  H  H461  1  0.065300  0.991000  0.408500  1
  H  H462  1  0.565300  0.991000  0.908500  1
  H  H463  1  0.065300  0.509000  0.591500  1
  H  H464  1  0.565300  0.509000  0.091500  1
  H  H465  1  0.867900  0.968300  0.594500  1
  H  H466  1  0.367900  0.968300  0.094500  1
  H  H467  1  0.867900  0.531700  0.405500  1
  H  H468  1  0.367900  0.531700  0.905500  1
  H  H469  1  0.132100  0.031700  0.405500  1
  H  H470  1  0.632100  0.031700  0.905500  1
  H  H471  1  0.132100  0.468300  0.594500  1
  H  H472  1  0.632100  0.468300  0.094500  1
  H  H473  1  0.842500  0.006600  0.593900  1
  H  H474  1  0.342500  0.006600  0.093900  1
  H  H475  1  0.842500  0.493400  0.406100  1
  H  H476  1  0.342500  0.493400  0.906100  1
  H  H477  1  0.157500  0.993400  0.406100  1
  H  H478  1  0.657500  0.993400  0.906100  1
  H  H479  1  0.157500  0.506600  0.593900  1
  H  H480  1  0.657500  0.506600  0.093900  1
  H  H481  1  0.777700  0.967800  0.579800  1
  H  H482  1  0.277700  0.967800  0.079800  1
  H  H483  1  0.777700  0.532200  0.420200  1
  H  H484  1  0.277700  0.532200  0.920200  1
  H  H485  1  0.222300  0.032200  0.420200  1
  H  H486  1  0.722300  0.032200  0.920200  1
  H  H487  1  0.222300  0.467800  0.579800  1
  H  H488  1  0.722300  0.467800  0.079800  1
  H  H489  1  0.811600  0.932400  0.575300  1
  H  H490  1  0.311600  0.932400  0.075300  1
  H  H491  1  0.811600  0.567600  0.424700  1
  H  H492  1  0.311600  0.567600  0.924700  1
  H  H493  1  0.188400  0.067600  0.424700  1
  H  H494  1  0.688400  0.067600  0.924700  1
  H  H495  1  0.188400  0.432400  0.575300  1
  H  H496  1  0.688400  0.432400  0.075300  1
  H  H497  1  0.776500  0.939400  0.549300  1
  H  H498  1  0.276500  0.939400  0.049300  1
  H  H499  1  0.776500  0.560600  0.450700  1
  H  H500  1  0.276500  0.560600  0.950700  1
  H  H501  1  0.223500  0.060600  0.450700  1
  H  H502  1  0.723500  0.060600  0.950700  1
  H  H503  1  0.223500  0.439400  0.549300  1
  H  H504  1  0.723500  0.439400  0.049300  1
  H  H505  1  0.788500  0.017100  0.558200  1
  H  H506  1  0.288500  0.017100  0.058200  1
  H  H507  1  0.788500  0.482900  0.441800  1
  H  H508  1  0.288500  0.482900  0.941800  1
  H  H509  1  0.211500  0.982900  0.441800  1
  H  H510  1  0.711500  0.982900  0.941800  1
  H  H511  1  0.211500  0.517100  0.558200  1
  H  H512  1  0.711500  0.517100  0.058200  1
  H  H513  1  0.790800  0.994700  0.525300  1
  H  H514  1  0.290800  0.994700  0.025300  1
  H  H515  1  0.790800  0.505300  0.474700  1
  H  H516  1  0.290800  0.505300  0.974700  1
  H  H517  1  0.209200  0.005300  0.474700  1
  H  H518  1  0.709200  0.005300  0.974700  1
  H  H519  1  0.209200  0.494700  0.525300  1
  H  H520  1  0.709200  0.494700  0.025300  1
  H  H521  1  0.835100  0.021300  0.538000  1
  H  H522  1  0.335100  0.021300  0.038000  1
  H  H523  1  0.835100  0.478700  0.462000  1
  H  H524  1  0.335100  0.478700  0.962000  1
  H  H525  1  0.164900  0.978700  0.462000  1
  H  H526  1  0.664900  0.978700  0.962000  1
  H  H527  1  0.164900  0.521300  0.538000  1
  H  H528  1  0.664900  0.521300  0.038000  1
  H  H529  1  0.202200  0.000200  0.341000  1
  H  H530  1  0.702200  0.000200  0.841000  1
  H  H531  1  0.202200  0.499800  0.659000  1
  H  H532  1  0.702200  0.499800  0.159000  1
  H  H533  1  0.797800  0.999800  0.659000  1
  H  H534  1  0.297800  0.999800  0.159000  1
  H  H535  1  0.797800  0.500200  0.341000  1
  H  H536  1  0.297800  0.500200  0.841000  1
  H  H537  1  0.157600  0.974200  0.345800  1
  H  H538  1  0.657600  0.974200  0.845800  1
  H  H539  1  0.157600  0.525800  0.654200  1
  H  H540  1  0.657600  0.525800  0.154200  1
  H  H541  1  0.842400  0.025800  0.654200  1
  H  H542  1  0.342400  0.025800  0.154200  1
  H  H543  1  0.842400  0.474200  0.345800  1
  H  H544  1  0.342400  0.474200  0.845800  1
  H  H545  1  0.147700  0.007900  0.330500  1
  H  H546  1  0.647700  0.007900  0.830500  1
  H  H547  1  0.147700  0.492100  0.669500  1
  H  H548  1  0.647700  0.492100  0.169500  1
  H  H549  1  0.852300  0.992100  0.669500  1
  H  H550  1  0.352300  0.992100  0.169500  1
  H  H551  1  0.852300  0.507900  0.330500  1
  H  H552  1  0.352300  0.507900  0.830500  1
  H  H553  1  0.249300  0.952600  0.317600  1
  H  H554  1  0.749300  0.952600  0.817600  1
  H  H555  1  0.249300  0.547400  0.682400  1
  H  H556  1  0.749300  0.547400  0.182400  1
  H  H557  1  0.750700  0.047400  0.682400  1
  H  H558  1  0.250700  0.047400  0.182400  1
  H  H559  1  0.750700  0.452600  0.317600  1
  H  H560  1  0.250700  0.452600  0.817600  1
  H  H561  1  0.229500  0.925500  0.289000  1
  H  H562  1  0.729500  0.925500  0.789000  1
  H  H563  1  0.229500  0.574500  0.711000  1
  H  H564  1  0.729500  0.574500  0.211000  1
  H  H565  1  0.770500  0.074500  0.711000  1
  H  H566  1  0.270500  0.074500  0.211000  1
  H  H567  1  0.770500  0.425500  0.289000  1
  H  H568  1  0.270500  0.425500  0.789000  1
  H  H569  1  0.207600  0.923600  0.320600  1
  H  H570  1  0.707600  0.923600  0.820600  1
  H  H571  1  0.207600  0.576400  0.679400  1
  H  H572  1  0.707600  0.576400  0.179400  1
  H  H573  1  0.792400  0.076400  0.679400  1
  H  H574  1  0.292400  0.076400  0.179400  1
  H  H575  1  0.792400  0.423600  0.320600  1
  H  H576  1  0.292400  0.423600  0.820600  1
  H  H577  1  0.219300  0.008000  0.293100  1
  H  H578  1  0.719300  0.008000  0.793100  1
  H  H579  1  0.219300  0.492000  0.706900  1
  H  H580  1  0.719300  0.492000  0.206900  1
  H  H581  1  0.780700  0.992000  0.706900  1
  H  H582  1  0.280700  0.992000  0.206900  1
  H  H583  1  0.780700  0.508000  0.293100  1
  H  H584  1  0.280700  0.508000  0.793100  1
  H  H585  1  0.225300  0.970700  0.270000  1
  H  H586  1  0.725300  0.970700  0.770000  1
  H  H587  1  0.225300  0.529300  0.730000  1
  H  H588  1  0.725300  0.529300  0.230000  1
  H  H589  1  0.774700  0.029300  0.730000  1
  H  H590  1  0.274700  0.029300  0.230000  1
  H  H591  1  0.774700  0.470700  0.270000  1
  H  H592  1  0.274700  0.470700  0.770000  1
  H  H593  1  0.182800  0.005600  0.249600  1
  H  H594  1  0.682800  0.005600  0.749600  1
  H  H595  1  0.182800  0.494400  0.750400  1
  H  H596  1  0.682800  0.494400  0.250400  1
  H  H597  1  0.817200  0.994400  0.750400  1
  H  H598  1  0.317200  0.994400  0.250400  1
  H  H599  1  0.817200  0.505600  0.249600  1
  H  H600  1  0.317200  0.505600  0.749600  1
  H  H601  1  0.148700  0.017600  0.277800  1
  H  H602  1  0.648700  0.017600  0.777800  1
  H  H603  1  0.148700  0.482400  0.722200  1
  H  H604  1  0.648700  0.482400  0.222200  1
  H  H605  1  0.851300  0.982400  0.722200  1
  H  H606  1  0.351300  0.982400  0.222200  1
  H  H607  1  0.851300  0.517600  0.277800  1
  H  H608  1  0.351300  0.517600  0.777800  1
  H  H609  1  0.147400  0.961400  0.210400  1
  H  H610  1  0.647400  0.961400  0.710400  1
  H  H611  1  0.147400  0.538600  0.789600  1
  H  H612  1  0.647400  0.538600  0.289600  1
  H  H613  1  0.852600  0.038600  0.789600  1
  H  H614  1  0.352600  0.038600  0.289600  1
  H  H615  1  0.852600  0.461400  0.210400  1
  H  H616  1  0.352600  0.461400  0.710400  1
  H  H617  1  0.116800  0.928700  0.218800  1
  H  H618  1  0.616800  0.928700  0.718800  1
  H  H619  1  0.116800  0.571300  0.781200  1
  H  H620  1  0.616800  0.571300  0.281200  1
  H  H621  1  0.883200  0.071300  0.781200  1
  H  H622  1  0.383200  0.071300  0.281200  1
  H  H623  1  0.883200  0.428700  0.218800  1
  H  H624  1  0.383200  0.428700  0.718800  1
  H  H625  1  0.173700  0.934200  0.227900  1
  H  H626  1  0.673700  0.934200  0.727900  1
  H  H627  1  0.173700  0.565800  0.772100  1
  H  H628  1  0.673700  0.565800  0.272100  1
  H  H629  1  0.826300  0.065800  0.772100  1
  H  H630  1  0.326300  0.065800  0.272100  1
  H  H631  1  0.826300  0.434200  0.227900  1
  H  H632  1  0.326300  0.434200  0.727900  1
  H  H633  1  0.090700  0.002600  0.232500  1
  H  H634  1  0.590700  0.002600  0.732500  1
  H  H635  1  0.090700  0.497400  0.767500  1
  H  H636  1  0.590700  0.497400  0.267500  1
  H  H637  1  0.909300  0.997400  0.767500  1
  H  H638  1  0.409300  0.997400  0.267500  1
  H  H639  1  0.909300  0.502600  0.232500  1
  H  H640  1  0.409300  0.502600  0.732500  1
  H  H641  1  0.076900  0.006500  0.266500  1
  H  H642  1  0.576900  0.006500  0.766500  1
  H  H643  1  0.076900  0.493500  0.733500  1
  H  H644  1  0.576900  0.493500  0.233500  1
  H  H645  1  0.923100  0.993500  0.733500  1
  H  H646  1  0.423100  0.993500  0.233500  1
  H  H647  1  0.923100  0.506500  0.266500  1
  H  H648  1  0.423100  0.506500  0.766500  1
  H  H649  1  0.057300  0.972600  0.243000  1
  H  H650  1  0.557300  0.972600  0.743000  1
  H  H651  1  0.057300  0.527400  0.757000  1
  H  H652  1  0.557300  0.527400  0.257000  1
  H  H653  1  0.942700  0.027400  0.757000  1
  H  H654  1  0.442700  0.027400  0.257000  1
  H  H655  1  0.942700  0.472600  0.243000  1
  H  H656  1  0.442700  0.472600  0.743000  1
  H  H657  1  0.250500  0.666200  0.419900  1
  H  H658  1  0.750500  0.666200  0.919900  1
  H  H659  1  0.250500  0.833800  0.580100  1
  H  H660  1  0.750500  0.833800  0.080100  1
  H  H661  1  0.749500  0.333800  0.580100  1
  H  H662  1  0.249500  0.333800  0.080100  1
  H  H663  1  0.749500  0.166200  0.419900  1
  H  H664  1  0.249500  0.166200  0.919900  1
  H  H665  1  0.211200  0.691200  0.407800  1
  H  H666  1  0.711200  0.691200  0.907800  1
  H  H667  1  0.211200  0.808800  0.592200  1
  H  H668  1  0.711200  0.808800  0.092200  1
  H  H669  1  0.788800  0.308800  0.592200  1
  H  H670  1  0.288800  0.308800  0.092200  1
  H  H671  1  0.788800  0.191200  0.407800  1
  H  H672  1  0.288800  0.191200  0.907800  1
  H  H673  1  0.227800  0.653600  0.387800  1
  H  H674  1  0.727800  0.653600  0.887800  1
  H  H675  1  0.227800  0.846400  0.612200  1
  H  H676  1  0.727800  0.846400  0.112200  1
  H  H677  1  0.772200  0.346400  0.612200  1
  H  H678  1  0.272200  0.346400  0.112200  1
  H  H679  1  0.772200  0.153600  0.387800  1
  H  H680  1  0.272200  0.153600  0.887800  1
  H  H681  1  0.201900  0.665200  0.462500  1
  H  H682  1  0.701900  0.665200  0.962500  1
  H  H683  1  0.201900  0.834800  0.537500  1
  H  H684  1  0.701900  0.834800  0.037500  1
  H  H685  1  0.798100  0.334800  0.537500  1
  H  H686  1  0.298100  0.334800  0.037500  1
  H  H687  1  0.798100  0.165200  0.462500  1
  H  H688  1  0.298100  0.165200  0.962500  1
  H  H689  1  0.148200  0.647200  0.458600  1
  H  H690  1  0.648200  0.647200  0.958600  1
  H  H691  1  0.148200  0.852800  0.541400  1
  H  H692  1  0.648200  0.852800  0.041400  1
  H  H693  1  0.851800  0.352800  0.541400  1
  H  H694  1  0.351800  0.352800  0.041400  1
  H  H695  1  0.851800  0.147200  0.458600  1
  H  H696  1  0.351800  0.147200  0.958600  1
  H  H697  1  0.156200  0.687300  0.453200  1
  H  H698  1  0.656200  0.687300  0.953200  1
  H  H699  1  0.156200  0.812700  0.546800  1
  H  H700  1  0.656200  0.812700  0.046800  1
  H  H701  1  0.843800  0.312700  0.546800  1
  H  H702  1  0.343800  0.312700  0.046800  1
  H  H703  1  0.843800  0.187300  0.453200  1
  H  H704  1  0.343800  0.187300  0.953200  1
  H  H705  1  0.228400  0.609800  0.401600  1
  H  H706  1  0.728400  0.609800  0.901600  1
  H  H707  1  0.228400  0.890200  0.598400  1
  H  H708  1  0.728400  0.890200  0.098400  1
  H  H709  1  0.771600  0.390200  0.598400  1
  H  H710  1  0.271600  0.390200  0.098400  1
  H  H711  1  0.771600  0.109800  0.401600  1
  H  H712  1  0.271600  0.109800  0.901600  1
  H  H713  1  0.212500  0.607600  0.434100  1
  H  H714  1  0.712500  0.607600  0.934100  1
  H  H715  1  0.212500  0.892400  0.565900  1
  H  H716  1  0.712500  0.892400  0.065900  1
  H  H717  1  0.787500  0.392400  0.565900  1
  H  H718  1  0.287500  0.392400  0.065900  1
  H  H719  1  0.787500  0.107600  0.434100  1
  H  H720  1  0.287500  0.107600  0.934100  1
  H  H721  1  0.186100  0.565200  0.390100  1
  H  H722  1  0.686100  0.565200  0.890100  1
  H  H723  1  0.186100  0.934800  0.609900  1
  H  H724  1  0.686100  0.934800  0.109900  1
  H  H725  1  0.813900  0.434800  0.609900  1
  H  H726  1  0.313900  0.434800  0.109900  1
  H  H727  1  0.813900  0.065200  0.390100  1
  H  H728  1  0.313900  0.065200  0.890100  1
  H  H729  1  0.157400  0.572200  0.420500  1
  H  H730  1  0.657400  0.572200  0.920500  1
  H  H731  1  0.157400  0.927800  0.579500  1
  H  H732  1  0.657400  0.927800  0.079500  1
  H  H733  1  0.842600  0.427800  0.579500  1
  H  H734  1  0.342600  0.427800  0.079500  1
  H  H735  1  0.842600  0.072200  0.420500  1
  H  H736  1  0.342600  0.072200  0.920500  1
  H  H737  1  0.132000  0.549300  0.355800  1
  H  H738  1  0.632000  0.549300  0.855800  1
  H  H739  1  0.132000  0.950700  0.644200  1
  H  H740  1  0.632000  0.950700  0.144200  1
  H  H741  1  0.868000  0.450700  0.644200  1
  H  H742  1  0.368000  0.450700  0.144200  1
  H  H743  1  0.868000  0.049300  0.355800  1
  H  H744  1  0.368000  0.049300  0.855800  1
  H  H745  1  0.157900  0.586100  0.351800  1
  H  H746  1  0.657900  0.586100  0.851800  1
  H  H747  1  0.157900  0.913900  0.648200  1
  H  H748  1  0.657900  0.913900  0.148200  1
  H  H749  1  0.842100  0.413900  0.648200  1
  H  H750  1  0.342100  0.413900  0.148200  1
  H  H751  1  0.842100  0.086100  0.351800  1
  H  H752  1  0.342100  0.086100  0.851800  1
  H  H753  1  0.099200  0.581900  0.349100  1
  H  H754  1  0.599200  0.581900  0.849100  1
  H  H755  1  0.099200  0.918100  0.650900  1
  H  H756  1  0.599200  0.918100  0.150900  1
  H  H757  1  0.900800  0.418100  0.650900  1
  H  H758  1  0.400800  0.418100  0.150900  1
  H  H759  1  0.900800  0.081900  0.349100  1
  H  H760  1  0.400800  0.081900  0.849100  1
  H  H761  1  0.084900  0.547500  0.398300  1
  H  H762  1  0.584900  0.547500  0.898300  1
  H  H763  1  0.084900  0.952500  0.601700  1
  H  H764  1  0.584900  0.952500  0.101700  1
  H  H765  1  0.915100  0.452500  0.601700  1
  H  H766  1  0.415100  0.452500  0.101700  1
  H  H767  1  0.915100  0.047500  0.398300  1
  H  H768  1  0.415100  0.047500  0.898300  1
  H  H769  1  0.051200  0.580800  0.394000  1
  H  H770  1  0.551200  0.580800  0.894000  1
  H  H771  1  0.051200  0.919200  0.606000  1
  H  H772  1  0.551200  0.919200  0.106000  1
  H  H773  1  0.948800  0.419200  0.606000  1
  H  H774  1  0.448800  0.419200  0.106000  1
  H  H775  1  0.948800  0.080800  0.394000  1
  H  H776  1  0.448800  0.080800  0.894000  1
  H  H777  1  0.081600  0.582800  0.423700  1
  H  H778  1  0.581600  0.582800  0.923700  1
  H  H779  1  0.081600  0.917200  0.576300  1
  H  H780  1  0.581600  0.917200  0.076300  1
  H  H781  1  0.918400  0.417200  0.576300  1
  H  H782  1  0.418400  0.417200  0.076300  1
  H  H783  1  0.918400  0.082800  0.423700  1
  H  H784  1  0.418400  0.082800  0.923700  1
  H  H785  1  0.830500  0.680900  0.083300  1
  H  H786  1  0.330500  0.680900  0.583300  1
  H  H787  1  0.830500  0.819100  0.916700  1
  H  H788  1  0.330500  0.819100  0.416700  1
  H  H789  1  0.169500  0.319100  0.916700  1
  H  H790  1  0.669500  0.319100  0.416700  1
  H  H791  1  0.169500  0.180900  0.083300  1
  H  H792  1  0.669500  0.180900  0.583300  1
  H  H793  1  0.831100  0.704600  0.115900  1
  H  H794  1  0.331100  0.704600  0.615900  1
  H  H795  1  0.831100  0.795400  0.884100  1
  H  H796  1  0.331100  0.795400  0.384100  1
  H  H797  1  0.168900  0.295400  0.884100  1
  H  H798  1  0.668900  0.295400  0.384100  1
  H  H799  1  0.168900  0.204600  0.115900  1
  H  H800  1  0.668900  0.204600  0.615900  1
  H  H801  1  0.799800  0.668000  0.108700  1
  H  H802  1  0.299800  0.668000  0.608700  1
  H  H803  1  0.799800  0.832000  0.891300  1
  H  H804  1  0.299800  0.832000  0.391300  1
  H  H805  1  0.200200  0.332000  0.891300  1
  H  H806  1  0.700200  0.332000  0.391300  1
  H  H807  1  0.200200  0.168000  0.108700  1
  H  H808  1  0.700200  0.168000  0.608700  1
  H  H809  1  0.913200  0.677200  0.080900  1
  H  H810  1  0.413200  0.677200  0.580900  1
  H  H811  1  0.913200  0.822800  0.919100  1
  H  H812  1  0.413200  0.822800  0.419100  1
  H  H813  1  0.086800  0.322800  0.919100  1
  H  H814  1  0.586800  0.322800  0.419100  1
  H  H815  1  0.086800  0.177200  0.080900  1
  H  H816  1  0.586800  0.177200  0.580900  1
  H  H817  1  0.945300  0.662500  0.104900  1
  H  H818  1  0.445300  0.662500  0.604900  1
  H  H819  1  0.945300  0.837500  0.895100  1
  H  H820  1  0.445300  0.837500  0.395100  1
  H  H821  1  0.054700  0.337500  0.895100  1
  H  H822  1  0.554700  0.337500  0.395100  1
  H  H823  1  0.054700  0.162500  0.104900  1
  H  H824  1  0.554700  0.162500  0.604900  1
  H  H825  1  0.919200  0.701200  0.113200  1
  H  H826  1  0.419200  0.701200  0.613200  1
  H  H827  1  0.919200  0.798800  0.886800  1
  H  H828  1  0.419200  0.798800  0.386800  1
  H  H829  1  0.080800  0.298800  0.886800  1
  H  H830  1  0.580800  0.298800  0.386800  1
  H  H831  1  0.080800  0.201200  0.113200  1
  H  H832  1  0.580800  0.201200  0.613200  1
  H  H833  1  0.839300  0.619900  0.085000  1
  H  H834  1  0.339300  0.619900  0.585000  1
  H  H835  1  0.839300  0.880100  0.915000  1
  H  H836  1  0.339300  0.880100  0.415000  1
  H  H837  1  0.160700  0.380100  0.915000  1
  H  H838  1  0.660700  0.380100  0.415000  1
  H  H839  1  0.160700  0.119900  0.085000  1
  H  H840  1  0.660700  0.119900  0.585000  1
  H  H841  1  0.897400  0.620600  0.080300  1
  H  H842  1  0.397400  0.620600  0.580300  1
  H  H843  1  0.897400  0.879400  0.919700  1
  H  H844  1  0.397400  0.879400  0.419700  1
  H  H845  1  0.102600  0.379400  0.919700  1
  H  H846  1  0.602600  0.379400  0.419700  1
  H  H847  1  0.102600  0.120600  0.080300  1
  H  H848  1  0.602600  0.120600  0.580300  1
  H  H849  1  0.850500  0.576600  0.102300  1
  H  H850  1  0.350500  0.576600  0.602300  1
  H  H851  1  0.850500  0.923400  0.897700  1
  H  H852  1  0.350500  0.923400  0.397700  1
  H  H853  1  0.149500  0.423400  0.897700  1
  H  H854  1  0.649500  0.423400  0.397700  1
  H  H855  1  0.149500  0.076600  0.102300  1
  H  H856  1  0.649500  0.076600  0.602300  1
  H  H857  1  0.908700  0.582700  0.103700  1
  H  H858  1  0.408700  0.582700  0.603700  1
  H  H859  1  0.908700  0.917300  0.896300  1
  H  H860  1  0.408700  0.917300  0.396300  1
  H  H861  1  0.091300  0.417300  0.896300  1
  H  H862  1  0.591300  0.417300  0.396300  1
  H  H863  1  0.091300  0.082700  0.103700  1
  H  H864  1  0.591300  0.082700  0.603700  1
  H  H865  1  0.835200  0.559100  0.143400  1
  H  H866  1  0.335200  0.559100  0.643400  1
  H  H867  1  0.835200  0.940900  0.856600  1
  H  H868  1  0.335200  0.940900  0.356600  1
  H  H869  1  0.164800  0.440900  0.856600  1
  H  H870  1  0.664800  0.440900  0.356600  1
  H  H871  1  0.164800  0.059100  0.143400  1
  H  H872  1  0.664800  0.059100  0.643400  1
  H  H873  1  0.802900  0.594500  0.143300  1
  H  H874  1  0.302900  0.594500  0.643300  1
  H  H875  1  0.802900  0.905500  0.856700  1
  H  H876  1  0.302900  0.905500  0.356700  1
  H  H877  1  0.197100  0.405500  0.856700  1
  H  H878  1  0.697100  0.405500  0.356700  1
  H  H879  1  0.197100  0.094500  0.143300  1
  H  H880  1  0.697100  0.094500  0.643300  1
  H  H881  1  0.833700  0.590700  0.171900  1
  H  H882  1  0.333700  0.590700  0.671900  1
  H  H883  1  0.833700  0.909300  0.828100  1
  H  H884  1  0.333700  0.909300  0.328100  1
  H  H885  1  0.166300  0.409300  0.828100  1
  H  H886  1  0.666300  0.409300  0.328100  1
  H  H887  1  0.166300  0.090700  0.171900  1
  H  H888  1  0.666300  0.090700  0.671900  1
  H  H889  1  0.922600  0.561100  0.144900  1
  H  H890  1  0.422600  0.561100  0.644900  1
  H  H891  1  0.922600  0.938900  0.855100  1
  H  H892  1  0.422600  0.938900  0.355100  1
  H  H893  1  0.077400  0.438900  0.855100  1
  H  H894  1  0.577400  0.438900  0.355100  1
  H  H895  1  0.077400  0.061100  0.144900  1
  H  H896  1  0.577400  0.061100  0.644900  1
  H  H897  1  0.921600  0.593600  0.172800  1
  H  H898  1  0.421600  0.593600  0.672800  1
  H  H899  1  0.921600  0.906400  0.827200  1
  H  H900  1  0.421600  0.906400  0.327200  1
  H  H901  1  0.078400  0.406400  0.827200  1
  H  H902  1  0.578400  0.406400  0.327200  1
  H  H903  1  0.078400  0.093600  0.172800  1
  H  H904  1  0.578400  0.093600  0.672800  1
  H  H905  1  0.950300  0.598200  0.143700  1
  H  H906  1  0.450300  0.598200  0.643700  1
  H  H907  1  0.950300  0.901800  0.856300  1
  H  H908  1  0.450300  0.901800  0.356300  1
  H  H909  1  0.049700  0.401800  0.856300  1
  H  H910  1  0.549700  0.401800  0.356300  1
  H  H911  1  0.049700  0.098200  0.143700  1
  H  H912  1  0.549700  0.098200  0.643700  1
  H  H913  1  0.508100  0.967700  0.315800  1
  H  H914  1  0.008100  0.967700  0.815800  1
  H  H915  1  0.508100  0.532300  0.684200  1
  H  H916  1  0.008100  0.532300  0.184200  1
  H  H917  1  0.491900  0.032300  0.684200  1
  H  H918  1  0.991900  0.032300  0.184200  1
  H  H919  1  0.491900  0.467700  0.315800  1
  H  H920  1  0.991900  0.467700  0.815800  1
  H  H921  1  0.550000  0.942200  0.324900  1
  H  H922  1  0.050000  0.942200  0.824900  1
  H  H923  1  0.550000  0.557800  0.675100  1
  H  H924  1  0.050000  0.557800  0.175100  1
  H  H925  1  0.450000  0.057800  0.675100  1
  H  H926  1  0.950000  0.057800  0.175100  1
  H  H927  1  0.450000  0.442200  0.324900  1
  H  H928  1  0.950000  0.442200  0.824900  1
  H  H929  1  0.528100  0.934000  0.292300  1
  H  H930  1  0.028100  0.934000  0.792300  1
  H  H931  1  0.528100  0.566000  0.707700  1
  H  H932  1  0.028100  0.566000  0.207700  1
  H  H933  1  0.471900  0.066000  0.707700  1
  H  H934  1  0.971900  0.066000  0.207700  1
  H  H935  1  0.471900  0.434000  0.292300  1
  H  H936  1  0.971900  0.434000  0.792300  1
  H  H937  1  0.555800  0.018400  0.332000  1
  H  H938  1  0.055800  0.018400  0.832000  1
  H  H939  1  0.555800  0.481600  0.668000  1
  H  H940  1  0.055800  0.481600  0.168000  1
  H  H941  1  0.444200  0.981600  0.668000  1
  H  H942  1  0.944200  0.981600  0.168000  1
  H  H943  1  0.444200  0.518400  0.332000  1
  H  H944  1  0.944200  0.518400  0.832000  1
  H  H945  1  0.609800  0.022100  0.319000  1
  H  H946  1  0.109800  0.022100  0.819000  1
  H  H947  1  0.609800  0.477900  0.681000  1
  H  H948  1  0.109800  0.477900  0.181000  1
  H  H949  1  0.390200  0.977900  0.681000  1
  H  H950  1  0.890200  0.977900  0.181000  1
  H  H951  1  0.390200  0.522100  0.319000  1
  H  H952  1  0.890200  0.522100  0.819000  1
  H  H953  1  0.600600  0.995200  0.341100  1
  H  H954  1  0.100600  0.995200  0.841100  1
  H  H955  1  0.600600  0.504800  0.658900  1
  H  H956  1  0.100600  0.504800  0.158900  1
  H  H957  1  0.399400  0.004800  0.658900  1
  H  H958  1  0.899400  0.004800  0.158900  1
  H  H959  1  0.399400  0.495200  0.341100  1
  H  H960  1  0.899400  0.495200  0.841100  1
  H  H961  1  0.535900  0.972100  0.260600  1
  H  H962  1  0.035900  0.972100  0.760600  1
  H  H963  1  0.535900  0.527900  0.739400  1
  H  H964  1  0.035900  0.527900  0.239400  1
  H  H965  1  0.464100  0.027900  0.739400  1
  H  H966  1  0.964100  0.027900  0.239400  1
  H  H967  1  0.464100  0.472100  0.260600  1
  H  H968  1  0.964100  0.472100  0.760600  1
  H  H969  1  0.531800  0.011400  0.281400  1
  H  H970  1  0.031800  0.011400  0.781400  1
  H  H971  1  0.531800  0.488600  0.718600  1
  H  H972  1  0.031800  0.488600  0.218600  1
  H  H973  1  0.468200  0.988600  0.718600  1
  H  H974  1  0.968200  0.988600  0.218600  1
  H  H975  1  0.468200  0.511400  0.281400  1
  H  H976  1  0.968200  0.511400  0.781400  1
  H  H977  1  0.584200  0.012400  0.240500  1
  H  H978  1  0.084200  0.012400  0.740500  1
  H  H979  1  0.584200  0.487600  0.759500  1
  H  H980  1  0.084200  0.487600  0.259500  1
  H  H981  1  0.415800  0.987600  0.759500  1
  H  H982  1  0.915800  0.987600  0.259500  1
  H  H983  1  0.415800  0.512400  0.240500  1
  H  H984  1  0.915800  0.512400  0.740500  1
  H  H985  1  0.613500  0.024400  0.270900  1
  H  H986  1  0.113500  0.024400  0.770900  1
  H  H987  1  0.613500  0.475600  0.729100  1
  H  H988  1  0.113500  0.475600  0.229100  1
  H  H989  1  0.386500  0.975600  0.729100  1
  H  H990  1  0.886500  0.975600  0.229100  1
  H  H991  1  0.386500  0.524400  0.270900  1
  H  H992  1  0.886500  0.524400  0.770900  1
  H  H993  1  0.613500  0.960700  0.206600  1
  H  H994  1  0.113500  0.960700  0.706600  1
  H  H995  1  0.613500  0.539300  0.793400  1
  H  H996  1  0.113500  0.539300  0.293400  1
  H  H997  1  0.386500  0.039300  0.793400  1
  H  H998  1  0.886500  0.039300  0.293400  1
  H  H999  1  0.386500  0.460700  0.206600  1
  H  H1000  1  0.886500  0.460700  0.706600  1
  H  H1001  1  0.583200  0.938300  0.226600  1
  H  H1002  1  0.083200  0.938300  0.726600  1
  H  H1003  1  0.583200  0.561700  0.773400  1
  H  H1004  1  0.083200  0.561700  0.273400  1
  H  H1005  1  0.416800  0.061700  0.773400  1
  H  H1006  1  0.916800  0.061700  0.273400  1
  H  H1007  1  0.416800  0.438300  0.226600  1
  H  H1008  1  0.916800  0.438300  0.726600  1
  H  H1009  1  0.639600  0.928400  0.218500  1
  H  H1010  1  0.139600  0.928400  0.718500  1
  H  H1011  1  0.639600  0.571600  0.781500  1
  H  H1012  1  0.139600  0.571600  0.281500  1
  H  H1013  1  0.360400  0.071600  0.781500  1
  H  H1014  1  0.860400  0.071600  0.281500  1
  H  H1015  1  0.360400  0.428400  0.218500  1
  H  H1016  1  0.860400  0.428400  0.718500  1
  H  H1017  1  0.673700  0.000400  0.223800  1
  H  H1018  1  0.173700  0.000400  0.723800  1
  H  H1019  1  0.673700  0.499600  0.776200  1
  H  H1020  1  0.173700  0.499600  0.276200  1
  H  H1021  1  0.326300  0.999600  0.776200  1
  H  H1022  1  0.826300  0.999600  0.276200  1
  H  H1023  1  0.326300  0.500400  0.223800  1
  H  H1024  1  0.826300  0.500400  0.723800  1
  H  H1025  1  0.704100  0.970400  0.236300  1
  H  H1026  1  0.204100  0.970400  0.736300  1
  H  H1027  1  0.704100  0.529600  0.763700  1
  H  H1028  1  0.204100  0.529600  0.263700  1
  H  H1029  1  0.295900  0.029600  0.763700  1
  H  H1030  1  0.795900  0.029600  0.263700  1
  H  H1031  1  0.295900  0.470400  0.236300  1
  H  H1032  1  0.795900  0.470400  0.736300  1
  H  H1033  1  0.690500  0.008000  0.257500  1
  H  H1034  1  0.190500  0.008000  0.757500  1
  H  H1035  1  0.690500  0.492000  0.742500  1
  H  H1036  1  0.190500  0.492000  0.242500  1
  H  H1037  1  0.309500  0.992000  0.742500  1
  H  H1038  1  0.809500  0.992000  0.242500  1
  H  H1039  1  0.309500  0.508000  0.257500  1
  H  H1040  1  0.809500  0.508000  0.757500  1
  H  H1041  1  0.499000  0.681600  0.414000  1
  H  H1042  1  0.999000  0.681600  0.914000  1
  H  H1043  1  0.499000  0.818400  0.586000  1
  H  H1044  1  0.999000  0.818400  0.086000  1
  H  H1045  1  0.501000  0.318400  0.586000  1
  H  H1046  1  0.001000  0.318400  0.086000  1
  H  H1047  1  0.501000  0.181600  0.414000  1
  H  H1048  1  0.001000  0.181600  0.914000  1
  H  H1049  1  0.526800  0.666500  0.383700  1
  H  H1050  1  0.026800  0.666500  0.883700  1
  H  H1051  1  0.526800  0.833500  0.616300  1
  H  H1052  1  0.026800  0.833500  0.116300  1
  H  H1053  1  0.473200  0.333500  0.616300  1
  H  H1054  1  0.973200  0.333500  0.116300  1
  H  H1055  1  0.473200  0.166500  0.383700  1
  H  H1056  1  0.973200  0.166500  0.883700  1
  H  H1057  1  0.541500  0.705100  0.403000  1
  H  H1058  1  0.041500  0.705100  0.903000  1
  H  H1059  1  0.541500  0.794900  0.597000  1
  H  H1060  1  0.041500  0.794900  0.097000  1
  H  H1061  1  0.458500  0.294900  0.597000  1
  H  H1062  1  0.958500  0.294900  0.097000  1
  H  H1063  1  0.458500  0.205100  0.403000  1
  H  H1064  1  0.958500  0.205100  0.903000  1
  H  H1065  1  0.542500  0.682700  0.461000  1
  H  H1066  1  0.042500  0.682700  0.961000  1
  H  H1067  1  0.542500  0.817300  0.539000  1
  H  H1068  1  0.042500  0.817300  0.039000  1
  H  H1069  1  0.457500  0.317300  0.539000  1
  H  H1070  1  0.957500  0.317300  0.039000  1
  H  H1071  1  0.457500  0.182700  0.461000  1
  H  H1072  1  0.957500  0.182700  0.961000  1
  H  H1073  1  0.585800  0.706700  0.451500  1
  H  H1074  1  0.085800  0.706700  0.951500  1
  H  H1075  1  0.585800  0.793300  0.548500  1
  H  H1076  1  0.085800  0.793300  0.048500  1
  H  H1077  1  0.414200  0.293300  0.548500  1
  H  H1078  1  0.914200  0.293300  0.048500  1
  H  H1079  1  0.414200  0.206700  0.451500  1
  H  H1080  1  0.914200  0.206700  0.951500  1
  H  H1081  1  0.598600  0.669400  0.461300  1
  H  H1082  1  0.098600  0.669400  0.961300  1
  H  H1083  1  0.598600  0.830600  0.538700  1
  H  H1084  1  0.098600  0.830600  0.038700  1
  H  H1085  1  0.401400  0.330600  0.538700  1
  H  H1086  1  0.901400  0.330600  0.038700  1
  H  H1087  1  0.401400  0.169400  0.461300  1
  H  H1088  1  0.901400  0.169400  0.961300  1
  H  H1089  1  0.560300  0.621100  0.440700  1
  H  H1090  1  0.060300  0.621100  0.940700  1
  H  H1091  1  0.560300  0.878900  0.559300  1
  H  H1092  1  0.060300  0.878900  0.059300  1
  H  H1093  1  0.439700  0.378900  0.559300  1
  H  H1094  1  0.939700  0.378900  0.059300  1
  H  H1095  1  0.439700  0.121100  0.440700  1
  H  H1096  1  0.939700  0.121100  0.940700  1
  H  H1097  1  0.518900  0.623000  0.416800  1
  H  H1098  1  0.018900  0.623000  0.916800  1
  H  H1099  1  0.518900  0.877000  0.583200  1
  H  H1100  1  0.018900  0.877000  0.083200  1
  H  H1101  1  0.481100  0.377000  0.583200  1
  H  H1102  1  0.981100  0.377000  0.083200  1
  H  H1103  1  0.481100  0.123000  0.416800  1
  H  H1104  1  0.981100  0.123000  0.916800  1
  H  H1105  1  0.554600  0.593500  0.385400  1
  H  H1106  1  0.054600  0.593500  0.885400  1
  H  H1107  1  0.554600  0.906500  0.614600  1
  H  H1108  1  0.054600  0.906500  0.114600  1
  H  H1109  1  0.445400  0.406500  0.614600  1
  H  H1110  1  0.945400  0.406500  0.114600  1
  H  H1111  1  0.445400  0.093500  0.385400  1
  H  H1112  1  0.945400  0.093500  0.885400  1
  H  H1113  1  0.576700  0.578600  0.412300  1
  H  H1114  1  0.076700  0.578600  0.912300  1
  H  H1115  1  0.576700  0.921400  0.587700  1
  H  H1116  1  0.076700  0.921400  0.087700  1
  H  H1117  1  0.423300  0.421400  0.587700  1
  H  H1118  1  0.923300  0.421400  0.087700  1
  H  H1119  1  0.423300  0.078600  0.412300  1
  H  H1120  1  0.923300  0.078600  0.912300  1
  H  H1121  1  0.623000  0.561400  0.361500  1
  H  H1122  1  0.123000  0.561400  0.861500  1
  H  H1123  1  0.623000  0.938600  0.638500  1
  H  H1124  1  0.123000  0.938600  0.138500  1
  H  H1125  1  0.377000  0.438600  0.638500  1
  H  H1126  1  0.877000  0.438600  0.138500  1
  H  H1127  1  0.377000  0.061400  0.361500  1
  H  H1128  1  0.877000  0.061400  0.861500  1
  H  H1129  1  0.654900  0.593400  0.352900  1
  H  H1130  1  0.154900  0.593400  0.852900  1
  H  H1131  1  0.654900  0.906600  0.647100  1
  H  H1132  1  0.154900  0.906600  0.147100  1
  H  H1133  1  0.345100  0.406600  0.647100  1
  H  H1134  1  0.845100  0.406600  0.147100  1
  H  H1135  1  0.345100  0.093400  0.352900  1
  H  H1136  1  0.845100  0.093400  0.852900  1
  H  H1137  1  0.595900  0.596000  0.353700  1
  H  H1138  1  0.095900  0.596000  0.853700  1
  H  H1139  1  0.595900  0.904000  0.646300  1
  H  H1140  1  0.095900  0.904000  0.146300  1
  H  H1141  1  0.404100  0.404000  0.646300  1
  H  H1142  1  0.904100  0.404000  0.146300  1
  H  H1143  1  0.404100  0.096000  0.353700  1
  H  H1144  1  0.904100  0.096000  0.853700  1
  H  H1145  1  0.662900  0.562500  0.404200  1
  H  H1146  1  0.162900  0.562500  0.904200  1
  H  H1147  1  0.662900  0.937500  0.595800  1
  H  H1148  1  0.162900  0.937500  0.095800  1
  H  H1149  1  0.337100  0.437500  0.595800  1
  H  H1150  1  0.837100  0.437500  0.095800  1
  H  H1151  1  0.337100  0.062500  0.404200  1
  H  H1152  1  0.837100  0.062500  0.904200  1
  H  H1153  1  0.663500  0.598400  0.429100  1
  H  H1154  1  0.163500  0.598400  0.929100  1
  H  H1155  1  0.663500  0.901600  0.570900  1
  H  H1156  1  0.163500  0.901600  0.070900  1
  H  H1157  1  0.336500  0.401600  0.570900  1
  H  H1158  1  0.836500  0.401600  0.070900  1
  H  H1159  1  0.336500  0.098400  0.429100  1
  H  H1160  1  0.836500  0.098400  0.929100  1
  H  H1161  1  0.698800  0.595200  0.401200  1
  H  H1162  1  0.198800  0.595200  0.901200  1
  H  H1163  1  0.698800  0.904800  0.598800  1
  H  H1164  1  0.198800  0.904800  0.098800  1
  H  H1165  1  0.301200  0.404800  0.598800  1
  H  H1166  1  0.801200  0.404800  0.098800  1
  H  H1167  1  0.301200  0.095200  0.401200  1
  H  H1168  1  0.801200  0.095200  0.901200  1
  Pd  Pd1169  1  0.882100  0.945910  0.525499  1
  Pd  Pd1170  1  0.382100  0.945910  0.025499  1
  Pd  Pd1171  1  0.882100  0.554090  0.474501  1
  Pd  Pd1172  1  0.382100  0.554090  0.974501  1
  Pd  Pd1173  1  0.117900  0.054090  0.474501  1
  Pd  Pd1174  1  0.617900  0.054090  0.974501  1
  Pd  Pd1175  1  0.117900  0.445910  0.525499  1
  Pd  Pd1176  1  0.617900  0.445910  0.025499  1
  Pd  Pd1177  1  0.118300  0.941557  0.285979  1
  Pd  Pd1178  1  0.618300  0.941557  0.785979  1
  Pd  Pd1179  1  0.118300  0.558443  0.714021  1
  Pd  Pd1180  1  0.618300  0.558443  0.214021  1
  Pd  Pd1181  1  0.881700  0.058443  0.714021  1
  Pd  Pd1182  1  0.381700  0.058443  0.214021  1
  Pd  Pd1183  1  0.881700  0.441557  0.285979  1
  Pd  Pd1184  1  0.381700  0.441557  0.785979  1
  Pd  Pd1185  1  0.116350  0.645730  0.397250  1
  Pd  Pd1186  1  0.616350  0.645730  0.897250  1
  Pd  Pd1187  1  0.116350  0.854270  0.602750  1
  Pd  Pd1188  1  0.616350  0.854270  0.102750  1
  Pd  Pd1189  1  0.883650  0.354270  0.602750  1
  Pd  Pd1190  1  0.383650  0.354270  0.102750  1
  Pd  Pd1191  1  0.883650  0.145730  0.397250  1
  Pd  Pd1192  1  0.383650  0.145730  0.897250  1
  Pd  Pd1193  1  0.875020  0.656920  0.154170  1
  Pd  Pd1194  1  0.375020  0.656920  0.654170  1
  Pd  Pd1195  1  0.875020  0.843080  0.845830  1
  Pd  Pd1196  1  0.375020  0.843080  0.345830  1
  Pd  Pd1197  1  0.124980  0.343080  0.845830  1
  Pd  Pd1198  1  0.624980  0.343080  0.345830  1
  Pd  Pd1199  1  0.124980  0.156920  0.154170  1
  Pd  Pd1200  1  0.624980  0.156920  0.654170  1
  Pd  Pd1201  1  0.638640  0.949390  0.284743  1
  Pd  Pd1202  1  0.138640  0.949390  0.784743  1
  Pd  Pd1203  1  0.638640  0.550610  0.715257  1
  Pd  Pd1204  1  0.138640  0.550610  0.215257  1
  Pd  Pd1205  1  0.361360  0.050610  0.715257  1
  Pd  Pd1206  1  0.861360  0.050610  0.215257  1
  Pd  Pd1207  1  0.361360  0.449390  0.284743  1
  Pd  Pd1208  1  0.861360  0.449390  0.784743  1
  Pd  Pd1209  1  0.634660  0.660050  0.398810  1
  Pd  Pd1210  1  0.134660  0.660050  0.898810  1
  Pd  Pd1211  1  0.634660  0.839950  0.601190  1
  Pd  Pd1212  1  0.134660  0.839950  0.101190  1
  Pd  Pd1213  1  0.365340  0.339950  0.601190  1
  Pd  Pd1214  1  0.865340  0.339950  0.101190  1
  Pd  Pd1215  1  0.365340  0.160050  0.398810  1
  Pd  Pd1216  1  0.865340  0.160050  0.898810  1
  C  C1217  1  0.768300  0.848700  0.321000  1
  C  C1218  1  0.268300  0.848700  0.821000  1
  C  C1219  1  0.768300  0.651300  0.679000  1
  C  C1220  1  0.268300  0.651300  0.179000  1
  C  C1221  1  0.231700  0.151300  0.679000  1
  C  C1222  1  0.731700  0.151300  0.179000  1
  C  C1223  1  0.231700  0.348700  0.321000  1
  C  C1224  1  0.731700  0.348700  0.821000  1
  C  C1225  1  0.798900  0.860300  0.348400  1
  C  C1226  1  0.298900  0.860300  0.848400  1
  C  C1227  1  0.798900  0.639700  0.651600  1
  C  C1228  1  0.298900  0.639700  0.151600  1
  C  C1229  1  0.201100  0.139700  0.651600  1
  C  C1230  1  0.701100  0.139700  0.151600  1
  C  C1231  1  0.201100  0.360300  0.348400  1
  C  C1232  1  0.701100  0.360300  0.848400  1
  C  C1233  1  0.818000  0.895400  0.359900  1
  C  C1234  1  0.318000  0.895400  0.859900  1
  C  C1235  1  0.818000  0.604600  0.640100  1
  C  C1236  1  0.318000  0.604600  0.140100  1
  C  C1237  1  0.182000  0.104600  0.640100  1
  C  C1238  1  0.682000  0.104600  0.140100  1
  C  C1239  1  0.182000  0.395400  0.359900  1
  C  C1240  1  0.682000  0.395400  0.859900  1
  C  C1241  1  0.845100  0.893800  0.386000  1
  C  C1242  1  0.345100  0.893800  0.886000  1
  C  C1243  1  0.845100  0.606200  0.614000  1
  C  C1244  1  0.345100  0.606200  0.114000  1
  C  C1245  1  0.154900  0.106200  0.614000  1
  C  C1246  1  0.654900  0.106200  0.114000  1
  C  C1247  1  0.154900  0.393800  0.386000  1
  C  C1248  1  0.654900  0.393800  0.886000  1
  C  C1249  1  0.842800  0.857800  0.390600  1
  C  C1250  1  0.342800  0.857800  0.890600  1
  C  C1251  1  0.842800  0.642200  0.609400  1
  C  C1252  1  0.342800  0.642200  0.109400  1
  C  C1253  1  0.157200  0.142200  0.609400  1
  C  C1254  1  0.657200  0.142200  0.109400  1
  C  C1255  1  0.157200  0.357800  0.390600  1
  C  C1256  1  0.657200  0.357800  0.890600  1
  C  C1257  1  0.814300  0.837000  0.367400  1
  C  C1258  1  0.314300  0.837000  0.867400  1
  C  C1259  1  0.814300  0.663000  0.632600  1
  C  C1260  1  0.314300  0.663000  0.132600  1
  C  C1261  1  0.185700  0.163000  0.632600  1
  C  C1262  1  0.685700  0.163000  0.132600  1
  C  C1263  1  0.185700  0.337000  0.367400  1
  C  C1264  1  0.685700  0.337000  0.867400  1
  C  C1265  1  0.871300  0.833500  0.315300  1
  C  C1266  1  0.371300  0.833500  0.815300  1
  C  C1267  1  0.871300  0.666500  0.684700  1
  C  C1268  1  0.371300  0.666500  0.184700  1
  C  C1269  1  0.128700  0.166500  0.684700  1
  C  C1270  1  0.628700  0.166500  0.184700  1
  C  C1271  1  0.128700  0.333500  0.315300  1
  C  C1272  1  0.628700  0.333500  0.815300  1
  C  C1273  1  0.919900  0.892200  0.344400  1
  C  C1274  1  0.419900  0.892200  0.844400  1
  C  C1275  1  0.919900  0.607800  0.655600  1
  C  C1276  1  0.419900  0.607800  0.155600  1
  C  C1277  1  0.080100  0.107800  0.655600  1
  C  C1278  1  0.580100  0.107800  0.155600  1
  C  C1279  1  0.080100  0.392200  0.344400  1
  C  C1280  1  0.580100  0.392200  0.844400  1
  C  C1281  1  0.920700  0.830700  0.366500  1
  C  C1282  1  0.420700  0.830700  0.866500  1
  C  C1283  1  0.920700  0.669300  0.633500  1
  C  C1284  1  0.420700  0.669300  0.133500  1
  C  C1285  1  0.079300  0.169300  0.633500  1
  C  C1286  1  0.579300  0.169300  0.133500  1
  C  C1287  1  0.079300  0.330700  0.366500  1
  C  C1288  1  0.579300  0.330700  0.866500  1
  C  C1289  1  0.737500  0.756300  0.261800  1
  C  C1290  1  0.237500  0.756300  0.761800  1
  C  C1291  1  0.737500  0.743700  0.738200  1
  C  C1292  1  0.237500  0.743700  0.238200  1
  C  C1293  1  0.262500  0.243700  0.738200  1
  C  C1294  1  0.762500  0.243700  0.238200  1
  C  C1295  1  0.262500  0.256300  0.261800  1
  C  C1296  1  0.762500  0.256300  0.761800  1
  C  C1297  1  0.783400  0.755000  0.275200  1
  C  C1298  1  0.283400  0.755000  0.775200  1
  C  C1299  1  0.783400  0.745000  0.724800  1
  C  C1300  1  0.283400  0.745000  0.224800  1
  C  C1301  1  0.216600  0.245000  0.724800  1
  C  C1302  1  0.716600  0.245000  0.224800  1
  C  C1303  1  0.216600  0.255000  0.275200  1
  C  C1304  1  0.716600  0.255000  0.775200  1
  C  C1305  1  0.784700  0.751200  0.304300  1
  C  C1306  1  0.284700  0.751200  0.804300  1
  C  C1307  1  0.784700  0.748800  0.695700  1
  C  C1308  1  0.284700  0.748800  0.195700  1
  C  C1309  1  0.215300  0.248800  0.695700  1
  C  C1310  1  0.715300  0.248800  0.195700  1
  C  C1311  1  0.215300  0.251200  0.304300  1
  C  C1312  1  0.715300  0.251200  0.804300  1
  C  C1313  1  0.740100  0.748300  0.318400  1
  C  C1314  1  0.240100  0.748300  0.818400  1
  C  C1315  1  0.740100  0.751700  0.681600  1
  C  C1316  1  0.240100  0.751700  0.181600  1
  C  C1317  1  0.259900  0.251700  0.681600  1
  C  C1318  1  0.759900  0.251700  0.181600  1
  C  C1319  1  0.259900  0.248300  0.318400  1
  C  C1320  1  0.759900  0.248300  0.818400  1
  C  C1321  1  0.696400  0.749500  0.302800  1
  C  C1322  1  0.196400  0.749500  0.802800  1
  C  C1323  1  0.696400  0.750500  0.697200  1
  C  C1324  1  0.196400  0.750500  0.197200  1
  C  C1325  1  0.303600  0.250500  0.697200  1
  C  C1326  1  0.803600  0.250500  0.197200  1
  C  C1327  1  0.303600  0.249500  0.302800  1
  C  C1328  1  0.803600  0.249500  0.802800  1
  C  C1329  1  0.051900  0.747800  0.301800  1
  C  C1330  1  0.551900  0.747800  0.801800  1
  C  C1331  1  0.051900  0.752200  0.698200  1
  C  C1332  1  0.551900  0.752200  0.198200  1
  C  C1333  1  0.948100  0.252200  0.698200  1
  C  C1334  1  0.448100  0.252200  0.198200  1
  C  C1335  1  0.948100  0.247800  0.301800  1
  C  C1336  1  0.448100  0.247800  0.801800  1
  C  C1337  1  0.008500  0.749000  0.317900  1
  C  C1338  1  0.508500  0.749000  0.817900  1
  C  C1339  1  0.008500  0.751000  0.682100  1
  C  C1340  1  0.508500  0.751000  0.182100  1
  C  C1341  1  0.991500  0.251000  0.682100  1
  C  C1342  1  0.491500  0.251000  0.182100  1
  C  C1343  1  0.991500  0.249000  0.317900  1
  C  C1344  1  0.491500  0.249000  0.817900  1
  C  C1345  1  0.963700  0.746100  0.303100  1
  C  C1346  1  0.463700  0.746100  0.803100  1
  C  C1347  1  0.963700  0.753900  0.696900  1
  C  C1348  1  0.463700  0.753900  0.196900  1
  C  C1349  1  0.036300  0.253900  0.696900  1
  C  C1350  1  0.536300  0.253900  0.196900  1
  C  C1351  1  0.036300  0.246100  0.303100  1
  C  C1352  1  0.536300  0.246100  0.803100  1
  C  C1353  1  0.964500  0.742300  0.272700  1
  C  C1354  1  0.464500  0.742300  0.772700  1
  C  C1355  1  0.964500  0.757700  0.727300  1
  C  C1356  1  0.464500  0.757700  0.227300  1
  C  C1357  1  0.035500  0.257700  0.727300  1
  C  C1358  1  0.535500  0.257700  0.227300  1
  C  C1359  1  0.035500  0.242300  0.272700  1
  C  C1360  1  0.535500  0.242300  0.772700  1
  C  C1361  1  0.010300  0.741100  0.258700  1
  C  C1362  1  0.510300  0.741100  0.758700  1
  C  C1363  1  0.010300  0.758900  0.741300  1
  C  C1364  1  0.510300  0.758900  0.241300  1
  C  C1365  1  0.989700  0.258900  0.741300  1
  C  C1366  1  0.489700  0.258900  0.241300  1
  C  C1367  1  0.989700  0.241100  0.258700  1
  C  C1368  1  0.489700  0.241100  0.758700  1
  C  C1369  1  0.833600  0.744900  0.438300  1
  C  C1370  1  0.333600  0.744900  0.938300  1
  C  C1371  1  0.833600  0.755100  0.561700  1
  C  C1372  1  0.333600  0.755100  0.061700  1
  C  C1373  1  0.166400  0.255100  0.561700  1
  C  C1374  1  0.666400  0.255100  0.061700  1
  C  C1375  1  0.166400  0.244900  0.438300  1
  C  C1376  1  0.666400  0.244900  0.938300  1
  C  C1377  1  0.831400  0.745000  0.408500  1
  C  C1378  1  0.331400  0.745000  0.908500  1
  C  C1379  1  0.831400  0.755000  0.591500  1
  C  C1380  1  0.331400  0.755000  0.091500  1
  C  C1381  1  0.168600  0.255000  0.591500  1
  C  C1382  1  0.668600  0.255000  0.091500  1
  C  C1383  1  0.168600  0.245000  0.408500  1
  C  C1384  1  0.668600  0.245000  0.908500  1
  C  C1385  1  0.874700  0.748600  0.393700  1
  C  C1386  1  0.374700  0.748600  0.893700  1
  C  C1387  1  0.874700  0.751400  0.606300  1
  C  C1388  1  0.374700  0.751400  0.106300  1
  C  C1389  1  0.125300  0.251400  0.606300  1
  C  C1390  1  0.625300  0.251400  0.106300  1
  C  C1391  1  0.125300  0.248600  0.393700  1
  C  C1392  1  0.625300  0.248600  0.893700  1
  C  C1393  1  0.918300  0.752200  0.409500  1
  C  C1394  1  0.418300  0.752200  0.909500  1
  C  C1395  1  0.918300  0.747800  0.590500  1
  C  C1396  1  0.418300  0.747800  0.090500  1
  C  C1397  1  0.081700  0.247800  0.590500  1
  C  C1398  1  0.581700  0.247800  0.090500  1
  C  C1399  1  0.081700  0.252200  0.409500  1
  C  C1400  1  0.581700  0.252200  0.909500  1
  C  C1401  1  0.916400  0.752300  0.439400  1
  C  C1402  1  0.416400  0.752300  0.939400  1
  C  C1403  1  0.916400  0.747700  0.560600  1
  C  C1404  1  0.416400  0.747700  0.060600  1
  C  C1405  1  0.083600  0.247700  0.560600  1
  C  C1406  1  0.583600  0.247700  0.060600  1
  C  C1407  1  0.083600  0.252300  0.439400  1
  C  C1408  1  0.583600  0.252300  0.939400  1
  C  C1409  1  0.832600  0.749600  0.319800  1
  C  C1410  1  0.332600  0.749600  0.819800  1
  C  C1411  1  0.832600  0.750400  0.680200  1
  C  C1412  1  0.332600  0.750400  0.180200  1
  C  C1413  1  0.167400  0.250400  0.680200  1
  C  C1414  1  0.667400  0.250400  0.180200  1
  C  C1415  1  0.167400  0.249600  0.319800  1
  C  C1416  1  0.667400  0.249600  0.819800  1
  C  C1417  1  0.916000  0.747700  0.319400  1
  C  C1418  1  0.416000  0.747700  0.819400  1
  C  C1419  1  0.916000  0.752300  0.680600  1
  C  C1420  1  0.416000  0.752300  0.180600  1
  C  C1421  1  0.084000  0.252300  0.680600  1
  C  C1422  1  0.584000  0.252300  0.180600  1
  C  C1423  1  0.084000  0.247700  0.319400  1
  C  C1424  1  0.584000  0.247700  0.819400  1
  C  C1425  1  0.874500  0.748600  0.361700  1
  C  C1426  1  0.374500  0.748600  0.861700  1
  C  C1427  1  0.874500  0.751400  0.638300  1
  C  C1428  1  0.374500  0.751400  0.138300  1
  C  C1429  1  0.125500  0.251400  0.638300  1
  C  C1430  1  0.625500  0.251400  0.138300  1
  C  C1431  1  0.125500  0.248600  0.361700  1
  C  C1432  1  0.625500  0.248600  0.861700  1
  C  C1433  1  0.943000  0.931300  0.472200  1
  C  C1434  1  0.443000  0.931300  0.972200  1
  C  C1435  1  0.943000  0.568700  0.527800  1
  C  C1436  1  0.443000  0.568700  0.027800  1
  C  C1437  1  0.057000  0.068700  0.527800  1
  C  C1438  1  0.557000  0.068700  0.027800  1
  C  C1439  1  0.057000  0.431300  0.472200  1
  C  C1440  1  0.557000  0.431300  0.972200  1
  C  C1441  1  0.973600  0.913400  0.450900  1
  C  C1442  1  0.473600  0.913400  0.950900  1
  C  C1443  1  0.973600  0.586600  0.549100  1
  C  C1444  1  0.473600  0.586600  0.049100  1
  C  C1445  1  0.026400  0.086600  0.549100  1
  C  C1446  1  0.526400  0.086600  0.049100  1
  C  C1447  1  0.026400  0.413400  0.450900  1
  C  C1448  1  0.526400  0.413400  0.950900  1
  C  C1449  1  0.990600  0.879300  0.452000  1
  C  C1450  1  0.490600  0.879300  0.952000  1
  C  C1451  1  0.990600  0.620700  0.548000  1
  C  C1452  1  0.490600  0.620700  0.048000  1
  C  C1453  1  0.009400  0.120700  0.548000  1
  C  C1454  1  0.509400  0.120700  0.048000  1
  C  C1455  1  0.009400  0.379300  0.452000  1
  C  C1456  1  0.509400  0.379300  0.952000  1
  C  C1457  1  0.975800  0.865000  0.475900  1
  C  C1458  1  0.475800  0.865000  0.975900  1
  C  C1459  1  0.975800  0.635000  0.524100  1
  C  C1460  1  0.475800  0.635000  0.024100  1
  C  C1461  1  0.024200  0.135000  0.524100  1
  C  C1462  1  0.524200  0.135000  0.024100  1
  C  C1463  1  0.024200  0.365000  0.475900  1
  C  C1464  1  0.524200  0.365000  0.975900  1
  C  C1465  1  0.945700  0.885100  0.496800  1
  C  C1466  1  0.445700  0.885100  0.996800  1
  C  C1467  1  0.945700  0.614900  0.503200  1
  C  C1468  1  0.445700  0.614900  0.003200  1
  C  C1469  1  0.054300  0.114900  0.503200  1
  C  C1470  1  0.554300  0.114900  0.003200  1
  C  C1471  1  0.054300  0.385100  0.496800  1
  C  C1472  1  0.554300  0.385100  0.996800  1
  C  C1473  1  0.124800  0.882400  0.319700  1
  C  C1474  1  0.624800  0.882400  0.819700  1
  C  C1475  1  0.124800  0.617600  0.680300  1
  C  C1476  1  0.624800  0.617600  0.180300  1
  C  C1477  1  0.875200  0.117600  0.680300  1
  C  C1478  1  0.375200  0.117600  0.180300  1
  C  C1479  1  0.875200  0.382400  0.319700  1
  C  C1480  1  0.375200  0.382400  0.819700  1
  C  C1481  1  0.112500  0.862600  0.340700  1
  C  C1482  1  0.612500  0.862600  0.840700  1
  C  C1483  1  0.112500  0.637400  0.659300  1
  C  C1484  1  0.612500  0.637400  0.159300  1
  C  C1485  1  0.887500  0.137400  0.659300  1
  C  C1486  1  0.387500  0.137400  0.159300  1
  C  C1487  1  0.887500  0.362600  0.340700  1
  C  C1488  1  0.387500  0.362600  0.840700  1
  C  C1489  1  0.080300  0.878800  0.363500  1
  C  C1490  1  0.580300  0.878800  0.863500  1
  C  C1491  1  0.080300  0.621200  0.636500  1
  C  C1492  1  0.580300  0.621200  0.136500  1
  C  C1493  1  0.919700  0.121200  0.636500  1
  C  C1494  1  0.419700  0.121200  0.136500  1
  C  C1495  1  0.919700  0.378800  0.363500  1
  C  C1496  1  0.419700  0.378800  0.863500  1
  C  C1497  1  0.063300  0.913400  0.363400  1
  C  C1498  1  0.563300  0.913400  0.863400  1
  C  C1499  1  0.063300  0.586600  0.636600  1
  C  C1500  1  0.563300  0.586600  0.136600  1
  C  C1501  1  0.936700  0.086600  0.636600  1
  C  C1502  1  0.436700  0.086600  0.136600  1
  C  C1503  1  0.936700  0.413400  0.363400  1
  C  C1504  1  0.436700  0.413400  0.863400  1
  C  C1505  1  0.077100  0.930800  0.341500  1
  C  C1506  1  0.577100  0.930800  0.841500  1
  C  C1507  1  0.077100  0.569200  0.658500  1
  C  C1508  1  0.577100  0.569200  0.158500  1
  C  C1509  1  0.922900  0.069200  0.658500  1
  C  C1510  1  0.422900  0.069200  0.158500  1
  C  C1511  1  0.922900  0.430800  0.341500  1
  C  C1512  1  0.422900  0.430800  0.841500  1
  C  C1513  1  0.079800  0.718300  0.426300  1
  C  C1514  1  0.579800  0.718300  0.926300  1
  C  C1515  1  0.079800  0.781700  0.573700  1
  C  C1516  1  0.579800  0.781700  0.073700  1
  C  C1517  1  0.920200  0.281700  0.573700  1
  C  C1518  1  0.420200  0.281700  0.073700  1
  C  C1519  1  0.920200  0.218300  0.426300  1
  C  C1520  1  0.420200  0.218300  0.926300  1
  C  C1521  1  0.066100  0.752700  0.427700  1
  C  C1522  1  0.566100  0.752700  0.927700  1
  C  C1523  1  0.066100  0.747300  0.572300  1
  C  C1524  1  0.566100  0.747300  0.072300  1
  C  C1525  1  0.933900  0.247300  0.572300  1
  C  C1526  1  0.433900  0.247300  0.072300  1
  C  C1527  1  0.933900  0.252700  0.427700  1
  C  C1528  1  0.433900  0.252700  0.927700  1
  C  C1529  1  0.080400  0.772500  0.406300  1
  C  C1530  1  0.580400  0.772500  0.906300  1
  C  C1531  1  0.080400  0.727500  0.593700  1
  C  C1532  1  0.580400  0.727500  0.093700  1
  C  C1533  1  0.919600  0.227500  0.593700  1
  C  C1534  1  0.419600  0.227500  0.093700  1
  C  C1535  1  0.919600  0.272500  0.406300  1
  C  C1536  1  0.419600  0.272500  0.906300  1
  C  C1537  1  0.110000  0.754800  0.383700  1
  C  C1538  1  0.610000  0.754800  0.883700  1
  C  C1539  1  0.110000  0.745200  0.616300  1
  C  C1540  1  0.610000  0.745200  0.116300  1
  C  C1541  1  0.890000  0.245200  0.616300  1
  C  C1542  1  0.390000  0.245200  0.116300  1
  C  C1543  1  0.890000  0.254800  0.383700  1
  C  C1544  1  0.390000  0.254800  0.883700  1
  C  C1545  1  0.122600  0.718200  0.383500  1
  C  C1546  1  0.622600  0.718200  0.883500  1
  C  C1547  1  0.122600  0.781800  0.616500  1
  C  C1548  1  0.622600  0.781800  0.116500  1
  C  C1549  1  0.877400  0.281800  0.616500  1
  C  C1550  1  0.377400  0.281800  0.116500  1
  C  C1551  1  0.877400  0.218200  0.383500  1
  C  C1552  1  0.377400  0.218200  0.883500  1
  C  C1553  1  0.808200  0.890800  0.499200  1
  C  C1554  1  0.308200  0.890800  0.999200  1
  C  C1555  1  0.808200  0.609200  0.500800  1
  C  C1556  1  0.308200  0.609200  0.000800  1
  C  C1557  1  0.191800  0.109200  0.500800  1
  C  C1558  1  0.691800  0.109200  0.000800  1
  C  C1559  1  0.191800  0.390800  0.499200  1
  C  C1560  1  0.691800  0.390800  0.999200  1
  C  C1561  1  0.778200  0.873300  0.477800  1
  C  C1562  1  0.278200  0.873300  0.977800  1
  C  C1563  1  0.778200  0.626700  0.522200  1
  C  C1564  1  0.278200  0.626700  0.022200  1
  C  C1565  1  0.221800  0.126700  0.522200  1
  C  C1566  1  0.721800  0.126700  0.022200  1
  C  C1567  1  0.221800  0.373300  0.477800  1
  C  C1568  1  0.721800  0.373300  0.977800  1
  C  C1569  1  0.762000  0.891300  0.455200  1
  C  C1570  1  0.262000  0.891300  0.955200  1
  C  C1571  1  0.762000  0.608700  0.544800  1
  C  C1572  1  0.262000  0.608700  0.044800  1
  C  C1573  1  0.238000  0.108700  0.544800  1
  C  C1574  1  0.738000  0.108700  0.044800  1
  C  C1575  1  0.238000  0.391300  0.455200  1
  C  C1576  1  0.738000  0.391300  0.955200  1
  C  C1577  1  0.781200  0.924500  0.454000  1
  C  C1578  1  0.281200  0.924500  0.954000  1
  C  C1579  1  0.781200  0.575500  0.546000  1
  C  C1580  1  0.281200  0.575500  0.046000  1
  C  C1581  1  0.218800  0.075500  0.546000  1
  C  C1582  1  0.718800  0.075500  0.046000  1
  C  C1583  1  0.218800  0.424500  0.454000  1
  C  C1584  1  0.718800  0.424500  0.954000  1
  C  C1585  1  0.814200  0.940400  0.476000  1
  C  C1586  1  0.314200  0.940400  0.976000  1
  C  C1587  1  0.814200  0.559600  0.524000  1
  C  C1588  1  0.314200  0.559600  0.024000  1
  C  C1589  1  0.185800  0.059600  0.524000  1
  C  C1590  1  0.685800  0.059600  0.024000  1
  C  C1591  1  0.185800  0.440400  0.476000  1
  C  C1592  1  0.685800  0.440400  0.976000  1
  C  C1593  1  0.628900  0.731600  0.383800  1
  C  C1594  1  0.128900  0.731600  0.883800  1
  C  C1595  1  0.628900  0.768400  0.616200  1
  C  C1596  1  0.128900  0.768400  0.116200  1
  C  C1597  1  0.371100  0.268400  0.616200  1
  C  C1598  1  0.871100  0.268400  0.116200  1
  C  C1599  1  0.371100  0.231600  0.383800  1
  C  C1600  1  0.871100  0.231600  0.883800  1
  C  C1601  1  0.641300  0.767800  0.385300  1
  C  C1602  1  0.141300  0.767800  0.885300  1
  C  C1603  1  0.641300  0.732200  0.614700  1
  C  C1604  1  0.141300  0.732200  0.114700  1
  C  C1605  1  0.358700  0.232200  0.614700  1
  C  C1606  1  0.858700  0.232200  0.114700  1
  C  C1607  1  0.358700  0.267800  0.385300  1
  C  C1608  1  0.858700  0.267800  0.885300  1
  C  C1609  1  0.670100  0.785200  0.407800  1
  C  C1610  1  0.170100  0.785200  0.907800  1
  C  C1611  1  0.670100  0.714800  0.592200  1
  C  C1612  1  0.170100  0.714800  0.092200  1
  C  C1613  1  0.329900  0.214800  0.592200  1
  C  C1614  1  0.829900  0.214800  0.092200  1
  C  C1615  1  0.329900  0.285200  0.407800  1
  C  C1616  1  0.829900  0.285200  0.907800  1
  C  C1617  1  0.684800  0.767700  0.429800  1
  C  C1618  1  0.184800  0.767700  0.929800  1
  C  C1619  1  0.684800  0.732300  0.570200  1
  C  C1620  1  0.184800  0.732300  0.070200  1
  C  C1621  1  0.315200  0.232300  0.570200  1
  C  C1622  1  0.815200  0.232300  0.070200  1
  C  C1623  1  0.315200  0.267700  0.429800  1
  C  C1624  1  0.815200  0.267700  0.929800  1
  C  C1625  1  0.669600  0.732400  0.427400  1
  C  C1626  1  0.169600  0.732400  0.927400  1
  C  C1627  1  0.669600  0.767600  0.572600  1
  C  C1628  1  0.169600  0.767600  0.072600  1
  C  C1629  1  0.330400  0.267600  0.572600  1
  C  C1630  1  0.830400  0.267600  0.072600  1
  C  C1631  1  0.330400  0.232400  0.427400  1
  C  C1632  1  0.830400  0.232400  0.927400  1
  C  C1633  1  0.675600  0.943700  0.342900  1
  C  C1634  1  0.175600  0.943700  0.842900  1
  C  C1635  1  0.675600  0.556300  0.657100  1
  C  C1636  1  0.175600  0.556300  0.157100  1
  C  C1637  1  0.324400  0.056300  0.657100  1
  C  C1638  1  0.824400  0.056300  0.157100  1
  C  C1639  1  0.324400  0.443700  0.342900  1
  C  C1640  1  0.824400  0.443700  0.842900  1
  C  C1641  1  0.689500  0.927600  0.366400  1
  C  C1642  1  0.189500  0.927600  0.866400  1
  C  C1643  1  0.689500  0.572400  0.633600  1
  C  C1644  1  0.189500  0.572400  0.133600  1
  C  C1645  1  0.310500  0.072400  0.633600  1
  C  C1646  1  0.810500  0.072400  0.133600  1
  C  C1647  1  0.310500  0.427600  0.366400  1
  C  C1648  1  0.810500  0.427600  0.866400  1
  C  C1649  1  0.672100  0.891100  0.365300  1
  C  C1650  1  0.172100  0.891100  0.865300  1
  C  C1651  1  0.672100  0.608900  0.634700  1
  C  C1652  1  0.172100  0.608900  0.134700  1
  C  C1653  1  0.327900  0.108900  0.634700  1
  C  C1654  1  0.827900  0.108900  0.134700  1
  C  C1655  1  0.327900  0.391100  0.365300  1
  C  C1656  1  0.827900  0.391100  0.865300  1
  C  C1657  1  0.641400  0.876000  0.343900  1
  C  C1658  1  0.141400  0.876000  0.843900  1
  C  C1659  1  0.641400  0.624000  0.656100  1
  C  C1660  1  0.141400  0.624000  0.156100  1
  C  C1661  1  0.358600  0.124000  0.656100  1
  C  C1662  1  0.858600  0.124000  0.156100  1
  C  C1663  1  0.358600  0.376000  0.343900  1
  C  C1664  1  0.858600  0.376000  0.843900  1
  C  C1665  1  0.629100  0.893300  0.321700  1
  C  C1666  1  0.129100  0.893300  0.821700  1
  C  C1667  1  0.629100  0.606700  0.678300  1
  C  C1668  1  0.129100  0.606700  0.178300  1
  C  C1669  1  0.370900  0.106700  0.678300  1
  C  C1670  1  0.870900  0.106700  0.178300  1
  C  C1671  1  0.370900  0.393300  0.321700  1
  C  C1672  1  0.870900  0.393300  0.821700  1
  C  C1673  1  0.011800  0.933500  0.278400  1
  C  C1674  1  0.511800  0.933500  0.778400  1
  C  C1675  1  0.011800  0.566500  0.721600  1
  C  C1676  1  0.511800  0.566500  0.221600  1
  C  C1677  1  0.988200  0.066500  0.721600  1
  C  C1678  1  0.488200  0.066500  0.221600  1
  C  C1679  1  0.988200  0.433500  0.278400  1
  C  C1680  1  0.488200  0.433500  0.778400  1
  C  C1681  1  0.965900  0.917900  0.269900  1
  C  C1682  1  0.465900  0.917900  0.769900  1
  C  C1683  1  0.965900  0.582100  0.730100  1
  C  C1684  1  0.465900  0.582100  0.230100  1
  C  C1685  1  0.034100  0.082100  0.730100  1
  C  C1686  1  0.534100  0.082100  0.230100  1
  C  C1687  1  0.034100  0.417900  0.269900  1
  C  C1688  1  0.534100  0.417900  0.769900  1
  C  C1689  1  0.965200  0.884200  0.251200  1
  C  C1690  1  0.465200  0.884200  0.751200  1
  C  C1691  1  0.965200  0.615800  0.748800  1
  C  C1692  1  0.465200  0.615800  0.248800  1
  C  C1693  1  0.034800  0.115800  0.748800  1
  C  C1694  1  0.534800  0.115800  0.248800  1
  C  C1695  1  0.034800  0.384200  0.251200  1
  C  C1696  1  0.534800  0.384200  0.751200  1
  C  C1697  1  0.010800  0.868300  0.241900  1
  C  C1698  1  0.510800  0.868300  0.741900  1
  C  C1699  1  0.010800  0.631700  0.758100  1
  C  C1700  1  0.510800  0.631700  0.258100  1
  C  C1701  1  0.989200  0.131700  0.758100  1
  C  C1702  1  0.489200  0.131700  0.258100  1
  C  C1703  1  0.989200  0.368300  0.241900  1
  C  C1704  1  0.489200  0.368300  0.741900  1
  C  C1705  1  0.054300  0.885900  0.251800  1
  C  C1706  1  0.554300  0.885900  0.751800  1
  C  C1707  1  0.054300  0.614100  0.748200  1
  C  C1708  1  0.554300  0.614100  0.248200  1
  C  C1709  1  0.945700  0.114100  0.748200  1
  C  C1710  1  0.445700  0.114100  0.248200  1
  C  C1711  1  0.945700  0.385900  0.251800  1
  C  C1712  1  0.445700  0.385900  0.751800  1
  C  C1713  1  0.701500  0.890600  0.251800  1
  C  C1714  1  0.201500  0.890600  0.751800  1
  C  C1715  1  0.701500  0.609400  0.748200  1
  C  C1716  1  0.201500  0.609400  0.248200  1
  C  C1717  1  0.298500  0.109400  0.748200  1
  C  C1718  1  0.798500  0.109400  0.248200  1
  C  C1719  1  0.298500  0.390600  0.251800  1
  C  C1720  1  0.798500  0.390600  0.751800  1
  C  C1721  1  0.743200  0.871600  0.242500  1
  C  C1722  1  0.243200  0.871600  0.742500  1
  C  C1723  1  0.743200  0.628400  0.757500  1
  C  C1724  1  0.243200  0.628400  0.257500  1
  C  C1725  1  0.256800  0.128400  0.757500  1
  C  C1726  1  0.756800  0.128400  0.257500  1
  C  C1727  1  0.256800  0.371600  0.242500  1
  C  C1728  1  0.756800  0.371600  0.742500  1
  C  C1729  1  0.788300  0.886300  0.252400  1
  C  C1730  1  0.288300  0.886300  0.752400  1
  C  C1731  1  0.788300  0.613700  0.747600  1
  C  C1732  1  0.288300  0.613700  0.247600  1
  C  C1733  1  0.211700  0.113700  0.747600  1
  C  C1734  1  0.711700  0.113700  0.247600  1
  C  C1735  1  0.211700  0.386300  0.252400  1
  C  C1736  1  0.711700  0.386300  0.752400  1
  C  C1737  1  0.789300  0.919400  0.270900  1
  C  C1738  1  0.289300  0.919400  0.770900  1
  C  C1739  1  0.789300  0.580600  0.729100  1
  C  C1740  1  0.289300  0.580600  0.229100  1
  C  C1741  1  0.210700  0.080600  0.729100  1
  C  C1742  1  0.710700  0.080600  0.229100  1
  C  C1743  1  0.210700  0.419400  0.270900  1
  C  C1744  1  0.710700  0.419400  0.770900  1
  C  C1745  1  0.746000  0.936900  0.278900  1
  C  C1746  1  0.246000  0.936900  0.778900  1
  C  C1747  1  0.746000  0.563100  0.721100  1
  C  C1748  1  0.246000  0.563100  0.221100  1
  C  C1749  1  0.254000  0.063100  0.721100  1
  C  C1750  1  0.754000  0.063100  0.221100  1
  C  C1751  1  0.254000  0.436900  0.278900  1
  C  C1752  1  0.754000  0.436900  0.778900  1
  C  C1753  1  0.916800  0.728400  0.176400  1
  C  C1754  1  0.416800  0.728400  0.676400  1
  C  C1755  1  0.916800  0.771600  0.823600  1
  C  C1756  1  0.416800  0.771600  0.323600  1
  C  C1757  1  0.083200  0.271600  0.823600  1
  C  C1758  1  0.583200  0.271600  0.323600  1
  C  C1759  1  0.083200  0.228400  0.176400  1
  C  C1760  1  0.583200  0.228400  0.676400  1
  C  C1761  1  0.918300  0.762700  0.191300  1
  C  C1762  1  0.418300  0.762700  0.691300  1
  C  C1763  1  0.918300  0.737300  0.808700  1
  C  C1764  1  0.418300  0.737300  0.308700  1
  C  C1765  1  0.081700  0.237300  0.808700  1
  C  C1766  1  0.581700  0.237300  0.308700  1
  C  C1767  1  0.081700  0.262700  0.191300  1
  C  C1768  1  0.581700  0.262700  0.691300  1
  C  C1769  1  0.875500  0.781400  0.200400  1
  C  C1770  1  0.375500  0.781400  0.700400  1
  C  C1771  1  0.875500  0.718600  0.799600  1
  C  C1772  1  0.375500  0.718600  0.299600  1
  C  C1773  1  0.124500  0.218600  0.799600  1
  C  C1774  1  0.624500  0.218600  0.299600  1
  C  C1775  1  0.124500  0.281400  0.200400  1
  C  C1776  1  0.624500  0.281400  0.700400  1
  C  C1777  1  0.832600  0.763700  0.192700  1
  C  C1778  1  0.332600  0.763700  0.692700  1
  C  C1779  1  0.832600  0.736300  0.807300  1
  C  C1780  1  0.332600  0.736300  0.307300  1
  C  C1781  1  0.167400  0.236300  0.807300  1
  C  C1782  1  0.667400  0.236300  0.307300  1
  C  C1783  1  0.167400  0.263700  0.192700  1
  C  C1784  1  0.667400  0.263700  0.692700  1
  C  C1785  1  0.832000  0.728400  0.176900  1
  C  C1786  1  0.332000  0.728400  0.676900  1
  C  C1787  1  0.832000  0.771600  0.823100  1
  C  C1788  1  0.332000  0.771600  0.323100  1
  C  C1789  1  0.168000  0.271600  0.823100  1
  C  C1790  1  0.668000  0.271600  0.323100  1
  C  C1791  1  0.168000  0.228400  0.176900  1
  C  C1792  1  0.668000  0.228400  0.676900  1
  C  C1793  1  0.052200  0.645900  0.346900  1
  C  C1794  1  0.552200  0.645900  0.846900  1
  C  C1795  1  0.052200  0.854100  0.653100  1
  C  C1796  1  0.552200  0.854100  0.153100  1
  C  C1797  1  0.947800  0.354100  0.653100  1
  C  C1798  1  0.447800  0.354100  0.153100  1
  C  C1799  1  0.947800  0.145900  0.346900  1
  C  C1800  1  0.447800  0.145900  0.846900  1
  C  C1801  1  0.010500  0.649200  0.331500  1
  C  C1802  1  0.510500  0.649200  0.831500  1
  C  C1803  1  0.010500  0.850800  0.668500  1
  C  C1804  1  0.510500  0.850800  0.168500  1
  C  C1805  1  0.989500  0.350800  0.668500  1
  C  C1806  1  0.489500  0.350800  0.168500  1
  C  C1807  1  0.989500  0.149200  0.331500  1
  C  C1808  1  0.489500  0.149200  0.831500  1
  C  C1809  1  0.964300  0.649900  0.346100  1
  C  C1810  1  0.464300  0.649900  0.846100  1
  C  C1811  1  0.964300  0.850100  0.653900  1
  C  C1812  1  0.464300  0.850100  0.153900  1
  C  C1813  1  0.035700  0.350100  0.653900  1
  C  C1814  1  0.535700  0.350100  0.153900  1
  C  C1815  1  0.035700  0.149900  0.346100  1
  C  C1816  1  0.535700  0.149900  0.846100  1
  C  C1817  1  0.964500  0.648800  0.376200  1
  C  C1818  1  0.464500  0.648800  0.876200  1
  C  C1819  1  0.964500  0.851200  0.623800  1
  C  C1820  1  0.464500  0.851200  0.123800  1
  C  C1821  1  0.035500  0.351200  0.623800  1
  C  C1822  1  0.535500  0.351200  0.123800  1
  C  C1823  1  0.035500  0.148800  0.376200  1
  C  C1824  1  0.535500  0.148800  0.876200  1
  C  C1825  1  0.008600  0.645200  0.389300  1
  C  C1826  1  0.508600  0.645200  0.889300  1
  C  C1827  1  0.008600  0.854800  0.610700  1
  C  C1828  1  0.508600  0.854800  0.110700  1
  C  C1829  1  0.991400  0.354800  0.610700  1
  C  C1830  1  0.491400  0.354800  0.110700  1
  C  C1831  1  0.991400  0.145200  0.389300  1
  C  C1832  1  0.491400  0.145200  0.889300  1
  C  C1833  1  0.833400  0.655200  0.212800  1
  C  C1834  1  0.333400  0.655200  0.712800  1
  C  C1835  1  0.833400  0.844800  0.787200  1
  C  C1836  1  0.333400  0.844800  0.287200  1
  C  C1837  1  0.166600  0.344800  0.787200  1
  C  C1838  1  0.666600  0.344800  0.287200  1
  C  C1839  1  0.166600  0.155200  0.212800  1
  C  C1840  1  0.666600  0.155200  0.712800  1
  C  C1841  1  0.831200  0.656000  0.241600  1
  C  C1842  1  0.331200  0.656000  0.741600  1
  C  C1843  1  0.831200  0.844000  0.758400  1
  C  C1844  1  0.331200  0.844000  0.258400  1
  C  C1845  1  0.168800  0.344000  0.758400  1
  C  C1846  1  0.668800  0.344000  0.258400  1
  C  C1847  1  0.168800  0.156000  0.241600  1
  C  C1848  1  0.668800  0.156000  0.741600  1
  C  C1849  1  0.876000  0.657000  0.256700  1
  C  C1850  1  0.376000  0.657000  0.756700  1
  C  C1851  1  0.876000  0.843000  0.743300  1
  C  C1852  1  0.376000  0.843000  0.243300  1
  C  C1853  1  0.124000  0.343000  0.743300  1
  C  C1854  1  0.624000  0.343000  0.243300  1
  C  C1855  1  0.124000  0.157000  0.256700  1
  C  C1856  1  0.624000  0.157000  0.756700  1
  C  C1857  1  0.920400  0.656700  0.241200  1
  C  C1858  1  0.420400  0.656700  0.741200  1
  C  C1859  1  0.920400  0.843300  0.758800  1
  C  C1860  1  0.420400  0.843300  0.258800  1
  C  C1861  1  0.079600  0.343300  0.758800  1
  C  C1862  1  0.579600  0.343300  0.258800  1
  C  C1863  1  0.079600  0.156700  0.241200  1
  C  C1864  1  0.579600  0.156700  0.741200  1
  C  C1865  1  0.917900  0.654900  0.211700  1
  C  C1866  1  0.417900  0.654900  0.711700  1
  C  C1867  1  0.917900  0.845100  0.788300  1
  C  C1868  1  0.417900  0.845100  0.288300  1
  C  C1869  1  0.082100  0.345100  0.788300  1
  C  C1870  1  0.582100  0.345100  0.288300  1
  C  C1871  1  0.082100  0.154900  0.211700  1
  C  C1872  1  0.582100  0.154900  0.711700  1
  C  C1873  1  0.742400  0.658400  0.390500  1
  C  C1874  1  0.242400  0.658400  0.890500  1
  C  C1875  1  0.742400  0.841600  0.609500  1
  C  C1876  1  0.242400  0.841600  0.109500  1
  C  C1877  1  0.257600  0.341600  0.609500  1
  C  C1878  1  0.757600  0.341600  0.109500  1
  C  C1879  1  0.257600  0.158400  0.390500  1
  C  C1880  1  0.757600  0.158400  0.890500  1
  C  C1881  1  0.786200  0.659400  0.377800  1
  C  C1882  1  0.286200  0.659400  0.877800  1
  C  C1883  1  0.786200  0.840600  0.622200  1
  C  C1884  1  0.286200  0.840600  0.122200  1
  C  C1885  1  0.213800  0.340600  0.622200  1
  C  C1886  1  0.713800  0.340600  0.122200  1
  C  C1887  1  0.213800  0.159400  0.377800  1
  C  C1888  1  0.713800  0.159400  0.877800  1
  C  C1889  1  0.785900  0.659500  0.347100  1
  C  C1890  1  0.285900  0.659500  0.847100  1
  C  C1891  1  0.785900  0.840500  0.652900  1
  C  C1892  1  0.285900  0.840500  0.152900  1
  C  C1893  1  0.214100  0.340500  0.652900  1
  C  C1894  1  0.714100  0.340500  0.152900  1
  C  C1895  1  0.214100  0.159500  0.347100  1
  C  C1896  1  0.714100  0.159500  0.847100  1
  C  C1897  1  0.742100  0.659200  0.332800  1
  C  C1898  1  0.242100  0.659200  0.832800  1
  C  C1899  1  0.742100  0.840800  0.667200  1
  C  C1900  1  0.242100  0.840800  0.167200  1
  C  C1901  1  0.257900  0.340800  0.667200  1
  C  C1902  1  0.757900  0.340800  0.167200  1
  C  C1903  1  0.257900  0.159200  0.332800  1
  C  C1904  1  0.757900  0.159200  0.832800  1
  C  C1905  1  0.699700  0.657300  0.348000  1
  C  C1906  1  0.199700  0.657300  0.848000  1
  C  C1907  1  0.699700  0.842700  0.652000  1
  C  C1908  1  0.199700  0.842700  0.152000  1
  C  C1909  1  0.300300  0.342700  0.652000  1
  C  C1910  1  0.800300  0.342700  0.152000  1
  C  C1911  1  0.300300  0.157300  0.348000  1
  C  C1912  1  0.800300  0.157300  0.848000  1
  C  C1913  1  0.023100  0.860300  0.428700  1
  C  C1914  1  0.523100  0.860300  0.928700  1
  C  C1915  1  0.023100  0.639700  0.571300  1
  C  C1916  1  0.523100  0.639700  0.071300  1
  C  C1917  1  0.976900  0.139700  0.571300  1
  C  C1918  1  0.476900  0.139700  0.071300  1
  C  C1919  1  0.976900  0.360300  0.428700  1
  C  C1920  1  0.476900  0.360300  0.928700  1
  C  C1921  1  0.064800  0.859100  0.386400  1
  C  C1922  1  0.564800  0.859100  0.886400  1
  C  C1923  1  0.064800  0.640900  0.613600  1
  C  C1924  1  0.564800  0.640900  0.113600  1
  C  C1925  1  0.935200  0.140900  0.613600  1
  C  C1926  1  0.435200  0.140900  0.113600  1
  C  C1927  1  0.935200  0.359100  0.386400  1
  C  C1928  1  0.435200  0.359100  0.886400  1
  C  C1929  1  0.065300  0.810500  0.407000  1
  C  C1930  1  0.565300  0.810500  0.907000  1
  C  C1931  1  0.065300  0.689500  0.593000  1
  C  C1932  1  0.565300  0.689500  0.093000  1
  C  C1933  1  0.934700  0.189500  0.593000  1
  C  C1934  1  0.434700  0.189500  0.093000  1
  C  C1935  1  0.934700  0.310500  0.407000  1
  C  C1936  1  0.434700  0.310500  0.907000  1
  C  C1937  1  0.728700  0.872900  0.430200  1
  C  C1938  1  0.228700  0.872900  0.930200  1
  C  C1939  1  0.728700  0.627100  0.569800  1
  C  C1940  1  0.228700  0.627100  0.069800  1
  C  C1941  1  0.271300  0.127100  0.569800  1
  C  C1942  1  0.771300  0.127100  0.069800  1
  C  C1943  1  0.271300  0.372900  0.430200  1
  C  C1944  1  0.771300  0.372900  0.930200  1
  C  C1945  1  0.686500  0.823500  0.408600  1
  C  C1946  1  0.186500  0.823500  0.908600  1
  C  C1947  1  0.686500  0.676500  0.591400  1
  C  C1948  1  0.186500  0.676500  0.091400  1
  C  C1949  1  0.313500  0.176500  0.591400  1
  C  C1950  1  0.813500  0.176500  0.091400  1
  C  C1951  1  0.313500  0.323500  0.408600  1
  C  C1952  1  0.813500  0.323500  0.908600  1
  C  C1953  1  0.688300  0.873100  0.390000  1
  C  C1954  1  0.188300  0.873100  0.890000  1
  C  C1955  1  0.688300  0.626900  0.610000  1
  C  C1956  1  0.188300  0.626900  0.110000  1
  C  C1957  1  0.311700  0.126900  0.610000  1
  C  C1958  1  0.811700  0.126900  0.110000  1
  C  C1959  1  0.311700  0.373100  0.390000  1
  C  C1960  1  0.811700  0.373100  0.890000  1
  C  C1961  1  0.918100  0.866200  0.242500  1
  C  C1962  1  0.418100  0.866200  0.742500  1
  C  C1963  1  0.918100  0.633800  0.757500  1
  C  C1964  1  0.418100  0.633800  0.257500  1
  C  C1965  1  0.081900  0.133800  0.757500  1
  C  C1966  1  0.581900  0.133800  0.257500  1
  C  C1967  1  0.081900  0.366200  0.242500  1
  C  C1968  1  0.581900  0.366200  0.742500  1
  C  C1969  1  0.835200  0.867400  0.242300  1
  C  C1970  1  0.335200  0.867400  0.742300  1
  C  C1971  1  0.835200  0.632600  0.757700  1
  C  C1972  1  0.335200  0.632600  0.257700  1
  C  C1973  1  0.164800  0.132600  0.757700  1
  C  C1974  1  0.664800  0.132600  0.257700  1
  C  C1975  1  0.164800  0.367400  0.242300  1
  C  C1976  1  0.664800  0.367400  0.742300  1
  C  C1977  1  0.876100  0.818200  0.218700  1
  C  C1978  1  0.376100  0.818200  0.718700  1
  C  C1979  1  0.876100  0.681800  0.781300  1
  C  C1980  1  0.376100  0.681800  0.281300  1
  C  C1981  1  0.123900  0.181800  0.781300  1
  C  C1982  1  0.623900  0.181800  0.281300  1
  C  C1983  1  0.123900  0.318200  0.218700  1
  C  C1984  1  0.623900  0.318200  0.718700  1
  C  C1985  1  0.917500  0.653800  0.330400  1
  C  C1986  1  0.417500  0.653800  0.830400  1
  C  C1987  1  0.917500  0.846200  0.669600  1
  C  C1988  1  0.417500  0.846200  0.169600  1
  C  C1989  1  0.082500  0.346200  0.669600  1
  C  C1990  1  0.582500  0.346200  0.169600  1
  C  C1991  1  0.082500  0.153800  0.330400  1
  C  C1992  1  0.582500  0.153800  0.830400  1
  C  C1993  1  0.876600  0.656900  0.289000  1
  C  C1994  1  0.376600  0.656900  0.789000  1
  C  C1995  1  0.876600  0.843100  0.711000  1
  C  C1996  1  0.376600  0.843100  0.211000  1
  C  C1997  1  0.123400  0.343100  0.711000  1
  C  C1998  1  0.623400  0.343100  0.211000  1
  C  C1999  1  0.123400  0.156900  0.289000  1
  C  C2000  1  0.623400  0.156900  0.789000  1
  C  C2001  1  0.834300  0.658000  0.331800  1
  C  C2002  1  0.334300  0.658000  0.831800  1
  C  C2003  1  0.834300  0.842000  0.668200  1
  C  C2004  1  0.334300  0.842000  0.168200  1
  C  C2005  1  0.165700  0.342000  0.668200  1
  C  C2006  1  0.665700  0.342000  0.168200  1
  C  C2007  1  0.165700  0.158000  0.331800  1
  C  C2008  1  0.665700  0.158000  0.831800  1
  C  C2009  1  0.960700  0.947000  0.569100  1
  C  C2010  1  0.460700  0.947000  0.069100  1
  C  C2011  1  0.960700  0.553000  0.430900  1
  C  C2012  1  0.460700  0.553000  0.930900  1
  C  C2013  1  0.039300  0.053000  0.430900  1
  C  C2014  1  0.539300  0.053000  0.930900  1
  C  C2015  1  0.039300  0.447000  0.569100  1
  C  C2016  1  0.539300  0.447000  0.069100  1
  C  C2017  1  0.974800  0.988800  0.535400  1
  C  C2018  1  0.474800  0.988800  0.035400  1
  C  C2019  1  0.974800  0.511200  0.464600  1
  C  C2020  1  0.474800  0.511200  0.964600  1
  C  C2021  1  0.025200  0.011200  0.464600  1
  C  C2022  1  0.525200  0.011200  0.964600  1
  C  C2023  1  0.025200  0.488800  0.535400  1
  C  C2024  1  0.525200  0.488800  0.035400  1
  C  C2025  1  0.913600  0.001900  0.574000  1
  C  C2026  1  0.413600  0.001900  0.074000  1
  C  C2027  1  0.913600  0.498100  0.426000  1
  C  C2028  1  0.413600  0.498100  0.926000  1
  C  C2029  1  0.086400  0.998100  0.426000  1
  C  C2030  1  0.586400  0.998100  0.926000  1
  C  C2031  1  0.086400  0.501900  0.574000  1
  C  C2032  1  0.586400  0.501900  0.074000  1
  C  C2033  1  0.862800  0.986900  0.582500  1
  C  C2034  1  0.362800  0.986900  0.082500  1
  C  C2035  1  0.862800  0.513100  0.417500  1
  C  C2036  1  0.362800  0.513100  0.917500  1
  C  C2037  1  0.137200  0.013100  0.417500  1
  C  C2038  1  0.637200  0.013100  0.917500  1
  C  C2039  1  0.137200  0.486900  0.582500  1
  C  C2040  1  0.637200  0.486900  0.082500  1
  C  C2041  1  0.797500  0.950900  0.565700  1
  C  C2042  1  0.297500  0.950900  0.065700  1
  C  C2043  1  0.797500  0.549100  0.434300  1
  C  C2044  1  0.297500  0.549100  0.934300  1
  C  C2045  1  0.202500  0.049100  0.434300  1
  C  C2046  1  0.702500  0.049100  0.934300  1
  C  C2047  1  0.202500  0.450900  0.565700  1
  C  C2048  1  0.702500  0.450900  0.065700  1
  C  C2049  1  0.810300  0.004400  0.542800  1
  C  C2050  1  0.310300  0.004400  0.042800  1
  C  C2051  1  0.810300  0.495600  0.457200  1
  C  C2052  1  0.310300  0.495600  0.957200  1
  C  C2053  1  0.189700  0.995600  0.457200  1
  C  C2054  1  0.689700  0.995600  0.957200  1
  C  C2055  1  0.189700  0.504400  0.542800  1
  C  C2056  1  0.689700  0.504400  0.042800  1
  C  C2057  1  0.171400  0.989000  0.332700  1
  C  C2058  1  0.671400  0.989000  0.832700  1
  C  C2059  1  0.171400  0.511000  0.667300  1
  C  C2060  1  0.671400  0.511000  0.167300  1
  C  C2061  1  0.828600  0.011000  0.667300  1
  C  C2062  1  0.328600  0.011000  0.167300  1
  C  C2063  1  0.828600  0.489000  0.332700  1
  C  C2064  1  0.328600  0.489000  0.832700  1
  C  C2065  1  0.220300  0.939700  0.308200  1
  C  C2066  1  0.720300  0.939700  0.808200  1
  C  C2067  1  0.220300  0.560300  0.691800  1
  C  C2068  1  0.720300  0.560300  0.191800  1
  C  C2069  1  0.779700  0.060300  0.691800  1
  C  C2070  1  0.279700  0.060300  0.191800  1
  C  C2071  1  0.779700  0.439700  0.308200  1
  C  C2072  1  0.279700  0.439700  0.808200  1
  C  C2073  1  0.201400  0.986400  0.282700  1
  C  C2074  1  0.701400  0.986400  0.782700  1
  C  C2075  1  0.201400  0.513600  0.717300  1
  C  C2076  1  0.701400  0.513600  0.217300  1
  C  C2077  1  0.798600  0.013600  0.717300  1
  C  C2078  1  0.298600  0.013600  0.217300  1
  C  C2079  1  0.798600  0.486400  0.282700  1
  C  C2080  1  0.298600  0.486400  0.782700  1
  C  C2081  1  0.166300  0.996800  0.265900  1
  C  C2082  1  0.666300  0.996800  0.765900  1
  C  C2083  1  0.166300  0.503200  0.734100  1
  C  C2084  1  0.666300  0.503200  0.234100  1
  C  C2085  1  0.833700  0.003200  0.734100  1
  C  C2086  1  0.333700  0.003200  0.234100  1
  C  C2087  1  0.833700  0.496800  0.265900  1
  C  C2088  1  0.333700  0.496800  0.765900  1
  C  C2089  1  0.142700  0.946600  0.225200  1
  C  C2090  1  0.642700  0.946600  0.725200  1
  C  C2091  1  0.142700  0.553400  0.774800  1
  C  C2092  1  0.642700  0.553400  0.274800  1
  C  C2093  1  0.857300  0.053400  0.774800  1
  C  C2094  1  0.357300  0.053400  0.274800  1
  C  C2095  1  0.857300  0.446600  0.225200  1
  C  C2096  1  0.357300  0.446600  0.725200  1
  C  C2097  1  0.084900  0.989400  0.248300  1
  C  C2098  1  0.584900  0.989400  0.748300  1
  C  C2099  1  0.084900  0.510600  0.751700  1
  C  C2100  1  0.584900  0.510600  0.251700  1
  C  C2101  1  0.915100  0.010600  0.751700  1
  C  C2102  1  0.415100  0.010600  0.251700  1
  C  C2103  1  0.915100  0.489400  0.248300  1
  C  C2104  1  0.415100  0.489400  0.748300  1
  C  C2105  1  0.220900  0.666300  0.407900  1
  C  C2106  1  0.720900  0.666300  0.907900  1
  C  C2107  1  0.220900  0.833700  0.592100  1
  C  C2108  1  0.720900  0.833700  0.092100  1
  C  C2109  1  0.779100  0.333700  0.592100  1
  C  C2110  1  0.279100  0.333700  0.092100  1
  C  C2111  1  0.779100  0.166300  0.407900  1
  C  C2112  1  0.279100  0.166300  0.907900  1
  C  C2113  1  0.171100  0.663300  0.451200  1
  C  C2114  1  0.671100  0.663300  0.951200  1
  C  C2115  1  0.171100  0.836700  0.548800  1
  C  C2116  1  0.671100  0.836700  0.048800  1
  C  C2117  1  0.828900  0.336700  0.548800  1
  C  C2118  1  0.328900  0.336700  0.048800  1
  C  C2119  1  0.828900  0.163300  0.451200  1
  C  C2120  1  0.328900  0.163300  0.951200  1
  C  C2121  1  0.199900  0.611800  0.415100  1
  C  C2122  1  0.699900  0.611800  0.915100  1
  C  C2123  1  0.199900  0.888200  0.584900  1
  C  C2124  1  0.699900  0.888200  0.084900  1
  C  C2125  1  0.800100  0.388200  0.584900  1
  C  C2126  1  0.300100  0.388200  0.084900  1
  C  C2127  1  0.800100  0.111800  0.415100  1
  C  C2128  1  0.300100  0.111800  0.915100  1
  C  C2129  1  0.167000  0.583500  0.403900  1
  C  C2130  1  0.667000  0.583500  0.903900  1
  C  C2131  1  0.167000  0.916500  0.596100  1
  C  C2132  1  0.667000  0.916500  0.096100  1
  C  C2133  1  0.833000  0.416500  0.596100  1
  C  C2134  1  0.333000  0.416500  0.096100  1
  C  C2135  1  0.833000  0.083500  0.403900  1
  C  C2136  1  0.333000  0.083500  0.903900  1
  C  C2137  1  0.128600  0.575600  0.359300  1
  C  C2138  1  0.628600  0.575600  0.859300  1
  C  C2139  1  0.128600  0.924400  0.640700  1
  C  C2140  1  0.628600  0.924400  0.140700  1
  C  C2141  1  0.871400  0.424400  0.640700  1
  C  C2142  1  0.371400  0.424400  0.140700  1
  C  C2143  1  0.871400  0.075600  0.359300  1
  C  C2144  1  0.371400  0.075600  0.859300  1
  C  C2145  1  0.081900  0.573800  0.402500  1
  C  C2146  1  0.581900  0.573800  0.902500  1
  C  C2147  1  0.081900  0.926200  0.597500  1
  C  C2148  1  0.581900  0.926200  0.097500  1
  C  C2149  1  0.918100  0.426200  0.597500  1
  C  C2150  1  0.418100  0.426200  0.097500  1
  C  C2151  1  0.918100  0.073800  0.402500  1
  C  C2152  1  0.418100  0.073800  0.902500  1
  C  C2153  1  0.830100  0.680000  0.104200  1
  C  C2154  1  0.330100  0.680000  0.604200  1
  C  C2155  1  0.830100  0.820000  0.895800  1
  C  C2156  1  0.330100  0.820000  0.395800  1
  C  C2157  1  0.169900  0.320000  0.895800  1
  C  C2158  1  0.669900  0.320000  0.395800  1
  C  C2159  1  0.169900  0.180000  0.104200  1
  C  C2160  1  0.669900  0.180000  0.604200  1
  C  C2161  1  0.916100  0.676500  0.101800  1
  C  C2162  1  0.416100  0.676500  0.601800  1
  C  C2163  1  0.916100  0.823500  0.898200  1
  C  C2164  1  0.416100  0.823500  0.398200  1
  C  C2165  1  0.083900  0.323500  0.898200  1
  C  C2166  1  0.583900  0.323500  0.398200  1
  C  C2167  1  0.083900  0.176500  0.101800  1
  C  C2168  1  0.583900  0.176500  0.601800  1
  C  C2169  1  0.871300  0.623200  0.095500  1
  C  C2170  1  0.371300  0.623200  0.595500  1
  C  C2171  1  0.871300  0.876800  0.904500  1
  C  C2172  1  0.371300  0.876800  0.404500  1
  C  C2173  1  0.128700  0.376800  0.904500  1
  C  C2174  1  0.628700  0.376800  0.404500  1
  C  C2175  1  0.128700  0.123200  0.095500  1
  C  C2176  1  0.628700  0.123200  0.595500  1
  C  C2177  1  0.876600  0.594400  0.109600  1
  C  C2178  1  0.376600  0.594400  0.609600  1
  C  C2179  1  0.876600  0.905600  0.890400  1
  C  C2180  1  0.376600  0.905600  0.390400  1
  C  C2181  1  0.123400  0.405600  0.890400  1
  C  C2182  1  0.623400  0.405600  0.390400  1
  C  C2183  1  0.123400  0.094400  0.109600  1
  C  C2184  1  0.623400  0.094400  0.609600  1
  C  C2185  1  0.833400  0.585300  0.150400  1
  C  C2186  1  0.333400  0.585300  0.650400  1
  C  C2187  1  0.833400  0.914700  0.849600  1
  C  C2188  1  0.333400  0.914700  0.349600  1
  C  C2189  1  0.166600  0.414700  0.849600  1
  C  C2190  1  0.666600  0.414700  0.349600  1
  C  C2191  1  0.166600  0.085300  0.150400  1
  C  C2192  1  0.666600  0.085300  0.650400  1
  C  C2193  1  0.921500  0.587400  0.151300  1
  C  C2194  1  0.421500  0.587400  0.651300  1
  C  C2195  1  0.921500  0.912600  0.848700  1
  C  C2196  1  0.421500  0.912600  0.348700  1
  C  C2197  1  0.078500  0.412600  0.848700  1
  C  C2198  1  0.578500  0.412600  0.348700  1
  C  C2199  1  0.078500  0.087400  0.151300  1
  C  C2200  1  0.578500  0.087400  0.651300  1
  C  C2201  1  0.537200  0.953100  0.308900  1
  C  C2202  1  0.037200  0.953100  0.808900  1
  C  C2203  1  0.537200  0.546900  0.691100  1
  C  C2204  1  0.037200  0.546900  0.191100  1
  C  C2205  1  0.462800  0.046900  0.691100  1
  C  C2206  1  0.962800  0.046900  0.191100  1
  C  C2207  1  0.462800  0.453100  0.308900  1
  C  C2208  1  0.962800  0.453100  0.808900  1
  C  C2209  1  0.586200  0.005400  0.325100  1
  C  C2210  1  0.086200  0.005400  0.825100  1
  C  C2211  1  0.586200  0.494600  0.674900  1
  C  C2212  1  0.086200  0.494600  0.174900  1
  C  C2213  1  0.413800  0.994600  0.674900  1
  C  C2214  1  0.913800  0.994600  0.174900  1
  C  C2215  1  0.413800  0.505400  0.325100  1
  C  C2216  1  0.913800  0.505400  0.825100  1
  C  C2217  1  0.554500  0.991100  0.274100  1
  C  C2218  1  0.054500  0.991100  0.774100  1
  C  C2219  1  0.554500  0.508900  0.725900  1
  C  C2220  1  0.054500  0.508900  0.225900  1
  C  C2221  1  0.445500  0.008900  0.725900  1
  C  C2222  1  0.945500  0.008900  0.225900  1
  C  C2223  1  0.445500  0.491100  0.274100  1
  C  C2224  1  0.945500  0.491100  0.774100  1
  C  C2225  1  0.596600  0.004000  0.258100  1
  C  C2226  1  0.096600  0.004000  0.758100  1
  C  C2227  1  0.596600  0.496000  0.741900  1
  C  C2228  1  0.096600  0.496000  0.241900  1
  C  C2229  1  0.403400  0.996000  0.741900  1
  C  C2230  1  0.903400  0.996000  0.241900  1
  C  C2231  1  0.403400  0.504000  0.258100  1
  C  C2232  1  0.903400  0.504000  0.758100  1
  C  C2233  1  0.615700  0.948200  0.223100  1
  C  C2234  1  0.115700  0.948200  0.723100  1
  C  C2235  1  0.615700  0.551800  0.776900  1
  C  C2236  1  0.115700  0.551800  0.276900  1
  C  C2237  1  0.384300  0.051800  0.776900  1
  C  C2238  1  0.884300  0.051800  0.276900  1
  C  C2239  1  0.384300  0.448200  0.223100  1
  C  C2240  1  0.884300  0.448200  0.723100  1
  C  C2241  1  0.679100  0.989400  0.241000  1
  C  C2242  1  0.179100  0.989400  0.741000  1
  C  C2243  1  0.679100  0.510600  0.759000  1
  C  C2244  1  0.179100  0.510600  0.259000  1
  C  C2245  1  0.320900  0.010600  0.759000  1
  C  C2246  1  0.820900  0.010600  0.259000  1
  C  C2247  1  0.320900  0.489400  0.241000  1
  C  C2248  1  0.820900  0.489400  0.741000  1
  C  C2249  1  0.530600  0.680500  0.403700  1
  C  C2250  1  0.030600  0.680500  0.903700  1
  C  C2251  1  0.530600  0.819500  0.596300  1
  C  C2252  1  0.030600  0.819500  0.096300  1
  C  C2253  1  0.469400  0.319500  0.596300  1
  C  C2254  1  0.969400  0.319500  0.096300  1
  C  C2255  1  0.469400  0.180500  0.403700  1
  C  C2256  1  0.969400  0.180500  0.903700  1
  C  C2257  1  0.574500  0.682000  0.451100  1
  C  C2258  1  0.074500  0.682000  0.951100  1
  C  C2259  1  0.574500  0.818000  0.548900  1
  C  C2260  1  0.074500  0.818000  0.048900  1
  C  C2261  1  0.425500  0.318000  0.548900  1
  C  C2262  1  0.925500  0.318000  0.048900  1
  C  C2263  1  0.425500  0.182000  0.451100  1
  C  C2264  1  0.925500  0.182000  0.951100  1
  C  C2265  1  0.554800  0.625200  0.420600  1
  C  C2266  1  0.054800  0.625200  0.920600  1
  C  C2267  1  0.554800  0.874800  0.579400  1
  C  C2268  1  0.054800  0.874800  0.079400  1
  C  C2269  1  0.445200  0.374800  0.579400  1
  C  C2270  1  0.945200  0.374800  0.079400  1
  C  C2271  1  0.445200  0.125200  0.420600  1
  C  C2272  1  0.945200  0.125200  0.920600  1
  C  C2273  1  0.576100  0.599900  0.402900  1
  C  C2274  1  0.076100  0.599900  0.902900  1
  C  C2275  1  0.576100  0.900100  0.597100  1
  C  C2276  1  0.076100  0.900100  0.097100  1
  C  C2277  1  0.423900  0.400100  0.597100  1
  C  C2278  1  0.923900  0.400100  0.097100  1
  C  C2279  1  0.423900  0.099900  0.402900  1
  C  C2280  1  0.923900  0.099900  0.902900  1
  C  C2281  1  0.625100  0.587600  0.362900  1
  C  C2282  1  0.125100  0.587600  0.862900  1
  C  C2283  1  0.625100  0.912400  0.637100  1
  C  C2284  1  0.125100  0.912400  0.137100  1
  C  C2285  1  0.374900  0.412400  0.637100  1
  C  C2286  1  0.874900  0.412400  0.137100  1
  C  C2287  1  0.374900  0.087600  0.362900  1
  C  C2288  1  0.874900  0.087600  0.862900  1
  C  C2289  1  0.666400  0.588800  0.408000  1
  C  C2290  1  0.166400  0.588800  0.908000  1
  C  C2291  1  0.666400  0.911200  0.592000  1
  C  C2292  1  0.166400  0.911200  0.092000  1
  C  C2293  1  0.333600  0.411200  0.592000  1
  C  C2294  1  0.833600  0.411200  0.092000  1
  C  C2295  1  0.333600  0.088800  0.408000  1
  C  C2296  1  0.833600  0.088800  0.908000  1
  C  C2297  1  0.867600  0.847600  0.417300  1
  C  C2298  1  0.367600  0.847600  0.917300  1
  C  C2299  1  0.867600  0.652400  0.582700  1
  C  C2300  1  0.367600  0.652400  0.082700  1
  C  C2301  1  0.132400  0.152400  0.582700  1
  C  C2302  1  0.632400  0.152400  0.082700  1
  C  C2303  1  0.132400  0.347600  0.417300  1
  C  C2304  1  0.632400  0.347600  0.917300  1
  C  C2305  1  0.837000  0.905400  0.411700  1
  C  C2306  1  0.337000  0.905400  0.911700  1
  C  C2307  1  0.837000  0.594600  0.588300  1
  C  C2308  1  0.337000  0.594600  0.088300  1
  C  C2309  1  0.163000  0.094600  0.588300  1
  C  C2310  1  0.663000  0.094600  0.088300  1
  C  C2311  1  0.163000  0.405400  0.411700  1
  C  C2312  1  0.663000  0.405400  0.911700  1
  C  C2313  1  0.867300  0.904000  0.332400  1
  C  C2314  1  0.367300  0.904000  0.832400  1
  C  C2315  1  0.867300  0.596000  0.667600  1
  C  C2316  1  0.367300  0.596000  0.167600  1
  C  C2317  1  0.132700  0.096000  0.667600  1
  C  C2318  1  0.632700  0.096000  0.167600  1
  C  C2319  1  0.132700  0.404000  0.332400  1
  C  C2320  1  0.632700  0.404000  0.832400  1
  C  C2321  1  0.832700  0.905200  0.355500  1
  C  C2322  1  0.332700  0.905200  0.855500  1
  C  C2323  1  0.832700  0.594800  0.644500  1
  C  C2324  1  0.332700  0.594800  0.144500  1
  C  C2325  1  0.167300  0.094800  0.644500  1
  C  C2326  1  0.667300  0.094800  0.144500  1
  C  C2327  1  0.167300  0.405200  0.355500  1
  C  C2328  1  0.667300  0.405200  0.855500  1
  C  C2329  1  0.859500  0.904500  0.381600  1
  C  C2330  1  0.359500  0.904500  0.881600  1
  C  C2331  1  0.859500  0.595500  0.618400  1
  C  C2332  1  0.359500  0.595500  0.118400  1
  C  C2333  1  0.140500  0.095500  0.618400  1
  C  C2334  1  0.640500  0.095500  0.118400  1
  C  C2335  1  0.140500  0.404500  0.381600  1
  C  C2336  1  0.640500  0.404500  0.881600  1
  C  C2337  1  0.910500  0.902800  0.374700  1
  C  C2338  1  0.410500  0.902800  0.874700  1
  C  C2339  1  0.910500  0.597200  0.625300  1
  C  C2340  1  0.410500  0.597200  0.125300  1
  C  C2341  1  0.089500  0.097200  0.625300  1
  C  C2342  1  0.589500  0.097200  0.125300  1
  C  C2343  1  0.089500  0.402800  0.374700  1
  C  C2344  1  0.589500  0.402800  0.874700  1
  C  C2345  1  0.915400  0.902500  0.344200  1
  C  C2346  1  0.415400  0.902500  0.844200  1
  C  C2347  1  0.915400  0.597500  0.655800  1
  C  C2348  1  0.415400  0.597500  0.155800  1
  C  C2349  1  0.084600  0.097500  0.655800  1
  C  C2350  1  0.584600  0.097500  0.155800  1
  C  C2351  1  0.084600  0.402500  0.344200  1
  C  C2352  1  0.584600  0.402500  0.844200  1
  C  C2353  1  0.878300  0.836800  0.314000  1
  C  C2354  1  0.378300  0.836800  0.814000  1
  C  C2355  1  0.878300  0.663200  0.686000  1
  C  C2356  1  0.378300  0.663200  0.186000  1
  C  C2357  1  0.121700  0.163200  0.686000  1
  C  C2358  1  0.621700  0.163200  0.186000  1
  C  C2359  1  0.121700  0.336800  0.314000  1
  C  C2360  1  0.621700  0.336800  0.814000  1
  C  C2361  1  0.825300  0.835300  0.365700  1
  C  C2362  1  0.325300  0.835300  0.865700  1
  C  C2363  1  0.825300  0.664700  0.634300  1
  C  C2364  1  0.325300  0.664700  0.134300  1
  C  C2365  1  0.174700  0.164700  0.634300  1
  C  C2366  1  0.674700  0.164700  0.134300  1
  C  C2367  1  0.174700  0.335300  0.365700  1
  C  C2368  1  0.674700  0.335300  0.865700  1
  C  C2369  1  0.928400  0.837000  0.366400  1
  C  C2370  1  0.428400  0.837000  0.866400  1
  C  C2371  1  0.928400  0.663000  0.633600  1
  C  C2372  1  0.428400  0.663000  0.133600  1
  C  C2373  1  0.071600  0.163000  0.633600  1
  C  C2374  1  0.571600  0.163000  0.133600  1
  C  C2375  1  0.071600  0.337000  0.366400  1
  C  C2376  1  0.571600  0.337000  0.866400  1
  N  N2377  1  0.694300  0.753600  0.275000  1
  N  N2378  1  0.194300  0.753600  0.775000  1
  N  N2379  1  0.694300  0.746400  0.725000  1
  N  N2380  1  0.194300  0.746400  0.225000  1
  N  N2381  1  0.305700  0.246400  0.725000  1
  N  N2382  1  0.805700  0.246400  0.225000  1
  N  N2383  1  0.305700  0.253600  0.275000  1
  N  N2384  1  0.805700  0.253600  0.775000  1
  N  N2385  1  0.053700  0.743700  0.272700  1
  N  N2386  1  0.553700  0.743700  0.772700  1
  N  N2387  1  0.053700  0.756300  0.727300  1
  N  N2388  1  0.553700  0.756300  0.227300  1
  N  N2389  1  0.946300  0.256300  0.727300  1
  N  N2390  1  0.446300  0.256300  0.227300  1
  N  N2391  1  0.946300  0.243700  0.272700  1
  N  N2392  1  0.446300  0.243700  0.772700  1
  N  N2393  1  0.875100  0.748600  0.454000  1
  N  N2394  1  0.375100  0.748600  0.954000  1
  N  N2395  1  0.875100  0.751400  0.546000  1
  N  N2396  1  0.375100  0.751400  0.046000  1
  N  N2397  1  0.124900  0.251400  0.546000  1
  N  N2398  1  0.624900  0.251400  0.046000  1
  N  N2399  1  0.124900  0.248600  0.454000  1
  N  N2400  1  0.624900  0.248600  0.954000  1
  N  N2401  1  0.874200  0.748700  0.304200  1
  N  N2402  1  0.374200  0.748700  0.804200  1
  N  N2403  1  0.874200  0.751300  0.695800  1
  N  N2404  1  0.374200  0.751300  0.195800  1
  N  N2405  1  0.125800  0.251300  0.695800  1
  N  N2406  1  0.625800  0.251300  0.195800  1
  N  N2407  1  0.125800  0.248700  0.304200  1
  N  N2408  1  0.625800  0.248700  0.804200  1
  N  N2409  1  0.918500  0.748000  0.348200  1
  N  N2410  1  0.418500  0.748000  0.848200  1
  N  N2411  1  0.918500  0.752000  0.651800  1
  N  N2412  1  0.418500  0.752000  0.151800  1
  N  N2413  1  0.081500  0.252000  0.651800  1
  N  N2414  1  0.581500  0.252000  0.151800  1
  N  N2415  1  0.081500  0.248000  0.348200  1
  N  N2416  1  0.581500  0.248000  0.848200  1
  N  N2417  1  0.830400  0.749200  0.348600  1
  N  N2418  1  0.330400  0.749200  0.848600  1
  N  N2419  1  0.830400  0.750800  0.651400  1
  N  N2420  1  0.330400  0.750800  0.151400  1
  N  N2421  1  0.169600  0.250800  0.651400  1
  N  N2422  1  0.669600  0.250800  0.151400  1
  N  N2423  1  0.169600  0.249200  0.348600  1
  N  N2424  1  0.669600  0.249200  0.848600  1
  N  N2425  1  0.930300  0.917900  0.496780  1
  N  N2426  1  0.430300  0.917900  0.996780  1
  N  N2427  1  0.930300  0.582100  0.503220  1
  N  N2428  1  0.430300  0.582100  0.003220  1
  N  N2429  1  0.069700  0.082100  0.503220  1
  N  N2430  1  0.569700  0.082100  0.003220  1
  N  N2431  1  0.069700  0.417900  0.496780  1
  N  N2432  1  0.569700  0.417900  0.996780  1
  N  N2433  1  0.106600  0.915600  0.319470  1
  N  N2434  1  0.606600  0.915600  0.819470  1
  N  N2435  1  0.106600  0.584400  0.680530  1
  N  N2436  1  0.606600  0.584400  0.180530  1
  N  N2437  1  0.893400  0.084400  0.680530  1
  N  N2438  1  0.393400  0.084400  0.180530  1
  N  N2439  1  0.893400  0.415600  0.319470  1
  N  N2440  1  0.393400  0.415600  0.819470  1
  N  N2441  1  0.108000  0.700800  0.403300  1
  N  N2442  1  0.608000  0.700800  0.903300  1
  N  N2443  1  0.108000  0.799200  0.596700  1
  N  N2444  1  0.608000  0.799200  0.096700  1
  N  N2445  1  0.892000  0.299200  0.596700  1
  N  N2446  1  0.392000  0.299200  0.096700  1
  N  N2447  1  0.892000  0.200800  0.403300  1
  N  N2448  1  0.392000  0.200800  0.903300  1
  N  N2449  1  0.828600  0.923200  0.497900  1
  N  N2450  1  0.328600  0.923200  0.997900  1
  N  N2451  1  0.828600  0.576800  0.502100  1
  N  N2452  1  0.328600  0.576800  0.002100  1
  N  N2453  1  0.171400  0.076800  0.502100  1
  N  N2454  1  0.671400  0.076800  0.002100  1
  N  N2455  1  0.171400  0.423200  0.497900  1
  N  N2456  1  0.671400  0.423200  0.997900  1
  N  N2457  1  0.643300  0.714200  0.405200  1
  N  N2458  1  0.143300  0.714200  0.905200  1
  N  N2459  1  0.643300  0.785800  0.594800  1
  N  N2460  1  0.143300  0.785800  0.094800  1
  N  N2461  1  0.356700  0.285800  0.594800  1
  N  N2462  1  0.856700  0.285800  0.094800  1
  N  N2463  1  0.356700  0.214200  0.405200  1
  N  N2464  1  0.856700  0.214200  0.905200  1
  N  N2465  1  0.646700  0.927300  0.320650  1
  N  N2466  1  0.146700  0.927300  0.820650  1
  N  N2467  1  0.646700  0.572700  0.679350  1
  N  N2468  1  0.146700  0.572700  0.179350  1
  N  N2469  1  0.353300  0.072700  0.679350  1
  N  N2470  1  0.853300  0.072700  0.179350  1
  N  N2471  1  0.353300  0.427300  0.320650  1
  N  N2472  1  0.853300  0.427300  0.820650  1
  N  N2473  1  0.055200  0.918060  0.269530  1
  N  N2474  1  0.555200  0.918060  0.769530  1
  N  N2475  1  0.055200  0.581940  0.730470  1
  N  N2476  1  0.555200  0.581940  0.230470  1
  N  N2477  1  0.944800  0.081940  0.730470  1
  N  N2478  1  0.444800  0.081940  0.230470  1
  N  N2479  1  0.944800  0.418060  0.269530  1
  N  N2480  1  0.444800  0.418060  0.769530  1
  N  N2481  1  0.701500  0.922800  0.269200  1
  N  N2482  1  0.201500  0.922800  0.769200  1
  N  N2483  1  0.701500  0.577200  0.730800  1
  N  N2484  1  0.201500  0.577200  0.230800  1
  N  N2485  1  0.298500  0.077200  0.730800  1
  N  N2486  1  0.798500  0.077200  0.230800  1
  N  N2487  1  0.298500  0.422800  0.269200  1
  N  N2488  1  0.798500  0.422800  0.769200  1
  N  N2489  1  0.874500  0.711700  0.169100  1
  N  N2490  1  0.374500  0.711700  0.669100  1
  N  N2491  1  0.874500  0.788300  0.830900  1
  N  N2492  1  0.374500  0.788300  0.330900  1
  N  N2493  1  0.125500  0.288300  0.830900  1
  N  N2494  1  0.625500  0.288300  0.330900  1
  N  N2495  1  0.125500  0.211700  0.169100  1
  N  N2496  1  0.625500  0.211700  0.669100  1
  N  N2497  1  0.052500  0.644400  0.374900  1
  N  N2498  1  0.552500  0.644400  0.874900  1
  N  N2499  1  0.052500  0.855600  0.625100  1
  N  N2500  1  0.552500  0.855600  0.125100  1
  N  N2501  1  0.947500  0.355600  0.625100  1
  N  N2502  1  0.447500  0.355600  0.125100  1
  N  N2503  1  0.947500  0.144400  0.374900  1
  N  N2504  1  0.447500  0.144400  0.874900  1
  N  N2505  1  0.876700  0.653800  0.197700  1
  N  N2506  1  0.376700  0.653800  0.697700  1
  N  N2507  1  0.876700  0.846200  0.802300  1
  N  N2508  1  0.376700  0.846200  0.302300  1
  N  N2509  1  0.123300  0.346200  0.802300  1
  N  N2510  1  0.623300  0.346200  0.302300  1
  N  N2511  1  0.123300  0.153800  0.197700  1
  N  N2512  1  0.623300  0.153800  0.697700  1
  N  N2513  1  0.699800  0.657900  0.377100  1
  N  N2514  1  0.199800  0.657900  0.877100  1
  N  N2515  1  0.699800  0.842100  0.622900  1
  N  N2516  1  0.199800  0.842100  0.122900  1
  N  N2517  1  0.300200  0.342100  0.622900  1
  N  N2518  1  0.800200  0.342100  0.122900  1
  N  N2519  1  0.300200  0.157900  0.377100  1
  N  N2520  1  0.800200  0.157900  0.877100  1
  N  N2521  1  0.036500  0.877900  0.408010  1
  N  N2522  1  0.536500  0.877900  0.908010  1
  N  N2523  1  0.036500  0.622100  0.591990  1
  N  N2524  1  0.536500  0.622100  0.091990  1
  N  N2525  1  0.963500  0.122100  0.591990  1
  N  N2526  1  0.463500  0.122100  0.091990  1
  N  N2527  1  0.963500  0.377900  0.408010  1
  N  N2528  1  0.463500  0.377900  0.908010  1
  N  N2529  1  0.080200  0.825900  0.385330  1
  N  N2530  1  0.580200  0.825900  0.885330  1
  N  N2531  1  0.080200  0.674100  0.614670  1
  N  N2532  1  0.580200  0.674100  0.114670  1
  N  N2533  1  0.919800  0.174100  0.614670  1
  N  N2534  1  0.419800  0.174100  0.114670  1
  N  N2535  1  0.919800  0.325900  0.385330  1
  N  N2536  1  0.419800  0.325900  0.885330  1
  N  N2537  1  0.036100  0.825300  0.429350  1
  N  N2538  1  0.536100  0.825300  0.929350  1
  N  N2539  1  0.036100  0.674700  0.570650  1
  N  N2540  1  0.536100  0.674700  0.070650  1
  N  N2541  1  0.963900  0.174700  0.570650  1
  N  N2542  1  0.463900  0.174700  0.070650  1
  N  N2543  1  0.963900  0.325300  0.429350  1
  N  N2544  1  0.463900  0.325300  0.929350  1
  N  N2545  1  0.716300  0.838500  0.431260  1
  N  N2546  1  0.216300  0.838500  0.931260  1
  N  N2547  1  0.716300  0.661500  0.568740  1
  N  N2548  1  0.216300  0.661500  0.068740  1
  N  N2549  1  0.283700  0.161500  0.568740  1
  N  N2550  1  0.783700  0.161500  0.068740  1
  N  N2551  1  0.283700  0.338500  0.431260  1
  N  N2552  1  0.783700  0.338500  0.931260  1
  N  N2553  1  0.671700  0.839500  0.387570  1
  N  N2554  1  0.171700  0.839500  0.887570  1
  N  N2555  1  0.671700  0.660500  0.612430  1
  N  N2556  1  0.171700  0.660500  0.112430  1
  N  N2557  1  0.328300  0.160500  0.612430  1
  N  N2558  1  0.828300  0.160500  0.112430  1
  N  N2559  1  0.328300  0.339500  0.387570  1
  N  N2560  1  0.828300  0.339500  0.887570  1
  N  N2561  1  0.716700  0.890600  0.410590  1
  N  N2562  1  0.216700  0.890600  0.910590  1
  N  N2563  1  0.716700  0.609400  0.589410  1
  N  N2564  1  0.216700  0.609400  0.089410  1
  N  N2565  1  0.283300  0.109400  0.589410  1
  N  N2566  1  0.783300  0.109400  0.089410  1
  N  N2567  1  0.283300  0.390600  0.410590  1
  N  N2568  1  0.783300  0.390600  0.910590  1
  N  N2569  1  0.877000  0.884400  0.250600  1
  N  N2570  1  0.377000  0.884400  0.750600  1
  N  N2571  1  0.877000  0.615600  0.749400  1
  N  N2572  1  0.377000  0.615600  0.249400  1
  N  N2573  1  0.123000  0.115600  0.749400  1
  N  N2574  1  0.623000  0.115600  0.249400  1
  N  N2575  1  0.123000  0.384400  0.250600  1
  N  N2576  1  0.623000  0.384400  0.750600  1
  N  N2577  1  0.831900  0.834400  0.225300  1
  N  N2578  1  0.331900  0.834400  0.725300  1
  N  N2579  1  0.831900  0.665600  0.774700  1
  N  N2580  1  0.331900  0.665600  0.274700  1
  N  N2581  1  0.168100  0.165600  0.774700  1
  N  N2582  1  0.668100  0.165600  0.274700  1
  N  N2583  1  0.168100  0.334400  0.225300  1
  N  N2584  1  0.668100  0.334400  0.725300  1
  N  N2585  1  0.919800  0.832400  0.225920  1
  N  N2586  1  0.419800  0.832400  0.725920  1
  N  N2587  1  0.919800  0.667600  0.774080  1
  N  N2588  1  0.419800  0.667600  0.274080  1
  N  N2589  1  0.080200  0.167600  0.774080  1
  N  N2590  1  0.580200  0.167600  0.274080  1
  N  N2591  1  0.080200  0.332400  0.225920  1
  N  N2592  1  0.580200  0.332400  0.725920  1
  N  N2593  1  0.919800  0.654700  0.302000  1
  N  N2594  1  0.419800  0.654700  0.802000  1
  N  N2595  1  0.919800  0.845300  0.698000  1
  N  N2596  1  0.419800  0.845300  0.198000  1
  N  N2597  1  0.080200  0.345300  0.698000  1
  N  N2598  1  0.580200  0.345300  0.198000  1
  N  N2599  1  0.080200  0.154700  0.302000  1
  N  N2600  1  0.580200  0.154700  0.802000  1
  N  N2601  1  0.831400  0.658900  0.302500  1
  N  N2602  1  0.331400  0.658900  0.802500  1
  N  N2603  1  0.831400  0.841100  0.697500  1
  N  N2604  1  0.331400  0.841100  0.197500  1
  N  N2605  1  0.168600  0.341100  0.697500  1
  N  N2606  1  0.668600  0.341100  0.197500  1
  N  N2607  1  0.168600  0.158900  0.302500  1
  N  N2608  1  0.668600  0.158900  0.802500  1
  N  N2609  1  0.877000  0.655700  0.346900  1
  N  N2610  1  0.377000  0.655700  0.846900  1
  N  N2611  1  0.877000  0.844300  0.653100  1
  N  N2612  1  0.377000  0.844300  0.153100  1
  N  N2613  1  0.123000  0.344300  0.653100  1
  N  N2614  1  0.623000  0.344300  0.153100  1
  N  N2615  1  0.123000  0.155700  0.346900  1
  N  N2616  1  0.623000  0.155700  0.846900  1
  N  N2617  1  0.937100  0.971500  0.552480  1
  N  N2618  1  0.437100  0.971500  0.052480  1
  N  N2619  1  0.937100  0.528500  0.447520  1
  N  N2620  1  0.437100  0.528500  0.947520  1
  N  N2621  1  0.062900  0.028500  0.447520  1
  N  N2622  1  0.562900  0.028500  0.947520  1
  N  N2623  1  0.062900  0.471500  0.552480  1
  N  N2624  1  0.562900  0.471500  0.052480  1
  N  N2625  1  0.838200  0.971000  0.554300  1
  N  N2626  1  0.338200  0.971000  0.054300  1
  N  N2627  1  0.838200  0.529000  0.445700  1
  N  N2628  1  0.338200  0.529000  0.945700  1
  N  N2629  1  0.161800  0.029000  0.445700  1
  N  N2630  1  0.661800  0.029000  0.945700  1
  N  N2631  1  0.161800  0.471000  0.554300  1
  N  N2632  1  0.661800  0.471000  0.054300  1
  N  N2633  1  0.181100  0.966500  0.304430  1
  N  N2634  1  0.681100  0.966500  0.804430  1
  N  N2635  1  0.181100  0.533500  0.695570  1
  N  N2636  1  0.681100  0.533500  0.195570  1
  N  N2637  1  0.818900  0.033500  0.695570  1
  N  N2638  1  0.318900  0.033500  0.195570  1
  N  N2639  1  0.818900  0.466500  0.304430  1
  N  N2640  1  0.318900  0.466500  0.804430  1
  N  N2641  1  0.128500  0.969500  0.252770  1
  N  N2642  1  0.628500  0.969500  0.752770  1
  N  N2643  1  0.128500  0.530500  0.747230  1
  N  N2644  1  0.628500  0.530500  0.247230  1
  N  N2645  1  0.871500  0.030500  0.747230  1
  N  N2646  1  0.371500  0.030500  0.247230  1
  N  N2647  1  0.871500  0.469500  0.252770  1
  N  N2648  1  0.371500  0.469500  0.752770  1
  N  N2649  1  0.182000  0.648600  0.419600  1
  N  N2650  1  0.682000  0.648600  0.919600  1
  N  N2651  1  0.182000  0.851400  0.580400  1
  N  N2652  1  0.682000  0.851400  0.080400  1
  N  N2653  1  0.818000  0.351400  0.580400  1
  N  N2654  1  0.318000  0.351400  0.080400  1
  N  N2655  1  0.818000  0.148600  0.419600  1
  N  N2656  1  0.318000  0.148600  0.919600  1
  N  N2657  1  0.123800  0.589400  0.389600  1
  N  N2658  1  0.623800  0.589400  0.889600  1
  N  N2659  1  0.123800  0.910600  0.610400  1
  N  N2660  1  0.623800  0.910600  0.110400  1
  N  N2661  1  0.876200  0.410600  0.610400  1
  N  N2662  1  0.376200  0.410600  0.110400  1
  N  N2663  1  0.876200  0.089400  0.389600  1
  N  N2664  1  0.376200  0.089400  0.889600  1
  N  N2665  1  0.872800  0.659900  0.111100  1
  N  N2666  1  0.372800  0.659900  0.611100  1
  N  N2667  1  0.872800  0.840100  0.888900  1
  N  N2668  1  0.372800  0.840100  0.388900  1
  N  N2669  1  0.127200  0.340100  0.888900  1
  N  N2670  1  0.627200  0.340100  0.388900  1
  N  N2671  1  0.127200  0.159900  0.111100  1
  N  N2672  1  0.627200  0.159900  0.611100  1
  N  N2673  1  0.874500  0.601900  0.139800  1
  N  N2674  1  0.374500  0.601900  0.639800  1
  N  N2675  1  0.874500  0.898100  0.860200  1
  N  N2676  1  0.374500  0.898100  0.360200  1
  N  N2677  1  0.125500  0.398100  0.860200  1
  N  N2678  1  0.625500  0.398100  0.360200  1
  N  N2679  1  0.125500  0.101900  0.139800  1
  N  N2680  1  0.625500  0.101900  0.639800  1
  N  N2681  1  0.574900  0.975800  0.299900  1
  N  N2682  1  0.074900  0.975800  0.799900  1
  N  N2683  1  0.574900  0.524200  0.700100  1
  N  N2684  1  0.074900  0.524200  0.200100  1
  N  N2685  1  0.425100  0.024200  0.700100  1
  N  N2686  1  0.925100  0.024200  0.200100  1
  N  N2687  1  0.425100  0.475800  0.299900  1
  N  N2688  1  0.925100  0.475800  0.799900  1
  N  N2689  1  0.631300  0.973300  0.249100  1
  N  N2690  1  0.131300  0.973300  0.749100  1
  N  N2691  1  0.631300  0.526700  0.750900  1
  N  N2692  1  0.131300  0.526700  0.250900  1
  N  N2693  1  0.368700  0.026700  0.750900  1
  N  N2694  1  0.868700  0.026700  0.250900  1
  N  N2695  1  0.368700  0.473300  0.249100  1
  N  N2696  1  0.868700  0.473300  0.749100  1
  N  N2697  1  0.569300  0.662300  0.420040  1
  N  N2698  1  0.069300  0.662300  0.920040  1
  N  N2699  1  0.569300  0.837700  0.579960  1
  N  N2700  1  0.069300  0.837700  0.079960  1
  N  N2701  1  0.430700  0.337700  0.579960  1
  N  N2702  1  0.930700  0.337700  0.079960  1
  N  N2703  1  0.430700  0.162300  0.420040  1
  N  N2704  1  0.930700  0.162300  0.920040  1
  N  N2705  1  0.627000  0.604600  0.392100  1
  N  N2706  1  0.127000  0.604600  0.892100  1
  N  N2707  1  0.627000  0.895400  0.607900  1
  N  N2708  1  0.127000  0.895400  0.107900  1
  N  N2709  1  0.373000  0.395400  0.607900  1
  N  N2710  1  0.873000  0.395400  0.107900  1
  N  N2711  1  0.373000  0.104600  0.392100  1
  N  N2712  1  0.873000  0.104600  0.892100  1
  N  N2713  1  0.768900  0.572200  0.337100  1
  N  N2714  1  0.268900  0.572200  0.837100  1
  N  N2715  1  0.768900  0.927800  0.662900  1
  N  N2716  1  0.268900  0.927800  0.162900  1
  N  N2717  1  0.231100  0.427800  0.662900  1
  N  N2718  1  0.731100  0.427800  0.162900  1
  N  N2719  1  0.231100  0.072200  0.337100  1
  N  N2720  1  0.731100  0.072200  0.837100  1
  N  N2721  1  0.683900  0.649300  0.258200  1
  N  N2722  1  0.183900  0.649300  0.758200  1
  N  N2723  1  0.683900  0.850700  0.741800  1
  N  N2724  1  0.183900  0.850700  0.241800  1
  N  N2725  1  0.316100  0.350700  0.741800  1
  N  N2726  1  0.816100  0.350700  0.241800  1
  N  N2727  1  0.316100  0.149300  0.258200  1
  N  N2728  1  0.816100  0.149300  0.758200  1
  N  N2729  1  0.484900  0.591700  0.313500  1
  N  N2730  1  0.984900  0.591700  0.813500  1
  N  N2731  1  0.484900  0.908300  0.686500  1
  N  N2732  1  0.984900  0.908300  0.186500  1
  N  N2733  1  0.515100  0.408300  0.686500  1
  N  N2734  1  0.015100  0.408300  0.186500  1
  N  N2735  1  0.515100  0.091700  0.313500  1
  N  N2736  1  0.015100  0.091700  0.813500  1
  N  N2737  1  0.276800  0.550200  0.306900  1
  N  N2738  1  0.776800  0.550200  0.806900  1
  N  N2739  1  0.276800  0.949800  0.693100  1
  N  N2740  1  0.776800  0.949800  0.193100  1
  N  N2741  1  0.723200  0.449800  0.693100  1
  N  N2742  1  0.223200  0.449800  0.193100  1
  N  N2743  1  0.723200  0.050200  0.306900  1
  N  N2744  1  0.223200  0.050200  0.806900  1
  N  N2745  1  0.037800  0.056400  0.332400  1
  N  N2746  1  0.537800  0.056400  0.832400  1
  N  N2747  1  0.037800  0.443600  0.667600  1
  N  N2748  1  0.537800  0.443600  0.167600  1
  N  N2749  1  0.962200  0.943600  0.667600  1
  N  N2750  1  0.462200  0.943600  0.167600  1
  N  N2751  1  0.962200  0.556400  0.332400  1
  N  N2752  1  0.462200  0.556400  0.832400  1
  N  N2753  1  0.873900  0.571100  0.232200  1
  N  N2754  1  0.373900  0.571100  0.732200  1
  N  N2755  1  0.873900  0.928900  0.767800  1
  N  N2756  1  0.373900  0.928900  0.267800  1
  N  N2757  1  0.126100  0.428900  0.767800  1
  N  N2758  1  0.626100  0.428900  0.267800  1
  N  N2759  1  0.126100  0.071100  0.232200  1
  N  N2760  1  0.626100  0.071100  0.732200  1
  N  N2761  1  0.192100  0.909900  0.392600  1
  N  N2762  1  0.692100  0.909900  0.892600  1
  N  N2763  1  0.192100  0.590100  0.607400  1
  N  N2764  1  0.692100  0.590100  0.107400  1
  N  N2765  1  0.807900  0.090100  0.607400  1
  N  N2766  1  0.307900  0.090100  0.107400  1
  N  N2767  1  0.807900  0.409900  0.392600  1
  N  N2768  1  0.307900  0.409900  0.892600  1
  N  N2769  1  0.562300  0.873000  0.252000  1
  N  N2770  1  0.062300  0.873000  0.752000  1
  N  N2771  1  0.562300  0.627000  0.748000  1
  N  N2772  1  0.062300  0.627000  0.248000  1
  N  N2773  1  0.437700  0.127000  0.748000  1
  N  N2774  1  0.937700  0.127000  0.248000  1
  N  N2775  1  0.437700  0.373000  0.252000  1
  N  N2776  1  0.937700  0.373000  0.752000  1
  N  N2777  1  0.081400  0.919900  0.495400  1
  N  N2778  1  0.581400  0.919900  0.995400  1
  N  N2779  1  0.081400  0.580100  0.504600  1
  N  N2780  1  0.581400  0.580100  0.004600  1
  N  N2781  1  0.918600  0.080100  0.504600  1
  N  N2782  1  0.418600  0.080100  0.004600  1
  N  N2783  1  0.918600  0.419900  0.495400  1
  N  N2784  1  0.418600  0.419900  0.995400  1
  N  N2785  1  0.871800  0.855700  0.553600  1
  N  N2786  1  0.371800  0.855700  0.053600  1
  N  N2787  1  0.871800  0.644300  0.446400  1
  N  N2788  1  0.371800  0.644300  0.946400  1
  N  N2789  1  0.128200  0.144300  0.446400  1
  N  N2790  1  0.628200  0.144300  0.946400  1
  N  N2791  1  0.128200  0.355700  0.553600  1
  N  N2792  1  0.628200  0.355700  0.053600  1
  N  N2793  1  0.592400  0.488500  0.526900  1
  N  N2794  1  0.092400  0.488500  0.026900  1
  N  N2795  1  0.592400  0.011500  0.473100  1
  N  N2796  1  0.092400  0.011500  0.973100  1
  N  N2797  1  0.407600  0.511500  0.473100  1
  N  N2798  1  0.907600  0.511500  0.973100  1
  N  N2799  1  0.407600  0.988500  0.526900  1
  N  N2800  1  0.907600  0.988500  0.026900  1
  N  N2801  1  0.374500  0.644500  0.340700  1
  N  N2802  1  0.874500  0.644500  0.840700  1
  N  N2803  1  0.374500  0.855500  0.659300  1
  N  N2804  1  0.874500  0.855500  0.159300  1
  N  N2805  1  0.625500  0.355500  0.659300  1
  N  N2806  1  0.125500  0.355500  0.159300  1
  N  N2807  1  0.625500  0.144500  0.340700  1
  N  N2808  1  0.125500  0.144500  0.840700  1
  N  N2809  1  0.634800  0.504400  0.542600  1
  N  N2810  1  0.134800  0.504400  0.042600  1
  N  N2811  1  0.634800  0.995600  0.457400  1
  N  N2812  1  0.134800  0.995600  0.957400  1
  N  N2813  1  0.365200  0.495600  0.457400  1
  N  N2814  1  0.865200  0.495600  0.957400  1
  N  N2815  1  0.365200  0.004400  0.542600  1
  N  N2816  1  0.865200  0.004400  0.042600  1
  N  N2817  1  0.624700  0.437700  0.543800  1
  N  N2818  1  0.124700  0.437700  0.043800  1
  N  N2819  1  0.624700  0.062300  0.456200  1
  N  N2820  1  0.124700  0.062300  0.956200  1
  N  N2821  1  0.375300  0.562300  0.456200  1
  N  N2822  1  0.875300  0.562300  0.956200  1
  N  N2823  1  0.375300  0.937700  0.543800  1
  N  N2824  1  0.875300  0.937700  0.043800  1
  N  N2825  1  0.629100  0.427800  0.501700  1
  N  N2826  1  0.129100  0.427800  0.001700  1
  N  N2827  1  0.629100  0.072200  0.498300  1
  N  N2828  1  0.129100  0.072200  0.998300  1
  N  N2829  1  0.370900  0.572200  0.498300  1
  N  N2830  1  0.870900  0.572200  0.998300  1
  N  N2831  1  0.370900  0.927800  0.501700  1
  N  N2832  1  0.870900  0.927800  0.001700  1
  O  O2833  1  0.868600  0.817700  0.291200  1
  O  O2834  1  0.368600  0.817700  0.791200  1
  O  O2835  1  0.868600  0.682300  0.708800  1
  O  O2836  1  0.368600  0.682300  0.208800  1
  O  O2837  1  0.131400  0.182300  0.708800  1
  O  O2838  1  0.631400  0.182300  0.208800  1
  O  O2839  1  0.131400  0.317700  0.291200  1
  O  O2840  1  0.631400  0.317700  0.791200  1
  O  O2841  1  0.947800  0.913300  0.339000  1
  O  O2842  1  0.447800  0.913300  0.839000  1
  O  O2843  1  0.947800  0.586700  0.661000  1
  O  O2844  1  0.447800  0.586700  0.161000  1
  O  O2845  1  0.052200  0.086700  0.661000  1
  O  O2846  1  0.552200  0.086700  0.161000  1
  O  O2847  1  0.052200  0.413300  0.339000  1
  O  O2848  1  0.552200  0.413300  0.839000  1
  O  O2849  1  0.955900  0.821900  0.378100  1
  O  O2850  1  0.455900  0.821900  0.878100  1
  O  O2851  1  0.955900  0.678100  0.621900  1
  O  O2852  1  0.455900  0.678100  0.121900  1
  O  O2853  1  0.044100  0.178100  0.621900  1
  O  O2854  1  0.544100  0.178100  0.121900  1
  O  O2855  1  0.044100  0.321900  0.378100  1
  O  O2856  1  0.544100  0.321900  0.878100  1
  O  O2857  1  0.732900  0.566300  0.323300  1
  O  O2858  1  0.232900  0.566300  0.823300  1
  O  O2859  1  0.732900  0.933700  0.676700  1
  O  O2860  1  0.232900  0.933700  0.176700  1
  O  O2861  1  0.267100  0.433700  0.676700  1
  O  O2862  1  0.767100  0.433700  0.176700  1
  O  O2863  1  0.267100  0.066300  0.323300  1
  O  O2864  1  0.767100  0.066300  0.823300  1
  O  O2865  1  0.811500  0.579400  0.324300  1
  O  O2866  1  0.311500  0.579400  0.824300  1
  O  O2867  1  0.811500  0.920600  0.675700  1
  O  O2868  1  0.311500  0.920600  0.175700  1
  O  O2869  1  0.188500  0.420600  0.675700  1
  O  O2870  1  0.688500  0.420600  0.175700  1
  O  O2871  1  0.188500  0.079400  0.324300  1
  O  O2872  1  0.688500  0.079400  0.824300  1
  O  O2873  1  0.772600  0.571200  0.363900  1
  O  O2874  1  0.272600  0.571200  0.863900  1
  O  O2875  1  0.772600  0.928800  0.636100  1
  O  O2876  1  0.272600  0.928800  0.136100  1
  O  O2877  1  0.227400  0.428800  0.636100  1
  O  O2878  1  0.727400  0.428800  0.136100  1
  O  O2879  1  0.227400  0.071200  0.363900  1
  O  O2880  1  0.727400  0.071200  0.863900  1
  O  O2881  1  0.674100  0.640700  0.281000  1
  O  O2882  1  0.174100  0.640700  0.781000  1
  O  O2883  1  0.674100  0.859300  0.719000  1
  O  O2884  1  0.174100  0.859300  0.219000  1
  O  O2885  1  0.325900  0.359300  0.719000  1
  O  O2886  1  0.825900  0.359300  0.219000  1
  O  O2887  1  0.325900  0.140700  0.281000  1
  O  O2888  1  0.825900  0.140700  0.781000  1
  O  O2889  1  0.724700  0.640800  0.243400  1
  O  O2890  1  0.224700  0.640800  0.743400  1
  O  O2891  1  0.724700  0.859200  0.756600  1
  O  O2892  1  0.224700  0.859200  0.256600  1
  O  O2893  1  0.275300  0.359200  0.756600  1
  O  O2894  1  0.775300  0.359200  0.256600  1
  O  O2895  1  0.275300  0.140800  0.243400  1
  O  O2896  1  0.775300  0.140800  0.743400  1
  O  O2897  1  0.654200  0.669200  0.246500  1
  O  O2898  1  0.154200  0.669200  0.746500  1
  O  O2899  1  0.654200  0.830800  0.753500  1
  O  O2900  1  0.154200  0.830800  0.253500  1
  O  O2901  1  0.345800  0.330800  0.753500  1
  O  O2902  1  0.845800  0.330800  0.253500  1
  O  O2903  1  0.345800  0.169200  0.246500  1
  O  O2904  1  0.845800  0.169200  0.746500  1
  O  O2905  1  0.443500  0.582700  0.304700  1
  O  O2906  1  0.943500  0.582700  0.804700  1
  O  O2907  1  0.443500  0.917300  0.695300  1
  O  O2908  1  0.943500  0.917300  0.195300  1
  O  O2909  1  0.556500  0.417300  0.695300  1
  O  O2910  1  0.056500  0.417300  0.195300  1
  O  O2911  1  0.556500  0.082700  0.304700  1
  O  O2912  1  0.056500  0.082700  0.804700  1
  O  O2913  1  0.524600  0.574200  0.306400  1
  O  O2914  1  0.024600  0.574200  0.806400  1
  O  O2915  1  0.524600  0.925800  0.693600  1
  O  O2916  1  0.024600  0.925800  0.193600  1
  O  O2917  1  0.475400  0.425800  0.693600  1
  O  O2918  1  0.975400  0.425800  0.193600  1
  O  O2919  1  0.475400  0.074200  0.306400  1
  O  O2920  1  0.975400  0.074200  0.806400  1
  O  O2921  1  0.493000  0.622600  0.331200  1
  O  O2922  1  0.993000  0.622600  0.831200  1
  O  O2923  1  0.493000  0.877400  0.668800  1
  O  O2924  1  0.993000  0.877400  0.168800  1
  O  O2925  1  0.507000  0.377400  0.668800  1
  O  O2926  1  0.007000  0.377400  0.168800  1
  O  O2927  1  0.507000  0.122600  0.331200  1
  O  O2928  1  0.007000  0.122600  0.831200  1
  O  O2929  1  0.237900  0.565600  0.310500  1
  O  O2930  1  0.737900  0.565600  0.810500  1
  O  O2931  1  0.237900  0.934400  0.689500  1
  O  O2932  1  0.737900  0.934400  0.189500  1
  O  O2933  1  0.762100  0.434400  0.689500  1
  O  O2934  1  0.262100  0.434400  0.189500  1
  O  O2935  1  0.762100  0.065600  0.310500  1
  O  O2936  1  0.262100  0.065600  0.810500  1
  O  O2937  1  0.286900  0.520600  0.316500  1
  O  O2938  1  0.786900  0.520600  0.816500  1
  O  O2939  1  0.286900  0.979400  0.683500  1
  O  O2940  1  0.786900  0.979400  0.183500  1
  O  O2941  1  0.713100  0.479400  0.683500  1
  O  O2942  1  0.213100  0.479400  0.183500  1
  O  O2943  1  0.713100  0.020600  0.316500  1
  O  O2944  1  0.213100  0.020600  0.816500  1
  O  O2945  1  0.314800  0.568200  0.300900  1
  O  O2946  1  0.814800  0.568200  0.800900  1
  O  O2947  1  0.314800  0.931800  0.699100  1
  O  O2948  1  0.814800  0.931800  0.199100  1
  O  O2949  1  0.685200  0.431800  0.699100  1
  O  O2950  1  0.185200  0.431800  0.199100  1
  O  O2951  1  0.685200  0.068200  0.300900  1
  O  O2952  1  0.185200  0.068200  0.800900  1
  O  O2953  1  0.052400  0.009400  0.324300  1
  O  O2954  1  0.552400  0.009400  0.824300  1
  O  O2955  1  0.052400  0.490600  0.675700  1
  O  O2956  1  0.552400  0.490600  0.175700  1
  O  O2957  1  0.947600  0.990600  0.675700  1
  O  O2958  1  0.447600  0.990600  0.175700  1
  O  O2959  1  0.947600  0.509400  0.324300  1
  O  O2960  1  0.447600  0.509400  0.824300  1
  O  O2961  1  0.032400  0.056700  0.357900  1
  O  O2962  1  0.532400  0.056700  0.857900  1
  O  O2963  1  0.032400  0.443300  0.642100  1
  O  O2964  1  0.532400  0.443300  0.142100  1
  O  O2965  1  0.967600  0.943300  0.642100  1
  O  O2966  1  0.467600  0.943300  0.142100  1
  O  O2967  1  0.967600  0.556700  0.357900  1
  O  O2968  1  0.467600  0.556700  0.857900  1
  O  O2969  1  0.076800  0.068400  0.319700  1
  O  O2970  1  0.576800  0.068400  0.819700  1
  O  O2971  1  0.076800  0.431600  0.680300  1
  O  O2972  1  0.576800  0.431600  0.180300  1
  O  O2973  1  0.923200  0.931600  0.680300  1
  O  O2974  1  0.423200  0.931600  0.180300  1
  O  O2975  1  0.923200  0.568400  0.319700  1
  O  O2976  1  0.423200  0.568400  0.819700  1
  O  O2977  1  0.997500  0.053100  0.316200  1
  O  O2978  1  0.497500  0.053100  0.816200  1
  O  O2979  1  0.997500  0.446900  0.683800  1
  O  O2980  1  0.497500  0.446900  0.183800  1
  O  O2981  1  0.002500  0.946900  0.683800  1
  O  O2982  1  0.502500  0.946900  0.183800  1
  O  O2983  1  0.002500  0.553100  0.316200  1
  O  O2984  1  0.502500  0.553100  0.816200  1
  O  O2985  1  0.836000  0.564500  0.220900  1
  O  O2986  1  0.336000  0.564500  0.720900  1
  O  O2987  1  0.836000  0.935500  0.779100  1
  O  O2988  1  0.336000  0.935500  0.279100  1
  O  O2989  1  0.164000  0.435500  0.779100  1
  O  O2990  1  0.664000  0.435500  0.279100  1
  O  O2991  1  0.164000  0.064500  0.220900  1
  O  O2992  1  0.664000  0.064500  0.720900  1
  O  O2993  1  0.916900  0.567900  0.219200  1
  O  O2994  1  0.416900  0.567900  0.719200  1
  O  O2995  1  0.916900  0.932100  0.780800  1
  O  O2996  1  0.416900  0.932100  0.280800  1
  O  O2997  1  0.083100  0.432100  0.780800  1
  O  O2998  1  0.583100  0.432100  0.280800  1
  O  O2999  1  0.083100  0.067900  0.219200  1
  O  O3000  1  0.583100  0.067900  0.719200  1
  O  O3001  1  0.875600  0.580500  0.261200  1
  O  O3002  1  0.375600  0.580500  0.761200  1
  O  O3003  1  0.875600  0.919500  0.738800  1
  O  O3004  1  0.375600  0.919500  0.238800  1
  O  O3005  1  0.124400  0.419500  0.738800  1
  O  O3006  1  0.624400  0.419500  0.238800  1
  O  O3007  1  0.124400  0.080500  0.261200  1
  O  O3008  1  0.624400  0.080500  0.761200  1
  O  O3009  1  0.155700  0.918100  0.414400  1
  O  O3010  1  0.655700  0.918100  0.914400  1
  O  O3011  1  0.155700  0.581900  0.585600  1
  O  O3012  1  0.655700  0.581900  0.085600  1
  O  O3013  1  0.844300  0.081900  0.585600  1
  O  O3014  1  0.344300  0.081900  0.085600  1
  O  O3015  1  0.844300  0.418100  0.414400  1
  O  O3016  1  0.344300  0.418100  0.914400  1
  O  O3017  1  0.205700  0.876700  0.391800  1
  O  O3018  1  0.705700  0.876700  0.891800  1
  O  O3019  1  0.205700  0.623300  0.608200  1
  O  O3020  1  0.705700  0.623300  0.108200  1
  O  O3021  1  0.794300  0.123300  0.608200  1
  O  O3022  1  0.294300  0.123300  0.108200  1
  O  O3023  1  0.794300  0.376700  0.391800  1
  O  O3024  1  0.294300  0.376700  0.891800  1
  O  O3025  1  0.201600  0.923000  0.377100  1
  O  O3026  1  0.701600  0.923000  0.877100  1
  O  O3027  1  0.201600  0.577000  0.622900  1
  O  O3028  1  0.701600  0.577000  0.122900  1
  O  O3029  1  0.798400  0.077000  0.622900  1
  O  O3030  1  0.298400  0.077000  0.122900  1
  O  O3031  1  0.798400  0.423000  0.377100  1
  O  O3032  1  0.298400  0.423000  0.877100  1
  O  O3033  1  0.593600  0.849700  0.249700  1
  O  O3034  1  0.093600  0.849700  0.749700  1
  O  O3035  1  0.593600  0.650300  0.750300  1
  O  O3036  1  0.093600  0.650300  0.250300  1
  O  O3037  1  0.406400  0.150300  0.750300  1
  O  O3038  1  0.906400  0.150300  0.250300  1
  O  O3039  1  0.406400  0.349700  0.249700  1
  O  O3040  1  0.906400  0.349700  0.749700  1
  O  O3041  1  0.526500  0.866300  0.269900  1
  O  O3042  1  0.026500  0.866300  0.769900  1
  O  O3043  1  0.526500  0.633700  0.730100  1
  O  O3044  1  0.026500  0.633700  0.230100  1
  O  O3045  1  0.473500  0.133700  0.730100  1
  O  O3046  1  0.973500  0.133700  0.230100  1
  O  O3047  1  0.473500  0.366300  0.269900  1
  O  O3048  1  0.973500  0.366300  0.769900  1
  O  O3049  1  0.542000  0.878600  0.228300  1
  O  O3050  1  0.042000  0.878600  0.728300  1
  O  O3051  1  0.542000  0.621400  0.771700  1
  O  O3052  1  0.042000  0.621400  0.271700  1
  O  O3053  1  0.458000  0.121400  0.771700  1
  O  O3054  1  0.958000  0.121400  0.271700  1
  O  O3055  1  0.458000  0.378600  0.228300  1
  O  O3056  1  0.958000  0.378600  0.728300  1
  O  O3057  1  0.092200  0.938800  0.478800  1
  O  O3058  1  0.592200  0.938800  0.978800  1
  O  O3059  1  0.092200  0.561200  0.521200  1
  O  O3060  1  0.592200  0.561200  0.021200  1
  O  O3061  1  0.907800  0.061200  0.521200  1
  O  O3062  1  0.407800  0.061200  0.021200  1
  O  O3063  1  0.907800  0.438800  0.478800  1
  O  O3064  1  0.407800  0.438800  0.978800  1
  O  O3065  1  0.089200  0.883900  0.489000  1
  O  O3066  1  0.589200  0.883900  0.989000  1
  O  O3067  1  0.089200  0.616100  0.511000  1
  O  O3068  1  0.589200  0.616100  0.011000  1
  O  O3069  1  0.910800  0.116100  0.511000  1
  O  O3070  1  0.410800  0.116100  0.011000  1
  O  O3071  1  0.910800  0.383900  0.489000  1
  O  O3072  1  0.410800  0.383900  0.989000  1
  O  O3073  1  0.067100  0.932000  0.521900  1
  O  O3074  1  0.567100  0.932000  0.021900  1
  O  O3075  1  0.067100  0.568000  0.478100  1
  O  O3076  1  0.567100  0.568000  0.978100  1
  O  O3077  1  0.932900  0.068000  0.478100  1
  O  O3078  1  0.432900  0.068000  0.978100  1
  O  O3079  1  0.932900  0.432000  0.521900  1
  O  O3080  1  0.432900  0.432000  0.021900  1
  O  O3081  1  0.109500  0.986200  0.515300  1
  O  O3082  1  0.609500  0.986200  0.015300  1
  O  O3083  1  0.109500  0.513800  0.484700  1
  O  O3084  1  0.609500  0.513800  0.984700  1
  O  O3085  1  0.890500  0.013800  0.484700  1
  O  O3086  1  0.390500  0.013800  0.984700  1
  O  O3087  1  0.890500  0.486200  0.515300  1
  O  O3088  1  0.390500  0.486200  0.015300  1
  O  O3089  1  0.872600  0.831200  0.532400  1
  O  O3090  1  0.372600  0.831200  0.032400  1
  O  O3091  1  0.872600  0.668800  0.467600  1
  O  O3092  1  0.372600  0.668800  0.967600  1
  O  O3093  1  0.127400  0.168800  0.467600  1
  O  O3094  1  0.627400  0.168800  0.967600  1
  O  O3095  1  0.127400  0.331200  0.532400  1
  O  O3096  1  0.627400  0.331200  0.032400  1
  O  O3097  1  0.913900  0.865000  0.567200  1
  O  O3098  1  0.413900  0.865000  0.067200  1
  O  O3099  1  0.913900  0.635000  0.432800  1
  O  O3100  1  0.413900  0.635000  0.932800  1
  O  O3101  1  0.086100  0.135000  0.432800  1
  O  O3102  1  0.586100  0.135000  0.932800  1
  O  O3103  1  0.086100  0.365000  0.567200  1
  O  O3104  1  0.586100  0.365000  0.067200  1
  O  O3105  1  0.832200  0.865000  0.569000  1
  O  O3106  1  0.332200  0.865000  0.069000  1
  O  O3107  1  0.832200  0.635000  0.431000  1
  O  O3108  1  0.332200  0.635000  0.931000  1
  O  O3109  1  0.167800  0.135000  0.431000  1
  O  O3110  1  0.667800  0.135000  0.931000  1
  O  O3111  1  0.167800  0.365000  0.569000  1
  O  O3112  1  0.667800  0.365000  0.069000  1
  O  O3113  1  0.635300  0.488400  0.520900  1
  O  O3114  1  0.135300  0.488400  0.020900  1
  O  O3115  1  0.635300  0.011600  0.479100  1
  O  O3116  1  0.135300  0.011600  0.979100  1
  O  O3117  1  0.364700  0.511600  0.479100  1
  O  O3118  1  0.864700  0.511600  0.979100  1
  O  O3119  1  0.364700  0.988400  0.520900  1
  O  O3120  1  0.864700  0.988400  0.020900  1
  O  O3121  1  0.570000  0.459000  0.531000  1
  O  O3122  1  0.070000  0.459000  0.031000  1
  O  O3123  1  0.570000  0.041000  0.469000  1
  O  O3124  1  0.070000  0.041000  0.969000  1
  O  O3125  1  0.430000  0.541000  0.469000  1
  O  O3126  1  0.930000  0.541000  0.969000  1
  O  O3127  1  0.430000  0.959000  0.531000  1
  O  O3128  1  0.930000  0.959000  0.031000  1
  O  O3129  1  0.561700  0.513100  0.521900  1
  O  O3130  1  0.061700  0.513100  0.021900  1
  O  O3131  1  0.561700  0.986900  0.478100  1
  O  O3132  1  0.061700  0.986900  0.978100  1
  O  O3133  1  0.438300  0.486900  0.478100  1
  O  O3134  1  0.938300  0.486900  0.978100  1
  O  O3135  1  0.438300  0.013100  0.521900  1
  O  O3136  1  0.938300  0.013100  0.021900  1
  O  O3137  1  0.599000  0.425700  0.481100  1
  O  O3138  1  0.099000  0.425700  0.981100  1
  O  O3139  1  0.599000  0.074300  0.518900  1
  O  O3140  1  0.099000  0.074300  0.018900  1
  O  O3141  1  0.401000  0.574300  0.518900  1
  O  O3142  1  0.901000  0.574300  0.018900  1
  O  O3143  1  0.401000  0.925700  0.481100  1
  O  O3144  1  0.901000  0.925700  0.981100  1
  O  O3145  1  0.217700  0.975100  0.535500  1
  O  O3146  1  0.717700  0.975100  0.035500  1
  O  O3147  1  0.217700  0.524900  0.464500  1
  O  O3148  1  0.717700  0.524900  0.964500  1
  O  O3149  1  0.782300  0.024900  0.464500  1
  O  O3150  1  0.282300  0.024900  0.964500  1
  O  O3151  1  0.782300  0.475100  0.535500  1
  O  O3152  1  0.282300  0.475100  0.035500  1
  O  O3153  1  0.125600  0.081800  0.381100  1
  O  O3154  1  0.625600  0.081800  0.881100  1
  O  O3155  1  0.125600  0.418200  0.618900  1
  O  O3156  1  0.625600  0.418200  0.118900  1
  O  O3157  1  0.874400  0.918200  0.618900  1
  O  O3158  1  0.374400  0.918200  0.118900  1
  O  O3159  1  0.874400  0.581800  0.381100  1
  O  O3160  1  0.374400  0.581800  0.881100  1
  O  O3161  1  0.424900  0.000200  0.426300  1
  O  O3162  1  0.924900  0.000200  0.926300  1
  O  O3163  1  0.424900  0.499800  0.573700  1
  O  O3164  1  0.924900  0.499800  0.073700  1
  O  O3165  1  0.575100  0.999800  0.573700  1
  O  O3166  1  0.075100  0.999800  0.073700  1
  O  O3167  1  0.575100  0.500200  0.426300  1
  O  O3168  1  0.075100  0.500200  0.926300  1
  O  O3169  1  0.769600  0.584000  0.267900  1
  O  O3170  1  0.269600  0.584000  0.767900  1
  O  O3171  1  0.769600  0.916000  0.732100  1
  O  O3172  1  0.269600  0.916000  0.232100  1
  O  O3173  1  0.230400  0.416000  0.732100  1
  O  O3174  1  0.730400  0.416000  0.232100  1
  O  O3175  1  0.230400  0.084000  0.267900  1
  O  O3176  1  0.730400  0.084000  0.767900  1
  O  O3177  1  0.325600  0.997700  0.430300  1
  O  O3178  1  0.825600  0.997700  0.930300  1
  O  O3179  1  0.325600  0.502300  0.569700  1
  O  O3180  1  0.825600  0.502300  0.069700  1
  O  O3181  1  0.674400  0.002300  0.569700  1
  O  O3182  1  0.174400  0.002300  0.069700  1
  O  O3183  1  0.674400  0.497700  0.430300  1
  O  O3184  1  0.174400  0.497700  0.930300  1
  O  O3185  1  0.482400  0.004400  0.379500  1
  O  O3186  1  0.982400  0.004400  0.879500  1
  O  O3187  1  0.482400  0.495600  0.620500  1
  O  O3188  1  0.982400  0.495600  0.120500  1
  O  O3189  1  0.517600  0.995600  0.620500  1
  O  O3190  1  0.017600  0.995600  0.120500  1
  O  O3191  1  0.517600  0.504400  0.379500  1
  O  O3192  1  0.017600  0.504400  0.879500  1
  O  O3193  1  0.986700  0.579100  0.266500  1
  O  O3194  1  0.486700  0.579100  0.766500  1
  O  O3195  1  0.986700  0.920900  0.733500  1
  O  O3196  1  0.486700  0.920900  0.233500  1
  O  O3197  1  0.013300  0.420900  0.733500  1
  O  O3198  1  0.513300  0.420900  0.233500  1
  O  O3199  1  0.013300  0.079100  0.266500  1
  O  O3200  1  0.513300  0.079100  0.766500  1
  O  O3201  1  0.701100  0.948300  0.519200  1
  O  O3202  1  0.201100  0.948300  0.019200  1
  O  O3203  1  0.701100  0.551700  0.480800  1
  O  O3204  1  0.201100  0.551700  0.980800  1
  O  O3205  1  0.298900  0.051700  0.480800  1
  O  O3206  1  0.798900  0.051700  0.980800  1
  O  O3207  1  0.298900  0.448300  0.519200  1
  O  O3208  1  0.798900  0.448300  0.019200  1
  O  O3209  1  0.048800  0.853200  0.539600  1
  O  O3210  1  0.548800  0.853200  0.039600  1
  O  O3211  1  0.048800  0.646800  0.460400  1
  O  O3212  1  0.548800  0.646800  0.960400  1
  O  O3213  1  0.951200  0.146800  0.460400  1
  O  O3214  1  0.451200  0.146800  0.960400  1
  O  O3215  1  0.951200  0.353200  0.539600  1
  O  O3216  1  0.451200  0.353200  0.039600  1
  O  O3217  1  0.641500  0.492900  0.320300  1
  O  O3218  1  0.141500  0.492900  0.820300  1
  O  O3219  1  0.641500  0.007100  0.679700  1
  O  O3220  1  0.141500  0.007100  0.179700  1
  O  O3221  1  0.358500  0.507100  0.679700  1
  O  O3222  1  0.858500  0.507100  0.179700  1
  O  O3223  1  0.358500  0.992900  0.320300  1
  O  O3224  1  0.858500  0.992900  0.820300  1
  O  O3225  1  0.575500  0.661300  0.331700  1
  O  O3226  1  0.075500  0.661300  0.831700  1
  O  O3227  1  0.575500  0.838700  0.668300  1
  O  O3228  1  0.075500  0.838700  0.168300  1
  O  O3229  1  0.424500  0.338700  0.668300  1
  O  O3230  1  0.924500  0.338700  0.168300  1
  O  O3231  1  0.424500  0.161300  0.331700  1
  O  O3232  1  0.924500  0.161300  0.831700  1
  O  O3233  1  0.746000  0.656300  0.156000  1
  O  O3234  1  0.246000  0.656300  0.656000  1
  O  O3235  1  0.746000  0.843700  0.844000  1
  O  O3236  1  0.246000  0.843700  0.344000  1
  O  O3237  1  0.254000  0.343700  0.844000  1
  O  O3238  1  0.754000  0.343700  0.344000  1
  O  O3239  1  0.254000  0.156300  0.156000  1
  O  O3240  1  0.754000  0.156300  0.656000  1
  O  O3241  1  0.612000  0.888000  0.440900  1
  O  O3242  1  0.112000  0.888000  0.940900  1
  O  O3243  1  0.612000  0.612000  0.559100  1
  O  O3244  1  0.112000  0.612000  0.059100  1
  O  O3245  1  0.388000  0.112000  0.559100  1
  O  O3246  1  0.888000  0.112000  0.059100  1
  O  O3247  1  0.388000  0.388000  0.440900  1
  O  O3248  1  0.888000  0.388000  0.940900  1
  O  O3249  1  0.557400  0.952700  0.381200  1
  O  O3250  1  0.057400  0.952700  0.881200  1
  O  O3251  1  0.557400  0.547300  0.618800  1
  O  O3252  1  0.057400  0.547300  0.118800  1
  O  O3253  1  0.442600  0.047300  0.618800  1
  O  O3254  1  0.942600  0.047300  0.118800  1
  O  O3255  1  0.442600  0.452700  0.381200  1
  O  O3256  1  0.942600  0.452700  0.881200  1
  O  O3257  1  0.690000  0.835100  0.529900  1
  O  O3258  1  0.190000  0.835100  0.029900  1
  O  O3259  1  0.690000  0.664900  0.470100  1
  O  O3260  1  0.190000  0.664900  0.970100  1
  O  O3261  1  0.310000  0.164900  0.470100  1
  O  O3262  1  0.810000  0.164900  0.970100  1
  O  O3263  1  0.310000  0.335100  0.529900  1
  O  O3264  1  0.810000  0.335100  0.029900  1
  O  O3265  1  0.509700  0.837400  0.347800  1
  O  O3266  1  0.009700  0.837400  0.847800  1
  O  O3267  1  0.509700  0.662600  0.652200  1
  O  O3268  1  0.009700  0.662600  0.152200  1
  O  O3269  1  0.490300  0.162600  0.652200  1
  O  O3270  1  0.990300  0.162600  0.152200  1
  O  O3271  1  0.490300  0.337400  0.347800  1
  O  O3272  1  0.990300  0.337400  0.847800  1
  O  O3273  1  0.555000  0.559600  0.471100  1
  O  O3274  1  0.055000  0.559600  0.971100  1
  O  O3275  1  0.555000  0.940400  0.528900  1
  O  O3276  1  0.055000  0.940400  0.028900  1
  O  O3277  1  0.445000  0.440400  0.528900  1
  O  O3278  1  0.945000  0.440400  0.028900  1
  O  O3279  1  0.445000  0.059600  0.471100  1
  O  O3280  1  0.945000  0.059600  0.971100  1
  O  O3281  1  0.971400  0.562900  0.054900  1
  O  O3282  1  0.471400  0.562900  0.554900  1
  O  O3283  1  0.971400  0.937100  0.945100  1
  O  O3284  1  0.471400  0.937100  0.445100  1
  O  O3285  1  0.028600  0.437100  0.945100  1
  O  O3286  1  0.528600  0.437100  0.445100  1
  O  O3287  1  0.028600  0.062900  0.054900  1
  O  O3288  1  0.528600  0.062900  0.554900  1
  O  O3289  1  0.660700  0.879600  0.517000  1
  O  O3290  1  0.160700  0.879600  0.017000  1
  O  O3291  1  0.660700  0.620400  0.483000  1
  O  O3292  1  0.160700  0.620400  0.983000  1
  O  O3293  1  0.339300  0.120400  0.483000  1
  O  O3294  1  0.839300  0.120400  0.983000  1
  O  O3295  1  0.339300  0.379600  0.517000  1
  O  O3296  1  0.839300  0.379600  0.017000  1
  O  O3297  1  0.529700  0.886800  0.394400  1
  O  O3298  1  0.029700  0.886800  0.894400  1
  O  O3299  1  0.529700  0.613200  0.605600  1
  O  O3300  1  0.029700  0.613200  0.105600  1
  O  O3301  1  0.470300  0.113200  0.605600  1
  O  O3302  1  0.970300  0.113200  0.105600  1
  O  O3303  1  0.470300  0.386800  0.394400  1
  O  O3304  1  0.970300  0.386800  0.894400  1
  O  O3305  1  0.816400  0.985300  0.331700  1
  O  O3306  1  0.316400  0.985300  0.831700  1
  O  O3307  1  0.816400  0.514700  0.668300  1
  O  O3308  1  0.316400  0.514700  0.168300  1
  O  O3309  1  0.183600  0.014700  0.668300  1
  O  O3310  1  0.683600  0.014700  0.168300  1
  O  O3311  1  0.183600  0.485300  0.331700  1
  O  O3312  1  0.683600  0.485300  0.831700  1
  O  O3313  1  0.296400  0.528300  0.387300  1
  O  O3314  1  0.796400  0.528300  0.887300  1
  O  O3315  1  0.296400  0.971700  0.612700  1
  O  O3316  1  0.796400  0.971700  0.112700  1
  O  O3317  1  0.703600  0.471700  0.612700  1
  O  O3318  1  0.203600  0.471700  0.112700  1
  O  O3319  1  0.703600  0.028300  0.387300  1
  O  O3320  1  0.203600  0.028300  0.887300  1
  O  O3321  1  0.695700  0.507600  0.342400  1
  O  O3322  1  0.195700  0.507600  0.842400  1
  O  O3323  1  0.695700  0.992400  0.657600  1
  O  O3324  1  0.195700  0.992400  0.157600  1
  O  O3325  1  0.304300  0.492400  0.657600  1
  O  O3326  1  0.804300  0.492400  0.157600  1
  O  O3327  1  0.304300  0.007600  0.342400  1
  O  O3328  1  0.804300  0.007600  0.842400  1
  O  O3329  1  0.452600  0.558500  0.402500  1
  O  O3330  1  0.952600  0.558500  0.902500  1
  O  O3331  1  0.452600  0.941500  0.597500  1
  O  O3332  1  0.952600  0.941500  0.097500  1
  O  O3333  1  0.547400  0.441500  0.597500  1
  O  O3334  1  0.047400  0.441500  0.097500  1
  O  O3335  1  0.547400  0.058500  0.402500  1
  O  O3336  1  0.047400  0.058500  0.902500  1
  O  O3337  1  0.522300  0.615800  0.495600  1
  O  O3338  1  0.022300  0.615800  0.995600  1
  O  O3339  1  0.522300  0.884200  0.504400  1
  O  O3340  1  0.022300  0.884200  0.004400  1
  O  O3341  1  0.477700  0.384200  0.504400  1
  O  O3342  1  0.977700  0.384200  0.004400  1
  O  O3343  1  0.477700  0.115800  0.495600  1
  O  O3344  1  0.977700  0.115800  0.995600  1
  O  O3345  1  0.311700  0.552800  0.536900  1
  O  O3346  1  0.811700  0.552800  0.036900  1
  O  O3347  1  0.311700  0.947200  0.463100  1
  O  O3348  1  0.811700  0.947200  0.963100  1
  O  O3349  1  0.688300  0.447200  0.463100  1
  O  O3350  1  0.188300  0.447200  0.963100  1
  O  O3351  1  0.688300  0.052800  0.536900  1
  O  O3352  1  0.188300  0.052800  0.036900  1
  O  O3353  1  0.704500  0.501700  0.510000  1
  O  O3354  1  0.204500  0.501700  0.010000  1
  O  O3355  1  0.704500  0.998300  0.490000  1
  O  O3356  1  0.204500  0.998300  0.990000  1
  O  O3357  1  0.295500  0.498300  0.490000  1
  O  O3358  1  0.795500  0.498300  0.990000  1
  O  O3359  1  0.295500  0.001700  0.510000  1
  O  O3360  1  0.795500  0.001700  0.010000  1
  O  O3361  1  0.517000  0.412400  0.539600  1
  O  O3362  1  0.017000  0.412400  0.039600  1
  O  O3363  1  0.517000  0.087600  0.460400  1
  O  O3364  1  0.017000  0.087600  0.960400  1
  O  O3365  1  0.483000  0.587600  0.460400  1
  O  O3366  1  0.983000  0.587600  0.960400  1
  O  O3367  1  0.483000  0.912400  0.539600  1
  O  O3368  1  0.983000  0.912400  0.039600  1
  O  O3369  1  0.512000  0.755500  0.366900  1
  O  O3370  1  0.012000  0.755500  0.866900  1
  O  O3371  1  0.512000  0.744500  0.633100  1
  O  O3372  1  0.012000  0.744500  0.133100  1
  O  O3373  1  0.488000  0.244500  0.633100  1
  O  O3374  1  0.988000  0.244500  0.133100  1
  O  O3375  1  0.488000  0.255500  0.366900  1
  O  O3376  1  0.988000  0.255500  0.866900  1
  O  O3377  1  0.173000  0.845300  0.445000  1
  O  O3378  1  0.673000  0.845300  0.945000  1
  O  O3379  1  0.173000  0.654700  0.555000  1
  O  O3380  1  0.673000  0.654700  0.055000  1
  O  O3381  1  0.827000  0.154700  0.555000  1
  O  O3382  1  0.327000  0.154700  0.055000  1
  O  O3383  1  0.827000  0.345300  0.445000  1
  O  O3384  1  0.327000  0.345300  0.945000  1
  O  O3385  1  0.231200  0.593600  0.518500  1
  O  O3386  1  0.731200  0.593600  0.018500  1
  O  O3387  1  0.231200  0.906400  0.481500  1
  O  O3388  1  0.731200  0.906400  0.981500  1
  O  O3389  1  0.768800  0.406400  0.481500  1
  O  O3390  1  0.268800  0.406400  0.981500  1
  O  O3391  1  0.768800  0.093600  0.518500  1
  O  O3392  1  0.268800  0.093600  0.018500  1
  O  O3393  1  0.922800  0.989400  0.317900  1
  O  O3394  1  0.422800  0.989400  0.817900  1
  O  O3395  1  0.922800  0.510600  0.682100  1
  O  O3396  1  0.422800  0.510600  0.182100  1
  O  O3397  1  0.077200  0.010600  0.682100  1
  O  O3398  1  0.577200  0.010600  0.182100  1
  O  O3399  1  0.077200  0.489400  0.317900  1
  O  O3400  1  0.577200  0.489400  0.817900  1
  O  O3401  1  0.745000  0.492200  0.572800  1
  O  O3402  1  0.245000  0.492200  0.072800  1
  O  O3403  1  0.745000  0.007800  0.427200  1
  O  O3404  1  0.245000  0.007800  0.927200  1
  O  O3405  1  0.255000  0.507800  0.427200  1
  O  O3406  1  0.755000  0.507800  0.927200  1
  O  O3407  1  0.255000  0.992200  0.572800  1
  O  O3408  1  0.755000  0.992200  0.072800  1
  O  O3409  1  0.316700  0.607200  0.446800  1
  O  O3410  1  0.816700  0.607200  0.946800  1
  O  O3411  1  0.316700  0.892800  0.553200  1
  O  O3412  1  0.816700  0.892800  0.053200  1
  O  O3413  1  0.683300  0.392800  0.553200  1
  O  O3414  1  0.183300  0.392800  0.053200  1
  O  O3415  1  0.683300  0.107200  0.446800  1
  O  O3416  1  0.183300  0.107200  0.946800  1
  O  O3417  1  0.464300  0.359800  0.424800  1
  O  O3418  1  0.964300  0.359800  0.924800  1
  O  O3419  1  0.464300  0.140200  0.575200  1
  O  O3420  1  0.964300  0.140200  0.075200  1
  O  O3421  1  0.535700  0.640200  0.575200  1
  O  O3422  1  0.035700  0.640200  0.075200  1
  O  O3423  1  0.535700  0.859800  0.424800  1
  O  O3424  1  0.035700  0.859800  0.924800  1
  O  O3425  1  0.368000  0.646600  0.526200  1
  O  O3426  1  0.868000  0.646600  0.026200  1
  O  O3427  1  0.368000  0.853400  0.473800  1
  O  O3428  1  0.868000  0.853400  0.973800  1
  O  O3429  1  0.632000  0.353400  0.473800  1
  O  O3430  1  0.132000  0.353400  0.973800  1
  O  O3431  1  0.632000  0.146600  0.526200  1
  O  O3432  1  0.132000  0.146600  0.026200  1
  O  O3433  1  0.074000  0.024000  0.586900  1
  O  O3434  1  0.574000  0.024000  0.086900  1
  O  O3435  1  0.074000  0.476000  0.413100  1
  O  O3436  1  0.574000  0.476000  0.913100  1
  O  O3437  1  0.926000  0.976000  0.413100  1
  O  O3438  1  0.426000  0.976000  0.913100  1
  O  O3439  1  0.926000  0.524000  0.586900  1
  O  O3440  1  0.426000  0.524000  0.086900  1
  O  O3441  1  0.387700  0.497300  0.400500  1
  O  O3442  1  0.887700  0.497300  0.900500  1
  O  O3443  1  0.387700  0.002700  0.599500  1
  O  O3444  1  0.887700  0.002700  0.099500  1
  O  O3445  1  0.612300  0.502700  0.599500  1
  O  O3446  1  0.112300  0.502700  0.099500  1
  O  O3447  1  0.612300  0.997300  0.400500  1
  O  O3448  1  0.112300  0.997300  0.900500  1
  O  O3449  1  0.213000  0.716300  0.638700  1
  O  O3450  1  0.713000  0.716300  0.138700  1
  O  O3451  1  0.213000  0.783700  0.361300  1
  O  O3452  1  0.713000  0.783700  0.861300  1
  O  O3453  1  0.787000  0.283700  0.361300  1
  O  O3454  1  0.287000  0.283700  0.861300  1
  O  O3455  1  0.787000  0.216300  0.638700  1
  O  O3456  1  0.287000  0.216300  0.138700  1
  O  O3457  1  0.648900  0.750000  0.500000  1
  O  O3458  1  0.148900  0.750000  0.000000  1
  O  O3459  1  0.351100  0.250000  0.500000  1
  O  O3460  1  0.851100  0.250000  1.000000  1
  O  O3461  1  0.313200  0.770500  0.614200  1
  O  O3462  1  0.813200  0.770500  0.114200  1
  O  O3463  1  0.313200  0.729500  0.385800  1
  O  O3464  1  0.813200  0.729500  0.885800  1
  O  O3465  1  0.686800  0.229500  0.385800  1
  O  O3466  1  0.186800  0.229500  0.885800  1
  O  O3467  1  0.686800  0.270500  0.614200  1
  O  O3468  1  0.186800  0.270500  0.114200  1
  O  O3469  1  0.686000  0.742500  0.173900  1
  O  O3470  1  0.186000  0.742500  0.673900  1
  O  O3471  1  0.686000  0.757500  0.826100  1
  O  O3472  1  0.186000  0.757500  0.326100  1
  O  O3473  1  0.314000  0.257500  0.826100  1
  O  O3474  1  0.814000  0.257500  0.326100  1
  O  O3475  1  0.314000  0.242500  0.173900  1
  O  O3476  1  0.814000  0.242500  0.673900  1
  O  O3477  1  0.176100  0.645400  0.328300  1
  O  O3478  1  0.676100  0.645400  0.828300  1
  O  O3479  1  0.176100  0.854600  0.671700  1
  O  O3480  1  0.676100  0.854600  0.171700  1
  O  O3481  1  0.823900  0.354600  0.671700  1
  O  O3482  1  0.323900  0.354600  0.171700  1
  O  O3483  1  0.823900  0.145400  0.328300  1
  O  O3484  1  0.323900  0.145400  0.828300  1
  O  O3485  1  0.469900  0.730200  0.531200  1
  O  O3486  1  0.969900  0.730200  0.031200  1
  O  O3487  1  0.469900  0.769800  0.468800  1
  O  O3488  1  0.969900  0.769800  0.968800  1
  O  O3489  1  0.530100  0.269800  0.468800  1
  O  O3490  1  0.030100  0.269800  0.968800  1
  O  O3491  1  0.530100  0.230200  0.531200  1
  O  O3492  1  0.030100  0.230200  0.031200  1
  O  O3493  1  0.427900  0.614400  0.392500  1
  O  O3494  1  0.927900  0.614400  0.892500  1
  O  O3495  1  0.427900  0.885600  0.607500  1
  O  O3496  1  0.927900  0.885600  0.107500  1
  O  O3497  1  0.572100  0.385600  0.607500  1
  O  O3498  1  0.072100  0.385600  0.107500  1
  O  O3499  1  0.572100  0.114400  0.392500  1
  O  O3500  1  0.072100  0.114400  0.892500  1
  O  O3501  1  0.442000  0.664900  0.490200  1
  O  O3502  1  0.942000  0.664900  0.990200  1
  O  O3503  1  0.442000  0.835100  0.509800  1
  O  O3504  1  0.942000  0.835100  0.009800  1
  O  O3505  1  0.558000  0.335100  0.509800  1
  O  O3506  1  0.058000  0.335100  0.009800  1
  O  O3507  1  0.558000  0.164900  0.490200  1
  O  O3508  1  0.058000  0.164900  0.990200  1
  O  O3509  1  0.574900  0.717500  0.527400  1
  O  O3510  1  0.074900  0.717500  0.027400  1
  O  O3511  1  0.574900  0.782500  0.472600  1
  O  O3512  1  0.074900  0.782500  0.972600  1
  O  O3513  1  0.425100  0.282500  0.472600  1
  O  O3514  1  0.925100  0.282500  0.972600  1
  O  O3515  1  0.425100  0.217500  0.527400  1
  O  O3516  1  0.925100  0.217500  0.027400  1
  O  O3517  1  0.040000  0.662800  0.204800  1
  O  O3518  1  0.540000  0.662800  0.704800  1
  O  O3519  1  0.040000  0.837200  0.795200  1
  O  O3520  1  0.540000  0.837200  0.295200  1
  O  O3521  1  0.960000  0.337200  0.795200  1
  O  O3522  1  0.460000  0.337200  0.295200  1
  O  O3523  1  0.960000  0.162800  0.204800  1
  O  O3524  1  0.460000  0.162800  0.704800  1
  O  O3525  1  0.525600  0.775300  0.423600  1
  O  O3526  1  0.025600  0.775300  0.923600  1
  O  O3527  1  0.525600  0.724700  0.576400  1
  O  O3528  1  0.025600  0.724700  0.076400  1
  O  O3529  1  0.474400  0.224700  0.576400  1
  O  O3530  1  0.974400  0.224700  0.076400  1
  O  O3531  1  0.474400  0.275300  0.423600  1
  O  O3532  1  0.974400  0.275300  0.923600  1
  O  O3533  1  0.975700  0.826400  0.541500  1
  O  O3534  1  0.475700  0.826400  0.041500  1
  O  O3535  1  0.975700  0.673600  0.458500  1
  O  O3536  1  0.475700  0.673600  0.958500  1
  O  O3537  1  0.024300  0.173600  0.458500  1
  O  O3538  1  0.524300  0.173600  0.958500  1
  O  O3539  1  0.024300  0.326400  0.541500  1
  O  O3540  1  0.524300  0.326400  0.041500  1
  O  O3541  1  0.542000  0.732800  0.318200  1
  O  O3542  1  0.042000  0.732800  0.818200  1
  O  O3543  1  0.542000  0.767200  0.681800  1
  O  O3544  1  0.042000  0.767200  0.181800  1
  O  O3545  1  0.458000  0.267200  0.681800  1
  O  O3546  1  0.958000  0.267200  0.181800  1
  O  O3547  1  0.458000  0.232800  0.318200  1
  O  O3548  1  0.958000  0.232800  0.818200  1
  O  O3549  1  0.982700  0.982700  0.374900  1
  O  O3550  1  0.482700  0.982700  0.874900  1
  O  O3551  1  0.982700  0.517300  0.625100  1
  O  O3552  1  0.482700  0.517300  0.125100  1
  O  O3553  1  0.017300  0.017300  0.625100  1
  O  O3554  1  0.517300  0.017300  0.125100  1
  O  O3555  1  0.017300  0.482700  0.374900  1
  O  O3556  1  0.517300  0.482700  0.874900  1
  O  O3557  1  0.179000  0.757500  0.466300  1
  O  O3558  1  0.679000  0.757500  0.966300  1
  O  O3559  1  0.179000  0.742500  0.533700  1
  O  O3560  1  0.679000  0.742500  0.033700  1
  O  O3561  1  0.821000  0.242500  0.533700  1
  O  O3562  1  0.321000  0.242500  0.033700  1
  O  O3563  1  0.821000  0.257500  0.466300  1
  O  O3564  1  0.321000  0.257500  0.966300  1
  O  O3565  1  0.411500  0.665900  0.443300  1
  O  O3566  1  0.911500  0.665900  0.943300  1
  O  O3567  1  0.411500  0.834100  0.556700  1
  O  O3568  1  0.911500  0.834100  0.056700  1
  O  O3569  1  0.588500  0.334100  0.556700  1
  O  O3570  1  0.088500  0.334100  0.056700  1
  O  O3571  1  0.588500  0.165900  0.443300  1
  O  O3572  1  0.088500  0.165900  0.943300  1
  O  O3573  1  0.694000  0.423300  0.622100  1
  O  O3574  1  0.194000  0.423300  0.122100  1
  O  O3575  1  0.694000  0.076700  0.377900  1
  O  O3576  1  0.194000  0.076700  0.877900  1
  O  O3577  1  0.306000  0.576700  0.377900  1
  O  O3578  1  0.806000  0.576700  0.877900  1
  O  O3579  1  0.306000  0.923300  0.622100  1
  O  O3580  1  0.806000  0.923300  0.122100  1
  O  O3581  1  0.690500  0.319400  0.483600  1
  O  O3582  1  0.190500  0.319400  0.983600  1
  O  O3583  1  0.690500  0.180600  0.516400  1
  O  O3584  1  0.190500  0.180600  0.016400  1
  O  O3585  1  0.309500  0.680600  0.516400  1
  O  O3586  1  0.809500  0.680600  0.016400  1
  O  O3587  1  0.309500  0.819400  0.483600  1
  O  O3588  1  0.809500  0.819400  0.983600  1
  O  O3589  1  0.782000  0.510700  0.604000  1
  O  O3590  1  0.282000  0.510700  0.104000  1
  O  O3591  1  0.782000  0.989300  0.396000  1
  O  O3592  1  0.282000  0.989300  0.896000  1
  O  O3593  1  0.218000  0.489300  0.396000  1
  O  O3594  1  0.718000  0.489300  0.896000  1
  O  O3595  1  0.218000  0.010700  0.604000  1
  O  O3596  1  0.718000  0.010700  0.104000  1
  O  O3597  1  0.654000  0.543500  0.535000  1
  O  O3598  1  0.154000  0.543500  0.035000  1
  O  O3599  1  0.654000  0.956500  0.465000  1
  O  O3600  1  0.154000  0.956500  0.965000  1
  O  O3601  1  0.346000  0.456500  0.465000  1
  O  O3602  1  0.846000  0.456500  0.965000  1
  O  O3603  1  0.346000  0.043500  0.535000  1
  O  O3604  1  0.846000  0.043500  0.035000  1
  O  O3605  1  0.523000  0.378800  0.455400  1
  O  O3606  1  0.023000  0.378800  0.955400  1
  O  O3607  1  0.523000  0.121200  0.544600  1
  O  O3608  1  0.023000  0.121200  0.044600  1
  O  O3609  1  0.477000  0.621200  0.544600  1
  O  O3610  1  0.977000  0.621200  0.044600  1
  O  O3611  1  0.477000  0.878800  0.455400  1
  O  O3612  1  0.977000  0.878800  0.955400  1
  O  O3613  1  0.121900  0.888200  0.442300  1
  O  O3614  1  0.621900  0.888200  0.942300  1
  O  O3615  1  0.121900  0.611800  0.557700  1
  O  O3616  1  0.621900  0.611800  0.057700  1
  O  O3617  1  0.878100  0.111800  0.557700  1
  O  O3618  1  0.378100  0.111800  0.057700  1
  O  O3619  1  0.878100  0.388200  0.442300  1
  O  O3620  1  0.378100  0.388200  0.942300  1
  O  O3621  1  0.880800  0.822800  0.289500  1
  O  O3622  1  0.380800  0.822800  0.789500  1
  O  O3623  1  0.880800  0.677200  0.710500  1
  O  O3624  1  0.380800  0.677200  0.210500  1
  O  O3625  1  0.119200  0.177200  0.710500  1
  O  O3626  1  0.619200  0.177200  0.210500  1
  O  O3627  1  0.119200  0.322800  0.289500  1
  O  O3628  1  0.619200  0.322800  0.789500  1
  O  O3629  1  0.789700  0.823000  0.373700  1
  O  O3630  1  0.289700  0.823000  0.873700  1
  O  O3631  1  0.789700  0.677000  0.626300  1
  O  O3632  1  0.289700  0.677000  0.126300  1
  O  O3633  1  0.210300  0.177000  0.626300  1
  O  O3634  1  0.710300  0.177000  0.126300  1
  O  O3635  1  0.210300  0.323000  0.373700  1
  O  O3636  1  0.710300  0.323000  0.873700  1
  O  O3637  1  0.964200  0.819800  0.367200  1
  O  O3638  1  0.464200  0.819800  0.867200  1
  O  O3639  1  0.964200  0.680200  0.632800  1
  O  O3640  1  0.464200  0.680200  0.132800  1
  O  O3641  1  0.035800  0.180200  0.632800  1
  O  O3642  1  0.535800  0.180200  0.132800  1
  O  O3643  1  0.035800  0.319800  0.367200  1
  O  O3644  1  0.535800  0.319800  0.867200  1
  O  O3645  1  0.412200  0.659500  0.349100  1
  O  O3646  1  0.912200  0.659500  0.849100  1
  O  O3647  1  0.412200  0.840500  0.650900  1
  O  O3648  1  0.912200  0.840500  0.150900  1
  O  O3649  1  0.587800  0.340500  0.650900  1
  O  O3650  1  0.087800  0.340500  0.150900  1
  O  O3651  1  0.587800  0.159500  0.349100  1
  O  O3652  1  0.087800  0.159500  0.849100  1
  O  O3653  1  0.369300  0.622100  0.315500  1
  O  O3654  1  0.869300  0.622100  0.815500  1
  O  O3655  1  0.369300  0.877900  0.684500  1
  O  O3656  1  0.869300  0.877900  0.184500  1
  O  O3657  1  0.630700  0.377900  0.684500  1
  O  O3658  1  0.130700  0.377900  0.184500  1
  O  O3659  1  0.630700  0.122100  0.315500  1
  O  O3660  1  0.130700  0.122100  0.815500  1
  O  O3661  1  0.333400  0.649000  0.355700  1
  O  O3662  1  0.833400  0.649000  0.855700  1
  O  O3663  1  0.333400  0.851000  0.644300  1
  O  O3664  1  0.833400  0.851000  0.144300  1
  O  O3665  1  0.666600  0.351000  0.644300  1
  O  O3666  1  0.166600  0.351000  0.144300  1
  O  O3667  1  0.666600  0.149000  0.355700  1
  O  O3668  1  0.166600  0.149000  0.855700  1
  O  O3669  1  0.992200  0.992700  0.343700  1
  O  O3670  1  0.492200  0.992700  0.843700  1
  O  O3671  1  0.992200  0.507300  0.656300  1
  O  O3672  1  0.492200  0.507300  0.156300  1
  O  O3673  1  0.007800  0.007300  0.656300  1
  O  O3674  1  0.507800  0.007300  0.156300  1
  O  O3675  1  0.007800  0.492700  0.343700  1
  O  O3676  1  0.507800  0.492700  0.843700  1
  O  O3677  1  0.878400  0.873600  0.564500  1
  O  O3678  1  0.378400  0.873600  0.064500  1
  O  O3679  1  0.878400  0.626400  0.435500  1
  O  O3680  1  0.378400  0.626400  0.935500  1
  O  O3681  1  0.121600  0.126400  0.435500  1
  O  O3682  1  0.621600  0.126400  0.935500  1
  O  O3683  1  0.121600  0.373600  0.564500  1
  O  O3684  1  0.621600  0.373600  0.064500  1
  O  O3685  1  0.620900  0.473700  0.541900  1
  O  O3686  1  0.120900  0.473700  0.041900  1
  O  O3687  1  0.620900  0.026300  0.458100  1
  O  O3688  1  0.120900  0.026300  0.958100  1
  O  O3689  1  0.379100  0.526300  0.458100  1
  O  O3690  1  0.879100  0.526300  0.958100  1
  O  O3691  1  0.379100  0.973700  0.541900  1
  O  O3692  1  0.879100  0.973700  0.041900  1
  O  O3693  1  0.682200  0.510500  0.539100  1
  O  O3694  1  0.182200  0.510500  0.039100  1
  O  O3695  1  0.682200  0.989500  0.460900  1
  O  O3696  1  0.182200  0.989500  0.960900  1
  O  O3697  1  0.317800  0.489500  0.460900  1
  O  O3698  1  0.817800  0.489500  0.960900  1
  O  O3699  1  0.317800  0.010500  0.539100  1
  O  O3700  1  0.817800  0.010500  0.039100  1
  O  O3701  1  0.614000  0.531700  0.559900  1
  O  O3702  1  0.114000  0.531700  0.059900  1
  O  O3703  1  0.614000  0.968300  0.440100  1
  O  O3704  1  0.114000  0.968300  0.940100  1
  O  O3705  1  0.386000  0.468300  0.440100  1
  O  O3706  1  0.886000  0.468300  0.940100  1
  O  O3707  1  0.386000  0.031700  0.559900  1
  O  O3708  1  0.886000  0.031700  0.059900  1
  O  O3709  1  0.638200  0.429100  0.518400  1
  O  O3710  1  0.138200  0.429100  0.018400  1
  O  O3711  1  0.638200  0.070900  0.481600  1
  O  O3712  1  0.138200  0.070900  0.981600  1
  O  O3713  1  0.361800  0.570900  0.481600  1
  O  O3714  1  0.861800  0.570900  0.981600  1
  O  O3715  1  0.361800  0.929100  0.518400  1
  O  O3716  1  0.861800  0.929100  0.018400  1
  O  O3717  1  0.643000  0.468600  0.558200  1
  O  O3718  1  0.143000  0.468600  0.058200  1
  O  O3719  1  0.643000  0.031400  0.441800  1
  O  O3720  1  0.143000  0.031400  0.941800  1
  O  O3721  1  0.357000  0.531400  0.441800  1
  O  O3722  1  0.857000  0.531400  0.941800  1
  O  O3723  1  0.357000  0.968600  0.558200  1
  O  O3724  1  0.857000  0.968600  0.058200  1
  O  O3725  1  0.623000  0.412100  0.559000  1
  O  O3726  1  0.123000  0.412100  0.059000  1
  O  O3727  1  0.623000  0.087900  0.441000  1
  O  O3728  1  0.123000  0.087900  0.941000  1
  O  O3729  1  0.377000  0.587900  0.441000  1
  O  O3730  1  0.877000  0.587900  0.941000  1
  O  O3731  1  0.377000  0.912100  0.559000  1
  O  O3732  1  0.877000  0.912100  0.059000  1
  O  O3733  1  0.610000  0.424300  0.527400  1
  O  O3734  1  0.110000  0.424300  0.027400  1
  O  O3735  1  0.610000  0.075700  0.472600  1
  O  O3736  1  0.110000  0.075700  0.972600  1
  O  O3737  1  0.390000  0.575700  0.472600  1
  O  O3738  1  0.890000  0.575700  0.972600  1
  O  O3739  1  0.390000  0.924300  0.527400  1
  O  O3740  1  0.890000  0.924300  0.027400  1
  O  O3741  1  0.661000  0.454000  0.505400  1
  O  O3742  1  0.161000  0.454000  0.005400  1
  O  O3743  1  0.661000  0.046000  0.494600  1
  O  O3744  1  0.161000  0.046000  0.994600  1
  O  O3745  1  0.339000  0.546000  0.494600  1
  O  O3746  1  0.839000  0.546000  0.994600  1
  O  O3747  1  0.339000  0.954000  0.505400  1
  O  O3748  1  0.839000  0.954000  0.005400  1
  O  O3749  1  0.195000  0.016000  0.595200  1
  O  O3750  1  0.695000  0.016000  0.095200  1
  O  O3751  1  0.195000  0.484000  0.404800  1
  O  O3752  1  0.695000  0.484000  0.904800  1
  O  O3753  1  0.805000  0.984000  0.404800  1
  O  O3754  1  0.305000  0.984000  0.904800  1
  O  O3755  1  0.805000  0.516000  0.595200  1
  O  O3756  1  0.305000  0.516000  0.095200  1
  O  O3757  1  0.114200  0.012300  0.570800  1
  O  O3758  1  0.614200  0.012300  0.070800  1
  O  O3759  1  0.114200  0.487700  0.429200  1
  O  O3760  1  0.614200  0.487700  0.929200  1
  O  O3761  1  0.885800  0.987700  0.429200  1
  O  O3762  1  0.385800  0.987700  0.929200  1
  O  O3763  1  0.885800  0.512300  0.570800  1
  O  O3764  1  0.385800  0.512300  0.070800  1
  O  O3765  1  0.549000  0.517200  0.328700  1
  O  O3766  1  0.049000  0.517200  0.828700  1
  O  O3767  1  0.549000  0.982800  0.671300  1
  O  O3768  1  0.049000  0.982800  0.171300  1
  O  O3769  1  0.451000  0.482800  0.671300  1
  O  O3770  1  0.951000  0.482800  0.171300  1
  O  O3771  1  0.451000  0.017200  0.328700  1
  O  O3772  1  0.951000  0.017200  0.828700  1
  O  O3773  1  0.968800  0.969600  0.398800  1
  O  O3774  1  0.468800  0.969600  0.898800  1
  O  O3775  1  0.968800  0.530400  0.601200  1
  O  O3776  1  0.468800  0.530400  0.101200  1
  O  O3777  1  0.031200  0.030400  0.601200  1
  O  O3778  1  0.531200  0.030400  0.101200  1
  O  O3779  1  0.031200  0.469600  0.398800  1
  O  O3780  1  0.531200  0.469600  0.898800  1
  O  O3781  1  0.735000  0.485100  0.389600  1
  O  O3782  1  0.235000  0.485100  0.889600  1
  O  O3783  1  0.735000  0.014900  0.610400  1
  O  O3784  1  0.235000  0.014900  0.110400  1
  O  O3785  1  0.265000  0.514900  0.610400  1
  O  O3786  1  0.765000  0.514900  0.110400  1
  O  O3787  1  0.265000  0.985100  0.389600  1
  O  O3788  1  0.765000  0.985100  0.889600  1
  O  O3789  1  0.209400  0.629000  0.332300  1
  O  O3790  1  0.709400  0.629000  0.832300  1
  O  O3791  1  0.209400  0.871000  0.667700  1
  O  O3792  1  0.709400  0.871000  0.167700  1
  O  O3793  1  0.790600  0.371000  0.667700  1
  O  O3794  1  0.290600  0.371000  0.167700  1
  O  O3795  1  0.790600  0.129000  0.332300  1
  O  O3796  1  0.290600  0.129000  0.832300  1
  O  O3797  1  0.882900  0.973300  0.312800  1
  O  O3798  1  0.382900  0.973300  0.812800  1
  O  O3799  1  0.882900  0.526700  0.687200  1
  O  O3800  1  0.382900  0.526700  0.187200  1
  O  O3801  1  0.117100  0.026700  0.687200  1
  O  O3802  1  0.617100  0.026700  0.187200  1
  O  O3803  1  0.117100  0.473300  0.312800  1
  O  O3804  1  0.617100  0.473300  0.812800  1
  O  O3805  1  0.706400  0.509200  0.366800  1
  O  O3806  1  0.206400  0.509200  0.866800  1
  O  O3807  1  0.706400  0.990800  0.633200  1
  O  O3808  1  0.206400  0.990800  0.133200  1
  O  O3809  1  0.293600  0.490800  0.633200  1
  O  O3810  1  0.793600  0.490800  0.133200  1
  O  O3811  1  0.293600  0.009200  0.366800  1
  O  O3812  1  0.793600  0.009200  0.866800  1
  O  O3813  1  0.525000  0.513300  0.511900  1
  O  O3814  1  0.025000  0.513300  0.011900  1
  O  O3815  1  0.525000  0.986700  0.488100  1
  O  O3816  1  0.025000  0.986700  0.988100  1
  O  O3817  1  0.475000  0.486700  0.488100  1
  O  O3818  1  0.975000  0.486700  0.988100  1
  O  O3819  1  0.475000  0.013300  0.511900  1
  O  O3820  1  0.975000  0.013300  0.011900  1
  O  O3821  1  0.696200  0.629800  0.251800  1
  O  O3822  1  0.196200  0.629800  0.751800  1
  O  O3823  1  0.696200  0.870200  0.748200  1
  O  O3824  1  0.196200  0.870200  0.248200  1
  O  O3825  1  0.303800  0.370200  0.748200  1
  O  O3826  1  0.803800  0.370200  0.248200  1
  O  O3827  1  0.303800  0.129800  0.251800  1
  O  O3828  1  0.803800  0.129800  0.751800  1
  O  O3829  1  0.543000  0.529800  0.519600  1
  O  O3830  1  0.043000  0.529800  0.019600  1
  O  O3831  1  0.543000  0.970200  0.480400  1
  O  O3832  1  0.043000  0.970200  0.980400  1
  O  O3833  1  0.457000  0.470200  0.480400  1
  O  O3834  1  0.957000  0.470200  0.980400  1
  O  O3835  1  0.457000  0.029800  0.519600  1
  O  O3836  1  0.957000  0.029800  0.019600  1
  O  O3837  1  0.139200  0.666000  0.304000  1
  O  O3838  1  0.639200  0.666000  0.804000  1
  O  O3839  1  0.139200  0.834000  0.696000  1
  O  O3840  1  0.639200  0.834000  0.196000  1
  O  O3841  1  0.860800  0.334000  0.696000  1
  O  O3842  1  0.360800  0.334000  0.196000  1
  O  O3843  1  0.860800  0.166000  0.304000  1
  O  O3844  1  0.360800  0.166000  0.804000  1
  O  O3845  1  0.422500  0.772900  0.621300  1
  O  O3846  1  0.922500  0.772900  0.121300  1
  O  O3847  1  0.422500  0.727100  0.378700  1
  O  O3848  1  0.922500  0.727100  0.878700  1
  O  O3849  1  0.577500  0.227100  0.378700  1
  O  O3850  1  0.077500  0.227100  0.878700  1
  O  O3851  1  0.577500  0.272900  0.621300  1
  O  O3852  1  0.077500  0.272900  0.121300  1
  O  O3853  1  0.405000  0.667500  0.523500  1
  O  O3854  1  0.905000  0.667500  0.023500  1
  O  O3855  1  0.405000  0.832500  0.476500  1
  O  O3856  1  0.905000  0.832500  0.976500  1
  O  O3857  1  0.595000  0.332500  0.476500  1
  O  O3858  1  0.095000  0.332500  0.976500  1
  O  O3859  1  0.595000  0.167500  0.523500  1
  O  O3860  1  0.095000  0.167500  0.023500  1
  O  O3861  1  0.913300  0.986100  0.382800  1
  O  O3862  1  0.413300  0.986100  0.882800  1
  O  O3863  1  0.913300  0.513900  0.617200  1
  O  O3864  1  0.413300  0.513900  0.117200  1
  O  O3865  1  0.086700  0.013900  0.617200  1
  O  O3866  1  0.586700  0.013900  0.117200  1
  O  O3867  1  0.086700  0.486100  0.382800  1
  O  O3868  1  0.586700  0.486100  0.882800  1
  O  O3869  1  0.309000  0.688500  0.470700  1
  O  O3870  1  0.809000  0.688500  0.970700  1
  O  O3871  1  0.309000  0.811500  0.529300  1
  O  O3872  1  0.809000  0.811500  0.029300  1
  O  O3873  1  0.691000  0.311500  0.529300  1
  O  O3874  1  0.191000  0.311500  0.029300  1
  O  O3875  1  0.691000  0.188500  0.470700  1
  O  O3876  1  0.191000  0.188500  0.970700  1
  O  O3877  1  0.538600  0.600500  0.597000  1
  O  O3878  1  0.038600  0.600500  0.097000  1
  O  O3879  1  0.538600  0.899500  0.403000  1
  O  O3880  1  0.038600  0.899500  0.903000  1
  O  O3881  1  0.461400  0.399500  0.403000  1
  O  O3882  1  0.961400  0.399500  0.903000  1
  O  O3883  1  0.461400  0.100500  0.597000  1
  O  O3884  1  0.961400  0.100500  0.097000  1
  O  O3885  1  0.720700  0.663900  0.462200  1
  O  O3886  1  0.220700  0.663900  0.962200  1
  O  O3887  1  0.720700  0.836100  0.537800  1
  O  O3888  1  0.220700  0.836100  0.037800  1
  O  O3889  1  0.279300  0.336100  0.537800  1
  O  O3890  1  0.779300  0.336100  0.037800  1
  O  O3891  1  0.279300  0.163900  0.462200  1
  O  O3892  1  0.779300  0.163900  0.962200  1
  O  O3893  1  0.598500  0.494500  0.328100  1
  O  O3894  1  0.098500  0.494500  0.828100  1
  O  O3895  1  0.598500  0.005500  0.671900  1
  O  O3896  1  0.098500  0.005500  0.171900  1
  O  O3897  1  0.401500  0.505500  0.671900  1
  O  O3898  1  0.901500  0.505500  0.171900  1
  O  O3899  1  0.401500  0.994500  0.328100  1
  O  O3900  1  0.901500  0.994500  0.828100  1
  O  O3901  1  0.003000  0.768700  0.495600  1
  O  O3902  1  0.503000  0.768700  0.995600  1
  O  O3903  1  0.003000  0.731300  0.504400  1
  O  O3904  1  0.503000  0.731300  0.004400  1
  O  O3905  1  0.997000  0.231300  0.504400  1
  O  O3906  1  0.497000  0.231300  0.004400  1
  O  O3907  1  0.997000  0.268700  0.495600  1
  O  O3908  1  0.497000  0.268700  0.995600  1
  O  O3909  1  0.210000  0.597800  0.496700  1
  O  O3910  1  0.710000  0.597800  0.996700  1
  O  O3911  1  0.210000  0.902200  0.503300  1
  O  O3912  1  0.710000  0.902200  0.003300  1
  O  O3913  1  0.790000  0.402200  0.503300  1
  O  O3914  1  0.290000  0.402200  0.003300  1
  O  O3915  1  0.790000  0.097800  0.496700  1
  O  O3916  1  0.290000  0.097800  0.996700  1
  O  O3917  1  0.257000  0.757000  0.618100  1
  O  O3918  1  0.757000  0.757000  0.118100  1
  O  O3919  1  0.257000  0.743000  0.381900  1
  O  O3920  1  0.757000  0.743000  0.881900  1
  O  O3921  1  0.743000  0.243000  0.381900  1
  O  O3922  1  0.243000  0.243000  0.881900  1
  O  O3923  1  0.743000  0.257000  0.618100  1
  O  O3924  1  0.243000  0.257000  0.118100  1
  O  O3925  1  0.526400  0.875400  0.372700  1
  O  O3926  1  0.026400  0.875400  0.872700  1
  O  O3927  1  0.526400  0.624600  0.627300  1
  O  O3928  1  0.026400  0.624600  0.127300  1
  O  O3929  1  0.473600  0.124600  0.627300  1
  O  O3930  1  0.973600  0.124600  0.127300  1
  O  O3931  1  0.473600  0.375400  0.372700  1
  O  O3932  1  0.973600  0.375400  0.872700  1
  O  O3933  1  0.866000  0.980000  0.333400  1
  O  O3934  1  0.366000  0.980000  0.833400  1
  O  O3935  1  0.866000  0.520000  0.666600  1
  O  O3936  1  0.366000  0.520000  0.166600  1
  O  O3937  1  0.134000  0.020000  0.666600  1
  O  O3938  1  0.634000  0.020000  0.166600  1
  O  O3939  1  0.134000  0.480000  0.333400  1
  O  O3940  1  0.634000  0.480000  0.833400  1
  O  O3941  1  0.128000  0.922000  0.419800  1
  O  O3942  1  0.628000  0.922000  0.919800  1
  O  O3943  1  0.128000  0.578000  0.580200  1
  O  O3944  1  0.628000  0.578000  0.080200  1
  O  O3945  1  0.872000  0.078000  0.580200  1
  O  O3946  1  0.372000  0.078000  0.080200  1
  O  O3947  1  0.872000  0.422000  0.419800  1
  O  O3948  1  0.372000  0.422000  0.919800  1
  O  O3949  1  0.386000  0.772000  0.567000  1
  O  O3950  1  0.886000  0.772000  0.067000  1
  O  O3951  1  0.386000  0.728000  0.433000  1
  O  O3952  1  0.886000  0.728000  0.933000  1
  O  O3953  1  0.614000  0.228000  0.433000  1
  O  O3954  1  0.114000  0.228000  0.933000  1
  O  O3955  1  0.614000  0.272000  0.567000  1
  O  O3956  1  0.114000  0.272000  0.067000  1
  O  O3957  1  0.717200  0.672800  0.222000  1
  O  O3958  1  0.217200  0.672800  0.722000  1
  O  O3959  1  0.717200  0.827200  0.778000  1
  O  O3960  1  0.217200  0.827200  0.278000  1
  O  O3961  1  0.282800  0.327200  0.778000  1
  O  O3962  1  0.782800  0.327200  0.278000  1
  O  O3963  1  0.282800  0.172800  0.222000  1
  O  O3964  1  0.782800  0.172800  0.722000  1
  O  O3965  1  0.219600  0.731600  0.574000  1
  O  O3966  1  0.719600  0.731600  0.074000  1
  O  O3967  1  0.219600  0.768400  0.426000  1
  O  O3968  1  0.719600  0.768400  0.926000  1
  O  O3969  1  0.780400  0.268400  0.426000  1
  O  O3970  1  0.280400  0.268400  0.926000  1
  O  O3971  1  0.780400  0.231600  0.574000  1
  O  O3972  1  0.280400  0.231600  0.074000  1
  O  O3973  1  0.708000  0.508200  0.567300  1
  O  O3974  1  0.208000  0.508200  0.067300  1
  O  O3975  1  0.708000  0.991800  0.432700  1
  O  O3976  1  0.208000  0.991800  0.932700  1
  O  O3977  1  0.292000  0.491800  0.432700  1
  O  O3978  1  0.792000  0.491800  0.932700  1
  O  O3979  1  0.292000  0.008200  0.567300  1
  O  O3980  1  0.792000  0.008200  0.067300  1
  O  O3981  1  0.721600  0.681300  0.202700  1
  O  O3982  1  0.221600  0.681300  0.702700  1
  O  O3983  1  0.721600  0.818700  0.797300  1
  O  O3984  1  0.221600  0.818700  0.297300  1
  O  O3985  1  0.278400  0.318700  0.797300  1
  O  O3986  1  0.778400  0.318700  0.297300  1
  O  O3987  1  0.278400  0.181300  0.202700  1
  O  O3988  1  0.778400  0.181300  0.702700  1
  O  O3989  1  0.595500  0.853800  0.477100  1
  O  O3990  1  0.095500  0.853800  0.977100  1
  O  O3991  1  0.595500  0.646200  0.522900  1
  O  O3992  1  0.095500  0.646200  0.022900  1
  O  O3993  1  0.404500  0.146200  0.522900  1
  O  O3994  1  0.904500  0.146200  0.022900  1
  O  O3995  1  0.404500  0.353800  0.477100  1
  O  O3996  1  0.904500  0.353800  0.977100  1
