
#######################################################################
#
#                 Cambridge Crystallographic Data Centre
#                                CCDC 
#
#######################################################################
#
# If this CIF has been generated from an entry in the Cambridge 
# Structural Database, then it will include bibliographic, chemical, 
# crystal, experimental, refinement or atomic coordinate data resulting 
# from the CCDC's data processing and validation procedures.
#
#######################################################################

data_SERBOH
_chemical_formula_moiety         
'C108 H144 N36 Pd6 12+,12(N1 O3 1-),C9 H7 Mn1 O3,C18 H12,15(H2 O1)'
_chemical_name_systematic        
'tetrakis(\m~3~-2,4,6-tris(4-pyridyl)triazine)-hexakis(1,2-bis(dimethylamino)ethane)-hexa-palladium dodecanitrate tricarbonyl-(\h^5^-methylcyclopentadienyl)-manganese triphenylene pentadecahydrate'
_symmetry_cell_setting           tetragonal
_symmetry_space_group_name_H-M   'I 41/a'
_symmetry_Int_Tables_number      88
_space_group_name_Hall           '-I 4ad'
loop_
_symmetry_equiv_pos_site_id
_symmetry_equiv_pos_as_xyz
1 x,y,z
2 3/4-y,1/4+x,1/4+z
3 1/2+x,1/2+y,1/2+z
4 1/4-y,3/4+x,3/4+z
5 1/4+y,1/4-x,1/4+z
6 1/2-x,-y,1/2+z
7 3/4+y,3/4-x,3/4+z
8 -x,1/2-y,z
9 -x,-y,-z
10 1/4+y,3/4-x,3/4-z
11 1/2-x,1/2-y,1/2-z
12 3/4+y,1/4-x,1/4-z
13 3/4-y,3/4+x,3/4-z
14 1/2+x,y,1/2-z
15 1/4-y,1/4+x,1/4-z
16 x,1/2+y,-z
_cell_length_a                   26.0844(16)
_cell_length_b                   26.0844(16)
_cell_length_c                   31.490(3)
_cell_angle_alpha                90
_cell_angle_beta                 90
_cell_angle_gamma                90
_cell_volume                     21425.7
_exptl_crystal_colour            yellow
_exptl_crystal_description       block
_cell_formula_units_Z            4
loop_
_atom_site_label
_atom_site_type_symbol
_atom_site_fract_x
_atom_site_fract_y
_atom_site_fract_z
N1 N 0.4019(7) 0.5745(10) -0.0340(8)
O3 O 0.4283(9) 0.6019(10) -0.0571(8)
O4 O 0.3542(6) 0.5798(7) -0.0325(6)
O5 O 0.4298(11) 0.5500(14) -0.0086(11)
N2 N 0.7313(5) 0.5748(5) -0.0484(4)
O6 O 0.7616(4) 0.6072(4) -0.0366(4)
O7 O 0.6884(4) 0.5877(4) -0.0667(3)
O8 O 0.7369(3) 0.5295(3) -0.0472(3)
N3 N 0.4700(8) 1.0309(8) -0.3588(7)
O9 O 0.4464(7) 1.0700(7) -0.3901(5)
O10 O 0.4229(9) 1.0244(9) -0.3411(7)
O11 O 0.5067(7) 1.0100(7) -0.3406(6)
N4 N 0.3532(5) 0.8241(4) -0.4978(4)
O12 O 0.3464(6) 0.8613(5) -0.5194(5)
O13 O 0.3409(8) 0.7800(6) -0.5127(7)
O14 O 0.3755(5) 0.8333(5) -0.4619(5)
O15 O 0.37550(18) 0.77566(18) -0.59605(15)
O16 O 0.5042(5) 0.5719(5) -0.0811(4)
O17 O 0.5000 0.7500 -0.3750
O18 O 0.2837(6) 1.1569(6) -0.3064(5)
O19 O 0.9098(7) 1.1379(6) 0.0721(5)
O20 O 0.5812(6) 0.9727(6) -0.5363(5)
O21 O 0.8344(15) 0.5968(15) 0.0068(13)
O22 O 0.6463(6) 0.6164(6) -0.1442(5)
O23 O 0.5412(6) 0.9339(6) -0.4651(5)
O24 O 0.4535(7) 0.9059(7) -0.3605(6)
O25 O 0.3317(6) 0.6829(6) -0.3004(5)
O26 O 0.4098(8) 0.7793(8) -0.4029(6)
O27 O 0.4429(8) 0.9620(9) -0.2707(7)
O28 O 0.5053(15) 0.9917(14) -0.5376(12)
Pd1 Pd 0.5000 0.7500 -0.162593(14)
Pd2 Pd 0.788206(12) 0.964648(12) 0.127391(9)
N5 N 0.76460(14) 0.89962(14) 0.09780(12)
C27 C 0.77103(18) 0.85389(19) 0.11629(15)
H1 H 0.7908 0.8518 0.1416
C28 C 0.74994(19) 0.80975(18) 0.09980(16)
H2 H 0.7552 0.7777 0.1134
C29 C 0.72076(18) 0.81276(17) 0.06284(14)
C30 C 0.71375(19) 0.86022(17) 0.04380(14)
H3 H 0.6938 0.8633 0.0187
C31 C 0.73620(19) 0.90293(17) 0.06199(14)
H4 H 0.7315 0.9355 0.0490
N6 N 0.55184(14) 0.74237(14) -0.11473(11)
C32 C 0.57198(19) 0.78420(17) -0.09634(14)
H5 H 0.5645 0.8169 -0.1081
C33 C 0.60310(19) 0.78155(16) -0.06102(14)
H6 H 0.6164 0.8119 -0.0485
C34 C 0.61469(18) 0.73376(17) -0.04409(14)
C35 C 0.5942(2) 0.69039(17) -0.06286(15)
H7 H 0.6013 0.6573 -0.0517
C36 C 0.56296(19) 0.69604(17) -0.09827(16)
H8 H 0.5490 0.6663 -0.1113
N7 N 0.71782(15) 0.96347(14) 0.15516(12)
C37 C 0.6760(2) 0.97970(18) 0.13423(16)
H9 H 0.6800 0.9966 0.1077
C38 C 0.6266(2) 0.97220(19) 0.15046(18)
H10 H 0.5975 0.9850 0.1358
C39 C 0.6210(2) 0.94580(17) 0.18815(15)
C40 C 0.6643(2) 0.92900(19) 0.20934(15)
H11 H 0.6612 0.9107 0.2353
C41 C 0.7120(2) 0.93900(18) 0.19244(15)
H12 H 0.7416 0.9283 0.2076
N8 N 0.66847(15) 0.77234(14) 0.00921(12)
C42 C 0.69761(19) 0.76597(17) 0.04406(14)
N9 N 0.65601(16) 0.68227(14) 0.00924(12)
C43 C 0.64821(18) 0.72918(16) -0.00650(14)
N10 N 0.70722(17) 0.72115(15) 0.06269(13)
C44 C 0.5695(2) 0.93560(17) 0.20628(15)
N11 N 0.55286(18) 0.74071(18) -0.21054(13)
N12 N 0.85988(16) 0.96376(18) 0.10038(13)
N13 N 0.81216(16) 1.03006(16) 0.15832(13)
C45 C 0.5674(3) 0.6858(3) -0.2142(2)
H13 H 0.5925 0.6817 -0.2371
H14 H 0.5369 0.6653 -0.2205
H15 H 0.5826 0.6742 -0.1874
C46 C 0.6003(2) 0.7716(2) -0.20385(18)
H16 H 0.6241 0.7659 -0.2275
H17 H 0.6167 0.7612 -0.1772
H18 H 0.5914 0.8081 -0.2024
C47 C 0.5277(2) 0.7588(3) -0.2507(2)
H19 H 0.5458 0.7445 -0.2756
H20 H 0.5292 0.7967 -0.2523
C48 C 0.8884(4) 0.9207(4) 0.1104(4)
H21 H 0.9220 0.9228 0.0966
H22 H 0.8704 0.8900 0.1004
H23 H 0.8929 0.9187 0.1412
C49 C 0.8563(5) 0.9797(6) 0.0560(4)
H24 H 0.8808 0.9602 0.0389
H25 H 0.8641 1.0164 0.0538
H26 H 0.8215 0.9734 0.0455
C50 C 0.8811(3) 1.0135(3) 0.1042(3)
H27 H 0.8645 1.0375 0.0841
H28 H 0.9184 1.0129 0.0982
C51 C 0.8713(3) 1.0297(3) 0.1492(3)
H29 H 0.8856 1.0643 0.1540
H30 H 0.8886 1.0056 0.1689
C52 C 0.7888(4) 1.0727(3) 0.1390(3)
H31 H 0.7999 1.1041 0.1533
H32 H 0.7514 1.0695 0.1412
H33 H 0.7986 1.0742 0.1090
C53 C 0.8050(5) 1.0266(4) 0.2040(3)
H34 H 0.8167 1.0585 0.2174
H35 H 0.8250 0.9978 0.2151
H36 H 0.7686 1.0213 0.2103
Pd1N Pd 0.5000 0.7500 0.412593(14)
Pd2K Pd 0.714648(12) 0.461794(12) 0.122609(9)
Pd2G Pd 0.211794(12) 0.535352(12) 0.127391(9)
Pd2N Pd 0.285352(12) 1.038206(12) 0.122609(9)
N5K N 0.64962(14) 0.48540(14) 0.15220(12)
N5G N 0.23540(14) 0.60038(14) 0.09780(12)
N5N N 0.35038(14) 1.01460(14) 0.15220(12)
C27K C 0.60389(19) 0.47897(18) 0.13371(15)
C27G C 0.22897(18) 0.64611(19) 0.11629(15)
C27N C 0.39611(19) 1.02103(18) 0.13371(15)
H1K H 0.6018 0.4592 0.1084
H1G H 0.2092 0.6482 0.1416
H1N H 0.3982 1.0408 0.1084
C28K C 0.55975(18) 0.50006(19) 0.15020(16)
C28G C 0.25006(19) 0.69025(18) 0.09980(16)
C28N C 0.44025(18) 0.99994(19) 0.15020(16)
H2K H 0.5277 0.4948 0.1366
H2G H 0.2448 0.7223 0.1134
H2N H 0.4723 1.0052 0.1366
C29K C 0.56276(17) 0.52924(18) 0.18716(14)
C29G C 0.27924(18) 0.68724(17) 0.06284(14)
C29N C 0.43724(17) 0.97076(18) 0.18716(14)
C30K C 0.61022(17) 0.53625(19) 0.20620(14)
C30G C 0.28625(19) 0.63978(17) 0.04380(14)
C30N C 0.38978(17) 0.96375(19) 0.20620(14)
H3K H 0.6133 0.5562 0.2313
H3G H 0.3062 0.6367 0.0187
H3N H 0.3867 0.9438 0.2313
C31K C 0.65293(17) 0.51380(19) 0.18801(14)
C31G C 0.26380(19) 0.59707(17) 0.06199(14)
C31N C 0.34707(17) 0.98620(19) 0.18801(14)
H4K H 0.6855 0.5185 0.2010
H4G H 0.2685 0.5645 0.0490
H4N H 0.3145 0.9815 0.2010
N6N N 0.50763(14) 0.80184(14) 0.36473(11)
N6K N 0.49237(14) 0.69816(14) 0.36473(11)
N6G N 0.44816(14) 0.75763(14) -0.11473(11)
C32N C 0.46580(17) 0.82198(19) 0.34634(14)
C32K C 0.53420(17) 0.67802(19) 0.34634(14)
C32G C 0.42802(19) 0.71580(17) -0.09634(14)
H5K H 0.5669 0.6855 0.3581
H5G H 0.4355 0.6831 -0.1081
H5N H 0.4331 0.8145 0.3581
C33N C 0.46845(16) 0.85310(19) 0.31102(14)
C33K C 0.53155(16) 0.64690(19) 0.31102(14)
C33G C 0.39690(19) 0.71845(16) -0.06102(14)
H6K H 0.5619 0.6336 0.2985
H6G H 0.3836 0.6881 -0.0485
H6N H 0.4381 0.8664 0.2985
C34N C 0.51624(17) 0.86469(18) 0.29409(14)
C34K C 0.48376(17) 0.63531(18) 0.29409(14)
C34G C 0.38531(18) 0.76624(17) -0.04409(14)
C35K C 0.44039(17) 0.6558(2) 0.31286(15)
C35G C 0.4058(2) 0.80961(17) -0.06286(15)
C35N C 0.55961(17) 0.8442(2) 0.31286(15)
H7K H 0.4073 0.6487 0.3017
H7G H 0.3987 0.8427 -0.0517
H7N H 0.5927 0.8513 0.3017
C36K C 0.44604(17) 0.68704(19) 0.34827(16)
C36G C 0.43704(19) 0.80396(17) -0.09827(16)
C36N C 0.55396(17) 0.81296(19) 0.34827(16)
H8K H 0.4163 0.7010 0.3613
H8G H 0.4510 0.8337 -0.1113
H8N H 0.5837 0.7990 0.3613
N7K N 0.71347(14) 0.53218(15) 0.09484(12)
N7G N 0.28218(15) 0.53653(14) 0.15516(12)
N7N N 0.28653(14) 0.96782(15) 0.09484(12)
C37K C 0.72970(18) 0.5740(2) 0.11577(16)
C37G C 0.3240(2) 0.52030(18) 0.13423(16)
C37N C 0.27030(18) 0.9260(2) 0.11577(16)
H9K H 0.7466 0.5700 0.1423
H9N H 0.2534 0.9300 0.1423
H9G H 0.3200 0.5034 0.1077
C38K C 0.72220(19) 0.6234(2) 0.09954(18)
C38G C 0.3734(2) 0.52780(19) 0.15046(18)
C38N C 0.27780(19) 0.8766(2) 0.09954(18)
H10K H 0.7350 0.6525 0.1142
H10N H 0.2650 0.8475 0.1142
H10G H 0.4025 0.5150 0.1358
C39K C 0.69580(17) 0.6290(2) 0.06185(15)
C39G C 0.3790(2) 0.55420(17) 0.18815(15)
C39N C 0.30420(17) 0.8710(2) 0.06185(15)
C40K C 0.67900(19) 0.5857(2) 0.04066(15)
C40N C 0.32100(19) 0.9143(2) 0.04066(15)
C40G C 0.3357(2) 0.57100(19) 0.20934(15)
H11K H 0.6607 0.5888 0.0147
H11N H 0.3393 0.9112 0.0147
H11G H 0.3388 0.5893 0.2353
C41K C 0.68900(18) 0.5380(2) 0.05756(15)
C41N C 0.31100(18) 0.9620(2) 0.05756(15)
C41G C 0.2880(2) 0.56100(18) 0.19244(15)
H12K H 0.6783 0.5084 0.0424
H12N H 0.3217 0.9916 0.0424
H12G H 0.2584 0.5717 0.2076
N8K N 0.52234(14) 0.58153(15) 0.24079(12)
N8G N 0.33153(15) 0.72766(14) 0.00921(12)
N8N N 0.47766(14) 0.91847(15) 0.24079(12)
C42K C 0.51597(17) 0.55239(19) 0.20594(14)
C42G C 0.30239(19) 0.73403(17) 0.04406(14)
C42N C 0.48403(17) 0.94761(19) 0.20594(14)
N9N N 0.56773(14) 0.90601(16) 0.24076(12)
N9G N 0.34399(16) 0.81773(14) 0.00924(12)
N9K N 0.43227(14) 0.59399(16) 0.24076(12)
C43N C 0.52082(16) 0.89821(18) 0.25650(14)
C43K C 0.47918(16) 0.60179(18) 0.25650(14)
C43G C 0.35179(18) 0.77082(16) -0.00650(14)
N10K N 0.47115(15) 0.54278(17) 0.18731(13)
N10N N 0.52885(15) 0.95722(17) 0.18731(13)
N10G N 0.29278(17) 0.77885(15) 0.06269(13)
C44K C 0.68560(17) 0.6805(2) 0.04372(15)
C44G C 0.4305(2) 0.56440(17) 0.20628(15)
C44N C 0.31440(17) 0.8195(2) 0.04372(15)
N11G N 0.44714(18) 0.75929(18) -0.21054(13)
N11N N 0.50929(18) 0.80286(18) 0.46054(13)
N11K N 0.49071(18) 0.69714(18) 0.46054(13)
N12K N 0.71376(18) 0.39012(16) 0.14962(13)
N12N N 0.28624(18) 1.10988(16) 0.14962(13)
N12G N 0.14012(16) 0.53624(18) 0.10038(13)
N13K N 0.78006(16) 0.43784(16) 0.09168(13)
N13N N 0.21994(16) 1.06216(16) 0.09168(13)
N13G N 0.18784(16) 0.46994(16) 0.15832(13)
C45G C 0.4326(3) 0.8142(3) -0.2142(2)
C45N C 0.5642(3) 0.8174(3) 0.4642(2)
C45K C 0.4358(3) 0.6826(3) 0.4642(2)
H13G H 0.4075 0.8183 -0.2371
H13N H 0.5683 0.8425 0.4871
H13K H 0.4317 0.6575 0.4871
H14G H 0.4631 0.8347 -0.2205
H14N H 0.5847 0.7869 0.4705
H14K H 0.4153 0.7131 0.4705
H15G H 0.4174 0.8258 -0.1874
H15N H 0.5758 0.8326 0.4374
H15K H 0.4242 0.6674 0.4374
C46G C 0.3997(2) 0.7284(2) -0.20385(18)
C46N C 0.4784(2) 0.8503(2) 0.45385(18)
C46K C 0.5216(2) 0.6497(2) 0.45385(18)
H16G H 0.3759 0.7341 -0.2275
H16N H 0.4841 0.8741 0.4775
H16K H 0.5159 0.6259 0.4775
H17G H 0.3833 0.7388 -0.1772
H17N H 0.4888 0.8667 0.4272
H17K H 0.5112 0.6333 0.4272
H18G H 0.4086 0.6919 -0.2024
H18N H 0.4419 0.8414 0.4524
H18K H 0.5581 0.6586 0.4524
C47G C 0.4723(2) 0.7412(3) -0.2507(2)
C47N C 0.4912(3) 0.7777(2) 0.5007(2)
C47K C 0.5088(3) 0.7223(2) 0.5007(2)
H19G H 0.4542 0.7555 -0.2756
H19K H 0.4945 0.7042 0.5256
H19N H 0.5055 0.7958 0.5256
H20G H 0.4708 0.7033 -0.2523
H20K H 0.5467 0.7208 0.5023
H20N H 0.4533 0.7792 0.5023
C48K C 0.6707(4) 0.3616(4) 0.1396(4)
C48N C 0.3293(4) 1.1384(4) 0.1396(4)
C48G C 0.1116(4) 0.5793(4) 0.1104(4)
H21K H 0.6728 0.3280 0.1534
H21N H 0.3272 1.1720 0.1534
H21G H 0.0780 0.5772 0.0966
H22K H 0.6400 0.3796 0.1496
H22N H 0.3600 1.1204 0.1496
H22G H 0.1296 0.6100 0.1004
H23K H 0.6687 0.3571 0.1088
H23N H 0.3313 1.1429 0.1088
H23G H 0.1071 0.5813 0.1412
C49K C 0.7297(6) 0.3937(5) 0.1940(4)
C49N C 0.2703(6) 1.1063(5) 0.1940(4)
C49G C 0.1437(5) 0.5203(6) 0.0560(4)
H24K H 0.7102 0.3692 0.2111
H24N H 0.2898 1.1308 0.2111
H24G H 0.1192 0.5398 0.0389
H25K H 0.7664 0.3859 0.1962
H25N H 0.2336 1.1141 0.1962
H25G H 0.1359 0.4836 0.0538
H26K H 0.7234 0.4285 0.2045
H26N H 0.2766 1.0715 0.2045
H26G H 0.1785 0.5266 0.0455
C50K C 0.7635(3) 0.3689(3) 0.1458(3)
C50N C 0.2365(3) 1.1311(3) 0.1458(3)
C50G C 0.1189(3) 0.4865(3) 0.1042(3)
H27K H 0.7875 0.3855 0.1659
H27N H 0.2125 1.1145 0.1659
H27G H 0.1355 0.4625 0.0841
H28K H 0.7629 0.3316 0.1518
H28N H 0.2371 1.1684 0.1518
H28G H 0.0816 0.4871 0.0982
C51K C 0.7797(3) 0.3787(3) 0.1008(3)
C51N C 0.2203(3) 1.1213(3) 0.1008(3)
C51G C 0.1287(3) 0.4703(3) 0.1492(3)
H29K H 0.8143 0.3644 0.0960
H29N H 0.1857 1.1356 0.0960
H29G H 0.1144 0.4357 0.1540
H30K H 0.7556 0.3614 0.0811
H30N H 0.2444 1.1386 0.0811
H30G H 0.1114 0.4944 0.1689
C52K C 0.8227(3) 0.4612(4) 0.1110(3)
C52N C 0.1773(3) 1.0388(4) 0.1110(3)
C52G C 0.2112(4) 0.4273(3) 0.1390(3)
H31K H 0.8541 0.4501 0.0967
H31N H 0.1459 1.0499 0.0967
H31G H 0.2001 0.3959 0.1533
H32K H 0.8195 0.4986 0.1088
H32N H 0.1805 1.0014 0.1088
H32G H 0.2486 0.4305 0.1412
H33K H 0.8242 0.4514 0.1410
H33N H 0.1758 1.0486 0.1410
H33G H 0.2014 0.4258 0.1090
C53K C 0.7766(4) 0.4450(5) 0.0460(3)
C53N C 0.2234(4) 1.0550(5) 0.0460(3)
C53G C 0.1950(5) 0.4734(4) 0.2040(3)
H34K H 0.8085 0.4333 0.0326
H34N H 0.1915 1.0667 0.0326
H34G H 0.1833 0.4415 0.2174
H35K H 0.7478 0.4250 0.0349
H35N H 0.2522 1.0750 0.0349
H35G H 0.1750 0.5022 0.2151
H36K H 0.7713 0.4814 0.0397
H36N H 0.2287 1.0186 0.0397
H36G H 0.2314 0.4787 0.2103
C1 C 0.5540(6) 0.8816(6) 0.0966(5)
C2 C 0.5254(7) 0.9112(7) 0.0690(5)
C3 C 0.4720(7) 0.9102(7) 0.0713(5)
C4 C 0.4481(6) 0.8799(6) 0.1013(5)
C5 C 0.4767(5) 0.8502(4) 0.1305(4)
C6 C 0.5306(5) 0.8510(4) 0.1279(4)
C7 C 0.5614(4) 0.8210(5) 0.1582(4)
C8 C 0.5370(5) 0.7921(4) 0.1904(4)
C9 C 0.4809(5) 0.7921(4) 0.1934(4)
C10 C 0.4511(4) 0.8202(5) 0.1641(4)
C11 C 0.5703(4) 0.8528(7) 0.0814(5)
C12 C 0.5440(5) 0.8768(8) 0.0492(6)
C13 C 0.5161(6) 0.8476(8) 0.0202(6)
C14 C 0.4552(6) 0.7653(6) 0.2262(5)
C15 C 0.5676(5) 0.7637(6) 0.2187(5)
C16 C 0.4872(5) 0.8705(7) 0.0347(6)
C17 C 0.4589(5) 0.8944(8) 0.0664(6)
C18 C 0.4304(4) 0.8655(6) 0.0944(5)
C19 C 0.511(2) 0.837(2) -0.0188(3)
C20 C 0.4349(12) 0.7879(13) 0.2286(4)
C21 C 0.4029(9) 0.8191(12) 0.2030(11)
C22 C 0.43360(18) 0.8367(13) 0.1679(11)
C23 C 0.4828(9) 0.8142(9) 0.1727(9)
C24 C 0.4845(12) 0.7817(9) 0.2098(8)
Mn1 Mn 0.50589(16) 0.82273(15) 0.08239(13)
C25 C 0.4672(9) 0.8824(9) 0.0703(7)
O1 O 0.4408(11) 0.9201(7) 0.0645(8)
C26 C 0.5382(15) 0.8019(7) 0.1718(9)
O2 O 0.5086(19) 0.8347(7) 0.1730(10)
C1K C 0.6316(6) 0.6960(6) 0.1534(5)
C1G C 0.4460(6) 0.6184(6) 0.0966(5)
C1N C 0.3684(6) 0.8040(6) 0.1534(5)
C2K C 0.6612(7) 0.7246(7) 0.1810(5)
C2G C 0.4746(7) 0.5888(7) 0.0690(5)
C2N C 0.3388(7) 0.7754(7) 0.1810(5)
C3K C 0.6602(7) 0.7780(7) 0.1787(5)
C3G C 0.5280(7) 0.5898(7) 0.0713(5)
C3N C 0.3398(7) 0.7220(7) 0.1787(5)
C4K C 0.6299(6) 0.8019(6) 0.1487(5)
C4G C 0.5519(6) 0.6201(6) 0.1013(5)
C4N C 0.3701(6) 0.6981(6) 0.1487(5)
C5K C 0.6002(4) 0.7733(5) 0.1195(4)
C5G C 0.5233(5) 0.6498(4) 0.1305(4)
C5N C 0.3998(4) 0.7267(5) 0.1195(4)
C6K C 0.6010(4) 0.7194(5) 0.1221(4)
C6G C 0.4694(5) 0.6490(4) 0.1279(4)
C6N C 0.3990(4) 0.7806(5) 0.1221(4)
C7K C 0.5710(5) 0.6886(4) 0.0918(4)
C7G C 0.4386(4) 0.6790(5) 0.1582(4)
C7N C 0.4290(5) 0.8114(4) 0.0918(4)
C8K C 0.5421(4) 0.7130(5) 0.0596(4)
C8G C 0.4630(5) 0.7079(4) 0.1904(4)
C8N C 0.4579(4) 0.7870(5) 0.0596(4)
C9K C 0.5421(4) 0.7691(5) 0.0566(4)
C9G C 0.5191(5) 0.7079(4) 0.1934(4)
C9N C 0.4579(4) 0.7309(5) 0.0566(4)
C10K C 0.5702(5) 0.7989(4) 0.0859(4)
C10G C 0.5489(4) 0.6798(5) 0.1641(4)
C10N C 0.4298(5) 0.7011(4) 0.0859(4)
C11K C 0.6028(7) 0.6797(4) 0.1686(5)
C11G C 0.4297(4) 0.6472(7) 0.0814(5)
C11N C 0.3972(7) 0.8203(4) 0.1686(5)
C12K C 0.6268(8) 0.7060(5) 0.2008(6)
C12G C 0.4560(5) 0.6232(8) 0.0492(6)
C12N C 0.3732(8) 0.7940(5) 0.2008(6)
C13G C 0.4839(6) 0.6524(8) 0.0202(6)
C13N C 0.4024(8) 0.7661(6) 0.2298(6)
C13K C 0.5976(8) 0.7339(6) 0.2298(6)
C14K C 0.5153(6) 0.7948(6) 0.0238(5)
C14N C 0.4847(6) 0.7052(6) 0.0238(5)
C14G C 0.5448(6) 0.7347(6) 0.2262(5)
C15N C 0.4863(6) 0.8176(5) 0.0313(5)
C15K C 0.5137(6) 0.6824(5) 0.0313(5)
C15G C 0.4324(5) 0.7363(6) 0.2187(5)
C16K C 0.6205(7) 0.7628(5) 0.2153(6)
C16G C 0.5128(5) 0.6295(7) 0.0347(6)
C16N C 0.3795(7) 0.7372(5) 0.2153(6)
C17K C 0.6444(8) 0.7911(5) 0.1836(6)
C17G C 0.5411(5) 0.6056(8) 0.0664(6)
C17N C 0.3556(8) 0.7089(5) 0.1836(6)
C18K C 0.6155(6) 0.8196(4) 0.1556(5)
C18G C 0.5696(4) 0.6345(6) 0.0944(5)
C18N C 0.3845(6) 0.6804(4) 0.1556(5)
C19G C 0.489(2) 0.663(2) -0.0188(3)
C19N C 0.413(2) 0.761(2) 0.2688(3)
C19K C 0.587(2) 0.739(2) 0.2688(3)
C20K C 0.5379(13) 0.8151(12) 0.0214(4)
C20N C 0.4621(13) 0.6849(12) 0.0214(4)
C20G C 0.5651(12) 0.7121(13) 0.2286(4)
C21K C 0.5691(12) 0.8471(9) 0.0470(11)
C21G C 0.5971(9) 0.6809(12) 0.2030(11)
C21N C 0.4309(12) 0.6529(9) 0.0470(11)
C22K C 0.5867(13) 0.81640(18) 0.0821(11)
C22G C 0.56640(18) 0.6633(13) 0.1679(11)
C22N C 0.4133(13) 0.68360(18) 0.0821(11)
C23K C 0.5642(9) 0.7672(9) 0.0773(9)
C23G C 0.5172(9) 0.6858(9) 0.1727(9)
C23N C 0.4358(9) 0.7328(9) 0.0773(9)
C24K C 0.5317(9) 0.7655(12) 0.0402(8)
C24N C 0.4683(9) 0.7345(12) 0.0402(8)
C24G C 0.5155(12) 0.7183(9) 0.2098(8)
Mn1K Mn 0.57273(15) 0.74411(16) 0.16761(13)
Mn1G Mn 0.49411(16) 0.67727(15) 0.08239(13)
Mn1N Mn 0.42727(15) 0.75589(16) 0.16761(13)
C25K C 0.6324(9) 0.7828(9) 0.1797(7)
C25G C 0.5328(9) 0.6176(9) 0.0703(7)
C25N C 0.3676(9) 0.7172(9) 0.1797(7)
O1G O 0.5592(11) 0.5799(7) 0.0645(8)
O1N O 0.3299(7) 0.6908(11) 0.1855(8)
O1K O 0.6701(7) 0.8092(11) 0.1855(8)
C26N C 0.4481(7) 0.7882(15) 0.0782(9)
C26K C 0.5519(7) 0.7118(15) 0.0782(9)
C26G C 0.4618(15) 0.6981(7) 0.1718(9)
O2K O 0.5847(7) 0.7414(19) 0.0770(10)
O2G O 0.4914(19) 0.6653(7) 0.1730(10)
O2N O 0.4153(7) 0.7586(19) 0.0770(10)
C54? C 0.8919(5) 0.9203(5) 0.1225(5)
H37? H 0.8942 0.9272 0.1531
H38? H 0.9265 0.9194 0.1104
H39? H 0.8751 0.8871 0.1180
C55? C 0.8579(4) 0.9485(4) 0.0518(3)
H40? H 0.8381 0.9743 0.0361
H41? H 0.8414 0.9150 0.0487
H42? H 0.8928 0.9470 0.0404
C56? C 0.8891(5) 1.0104(4) 0.1259(4)
H43? H 0.9040 0.9964 0.1524
H44? H 0.9176 1.0233 0.1082
C57? C 0.8558(5) 1.0525(5) 0.1364(4)
H45? H 0.8445 1.0705 0.1104
H46? H 0.8737 1.0773 0.1551
C58? C 0.7695(6) 1.0747(5) 0.1594(5)
H47? H 0.7597 1.0837 0.1303
H48? H 0.7836 1.1050 0.1737
H49? H 0.7392 1.0626 0.1749
C59? C 0.8223(6) 1.0206(5) 0.2040(4)
H50? H 0.7918 1.0054 0.2171
H51? H 0.8303 1.0531 0.2181
H52? H 0.8514 0.9971 0.2069
N14? N 0.3829(2) 0.5599(2) -0.0166(2)
O29? O 0.4246(3) 0.5362(3) -0.0215(3)
O30? O 0.3559(2) 0.5457(2) 0.0136(2)
O31? O 0.3670(2) 0.5902(2) -0.0439(2)
O32? O 0.4734(5) 1.0565(4) -0.3924(4)
O33? O 0.4588(5) 1.0007(5) -0.3185(4)
N15? N 0.3178(6) 0.7893(5) -0.4983(4)
O34? O 0.2978(5) 0.7992(5) -0.4640(4)
O35? O 0.3083(5) 0.7478(5) -0.5164(4)
O36? O 0.3440(6) 0.8214(6) -0.5198(5)
C60? C 0.4960(9) 0.6671(14) 0.1335(10)
O37? O 0.4944(10) 0.6622(17) 0.1711(10)
O38? O 0.9415(15) 1.1170(15) 0.0679(12)
O39? O 0.6658(14) 0.5989(13) -0.0927(12)
O40? O 0.3792(6) 0.6531(6) -0.2966(5)
O41? O 0.5975(12) 0.5865(12) -0.1546(10)
O42? O 0.7393(6) 0.9739(5) -0.4625(4)
O43? O 0.9530(18) 0.9321(18) -0.3868(15)
O44? O 0.5845(10) 0.9429(10) -0.4894(9)
O45? O 0.5460(19) 1.028(2) -0.5332(16)
O46? O 0.4068(13) 0.7467(14) -0.4179(11)
O47? O 1.0068(7) 0.9153(7) -0.4258(6)
O48? O 0.6754(6) 0.9263(6) -0.5369(5)
O49? O 0.4927(16) 0.9117(16) -0.4347(14)
O50? O 0.8951(13) 0.9521(13) -0.4438(11)
loop_
_geom_bond_atom_site_label_1
_geom_bond_atom_site_label_2
_geom_bond_site_symmetry_1
_geom_bond_site_symmetry_2
C1 C2 1_555 1_555
C2 C3 1_555 1_555
C3 C4 1_555 1_555
C4 C5 1_555 1_555
C5 C6 1_555 1_555
C6 C1 1_555 1_555
C7 C6 1_555 1_555
C8 C7 1_555 1_555
C9 C8 1_555 1_555
C10 C5 1_555 1_555
C11 C1 1_555 1_555
C12 C1 1_555 1_555
C13 C12 1_555 1_555
C14 C9 1_555 1_555
C15 C8 1_555 1_555
C16 C3 1_555 1_555
C17 C3 1_555 1_555
C18 C3 1_555 1_555
C19 C13 1_555 1_555
C20 C9 1_555 1_555
C21 C10 1_555 1_555
C22 C5 1_555 1_555
C23 C5 1_555 1_555
C24 C8 1_555 1_555
Mn1 C1 1_555 1_555
C25 C2 1_555 1_555
O1 C3 1_555 1_555
C26 C7 1_555 1_555
O2 C5 1_555 1_555
N1 O3 1_555 1_555
O4 N1 1_555 1_555
O5 N1 1_555 1_555
N2 O6 1_555 1_555
O7 N2 1_555 1_555
O8 N2 1_555 1_555
N3 O9 1_555 1_555
O10 N3 1_555 1_555
O11 N3 1_555 1_555
N4 O12 1_555 1_555
O13 N4 1_555 1_555
O14 N4 1_555 1_555
Pd1 N6 1_555 1_555
Pd2 N5 1_555 1_555
N5 C27 1_555 1_555
C27 H1 1_555 1_555
C28 C27 1_555 1_555
H2 C28 1_555 1_555
C29 C28 1_555 1_555
C30 C29 1_555 1_555
H3 C30 1_555 1_555
C31 N5 1_555 1_555
H4 C31 1_555 1_555
N6 C32 1_555 1_555
C32 H5 1_555 1_555
C33 C32 1_555 1_555
H6 C33 1_555 1_555
C34 C33 1_555 1_555
C35 C34 1_555 1_555
H7 C35 1_555 1_555
C36 N6 1_555 1_555
H8 C36 1_555 1_555
N7 Pd2 1_555 1_555
C37 N7 1_555 1_555
H9 C37 1_555 1_555
C38 C37 1_555 1_555
H10 C38 1_555 1_555
C39 C38 1_555 1_555
C40 C39 1_555 1_555
H11 C40 1_555 1_555
C41 N7 1_555 1_555
H12 C41 1_555 1_555
N8 C42 1_555 1_555
C42 C29 1_555 1_555
N9 C43 1_555 1_555
C43 C34 1_555 1_555
N10 C42 1_555 1_555
C44 C39 1_555 1_555
N11 Pd1 1_555 1_555
N12 Pd2 1_555 1_555
N13 Pd2 1_555 1_555
C45 N11 1_555 1_555
H13 C45 1_555 1_555
H14 C45 1_555 1_555
H15 C45 1_555 1_555
C46 N11 1_555 1_555
H16 C46 1_555 1_555
H17 C46 1_555 1_555
H18 C46 1_555 1_555
C47 N11 1_555 1_555
H19 C47 1_555 1_555
H20 C47 1_555 1_555
C48 N12 1_555 1_555
H21 C48 1_555 1_555
H22 C48 1_555 1_555
H23 C48 1_555 1_555
C49 N12 1_555 1_555
H24 C49 1_555 1_555
H25 C49 1_555 1_555
H26 C49 1_555 1_555
C50 N12 1_555 1_555
H27 C50 1_555 1_555
H28 C50 1_555 1_555
C51 N13 1_555 1_555
H29 C51 1_555 1_555
H30 C51 1_555 1_555
C52 N13 1_555 1_555
H31 C52 1_555 1_555
H32 C52 1_555 1_555
H33 C52 1_555 1_555
C53 N13 1_555 1_555
H34 C53 1_555 1_555
H35 C53 1_555 1_555
H36 C53 1_555 1_555
C1K C2K 1_555 1_555
C1G C2G 1_555 1_555
C1N C2N 1_555 1_555
C2K C3K 1_555 1_555
C2G C3G 1_555 1_555
C2N C3N 1_555 1_555
C3K C4K 1_555 1_555
C3G C4G 1_555 1_555
C3N C4N 1_555 1_555
C4K C5K 1_555 1_555
C4G C5G 1_555 1_555
C4N C5N 1_555 1_555
C5K C6K 1_555 1_555
C5G C6G 1_555 1_555
C5N C6N 1_555 1_555
C6K C1K 1_555 1_555
C6G C1G 1_555 1_555
C6N C1N 1_555 1_555
C7K C6K 1_555 1_555
C7G C6G 1_555 1_555
C7N C18 1_555 1_555
C8K C7K 1_555 1_555
C8G C7G 1_555 1_555
C8N Mn1 1_555 1_555
C9K Mn1 1_555 1_555
C9G C8G 1_555 1_555
C9N C8N 1_555 1_555
C10K C11 1_555 1_555
C10G C5G 1_555 1_555
C10N C5N 1_555 1_555
C11K C1K 1_555 1_555
C11G C1G 1_555 1_555
C11N C10 1_555 1_555
C12K C1K 1_555 1_555
C12G C1G 1_555 1_555
C12N C21 1_555 1_555
C13G C12G 1_555 1_555
C13N C14 1_555 1_555
C13K C15 1_555 1_555
C14K C13 1_555 1_555
C14N C9N 1_555 1_555
C14G C15 1_555 1_555
C15N C13 1_555 1_555
C15K C8K 1_555 1_555
C15G C14 1_555 1_555
C16K C15 1_555 1_555
C16G C3G 1_555 1_555
C16N C3N 1_555 1_555
C17K C3K 1_555 1_555
C17G C3G 1_555 1_555
C17N C3N 1_555 1_555
C18K C7 1_555 1_555
C18G C3G 1_555 1_555
C18N C3N 1_555 1_555
C19G C13G 1_555 1_555
C19N C14 1_555 1_555
C19K C13K 1_555 1_555
C20K C13 1_555 1_555
C20N C9N 1_555 1_555
C20G C15 1_555 1_555
C21K C11 1_555 1_555
C21G C10G 1_555 1_555
C21N C10N 1_555 1_555
C22K C11 1_555 1_555
C22G C5G 1_555 1_555
C22N C5N 1_555 1_555
C23K Mn1 1_555 1_555
C23G C5G 1_555 1_555
C23N C5N 1_555 1_555
C24K Mn1 1_555 1_555
C24N C8N 1_555 1_555
C24G C8G 1_555 1_555
Mn1K C7 1_555 1_555
Mn1G C1G 1_555 1_555
Mn1N C9 1_555 1_555
C25K C2K 1_555 1_555
C25G C2G 1_555 1_555
C25N C2N 1_555 1_555
O1G C3G 1_555 1_555
O1N C3N 1_555 1_555
O1K C3K 1_555 1_555
C26N Mn1 1_555 1_555
C26K C7K 1_555 1_555
C26G C7G 1_555 1_555
O2K C5K 1_555 1_555
O2G C5G 1_555 1_555
O2N C5N 1_555 1_555
Pd1N N6N 1_555 1_555
Pd2K N5K 1_555 1_555
Pd2G N5G 1_555 1_555
Pd2N N5N 1_555 1_555
N5K C27K 1_555 1_555
N5G C27G 1_555 1_555
N5N C27N 1_555 1_555
C27K H1K 1_555 1_555
C27G H1G 1_555 1_555
C27N H1N 1_555 1_555
C28K C27K 1_555 1_555
C28G C27G 1_555 1_555
C28N C27N 1_555 1_555
H2K C28K 1_555 1_555
H2G C28G 1_555 1_555
H2N C28N 1_555 1_555
C29K C28K 1_555 1_555
C29G C28G 1_555 1_555
C29N C28N 1_555 1_555
C30K C29K 1_555 1_555
C30G C29G 1_555 1_555
C30N C29N 1_555 1_555
H3K C30K 1_555 1_555
H3G C30G 1_555 1_555
H3N C30N 1_555 1_555
C31K N5K 1_555 1_555
C31G N5G 1_555 1_555
C31N N5N 1_555 1_555
H4K C31K 1_555 1_555
H4G C31G 1_555 1_555
H4N C31N 1_555 1_555
N6N C32N 1_555 1_555
N6K Pd1N 1_555 1_555
N6G Pd1 1_555 1_555
C32N H5N 1_555 1_555
C32K N6K 1_555 1_555
C32G N6G 1_555 1_555
H5K C32K 1_555 1_555
H5G C32G 1_555 1_555
C33N C32N 1_555 1_555
C33K C32K 1_555 1_555
C33G C32G 1_555 1_555
H6K C33K 1_555 1_555
H6G C33G 1_555 1_555
H6N C33N 1_555 1_555
C34N C33N 1_555 1_555
C34K C33K 1_555 1_555
C34G C33G 1_555 1_555
C35K C34K 1_555 1_555
C35G C34G 1_555 1_555
C35N C34N 1_555 1_555
H7K C35K 1_555 1_555
H7G C35G 1_555 1_555
H7N C35N 1_555 1_555
C36K N6K 1_555 1_555
C36G N6G 1_555 1_555
C36N N6N 1_555 1_555
H8K C36K 1_555 1_555
H8G C36G 1_555 1_555
H8N C36N 1_555 1_555
N7K Pd2K 1_555 1_555
N7G Pd2G 1_555 1_555
N7N Pd2N 1_555 1_555
C37K N7K 1_555 1_555
C37G N7G 1_555 1_555
C37N N7N 1_555 1_555
H9K C37K 1_555 1_555
H9N C37N 1_555 1_555
H9G C37G 1_555 1_555
C38K C37K 1_555 1_555
C38G C37G 1_555 1_555
C38N C37N 1_555 1_555
H10K C38K 1_555 1_555
H10N C38N 1_555 1_555
H10G C38G 1_555 1_555
C39K C38K 1_555 1_555
C39G C38G 1_555 1_555
C39N C38N 1_555 1_555
C40K C39K 1_555 1_555
C40N C39N 1_555 1_555
C40G C39G 1_555 1_555
H11K C40K 1_555 1_555
H11N C40N 1_555 1_555
H11G C40G 1_555 1_555
C41K N7K 1_555 1_555
C41N N7N 1_555 1_555
C41G N7G 1_555 1_555
H12K C41K 1_555 1_555
H12N C41N 1_555 1_555
H12G C41G 1_555 1_555
N8K C42K 1_555 1_555
N8G C42G 1_555 1_555
N8N C42N 1_555 1_555
C42K C29K 1_555 1_555
C42G C29G 1_555 1_555
C42N C29N 1_555 1_555
N9N C44 1_555 1_555
N9G C43G 1_555 1_555
N9K C43K 1_555 1_555
C43N C34N 1_555 1_555
C43K C34K 1_555 1_555
C43G C34G 1_555 1_555
N10K C42K 1_555 1_555
N10N C44 1_555 1_555
N10G C42G 1_555 1_555
C44K N9 1_555 1_555
C44G C39G 1_555 1_555
C44N C39N 1_555 1_555
N11G Pd1 1_555 1_555
N11N Pd1N 1_555 1_555
N11K Pd1N 1_555 1_555
N12K Pd2K 1_555 1_555
N12N Pd2N 1_555 1_555
N12G Pd2G 1_555 1_555
N13K Pd2K 1_555 1_555
N13N Pd2N 1_555 1_555
N13G Pd2G 1_555 1_555
C45G N11G 1_555 1_555
C45N N11N 1_555 1_555
C45K N11K 1_555 1_555
H13G C45G 1_555 1_555
H13N C45N 1_555 1_555
H13K C45K 1_555 1_555
H14G C45G 1_555 1_555
H14N C45N 1_555 1_555
H14K C45K 1_555 1_555
H15G C45G 1_555 1_555
H15N C45N 1_555 1_555
H15K C45K 1_555 1_555
C46G N11G 1_555 1_555
C46N N11N 1_555 1_555
C46K N11K 1_555 1_555
H16G C46G 1_555 1_555
H16N C46N 1_555 1_555
H16K C46K 1_555 1_555
H17G C46G 1_555 1_555
H17N C46N 1_555 1_555
H17K C46K 1_555 1_555
H18G C46G 1_555 1_555
H18N C46N 1_555 1_555
H18K C46K 1_555 1_555
C47G C47 1_555 1_555
C47N N11N 1_555 1_555
C47K N11K 1_555 1_555
H19G C47G 1_555 1_555
H19K C47K 1_555 1_555
H19N C47N 1_555 1_555
H20G C47G 1_555 1_555
H20K C47K 1_555 1_555
H20N C47N 1_555 1_555
C48K N12K 1_555 1_555
C48N N12N 1_555 1_555
C48G N12G 1_555 1_555
H21K C48K 1_555 1_555
H21N C48N 1_555 1_555
H21G C48G 1_555 1_555
H22K C48K 1_555 1_555
H22N C48N 1_555 1_555
H22G C48G 1_555 1_555
H23K C48K 1_555 1_555
H23N C48N 1_555 1_555
H23G C48G 1_555 1_555
C49K N12K 1_555 1_555
C49N N12N 1_555 1_555
C49G N12G 1_555 1_555
H24K C49K 1_555 1_555
H24N C49N 1_555 1_555
H24G C49G 1_555 1_555
H25K C49K 1_555 1_555
H25N C49N 1_555 1_555
H25G C49G 1_555 1_555
H26K C49K 1_555 1_555
H26N C49N 1_555 1_555
H26G C49G 1_555 1_555
C50K N12K 1_555 1_555
C50N N12N 1_555 1_555
C50G N12G 1_555 1_555
H27K C50K 1_555 1_555
H27N C50N 1_555 1_555
H27G C50G 1_555 1_555
H28K C50K 1_555 1_555
H28N C50N 1_555 1_555
H28G C50G 1_555 1_555
C51K N13K 1_555 1_555
C51N N13N 1_555 1_555
C51G N13G 1_555 1_555
H29K C51K 1_555 1_555
H29N C51N 1_555 1_555
H29G C51G 1_555 1_555
H30K C51K 1_555 1_555
H30N C51N 1_555 1_555
H30G C51G 1_555 1_555
C52K N13K 1_555 1_555
C52N N13N 1_555 1_555
C52G N13G 1_555 1_555
H31K C52K 1_555 1_555
H31N C52N 1_555 1_555
H31G C52G 1_555 1_555
H32K C52K 1_555 1_555
H32N C52N 1_555 1_555
H32G C52G 1_555 1_555
H33K C52K 1_555 1_555
H33N C52N 1_555 1_555
H33G C52G 1_555 1_555
C53K N13K 1_555 1_555
C53N N13N 1_555 1_555
C53G N13G 1_555 1_555
H34K C53K 1_555 1_555
H34N C53N 1_555 1_555
H34G C53G 1_555 1_555
H35K C53K 1_555 1_555
H35N C53N 1_555 1_555
H35G C53G 1_555 1_555
H36K C53K 1_555 1_555
H36N C53N 1_555 1_555
H36G C53G 1_555 1_555
C2 C12 1_555 1_555
C2 Mn1 1_555 1_555
C3 C25 1_555 1_555
C4 C17 1_555 1_555
C4 C18 1_555 1_555
C4 Mn1 1_555 1_555
C4 C25 1_555 1_555
C4 O1 1_555 1_555
C5 C18 1_555 1_555
C5 Mn1 1_555 1_555
C6 Mn1 1_555 1_555
C6 O2 1_555 1_555
C7 O2 1_555 1_555
C8 C23 1_555 1_555
C8 C26 1_555 1_555
C8 O2 1_555 1_555
C8 Mn1K 1_555 1_555
C9 C10 1_555 1_555
C9 C23 1_555 1_555
C9 C24 1_555 1_555
C9 C26 1_555 1_555
C9 O2 1_555 1_555
C10 C22 1_555 1_555
C10 C23 1_555 1_555
C10 O2 1_555 1_555
C10 Mn1N 1_555 1_555
C11 C12 1_555 1_555
C11 Mn1 1_555 1_555
C12 C16 1_555 1_555
C12 Mn1 1_555 1_555
C12 C21K 1_555 1_555
C13 C16 1_555 1_555
C13 Mn1 1_555 1_555
C13 C21K 1_555 1_555
C14 C20 1_555 1_555
C14 C24 1_555 1_555
C14 Mn1N 1_555 1_555
C15 Mn1K 1_555 1_555
C16 C17 1_555 1_555
C16 Mn1 1_555 1_555
C16 C25 1_555 1_555
C16 C15N 1_555 1_555
C17 C18 1_555 1_555
C17 Mn1 1_555 1_555
C17 C25 1_555 1_555
C17 O1 1_555 1_555
C18 Mn1 1_555 1_555
C18 C25 1_555 1_555
C18 O1 1_555 1_555
C19 C14K 1_555 1_555
C19 C20K 1_555 1_555
C20 C21 1_555 1_555
C20 C24 1_555 1_555
C20 C13N 1_555 1_555
C20 C15G 1_555 1_555
C20 C19N 1_555 1_555
C20 Mn1N 1_555 1_555
C21 C22 1_555 1_555
C21 C11N 1_555 1_555
C21 C13N 1_555 1_555
C21 Mn1N 1_555 1_555
C22 C23 1_555 1_555
C22 C11N 1_555 1_555
C22 Mn1N 1_555 1_555
C23 C24 1_555 1_555
C23 C26 1_555 1_555
C23 O2 1_555 1_555
C23 Mn1N 1_555 1_555
C24 Mn1N 1_555 1_555
Mn1 C25 1_555 1_555
Mn1 C7N 1_555 1_555
Mn1 C10K 1_555 1_555
Mn1 C14K 1_555 1_555
Mn1 C15N 1_555 1_555
Mn1 C20K 1_555 1_555
Mn1 C21K 1_555 1_555
Mn1 C22K 1_555 1_555
C25 O1 1_555 1_555
C26 O2 1_555 1_555
C26 Mn1K 1_555 1_555
C30 C31 1_555 1_555
C35 C36 1_555 1_555
C40 C41 1_555 1_555
N8 C43 1_555 1_555
N10 C44K 1_555 1_555
C50 C51 1_555 1_555
C1K Mn1K 1_555 1_555
C1N C11N 1_555 1_555
C1N C12N 1_555 1_555
C1N Mn1N 1_555 1_555
C2K C12K 1_555 1_555
C2K Mn1K 1_555 1_555
C2G C12G 1_555 1_555
C2G Mn1G 1_555 1_555
C2N C12N 1_555 1_555
C2N Mn1N 1_555 1_555
C3K C16K 1_555 1_555
C3K C18K 1_555 1_555
C3K C25K 1_555 1_555
C3G C25G 1_555 1_555
C3N C25N 1_555 1_555
C4K C17K 1_555 1_555
C4K C18K 1_555 1_555
C4K Mn1K 1_555 1_555
C4K C25K 1_555 1_555
C4K O1K 1_555 1_555
C4G C17G 1_555 1_555
C4G C18G 1_555 1_555
C4G Mn1G 1_555 1_555
C4G C25G 1_555 1_555
C4G O1G 1_555 1_555
C4N C17N 1_555 1_555
C4N C18N 1_555 1_555
C4N Mn1N 1_555 1_555
C4N C25N 1_555 1_555
C4N O1N 1_555 1_555
C5K C10K 1_555 1_555
C5K C18K 1_555 1_555
C5K C22K 1_555 1_555
C5K C23K 1_555 1_555
C5K Mn1K 1_555 1_555
C5G C18G 1_555 1_555
C5G Mn1G 1_555 1_555
C5N C18N 1_555 1_555
C5N Mn1N 1_555 1_555
C6K Mn1K 1_555 1_555
C6K O2K 1_555 1_555
C6G Mn1G 1_555 1_555
C6G O2G 1_555 1_555
C6N C7N 1_555 1_555
C6N Mn1N 1_555 1_555
C6N O2N 1_555 1_555
C7K C18G 1_555 1_555
C7K Mn1G 1_555 1_555
C7K O2K 1_555 1_555
C7G C18N 1_555 1_555
C7G Mn1N 1_555 1_555
C7G O2G 1_555 1_555
C7N C8N 1_555 1_555
C7N C26N 1_555 1_555
C7N O2N 1_555 1_555
C8K C9K 1_555 1_555
C8K C23K 1_555 1_555
C8K C24K 1_555 1_555
C8K Mn1G 1_555 1_555
C8K C26K 1_555 1_555
C8K O2K 1_555 1_555
C8G C15G 1_555 1_555
C8G C23G 1_555 1_555
C8G Mn1N 1_555 1_555
C8G C26G 1_555 1_555
C8G O2G 1_555 1_555
C8N C15N 1_555 1_555
C8N C23N 1_555 1_555
C8N C26N 1_555 1_555
C8N O2N 1_555 1_555
C9K C10K 1_555 1_555
C9K C14K 1_555 1_555
C9K C20K 1_555 1_555
C9K C23K 1_555 1_555
C9K C24K 1_555 1_555
C9K C26K 1_555 1_555
C9K O2K 1_555 1_555
C9G C10G 1_555 1_555
C9G C14G 1_555 1_555
C9G C20G 1_555 1_555
C9G C23G 1_555 1_555
C9G C24G 1_555 1_555
C9G Mn1K 1_555 1_555
C9G C26G 1_555 1_555
C9G O2G 1_555 1_555
C9N C10N 1_555 1_555
C9N C23N 1_555 1_555
C9N C24N 1_555 1_555
C9N Mn1G 1_555 1_555
C9N C26N 1_555 1_555
C9N O2N 1_555 1_555
C10K C21K 1_555 1_555
C10K C22K 1_555 1_555
C10K C23K 1_555 1_555
C10K O2K 1_555 1_555
C10G C11K 1_555 1_555
C10G C22G 1_555 1_555
C10G C23G 1_555 1_555
C10G Mn1K 1_555 1_555
C10G O2G 1_555 1_555
C10N C11G 1_555 1_555
C10N C22N 1_555 1_555
C10N C23N 1_555 1_555
C10N Mn1G 1_555 1_555
C10N O2N 1_555 1_555
C11K C12K 1_555 1_555
C11K C21G 1_555 1_555
C11K C22G 1_555 1_555
C11K Mn1K 1_555 1_555
C11G C12G 1_555 1_555
C11G C21N 1_555 1_555
C11G C22N 1_555 1_555
C11G Mn1G 1_555 1_555
C11N C12N 1_555 1_555
C11N Mn1N 1_555 1_555
C12K C13K 1_555 1_555
C12K C16K 1_555 1_555
C12K C21G 1_555 1_555
C12K Mn1K 1_555 1_555
C12G C16G 1_555 1_555
C12G C21N 1_555 1_555
C12G Mn1G 1_555 1_555
C12N C13N 1_555 1_555
C12N C16N 1_555 1_555
C12N Mn1N 1_555 1_555
C13G C14N 1_555 1_555
C13G C15K 1_555 1_555
C13G C16G 1_555 1_555
C13G C20N 1_555 1_555
C13G C21N 1_555 1_555
C13G Mn1G 1_555 1_555
C13N C15G 1_555 1_555
C13N C16N 1_555 1_555
C13N C19N 1_555 1_555
C13N Mn1N 1_555 1_555
C13K C14G 1_555 1_555
C13K C16K 1_555 1_555
C13K C20G 1_555 1_555
C13K C21G 1_555 1_555
C13K Mn1K 1_555 1_555
C14K C15N 1_555 1_555
C14K C20K 1_555 1_555
C14K C24K 1_555 1_555
C14N C15K 1_555 1_555
C14N C19G 1_555 1_555
C14N C20N 1_555 1_555
C14N C24N 1_555 1_555
C14N Mn1G 1_555 1_555
C14G C19K 1_555 1_555
C14G C20G 1_555 1_555
C14G C24G 1_555 1_555
C14G Mn1K 1_555 1_555
C15N C20K 1_555 1_555
C15K C16G 1_555 1_555
C15K C20N 1_555 1_555
C15K Mn1G 1_555 1_555
C15G C16N 1_555 1_555
C15G Mn1N 1_555 1_555
C16K C17K 1_555 1_555
C16K Mn1K 1_555 1_555
C16K C25K 1_555 1_555
C16G C17G 1_555 1_555
C16G Mn1G 1_555 1_555
C16G C25G 1_555 1_555
C16N C17N 1_555 1_555
C16N Mn1N 1_555 1_555
C16N C25N 1_555 1_555
C17K C18K 1_555 1_555
C17K Mn1K 1_555 1_555
C17K C25K 1_555 1_555
C17K O1K 1_555 1_555
C17G C18G 1_555 1_555
C17G Mn1G 1_555 1_555
C17G C25G 1_555 1_555
C17G O1G 1_555 1_555
C17N C18N 1_555 1_555
C17N Mn1N 1_555 1_555
C17N C25N 1_555 1_555
C17N O1N 1_555 1_555
C18K Mn1K 1_555 1_555
C18K C25K 1_555 1_555
C18K O1K 1_555 1_555
C18G Mn1G 1_555 1_555
C18G C25G 1_555 1_555
C18G O1G 1_555 1_555
C18N Mn1N 1_555 1_555
C18N C25N 1_555 1_555
C18N O1N 1_555 1_555
C19G C20N 1_555 1_555
C19K C20G 1_555 1_555
C20K C21K 1_555 1_555
C20K C24K 1_555 1_555
C20N C21N 1_555 1_555
C20N C24N 1_555 1_555
C20N Mn1G 1_555 1_555
C20G C21G 1_555 1_555
C20G C24G 1_555 1_555
C20G Mn1K 1_555 1_555
C21K C22K 1_555 1_555
C21G C22G 1_555 1_555
C21G Mn1K 1_555 1_555
C21N C22N 1_555 1_555
C21N Mn1G 1_555 1_555
C22K C23K 1_555 1_555
C22G C23G 1_555 1_555
C22G Mn1K 1_555 1_555
C22N C23N 1_555 1_555
C22N Mn1G 1_555 1_555
C23K C24K 1_555 1_555
C23K C26K 1_555 1_555
C23K O2K 1_555 1_555
C23G C24G 1_555 1_555
C23G Mn1K 1_555 1_555
C23G C26G 1_555 1_555
C23G O2G 1_555 1_555
C23N C24N 1_555 1_555
C23N Mn1G 1_555 1_555
C23N C26N 1_555 1_555
C23N O2N 1_555 1_555
C24N Mn1G 1_555 1_555
C24G Mn1K 1_555 1_555
Mn1K C25K 1_555 1_555
Mn1G C25G 1_555 1_555
Mn1G C26K 1_555 1_555
Mn1N C25N 1_555 1_555
Mn1N C26G 1_555 1_555
C25K O1K 1_555 1_555
C25G O1G 1_555 1_555
C25N O1N 1_555 1_555
C26N O2N 1_555 1_555
C26K O2K 1_555 1_555
C26G O2G 1_555 1_555
C30K C31K 1_555 1_555
C30G C31G 1_555 1_555
C30N C31N 1_555 1_555
C35K C36K 1_555 1_555
C35G C36G 1_555 1_555
C35N C36N 1_555 1_555
C39K C44K 1_555 1_555
C40K C41K 1_555 1_555
C40N C41N 1_555 1_555
C40G C41G 1_555 1_555
N8K C43K 1_555 1_555
N8G C43G 1_555 1_555
N8N C43N 1_555 1_555
C42N N10N 1_555 1_555
N9N C43N 1_555 1_555
N9G C44N 1_555 1_555
N9K C44G 1_555 1_555
N10K C44G 1_555 1_555
N10G C44N 1_555 1_555
N11G C47G 1_555 1_555
C47N C47K 1_555 1_555
C50K C51K 1_555 1_555
C50N C51N 1_555 1_555
C50G C51G 1_555 1_555

#END
