# generated using pymatgen
data_Mn3H144Pd6C180N50O79
_symmetry_space_group_name_H-M   'P 1'
_cell_length_a   24.81700000
_cell_length_b   24.84800000
_cell_length_c   24.93500000
_cell_angle_alpha   64.50300000
_cell_angle_beta   65.15700000
_cell_angle_gamma   60.19000000
_symmetry_Int_Tables_number   1
_chemical_formula_structural   Mn3H144Pd6C180N50O79
_chemical_formula_sum   'Mn6 H288 Pd12 C360 N100 O158'
_cell_volume   11617.63753307
_cell_formula_units_Z   2
loop_
 _symmetry_equiv_pos_site_id
 _symmetry_equiv_pos_as_xyz
  1  'x, y, z'
loop_
 _atom_site_type_symbol
 _atom_site_label
 _atom_site_symmetry_multiplicity
 _atom_site_fract_x
 _atom_site_fract_y
 _atom_site_fract_z
 _atom_site_occupancy
  Mn  Mn1  1  0.923500  0.904200  0.896200  1
  Mn  Mn2  1  0.076500  0.095800  0.103800  1
  Mn  Mn3  1  0.767900  0.924500  0.893900  1
  Mn  Mn4  1  0.232100  0.075500  0.106100  1
  Mn  Mn5  1  0.900100  0.765400  0.893400  1
  Mn  Mn6  1  0.099900  0.234600  0.106600  1
  H  H7  1  0.113400  0.561500  0.729900  1
  H  H8  1  0.886600  0.438500  0.270100  1
  H  H9  1  0.135000  0.604800  0.778300  1
  H  H10  1  0.865000  0.395200  0.221700  1
  H  H11  1  0.128900  0.761800  0.625600  1
  H  H12  1  0.871100  0.238200  0.374400  1
  H  H13  1  0.109500  0.709500  0.580900  1
  H  H14  1  0.890500  0.290500  0.419100  1
  H  H15  1  0.164200  0.710900  0.007600  1
  H  H16  1  0.835800  0.289100  0.992400  1
  H  H17  1  0.158800  0.764900  0.904200  1
  H  H18  1  0.841200  0.235100  0.095800  1
  H  H19  1  0.142300  0.613000  0.903000  1
  H  H20  1  0.857700  0.387000  0.097000  1
  H  H21  1  0.152500  0.559800  0.002300  1
  H  H22  1  0.847500  0.440200  0.997700  1
  H  H23  1  0.149000  0.987100  0.581900  1
  H  H24  1  0.851000  0.012900  0.418100  1
  H  H25  1  0.143400  0.883600  0.629800  1
  H  H26  1  0.856600  0.116400  0.370200  1
  H  H27  1  0.159800  0.885800  0.784900  1
  H  H28  1  0.840200  0.114200  0.215100  1
  H  H29  1  0.152500  0.992400  0.736000  1
  H  H30  1  0.847500  0.007600  0.264000  1
  H  H31  1  0.986400  0.729300  0.581000  1
  H  H32  1  0.013600  0.270700  0.419000  1
  H  H33  1  0.892500  0.798300  0.637200  1
  H  H34  1  0.107500  0.201700  0.362800  1
  H  H35  1  0.883900  0.643100  0.781300  1
  H  H36  1  0.116100  0.356900  0.218700  1
  H  H37  1  0.984400  0.581400  0.733100  1
  H  H38  1  0.015600  0.418600  0.266900  1
  H  H39  1  0.560900  0.059800  0.727800  1
  H  H40  1  0.439100  0.940200  0.272200  1
  H  H41  1  0.608300  0.951500  0.781000  1
  H  H42  1  0.391700  0.048500  0.219000  1
  H  H43  1  0.765200  0.933100  0.640900  1
  H  H44  1  0.234800  0.066900  0.359100  1
  H  H45  1  0.714900  0.041600  0.587500  1
  H  H46  1  0.285100  0.958400  0.412500  1
  H  H47  1  0.714000  0.617400  0.006100  1
  H  H48  1  0.286000  0.382600  0.993900  1
  H  H49  1  0.774000  0.658800  0.904000  1
  H  H50  1  0.226000  0.341200  0.096000  1
  H  H51  1  0.613000  0.832200  0.900000  1
  H  H52  1  0.387000  0.167800  0.100000  1
  H  H53  1  0.564800  0.783100  0.001300  1
  H  H54  1  0.435200  0.216900  0.998700  1
  H  H55  1  0.036400  0.579900  0.127900  1
  H  H56  1  0.963600  0.420100  0.872100  1
  H  H57  1  0.928800  0.639800  0.123700  1
  H  H58  1  0.071200  0.360200  0.876300  1
  H  H59  1  0.954000  0.791600  0.114100  1
  H  H60  1  0.046000  0.208400  0.885900  1
  H  H61  1  0.060700  0.726000  0.112700  1
  H  H62  1  0.939300  0.274000  0.887300  1
  H  H63  1  0.580500  0.784100  0.117200  1
  H  H64  1  0.419500  0.215900  0.882800  1
  H  H65  1  0.640100  0.831800  0.114300  1
  H  H66  1  0.359900  0.168200  0.885700  1
  H  H67  1  0.787900  0.653400  0.123700  1
  H  H68  1  0.212100  0.346600  0.876300  1
  H  H69  1  0.720700  0.621500  0.111400  1
  H  H70  1  0.279300  0.378500  0.888600  1
  H  H71  1  0.783000  0.036900  0.123500  1
  H  H72  1  0.217000  0.963100  0.876500  1
  H  H73  1  0.826400  0.928200  0.122100  1
  H  H74  1  0.173600  0.071800  0.877900  1
  H  H75  1  0.659700  0.953600  0.113100  1
  H  H76  1  0.340300  0.046400  0.886900  1
  H  H77  1  0.617600  0.053700  0.123500  1
  H  H78  1  0.382400  0.946300  0.876500  1
  H  H79  1  0.063100  0.108300  0.732700  1
  H  H80  1  0.936900  0.891700  0.267300  1
  H  H81  1  0.957300  0.123600  0.783000  1
  H  H82  1  0.042700  0.876400  0.217000  1
  H  H83  1  0.939900  0.126600  0.622500  1
  H  H84  1  0.060100  0.873400  0.377500  1
  H  H85  1  0.038900  0.121900  0.581300  1
  H  H86  1  0.961100  0.878100  0.418700  1
  H  H87  1  0.616600  0.162600  0.009400  1
  H  H88  1  0.383400  0.837400  0.990600  1
  H  H89  1  0.653800  0.165600  0.903900  1
  H  H90  1  0.346200  0.834400  0.096100  1
  H  H91  1  0.829500  0.145500  0.904700  1
  H  H92  1  0.170500  0.854500  0.095300  1
  H  H93  1  0.778500  0.153800  0.008300  1
  H  H94  1  0.221500  0.846200  0.991700  1
  H  H95  1  0.717100  0.162500  0.578600  1
  H  H96  1  0.282900  0.837500  0.421400  1
  H  H97  1  0.783300  0.151700  0.626600  1
  H  H98  1  0.216700  0.848300  0.373400  1
  H  H99  1  0.639200  0.152700  0.785400  1
  H  H100  1  0.360800  0.847300  0.214600  1
  H  H101  1  0.575100  0.166900  0.730300  1
  H  H102  1  0.424900  0.833100  0.269700  1
  H  H103  1  0.249200  0.459700  0.608000  1
  H  H104  1  0.750800  0.540300  0.392000  1
  H  H105  1  0.179800  0.460600  0.651500  1
  H  H106  1  0.820200  0.539400  0.348500  1
  H  H107  1  0.207400  0.506600  0.651700  1
  H  H108  1  0.792600  0.493400  0.348300  1
  H  H109  1  0.250600  0.561200  0.508700  1
  H  H110  1  0.749400  0.438800  0.491300  1
  H  H111  1  0.209300  0.608700  0.551700  1
  H  H112  1  0.790700  0.391300  0.448300  1
  H  H113  1  0.184500  0.619600  0.496700  1
  H  H114  1  0.815500  0.380400  0.503300  1
  H  H115  1  0.186600  0.502600  0.503700  1
  H  H116  1  0.813400  0.497400  0.496300  1
  H  H117  1  0.165700  0.460900  0.572500  1
  H  H118  1  0.834300  0.539100  0.427500  1
  H  H119  1  0.095600  0.489300  0.547800  1
  H  H120  1  0.904400  0.510700  0.452200  1
  H  H121  1  0.106300  0.551600  0.497000  1
  H  H122  1  0.893700  0.448400  0.503000  1
  H  H123  1  0.004100  0.594000  0.518700  1
  H  H124  1  0.995900  0.406000  0.481300  1
  H  H125  1  0.045000  0.634900  0.502900  1
  H  H126  1  0.955000  0.365100  0.497100  1
  H  H127  1  0.981100  0.641400  0.558600  1
  H  H128  1  0.018900  0.358600  0.441400  1
  H  H129  1  0.999100  0.509800  0.603900  1
  H  H130  1  0.000900  0.490200  0.396100  1
  H  H131  1  0.976000  0.553000  0.648000  1
  H  H132  1  0.024000  0.447000  0.352000  1
  H  H133  1  0.040100  0.488500  0.650000  1
  H  H134  1  0.959900  0.511500  0.350000  1
  H  H135  1  0.312400  0.462500  0.062600  1
  H  H136  1  0.687600  0.537500  0.937400  1
  H  H137  1  0.254300  0.505100  0.030500  1
  H  H138  1  0.745700  0.494900  0.969500  1
  H  H139  1  0.242900  0.459700  0.099700  1
  H  H140  1  0.757100  0.540300  0.900300  1
  H  H141  1  0.334600  0.546300  0.048100  1
  H  H142  1  0.665400  0.453700  0.951900  1
  H  H143  1  0.279800  0.606300  0.073800  1
  H  H144  1  0.720200  0.393700  0.926200  1
  H  H145  1  0.279800  0.598800  0.013200  1
  H  H146  1  0.720200  0.401200  0.986800  1
  H  H147  1  0.302600  0.482300  0.155300  1
  H  H148  1  0.697400  0.517700  0.844700  1
  H  H149  1  0.257900  0.554100  0.161500  1
  H  H150  1  0.742100  0.445900  0.838500  1
  H  H151  1  0.221300  0.482000  0.240400  1
  H  H152  1  0.778700  0.518000  0.759600  1
  H  H153  1  0.215300  0.458000  0.193500  1
  H  H154  1  0.784700  0.542000  0.806500  1
  H  H155  1  0.098700  0.500900  0.273300  1
  H  H156  1  0.901300  0.499100  0.726700  1
  H  H157  1  0.111900  0.486500  0.211300  1
  H  H158  1  0.888100  0.513500  0.788700  1
  H  H159  1  0.056600  0.552700  0.225400  1
  H  H160  1  0.943400  0.447300  0.774600  1
  H  H161  1  0.127000  0.579700  0.267900  1
  H  H162  1  0.873000  0.420300  0.732100  1
  H  H163  1  0.086700  0.632300  0.218800  1
  H  H164  1  0.913300  0.367700  0.781200  1
  H  H165  1  0.160800  0.619300  0.203900  1
  H  H166  1  0.839200  0.380700  0.796100  1
  H  H167  1  0.313500  0.025700  0.512000  1
  H  H168  1  0.686500  0.974300  0.488000  1
  H  H169  1  0.246300  0.065400  0.494100  1
  H  H170  1  0.753700  0.934600  0.505900  1
  H  H171  1  0.259600  0.995800  0.543600  1
  H  H172  1  0.740400  0.004200  0.456400  1
  H  H173  1  0.321800  0.022800  0.613800  1
  H  H174  1  0.678200  0.977200  0.386200  1
  H  H175  1  0.265000  0.999000  0.660800  1
  H  H176  1  0.735000  0.001000  0.339200  1
  H  H177  1  0.258500  0.069900  0.650400  1
  H  H178  1  0.741500  0.930100  0.349600  1
  H  H179  1  0.287000  0.109100  0.583100  1
  H  H180  1  0.713000  0.890900  0.416900  1
  H  H181  1  0.293700  0.119700  0.512600  1
  H  H182  1  0.706300  0.880300  0.487400  1
  H  H183  1  0.216100  0.200600  0.512500  1
  H  H184  1  0.783900  0.799400  0.487500  1
  H  H185  1  0.212400  0.192900  0.580200  1
  H  H186  1  0.787600  0.807100  0.419800  1
  H  H187  1  0.094500  0.265800  0.523900  1
  H  H188  1  0.905500  0.734200  0.476100  1
  H  H189  1  0.052700  0.222300  0.564700  1
  H  H190  1  0.947300  0.777700  0.435300  1
  H  H191  1  0.107500  0.206500  0.503700  1
  H  H192  1  0.892500  0.793500  0.496300  1
  H  H193  1  0.132100  0.249500  0.608900  1
  H  H194  1  0.867900  0.750500  0.391100  1
  H  H195  1  0.169000  0.177700  0.646600  1
  H  H196  1  0.831000  0.822300  0.353400  1
  H  H197  1  0.092600  0.205600  0.658400  1
  H  H198  1  0.907400  0.794400  0.341600  1
  H  H199  1  0.556500  0.128700  0.271900  1
  H  H200  1  0.443500  0.871300  0.728100  1
  H  H201  1  0.582600  0.088100  0.224500  1
  H  H202  1  0.417400  0.911900  0.775500  1
  H  H203  1  0.537600  0.163400  0.207700  1
  H  H204  1  0.462400  0.836600  0.792300  1
  H  H205  1  0.668100  0.099300  0.274700  1
  H  H206  1  0.331900  0.900700  0.725300  1
  H  H207  1  0.719500  0.117100  0.211900  1
  H  H208  1  0.280500  0.882900  0.788100  1
  H  H209  1  0.701600  0.057600  0.226800  1
  H  H210  1  0.298400  0.942400  0.773200  1
  H  H211  1  0.577500  0.217800  0.244700  1
  H  H212  1  0.422500  0.782200  0.755300  1
  H  H213  1  0.649100  0.214900  0.207400  1
  H  H214  1  0.350900  0.785100  0.792600  1
  H  H215  1  0.581800  0.304000  0.158000  1
  H  H216  1  0.418200  0.696000  0.842000  1
  H  H217  1  0.545600  0.265000  0.159300  1
  H  H218  1  0.454400  0.735000  0.840700  1
  H  H219  1  0.689400  0.314100  0.055300  1
  H  H220  1  0.310600  0.685900  0.944700  1
  H  H221  1  0.727900  0.255500  0.025100  1
  H  H222  1  0.272100  0.744500  0.974900  1
  H  H223  1  0.726900  0.243200  0.093900  1
  H  H224  1  0.273100  0.756800  0.906100  1
  H  H225  1  0.575800  0.335900  0.042600  1
  H  H226  1  0.424200  0.664100  0.957400  1
  H  H227  1  0.551200  0.278200  0.071000  1
  H  H228  1  0.448800  0.721800  0.929000  1
  H  H229  1  0.610400  0.278800  0.010900  1
  H  H230  1  0.389600  0.721200  0.989100  1
  H  H231  1  0.456800  0.682800  0.060100  1
  H  H232  1  0.543200  0.317200  0.939900  1
  H  H233  1  0.505200  0.719400  0.027900  1
  H  H234  1  0.494800  0.280600  0.972100  1
  H  H235  1  0.460600  0.719900  0.096500  1
  H  H236  1  0.539400  0.280100  0.903500  1
  H  H237  1  0.553400  0.573600  0.045200  1
  H  H238  1  0.446600  0.426400  0.954800  1
  H  H239  1  0.613200  0.551500  0.070100  1
  H  H240  1  0.386800  0.448500  0.929900  1
  H  H241  1  0.600000  0.612300  0.010900  1
  H  H242  1  0.400000  0.387700  0.989100  1
  H  H243  1  0.483700  0.595100  0.239500  1
  H  H244  1  0.516300  0.404900  0.760500  1
  H  H245  1  0.461000  0.663200  0.189100  1
  H  H246  1  0.539000  0.336800  0.810900  1
  H  H247  1  0.475700  0.584700  0.157500  1
  H  H248  1  0.524300  0.415300  0.842500  1
  H  H249  1  0.548000  0.546300  0.165200  1
  H  H250  1  0.452000  0.453700  0.834800  1
  H  H251  1  0.582500  0.557500  0.265400  1
  H  H252  1  0.417500  0.442500  0.734600  1
  H  H253  1  0.637100  0.584700  0.218000  1
  H  H254  1  0.362900  0.415300  0.782000  1
  H  H255  1  0.621800  0.538700  0.201900  1
  H  H256  1  0.378200  0.461300  0.798100  1
  H  H257  1  0.497600  0.680100  0.272700  1
  H  H258  1  0.502400  0.319900  0.727300  1
  H  H259  1  0.483500  0.733700  0.209700  1
  H  H260  1  0.516500  0.266300  0.790300  1
  H  H261  1  0.550300  0.709500  0.224200  1
  H  H262  1  0.449700  0.290500  0.775800  1
  H  H263  1  0.561800  0.089700  0.516500  1
  H  H264  1  0.438200  0.910300  0.483500  1
  H  H265  1  0.603800  0.050200  0.565400  1
  H  H266  1  0.396200  0.949800  0.434600  1
  H  H267  1  0.621900  0.104700  0.505600  1
  H  H268  1  0.378100  0.895300  0.494400  1
  H  H269  1  0.492700  0.198800  0.519100  1
  H  H270  1  0.507300  0.801200  0.480900  1
  H  H271  1  0.562100  0.199500  0.499100  1
  H  H272  1  0.437900  0.800500  0.500900  1
  H  H273  1  0.562900  0.318700  0.522600  1
  H  H274  1  0.437100  0.681300  0.477400  1
  H  H275  1  0.613500  0.264000  0.488200  1
  H  H276  1  0.386500  0.736000  0.511800  1
  H  H277  1  0.632300  0.274900  0.535700  1
  H  H278  1  0.367700  0.725100  0.464300  1
  H  H279  1  0.453000  0.267900  0.582700  1
  H  H280  1  0.547000  0.732100  0.417300  1
  H  H281  1  0.491100  0.300200  0.514000  1
  H  H282  1  0.508900  0.699800  0.486000  1
  H  H283  1  0.458200  0.127300  0.596600  1
  H  H284  1  0.541800  0.872700  0.403400  1
  H  H285  1  0.450400  0.170400  0.634100  1
  H  H286  1  0.549600  0.829600  0.365900  1
  H  H287  1  0.490800  0.094000  0.652300  1
  H  H288  1  0.509200  0.906000  0.347700  1
  H  H289  1  0.509700  0.321700  0.587500  1
  H  H290  1  0.490300  0.678300  0.412500  1
  H  H291  1  0.536700  0.275000  0.646800  1
  H  H292  1  0.463300  0.725000  0.353200  1
  H  H293  1  0.479400  0.270100  0.637600  1
  H  H294  1  0.520600  0.729900  0.362400  1
  Pd  Pd295  1  0.082810  0.598150  0.610940  1
  Pd  Pd296  1  0.917190  0.401850  0.389060  1
  Pd  Pd297  1  0.152630  0.593890  0.105090  1
  Pd  Pd298  1  0.847370  0.406110  0.894910  1
  Pd  Pd299  1  0.148960  0.088220  0.614400  1
  Pd  Pd300  1  0.851040  0.911780  0.385600  1
  Pd  Pd301  1  0.665510  0.152260  0.106130  1
  Pd  Pd302  1  0.334490  0.847740  0.893870  1
  Pd  Pd303  1  0.593430  0.665880  0.103410  1
  Pd  Pd304  1  0.406570  0.334120  0.896590  1
  Pd  Pd305  1  0.591500  0.152610  0.612870  1
  Pd  Pd306  1  0.408500  0.847390  0.387130  1
  C  C307  1  0.117000  0.602300  0.709500  1
  C  C308  1  0.883000  0.397700  0.290500  1
  C  C309  1  0.127600  0.628500  0.738600  1
  C  C310  1  0.872400  0.371500  0.261400  1
  C  C311  1  0.127900  0.693200  0.710200  1
  C  C312  1  0.872100  0.306800  0.289800  1
  C  C313  1  0.124400  0.721600  0.648500  1
  C  C314  1  0.875600  0.278400  0.351500  1
  C  C315  1  0.114200  0.689300  0.621700  1
  C  C316  1  0.885800  0.310700  0.378300  1
  C  C317  1  0.159400  0.690700  0.986000  1
  C  C318  1  0.840600  0.309300  0.014000  1
  C  C319  1  0.156100  0.723600  0.923900  1
  C  C320  1  0.843900  0.276400  0.076100  1
  C  C321  1  0.148900  0.694300  0.893900  1
  C  C322  1  0.851100  0.305700  0.106100  1
  C  C323  1  0.147100  0.633700  0.924200  1
  C  C324  1  0.852900  0.366300  0.075800  1
  C  C325  1  0.152000  0.602300  0.983000  1
  C  C326  1  0.848000  0.397700  0.017000  1
  C  C327  1  0.150700  0.966200  0.623500  1
  C  C328  1  0.849300  0.033800  0.376500  1
  C  C329  1  0.147100  0.904000  0.651900  1
  C  C330  1  0.852900  0.096000  0.348100  1
  C  C331  1  0.149000  0.874700  0.712600  1
  C  C332  1  0.851000  0.125300  0.287400  1
  C  C333  1  0.155200  0.906500  0.744100  1
  C  C334  1  0.844800  0.093500  0.255900  1
  C  C335  1  0.154400  0.968100  0.714000  1
  C  C336  1  0.845600  0.031900  0.286000  1
  C  C337  1  0.967300  0.712200  0.623000  1
  C  C338  1  0.032700  0.287800  0.377000  1
  C  C339  1  0.909200  0.753100  0.656000  1
  C  C340  1  0.090800  0.246900  0.344000  1
  C  C341  1  0.878200  0.728300  0.712500  1
  C  C342  1  0.121800  0.271700  0.287500  1
  C  C343  1  0.905800  0.662000  0.741400  1
  C  C344  1  0.094200  0.338000  0.258600  1
  C  C345  1  0.963700  0.625300  0.712200  1
  C  C346  1  0.036300  0.374700  0.287800  1
  C  C347  1  0.602600  0.034000  0.708500  1
  C  C348  1  0.397400  0.966000  0.291500  1
  C  C349  1  0.632500  0.967800  0.741300  1
  C  C350  1  0.367500  0.032200  0.258700  1
  C  C351  1  0.697000  0.924000  0.718300  1
  C  C352  1  0.303000  0.076000  0.281700  1
  C  C353  1  0.722600  0.956600  0.661100  1
  C  C354  1  0.277400  0.043400  0.338900  1
  C  C355  1  0.692000  0.023700  0.627200  1
  C  C356  1  0.308000  0.976300  0.372800  1
  C  C357  1  0.695600  0.661300  0.983900  1
  C  C358  1  0.304400  0.338700  0.016100  1
  C  C359  1  0.731600  0.684100  0.922700  1
  C  C360  1  0.268400  0.315900  0.077300  1
  C  C361  1  0.695600  0.749800  0.893000  1
  C  C362  1  0.304400  0.250200  0.107000  1
  C  C363  1  0.634500  0.788500  0.920700  1
  C  C364  1  0.365500  0.211500  0.079300  1
  C  C365  1  0.607100  0.758700  0.981300  1
  C  C366  1  0.392900  0.241300  0.018700  1
  C  C367  1  0.019100  0.624900  0.123100  1
  C  C368  1  0.980900  0.375100  0.876900  1
  C  C369  1  0.953200  0.660100  0.122700  1
  C  C370  1  0.046800  0.339900  0.877300  1
  C  C371  1  0.926100  0.723800  0.120800  1
  C  C372  1  0.073900  0.276200  0.879200  1
  C  C373  1  0.969100  0.747500  0.116400  1
  C  C374  1  0.030900  0.252500  0.883600  1
  C  C375  1  0.033600  0.707800  0.115200  1
  C  C376  1  0.966400  0.292200  0.884800  1
  C  C377  1  0.624400  0.758200  0.116900  1
  C  C378  1  0.375600  0.241800  0.883100  1
  C  C379  1  0.659400  0.787200  0.116500  1
  C  C380  1  0.340600  0.212800  0.883500  1
  C  C381  1  0.726800  0.749500  0.119500  1
  C  C382  1  0.273200  0.250500  0.880500  1
  C  C383  1  0.745900  0.683900  0.120100  1
  C  C384  1  0.254100  0.316100  0.879900  1
  C  C385  1  0.703800  0.663600  0.115600  1
  C  C386  1  0.296200  0.336400  0.884400  1
  C  C387  1  0.757400  0.019400  0.122000  1
  C  C388  1  0.242600  0.980600  0.878000  1
  C  C389  1  0.782500  0.954400  0.122200  1
  C  C390  1  0.217500  0.045600  0.877800  1
  C  C391  1  0.745800  0.928300  0.122500  1
  C  C392  1  0.254200  0.071700  0.877500  1
  C  C393  1  0.685700  0.968300  0.118100  1
  C  C394  1  0.314300  0.031700  0.881900  1
  C  C395  1  0.662200  0.029000  0.120600  1
  C  C396  1  0.337800  0.971000  0.879400  1
  C  C397  1  0.035200  0.112800  0.712900  1
  C  C398  1  0.964800  0.887200  0.287100  1
  C  C399  1  0.972400  0.121900  0.741600  1
  C  C400  1  0.027600  0.878100  0.258400  1
  C  C401  1  0.926000  0.129400  0.715300  1
  C  C402  1  0.074000  0.870600  0.284700  1
  C  C403  1  0.962100  0.125000  0.646600  1
  C  C404  1  0.037900  0.875000  0.353400  1
  C  C405  1  0.019900  0.119500  0.623800  1
  C  C406  1  0.980100  0.880500  0.376200  1
  C  C407  1  0.659600  0.159200  0.988000  1
  C  C408  1  0.340400  0.840800  0.012000  1
  C  C409  1  0.681900  0.159500  0.924400  1
  C  C410  1  0.318100  0.840500  0.075600  1
  C  C411  1  0.748100  0.150300  0.893200  1
  C  C412  1  0.251900  0.849700  0.106800  1
  C  C413  1  0.786300  0.148800  0.924200  1
  C  C414  1  0.213700  0.851200  0.075800  1
  C  C415  1  0.754700  0.152600  0.987600  1
  C  C416  1  0.245300  0.847400  0.012400  1
  C  C417  1  0.702600  0.158900  0.621400  1
  C  C418  1  0.297400  0.841100  0.378600  1
  C  C419  1  0.740800  0.153800  0.649100  1
  C  C420  1  0.259200  0.846200  0.350900  1
  C  C421  1  0.718500  0.151500  0.712400  1
  C  C422  1  0.281500  0.848500  0.287600  1
  C  C423  1  0.656100  0.154700  0.742900  1
  C  C424  1  0.343900  0.845300  0.257100  1
  C  C425  1  0.619000  0.161000  0.710300  1
  C  C426  1  0.381000  0.839000  0.289700  1
  C  C427  1  0.132000  0.726300  0.743900  1
  C  C428  1  0.868000  0.273700  0.256100  1
  C  C429  1  0.146400  0.725700  0.828600  1
  C  C430  1  0.853600  0.274300  0.171400  1
  C  C431  1  0.144900  0.809900  0.746800  1
  C  C432  1  0.855100  0.190100  0.253200  1
  C  C433  1  0.807600  0.768500  0.753600  1
  C  C434  1  0.192400  0.231500  0.246400  1
  C  C435  1  0.730800  0.857500  0.746600  1
  C  C436  1  0.269200  0.142500  0.253400  1
  C  C437  1  0.731100  0.774400  0.828200  1
  C  C438  1  0.268900  0.225600  0.171800  1
  C  C439  1  0.860600  0.764100  0.120300  1
  C  C440  1  0.139400  0.235900  0.879700  1
  C  C441  1  0.762300  0.776300  0.122400  1
  C  C442  1  0.237700  0.223700  0.877600  1
  C  C443  1  0.774800  0.857000  0.122900  1
  C  C444  1  0.225200  0.143000  0.877100  1
  C  C445  1  0.856500  0.137500  0.744000  1
  C  C446  1  0.143500  0.862500  0.256000  1
  C  C447  1  0.770400  0.146800  0.831700  1
  C  C448  1  0.229600  0.853200  0.168300  1
  C  C449  1  0.757300  0.147800  0.748700  1
  C  C450  1  0.242700  0.852200  0.251300  1
  C  C451  1  0.205600  0.487000  0.626100  1
  C  C452  1  0.794400  0.513000  0.373900  1
  C  C453  1  0.207000  0.587100  0.528400  1
  C  C454  1  0.793000  0.412900  0.471600  1
  C  C455  1  0.156500  0.505500  0.544800  1
  C  C456  1  0.843500  0.494500  0.455200  1
  C  C457  1  0.104900  0.526600  0.540600  1
  C  C458  1  0.895100  0.473400  0.459400  1
  C  C459  1  0.018600  0.611600  0.536200  1
  C  C460  1  0.981400  0.388400  0.463800  1
  C  C461  1  0.013500  0.525500  0.623300  1
  C  C462  1  0.986500  0.474500  0.376700  1
  C  C463  1  0.265900  0.487600  0.069400  1
  C  C464  1  0.734100  0.512400  0.930600  1
  C  C465  1  0.289100  0.575400  0.053500  1
  C  C466  1  0.710900  0.424600  0.946500  1
  C  C467  1  0.259500  0.517100  0.154200  1
  C  C468  1  0.740500  0.482900  0.845800  1
  C  C469  1  0.213700  0.495500  0.199800  1
  C  C470  1  0.786300  0.504500  0.800200  1
  C  C471  1  0.099500  0.520200  0.229600  1
  C  C472  1  0.900500  0.479800  0.770400  1
  C  C473  1  0.129100  0.599300  0.223900  1
  C  C474  1  0.870900  0.400700  0.776100  1
  C  C475  1  0.267100  0.035800  0.527600  1
  C  C476  1  0.732900  0.964200  0.472400  1
  C  C477  1  0.275000  0.036200  0.630500  1
  C  C478  1  0.725000  0.963800  0.369500  1
  C  C479  1  0.264100  0.117000  0.554600  1
  C  C480  1  0.735900  0.883000  0.445400  1
  C  C481  1  0.210200  0.172300  0.555200  1
  C  C482  1  0.789800  0.827700  0.444800  1
  C  C483  1  0.095400  0.221900  0.538900  1
  C  C484  1  0.904600  0.778100  0.461100  1
  C  C485  1  0.133300  0.205400  0.627200  1
  C  C486  1  0.866700  0.794600  0.372800  1
  C  C487  1  0.571600  0.130300  0.228200  1
  C  C488  1  0.428400  0.869700  0.771800  1
  C  C489  1  0.684800  0.101000  0.230900  1
  C  C490  1  0.315200  0.899000  0.769100  1
  C  C491  1  0.611200  0.212500  0.205700  1
  C  C492  1  0.388800  0.787500  0.794300  1
  C  C493  1  0.588000  0.262300  0.155800  1
  C  C494  1  0.412000  0.737700  0.844200  1
  C  C495  1  0.701800  0.267800  0.063400  1
  C  C496  1  0.298200  0.732200  0.936600  1
  C  C497  1  0.589100  0.289500  0.050200  1
  C  C498  1  0.410900  0.710500  0.949800  1
  C  C499  1  0.485400  0.694200  0.067000  1
  C  C500  1  0.514600  0.305800  0.933000  1
  C  C501  1  0.579800  0.588700  0.051000  1
  C  C502  1  0.420200  0.411300  0.949000  1
  C  C503  1  0.497300  0.621100  0.197100  1
  C  C504  1  0.502700  0.378900  0.802900  1
  C  C505  1  0.513500  0.589600  0.156200  1
  C  C506  1  0.486500  0.410400  0.843800  1
  C  C507  1  0.603100  0.573000  0.221700  1
  C  C508  1  0.396900  0.427000  0.778300  1
  C  C509  1  0.516900  0.696400  0.228800  1
  C  C510  1  0.483100  0.303600  0.771200  1
  C  C511  1  0.586400  0.092400  0.536700  1
  C  C512  1  0.413600  0.907600  0.463300  1
  C  C513  1  0.524000  0.198100  0.534500  1
  C  C514  1  0.476000  0.801900  0.465500  1
  C  C515  1  0.597200  0.275400  0.526700  1
  C  C516  1  0.402800  0.724600  0.473300  1
  C  C517  1  0.494100  0.261500  0.550100  1
  C  C518  1  0.505900  0.738500  0.449900  1
  C  C519  1  0.479600  0.132800  0.618100  1
  C  C520  1  0.520400  0.867200  0.381900  1
  C  C521  1  0.519100  0.278300  0.616400  1
  C  C522  1  0.480900  0.721700  0.383600  1
  C  C523  1  0.970500  0.782900  0.866300  1
  C  C524  1  0.029500  0.217100  0.133700  1
  C  C525  1  0.020200  0.883300  0.885200  1
  C  C526  1  0.979800  0.116700  0.114800  1
  C  C527  1  0.008200  0.825800  0.913500  1
  C  C528  1  0.991800  0.174200  0.086500  1
  C  C529  1  0.989500  0.818400  0.870400  1
  C  C530  1  0.010500  0.181600  0.129600  1
  C  C531  1  0.989000  0.872800  0.818000  1
  C  C532  1  0.011000  0.127200  0.182000  1
  C  C533  1  0.005800  0.916100  0.826500  1
  C  C534  1  0.994200  0.083900  0.173500  1
  C  C535  1  0.905600  0.953000  0.937600  1
  C  C536  1  0.094400  0.047000  0.062400  1
  C  C537  1  0.870300  0.867100  0.948600  1
  C  C538  1  0.129700  0.132900  0.051400  1
  C  C539  1  0.866000  0.964800  0.853700  1
  C  C540  1  0.134000  0.035200  0.146300  1
  C  C541  1  0.936800  0.986800  0.977800  1
  C  C542  1  0.063200  0.013200  0.022200  1
  C  C543  1  0.950100  0.010700  0.914100  1
  C  C544  1  0.049900  0.989300  0.085900  1
  C  C545  1  0.960300  0.974200  0.878800  1
  C  C546  1  0.039700  0.025800  0.121200  1
  C  C547  1  0.956700  0.913400  0.907400  1
  C  C548  1  0.043300  0.086600  0.092600  1
  C  C549  1  0.943600  0.889500  0.971500  1
  C  C550  1  0.056400  0.110500  0.028500  1
  C  C551  1  0.933900  0.926000  0.006400  1
  C  C552  1  0.066100  0.074000  0.993600  1
  C  C553  1  0.978900  0.951400  0.589000  1
  C  C554  1  0.021100  0.048600  0.411000  1
  C  C555  1  0.974900  0.891300  0.619300  1
  C  C556  1  0.025100  0.108700  0.380700  1
  C  C557  1  0.973600  0.863400  0.681300  1
  C  C558  1  0.026400  0.136600  0.318700  1
  C  C559  1  0.976900  0.895600  0.713300  1
  C  C560  1  0.023100  0.104400  0.286700  1
  C  C561  1  0.981500  0.955800  0.682500  1
  C  C562  1  0.018500  0.044200  0.317500  1
  C  C563  1  0.982000  0.983800  0.620600  1
  C  C564  1  0.018000  0.016200  0.379400  1
  C  C565  1  0.975300  0.591200  0.956600  1
  C  C566  1  0.024700  0.408800  0.043400  1
  C  C567  1  0.980600  0.623300  0.986800  1
  C  C568  1  0.019400  0.376700  0.013200  1
  C  C569  1  0.978500  0.685700  0.957700  1
  C  C570  1  0.021500  0.314300  0.042300  1
  C  C571  1  0.972000  0.716400  0.897400  1
  C  C572  1  0.028000  0.283600  0.102600  1
  C  C573  1  0.967100  0.683600  0.867200  1
  C  C574  1  0.032900  0.316400  0.132800  1
  C  C575  1  0.968300  0.621500  0.897000  1
  C  C576  1  0.031700  0.378500  0.103000  1
  C  C577  1  0.964700  0.874900  0.870600  1
  C  C578  1  0.035300  0.125100  0.129400  1
  C  C579  1  0.973700  0.866600  0.780000  1
  C  C580  1  0.026300  0.133400  0.220000  1
  C  C581  1  0.588500  0.969000  0.945100  1
  C  C582  1  0.411500  0.031000  0.054900  1
  C  C583  1  0.620600  0.002100  0.890800  1
  C  C584  1  0.379400  0.997900  0.109200  1
  C  C585  1  0.684900  0.970500  0.863400  1
  C  C586  1  0.315100  0.029500  0.136600  1
  C  C587  1  0.717500  0.905200  0.890100  1
  C  C588  1  0.282500  0.094800  0.109900  1
  C  C589  1  0.685000  0.872300  0.944900  1
  C  C590  1  0.315000  0.127700  0.055100  1
  C  C591  1  0.620800  0.904200  0.972200  1
  C  C592  1  0.379200  0.095800  0.027800  1
  C  C593  1  0.962800  0.953900  0.595500  1
  C  C594  1  0.037200  0.046100  0.404500  1
  C  C595  1  0.993400  0.888900  0.623600  1
  C  C596  1  0.006600  0.111100  0.376400  1
  C  C597  1  0.964400  0.860200  0.683100  1
  C  C598  1  0.035600  0.139800  0.316900  1
  C  C599  1  0.904600  0.896800  0.715100  1
  C  C600  1  0.095400  0.103200  0.284900  1
  C  C601  1  0.874500  0.962200  0.686800  1
  C  C602  1  0.125500  0.037800  0.313200  1
  C  C603  1  0.903300  0.990500  0.626900  1
  C  C604  1  0.096700  0.009500  0.373100  1
  C  C605  1  0.975100  0.583200  0.954700  1
  C  C606  1  0.024900  0.416800  0.045300  1
  C  C607  1  0.916700  0.621100  0.986100  1
  C  C608  1  0.083300  0.378900  0.013900  1
  C  C609  1  0.884100  0.684100  0.955600  1
  C  C610  1  0.115900  0.315900  0.044400  1
  C  C611  1  0.910200  0.710300  0.893300  1
  C  C612  1  0.089800  0.289700  0.106700  1
  C  C613  1  0.969200  0.671900  0.862100  1
  C  C614  1  0.030800  0.328100  0.137900  1
  C  C615  1  0.001100  0.608600  0.892700  1
  C  C616  1  0.998900  0.391400  0.107300  1
  C  C617  1  0.785400  0.869900  0.860100  1
  C  C618  1  0.214600  0.130100  0.139900  1
  C  C619  1  0.872900  0.865700  0.778100  1
  C  C620  1  0.127100  0.134300  0.221900  1
  C  C621  1  0.875400  0.777900  0.861100  1
  C  C622  1  0.124600  0.222100  0.138900  1
  C  C623  1  0.590500  0.939000  0.964000  1
  C  C624  1  0.409500  0.061000  0.036000  1
  C  C625  1  0.624000  0.936400  0.999000  1
  C  C626  1  0.376000  0.063600  0.001000  1
  C  C627  1  0.683400  0.942000  0.970800  1
  C  C628  1  0.316600  0.058000  0.029200  1
  C  C629  1  0.709300  0.951200  0.907400  1
  C  C630  1  0.290700  0.048800  0.092600  1
  C  C631  1  0.675500  0.953900  0.872800  1
  C  C632  1  0.324500  0.046100  0.127200  1
  C  C633  1  0.616500  0.947900  0.901000  1
  C  C634  1  0.383500  0.052100  0.099000  1
  C  C635  1  0.940000  0.003000  0.975000  1
  C  C636  1  0.060000  0.997000  0.025000  1
  C  C637  1  0.964200  0.012000  0.912000  1
  C  C638  1  0.035800  0.988000  0.088000  1
  C  C639  1  0.936200  0.002900  0.880300  1
  C  C640  1  0.063800  0.997100  0.119700  1
  C  C641  1  0.883900  0.983900  0.912100  1
  C  C642  1  0.116100  0.016100  0.087900  1
  C  C643  1  0.860300  0.974200  0.975700  1
  C  C644  1  0.139700  0.025800  0.024300  1
  C  C645  1  0.888000  0.984000  0.007000  1
  C  C646  1  0.112000  0.016000  0.993000  1
  C  C647  1  0.934000  0.985000  0.598000  1
  C  C648  1  0.066000  0.015000  0.402000  1
  C  C649  1  0.883000  0.964000  0.630900  1
  C  C650  1  0.117000  0.036000  0.369100  1
  C  C651  1  0.855700  0.961300  0.692800  1
  C  C652  1  0.144300  0.038700  0.307200  1
  C  C653  1  0.879400  0.978100  0.722700  1
  C  C654  1  0.120600  0.021900  0.277300  1
  C  C655  1  0.930600  0.998500  0.689300  1
  C  C656  1  0.069400  0.001500  0.310700  1
  C  C657  1  0.957100  0.002000  0.627100  1
  C  C658  1  0.042900  0.998000  0.372900  1
  C  C659  1  0.771400  0.960000  0.876000  1
  C  C660  1  0.228600  0.040000  0.124000  1
  C  C661  1  0.852900  0.975800  0.878000  1
  C  C662  1  0.147100  0.024200  0.122000  1
  C  C663  1  0.850500  0.974000  0.789000  1
  C  C664  1  0.149500  0.026000  0.211000  1
  C  C665  1  0.043600  0.339300  0.719400  1
  C  C666  1  0.956400  0.660700  0.280600  1
  N  N667  1  0.111000  0.633300  0.650200  1
  N  N668  1  0.889000  0.366700  0.349800  1
  N  N669  1  0.156200  0.634800  0.014200  1
  N  N670  1  0.843800  0.365200  0.985800  1
  N  N671  1  0.156300  0.994900  0.651800  1
  N  N672  1  0.843700  0.005100  0.348200  1
  N  N673  1  0.993700  0.651100  0.651400  1
  N  N674  1  0.006300  0.348900  0.348600  1
  N  N675  1  0.632100  0.060000  0.651800  1
  N  N676  1  0.367900  0.940000  0.348200  1
  N  N677  1  0.636000  0.699600  0.012000  1
  N  N678  1  0.364000  0.300400  0.988000  1
  N  N679  1  0.057400  0.649500  0.117400  1
  N  N680  1  0.942600  0.350500  0.882600  1
  N  N681  1  0.645800  0.698000  0.116900  1
  N  N682  1  0.354200  0.302000  0.883100  1
  N  N683  1  0.695200  0.056200  0.119400  1
  N  N684  1  0.304800  0.943800  0.880600  1
  N  N685  1  0.054500  0.110600  0.656500  1
  N  N686  1  0.945500  0.889400  0.343500  1
  N  N687  1  0.695400  0.154600  0.018800  1
  N  N688  1  0.304600  0.845400  0.981200  1
  N  N689  1  0.641300  0.159100  0.654500  1
  N  N690  1  0.358700  0.840900  0.345500  1
  N  N691  1  0.139400  0.694500  0.801600  1
  N  N692  1  0.860600  0.305500  0.198400  1
  N  N693  1  0.147400  0.784500  0.802600  1
  N  N694  1  0.852600  0.215500  0.197400  1
  N  N695  1  0.137700  0.783400  0.712000  1
  N  N696  1  0.862300  0.216600  0.288000  1
  N  N697  1  0.786000  0.827600  0.716900  1
  N  N698  1  0.214000  0.172400  0.283100  1
  N  N699  1  0.696100  0.837500  0.803100  1
  N  N700  1  0.303900  0.162500  0.196900  1
  N  N701  1  0.784800  0.741300  0.806200  1
  N  N702  1  0.215200  0.258700  0.193800  1
  N  N703  1  0.822400  0.737300  0.123200  1
  N  N704  1  0.177600  0.262700  0.876800  1
  N  N705  1  0.734100  0.837000  0.120600  1
  N  N706  1  0.265900  0.163000  0.879400  1
  N  N707  1  0.836800  0.826800  0.120500  1
  N  N708  1  0.163200  0.173200  0.879500  1
  N  N709  1  0.831800  0.141200  0.806500  1
  N  N710  1  0.168200  0.858800  0.193500  1
  N  N711  1  0.734300  0.151400  0.804400  1
  N  N712  1  0.265700  0.848600  0.195600  1
  N  N713  1  0.818200  0.142400  0.714300  1
  N  N714  1  0.181800  0.857600  0.285700  1
  N  N715  1  0.172000  0.545000  0.570100  1
  N  N716  1  0.828000  0.455000  0.429900  1
  N  N717  1  0.052800  0.564100  0.574100  1
  N  N718  1  0.947200  0.435900  0.425900  1
  N  N719  1  0.249200  0.538000  0.091200  1
  N  N720  1  0.750800  0.462000  0.908800  1
  N  N721  1  0.147300  0.551800  0.197100  1
  N  N722  1  0.852700  0.448200  0.802900  1
  N  N723  1  0.241500  0.064700  0.574500  1
  N  N724  1  0.758500  0.935300  0.425500  1
  N  N725  1  0.143100  0.178500  0.575600  1
  N  N726  1  0.856900  0.821500  0.424400  1
  N  N727  1  0.630100  0.146800  0.198500  1
  N  N728  1  0.369900  0.853200  0.801500  1
  N  N729  1  0.635500  0.251700  0.090500  1
  N  N730  1  0.364500  0.748300  0.909500  1
  N  N731  1  0.537400  0.633300  0.092300  1
  N  N732  1  0.462600  0.366700  0.907700  1
  N  N733  1  0.553400  0.631600  0.190700  1
  N  N734  1  0.446600  0.368400  0.809300  1
  N  N735  1  0.541900  0.143500  0.572400  1
  N  N736  1  0.458100  0.856500  0.427600  1
  N  N737  1  0.570400  0.226100  0.579600  1
  N  N738  1  0.429600  0.773900  0.420400  1
  N  N739  1  0.465600  0.850200  0.078100  1
  N  N740  1  0.534400  0.149800  0.921900  1
  N  N741  1  0.897800  0.911200  0.518100  1
  N  N742  1  0.102200  0.088800  0.481900  1
  N  N743  1  0.523000  0.840800  0.848000  1
  N  N744  1  0.477000  0.159200  0.152000  1
  N  N745  1  0.838800  0.124600  0.092400  1
  N  N746  1  0.161200  0.875400  0.907600  1
  N  N747  1  0.116500  0.462100  0.098600  1
  N  N748  1  0.883500  0.537900  0.901400  1
  N  N749  1  0.969600  0.902800  0.810000  1
  N  N750  1  0.030400  0.097200  0.190000  1
  N  N751  1  0.974400  0.806500  0.805700  1
  N  N752  1  0.025600  0.193500  0.194300  1
  N  N753  1  0.965300  0.815200  0.900900  1
  N  N754  1  0.034700  0.184800  0.099100  1
  N  N755  1  0.812500  0.901200  0.804000  1
  N  N756  1  0.187500  0.098800  0.196000  1
  N  N757  1  0.906600  0.804100  0.804500  1
  N  N758  1  0.093400  0.195900  0.195500  1
  N  N759  1  0.814700  0.808600  0.890800  1
  N  N760  1  0.185300  0.191400  0.109200  1
  N  N761  1  0.798500  0.964800  0.909600  1
  N  N762  1  0.201500  0.035200  0.090400  1
  N  N763  1  0.880900  0.980800  0.817900  1
  N  N764  1  0.119100  0.019200  0.182100  1
  N  N765  1  0.795400  0.964000  0.815900  1
  N  N766  1  0.204600  0.036000  0.184100  1
  O  O767  1  0.892100  0.988600  0.966800  1
  O  O768  1  0.107900  0.011400  0.033200  1
  O  O769  1  0.835300  0.840800  0.986400  1
  O  O770  1  0.164700  0.159200  0.013600  1
  O  O771  1  0.832100  0.001500  0.822200  1
  O  O772  1  0.167900  0.998500  0.177800  1
  O  O773  1  0.715400  0.510500  0.099200  1
  O  O774  1  0.284600  0.489500  0.900800  1
  O  O775  1  0.772300  0.719000  0.689200  1
  O  O776  1  0.227700  0.281000  0.310800  1
  O  O777  1  0.178200  0.717300  0.098400  1
  O  O778  1  0.821800  0.282700  0.901600  1
  O  O779  1  0.683700  0.139700  0.372600  1
  O  O780  1  0.316300  0.860300  0.627400  1
  O  O781  1  0.720300  0.134600  0.476200  1
  O  O782  1  0.279700  0.865400  0.523800  1
  O  O783  1  0.004400  0.620600  0.378500  1
  O  O784  1  0.995600  0.379400  0.621500  1
  O  O785  1  0.173000  0.075200  0.746900  1
  O  O786  1  0.827000  0.924800  0.253100  1
  O  O787  1  0.691800  0.424400  0.097500  1
  O  O788  1  0.308200  0.575600  0.902500  1
  O  O789  1  0.066500  0.866000  0.482600  1
  O  O790  1  0.933500  0.134000  0.517400  1
  O  O791  1  0.594700  0.420500  0.893200  1
  O  O792  1  0.405300  0.579500  0.106800  1
  O  O793  1  0.294000  0.637900  0.579900  1
  O  O794  1  0.706000  0.362100  0.420100  1
  O  O795  1  0.465400  0.164400  0.749300  1
  O  O796  1  0.534600  0.835600  0.250700  1
  O  O797  1  0.106800  0.379200  0.532900  1
  O  O798  1  0.893200  0.620800  0.467100  1
  O  O799  1  0.285500  0.544400  0.676000  1
  O  O800  1  0.714500  0.455600  0.324000  1
  O  O801  1  0.042300  0.719200  0.345500  1
  O  O802  1  0.957700  0.280800  0.654500  1
  O  O803  1  0.422100  0.864200  0.623200  1
  O  O804  1  0.577900  0.135800  0.376800  1
  O  O805  1  0.690300  0.312900  0.896900  1
  O  O806  1  0.309700  0.687100  0.103100  1
  O  O807  1  0.106400  0.519000  0.397400  1
  O  O808  1  0.893600  0.481000  0.602600  1
  O  O809  1  0.577900  0.430600  0.097800  1
  O  O810  1  0.422100  0.569400  0.902200  1
  O  O811  1  0.750700  0.279500  0.523000  1
  O  O812  1  0.249300  0.720500  0.477000  1
  O  O813  1  0.693600  0.308500  0.191500  1
  O  O814  1  0.306400  0.691500  0.808500  1
  O  O815  1  0.574000  0.592500  0.889800  1
  O  O816  1  0.426000  0.407500  0.110200  1
  O  O817  1  0.081200  0.730800  0.482700  1
  O  O818  1  0.918800  0.269200  0.517300  1
  O  O819  1  0.127000  0.390000  0.717000  1
  O  O820  1  0.873000  0.610000  0.283000  1
  O  O821  1  0.087800  0.833500  0.056400  1
  O  O822  1  0.912200  0.166500  0.943600  1
  O  O823  1  0.687500  0.280700  0.384700  1
  O  O824  1  0.312500  0.719300  0.615300  1
  O  O825  1  0.184700  0.343600  0.594600  1
  O  O826  1  0.815300  0.656400  0.405400  1
  O  O827  1  0.209000  0.576000  0.365000  1
  O  O828  1  0.791000  0.424000  0.635000  1
  O  O829  1  0.310000  0.342000  0.200000  1
  O  O830  1  0.690000  0.658000  0.800000  1
  O  O831  1  0.707400  0.227600  0.257400  1
  O  O832  1  0.292600  0.772400  0.742600  1
  O  O833  1  0.842000  0.516200  0.064200  1
  O  O834  1  0.158000  0.483800  0.935800  1
  O  O835  1  0.032000  0.223000  0.769000  1
  O  O836  1  0.968000  0.777000  0.231000  1
  O  O837  1  0.085000  0.040300  0.855200  1
  O  O838  1  0.915000  0.959700  0.144800  1
  O  O839  1  0.382100  0.430200  0.635900  1
  O  O840  1  0.617900  0.569800  0.364100  1
  O  O841  1  0.234000  0.238000  0.744000  1
  O  O842  1  0.766000  0.762000  0.256000  1
  O  O843  1  0.479000  0.073000  0.868000  1
  O  O844  1  0.521000  0.927000  0.132000  1
  O  O845  1  0.628000  0.919200  0.605300  1
  O  O846  1  0.372000  0.080800  0.394700  1
  O  O847  1  0.320000  0.214000  0.583000  1
  O  O848  1  0.680000  0.786000  0.417000  1
  O  O849  1  0.407000  0.015000  0.661000  1
  O  O850  1  0.593000  0.985000  0.339000  1
  O  O851  1  0.077100  0.473600  0.744200  1
  O  O852  1  0.922900  0.526400  0.255800  1
  O  O853  1  0.497000  0.447000  0.619000  1
  O  O854  1  0.503000  0.553000  0.381000  1
  O  O855  1  0.525000  0.453000  0.438000  1
  O  O856  1  0.475000  0.547000  0.562000  1
  O  O857  1  0.684000  0.436000  0.234000  1
  O  O858  1  0.316000  0.564000  0.766000  1
  O  O859  1  0.297000  0.331000  0.582000  1
  O  O860  1  0.703000  0.669000  0.418000  1
  O  O861  1  0.463000  0.996000  0.752000  1
  O  O862  1  0.537000  0.004000  0.248000  1
  O  O863  1  0.524000  0.967000  0.681000  1
  O  O864  1  0.476000  0.033000  0.319000  1
  O  O865  1  0.770800  0.843000  0.592800  1
  O  O866  1  0.229200  0.157000  0.407200  1
  O  O867  1  0.473000  0.959000  0.918000  1
  O  O868  1  0.527000  0.041000  0.082000  1
  O  O869  1  0.384000  0.214000  0.723000  1
  O  O870  1  0.616000  0.786000  0.277000  1
  O  O871  1  0.324000  0.342000  0.708000  1
  O  O872  1  0.676000  0.658000  0.292000  1
  O  O873  1  0.638000  0.317000  0.629000  1
  O  O874  1  0.362000  0.683000  0.371000  1
  O  O875  1  0.139900  0.912300  0.510500  1
  O  O876  1  0.860100  0.087700  0.489500  1
  O  O877  1  0.565600  0.375000  0.373700  1
  O  O878  1  0.434400  0.625000  0.626300  1
  O  O879  1  0.498300  0.879000  0.058200  1
  O  O880  1  0.501700  0.121000  0.941800  1
  O  O881  1  0.453500  0.818800  0.120700  1
  O  O882  1  0.546500  0.181200  0.879300  1
  O  O883  1  0.448000  0.862200  0.035300  1
  O  O884  1  0.552000  0.137800  0.964700  1
  O  O885  1  0.930800  0.858300  0.531200  1
  O  O886  1  0.069200  0.141700  0.468800  1
  O  O887  1  0.841700  0.934200  0.531900  1
  O  O888  1  0.158300  0.065800  0.468100  1
  O  O889  1  0.925000  0.948100  0.491600  1
  O  O890  1  0.075000  0.051900  0.508400  1
  O  O891  1  0.519000  0.889400  0.829600  1
  O  O892  1  0.481000  0.110600  0.170400  1
  O  O893  1  0.565700  0.799000  0.827500  1
  O  O894  1  0.434300  0.201000  0.172500  1
  O  O895  1  0.491000  0.817200  0.896400  1
  O  O896  1  0.509000  0.182800  0.103600  1
  O  O897  1  0.601200  0.687100  0.887800  1
  O  O898  1  0.398800  0.312900  0.112200  1
  O  O899  1  0.809800  0.124800  0.134800  1
  O  O900  1  0.190200  0.875200  0.865200  1
  O  O901  1  0.879400  0.078500  0.076200  1
  O  O902  1  0.120600  0.921500  0.923800  1
  O  O903  1  0.834000  0.170800  0.048100  1
  O  O904  1  0.166000  0.829200  0.951900  1
  O  O905  1  0.098800  0.453100  0.146100  1
  O  O906  1  0.901200  0.546900  0.853900  1
  O  O907  1  0.165400  0.436400  0.070100  1
  O  O908  1  0.834600  0.563600  0.929900  1
  O  O909  1  0.077000  0.492300  0.068800  1
  O  O910  1  0.923000  0.507700  0.931200  1
  O  O911  1  0.238000  0.458000  0.750000  1
  O  O912  1  0.762000  0.542000  0.250000  1
  O  O913  1  0.094800  0.705900  0.438200  1
  O  O914  1  0.905200  0.294100  0.561800  1
  O  O915  1  0.718000  0.301000  0.248000  1
  O  O916  1  0.282000  0.699000  0.752000  1
  O  O917  1  0.836800  0.663100  0.654900  1
  O  O918  1  0.163200  0.336900  0.345100  1
  O  O919  1  0.551000  0.967000  0.242000  1
  O  O920  1  0.449000  0.033000  0.758000  1
  O  O921  1  0.334000  0.337000  0.580000  1
  O  O922  1  0.666000  0.663000  0.420000  1
  O  O923  1  0.881700  0.875400  0.535100  1
  O  O924  1  0.118300  0.124600  0.464900  1
