
#######################################################################
#
#                 Cambridge Crystallographic Data Centre
#                                CCDC 
#
#######################################################################
#
# If this CIF has been generated from an entry in the Cambridge 
# Structural Database, then it will include bibliographic, chemical, 
# crystal, experimental, refinement or atomic coordinate data resulting 
# from the CCDC's data processing and validation procedures.
#
#######################################################################

data_SERBIB
_chemical_formula_moiety         
'C108 H144 N36 Pd6 12+,12(N1 O3 1-),C9 H7 Mn1 O3,5(H2 O1)'
_chemical_name_systematic        
'tetrakis(\m~3~-2,4,6-tris(4-pyridyl)triazine)-hexakis(1,2-bis(dimethylamino)ethane)-hexa-palladium dodecanitrate tricarbonyl-(\h^5^-methylcyclopentadienyl)-manganese pentahydrate'
_symmetry_cell_setting           triclinic
_symmetry_space_group_name_H-M   'P -1'
_symmetry_Int_Tables_number      2
_space_group_name_Hall           '-P 1'
loop_
_symmetry_equiv_pos_site_id
_symmetry_equiv_pos_as_xyz
1 x,y,z
2 -x,-y,-z
_cell_length_a                   24.817(7)
_cell_length_b                   24.848(10)
_cell_length_c                   24.935(6)
_cell_angle_alpha                64.503(18)
_cell_angle_beta                 65.157(18)
_cell_angle_gamma                60.19(2)
_cell_volume                     11617.6
_exptl_crystal_colour            yellow
_exptl_crystal_description       block
_cell_formula_units_Z            2
loop_
_atom_site_label
_atom_site_type_symbol
_atom_site_fract_x
_atom_site_fract_y
_atom_site_fract_z
Pd1 Pd 1.08281(7) -0.40185(6) 0.61094(6)
Pd2 Pd 1.15263(7) -0.40611(7) 1.10509(6)
Pd3 Pd 1.14896(8) 0.08822(7) 0.61440(7)
Pd4 Pd 0.66551(8) 0.15226(7) 1.10613(7)
Pd5 Pd 0.59343(8) -0.33412(9) 1.10341(8)
Pd6 Pd 0.59150(7) 0.15261(10) 0.61287(7)
N1 N 1.1110(7) -0.3667(7) 0.6502(7)
C1 C 1.1170(10) -0.3977(8) 0.7095(8)
C2 C 1.1276(9) -0.3715(8) 0.7386(7)
C3 C 1.1279(8) -0.3068(8) 0.7102(8)
C4 C 1.1244(9) -0.2784(8) 0.6485(8)
C5 C 1.1142(9) -0.3107(9) 0.6217(8)
N2 N 1.1562(7) -0.3652(7) 1.0142(6)
C6 C 1.1594(8) -0.3093(9) 0.9860(8)
C7 C 1.1561(8) -0.2764(8) 0.9239(7)
C8 C 1.1489(8) -0.3057(8) 0.8939(8)
C9 C 1.1471(9) -0.3663(8) 0.9242(9)
C10 C 1.1520(9) -0.3977(8) 0.9830(8)
N3 N 1.1563(7) -0.0051(6) 0.6518(7)
C11 C 1.1507(8) -0.0338(8) 0.6235(8)
C12 C 1.1471(9) -0.0960(9) 0.6519(7)
C13 C 1.1490(8) -0.1253(8) 0.7126(8)
C14 C 1.1552(11) -0.0935(10) 0.7441(9)
C15 C 1.1544(11) -0.0319(9) 0.7140(10)
N4 N 0.9937(7) -0.3489(8) 0.6514(8)
C16 C 0.9673(10) -0.2878(12) 0.6230(10)
C17 C 0.9092(12) -0.2469(12) 0.6560(11)
C18 C 0.8782(10) -0.2717(13) 0.7125(10)
C19 C 0.9058(12) -0.3380(14) 0.7414(11)
C20 C 0.9637(10) -0.3747(11) 0.7122(9)
N5 N 0.6321(8) 0.0600(8) 0.6518(8)
C21 C 0.6026(11) 0.0340(15) 0.7085(11)
C22 C 0.6325(13) -0.0322(18) 0.7413(10)
C23 C 0.6970(13) -0.0760(18) 0.7183(11)
C24 C 0.7226(11) -0.0434(17) 0.6611(15)
C25 C 0.6920(11) 0.0237(16) 0.6272(10)
N6 N 0.6360(10) -0.3004(11) 1.0120(7)
C26 C 0.6956(12) -0.3387(11) 0.9839(10)
C27 C 0.7316(14) -0.3159(13) 0.9227(12)
C28 C 0.6956(11) -0.2502(16) 0.8930(11)
C29 C 0.6345(12) -0.2115(13) 0.9207(13)
C30 C 0.6071(11) -0.2413(14) 0.9813(13)
N7 N 1.0574(8) -0.3505(9) 1.1174(7)
C31 C 1.0191(12) -0.3751(10) 1.1231(9)
C32 C 0.9532(11) -0.3399(10) 1.1227(8)
C33 C 0.9261(10) -0.2762(8) 1.1208(7)
C34 C 0.9691(12) -0.2525(10) 1.1164(8)
C35 C 1.0336(11) -0.2922(11) 1.1152(9)
N8 N 0.6458(9) -0.3020(10) 1.1169(7)
C36 C 0.6244(10) -0.2418(15) 1.1169(9)
C37 C 0.6594(13) -0.2128(11) 1.1165(9)
C38 C 0.7268(11) -0.2505(10) 1.1195(8)
C39 C 0.7459(10) -0.3161(12) 1.1201(9)
C40 C 0.7038(16) -0.3364(11) 1.1156(10)
N9 N 0.6952(9) 0.0562(8) 1.1194(7)
C41 C 0.7574(11) 0.0194(9) 1.1220(9)
C42 C 0.7825(10) -0.0456(10) 1.1222(9)
C43 C 0.7458(10) -0.0717(9) 1.1225(8)
C44 C 0.6857(9) -0.0317(8) 1.1181(8)
C45 C 0.6622(11) 0.0290(11) 1.1206(9)
N10 N 1.0545(9) 0.1106(8) 0.6565(9)
C46 C 1.0352(12) 0.1128(10) 0.7129(10)
C47 C 0.9724(15) 0.1219(9) 0.7416(10)
C48 C 0.9260(10) 0.1294(8) 0.7153(8)
C49 C 0.9621(18) 0.1250(9) 0.6466(9)
C50 C 1.0199(12) 0.1195(11) 0.6238(13)
N11 N 0.6954(9) 0.1546(8) 1.0188(7)
C51 C 0.6596(10) 0.1592(9) 0.9880(9)
C52 C 0.6819(12) 0.1595(10) 0.9244(9)
C53 C 0.7481(11) 0.1503(9) 0.8932(9)
C54 C 0.7863(10) 0.1488(8) 0.9242(9)
C55 C 0.7547(13) 0.1526(10) 0.9876(10)
N12 N 0.6413(8) 0.1591(9) 0.6545(8)
C56 C 0.7026(14) 0.1589(11) 0.6214(13)
C57 C 0.7408(12) 0.1538(10) 0.6491(9)
C58 C 0.7185(12) 0.1515(11) 0.7124(9)
C59 C 0.6561(11) 0.1547(12) 0.7429(11)
C60 C 0.6190(10) 0.1610(11) 0.7103(10)
C61 C 1.1320(8) -0.2737(8) 0.7439(9)
N13 N 1.1394(8) -0.3055(6) 0.8016(6)
C62 C 1.1464(9) -0.2743(9) 0.8286(8)
N14 N 1.1474(7) -0.2155(7) 0.8026(7)
C63 C 1.1449(9) -0.1901(9) 0.7468(9)
N15 N 1.1377(6) -0.2166(6) 0.7120(6)
C64 C 0.8076(11) -0.2315(12) 0.7536(14)
N16 N 0.7860(9) -0.1724(12) 0.7169(8)
C65 C 0.7308(13) -0.1425(13) 0.7466(12)
N17 N 0.6961(8) -0.1625(12) 0.8031(10)
C66 C 0.7311(14) -0.2256(16) 0.8282(12)
N18 N 0.7848(10) -0.2587(10) 0.8062(9)
C67 C 0.8606(11) -0.2359(10) 1.1203(7)
N19 N 0.8224(9) -0.2627(7) 1.1232(6)
C68 C 0.7623(11) -0.2237(11) 1.1224(8)
N20 N 0.7341(8) -0.1630(9) 1.1206(7)
C69 C 0.7748(12) -0.1430(8) 1.1229(8)
N21 N 0.8368(8) -0.1732(7) 1.1205(6)
C70 C 0.8565(10) 0.1375(9) 0.7440(9)
N22 N 0.8318(10) 0.1412(7) 0.8065(7)
C71 C 0.7704(10) 0.1468(9) 0.8317(9)
N23 N 0.7343(9) 0.1514(9) 0.8044(8)
C72 C 0.7573(11) 0.1478(10) 0.7487(13)
N24 N 0.8182(10) 0.1424(8) 0.7143(7)
C73 C 1.2056(14) -0.5130(14) 0.6261(14)
C74 C 1.2070(11) -0.4129(11) 0.5284(11)
C75 C 1.1565(17) -0.4945(17) 0.5448(16)
C76 C 1.1049(16) -0.4734(15) 0.5406(14)
C77 C 1.0186(12) -0.3884(12) 0.5362(12)
C78 C 1.0135(14) -0.4745(14) 0.6233(13)
C79 C 1.2659(11) -0.5124(11) 1.0694(10)
C80 C 1.2891(11) -0.4246(12) 1.0535(11)
C81 C 1.2595(12) -0.4829(12) 1.1542(11)
C82 C 1.2137(12) -0.5045(13) 1.1998(12)
C83 C 1.0995(11) -0.4798(11) 1.2296(11)
C84 C 1.1291(12) -0.4007(12) 1.2239(11)
C85 C 1.2671(13) 0.0358(13) 0.5276(13)
C86 C 1.275(2) 0.0362(19) 0.6305(19)
C87 C 1.2641(15) 0.1170(13) 0.5546(14)
C88 C 1.2102(14) 0.1723(19) 0.5552(16)
C89 C 1.0954(12) 0.2219(12) 0.5389(11)
C90 C 1.1333(15) 0.2054(15) 0.6272(15)
C91 C 0.5716(12) 0.1303(13) 1.2282(12)
C92 C 0.6848(11) 0.1010(11) 1.2309(11)
C93 C 0.6112(12) 0.2125(12) 1.2057(12)
C94 C 0.5880(12) 0.2623(13) 1.1558(12)
C95 C 0.7018(14) 0.2678(14) 1.0634(13)
C96 C 0.5891(12) 0.2895(12) 1.0502(12)
C97 C 0.4854(13) -0.3058(13) 1.0670(12)
C98 C 0.5798(14) -0.4113(15) 1.0510(14)
C99 C 0.4973(15) -0.3789(15) 1.1971(14)
C100 C 0.5135(13) -0.4104(13) 1.1562(13)
C101 C 0.6031(13) -0.4270(14) 1.2217(13)
C102 C 0.5169(12) -0.3036(12) 1.2288(12)
C103 C 0.5864(12) 0.0924(12) 0.5367(12)
C104 C 0.5240(16) 0.1981(16) 0.5345(15)
C105 C 0.5972(13) 0.2754(12) 0.5267(11)
C106 C 0.4941(15) 0.2615(16) 0.5501(15)
C107 C 0.4796(13) 0.1328(14) 0.6181(13)
C108 C 0.5191(14) 0.2783(15) 0.6164(16)
N25 N 1.1720(8) -0.4550(8) 0.5701(8)
N26 N 1.0528(9) -0.4359(8) 0.5741(7)
N27 N 1.2492(8) -0.4620(8) 1.0912(7)
N28 N 1.1473(8) -0.4482(8) 1.1971(7)
N29 N 1.2415(13) 0.0647(9) 0.5745(10)
N30 N 1.1431(9) 0.1785(9) 0.5756(9)
N31 N 0.6301(10) 0.1468(7) 1.1985(7)
N32 N 0.6355(12) 0.2517(8) 1.0905(9)
N33 N 0.5374(8) -0.3667(10) 1.0923(10)
N34 N 0.5534(10) -0.3684(11) 1.1907(8)
N35 N 0.5419(9) 0.1435(9) 0.5724(8)
N36 N 0.5704(18) 0.2261(16) 0.5796(7)
H1 H 1.1134 -0.4385 0.7299
H2 H 1.1350 -0.3952 0.7783
H3 H 1.1289 -0.2382 0.6256
H4 H 1.1095 -0.2905 0.5809
H5 H 1.1642 -0.2891 1.0076
H6 H 1.1588 -0.2351 0.9042
H7 H 1.1423 -0.3870 0.9030
H8 H 1.1525 -0.4402 1.0023
H9 H 1.1490 -0.0129 0.5819
H10 H 1.1434 -0.1164 0.6298
H11 H 1.1598 -0.1142 0.7849
H12 H 1.1525 -0.0076 0.7360
H13 H 0.9864 -0.2707 0.5810
H14 H 0.8925 -0.2017 0.6372
H15 H 0.8839 -0.3569 0.7813
H16 H 0.9844 -0.4186 0.7331
H17 H 0.5609 0.0598 0.7278
H18 H 0.6083 -0.0485 0.7810
H19 H 0.7652 -0.0669 0.6409
H20 H 0.7149 0.0416 0.5875
H21 H 0.7140 -0.3826 1.0061
H22 H 0.7740 -0.3412 0.9040
H23 H 0.6130 -0.1678 0.9000
H24 H 0.5648 -0.2169 1.0013
H25 H 1.0364 -0.4201 1.1279
H26 H 0.9288 -0.3602 1.1237
H27 H 0.9540 -0.2084 1.1141
H28 H 1.0607 -0.2740 1.1127
H29 H 0.5805 -0.2159 1.1172
H30 H 0.6401 -0.1682 1.1143
H31 H 0.7879 -0.3466 1.1237
H32 H 0.7207 -0.3785 1.1114
H33 H 0.7830 0.0369 1.1235
H34 H 0.8264 -0.0718 1.1221
H35 H 0.6597 -0.0464 1.1131
H36 H 0.6176 0.0537 1.1235
H37 H 1.0631 0.1083 0.7327
H38 H 0.9573 0.1236 0.7830
H39 H 0.9399 0.1266 0.6225
H40 H 1.0389 0.1219 0.5813
H41 H 0.6166 0.1626 1.0094
H42 H 0.6538 0.1656 0.9039
H43 H 0.8295 0.1455 0.9047
H44 H 0.7785 0.1538 1.0083
H45 H 0.7171 0.1625 0.5786
H46 H 0.7833 0.1517 0.6266
H47 H 0.6392 0.1527 0.7854
H48 H 0.5751 0.1669 0.7303
H49 H 1.2492 -0.5403 0.6080
H50 H 1.1798 -0.5394 0.6515
H51 H 1.2074 -0.4934 0.6517
H52 H 1.2506 -0.4388 0.5087
H53 H 1.2093 -0.3913 0.5517
H54 H 1.1845 -0.3804 0.4967
H55 H 1.1866 -0.4974 0.5037
H56 H 1.1657 -0.5391 0.5725
H57 H 1.0956 -0.5107 0.5478
H58 H 1.1063 -0.4484 0.4970
H59 H 1.0041 -0.4060 0.5187
H60 H 1.0450 -0.3651 0.5029
H61 H 0.9811 -0.3586 0.5586
H62 H 0.9991 -0.4902 0.6039
H63 H 0.9760 -0.4470 0.6480
H64 H 1.0401 -0.5115 0.6500
H65 H 1.3124 -0.5375 1.0626
H66 H 1.2543 -0.4949 1.0305
H67 H 1.2429 -0.5403 1.0997
H68 H 1.3346 -0.4537 1.0481
H69 H 1.2798 -0.3937 1.0738
H70 H 1.2798 -0.4012 1.0132
H71 H 1.3026 -0.5177 1.1553
H72 H 1.2579 -0.4459 1.1615
H73 H 1.2213 -0.5180 1.2404
H74 H 1.2153 -0.5420 1.1935
H75 H 1.0987 -0.4991 1.2733
H76 H 1.1119 -0.5135 1.2113
H77 H 1.0566 -0.4473 1.2254
H78 H 1.1270 -0.4203 1.2679
H79 H 1.0867 -0.3677 1.2188
H80 H 1.1608 -0.3807 1.2039
H81 H 1.3135 0.0257 0.5120
H82 H 1.2463 0.0654 0.4941
H83 H 1.2596 -0.0042 0.5436
H84 H 1.3218 0.0228 0.6138
H85 H 1.2650 -0.0010 0.6608
H86 H 1.2585 0.0699 0.6504
H87 H 1.2870 0.1091 0.5831
H88 H 1.2937 0.1197 0.5126
H89 H 1.2161 0.2006 0.5125
H90 H 1.2124 0.1929 0.5802
H91 H 1.0945 0.2658 0.5239
H92 H 1.0527 0.2223 0.5647
H93 H 1.1075 0.2065 0.5037
H94 H 1.1321 0.2495 0.6089
H95 H 1.1690 0.1777 0.6466
H96 H 1.0926 0.2056 0.6584
H97 H 0.5565 0.1287 1.2719
H98 H 0.5826 0.0881 1.2245
H99 H 0.5376 0.1634 1.2077
H100 H 0.6681 0.0993 1.2747
H101 H 0.7195 0.1171 1.2119
H102 H 0.7016 0.0576 1.2268
H103 H 0.5775 0.2178 1.2447
H104 H 0.6491 0.2149 1.2074
H105 H 0.5818 0.3040 1.1580
H106 H 0.5456 0.2650 1.1593
H107 H 0.6894 0.3141 1.0553
H108 H 0.7279 0.2555 1.0251
H109 H 0.7269 0.2432 1.0939
H110 H 0.5758 0.3359 1.0426
H111 H 0.5512 0.2782 1.0710
H112 H 0.6104 0.2788 1.0109
H113 H 0.4568 -0.3172 1.0601
H114 H 0.5052 -0.2806 1.0279
H115 H 0.4606 -0.2801 1.0965
H116 H 0.5534 -0.4264 1.0452
H117 H 0.6132 -0.4485 1.0701
H118 H 0.6000 -0.3877 1.0109
H119 H 0.4837 -0.4049 1.2395
H120 H 0.4610 -0.3368 1.1891
H121 H 0.4757 -0.4153 1.1575
H122 H 0.5480 -0.4537 1.1652
H123 H 0.5825 -0.4425 1.2654
H124 H 0.6371 -0.4153 1.2180
H125 H 0.6218 -0.4613 1.2019
H126 H 0.4976 -0.3199 1.2727
H127 H 0.4835 -0.2663 1.2097
H128 H 0.5503 -0.2905 1.2242
H129 H 0.5618 0.0897 0.5165
H130 H 0.6038 0.0502 0.5654
H131 H 0.6219 0.1047 0.5056
H132 H 0.4927 0.1988 0.5191
H133 H 0.5621 0.1995 0.4991
H134 H 0.5629 0.3187 0.5226
H135 H 0.6135 0.2640 0.4882
H136 H 0.6323 0.2749 0.5357
H137 H 0.4530 0.2679 0.5827
H138 H 0.4911 0.3002 0.5140
H139 H 0.4582 0.1273 0.5966
H140 H 0.4504 0.1704 0.6341
H141 H 0.4908 0.0940 0.6523
H142 H 0.5097 0.3217 0.5875
H143 H 0.5367 0.2750 0.6468
H144 H 0.4794 0.2701 0.6376
C109 C 0.9705(5) -0.2171(7) 0.8663(6)
C110 C 1.0202(4) -0.1167(9) 0.8852(9)
C111 C 1.0082(6) -0.1742(7) 0.9135(9)
C112 C 0.9895(8) -0.1816(6) 0.8704(9)
C113 C 0.9890(8) -0.1272(9) 0.8180(7)
C114 C 1.0058(6) -0.0839(10) 0.8265(7)
Mn1 Mn 0.9235(4) -0.0958(4) 0.8962(4)
C115 C 0.9056(7) -0.0470(6) 0.9376(6)
O1 O 0.8921(12) -0.0114(10) 0.9668(10)
C116 C 0.8703(6) -0.1329(7) 0.9486(6)
O2 O 0.8353(10) -0.1592(10) 0.9864(9)
C117 C 0.8660(6) -0.0352(6) 0.8537(6)
O3 O 0.8321(10) 0.0015(9) 0.8222(9)
O4 O 0.7154(11) -0.4895(11) 1.0992(10)
O5 O 0.7723(17) -0.2810(17) 0.6892(16)
O6 O 1.1782(9) -0.2827(9) 1.0984(9)
O7 O 0.6837(11) 0.1397(11) 1.3726(11)
O8 O 0.7203(12) 0.1346(12) 1.4762(11)
O9 O 1.0044(10) -0.3794(10) 0.3785(10)
O10 O 1.1730(12) 0.0752(12) 0.7469(12)
O11 O 0.6918(13) 0.4244(13) 1.0975(13)
O12 O 1.0665(15) -0.1340(16) 0.4826(15)
O13 O 1.5947(14) -0.5795(14) 0.8932(14)
O14 O 1.2940(14) -0.3621(14) 0.5799(14)
O15 O 1.4654(15) -0.8356(16) 0.7493(15)
O16 O 1.1068(13) -0.6208(13) 0.5329(13)
O17 O 1.2855(16) -0.4556(16) 0.6760(16)
O18 O 1.0423(15) -0.2808(15) 0.3455(14)
O19 O 1.4221(10) -0.1358(10) 0.6232(10)
O20 O 1.6903(12) -0.6871(12) 0.8969(12)
O21 O 1.1064(17) -0.4810(17) 0.3974(16)
O22 O 0.5779(14) 0.4306(14) 1.0978(14)
O23 O 1.7507(17) -0.7205(17) 0.5230(17)
O24 O 0.6936(15) 0.3085(15) 1.1915(15)
O25 O 0.5740(15) 0.5925(15) 0.8898(15)
O26 O 1.0812(14) -0.2692(14) 0.4827(14)
O27 O 1.127(3) -0.610(3) 0.717(3)
O28 O 1.0878(18) -0.1665(18) 1.0564(17)
O29 O 0.6875(18) 0.2807(18) 1.3847(17)
O30 O 1.1847(16) -0.6564(16) 0.5946(16)
O31 O 1.209(2) -0.424(2) 0.365(2)
O32 O 1.310(2) -0.658(2) 1.200(2)
O33 O 0.7074(17) 0.2276(17) 1.2574(16)
O34 O 0.8420(18) -0.4838(18) 1.0642(18)
O35 O 1.032(3) -0.777(3) 0.769(3)
O36 O 1.0850(18) 0.0403(18) 0.8552(18)
O37 O 1.3821(17) -0.5698(17) 0.6359(16)
O38 O 1.234(2) -0.762(2) 0.744(2)
O39 O 1.479(3) -0.927(3) 0.868(2)
O40 O 0.6280(18) -0.0808(18) 0.6053(17)
O41 O 1.320(3) -0.786(3) 0.583(3)
O42 O 1.407(4) 0.015(4) 0.661(4)
O43 O 1.0771(15) -0.5264(15) 0.7442(14)
O44 O 1.497(3) -0.553(3) 0.619(3)
O45 O 1.525(2) -0.547(2) 0.438(2)
O46 O 0.684(2) -0.564(2) 1.234(2)
O47 O 1.297(3) -0.669(3) 0.582(3)
O48 O 1.463(4) -1.004(4) 0.752(4)
O49 O 0.524(4) -0.033(4) 0.681(4)
O50 O 0.7708(19) -0.1570(19) 0.5928(18)
O51 O 1.473(2) -1.041(2) 0.918(2)
O52 O 1.384(2) -0.786(2) 0.723(2)
O53 O 1.324(3) -0.658(4) 0.708(3)
O54 O 1.638(3) -0.683(3) 0.629(3)
O55 O 1.1399(15) -0.0877(15) 0.5105(15)
O56 O 0.5656(19) 0.375(2) 1.3737(19)
O57 O 0.4983(16) -0.1210(16) 1.0582(15)
N37 N 0.4656(16) -0.1498(16) 1.0781(16)
O58 O 0.4535(13) -0.1812(14) 1.1207(14)
O59 O 0.448(2) -0.1378(19) 1.0353(16)
N38 N 0.8978(10) -0.0888(10) 0.5181(10)
O60 O 0.9308(14) -0.1417(11) 0.5312(14)
O61 O 0.8417(11) -0.0658(14) 0.5319(14)
O62 O 0.9250(9) -0.0519(9) 0.4916(9)
N39 N 1.523(3) -1.1592(17) 0.848(2)
O63 O 1.519(2) -1.1106(17) 0.8296(18)
O64 O 1.5657(19) -1.2010(19) 0.8275(19)
O65 O 1.4910(13) -1.1828(13) 0.8964(12)
O66 O 1.6012(16) -1.3129(16) 0.8878(16)
N40 N 0.8388(11) 0.1246(9) 1.0924(10)
O67 O 0.8098(13) 0.1248(12) 1.1348(11)
O68 O 0.8794(18) 0.0785(15) 1.0762(17)
O69 O 0.834(2) 0.1708(15) 1.0481(14)
N41 N 1.1165(11) -0.5379(10) 1.0986(11)
O70 O 1.0988(15) -0.5469(16) 1.1461(12)
O71 O 1.1654(13) -0.5636(18) 1.0701(16)
O72 O 1.0770(11) -0.5077(11) 1.0688(10)
O73 O 1.238(2) -0.542(2) 0.750(2)
loop_
_geom_bond_atom_site_label_1
_geom_bond_atom_site_label_2
_geom_bond_site_symmetry_1
_geom_bond_site_symmetry_2
Pd1 N1 1_555 1_555
Pd2 N2 1_555 1_555
Pd3 N3 1_555 1_555
Pd4 N9 1_555 1_555
Pd5 N6 1_555 1_555
Pd6 N5 1_555 1_555
N1 C1 1_555 1_555
C1 C2 1_555 1_555
C2 C3 1_555 1_555
C3 C4 1_555 1_555
C4 C5 1_555 1_555
C5 N1 1_555 1_555
N2 C6 1_555 1_555
C6 C7 1_555 1_555
C7 C8 1_555 1_555
C8 C9 1_555 1_555
C9 C10 1_555 1_555
C10 N2 1_555 1_555
N3 C11 1_555 1_555
C11 C12 1_555 1_555
C12 C13 1_555 1_555
C13 C14 1_555 1_555
C14 C15 1_555 1_555
C15 N3 1_555 1_555
N4 Pd1 1_555 1_555
C16 N4 1_555 1_555
C17 C16 1_555 1_555
C18 C17 1_555 1_555
C19 C18 1_555 1_555
C20 N4 1_555 1_555
N5 C21 1_555 1_555
C21 C22 1_555 1_555
C22 C23 1_555 1_555
C23 C24 1_555 1_555
C24 C25 1_555 1_555
C25 N5 1_555 1_555
N6 C26 1_555 1_555
C26 C27 1_555 1_555
C27 C28 1_555 1_555
C28 C29 1_555 1_555
C29 C30 1_555 1_555
C30 N6 1_555 1_555
N7 Pd2 1_555 1_555
C31 N7 1_555 1_555
C32 C31 1_555 1_555
C33 C32 1_555 1_555
C34 C33 1_555 1_555
C35 N7 1_555 1_555
N8 Pd5 1_555 1_555
C36 N8 1_555 1_555
C37 C36 1_555 1_555
C38 C37 1_555 1_555
C39 C38 1_555 1_555
C40 N8 1_555 1_555
N9 C41 1_555 1_555
C41 C42 1_555 1_555
C42 C43 1_555 1_555
C43 C44 1_555 1_555
C44 C45 1_555 1_555
C45 N9 1_555 1_555
N10 Pd3 1_555 1_555
C46 N10 1_555 1_555
C47 C46 1_555 1_555
C48 C47 1_555 1_555
C49 C48 1_555 1_555
C50 N10 1_555 1_555
N11 Pd4 1_555 1_555
C51 N11 1_555 1_555
C52 C51 1_555 1_555
C53 C52 1_555 1_555
C54 C53 1_555 1_555
C55 N11 1_555 1_555
N12 Pd6 1_555 1_555
C56 N12 1_555 1_555
C57 C56 1_555 1_555
C58 C57 1_555 1_555
C59 C58 1_555 1_555
C60 N12 1_555 1_555
C61 C3 1_555 1_555
N13 C61 1_555 1_555
C62 C8 1_555 1_555
N14 C62 1_555 1_555
C63 C13 1_555 1_555
N15 C61 1_555 1_555
C64 C18 1_555 1_555
N16 C64 1_555 1_555
C65 C23 1_555 1_555
N17 C65 1_555 1_555
C66 C28 1_555 1_555
N18 C64 1_555 1_555
C67 C33 1_555 1_555
N19 C67 1_555 1_555
C68 C38 1_555 1_555
N20 C68 1_555 1_555
C69 C43 1_555 1_555
N21 C67 1_555 1_555
C70 C48 1_555 1_555
N22 C70 1_555 1_555
C71 C53 1_555 1_555
N23 C71 1_555 1_555
C72 C58 1_555 1_555
N24 C70 1_555 1_555
C73 N25 1_555 1_555
C74 N25 1_555 1_555
C75 C76 1_555 1_555
C76 N26 1_555 1_555
C77 N26 1_555 1_555
C78 N26 1_555 1_555
C79 N27 1_555 1_555
C80 N27 1_555 1_555
C81 C82 1_555 1_555
C82 N28 1_555 1_555
C83 N28 1_555 1_555
C84 N28 1_555 1_555
C85 N29 1_555 1_555
C86 N29 1_555 1_555
C87 C88 1_555 1_555
C88 N30 1_555 1_555
C89 N30 1_555 1_555
C90 N30 1_555 1_555
C91 N31 1_555 1_555
C92 N31 1_555 1_555
C93 C94 1_555 1_555
C94 N32 1_555 1_555
C95 N32 1_555 1_555
C96 N32 1_555 1_555
C97 N33 1_555 1_555
C98 N33 1_555 1_555
C99 C100 1_555 1_555
C100 N33 1_555 1_555
C101 N34 1_555 1_555
C102 N34 1_555 1_555
C103 N35 1_555 1_555
C104 C106 1_555 1_555
C105 N36 1_555 1_555
C106 N36 1_555 1_555
C107 N35 1_555 1_555
C108 N36 1_555 1_555
N25 Pd1 1_555 1_555
N26 Pd1 1_555 1_555
N27 Pd2 1_555 1_555
N28 Pd2 1_555 1_555
N29 Pd3 1_555 1_555
N30 Pd3 1_555 1_555
N31 Pd4 1_555 1_555
N32 Pd4 1_555 1_555
N33 Pd5 1_555 1_555
N34 Pd5 1_555 1_555
N35 Pd6 1_555 1_555
N36 Pd6 1_555 1_555
H1 C1 1_555 1_555
H2 C2 1_555 1_555
H3 C4 1_555 1_555
H4 C5 1_555 1_555
H5 C6 1_555 1_555
H6 C7 1_555 1_555
H7 C9 1_555 1_555
H8 C10 1_555 1_555
H9 C11 1_555 1_555
H10 C12 1_555 1_555
H11 C14 1_555 1_555
H12 C15 1_555 1_555
H13 C16 1_555 1_555
H14 C17 1_555 1_555
H15 C19 1_555 1_555
H16 C20 1_555 1_555
H17 C21 1_555 1_555
H18 C22 1_555 1_555
H19 C24 1_555 1_555
H20 C25 1_555 1_555
H21 C26 1_555 1_555
H22 C27 1_555 1_555
H23 C29 1_555 1_555
H24 C30 1_555 1_555
H25 C31 1_555 1_555
H26 C32 1_555 1_555
H27 C34 1_555 1_555
H28 C35 1_555 1_555
H29 C36 1_555 1_555
H30 C37 1_555 1_555
H31 C39 1_555 1_555
H32 C40 1_555 1_555
H33 C41 1_555 1_555
H34 C42 1_555 1_555
H35 C44 1_555 1_555
H36 C45 1_555 1_555
H37 C46 1_555 1_555
H38 C47 1_555 1_555
H39 C49 1_555 1_555
H40 C50 1_555 1_555
H41 C51 1_555 1_555
H42 C52 1_555 1_555
H43 C54 1_555 1_555
H44 C55 1_555 1_555
H45 C56 1_555 1_555
H46 C57 1_555 1_555
H47 C59 1_555 1_555
H48 C60 1_555 1_555
H49 C73 1_555 1_555
H50 C73 1_555 1_555
H51 C73 1_555 1_555
H52 C74 1_555 1_555
H53 C74 1_555 1_555
H54 C74 1_555 1_555
H55 C75 1_555 1_555
H56 C75 1_555 1_555
H57 C76 1_555 1_555
H58 C76 1_555 1_555
H59 C77 1_555 1_555
H60 C77 1_555 1_555
H61 C77 1_555 1_555
H62 C78 1_555 1_555
H63 C78 1_555 1_555
H64 C78 1_555 1_555
H65 C79 1_555 1_555
H66 C79 1_555 1_555
H67 C79 1_555 1_555
H68 C80 1_555 1_555
H69 C80 1_555 1_555
H70 C80 1_555 1_555
H71 C81 1_555 1_555
H72 C81 1_555 1_555
H73 C82 1_555 1_555
H74 C82 1_555 1_555
H75 C83 1_555 1_555
H76 C83 1_555 1_555
H77 C83 1_555 1_555
H78 C84 1_555 1_555
H79 C84 1_555 1_555
H80 C84 1_555 1_555
H81 C85 1_555 1_555
H82 C85 1_555 1_555
H83 C85 1_555 1_555
H84 C86 1_555 1_555
H85 C86 1_555 1_555
H86 C86 1_555 1_555
H87 C87 1_555 1_555
H88 C87 1_555 1_555
H89 C88 1_555 1_555
H90 C88 1_555 1_555
H91 C89 1_555 1_555
H92 C89 1_555 1_555
H93 C89 1_555 1_555
H94 C90 1_555 1_555
H95 C90 1_555 1_555
H96 C90 1_555 1_555
H97 C91 1_555 1_555
H98 C91 1_555 1_555
H99 C91 1_555 1_555
H100 C92 1_555 1_555
H101 C92 1_555 1_555
H102 C92 1_555 1_555
H103 C93 1_555 1_555
H104 C93 1_555 1_555
H105 C94 1_555 1_555
H106 C94 1_555 1_555
H107 C95 1_555 1_555
H108 C95 1_555 1_555
H109 C95 1_555 1_555
H110 C96 1_555 1_555
H111 C96 1_555 1_555
H112 C96 1_555 1_555
H113 C97 1_555 1_555
H114 C97 1_555 1_555
H115 C97 1_555 1_555
H116 C98 1_555 1_555
H117 C98 1_555 1_555
H118 C98 1_555 1_555
H119 C99 1_555 1_555
H120 C99 1_555 1_555
H121 C100 1_555 1_555
H122 C100 1_555 1_555
H123 C101 1_555 1_555
H124 C101 1_555 1_555
H125 C101 1_555 1_555
H126 C102 1_555 1_555
H127 C102 1_555 1_555
H128 C102 1_555 1_555
H129 C103 1_555 1_555
H130 C103 1_555 1_555
H131 C103 1_555 1_555
H132 C104 1_555 1_555
H133 C104 1_555 1_555
H134 C105 1_555 1_555
H135 C105 1_555 1_555
H136 C105 1_555 1_555
H137 C106 1_555 1_555
H138 C106 1_555 1_555
H139 C107 1_555 1_555
H140 C107 1_555 1_555
H141 C107 1_555 1_555
H142 C108 1_555 1_555
H143 C108 1_555 1_555
H144 C108 1_555 1_555
C109 C112 1_555 1_555
C110 C111 1_555 1_555
C111 C112 1_555 1_555
C112 C113 1_555 1_555
C113 C114 1_555 1_555
C114 C110 1_555 1_555
Mn1 C110 1_555 1_555
C115 Mn1 1_555 1_555
O1 C115 1_555 1_555
C116 Mn1 1_555 1_555
O2 C116 1_555 1_555
C117 Mn1 1_555 1_555
O3 C117 1_555 1_555
O57 N37 1_555 1_555
N37 O58 1_555 1_555
O59 N37 1_555 1_555
N38 O60 1_555 1_555
O61 N38 1_555 1_555
O62 N38 1_555 1_555
N39 O63 1_555 1_555
O64 N39 1_555 1_555
O65 N39 1_555 1_555
N40 O67 1_555 1_555
O68 N40 1_555 1_555
O69 N40 1_555 1_555
N41 O70 1_555 1_555
O71 N41 1_555 1_555
O72 N41 1_555 1_555
C19 C20 1_555 1_555
C34 C35 1_555 1_555
C39 C40 1_555 1_555
C49 C50 1_555 1_555
C54 C55 1_555 1_555
C59 C60 1_555 1_555
N13 C62 1_555 1_555
N14 C63 1_555 1_555
C63 N15 1_555 1_555
N16 C65 1_555 1_555
N17 C66 1_555 1_555
C66 N18 1_555 1_555
N19 C68 1_555 1_555
N20 C69 1_555 1_555
C69 N21 1_555 1_555
N22 C71 1_555 1_555
N23 C72 1_555 1_555
C72 N24 1_555 1_555
C75 N25 1_555 1_555
C81 N27 1_555 1_555
C87 N29 1_555 1_555
C93 N31 1_555 1_555
C99 N34 1_555 1_555
C104 N35 1_555 1_555
C111 Mn1 1_555 1_555
C112 Mn1 1_555 1_555
C113 Mn1 1_555 1_555
C114 Mn1 1_555 1_555

#END
