
#######################################################################
#
#                 Cambridge Crystallographic Data Centre
#                                CCDC 
#
#######################################################################
#
# If this CIF has been generated from an entry in the Cambridge 
# Structural Database, then it will include bibliographic, chemical, 
# crystal, experimental, refinement or atomic coordinate data resulting 
# from the CCDC's data processing and validation procedures.
#
#######################################################################

data_SERDUQ
_chemical_formula_moiety         
'C50 H42 F6 Fe2 N10 O6 S2 2+,2(C1 F3 O3 S1 1-),4(C2 H3 N1)'
_chemical_name_systematic        
"bis(\m~2~-N,N-bis((Pyridin-2-yl)methyl)-N'-((pyridin-2-yl)methylene)benzene-1,3-diamine)-bis(trifluoromethanesulfonato-O)-di-iron(ii) bis(trifluoromethanesulfonate) acetonitrile solvate"
_symmetry_cell_setting           triclinic
_symmetry_space_group_name_H-M   'P -1'
_symmetry_Int_Tables_number      2
_space_group_name_Hall           '-P 1'
loop_
_symmetry_equiv_pos_site_id
_symmetry_equiv_pos_as_xyz
1 x,y,z
2 -x,-y,-z
_cell_length_a                   10.6568(2)
_cell_length_b                   12.9150(2)
_cell_length_c                   15.0100(3)
_cell_angle_alpha                106.9800(10)
_cell_angle_beta                 109.4480(10)
_cell_angle_gamma                97.5000(10)
_cell_volume                     1802.68
_exptl_crystal_colour            'pinkish pink'
_exptl_crystal_description       block
_cell_formula_units_Z            1
loop_
_atom_site_label
_atom_site_type_symbol
_atom_site_fract_x
_atom_site_fract_y
_atom_site_fract_z
Fe1 Fe -0.25967(4) 0.72947(3) 0.41327(3)
S1 S -0.16764(8) 0.47962(6) 0.34810(6)
N1 N -0.0745(2) 0.8034(2) 0.39503(19)
N2 N -0.3330(3) 0.7083(2) 0.25364(19)
O1 O -0.2233(3) 0.56939(19) 0.38953(18)
N3 N 0.4652(3) 1.3370(2) 0.60086(18)
N4 N 0.3351(2) 1.1121(2) 0.53232(18)
C1 C 0.0625(3) 0.8594(2) 0.4692(2)
C2 C 0.1306(3) 0.9588(2) 0.4695(2)
H1 H 0.0853 0.9909 0.4222
C3 C -0.0945(3) 0.7886(3) 0.3032(2)
H2 H -0.0200 0.8127 0.2867
C4 C 0.3172(3) 1.0946(2) 0.4253(2)
H3 H 0.3002 1.0139 0.3871
H4 H 0.4024 1.1346 0.4243
C5 C 0.5145(3) 1.4388(3) 0.6022(2)
H5 H 0.4595 1.4911 0.6046
C6 C 0.2658(3) 1.0121(2) 0.5390(2)
C7 C 0.4833(3) 1.1518(2) 0.5996(2)
H6 H 0.5326 1.0967 0.5762
H7 H 0.4946 1.1587 0.6694
C8 C -0.4600(3) 0.6610(3) 0.1835(2)
H8 H -0.5321 0.6424 0.2044
C9 C 0.5444(3) 1.2641(3) 0.5990(2)
C10 C 0.091(5) 1.285(4) 0.382(4)
H9 H 0.0774 1.3514 0.4219
C11 C 0.1256(3) 0.8129(3) 0.5390(2)
H10 H 0.0787 0.7451 0.5390
C12 C 0.2576(3) 0.8666(3) 0.6082(2)
H11 H 0.3014 0.8350 0.6563
C13 C -0.2313(3) 0.7350(3) 0.2233(2)
C14 C 0.3290(3) 0.9659(3) 0.6101(2)
H12 H 0.4199 1.0018 0.6591
C15 C 0.6418(4) 1.4704(3) 0.6001(3)
H13 H 0.6738 1.5430 0.6009
C16 C -0.4915(4) 0.6378(4) 0.0812(3)
H14 H -0.5836 0.6055 0.0333
C17 C -0.3870(4) 0.6624(4) 0.0502(3)
H15 H -0.4057 0.6465 -0.0195
C18 C 0.7221(3) 1.3946(3) 0.5967(3)
H16 H 0.8098 1.4141 0.5945
C19 C 0.6730(3) 1.2898(3) 0.5968(2)
H17 H 0.7268 1.2367 0.5953
C20 C -0.2542(4) 0.7108(4) 0.1225(3)
H18 H -0.1800 0.7271 0.1029
C21 C 0.1960(7) 1.1383(7) 0.3747(7)
C22 C 0.0178(7) 1.2417(6) 0.2751(5)
H19 H -0.0390 1.2815 0.2424
C23 C 0.1203(7) 1.0876(6) 0.2689(5)
H20 H 0.1310 1.0181 0.2321
C24 C 0.0310(8) 1.1397(6) 0.2196(5)
H21 H -0.0209 1.1065 0.1486
F1 F -0.2783(7) 0.3187(5) 0.1685(4)
F2 F -0.4229(4) 0.4010(5) 0.2099(3)
F3 F -0.2843(4) 0.4788(3) 0.1618(3)
C25 C -0.2972(7) 0.4133(6) 0.2148(5)
O2 O -0.0424(7) 0.5119(11) 0.3352(6)
O3 O -0.1749(10) 0.3932(6) 0.3911(8)
N5 N 0.1806(3) 1.2325(2) 0.42660(19)
Fe1A Fe 0.25967(4) 1.27053(3) 0.58673(3)
S1A S 0.16764(8) 1.52038(6) 0.65190(6)
N1A N 0.0745(2) 1.1966(2) 0.60497(19)
N2A N 0.3330(3) 1.2917(2) 0.74636(19)
O1A O 0.2233(3) 1.43061(19) 0.61047(18)
N3A N -0.4652(3) 0.6630(2) 0.39914(18)
N4A N -0.3351(2) 0.8879(2) 0.46768(18)
C1A C -0.0625(3) 1.1406(2) 0.5308(2)
C2A C -0.1306(3) 1.0412(2) 0.5305(2)
H1A H -0.0853 1.0091 0.5778
C3A C 0.0945(3) 1.2114(3) 0.6968(2)
H2A H 0.0200 1.1873 0.7133
C4A C -0.3172(3) 0.9054(2) 0.5747(2)
H3A H -0.3002 0.9861 0.6129
H4A H -0.4024 0.8654 0.5757
C5A C -0.5145(3) 0.5612(3) 0.3978(2)
H5A H -0.4595 0.5089 0.3954
C6A C -0.2658(3) 0.9879(2) 0.4610(2)
C7A C -0.4833(3) 0.8482(2) 0.4004(2)
H6A H -0.5326 0.9033 0.4238
H7A H -0.4946 0.8413 0.3306
C8A C 0.4600(3) 1.3390(3) 0.8165(2)
H8A H 0.5321 1.3576 0.7956
C9A C -0.5444(3) 0.7359(3) 0.4010(2)
C10A C -0.091(5) 0.715(4) 0.618(4)
H9A H -0.0774 0.6486 0.5781
C11A C -0.1256(3) 1.1871(3) 0.4610(2)
H10A H -0.0787 1.2549 0.4610
C12A C -0.2576(3) 1.1334(3) 0.3918(2)
H11A H -0.3014 1.1650 0.3437
C13A C 0.2313(3) 1.2650(3) 0.7767(2)
C14A C -0.3290(3) 1.0341(3) 0.3899(2)
H12A H -0.4199 0.9982 0.3409
C15A C -0.6418(4) 0.5296(3) 0.3999(3)
H13A H -0.6738 0.4570 0.3991
C16A C 0.4915(4) 1.3622(4) 0.9188(3)
H14A H 0.5836 1.3945 0.9667
C17A C 0.3870(4) 1.3376(4) 0.9498(3)
H15A H 0.4057 1.3535 1.0195
C18A C -0.7221(3) 0.6054(3) 0.4033(3)
H16A H -0.8098 0.5859 0.4055
C19A C -0.6730(3) 0.7102(3) 0.4032(2)
H17A H -0.7268 0.7633 0.4047
C20A C 0.2542(4) 1.2892(4) 0.8775(3)
H18A H 0.1800 1.2729 0.8971
C21A C -0.1960(7) 0.8617(7) 0.6253(7)
C22A C -0.0178(7) 0.7583(6) 0.7249(5)
H19A H 0.0390 0.7185 0.7576
C23A C -0.1203(7) 0.9124(6) 0.7311(5)
H20A H -0.1310 0.9819 0.7679
C24A C -0.0310(8) 0.8603(6) 0.7804(5)
H21A H 0.0209 0.8935 0.8514
F1A F 0.2783(7) 1.6813(5) 0.8315(4)
F2A F 0.4229(4) 1.5990(5) 0.7901(3)
F3A F 0.2843(4) 1.5212(3) 0.8382(3)
C25A C 0.2972(7) 1.5867(6) 0.7852(5)
O2A O 0.0424(7) 1.4881(11) 0.6648(6)
O3A O 0.1749(10) 1.6068(6) 0.6089(8)
N5A N -0.1806(3) 0.7675(2) 0.57340(19)
S2 S 0.2294(12) 0.8322(8) 0.1649(7)
O6 O 0.3510(13) 0.9243(13) 0.2071(11)
O7 O 0.252(4) 0.724(2) 0.133(2)
O8 O 0.1427(7) 0.8427(6) 0.2212(5)
C32 C 0.1218(9) 0.8396(10) 0.0435(7)
F7 F 0.0935(12) 0.9355(11) 0.0523(14)
F8 F 0.0024(7) 0.7657(6) 0.0036(5)
F9 F 0.1861(9) 0.8201(10) -0.0211(6)
C34 C 0.1566(5) 1.4704(4) 0.1257(3)
N6 N 0.2501(4) 1.4401(4) 0.1201(3)
C35 C 0.0364(5) 1.5093(4) 0.1322(4)
H28 H 0.0229 1.5020 0.1918
H29 H -0.0450 1.4640 0.0711
H30 H 0.0506 1.5879 0.1381
N7 N 0.4343(14) 1.2769(12) 0.3388(10)
C36 C 0.3812(16) 1.2358(16) 0.2494(10)
C37 C 0.3073(15) 1.2000(12) 0.1391(10)
H31 H 0.2343 1.1317 0.1152
H32 H 0.3717 1.1850 0.1060
H33 H 0.2666 1.2592 0.1227
H22? H 0.2707 1.0147 0.3845
H23? H 0.4102 1.1077 0.4240
O4? O -0.075(2) 0.518(3) 0.3131(18)
O5? O -0.127(3) 0.4224(16) 0.409(2)
F4? F -0.264(2) 0.2937(12) 0.1956(11)
F5? F -0.4067(9) 0.3413(10) 0.2576(7)
F6? F -0.3505(14) 0.4377(9) 0.1752(7)
C26? C -0.301(2) 0.3839(14) 0.2409(13)
C27? C 0.111(6) 1.290(6) 0.372(5)
H24? H 0.0724 1.3431 0.4061
C28? C 0.0904(9) 1.2814(7) 0.2793(6)
H25? H 0.0340 1.3223 0.2478
C29? C 0.1513(10) 1.2123(7) 0.2267(6)
H26? H 0.1409 1.2069 0.1600
C30? C 0.2284(9) 1.1511(7) 0.2754(6)
H27? H 0.2721 1.1025 0.2426
C31? C 0.2398(10) 1.1625(9) 0.3716(9)
S3? S 0.2169(15) 0.8084(11) 0.1568(9)
O9? O 0.257(6) 0.704(3) 0.137(3)
O10? O 0.0913(9) 0.8026(8) 0.1727(6)
O11? O 0.3229(17) 0.9090(16) 0.2201(14)
C33? C 0.1666(10) 0.8329(13) 0.0362(9)
F10? F 0.2628(11) 0.8410(14) 0.0061(8)
F11? F 0.1336(17) 0.9311(14) 0.0477(18)
F12? F 0.0603(9) 0.7471(7) -0.0370(6)
N8? N 0.4645(18) 1.2616(15) 0.3442(12)
C38? C 0.417(2) 1.2281(19) 0.2556(12)
C39? C 0.3608(18) 1.1762(15) 0.1459(12)
H34? H 0.2927 1.1057 0.1246
H35? H 0.4351 1.1613 0.1233
H36? H 0.3166 1.2267 0.1158
loop_
_geom_bond_atom_site_label_1
_geom_bond_atom_site_label_2
_geom_bond_site_symmetry_1
_geom_bond_site_symmetry_2
Fe1 N1 1_555 1_555
S1 O1 1_555 1_555
N1 C1 1_555 1_555
N2 Fe1 1_555 1_555
O1 Fe1 1_555 1_555
N3 C5 1_555 1_555
N4 C4 1_555 1_555
C1 C2 1_555 1_555
C2 H1 1_555 1_555
C3 N1 1_555 1_555
H2 C3 1_555 1_555
C4 H3 1_555 1_555
H4 C4 1_555 1_555
C5 H5 1_555 1_555
C6 N4 1_555 1_555
C7 N4 1_555 1_555
H6 C7 1_555 1_555
H7 C7 1_555 1_555
C8 N2 1_555 1_555
H8 C8 1_555 1_555
C9 N3 1_555 1_555
C10 H9 1_555 1_555
C11 C1 1_555 1_555
H10 C11 1_555 1_555
C12 C11 1_555 1_555
H11 C12 1_555 1_555
C13 N2 1_555 1_555
C14 C6 1_555 1_555
H12 C14 1_555 1_555
C15 C5 1_555 1_555
H13 C15 1_555 1_555
C16 C8 1_555 1_555
H14 C16 1_555 1_555
C17 C16 1_555 1_555
H15 C17 1_555 1_555
C18 C15 1_555 1_555
H16 C18 1_555 1_555
C19 C9 1_555 1_555
H17 C19 1_555 1_555
C20 C13 1_555 1_555
H18 C20 1_555 1_555
C21 C4 1_555 1_555
C22 C10 1_555 1_555
H19 C22 1_555 1_555
C23 C21 1_555 1_555
H20 C23 1_555 1_555
C24 C22 1_555 1_555
H21 C24 1_555 1_555
F1 C25 1_555 1_555
F2 C25 1_555 1_555
F3 C25 1_555 1_555
C25 S1 1_555 1_555
O2 S1 1_555 1_555
O3 S1 1_555 1_555
N5 C10 1_555 1_555
S2 O6 1_555 1_555
O7 S2 1_555 1_555
O8 S2 1_555 1_555
C32 S2 1_555 1_555
F7 C32 1_555 1_555
F8 C32 1_555 1_555
F9 C32 1_555 1_555
C34 N6 1_555 1_555
C35 C34 1_555 1_555
H28 C35 1_555 1_555
H29 C35 1_555 1_555
H30 C35 1_555 1_555
N7 C36 1_555 1_555
C36 C37 1_555 1_555
C37 H31 1_555 1_555
H32 C37 1_555 1_555
H33 C37 1_555 1_555
Fe1A N3 1_555 1_555
S1A O1A 1_555 1_555
N1A Fe1A 1_555 1_555
N2A Fe1A 1_555 1_555
O1A Fe1A 1_555 1_555
N3A Fe1 1_555 1_555
N4A Fe1 1_555 1_555
C1A N1A 1_555 1_555
C2A C1A 1_555 1_555
H1A C2A 1_555 1_555
C3A N1A 1_555 1_555
H2A C3A 1_555 1_555
C4A N4A 1_555 1_555
H3A C4A 1_555 1_555
H4A C4A 1_555 1_555
C5A N3A 1_555 1_555
H5A C5A 1_555 1_555
C6A N4A 1_555 1_555
C7A N4A 1_555 1_555
H6A C7A 1_555 1_555
H7A C7A 1_555 1_555
C8A N2A 1_555 1_555
H8A C8A 1_555 1_555
C9A N3A 1_555 1_555
C10A H9A 1_555 1_555
C11A C1A 1_555 1_555
H10A C11A 1_555 1_555
C12A C11A 1_555 1_555
H11A C12A 1_555 1_555
C13A N2A 1_555 1_555
C14A C6A 1_555 1_555
H12A C14A 1_555 1_555
C15A C5A 1_555 1_555
H13A C15A 1_555 1_555
C16A C8A 1_555 1_555
H14A C16A 1_555 1_555
C17A C16A 1_555 1_555
H15A C17A 1_555 1_555
C18A C15A 1_555 1_555
H16A C18A 1_555 1_555
C19A C9A 1_555 1_555
H17A C19A 1_555 1_555
C20A C13A 1_555 1_555
H18A C20A 1_555 1_555
C21A C4A 1_555 1_555
C22A C10A 1_555 1_555
H19A C22A 1_555 1_555
C23A C21A 1_555 1_555
H20A C23A 1_555 1_555
C24A C22A 1_555 1_555
H21A C24A 1_555 1_555
F1A C25A 1_555 1_555
F2A C25A 1_555 1_555
F3A C25A 1_555 1_555
C25A S1A 1_555 1_555
O2A S1A 1_555 1_555
O3A S1A 1_555 1_555
N5A Fe1 1_555 1_555
N4 Fe1A 1_555 1_555
C2 C6 1_555 1_555
C3 C13 1_555 1_555
C7 C9 1_555 1_555
C12 C14 1_555 1_555
C17 C20 1_555 1_555
C18 C19 1_555 1_555
C21 N5 1_555 1_555
C23 C24 1_555 1_555
N5 Fe1A 1_555 1_555
C2A C6A 1_555 1_555
C3A C13A 1_555 1_555
C7A C9A 1_555 1_555
C10A N5A 1_555 1_555
C12A C14A 1_555 1_555
C17A C20A 1_555 1_555
C18A C19A 1_555 1_555
C21A N5A 1_555 1_555
C23A C24A 1_555 1_555

#END
