# generated using pymatgen
data_Cu2H48C58S5N11(OF)15
_symmetry_space_group_name_H-M   'P 1'
_cell_length_a   10.79770000
_cell_length_b   28.73410000
_cell_length_c   42.06170000
_cell_angle_alpha   97.13900000
_cell_angle_beta   90.00000000
_cell_angle_gamma   90.00000000
_symmetry_Int_Tables_number   1
_chemical_formula_structural   Cu2H48C58S5N11(OF)15
_chemical_formula_sum   'Cu16 H384 C464 S40 N88 O120 F120'
_cell_volume   12948.98487552
_cell_formula_units_Z   8
loop_
 _symmetry_equiv_pos_site_id
 _symmetry_equiv_pos_as_xyz
  1  'x, y, z'
loop_
 _atom_site_type_symbol
 _atom_site_label
 _atom_site_symmetry_multiplicity
 _atom_site_fract_x
 _atom_site_fract_y
 _atom_site_fract_z
 _atom_site_occupancy
  Cu  Cu1  1  0.320180  0.178482  0.390332  1
  Cu  Cu2  1  0.320180  0.321518  0.609668  1
  Cu  Cu3  1  0.820180  0.178482  0.890332  1
  Cu  Cu4  1  0.820180  0.321518  0.109668  1
  Cu  Cu5  1  0.679820  0.821518  0.609668  1
  Cu  Cu6  1  0.679820  0.678482  0.390332  1
  Cu  Cu7  1  0.179820  0.821518  0.109668  1
  Cu  Cu8  1  0.179820  0.678482  0.890332  1
  Cu  Cu9  1  0.390510  0.401887  0.347067  1
  Cu  Cu10  1  0.390510  0.098113  0.652933  1
  Cu  Cu11  1  0.890510  0.401887  0.847067  1
  Cu  Cu12  1  0.890510  0.098113  0.152933  1
  Cu  Cu13  1  0.609490  0.598113  0.652933  1
  Cu  Cu14  1  0.609490  0.901887  0.347067  1
  Cu  Cu15  1  0.109490  0.598113  0.152933  1
  Cu  Cu16  1  0.109490  0.901887  0.847067  1
  H  H17  1  0.174000  0.315900  0.375100  1
  H  H18  1  0.174000  0.184100  0.624900  1
  H  H19  1  0.674000  0.315900  0.875100  1
  H  H20  1  0.674000  0.184100  0.124900  1
  H  H21  1  0.826000  0.684100  0.624900  1
  H  H22  1  0.826000  0.815900  0.375100  1
  H  H23  1  0.326000  0.684100  0.124900  1
  H  H24  1  0.326000  0.815900  0.875100  1
  H  H25  1  0.515200  0.275600  0.379800  1
  H  H26  1  0.515200  0.224400  0.620200  1
  H  H27  1  0.015200  0.275600  0.879800  1
  H  H28  1  0.015200  0.224400  0.120200  1
  H  H29  1  0.484800  0.724400  0.620200  1
  H  H30  1  0.484800  0.775600  0.379800  1
  H  H31  1  0.984800  0.724400  0.120200  1
  H  H32  1  0.984800  0.775600  0.879800  1
  H  H33  1  0.481700  0.501400  0.372100  1
  H  H34  1  0.481700  0.998600  0.627900  1
  H  H35  1  0.981700  0.501400  0.872100  1
  H  H36  1  0.981700  0.998600  0.127900  1
  H  H37  1  0.518300  0.498600  0.627900  1
  H  H38  1  0.518300  0.001400  0.372100  1
  H  H39  1  0.018300  0.498600  0.127900  1
  H  H40  1  0.018300  0.001400  0.872100  1
  H  H41  1  0.224200  0.250900  0.444900  1
  H  H42  1  0.224200  0.249100  0.555100  1
  H  H43  1  0.724200  0.250900  0.944900  1
  H  H44  1  0.724200  0.249100  0.055100  1
  H  H45  1  0.775800  0.749100  0.555100  1
  H  H46  1  0.775800  0.750900  0.444900  1
  H  H47  1  0.275800  0.749100  0.055100  1
  H  H48  1  0.275800  0.750900  0.944900  1
  H  H49  1  0.539000  0.298100  0.286600  1
  H  H50  1  0.539000  0.201900  0.713400  1
  H  H51  1  0.039000  0.298100  0.786600  1
  H  H52  1  0.039000  0.201900  0.213400  1
  H  H53  1  0.461000  0.701900  0.713400  1
  H  H54  1  0.461000  0.798100  0.286600  1
  H  H55  1  0.961000  0.701900  0.213400  1
  H  H56  1  0.961000  0.798100  0.786600  1
  H  H57  1  0.324000  0.020800  0.295200  1
  H  H58  1  0.324000  0.479200  0.704800  1
  H  H59  1  0.824000  0.020800  0.795200  1
  H  H60  1  0.824000  0.479200  0.204800  1
  H  H61  1  0.676000  0.979200  0.704800  1
  H  H62  1  0.676000  0.520800  0.295200  1
  H  H63  1  0.176000  0.979200  0.204800  1
  H  H64  1  0.176000  0.520800  0.795200  1
  H  H65  1  0.564300  0.117100  0.377400  1
  H  H66  1  0.564300  0.382900  0.622600  1
  H  H67  1  0.064300  0.117100  0.877400  1
  H  H68  1  0.064300  0.382900  0.122600  1
  H  H69  1  0.435700  0.882900  0.622600  1
  H  H70  1  0.435700  0.617100  0.377400  1
  H  H71  1  0.935700  0.882900  0.122600  1
  H  H72  1  0.935700  0.617100  0.877400  1
  H  H73  1  0.599200  0.133700  0.343500  1
  H  H74  1  0.599200  0.366300  0.656500  1
  H  H75  1  0.099200  0.133700  0.843500  1
  H  H76  1  0.099200  0.366300  0.156500  1
  H  H77  1  0.400800  0.866300  0.656500  1
  H  H78  1  0.400800  0.633700  0.343500  1
  H  H79  1  0.900800  0.866300  0.156500  1
  H  H80  1  0.900800  0.633700  0.843500  1
  H  H81  1  0.650600  0.217800  0.395000  1
  H  H82  1  0.650600  0.282200  0.605000  1
  H  H83  1  0.150600  0.217800  0.895000  1
  H  H84  1  0.150600  0.282200  0.105000  1
  H  H85  1  0.349400  0.782200  0.605000  1
  H  H86  1  0.349400  0.717800  0.395000  1
  H  H87  1  0.849400  0.782200  0.105000  1
  H  H88  1  0.849400  0.717800  0.895000  1
  H  H89  1  0.610900  0.172300  0.411000  1
  H  H90  1  0.610900  0.327700  0.589000  1
  H  H91  1  0.110900  0.172300  0.911000  1
  H  H92  1  0.110900  0.327700  0.089000  1
  H  H93  1  0.389100  0.827700  0.589000  1
  H  H94  1  0.389100  0.672300  0.411000  1
  H  H95  1  0.889100  0.827700  0.089000  1
  H  H96  1  0.889100  0.672300  0.911000  1
  H  H97  1  0.010100  0.244000  0.382100  1
  H  H98  1  0.010100  0.256000  0.617900  1
  H  H99  1  0.510100  0.244000  0.882100  1
  H  H100  1  0.510100  0.256000  0.117900  1
  H  H101  1  0.989900  0.756000  0.617900  1
  H  H102  1  0.989900  0.744000  0.382100  1
  H  H103  1  0.489900  0.756000  0.117900  1
  H  H104  1  0.489900  0.744000  0.882100  1
  H  H105  1  0.712500  0.341500  0.349100  1
  H  H106  1  0.712500  0.158500  0.650900  1
  H  H107  1  0.212500  0.341500  0.849100  1
  H  H108  1  0.212500  0.158500  0.150900  1
  H  H109  1  0.287500  0.658500  0.650900  1
  H  H110  1  0.287500  0.841500  0.349100  1
  H  H111  1  0.787500  0.658500  0.150900  1
  H  H112  1  0.787500  0.841500  0.849100  1
  H  H113  1  0.649000  0.262500  0.451200  1
  H  H114  1  0.649000  0.237500  0.548800  1
  H  H115  1  0.149000  0.262500  0.951200  1
  H  H116  1  0.149000  0.237500  0.048800  1
  H  H117  1  0.351000  0.737500  0.548800  1
  H  H118  1  0.351000  0.762500  0.451200  1
  H  H119  1  0.851000  0.737500  0.048800  1
  H  H120  1  0.851000  0.762500  0.951200  1
  H  H121  1  0.128600  0.114700  0.353300  1
  H  H122  1  0.128600  0.385300  0.646700  1
  H  H123  1  0.628600  0.114700  0.853300  1
  H  H124  1  0.628600  0.385300  0.146700  1
  H  H125  1  0.871400  0.885300  0.646700  1
  H  H126  1  0.871400  0.614700  0.353300  1
  H  H127  1  0.371400  0.885300  0.146700  1
  H  H128  1  0.371400  0.614700  0.853300  1
  H  H129  1  0.865200  0.149900  0.458600  1
  H  H130  1  0.865200  0.350100  0.541400  1
  H  H131  1  0.365200  0.149900  0.958600  1
  H  H132  1  0.365200  0.350100  0.041400  1
  H  H133  1  0.134800  0.850100  0.541400  1
  H  H134  1  0.134800  0.649900  0.458600  1
  H  H135  1  0.634800  0.850100  0.041400  1
  H  H136  1  0.634800  0.649900  0.958600  1
  H  H137  1  0.501100  0.166100  0.308800  1
  H  H138  1  0.501100  0.333900  0.691200  1
  H  H139  1  0.001100  0.166100  0.808800  1
  H  H140  1  0.001100  0.333900  0.191200  1
  H  H141  1  0.498900  0.833900  0.691200  1
  H  H142  1  0.498900  0.666100  0.308800  1
  H  H143  1  0.998900  0.833900  0.191200  1
  H  H144  1  0.998900  0.666100  0.808800  1
  H  H145  1  0.229600  0.327700  0.281000  1
  H  H146  1  0.229600  0.172300  0.719000  1
  H  H147  1  0.729600  0.327700  0.781000  1
  H  H148  1  0.729600  0.172300  0.219000  1
  H  H149  1  0.770400  0.672300  0.719000  1
  H  H150  1  0.770400  0.827700  0.281000  1
  H  H151  1  0.270400  0.672300  0.219000  1
  H  H152  1  0.270400  0.827700  0.781000  1
  H  H153  1  0.848500  0.493500  0.388000  1
  H  H154  1  0.848500  0.006500  0.612000  1
  H  H155  1  0.348500  0.493500  0.888000  1
  H  H156  1  0.348500  0.006500  0.112000  1
  H  H157  1  0.151500  0.506500  0.612000  1
  H  H158  1  0.151500  0.993500  0.388000  1
  H  H159  1  0.651500  0.506500  0.112000  1
  H  H160  1  0.651500  0.993500  0.888000  1
  H  H161  1  0.522800  0.217700  0.271000  1
  H  H162  1  0.522800  0.282300  0.729000  1
  H  H163  1  0.022800  0.217700  0.771000  1
  H  H164  1  0.022800  0.282300  0.229000  1
  H  H165  1  0.477200  0.782300  0.729000  1
  H  H166  1  0.477200  0.717700  0.271000  1
  H  H167  1  0.977200  0.782300  0.229000  1
  H  H168  1  0.977200  0.717700  0.771000  1
  H  H169  1  0.310900  0.304400  0.484200  1
  H  H170  1  0.310900  0.195600  0.515800  1
  H  H171  1  0.810900  0.304400  0.984200  1
  H  H172  1  0.810900  0.195600  0.015800  1
  H  H173  1  0.689100  0.695600  0.515800  1
  H  H174  1  0.689100  0.804400  0.484200  1
  H  H175  1  0.189100  0.695600  0.015800  1
  H  H176  1  0.189100  0.804400  0.984200  1
  H  H177  1  0.423300  0.401200  0.465600  1
  H  H178  1  0.423300  0.098800  0.534400  1
  H  H179  1  0.923300  0.401200  0.965600  1
  H  H180  1  0.923300  0.098800  0.034400  1
  H  H181  1  0.576700  0.598800  0.534400  1
  H  H182  1  0.576700  0.901200  0.465600  1
  H  H183  1  0.076700  0.598800  0.034400  1
  H  H184  1  0.076700  0.901200  0.965600  1
  H  H185  1  0.221800  0.114500  0.439300  1
  H  H186  1  0.221800  0.385500  0.560700  1
  H  H187  1  0.721800  0.114500  0.939300  1
  H  H188  1  0.721800  0.385500  0.060700  1
  H  H189  1  0.778200  0.885500  0.560700  1
  H  H190  1  0.778200  0.614500  0.439300  1
  H  H191  1  0.278200  0.885500  0.060700  1
  H  H192  1  0.278200  0.614500  0.939300  1
  H  H193  1  0.529000  0.310000  0.487800  1
  H  H194  1  0.529000  0.190000  0.512200  1
  H  H195  1  0.029000  0.310000  0.987800  1
  H  H196  1  0.029000  0.190000  0.012200  1
  H  H197  1  0.471000  0.690000  0.512200  1
  H  H198  1  0.471000  0.810000  0.487800  1
  H  H199  1  0.971000  0.690000  0.012200  1
  H  H200  1  0.971000  0.810000  0.987800  1
  H  H201  1  0.064300  0.378600  0.367700  1
  H  H202  1  0.064300  0.121400  0.632300  1
  H  H203  1  0.564300  0.378600  0.867700  1
  H  H204  1  0.564300  0.121400  0.132300  1
  H  H205  1  0.935700  0.621400  0.632300  1
  H  H206  1  0.935700  0.878600  0.367700  1
  H  H207  1  0.435700  0.621400  0.132300  1
  H  H208  1  0.435700  0.878600  0.867700  1
  H  H209  1  0.106800  0.431000  0.363900  1
  H  H210  1  0.106800  0.069000  0.636100  1
  H  H211  1  0.606800  0.431000  0.863900  1
  H  H212  1  0.606800  0.069000  0.136100  1
  H  H213  1  0.893200  0.569000  0.636100  1
  H  H214  1  0.893200  0.931000  0.363900  1
  H  H215  1  0.393200  0.569000  0.136100  1
  H  H216  1  0.393200  0.931000  0.863900  1
  H  H217  1  0.231700  0.246800  0.269700  1
  H  H218  1  0.231700  0.253200  0.730300  1
  H  H219  1  0.731700  0.246800  0.769700  1
  H  H220  1  0.731700  0.253200  0.230300  1
  H  H221  1  0.768300  0.753200  0.730300  1
  H  H222  1  0.768300  0.746800  0.269700  1
  H  H223  1  0.268300  0.753200  0.230300  1
  H  H224  1  0.268300  0.746800  0.769700  1
  H  H225  1  0.664400  0.537100  0.390900  1
  H  H226  1  0.664400  0.962900  0.609100  1
  H  H227  1  0.164400  0.537100  0.890900  1
  H  H228  1  0.164400  0.962900  0.109100  1
  H  H229  1  0.335600  0.462900  0.609100  1
  H  H230  1  0.335600  0.037100  0.390900  1
  H  H231  1  0.835600  0.462900  0.109100  1
  H  H232  1  0.835600  0.037100  0.890900  1
  H  H233  1  0.508200  0.060000  0.313300  1
  H  H234  1  0.508200  0.440000  0.686700  1
  H  H235  1  0.008200  0.060000  0.813300  1
  H  H236  1  0.008200  0.440000  0.186700  1
  H  H237  1  0.491800  0.940000  0.686700  1
  H  H238  1  0.491800  0.560000  0.313300  1
  H  H239  1  0.991800  0.940000  0.186700  1
  H  H240  1  0.991800  0.560000  0.813300  1
  H  H241  1  0.211800  0.199100  0.310500  1
  H  H242  1  0.211800  0.300900  0.689500  1
  H  H243  1  0.711800  0.199100  0.810500  1
  H  H244  1  0.711800  0.300900  0.189500  1
  H  H245  1  0.788200  0.800900  0.689500  1
  H  H246  1  0.788200  0.699100  0.310500  1
  H  H247  1  0.288200  0.800900  0.189500  1
  H  H248  1  0.288200  0.699100  0.810500  1
  H  H249  1  0.499900  0.397200  0.413800  1
  H  H250  1  0.499900  0.102800  0.586200  1
  H  H251  1  0.999900  0.397200  0.913800  1
  H  H252  1  0.999900  0.102800  0.086200  1
  H  H253  1  0.500100  0.602800  0.586200  1
  H  H254  1  0.500100  0.897200  0.413800  1
  H  H255  1  0.000100  0.602800  0.086200  1
  H  H256  1  0.000100  0.897200  0.913800  1
  H  H257  1  0.076700  0.403500  0.429100  1
  H  H258  1  0.076700  0.096500  0.570900  1
  H  H259  1  0.576700  0.403500  0.929100  1
  H  H260  1  0.576700  0.096500  0.070900  1
  H  H261  1  0.923300  0.596500  0.570900  1
  H  H262  1  0.923300  0.903500  0.429100  1
  H  H263  1  0.423300  0.596500  0.070900  1
  H  H264  1  0.423300  0.903500  0.929100  1
  H  H265  1  0.839400  0.412500  0.369000  1
  H  H266  1  0.839400  0.087500  0.631000  1
  H  H267  1  0.339400  0.412500  0.869000  1
  H  H268  1  0.339400  0.087500  0.131000  1
  H  H269  1  0.160600  0.587500  0.631000  1
  H  H270  1  0.160600  0.912500  0.369000  1
  H  H271  1  0.660600  0.587500  0.131000  1
  H  H272  1  0.660600  0.912500  0.869000  1
  H  H273  1  0.134400  0.048100  0.315800  1
  H  H274  1  0.134400  0.451900  0.684200  1
  H  H275  1  0.634400  0.048100  0.815800  1
  H  H276  1  0.634400  0.451900  0.184200  1
  H  H277  1  0.865600  0.951900  0.684200  1
  H  H278  1  0.865600  0.548100  0.315800  1
  H  H279  1  0.365600  0.951900  0.184200  1
  H  H280  1  0.365600  0.548100  0.815800  1
  H  H281  1  0.881200  0.205600  0.422100  1
  H  H282  1  0.881200  0.294400  0.577900  1
  H  H283  1  0.381200  0.205600  0.922100  1
  H  H284  1  0.381200  0.294400  0.077900  1
  H  H285  1  0.118800  0.794400  0.577900  1
  H  H286  1  0.118800  0.705600  0.422100  1
  H  H287  1  0.618800  0.794400  0.077900  1
  H  H288  1  0.618800  0.705600  0.922100  1
  H  H289  1  0.209700  0.405000  0.473300  1
  H  H290  1  0.209700  0.095000  0.526700  1
  H  H291  1  0.709700  0.405000  0.973300  1
  H  H292  1  0.709700  0.095000  0.026700  1
  H  H293  1  0.790300  0.595000  0.526700  1
  H  H294  1  0.790300  0.905000  0.473300  1
  H  H295  1  0.290300  0.595000  0.026700  1
  H  H296  1  0.290300  0.905000  0.973300  1
  H  H297  1  0.038700  0.104300  0.467100  1
  H  H298  1  0.038700  0.395700  0.532900  1
  H  H299  1  0.538700  0.104300  0.967100  1
  H  H300  1  0.538700  0.395700  0.032900  1
  H  H301  1  0.961300  0.895700  0.532900  1
  H  H302  1  0.961300  0.604300  0.467100  1
  H  H303  1  0.461300  0.895700  0.032900  1
  H  H304  1  0.461300  0.604300  0.967100  1
  H  H305  1  0.577900  0.410400  0.293500  1
  H  H306  1  0.577900  0.089600  0.706500  1
  H  H307  1  0.077900  0.410400  0.793500  1
  H  H308  1  0.077900  0.089600  0.206500  1
  H  H309  1  0.422100  0.589600  0.706500  1
  H  H310  1  0.422100  0.910400  0.293500  1
  H  H311  1  0.922100  0.589600  0.206500  1
  H  H312  1  0.922100  0.910400  0.793500  1
  H  H313  1  0.567800  0.417900  0.238800  1
  H  H314  1  0.567800  0.082100  0.761200  1
  H  H315  1  0.067800  0.417900  0.738800  1
  H  H316  1  0.067800  0.082100  0.261200  1
  H  H317  1  0.432200  0.582100  0.761200  1
  H  H318  1  0.432200  0.917900  0.238800  1
  H  H319  1  0.932200  0.582100  0.261200  1
  H  H320  1  0.932200  0.917900  0.738800  1
  H  H321  1  0.375400  0.419600  0.213400  1
  H  H322  1  0.375400  0.080400  0.786600  1
  H  H323  1  0.875400  0.419600  0.713400  1
  H  H324  1  0.875400  0.080400  0.286600  1
  H  H325  1  0.624600  0.580400  0.786600  1
  H  H326  1  0.624600  0.919600  0.213400  1
  H  H327  1  0.124600  0.580400  0.286600  1
  H  H328  1  0.124600  0.919600  0.713400  1
  H  H329  1  0.193000  0.413700  0.242700  1
  H  H330  1  0.193000  0.086300  0.757300  1
  H  H331  1  0.693000  0.413700  0.742700  1
  H  H332  1  0.693000  0.086300  0.257300  1
  H  H333  1  0.807000  0.586300  0.757300  1
  H  H334  1  0.807000  0.913700  0.242700  1
  H  H335  1  0.307000  0.586300  0.257300  1
  H  H336  1  0.307000  0.913700  0.742700  1
  H  H337  1  0.102700  0.387900  0.296700  1
  H  H338  1  0.102700  0.112100  0.703300  1
  H  H339  1  0.602700  0.387900  0.796700  1
  H  H340  1  0.602700  0.112100  0.203300  1
  H  H341  1  0.897300  0.612100  0.703300  1
  H  H342  1  0.897300  0.887900  0.296700  1
  H  H343  1  0.397300  0.612100  0.203300  1
  H  H344  1  0.397300  0.887900  0.796700  1
  H  H345  1  0.141700  0.437300  0.315900  1
  H  H346  1  0.141700  0.062700  0.684100  1
  H  H347  1  0.641700  0.437300  0.815900  1
  H  H348  1  0.641700  0.062700  0.184100  1
  H  H349  1  0.858300  0.562700  0.684100  1
  H  H350  1  0.858300  0.937300  0.315900  1
  H  H351  1  0.358300  0.562700  0.184100  1
  H  H352  1  0.358300  0.937300  0.815900  1
  H  H353  1  0.177200  0.436400  0.253400  1
  H  H354  1  0.177200  0.063600  0.746600  1
  H  H355  1  0.677200  0.436400  0.753400  1
  H  H356  1  0.677200  0.063600  0.246600  1
  H  H357  1  0.822800  0.563600  0.746600  1
  H  H358  1  0.822800  0.936400  0.253400  1
  H  H359  1  0.322800  0.563600  0.246600  1
  H  H360  1  0.322800  0.936400  0.753400  1
  H  H361  1  0.347800  0.456100  0.223400  1
  H  H362  1  0.347800  0.043900  0.776600  1
  H  H363  1  0.847800  0.456100  0.723400  1
  H  H364  1  0.847800  0.043900  0.276600  1
  H  H365  1  0.652200  0.543900  0.776600  1
  H  H366  1  0.652200  0.956100  0.223400  1
  H  H367  1  0.152200  0.543900  0.276600  1
  H  H368  1  0.152200  0.956100  0.723400  1
  H  H369  1  0.548000  0.452000  0.244200  1
  H  H370  1  0.548000  0.048000  0.755800  1
  H  H371  1  0.048000  0.452000  0.744200  1
  H  H372  1  0.048000  0.048000  0.255800  1
  H  H373  1  0.452000  0.548000  0.755800  1
  H  H374  1  0.452000  0.952000  0.244200  1
  H  H375  1  0.952000  0.548000  0.255800  1
  H  H376  1  0.952000  0.952000  0.744200  1
  H  H377  1  0.577800  0.428200  0.294800  1
  H  H378  1  0.577800  0.071800  0.705200  1
  H  H379  1  0.077800  0.428200  0.794800  1
  H  H380  1  0.077800  0.071800  0.205200  1
  H  H381  1  0.422200  0.571800  0.705200  1
  H  H382  1  0.422200  0.928200  0.294800  1
  H  H383  1  0.922200  0.571800  0.205200  1
  H  H384  1  0.922200  0.928200  0.794800  1
  H  H385  1  0.122200  0.383500  0.293200  1
  H  H386  1  0.122200  0.116500  0.706800  1
  H  H387  1  0.622200  0.383500  0.793200  1
  H  H388  1  0.622200  0.116500  0.206800  1
  H  H389  1  0.877800  0.616500  0.706800  1
  H  H390  1  0.877800  0.883500  0.293200  1
  H  H391  1  0.377800  0.616500  0.206800  1
  H  H392  1  0.377800  0.883500  0.793200  1
  H  H393  1  0.118900  0.432700  0.315600  1
  H  H394  1  0.118900  0.067300  0.684400  1
  H  H395  1  0.618900  0.432700  0.815600  1
  H  H396  1  0.618900  0.067300  0.184400  1
  H  H397  1  0.881100  0.567300  0.684400  1
  H  H398  1  0.881100  0.932700  0.315600  1
  H  H399  1  0.381100  0.567300  0.184400  1
  H  H400  1  0.381100  0.932700  0.815600  1
  C  C401  1  0.187400  0.301980  0.353700  1
  C  C402  1  0.187400  0.198020  0.646300  1
  C  C403  1  0.687400  0.301980  0.853700  1
  C  C404  1  0.687400  0.198020  0.146300  1
  C  C405  1  0.812600  0.698020  0.646300  1
  C  C406  1  0.812600  0.801980  0.353700  1
  C  C407  1  0.312600  0.698020  0.146300  1
  C  C408  1  0.312600  0.801980  0.853700  1
  C  C409  1  0.190000  0.253760  0.346460  1
  C  C410  1  0.190000  0.246240  0.653540  1
  C  C411  1  0.690000  0.253760  0.846460  1
  C  C412  1  0.690000  0.246240  0.153540  1
  C  C413  1  0.810000  0.746240  0.653540  1
  C  C414  1  0.810000  0.753760  0.346460  1
  C  C415  1  0.310000  0.746240  0.153540  1
  C  C416  1  0.310000  0.753760  0.846460  1
  C  C417  1  0.516900  0.263710  0.357690  1
  C  C418  1  0.516900  0.236290  0.642310  1
  C  C419  1  0.016900  0.263710  0.857690  1
  C  C420  1  0.016900  0.236290  0.142310  1
  C  C421  1  0.483100  0.736290  0.642310  1
  C  C422  1  0.483100  0.763710  0.357690  1
  C  C423  1  0.983100  0.736290  0.142310  1
  C  C424  1  0.983100  0.763710  0.857690  1
  C  C425  1  0.654700  0.411890  0.360540  1
  C  C426  1  0.654700  0.088110  0.639460  1
  C  C427  1  0.154700  0.411890  0.860540  1
  C  C428  1  0.154700  0.088110  0.139460  1
  C  C429  1  0.345300  0.588110  0.639460  1
  C  C430  1  0.345300  0.911890  0.360540  1
  C  C431  1  0.845300  0.588110  0.139460  1
  C  C432  1  0.845300  0.911890  0.860540  1
  C  C433  1  0.555200  0.483160  0.371830  1
  C  C434  1  0.555200  0.016840  0.628170  1
  C  C435  1  0.055200  0.483160  0.871830  1
  C  C436  1  0.055200  0.016840  0.128170  1
  C  C437  1  0.444800  0.516840  0.628170  1
  C  C438  1  0.444800  0.983160  0.371830  1
  C  C439  1  0.944800  0.516840  0.128170  1
  C  C440  1  0.944800  0.983160  0.871830  1
  C  C441  1  0.311800  0.253590  0.446140  1
  C  C442  1  0.311800  0.246410  0.553860  1
  C  C443  1  0.811800  0.253590  0.946140  1
  C  C444  1  0.811800  0.246410  0.053860  1
  C  C445  1  0.688200  0.746410  0.553860  1
  C  C446  1  0.688200  0.753590  0.446140  1
  C  C447  1  0.188200  0.746410  0.053860  1
  C  C448  1  0.188200  0.753590  0.946140  1
  C  C449  1  0.530600  0.277210  0.302250  1
  C  C450  1  0.530600  0.222790  0.697750  1
  C  C451  1  0.030600  0.277210  0.802250  1
  C  C452  1  0.030600  0.222790  0.197750  1
  C  C453  1  0.469400  0.722790  0.697750  1
  C  C454  1  0.469400  0.777210  0.302250  1
  C  C455  1  0.969400  0.722790  0.197750  1
  C  C456  1  0.969400  0.777210  0.802250  1
  C  C457  1  0.528000  0.294270  0.334420  1
  C  C458  1  0.528000  0.205730  0.665580  1
  C  C459  1  0.028000  0.294270  0.834420  1
  C  C460  1  0.028000  0.205730  0.165580  1
  C  C461  1  0.472000  0.705730  0.665580  1
  C  C462  1  0.472000  0.794270  0.334420  1
  C  C463  1  0.972000  0.705730  0.165580  1
  C  C464  1  0.972000  0.794270  0.834420  1
  C  C465  1  0.320500  0.047580  0.310890  1
  C  C466  1  0.320500  0.452420  0.689110  1
  C  C467  1  0.820500  0.047580  0.810890  1
  C  C468  1  0.820500  0.452420  0.189110  1
  C  C469  1  0.679500  0.952420  0.689110  1
  C  C470  1  0.679500  0.547580  0.310890  1
  C  C471  1  0.179500  0.952420  0.189110  1
  C  C472  1  0.179500  0.547580  0.810890  1
  C  C473  1  0.533000  0.133810  0.359790  1
  C  C474  1  0.533000  0.366190  0.640210  1
  C  C475  1  0.033000  0.133810  0.859790  1
  C  C476  1  0.033000  0.366190  0.140210  1
  C  C477  1  0.467000  0.866190  0.640210  1
  C  C478  1  0.467000  0.633810  0.359790  1
  C  C479  1  0.967000  0.866190  0.140210  1
  C  C480  1  0.967000  0.633810  0.859790  1
  C  C481  1  0.578900  0.199850  0.401590  1
  C  C482  1  0.578900  0.300150  0.598410  1
  C  C483  1  0.078900  0.199850  0.901590  1
  C  C484  1  0.078900  0.300150  0.098410  1
  C  C485  1  0.421100  0.800150  0.598410  1
  C  C486  1  0.421100  0.699850  0.401590  1
  C  C487  1  0.921100  0.800150  0.098410  1
  C  C488  1  0.921100  0.699850  0.901590  1
  C  C489  1  0.420400  0.108850  0.344960  1
  C  C490  1  0.420400  0.391150  0.655040  1
  C  C491  1  0.920400  0.108850  0.844960  1
  C  C492  1  0.920400  0.391150  0.155040  1
  C  C493  1  0.579600  0.891150  0.655040  1
  C  C494  1  0.579600  0.608850  0.344960  1
  C  C495  1  0.079600  0.891150  0.155040  1
  C  C496  1  0.079600  0.608850  0.844960  1
  C  C497  1  0.504800  0.230270  0.426470  1
  C  C498  1  0.504800  0.269730  0.573530  1
  C  C499  1  0.004800  0.230270  0.926470  1
  C  C500  1  0.004800  0.269730  0.073530  1
  C  C501  1  0.495200  0.769730  0.573530  1
  C  C502  1  0.495200  0.730270  0.426470  1
  C  C503  1  0.995200  0.769730  0.073530  1
  C  C504  1  0.995200  0.730270  0.926470  1
  C  C505  1  0.075400  0.223330  0.386040  1
  C  C506  1  0.075400  0.276670  0.613960  1
  C  C507  1  0.575400  0.223330  0.886040  1
  C  C508  1  0.575400  0.276670  0.113960  1
  C  C509  1  0.924600  0.776670  0.613960  1
  C  C510  1  0.924600  0.723330  0.386040  1
  C  C511  1  0.424600  0.776670  0.113960  1
  C  C512  1  0.424600  0.723330  0.886040  1
  C  C513  1  0.204800  0.330130  0.329320  1
  C  C514  1  0.204800  0.169870  0.670680  1
  C  C515  1  0.704800  0.330130  0.829320  1
  C  C516  1  0.704800  0.169870  0.170680  1
  C  C517  1  0.795200  0.669870  0.670680  1
  C  C518  1  0.795200  0.830130  0.329320  1
  C  C519  1  0.295200  0.669870  0.170680  1
  C  C520  1  0.295200  0.830130  0.829320  1
  C  C521  1  0.641400  0.361130  0.350650  1
  C  C522  1  0.641400  0.138870  0.649350  1
  C  C523  1  0.141400  0.361130  0.850650  1
  C  C524  1  0.141400  0.138870  0.149350  1
  C  C525  1  0.358600  0.638870  0.649350  1
  C  C526  1  0.358600  0.861130  0.350650  1
  C  C527  1  0.858600  0.638870  0.149350  1
  C  C528  1  0.858600  0.861130  0.850650  1
  C  C529  1  0.561300  0.260860  0.450020  1
  C  C530  1  0.561300  0.239140  0.549980  1
  C  C531  1  0.061300  0.260860  0.950020  1
  C  C532  1  0.061300  0.239140  0.049980  1
  C  C533  1  0.438700  0.739140  0.549980  1
  C  C534  1  0.438700  0.760860  0.450020  1
  C  C535  1  0.938700  0.739140  0.049980  1
  C  C536  1  0.938700  0.760860  0.950020  1
  C  C537  1  0.206300  0.102840  0.345440  1
  C  C538  1  0.206300  0.397160  0.654560  1
  C  C539  1  0.706300  0.102840  0.845440  1
  C  C540  1  0.706300  0.397160  0.154560  1
  C  C541  1  0.793700  0.897160  0.654560  1
  C  C542  1  0.793700  0.602840  0.345440  1
  C  C543  1  0.293700  0.897160  0.154560  1
  C  C544  1  0.293700  0.602840  0.845440  1
  C  C545  1  0.215800  0.400050  0.395740  1
  C  C546  1  0.215800  0.099950  0.604260  1
  C  C547  1  0.715800  0.400050  0.895740  1
  C  C548  1  0.715800  0.099950  0.104260  1
  C  C549  1  0.784200  0.599950  0.604260  1
  C  C550  1  0.784200  0.900050  0.395740  1
  C  C551  1  0.284200  0.599950  0.104260  1
  C  C552  1  0.284200  0.900050  0.895740  1
  C  C553  1  0.508400  0.215330  0.348060  1
  C  C554  1  0.508400  0.284670  0.651940  1
  C  C555  1  0.008400  0.215330  0.848060  1
  C  C556  1  0.008400  0.284670  0.151940  1
  C  C557  1  0.491600  0.784670  0.651940  1
  C  C558  1  0.491600  0.715330  0.348060  1
  C  C559  1  0.991600  0.784670  0.151940  1
  C  C560  1  0.991600  0.715330  0.848060  1
  C  C561  1  0.940500  0.153660  0.447460  1
  C  C562  1  0.940500  0.346340  0.552540  1
  C  C563  1  0.440500  0.153660  0.947460  1
  C  C564  1  0.440500  0.346340  0.052540  1
  C  C565  1  0.059500  0.846340  0.552540  1
  C  C566  1  0.059500  0.653660  0.447460  1
  C  C567  1  0.559500  0.846340  0.052540  1
  C  C568  1  0.559500  0.653660  0.947460  1
  C  C569  1  0.509000  0.198730  0.315570  1
  C  C570  1  0.509000  0.301270  0.684430  1
  C  C571  1  0.009000  0.198730  0.815570  1
  C  C572  1  0.009000  0.301270  0.184430  1
  C  C573  1  0.491000  0.801270  0.684430  1
  C  C574  1  0.491000  0.698730  0.315570  1
  C  C575  1  0.991000  0.801270  0.184430  1
  C  C576  1  0.991000  0.698730  0.815570  1
  C  C577  1  0.220100  0.308880  0.297880  1
  C  C578  1  0.220100  0.191120  0.702120  1
  C  C579  1  0.720100  0.308880  0.797880  1
  C  C580  1  0.720100  0.191120  0.202120  1
  C  C581  1  0.779900  0.691120  0.702120  1
  C  C582  1  0.779900  0.808880  0.297880  1
  C  C583  1  0.279900  0.691120  0.202120  1
  C  C584  1  0.279900  0.808880  0.797880  1
  C  C585  1  0.772100  0.479030  0.381380  1
  C  C586  1  0.772100  0.020970  0.618620  1
  C  C587  1  0.272100  0.479030  0.881380  1
  C  C588  1  0.272100  0.020970  0.118620  1
  C  C589  1  0.227900  0.520970  0.618620  1
  C  C590  1  0.227900  0.979030  0.381380  1
  C  C591  1  0.727900  0.520970  0.118620  1
  C  C592  1  0.727900  0.979030  0.881380  1
  C  C593  1  0.521100  0.229510  0.293100  1
  C  C594  1  0.521100  0.270490  0.706900  1
  C  C595  1  0.021100  0.229510  0.793100  1
  C  C596  1  0.021100  0.270490  0.206900  1
  C  C597  1  0.478900  0.770490  0.706900  1
  C  C598  1  0.478900  0.729510  0.293100  1
  C  C599  1  0.978900  0.770490  0.206900  1
  C  C600  1  0.978900  0.729510  0.793100  1
  C  C601  1  0.362300  0.285260  0.469650  1
  C  C602  1  0.362300  0.214740  0.530350  1
  C  C603  1  0.862300  0.285260  0.969650  1
  C  C604  1  0.862300  0.214740  0.030350  1
  C  C605  1  0.637700  0.714740  0.530350  1
  C  C606  1  0.637700  0.785260  0.469650  1
  C  C607  1  0.137700  0.714740  0.030350  1
  C  C608  1  0.137700  0.785260  0.969650  1
  C  C609  1  0.368600  0.401040  0.447890  1
  C  C610  1  0.368600  0.098960  0.552110  1
  C  C611  1  0.868600  0.401040  0.947890  1
  C  C612  1  0.868600  0.098960  0.052110  1
  C  C613  1  0.631400  0.598960  0.552110  1
  C  C614  1  0.631400  0.901040  0.447890  1
  C  C615  1  0.131400  0.598960  0.052110  1
  C  C616  1  0.131400  0.901040  0.947890  1
  C  C617  1  0.151600  0.133070  0.435660  1
  C  C618  1  0.151600  0.366930  0.564340  1
  C  C619  1  0.651600  0.133070  0.935660  1
  C  C620  1  0.651600  0.366930  0.064340  1
  C  C621  1  0.848400  0.866930  0.564340  1
  C  C622  1  0.848400  0.633070  0.435660  1
  C  C623  1  0.348400  0.866930  0.064340  1
  C  C624  1  0.348400  0.633070  0.935660  1
  C  C625  1  0.060200  0.190530  0.409960  1
  C  C626  1  0.060200  0.309470  0.590040  1
  C  C627  1  0.560200  0.190530  0.909960  1
  C  C628  1  0.560200  0.309470  0.090040  1
  C  C629  1  0.939800  0.809470  0.590040  1
  C  C630  1  0.939800  0.690530  0.409960  1
  C  C631  1  0.439800  0.809470  0.090040  1
  C  C632  1  0.439800  0.690530  0.909960  1
  C  C633  1  0.490900  0.288670  0.471630  1
  C  C634  1  0.490900  0.211330  0.528370  1
  C  C635  1  0.990900  0.288670  0.971630  1
  C  C636  1  0.990900  0.211330  0.028370  1
  C  C637  1  0.509100  0.711330  0.528370  1
  C  C638  1  0.509100  0.788670  0.471630  1
  C  C639  1  0.009100  0.711330  0.028370  1
  C  C640  1  0.009100  0.788670  0.971630  1
  C  C641  1  0.137200  0.398980  0.365820  1
  C  C642  1  0.137200  0.101020  0.634180  1
  C  C643  1  0.637200  0.398980  0.865820  1
  C  C644  1  0.637200  0.101020  0.134180  1
  C  C645  1  0.862800  0.601020  0.634180  1
  C  C646  1  0.862800  0.898980  0.365820  1
  C  C647  1  0.362800  0.601020  0.134180  1
  C  C648  1  0.362800  0.898980  0.865820  1
  C  C649  1  0.221500  0.260770  0.291210  1
  C  C650  1  0.221500  0.239230  0.708790  1
  C  C651  1  0.721500  0.260770  0.791210  1
  C  C652  1  0.721500  0.239230  0.208790  1
  C  C653  1  0.778500  0.739230  0.708790  1
  C  C654  1  0.778500  0.760770  0.291210  1
  C  C655  1  0.278500  0.739230  0.208790  1
  C  C656  1  0.278500  0.760770  0.791210  1
  C  C657  1  0.664000  0.504790  0.382660  1
  C  C658  1  0.664000  0.995210  0.617340  1
  C  C659  1  0.164000  0.504790  0.882660  1
  C  C660  1  0.164000  0.995210  0.117340  1
  C  C661  1  0.336000  0.495210  0.617340  1
  C  C662  1  0.336000  0.004790  0.382660  1
  C  C663  1  0.836000  0.495210  0.117340  1
  C  C664  1  0.836000  0.004790  0.882660  1
  C  C665  1  0.429900  0.070450  0.321680  1
  C  C666  1  0.429900  0.429550  0.678320  1
  C  C667  1  0.929900  0.070450  0.821680  1
  C  C668  1  0.929900  0.429550  0.178320  1
  C  C669  1  0.570100  0.929550  0.678320  1
  C  C670  1  0.570100  0.570450  0.321680  1
  C  C671  1  0.070100  0.929550  0.178320  1
  C  C672  1  0.070100  0.570450  0.821680  1
  C  C673  1  0.208400  0.232260  0.315180  1
  C  C674  1  0.208400  0.267740  0.684820  1
  C  C675  1  0.708400  0.232260  0.815180  1
  C  C676  1  0.708400  0.267740  0.184820  1
  C  C677  1  0.791600  0.767740  0.684820  1
  C  C678  1  0.791600  0.732260  0.315180  1
  C  C679  1  0.291600  0.767740  0.184820  1
  C  C680  1  0.291600  0.732260  0.815180  1
  C  C681  1  0.412900  0.398820  0.417200  1
  C  C682  1  0.412900  0.101180  0.582800  1
  C  C683  1  0.912900  0.398820  0.917200  1
  C  C684  1  0.912900  0.101180  0.082800  1
  C  C685  1  0.587100  0.601180  0.582800  1
  C  C686  1  0.587100  0.898820  0.417200  1
  C  C687  1  0.087100  0.601180  0.082800  1
  C  C688  1  0.087100  0.898820  0.917200  1
  C  C689  1  0.164000  0.402390  0.426190  1
  C  C690  1  0.164000  0.097610  0.573810  1
  C  C691  1  0.664000  0.402390  0.926190  1
  C  C692  1  0.664000  0.097610  0.073810  1
  C  C693  1  0.836000  0.597610  0.573810  1
  C  C694  1  0.836000  0.902390  0.426190  1
  C  C695  1  0.336000  0.597610  0.073810  1
  C  C696  1  0.336000  0.902390  0.926190  1
  C  C697  1  0.766700  0.431240  0.370090  1
  C  C698  1  0.766700  0.068760  0.629910  1
  C  C699  1  0.266700  0.431240  0.870090  1
  C  C700  1  0.266700  0.068760  0.129910  1
  C  C701  1  0.233300  0.568760  0.629910  1
  C  C702  1  0.233300  0.931240  0.370090  1
  C  C703  1  0.733300  0.568760  0.129910  1
  C  C704  1  0.733300  0.931240  0.870090  1
  C  C705  1  0.208900  0.063640  0.322850  1
  C  C706  1  0.208900  0.436360  0.677150  1
  C  C707  1  0.708900  0.063640  0.822850  1
  C  C708  1  0.708900  0.436360  0.177150  1
  C  C709  1  0.791100  0.936360  0.677150  1
  C  C710  1  0.791100  0.563640  0.322850  1
  C  C711  1  0.291100  0.936360  0.177150  1
  C  C712  1  0.291100  0.563640  0.822850  1
  C  C713  1  0.949900  0.186370  0.425850  1
  C  C714  1  0.949900  0.313630  0.574150  1
  C  C715  1  0.449900  0.186370  0.925850  1
  C  C716  1  0.449900  0.313630  0.074150  1
  C  C717  1  0.050100  0.813630  0.574150  1
  C  C718  1  0.050100  0.686370  0.425850  1
  C  C719  1  0.550100  0.813630  0.074150  1
  C  C720  1  0.550100  0.686370  0.925850  1
  C  C721  1  0.243000  0.403100  0.452230  1
  C  C722  1  0.243000  0.096900  0.547770  1
  C  C723  1  0.743000  0.403100  0.952230  1
  C  C724  1  0.743000  0.096900  0.047770  1
  C  C725  1  0.757000  0.596900  0.547770  1
  C  C726  1  0.757000  0.903100  0.452230  1
  C  C727  1  0.257000  0.596900  0.047770  1
  C  C728  1  0.257000  0.903100  0.952230  1
  C  C729  1  0.042400  0.126830  0.452400  1
  C  C730  1  0.042400  0.373170  0.547600  1
  C  C731  1  0.542400  0.126830  0.952400  1
  C  C732  1  0.542400  0.373170  0.047600  1
  C  C733  1  0.957600  0.873170  0.547600  1
  C  C734  1  0.957600  0.626830  0.452400  1
  C  C735  1  0.457600  0.873170  0.047600  1
  C  C736  1  0.457600  0.626830  0.952400  1
  C  C737  1  0.499800  0.411000  0.283220  1
  C  C738  1  0.499800  0.089000  0.716780  1
  C  C739  1  0.999800  0.411000  0.783220  1
  C  C740  1  0.999800  0.089000  0.216780  1
  C  C741  1  0.500200  0.589000  0.716780  1
  C  C742  1  0.500200  0.911000  0.283220  1
  C  C743  1  0.000200  0.589000  0.216780  1
  C  C744  1  0.000200  0.911000  0.783220  1
  C  C745  1  0.493800  0.415500  0.250730  1
  C  C746  1  0.493800  0.084500  0.749270  1
  C  C747  1  0.993800  0.415500  0.750730  1
  C  C748  1  0.993800  0.084500  0.249270  1
  C  C749  1  0.506200  0.584500  0.749270  1
  C  C750  1  0.506200  0.915500  0.250730  1
  C  C751  1  0.006200  0.584500  0.249270  1
  C  C752  1  0.006200  0.915500  0.750730  1
  C  C753  1  0.379500  0.416500  0.235640  1
  C  C754  1  0.379500  0.083500  0.764360  1
  C  C755  1  0.879500  0.416500  0.735640  1
  C  C756  1  0.879500  0.083500  0.264360  1
  C  C757  1  0.620500  0.583500  0.764360  1
  C  C758  1  0.620500  0.916500  0.235640  1
  C  C759  1  0.120500  0.583500  0.264360  1
  C  C760  1  0.120500  0.916500  0.735640  1
  C  C761  1  0.271100  0.413000  0.253030  1
  C  C762  1  0.271100  0.087000  0.746970  1
  C  C763  1  0.771100  0.413000  0.753030  1
  C  C764  1  0.771100  0.087000  0.246970  1
  C  C765  1  0.728900  0.587000  0.746970  1
  C  C766  1  0.728900  0.913000  0.253030  1
  C  C767  1  0.228900  0.587000  0.246970  1
  C  C768  1  0.228900  0.913000  0.753030  1
  C  C769  1  0.277100  0.408600  0.285520  1
  C  C770  1  0.277100  0.091400  0.714480  1
  C  C771  1  0.777100  0.408600  0.785520  1
  C  C772  1  0.777100  0.091400  0.214480  1
  C  C773  1  0.722900  0.591400  0.714480  1
  C  C774  1  0.722900  0.908600  0.285520  1
  C  C775  1  0.222900  0.591400  0.214480  1
  C  C776  1  0.222900  0.908600  0.785520  1
  C  C777  1  0.147000  0.560900  0.381890  1
  C  C778  1  0.147000  0.939100  0.618110  1
  C  C779  1  0.647000  0.560900  0.881890  1
  C  C780  1  0.647000  0.939100  0.118110  1
  C  C781  1  0.853000  0.439100  0.618110  1
  C  C782  1  0.853000  0.060900  0.381890  1
  C  C783  1  0.353000  0.439100  0.118110  1
  C  C784  1  0.353000  0.060900  0.881890  1
  C  C785  1  0.902300  0.327600  0.455300  1
  C  C786  1  0.902300  0.172400  0.544700  1
  C  C787  1  0.402300  0.327600  0.955300  1
  C  C788  1  0.402300  0.172400  0.044700  1
  C  C789  1  0.097700  0.672400  0.544700  1
  C  C790  1  0.097700  0.827600  0.455300  1
  C  C791  1  0.597700  0.672400  0.044700  1
  C  C792  1  0.597700  0.827600  0.955300  1
  C  C793  1  0.531100  0.049520  0.460590  1
  C  C794  1  0.531100  0.450480  0.539410  1
  C  C795  1  0.031100  0.049520  0.960590  1
  C  C796  1  0.031100  0.450480  0.039410  1
  C  C797  1  0.468900  0.950480  0.539410  1
  C  C798  1  0.468900  0.549520  0.460590  1
  C  C799  1  0.968900  0.950480  0.039410  1
  C  C800  1  0.968900  0.549520  0.960590  1
  C  C801  1  0.862300  0.427730  0.273250  1
  C  C802  1  0.862300  0.072270  0.726750  1
  C  C803  1  0.362300  0.427730  0.773250  1
  C  C804  1  0.362300  0.072270  0.226750  1
  C  C805  1  0.137700  0.572270  0.726750  1
  C  C806  1  0.137700  0.927730  0.273250  1
  C  C807  1  0.637700  0.572270  0.226750  1
  C  C808  1  0.637700  0.927730  0.773250  1
  C  C809  1  0.276200  0.420600  0.291900  1
  C  C810  1  0.276200  0.079400  0.708100  1
  C  C811  1  0.776200  0.420600  0.791900  1
  C  C812  1  0.776200  0.079400  0.208100  1
  C  C813  1  0.723800  0.579400  0.708100  1
  C  C814  1  0.723800  0.920600  0.291900  1
  C  C815  1  0.223800  0.579400  0.208100  1
  C  C816  1  0.223800  0.920600  0.791900  1
  C  C817  1  0.258600  0.434700  0.261800  1
  C  C818  1  0.258600  0.065300  0.738200  1
  C  C819  1  0.758600  0.434700  0.761800  1
  C  C820  1  0.758600  0.065300  0.238200  1
  C  C821  1  0.741400  0.565300  0.738200  1
  C  C822  1  0.741400  0.934700  0.261800  1
  C  C823  1  0.241400  0.565300  0.238200  1
  C  C824  1  0.241400  0.934700  0.761800  1
  C  C825  1  0.359800  0.446400  0.244000  1
  C  C826  1  0.359800  0.053600  0.756000  1
  C  C827  1  0.859800  0.446400  0.744000  1
  C  C828  1  0.859800  0.053600  0.256000  1
  C  C829  1  0.640200  0.553600  0.756000  1
  C  C830  1  0.640200  0.946400  0.244000  1
  C  C831  1  0.140200  0.553600  0.256000  1
  C  C832  1  0.140200  0.946400  0.744000  1
  C  C833  1  0.478800  0.444000  0.256300  1
  C  C834  1  0.478800  0.056000  0.743700  1
  C  C835  1  0.978800  0.444000  0.756300  1
  C  C836  1  0.978800  0.056000  0.243700  1
  C  C837  1  0.521200  0.556000  0.743700  1
  C  C838  1  0.521200  0.944000  0.256300  1
  C  C839  1  0.021200  0.556000  0.243700  1
  C  C840  1  0.021200  0.944000  0.756300  1
  C  C841  1  0.496500  0.429900  0.286400  1
  C  C842  1  0.496500  0.070100  0.713600  1
  C  C843  1  0.996500  0.429900  0.786400  1
  C  C844  1  0.996500  0.070100  0.213600  1
  C  C845  1  0.503500  0.570100  0.713600  1
  C  C846  1  0.503500  0.929900  0.286400  1
  C  C847  1  0.003500  0.570100  0.213600  1
  C  C848  1  0.003500  0.929900  0.786400  1
  C  C849  1  0.820200  0.358200  0.452400  1
  C  C850  1  0.820200  0.141800  0.547600  1
  C  C851  1  0.320200  0.358200  0.952400  1
  C  C852  1  0.320200  0.141800  0.047600  1
  C  C853  1  0.179800  0.641800  0.547600  1
  C  C854  1  0.179800  0.858200  0.452400  1
  C  C855  1  0.679800  0.641800  0.047600  1
  C  C856  1  0.679800  0.858200  0.952400  1
  C  C857  1  0.171700  0.405350  0.308220  1.0
  C  C858  1  0.171700  0.094650  0.691780  1.0
  C  C859  1  0.671700  0.405350  0.808220  1.0
  C  C860  1  0.671700  0.094650  0.191780  1.0
  C  C861  1  0.828300  0.594650  0.691780  1.0
  C  C862  1  0.828300  0.905350  0.308220  1.0
  C  C863  1  0.328300  0.594650  0.191780  1.0
  C  C864  1  0.328300  0.905350  0.808220  1.0
  S  S865  1  0.200260  0.528450  0.345030  1
  S  S866  1  0.200260  0.971550  0.654970  1
  S  S867  1  0.700260  0.528450  0.845030  1
  S  S868  1  0.700260  0.971550  0.154970  1
  S  S869  1  0.799740  0.471550  0.654970  1
  S  S870  1  0.799740  0.028450  0.345030  1
  S  S871  1  0.299740  0.471550  0.154970  1
  S  S872  1  0.299740  0.028450  0.845030  1
  S  S873  1  0.823970  0.327230  0.417020  1
  S  S874  1  0.823970  0.172770  0.582980  1
  S  S875  1  0.323970  0.327230  0.917020  1
  S  S876  1  0.323970  0.172770  0.082980  1
  S  S877  1  0.176030  0.672770  0.582980  1
  S  S878  1  0.176030  0.827230  0.417020  1
  S  S879  1  0.676030  0.672770  0.082980  1
  S  S880  1  0.676030  0.827230  0.917020  1
  S  S881  1  0.488210  0.109500  0.455950  1
  S  S882  1  0.488210  0.390500  0.544050  1
  S  S883  1  0.988210  0.109500  0.955950  1
  S  S884  1  0.988210  0.390500  0.044050  1
  S  S885  1  0.511790  0.890500  0.544050  1
  S  S886  1  0.511790  0.609500  0.455950  1
  S  S887  1  0.011790  0.890500  0.044050  1
  S  S888  1  0.011790  0.609500  0.955950  1
  S  S889  1  0.837000  0.367400  0.263020  1
  S  S890  1  0.837000  0.132600  0.736980  1
  S  S891  1  0.337000  0.367400  0.763020  1
  S  S892  1  0.337000  0.132600  0.236980  1
  S  S893  1  0.163000  0.632600  0.736980  1
  S  S894  1  0.163000  0.867400  0.263020  1
  S  S895  1  0.663000  0.632600  0.236980  1
  S  S896  1  0.663000  0.867400  0.763020  1
  S  S897  1  0.894800  0.317650  0.421830  1
  S  S898  1  0.894800  0.182350  0.578170  1
  S  S899  1  0.394800  0.317650  0.921830  1
  S  S900  1  0.394800  0.182350  0.078170  1
  S  S901  1  0.105200  0.682350  0.578170  1
  S  S902  1  0.105200  0.817650  0.421830  1
  S  S903  1  0.605200  0.682350  0.078170  1
  S  S904  1  0.605200  0.817650  0.921830  1
  N  N905  1  0.380800  0.226200  0.424760  1
  N  N906  1  0.380800  0.273800  0.575240  1
  N  N907  1  0.880800  0.226200  0.924760  1
  N  N908  1  0.880800  0.273800  0.075240  1
  N  N909  1  0.619200  0.773800  0.575240  1
  N  N910  1  0.619200  0.726200  0.424760  1
  N  N911  1  0.119200  0.773800  0.075240  1
  N  N912  1  0.119200  0.726200  0.924760  1
  N  N913  1  0.176300  0.223720  0.370730  1
  N  N914  1  0.176300  0.276280  0.629270  1
  N  N915  1  0.676300  0.223720  0.870730  1
  N  N916  1  0.676300  0.276280  0.129270  1
  N  N917  1  0.823700  0.776280  0.629270  1
  N  N918  1  0.823700  0.723720  0.370730  1
  N  N919  1  0.323700  0.776280  0.129270  1
  N  N920  1  0.323700  0.723720  0.870730  1
  N  N921  1  0.549500  0.437230  0.360880  1
  N  N922  1  0.549500  0.062770  0.639120  1
  N  N923  1  0.049500  0.437230  0.860880  1
  N  N924  1  0.049500  0.062770  0.139120  1
  N  N925  1  0.450500  0.562770  0.639120  1
  N  N926  1  0.450500  0.937230  0.360880  1
  N  N927  1  0.950500  0.562770  0.139120  1
  N  N928  1  0.950500  0.937230  0.860880  1
  N  N929  1  0.535400  0.343700  0.344280  1
  N  N930  1  0.535400  0.156300  0.655720  1
  N  N931  1  0.035400  0.343700  0.844280  1
  N  N932  1  0.035400  0.156300  0.155720  1
  N  N933  1  0.464600  0.656300  0.655720  1
  N  N934  1  0.464600  0.843700  0.344280  1
  N  N935  1  0.964600  0.656300  0.155720  1
  N  N936  1  0.964600  0.843700  0.844280  1
  N  N937  1  0.337700  0.398910  0.391730  1
  N  N938  1  0.337700  0.101090  0.608270  1
  N  N939  1  0.837700  0.398910  0.891730  1
  N  N940  1  0.837700  0.101090  0.108270  1
  N  N941  1  0.662300  0.601090  0.608270  1
  N  N942  1  0.662300  0.898910  0.391730  1
  N  N943  1  0.162300  0.601090  0.108270  1
  N  N944  1  0.162300  0.898910  0.891730  1
  N  N945  1  0.501600  0.183370  0.372640  1
  N  N946  1  0.501600  0.316630  0.627360  1
  N  N947  1  0.001600  0.183370  0.872640  1
  N  N948  1  0.001600  0.316630  0.127360  1
  N  N949  1  0.498400  0.816630  0.627360  1
  N  N950  1  0.498400  0.683370  0.372640  1
  N  N951  1  0.998400  0.816630  0.127360  1
  N  N952  1  0.998400  0.683370  0.872640  1
  N  N953  1  0.310400  0.124620  0.356610  1
  N  N954  1  0.310400  0.375380  0.643390  1
  N  N955  1  0.810400  0.124620  0.856610  1
  N  N956  1  0.810400  0.375380  0.143390  1
  N  N957  1  0.689600  0.875380  0.643390  1
  N  N958  1  0.689600  0.624620  0.356610  1
  N  N959  1  0.189600  0.875380  0.143390  1
  N  N960  1  0.189600  0.624620  0.856610  1
  N  N961  1  0.160800  0.163920  0.414840  1
  N  N962  1  0.160800  0.336080  0.585160  1
  N  N963  1  0.660800  0.163920  0.914840  1
  N  N964  1  0.660800  0.336080  0.085160  1
  N  N965  1  0.839200  0.836080  0.585160  1
  N  N966  1  0.839200  0.663920  0.414840  1
  N  N967  1  0.339200  0.836080  0.085160  1
  N  N968  1  0.339200  0.663920  0.914840  1
  N  N969  1  0.208400  0.381170  0.336550  1
  N  N970  1  0.208400  0.118830  0.663450  1
  N  N971  1  0.708400  0.381170  0.836550  1
  N  N972  1  0.708400  0.118830  0.163450  1
  N  N973  1  0.791600  0.618830  0.663450  1
  N  N974  1  0.791600  0.881170  0.336550  1
  N  N975  1  0.291600  0.618830  0.163450  1
  N  N976  1  0.291600  0.881170  0.836550  1
  N  N977  1  0.391400  0.407600  0.300620  1
  N  N978  1  0.391400  0.092400  0.699380  1
  N  N979  1  0.891400  0.407600  0.800620  1
  N  N980  1  0.891400  0.092400  0.199380  1
  N  N981  1  0.608600  0.592400  0.699380  1
  N  N982  1  0.608600  0.907600  0.300620  1
  N  N983  1  0.108600  0.592400  0.199380  1
  N  N984  1  0.108600  0.907600  0.800620  1
  N  N985  1  0.395200  0.418200  0.304200  1
  N  N986  1  0.395200  0.081800  0.695800  1
  N  N987  1  0.895200  0.418200  0.804200  1
  N  N988  1  0.895200  0.081800  0.195800  1
  N  N989  1  0.604800  0.581800  0.695800  1
  N  N990  1  0.604800  0.918200  0.304200  1
  N  N991  1  0.104800  0.581800  0.195800  1
  N  N992  1  0.104800  0.918200  0.804200  1
  O  O993  1  0.274100  0.491740  0.355990  1
  O  O994  1  0.274100  0.008260  0.644010  1
  O  O995  1  0.774100  0.491740  0.855990  1
  O  O996  1  0.774100  0.008260  0.144010  1
  O  O997  1  0.725900  0.508260  0.644010  1
  O  O998  1  0.725900  0.991740  0.355990  1
  O  O999  1  0.225900  0.508260  0.144010  1
  O  O1000  1  0.225900  0.991740  0.855990  1
  O  O1001  1  0.086100  0.513070  0.329210  1
  O  O1002  1  0.086100  0.986930  0.670790  1
  O  O1003  1  0.586100  0.513070  0.829210  1
  O  O1004  1  0.586100  0.986930  0.170790  1
  O  O1005  1  0.913900  0.486930  0.670790  1
  O  O1006  1  0.913900  0.013070  0.329210  1
  O  O1007  1  0.413900  0.486930  0.170790  1
  O  O1008  1  0.413900  0.013070  0.829210  1
  O  O1009  1  0.270200  0.561280  0.329440  1
  O  O1010  1  0.270200  0.938720  0.670560  1
  O  O1011  1  0.770200  0.561280  0.829440  1
  O  O1012  1  0.770200  0.938720  0.170560  1
  O  O1013  1  0.729800  0.438720  0.670560  1
  O  O1014  1  0.729800  0.061280  0.329440  1
  O  O1015  1  0.229800  0.438720  0.170560  1
  O  O1016  1  0.229800  0.061280  0.829440  1
  O  O1017  1  0.804800  0.279000  0.407200  1
  O  O1018  1  0.804800  0.221000  0.592800  1
  O  O1019  1  0.304800  0.279000  0.907200  1
  O  O1020  1  0.304800  0.221000  0.092800  1
  O  O1021  1  0.195200  0.721000  0.592800  1
  O  O1022  1  0.195200  0.779000  0.407200  1
  O  O1023  1  0.695200  0.721000  0.092800  1
  O  O1024  1  0.695200  0.779000  0.907200  1
  O  O1025  1  0.713300  0.352800  0.422550  1
  O  O1026  1  0.713300  0.147200  0.577450  1
  O  O1027  1  0.213300  0.352800  0.922550  1
  O  O1028  1  0.213300  0.147200  0.077450  1
  O  O1029  1  0.286700  0.647200  0.577450  1
  O  O1030  1  0.286700  0.852800  0.422550  1
  O  O1031  1  0.786700  0.647200  0.077450  1
  O  O1032  1  0.786700  0.852800  0.922550  1
  O  O1033  1  0.916900  0.348030  0.398340  1
  O  O1034  1  0.916900  0.151970  0.601660  1
  O  O1035  1  0.416900  0.348030  0.898340  1
  O  O1036  1  0.416900  0.151970  0.101660  1
  O  O1037  1  0.083100  0.651970  0.601660  1
  O  O1038  1  0.083100  0.848030  0.398340  1
  O  O1039  1  0.583100  0.651970  0.101660  1
  O  O1040  1  0.583100  0.848030  0.898340  1
  O  O1041  1  0.440400  0.106250  0.423540  1
  O  O1042  1  0.440400  0.393750  0.576460  1
  O  O1043  1  0.940400  0.106250  0.923540  1
  O  O1044  1  0.940400  0.393750  0.076460  1
  O  O1045  1  0.559600  0.893750  0.576460  1
  O  O1046  1  0.559600  0.606250  0.423540  1
  O  O1047  1  0.059600  0.893750  0.076460  1
  O  O1048  1  0.059600  0.606250  0.923540  1
  O  O1049  1  0.601400  0.135170  0.461080  1
  O  O1050  1  0.601400  0.364830  0.538920  1
  O  O1051  1  0.101400  0.135170  0.961080  1
  O  O1052  1  0.101400  0.364830  0.038920  1
  O  O1053  1  0.398600  0.864830  0.538920  1
  O  O1054  1  0.398600  0.635170  0.461080  1
  O  O1055  1  0.898600  0.864830  0.038920  1
  O  O1056  1  0.898600  0.635170  0.961080  1
  O  O1057  1  0.395400  0.120480  0.480250  1
  O  O1058  1  0.395400  0.379520  0.519750  1
  O  O1059  1  0.895400  0.120480  0.980250  1
  O  O1060  1  0.895400  0.379520  0.019750  1
  O  O1061  1  0.604600  0.879520  0.519750  1
  O  O1062  1  0.604600  0.620480  0.480250  1
  O  O1063  1  0.104600  0.879520  0.019750  1
  O  O1064  1  0.104600  0.620480  0.980250  1
  O  O1065  1  0.793400  0.362010  0.230640  1
  O  O1066  1  0.793400  0.137990  0.769360  1
  O  O1067  1  0.293400  0.362010  0.730640  1
  O  O1068  1  0.293400  0.137990  0.269360  1
  O  O1069  1  0.206600  0.637990  0.769360  1
  O  O1070  1  0.206600  0.862010  0.230640  1
  O  O1071  1  0.706600  0.637990  0.269360  1
  O  O1072  1  0.706600  0.862010  0.730640  1
  O  O1073  1  0.740900  0.358230  0.285920  1
  O  O1074  1  0.740900  0.141770  0.714080  1
  O  O1075  1  0.240900  0.358230  0.785920  1
  O  O1076  1  0.240900  0.141770  0.214080  1
  O  O1077  1  0.259100  0.641770  0.714080  1
  O  O1078  1  0.259100  0.858230  0.285920  1
  O  O1079  1  0.759100  0.641770  0.214080  1
  O  O1080  1  0.759100  0.858230  0.785920  1
  O  O1081  1  0.951400  0.346570  0.268350  1
  O  O1082  1  0.951400  0.153430  0.731650  1
  O  O1083  1  0.451400  0.346570  0.768350  1
  O  O1084  1  0.451400  0.153430  0.231650  1
  O  O1085  1  0.048600  0.653430  0.731650  1
  O  O1086  1  0.048600  0.846570  0.268350  1
  O  O1087  1  0.548600  0.653430  0.231650  1
  O  O1088  1  0.548600  0.846570  0.768350  1
  O  O1089  1  0.822000  0.277700  0.422400  1
  O  O1090  1  0.822000  0.222300  0.577600  1
  O  O1091  1  0.322000  0.277700  0.922400  1
  O  O1092  1  0.322000  0.222300  0.077600  1
  O  O1093  1  0.178000  0.722300  0.577600  1
  O  O1094  1  0.178000  0.777700  0.422400  1
  O  O1095  1  0.678000  0.722300  0.077600  1
  O  O1096  1  0.678000  0.777700  0.922400  1
  O  O1097  1  0.901000  0.340500  0.394200  1
  O  O1098  1  0.901000  0.159500  0.605800  1
  O  O1099  1  0.401000  0.340500  0.894200  1
  O  O1100  1  0.401000  0.159500  0.105800  1
  O  O1101  1  0.099000  0.659500  0.605800  1
  O  O1102  1  0.099000  0.840500  0.394200  1
  O  O1103  1  0.599000  0.659500  0.105800  1
  O  O1104  1  0.599000  0.840500  0.894200  1
  O  O1105  1  0.015700  0.306600  0.433500  1
  O  O1106  1  0.015700  0.193400  0.566500  1
  O  O1107  1  0.515700  0.306600  0.933500  1
  O  O1108  1  0.515700  0.193400  0.066500  1
  O  O1109  1  0.984300  0.693400  0.566500  1
  O  O1110  1  0.984300  0.806600  0.433500  1
  O  O1111  1  0.484300  0.693400  0.066500  1
  O  O1112  1  0.484300  0.806600  0.933500  1
  F  F1113  1  0.239100  0.582200  0.399220  1
  F  F1114  1  0.239100  0.917800  0.600780  1
  F  F1115  1  0.739100  0.582200  0.899220  1
  F  F1116  1  0.739100  0.917800  0.100780  1
  F  F1117  1  0.760900  0.417800  0.600780  1
  F  F1118  1  0.760900  0.082200  0.399220  1
  F  F1119  1  0.260900  0.417800  0.100780  1
  F  F1120  1  0.260900  0.082200  0.899220  1
  F  F1121  1  0.088700  0.534350  0.400010  1
  F  F1122  1  0.088700  0.965650  0.599990  1
  F  F1123  1  0.588700  0.534350  0.900010  1
  F  F1124  1  0.588700  0.965650  0.099990  1
  F  F1125  1  0.911300  0.465650  0.599990  1
  F  F1126  1  0.911300  0.034350  0.400010  1
  F  F1127  1  0.411300  0.465650  0.099990  1
  F  F1128  1  0.411300  0.034350  0.900010  1
  F  F1129  1  0.070000  0.594830  0.375560  1
  F  F1130  1  0.070000  0.905170  0.624440  1
  F  F1131  1  0.570000  0.594830  0.875560  1
  F  F1132  1  0.570000  0.905170  0.124440  1
  F  F1133  1  0.930000  0.405170  0.624440  1
  F  F1134  1  0.930000  0.094830  0.375560  1
  F  F1135  1  0.430000  0.405170  0.124440  1
  F  F1136  1  0.430000  0.094830  0.875560  1
  F  F1137  1  0.008500  0.303600  0.452010  1
  F  F1138  1  0.008500  0.196400  0.547990  1
  F  F1139  1  0.508500  0.303600  0.952010  1
  F  F1140  1  0.508500  0.196400  0.047990  1
  F  F1141  1  0.991500  0.696400  0.547990  1
  F  F1142  1  0.991500  0.803600  0.452010  1
  F  F1143  1  0.491500  0.696400  0.047990  1
  F  F1144  1  0.491500  0.803600  0.952010  1
  F  F1145  1  0.832800  0.306900  0.476460  1
  F  F1146  1  0.832800  0.193100  0.523540  1
  F  F1147  1  0.332800  0.306900  0.976460  1
  F  F1148  1  0.332800  0.193100  0.023540  1
  F  F1149  1  0.167200  0.693100  0.523540  1
  F  F1150  1  0.167200  0.806900  0.476460  1
  F  F1151  1  0.667200  0.693100  0.023540  1
  F  F1152  1  0.667200  0.806900  0.976460  1
  F  F1153  1  0.926800  0.370740  0.469670  1
  F  F1154  1  0.926800  0.129260  0.530330  1
  F  F1155  1  0.426800  0.370740  0.969670  1
  F  F1156  1  0.426800  0.129260  0.030330  1
  F  F1157  1  0.073200  0.629260  0.530330  1
  F  F1158  1  0.073200  0.870740  0.469670  1
  F  F1159  1  0.573200  0.629260  0.030330  1
  F  F1160  1  0.573200  0.870740  0.969670  1
  F  F1161  1  0.434000  0.021360  0.457030  1
  F  F1162  1  0.434000  0.478640  0.542970  1
  F  F1163  1  0.934000  0.021360  0.957030  1
  F  F1164  1  0.934000  0.478640  0.042970  1
  F  F1165  1  0.566000  0.978640  0.542970  1
  F  F1166  1  0.566000  0.521360  0.457030  1
  F  F1167  1  0.066000  0.978640  0.042970  1
  F  F1168  1  0.066000  0.521360  0.957030  1
  F  F1169  1  0.614000  0.032550  0.438950  1
  F  F1170  1  0.614000  0.467450  0.561050  1
  F  F1171  1  0.114000  0.032550  0.938950  1
  F  F1172  1  0.114000  0.467450  0.061050  1
  F  F1173  1  0.386000  0.967450  0.561050  1
  F  F1174  1  0.386000  0.532550  0.438950  1
  F  F1175  1  0.886000  0.967450  0.061050  1
  F  F1176  1  0.886000  0.532550  0.938950  1
  F  F1177  1  0.577900  0.046860  0.489650  1
  F  F1178  1  0.577900  0.453140  0.510350  1
  F  F1179  1  0.077900  0.046860  0.989650  1
  F  F1180  1  0.077900  0.453140  0.010350  1
  F  F1181  1  0.422100  0.953140  0.510350  1
  F  F1182  1  0.422100  0.546860  0.489650  1
  F  F1183  1  0.922100  0.953140  0.010350  1
  F  F1184  1  0.922100  0.546860  0.989650  1
  F  F1185  1  0.961700  0.443090  0.256300  1
  F  F1186  1  0.961700  0.056910  0.743700  1
  F  F1187  1  0.461700  0.443090  0.756300  1
  F  F1188  1  0.461700  0.056910  0.243700  1
  F  F1189  1  0.038300  0.556910  0.743700  1
  F  F1190  1  0.038300  0.943090  0.256300  1
  F  F1191  1  0.538300  0.556910  0.243700  1
  F  F1192  1  0.538300  0.943090  0.756300  1
  F  F1193  1  0.767400  0.454830  0.265400  1
  F  F1194  1  0.767400  0.045170  0.734600  1
  F  F1195  1  0.267400  0.454830  0.765400  1
  F  F1196  1  0.267400  0.045170  0.234600  1
  F  F1197  1  0.232600  0.545170  0.734600  1
  F  F1198  1  0.232600  0.954830  0.265400  1
  F  F1199  1  0.732600  0.545170  0.234600  1
  F  F1200  1  0.732600  0.954830  0.765400  1
  F  F1201  1  0.889900  0.441280  0.303780  1
  F  F1202  1  0.889900  0.058720  0.696220  1
  F  F1203  1  0.389900  0.441280  0.803780  1
  F  F1204  1  0.389900  0.058720  0.196220  1
  F  F1205  1  0.110100  0.558720  0.696220  1
  F  F1206  1  0.110100  0.941280  0.303780  1
  F  F1207  1  0.610100  0.558720  0.196220  1
  F  F1208  1  0.610100  0.941280  0.803780  1
  F  F1209  1  0.777600  0.339600  0.477400  1
  F  F1210  1  0.777600  0.160400  0.522600  1
  F  F1211  1  0.277600  0.339600  0.977400  1
  F  F1212  1  0.277600  0.160400  0.022600  1
  F  F1213  1  0.222400  0.660400  0.522600  1
  F  F1214  1  0.222400  0.839600  0.477400  1
  F  F1215  1  0.722400  0.660400  0.022600  1
  F  F1216  1  0.722400  0.839600  0.977400  1
  F  F1217  1  0.705200  0.372400  0.444400  1
  F  F1218  1  0.705200  0.127600  0.555600  1
  F  F1219  1  0.205200  0.372400  0.944400  1
  F  F1220  1  0.205200  0.127600  0.055600  1
  F  F1221  1  0.294800  0.627600  0.555600  1
  F  F1222  1  0.294800  0.872400  0.444400  1
  F  F1223  1  0.794800  0.627600  0.055600  1
  F  F1224  1  0.794800  0.872400  0.944400  1
  F  F1225  1  0.884600  0.395800  0.462700  1
  F  F1226  1  0.884600  0.104200  0.537300  1
  F  F1227  1  0.384600  0.395800  0.962700  1
  F  F1228  1  0.384600  0.104200  0.037300  1
  F  F1229  1  0.115400  0.604200  0.537300  1
  F  F1230  1  0.115400  0.895800  0.462700  1
  F  F1231  1  0.615400  0.604200  0.037300  1
  F  F1232  1  0.615400  0.895800  0.962700  1
