
#######################################################################
#
#                 Cambridge Crystallographic Data Centre
#                                CCDC 
#
#######################################################################
#
# If this CIF has been generated from an entry in the Cambridge 
# Structural Database, then it will include bibliographic, chemical, 
# crystal, experimental, refinement or atomic coordinate data resulting 
# from the CCDC's data processing and validation procedures.
#
#######################################################################

data_SERFAY
_chemical_formula_moiety         
'C50 H42 F6 Fe2 N10 O6 S2 2+,2(C1 F3 O3 S1 1-),2(C2 H3 N1)'
_chemical_name_systematic        
"bis(\m~2~-N,N-bis((Pyridin-2-yl)methyl)-N'-((pyridin-2-yl)methylene)benzene-1,3-diamine)-bis(trifluoromethanesulfonato-O)-di-iron(ii) bis(trifluoromethanesulfonate) acetonitrile solvate"
_symmetry_cell_setting           triclinic
_symmetry_space_group_name_H-M   'P -1'
_symmetry_Int_Tables_number      2
_space_group_name_Hall           '-P 1'
loop_
_symmetry_equiv_pos_site_id
_symmetry_equiv_pos_as_xyz
1 x,y,z
2 -x,-y,-z
_cell_length_a                   8.9929(11)
_cell_length_b                   12.9736(18)
_cell_length_c                   14.7541(16)
_cell_angle_alpha                69.606(4)
_cell_angle_beta                 86.687(5)
_cell_angle_gamma                76.892(4)
_cell_volume                     1571
_exptl_crystal_colour            red
_exptl_crystal_description       block
_cell_formula_units_Z            1
loop_
_atom_site_label
_atom_site_type_symbol
_atom_site_fract_x
_atom_site_fract_y
_atom_site_fract_z
Fe1 Fe 0.18702(2) 0.798084(16) 0.746588(14)
S1 S 0.45741(4) 0.84808(3) 0.86824(3)
N1 N 0.10796(14) 0.97891(10) 0.64872(8)
O1 O 0.38444(13) 0.83548(11) 0.78735(9)
F1 F 0.47621(14) 1.04930(9) 0.74989(8)
N2 N -0.33263(14) 1.28519(10) 0.34084(9)
N3 N 0.03412(14) 0.87671(10) 0.83479(9)
F2 F 0.47582(14) 1.03090(10) 0.90069(9)
F3 F 0.26699(12) 1.04408(9) 0.82947(8)
O2 O 0.62137(13) 0.81501(10) 0.86825(9)
N4 N -0.01182(13) 1.26418(10) 0.32276(8)
C1 C -0.03325(16) 0.98627(12) 0.78916(10)
C2 C -0.06197(16) 1.41207(12) 0.16363(10)
C3 C 0.05087(16) 1.12400(11) 0.48511(10)
H1 H -0.0449 1.1557 0.5059
C4 C -0.09025(18) 0.88893(13) 0.98060(11)
H2 H -0.1066 0.8532 1.0474
O3 O 0.38344(15) 0.80958(11) 0.95885(9)
C5 C -0.26435(16) 1.32740(12) 0.39435(10)
C6 C 0.14863(16) 1.03150(11) 0.55058(10)
C7 C -0.05778(19) 1.52449(13) 0.11609(11)
H3 H 0.0233 1.5542 0.1281
C8 C -0.10259(16) 1.34146(12) 0.37099(10)
H4 H -0.1063 1.4203 0.3284
H5 H -0.0486 1.3290 0.4318
C9 C 0.28830(17) 0.98399(12) 0.52013(11)
H6 H 0.3558 0.9220 0.5646
C10 C 0.06125(16) 1.33126(12) 0.23486(10)
H7 H 0.1270 1.2800 0.2051
H8 H 0.1258 1.3736 0.2533
C11 C 0.00670(18) 0.83042(13) 0.92896(10)
H9 H 0.0557 0.7541 0.9621
C12 C -0.13239(18) 1.05004(13) 0.83517(11)
H10 H -0.1791 1.1265 0.8008
C13 C -0.16236(18) 1.00015(14) 0.93267(11)
H11 H -0.2309 1.0416 0.9656
N5 N -0.17632(15) 1.36725(10) 0.14914(9)
C14 C 0.01067(17) 1.03743(12) 0.68919(10)
H12 H -0.0329 1.1143 0.6540
C15 C -0.56930(19) 1.32896(17) 0.41815(14)
H13 H -0.6756 1.3310 0.4235
C16 C -0.17555(19) 1.59245(13) 0.05030(12)
H14 H -0.1768 1.6700 0.0175
C17 C -0.48401(17) 1.28822(13) 0.35192(12)
H15 H -0.5336 1.2612 0.3125
C18 C -0.29057(19) 1.54621(14) 0.03311(13)
H16 H -0.3704 1.5909 -0.0127
C19 C -0.34165(19) 1.36645(15) 0.46450(12)
H17 H -0.2896 1.3925 0.5035
C20 C 0.09332(15) 1.17018(11) 0.38895(10)
C21 C 0.23274(16) 1.12017(12) 0.35816(10)
H18 H 0.2616 1.1491 0.2927
C22 C 0.32839(17) 1.02810(13) 0.42396(11)
H19 H 0.4229 0.9946 0.4029
C23 C -0.28740(19) 1.43348(13) 0.08381(12)
H20 H -0.3665 1.4018 0.0720
C24 C -0.4964(2) 1.36685(19) 0.47669(15)
H21 H -0.5513 1.3927 0.5244
C25 C 0.41723(18) 1.00174(13) 0.83483(11)
Fe1A Fe -0.18702(2) 1.201916(16) 0.253412(14)
S1A S -0.45741(4) 1.15192(3) 0.13176(3)
N1A N -0.10796(14) 1.02109(10) 0.35128(8)
O1A O -0.38444(13) 1.16452(11) 0.21265(9)
F1A F -0.47621(14) 0.95070(9) 0.25011(8)
N2A N 0.33263(14) 0.71481(10) 0.65916(9)
N3A N -0.03412(14) 1.12329(10) 0.16521(9)
F2A F -0.47582(14) 0.96910(10) 0.09931(9)
F3A F -0.26699(12) 0.95592(9) 0.17053(8)
O2A O -0.62137(13) 1.18499(10) 0.13175(9)
N4A N 0.01182(13) 0.73582(10) 0.67724(8)
C1A C 0.03325(16) 1.01373(12) 0.21084(10)
C2A C 0.06197(16) 0.58793(12) 0.83637(10)
C3A C -0.05087(16) 0.87600(11) 0.51489(10)
H1A H 0.0449 0.8443 0.4941
C4A C 0.09025(18) 1.11107(13) 0.01940(11)
H2A H 0.1066 1.1468 -0.0474
O3A O -0.38344(15) 1.19042(11) 0.04115(9)
C5A C 0.26435(16) 0.67260(12) 0.60565(10)
C6A C -0.14863(16) 0.96850(11) 0.44942(10)
C7A C 0.05778(19) 0.47551(13) 0.88391(11)
H3A H -0.0233 0.4458 0.8719
C8A C 0.10259(16) 0.65854(12) 0.62901(10)
H4A H 0.1063 0.5797 0.6716
H5A H 0.0486 0.6710 0.5682
C9A C -0.28830(17) 1.01601(12) 0.47987(11)
H6A H -0.3558 1.0780 0.4354
C10A C -0.06125(16) 0.66874(12) 0.76514(10)
H7A H -0.1270 0.7200 0.7949
H8A H -0.1258 0.6264 0.7467
C11A C -0.00670(18) 1.16958(13) 0.07104(10)
H9A H -0.0557 1.2459 0.0379
C12A C 0.13239(18) 0.94996(13) 0.16483(11)
H10A H 0.1791 0.8735 0.1992
C13A C 0.16236(18) 0.99985(14) 0.06733(11)
H11A H 0.2309 0.9584 0.0344
N5A N 0.17632(15) 0.63275(10) 0.85086(9)
C14A C -0.01067(17) 0.96257(12) 0.31081(10)
H12A H 0.0329 0.8857 0.3460
C15A C 0.56930(19) 0.67104(17) 0.58185(14)
H13A H 0.6756 0.6690 0.5765
C16A C 0.17555(19) 0.40755(13) 0.94970(12)
H14A H 0.1768 0.3300 0.9825
C17A C 0.48401(17) 0.71178(13) 0.64808(12)
H15A H 0.5336 0.7388 0.6875
C18A C 0.29057(19) 0.45379(14) 0.96689(13)
H16A H 0.3704 0.4091 1.0127
C19A C 0.34165(19) 0.63355(15) 0.53550(12)
H17A H 0.2896 0.6075 0.4965
C20A C -0.09332(15) 0.82982(11) 0.61105(10)
C21A C -0.23274(16) 0.87983(12) 0.64184(10)
H18A H -0.2616 0.8509 0.7073
C22A C -0.32839(17) 0.97190(13) 0.57604(11)
H19A H -0.4229 1.0054 0.5971
C23A C 0.28740(19) 0.56652(13) 0.91619(12)
H20A H 0.3665 0.5982 0.9280
C24A C 0.4964(2) 0.63315(19) 0.52331(15)
H21A H 0.5513 0.6073 0.4756
C25A C -0.41723(18) 0.99826(13) 0.16517(11)
S2 S -0.04084(5) 1.35087(3) 0.69559(3)
O4 O -0.00597(19) 1.28217(12) 0.79555(10)
O5 O -0.09020(16) 1.47063(10) 0.67639(10)
O6 O -0.12687(17) 1.30551(12) 0.64472(11)
C26 C 0.1444(2) 1.33872(17) 0.63814(16)
F4 F 0.24466(16) 1.37174(14) 0.67980(12)
F5 F 0.13453(16) 1.40363(14) 0.54536(11)
F6 F 0.20517(15) 1.23312(11) 0.64219(11)
C30 C -0.3904(3) 1.4320(3) 0.82532(17)
C31 C -0.4372(3) 1.3438(3) 0.8034(2)
H25 H -0.4068 1.2724 0.8571
H26 H -0.3881 1.3365 0.7442
H27 H -0.5483 1.3627 0.7940
N7 N -0.3539(3) 1.5020(3) 0.84308(18)
loop_
_geom_bond_atom_site_label_1
_geom_bond_atom_site_label_2
_geom_bond_site_symmetry_1
_geom_bond_site_symmetry_2
Fe1 N1 1_555 1_555
S1 O1 1_555 1_555
N1 C6 1_555 1_555
O1 Fe1 1_555 1_555
F1 C25 1_555 1_555
N2 C5 1_555 1_555
N3 Fe1 1_555 1_555
F2 C25 1_555 1_555
F3 C25 1_555 1_555
O2 S1 1_555 1_555
N4 C8 1_555 1_555
C1 N3 1_555 1_555
C2 C7 1_555 1_555
C3 H1 1_555 1_555
C4 H2 1_555 1_555
O3 S1 1_555 1_555
C5 C8 1_555 1_555
C6 C3 1_555 1_555
C7 H3 1_555 1_555
C8 H4 1_555 1_555
H5 C8 1_555 1_555
C9 C6 1_555 1_555
H6 C9 1_555 1_555
C10 N4 1_555 1_555
H7 C10 1_555 1_555
H8 C10 1_555 1_555
C11 N3 1_555 1_555
H9 C11 1_555 1_555
C12 C1 1_555 1_555
H10 C12 1_555 1_555
C13 C4 1_555 1_555
H11 C13 1_555 1_555
N5 C2 1_555 1_555
C14 N1 1_555 1_555
H12 C14 1_555 1_555
C15 H13 1_555 1_555
C16 C7 1_555 1_555
H14 C16 1_555 1_555
C17 N2 1_555 1_555
H15 C17 1_555 1_555
C18 C16 1_555 1_555
H16 C18 1_555 1_555
C19 C5 1_555 1_555
H17 C19 1_555 1_555
C20 N4 1_555 1_555
C21 C20 1_555 1_555
H18 C21 1_555 1_555
C22 C9 1_555 1_555
H19 C22 1_555 1_555
C23 N5 1_555 1_555
H20 C23 1_555 1_555
C24 C15 1_555 1_555
H21 C24 1_555 1_555
C25 S1 1_555 1_555
S2 O4 1_555 1_555
O5 S2 1_555 1_555
O6 S2 1_555 1_555
C26 S2 1_555 1_555
F4 C26 1_555 1_555
F5 C26 1_555 1_555
F6 C26 1_555 1_555
C30 C31 1_555 1_555
C31 H25 1_555 1_555
H26 C31 1_555 1_555
H27 C31 1_555 1_555
N7 C30 1_555 1_555
Fe1A N2 1_555 1_555
S1A O1A 1_555 1_555
N1A Fe1A 1_555 1_555
O1A Fe1A 1_555 1_555
F1A C25A 1_555 1_555
N2A Fe1 1_555 1_555
N3A Fe1A 1_555 1_555
F2A C25A 1_555 1_555
F3A C25A 1_555 1_555
O2A S1A 1_555 1_555
N4A Fe1 1_555 1_555
C1A N3A 1_555 1_555
C2A C7A 1_555 1_555
C3A H1A 1_555 1_555
C4A H2A 1_555 1_555
O3A S1A 1_555 1_555
C5A N2A 1_555 1_555
C6A N1A 1_555 1_555
C7A H3A 1_555 1_555
C8A N4A 1_555 1_555
H4A C8A 1_555 1_555
H5A C8A 1_555 1_555
C9A C6A 1_555 1_555
H6A C9A 1_555 1_555
C10A N4A 1_555 1_555
H7A C10A 1_555 1_555
H8A C10A 1_555 1_555
C11A N3A 1_555 1_555
H9A C11A 1_555 1_555
C12A C1A 1_555 1_555
H10A C12A 1_555 1_555
C13A C4A 1_555 1_555
H11A C13A 1_555 1_555
N5A Fe1 1_555 1_555
C14A N1A 1_555 1_555
H12A C14A 1_555 1_555
C15A H13A 1_555 1_555
C16A C7A 1_555 1_555
H14A C16A 1_555 1_555
C17A N2A 1_555 1_555
H15A C17A 1_555 1_555
C18A C16A 1_555 1_555
H16A C18A 1_555 1_555
C19A C5A 1_555 1_555
H17A C19A 1_555 1_555
C20A N4A 1_555 1_555
C21A C20A 1_555 1_555
H18A C21A 1_555 1_555
C22A C9A 1_555 1_555
H19A C22A 1_555 1_555
C23A N5A 1_555 1_555
H20A C23A 1_555 1_555
C24A C15A 1_555 1_555
H21A C24A 1_555 1_555
C25A S1A 1_555 1_555
N4 Fe1A 1_555 1_555
C1 C14 1_555 1_555
C2 C10 1_555 1_555
C3 C20 1_555 1_555
C4 C11 1_555 1_555
C12 C13 1_555 1_555
N5 Fe1A 1_555 1_555
C15 C17 1_555 1_555
C18 C23 1_555 1_555
C19 C24 1_555 1_555
C21 C22 1_555 1_555
C1A C14A 1_555 1_555
C2A C10A 1_555 1_555
C2A N5A 1_555 1_555
C3A C6A 1_555 1_555
C3A C20A 1_555 1_555
C4A C11A 1_555 1_555
C5A C8A 1_555 1_555
C12A C13A 1_555 1_555
C15A C17A 1_555 1_555
C18A C23A 1_555 1_555
C19A C24A 1_555 1_555
C21A C22A 1_555 1_555

#END
