
#######################################################################
#
#                 Cambridge Crystallographic Data Centre
#                                CCDC 
#
#######################################################################
#
# If this CIF has been generated from an entry in the Cambridge 
# Structural Database, then it will include bibliographic, chemical, 
# crystal, experimental, refinement or atomic coordinate data resulting 
# from the CCDC's data processing and validation procedures.
#
#######################################################################

data_SERHAA
_chemical_formula_moiety         'C336 H264 Co8 N72 16+,16(C24 H20 B1 1-)'
_chemical_name_systematic        
"dodecakis(\m~2~-2,2'-[naphthalene-1,5-diylbis(methanediyl-1H-pyrazole-1,3-diyl)]dipyridine)-octa-cobalt hexadecakis(tetraphenylborate)"
_symmetry_cell_setting           rhombohedral
_symmetry_space_group_name_H-M   'R -3'
_symmetry_Int_Tables_number      148
_space_group_name_Hall           '-R 3'
loop_
_symmetry_equiv_pos_site_id
_symmetry_equiv_pos_as_xyz
1 x,y,z
2 -y,x-y,z
3 -x+y,-x,z
4 2/3+x,1/3+y,1/3+z
5 2/3-y,1/3+x-y,1/3+z
6 2/3-x+y,1/3-x,1/3+z
7 1/3+x,2/3+y,2/3+z
8 1/3-y,2/3+x-y,2/3+z
9 1/3-x+y,2/3-x,2/3+z
10 -x,-y,-z
11 y,-x+y,-z
12 x-y,x,-z
13 1/3-x,2/3-y,2/3-z
14 1/3+y,2/3-x+y,2/3-z
15 1/3+x-y,2/3+x,2/3-z
16 2/3-x,1/3-y,1/3-z
17 2/3+y,1/3-x+y,1/3-z
18 2/3+x-y,1/3+x,1/3-z
_cell_length_a                   31.1071(6)
_cell_length_b                   31.1071(6)
_cell_length_c                   54.3615(10)
_cell_angle_alpha                90
_cell_angle_beta                 90
_cell_angle_gamma                120
_cell_volume                     45555.5
_exptl_crystal_colour            orange
_exptl_crystal_description       plate
_cell_formula_units_Z            3
loop_
_atom_site_label
_atom_site_type_symbol
_atom_site_fract_x
_atom_site_fract_y
_atom_site_fract_z
Co1 Co 0.69642(3) 0.96168(3) 0.065666(13)
Co2 Co 1.0000 1.0000 0.17934(2)
N1 N 0.65085(16) 0.90294(16) 0.04116(8)
C1 C 0.6285(2) 0.9072(2) 0.02090(11)
H1 H 0.6321 0.9380 0.0170
C2 C 0.6002(3) 0.8673(3) 0.00566(12)
H2 H 0.5853 0.8716 -0.0083
C3 C 0.5939(2) 0.8219(2) 0.01094(12)
H3 H 0.5753 0.7950 0.0007
C4 C 0.6159(2) 0.8167(2) 0.03207(11)
H4 H 0.6115 0.7859 0.0365
C5 C 0.6445(2) 0.8579(2) 0.04648(10)
N2 N 0.69717(16) 0.89791(16) 0.08111(8)
N3 N 0.71337(16) 0.88466(16) 0.10152(8)
C6 C 0.6960(2) 0.8351(2) 0.10185(11)
H5 H 0.7027 0.8178 0.1138
C7 C 0.6669(2) 0.8153(2) 0.08139(10)
H6 H 0.6499 0.7821 0.0766
C8 C 0.66848(19) 0.85561(18) 0.06924(10)
C9 C 0.74754(19) 0.92141(19) 0.11866(10)
H7 H 0.7446 0.9056 0.1344
H8 H 0.7383 0.9466 0.1209
N4 N 1.06258(17) 1.04859(24) 0.20167(9)
C10 C 1.0810(3) 1.0358(4) 0.22044(13)
H9 H 1.0676 1.0022 0.2239
C11 C 1.1192(3) 1.0700(4) 0.23515(13)
H10 H 1.1319 1.0595 0.2478
C12 C 1.1377(2) 1.1192(3) 0.23081(12)
H11 H 1.1627 1.1430 0.2407
C13 C 1.1193(2) 1.1333(3) 0.21173(11)
H12 H 1.1316 1.1668 0.2084
C14 C 1.08207(19) 1.09747(28) 0.19727(10)
N5 N 1.02679(16) 1.07159(16) 0.16227(8)
N6 N 1.01494(16) 1.09353(16) 0.14415(9)
C15 C 1.0394(2) 1.1431(2) 0.14706(12)
H13 H 1.0369 1.1658 0.1369
C16 C 1.06853(19) 1.1543(2) 0.16739(11)
H14 H 1.0895 1.1856 0.1740
C17 C 1.06034(18) 1.1096(2) 0.17606(10)
C18 C 0.9791(2) 1.0640(2) 0.12514(11)
H15 H 0.9828 1.0356 0.1214
H16 H 0.9867 1.0839 0.1103
C19 C 0.92610(19) 1.04597(19) 0.13211(10)
C20 C 0.9129(2) 1.06236(19) 0.15235(10)
H17 H 0.9375 1.0870 0.1621
C21 C 0.86269(19) 1.04270(18) 0.15885(10)
H18 H 0.8543 1.0555 0.1723
C22 C 0.82650(19) 1.00495(18) 0.14550(10)
H19 H 0.7936 0.9912 0.1504
C23 C 0.83769(19) 0.98626(19) 0.12440(9)
C24 C 0.8884(2) 1.0079(2) 0.11701(9)
C25 C 0.9006(2) 0.9908(2) 0.09542(10)
H20 H 0.9333 1.0062 0.0900
C26 C 0.8640(2) 0.9515(2) 0.08251(11)
H21 H 0.8723 0.9397 0.0686
C27 C 0.8139(2) 0.9288(2) 0.09017(10)
H22 H 0.7896 0.9019 0.0814
C28 C 0.80080(19) 0.94600(19) 0.11037(9)
N7 N 0.74940(16) 1.01794(15) 0.08912(8)
C29 C 0.7408(2) 1.03261(19) 0.11079(10)
H23 H 0.7087 1.0159 0.1170
C30 C 0.7772(2) 1.0714(2) 0.12449(10)
H24 H 0.7694 1.0802 0.1395
C31 C 0.8244(2) 1.0962(2) 0.11567(11)
H25 H 0.8494 1.1221 0.1246
C32 C 0.8348(2) 1.0826(2) 0.09312(11)
H26 H 0.8667 1.0996 0.0866
C33 C 0.79621(19) 1.04280(19) 0.08040(10)
N8 N 0.76536(16) 0.99249(15) 0.04399(8)
N9 N 0.78473(17) 0.98737(16) 0.02257(8)
C34 C 0.8354(2) 1.0170(2) 0.02211(11)
H27 H 0.8566 1.0194 0.0094
C35 C 0.8487(2) 1.0421(2) 0.04385(11)
H28 H 0.8806 1.0651 0.0490
C36 C 0.8050(2) 1.02631(19) 0.05672(10)
C37 C 0.7549(2) 0.95290(19) 0.00326(10)
H29 H 0.7721 0.9647 -0.0123
H30 H 0.7236 0.9526 0.0021
N10 N 0.68689(23) 0.63487(16) -0.08964(8)
C38 C 0.7006(3) 0.6148(2) -0.10767(11)
H31 H 0.7343 0.6255 -0.1094
C39 C 0.6684(4) 0.5798(2) -0.12359(13)
H32 H 0.6800 0.5675 -0.1359
C40 C 0.6183(4) 0.5628(3) -0.12120(14)
H33 H 0.5955 0.5386 -0.1317
C41 C 0.6026(4) 0.5828(2) -0.10259(12)
H34 H 0.5690 0.5719 -0.1005
C42 C 0.6372(3) 0.6186(2) -0.08743(10)
N11 N 0.65956(23) 0.67398(16) -0.05302(8)
N12 N 0.63591(23) 0.68710(16) -0.03629(8)
C43 C 0.5868(3) 0.6628(2) -0.04014(12)
H35 H 0.5634 0.6657 -0.0308
C44 C 0.5770(3) 0.6327(2) -0.06030(12)
H36 H 0.5463 0.6117 -0.0675
C45 C 0.6235(3) 0.6406(2) -0.06761(11)
C46 C 0.6629(3) 0.7235(2) -0.01740(10)
H37 H 0.6434 0.7131 -0.0024
H38 H 0.6936 0.7236 -0.0142
C47 C 0.6753(2) 0.7759(2) -0.02317(10)
C48 C 0.6610(2) 0.7881(2) -0.04442(10)
H39 H 0.6433 0.7638 -0.0561
C49 C 0.6728(3) 0.8369(2) -0.04885(11)
H40 H 0.6623 0.8446 -0.0634
C50 C 0.6992(2) 0.8735(2) -0.03238(10)
H41 H 0.7064 0.9057 -0.0357
C51 C 0.7159(2) 0.8632(2) -0.01009(10)
C52 C 0.7041(2) 0.8135(2) -0.00550(10)
C53 C 0.7211(2) 0.8031(2) 0.01662(10)
H42 H 0.7120 0.7704 0.0204
C54 C 0.7505(2) 0.8399(2) 0.03238(10)
H43 H 0.7630 0.8325 0.0463
C55 C 0.7624(2) 0.8890(2) 0.02787(10)
H44 H 0.7827 0.9138 0.0389
C56 C 0.7444(2) 0.9009(2) 0.00740(10)
Co1A Co 1.03832(3) 0.73474(4) 0.065666(13)
N1A N 1.09706(16) 0.74791(23) 0.04116(8)
C1A C 1.0928(2) 0.7213(3) 0.02090(11)
H1A H 1.0620 0.6941 0.0170
C2A C 1.1327(3) 0.7329(4) 0.00566(12)
H2A H 1.1284 0.7137 -0.0083
C3A C 1.1781(2) 0.7720(3) 0.01094(12)
H3A H 1.2050 0.7803 0.0007
C4A C 1.1833(2) 0.7992(3) 0.03207(11)
H4A H 1.2141 0.8256 0.0365
C5A C 1.1421(2) 0.7866(3) 0.04648(10)
N2A N 1.10209(16) 0.79926(23) 0.08111(8)
N3A N 1.11534(16) 0.82871(23) 0.10152(8)
C6A C 1.1649(2) 0.8609(3) 0.10185(11)
H5A H 1.1822 0.8849 0.1138
C7A C 1.1847(2) 0.8516(3) 0.08139(10)
H6A H 1.2179 0.8678 0.0766
C8A C 1.14439(18) 0.81287(26) 0.06924(10)
C9A C 1.07859(19) 0.82613(27) 0.11866(10)
H7A H 1.0944 0.8390 0.1344
H8A H 1.0534 0.7917 0.1209
N4A N 0.95141(24) 1.01399(29) 0.20167(9)
C10A C 0.9642(4) 1.0452(5) 0.22044(13)
H9A H 0.9978 1.0654 0.2239
C11A C 0.9300(4) 1.0492(5) 0.23515(13)
H10A H 0.9405 1.0724 0.2478
C12A C 0.8808(3) 1.0185(4) 0.23081(12)
H11A H 0.8570 1.0197 0.2407
C13A C 0.8667(3) 0.9860(4) 0.21173(11)
H12A H 0.8332 0.9648 0.2084
C14A C 0.90253(28) 0.98460(34) 0.19727(10)
N5A N 0.92841(16) 0.95520(23) 0.16227(8)
N6A N 0.90647(16) 0.92141(23) 0.14415(9)
C15A C 0.8569(2) 0.8963(3) 0.14706(12)
H13A H 0.8342 0.8711 0.1369
C16A C 0.8457(2) 0.91423(28) 0.16739(11)
H14A H 0.8144 0.9039 0.1740
C17A C 0.8904(2) 0.95074(27) 0.17606(10)
C18A C 0.9360(2) 0.9151(3) 0.12514(11)
H15A H 0.9644 0.9472 0.1214
H16A H 0.9161 0.9028 0.1103
C19A C 0.95403(19) 0.88013(27) 0.13211(10)
C20A C 0.93764(19) 0.85054(28) 0.15235(10)
H17A H 0.9130 0.8505 0.1621
C21A C 0.95730(18) 0.81999(26) 0.15885(10)
H18A H 0.9445 0.7988 0.1723
C22A C 0.99505(18) 0.82155(26) 0.14550(10)
H19A H 1.0088 0.8024 0.1504
C23A C 1.01374(19) 0.85143(27) 0.12440(9)
C24A C 0.9921(2) 0.8805(3) 0.11701(9)
C25A C 1.0092(2) 0.9098(3) 0.09542(10)
H20A H 0.9938 0.9271 0.0900
C26A C 1.0485(2) 0.9125(3) 0.08251(11)
H21A H 1.0603 0.9326 0.0686
C27A C 1.0712(2) 0.8851(3) 0.09017(10)
H22A H 1.0981 0.8877 0.0814
C28A C 1.05400(19) 0.85480(27) 0.11037(9)
N7A N 0.98206(15) 0.73146(22) 0.08912(8)
C29A C 0.96739(19) 0.70819(28) 0.11079(10)
H23A H 0.9841 0.6928 0.1170
C30A C 0.9286(2) 0.7058(3) 0.12449(10)
H24A H 0.9198 0.6892 0.1395
C31A C 0.9038(2) 0.7282(3) 0.11567(11)
H25A H 0.8779 0.7273 0.1246
C32A C 0.9174(2) 0.7522(3) 0.09312(11)
H26A H 0.9004 0.7671 0.0866
C33A C 0.95720(19) 0.75341(27) 0.08040(10)
N8A N 1.00751(15) 0.77287(22) 0.04399(8)
N9A N 1.01263(16) 0.79736(23) 0.02257(8)
C34A C 0.9830(2) 0.8184(3) 0.02211(11)
H27A H 0.9806 0.8372 0.0094
C35A C 0.9579(2) 0.8066(3) 0.04385(11)
H28A H 0.9349 0.8155 0.0490
C36A C 0.97369(19) 0.77869(28) 0.05672(10)
C37A C 1.04710(19) 0.80200(28) 0.00326(10)
H29A H 1.0353 0.8074 -0.0123
H30A H 1.0474 0.7710 0.0021
N10A N 1.36513(16) 1.05202(28) -0.08964(8)
C38A C 1.3852(2) 1.0858(4) -0.10767(11)
H31A H 1.3745 1.1088 -0.1094
C39A C 1.4202(2) 1.0886(4) -0.12359(13)
H32A H 1.4325 1.1125 -0.1359
C40A C 1.4372(3) 1.0555(5) -0.12120(14)
H33A H 1.4614 1.0569 -0.1317
C41A C 1.4172(2) 1.0198(4) -0.10259(12)
H34A H 1.4281 0.9971 -0.1005
C42A C 1.3814(2) 1.0186(4) -0.08743(10)
N11A N 1.32602(16) 0.98558(28) -0.05302(8)
N12A N 1.31290(16) 0.94881(28) -0.03629(8)
C43A C 1.3372(2) 0.9240(4) -0.04014(12)
H35A H 1.3343 0.8977 -0.0308
C44A C 1.3673(2) 0.9443(4) -0.06030(12)
H36A H 1.3883 0.9346 -0.0675
C45A C 1.3594(2) 0.9829(4) -0.06761(11)
C46A C 1.2765(2) 0.9394(4) -0.01740(10)
H37A H 1.2869 0.9303 -0.0024
H38A H 1.2764 0.9700 -0.0142
C47A C 1.2241(2) 0.8994(3) -0.02317(10)
C48A C 1.2119(2) 0.8729(3) -0.04442(10)
H39A H 1.2362 0.8795 -0.0561
C49A C 1.1631(2) 0.8359(4) -0.04885(11)
H40A H 1.1554 0.8177 -0.0634
C50A C 1.1265(2) 0.8257(3) -0.03238(10)
H41A H 1.0943 0.8007 -0.0357
C51A C 1.1368(2) 0.8527(3) -0.01009(10)
C52A C 1.1865(2) 0.8906(3) -0.00550(10)
C53A C 1.1969(2) 0.9180(3) 0.01662(10)
H42A H 1.2296 0.9416 0.0204
C54A C 1.1601(2) 0.9106(3) 0.03238(10)
H43A H 1.1675 0.9305 0.0463
C55A C 1.1110(2) 0.8734(3) 0.02787(10)
H44A H 1.0862 0.8689 0.0389
C56A C 1.0991(2) 0.8435(3) 0.00740(10)
Co1B Co 1.26526(4) 1.30358(3) 0.065666(13)
N1B N 1.25209(23) 1.34915(16) 0.04116(8)
C1B C 1.2787(3) 1.3715(2) 0.02090(11)
H1B H 1.3059 1.3679 0.0170
C2B C 1.2671(4) 1.3998(3) 0.00566(12)
H2B H 1.2863 1.4147 -0.0083
C3B C 1.2280(3) 1.4061(2) 0.01094(12)
H3B H 1.2197 1.4247 0.0007
C4B C 1.2008(3) 1.3841(2) 0.03207(11)
H4B H 1.1744 1.3885 0.0365
C5B C 1.2134(3) 1.3555(2) 0.04648(10)
N2B N 1.20074(23) 1.30283(16) 0.08111(8)
N3B N 1.17129(23) 1.28663(16) 0.10152(8)
C6B C 1.1391(3) 1.3040(2) 0.10185(11)
H5B H 1.1151 1.2973 0.1138
C7B C 1.1484(3) 1.3331(2) 0.08139(10)
H6B H 1.1322 1.3501 0.0766
C8B C 1.18713(26) 1.33152(19) 0.06924(10)
C9B C 1.17387(27) 1.25246(19) 0.11866(10)
H7B H 1.1610 1.2554 0.1344
H8B H 1.2083 1.2617 0.1209
N4B N 0.98601(29) 0.93742(17) 0.20167(9)
C10B C 0.9548(5) 0.9190(3) 0.22044(13)
H9B H 0.9346 0.9324 0.2239
C11B C 0.9508(5) 0.8808(3) 0.23515(13)
H10B H 0.9276 0.8681 0.2478
C12B C 0.9815(4) 0.8623(2) 0.23081(12)
H11B H 0.9803 0.8373 0.2407
C13B C 1.0140(4) 0.8807(2) 0.21173(11)
H12B H 1.0352 0.8684 0.2084
C14B C 1.01540(34) 0.91793(19) 0.19727(10)
N5B N 1.04480(23) 0.97321(16) 0.16227(8)
N6B N 1.07859(23) 0.98506(16) 0.14415(9)
C15B C 1.1037(3) 0.9606(2) 0.14706(12)
H13B H 1.1289 0.9631 0.1369
C16B C 1.08577(28) 0.93147(19) 0.16739(11)
H14B H 1.0961 0.9105 0.1740
C17B C 1.04926(27) 0.93966(18) 0.17606(10)
C18B C 1.0849(3) 1.0209(2) 0.12514(11)
H15B H 1.0528 1.0172 0.1214
H16B H 1.0972 1.0133 0.1103
C19B C 1.11987(27) 1.07390(19) 0.13211(10)
C20B C 1.14946(28) 1.0871(2) 0.15235(10)
H17B H 1.1495 1.0625 0.1621
C21B C 1.18001(26) 1.13731(19) 0.15885(10)
H18B H 1.2012 1.1457 0.1723
C22B C 1.17845(26) 1.17350(19) 0.14550(10)
H19B H 1.1976 1.2064 0.1504
C23B C 1.14857(27) 1.16231(19) 0.12440(9)
C24B C 1.1195(3) 1.1116(2) 0.11701(9)
C25B C 1.0902(3) 1.0994(2) 0.09542(10)
H20B H 1.0729 1.0667 0.0900
C26B C 1.0875(3) 1.1360(2) 0.08251(11)
H21B H 1.0674 1.1277 0.0686
C27B C 1.1149(3) 1.1861(2) 0.09017(10)
H22B H 1.1123 1.2104 0.0814
C28B C 1.14520(27) 1.19920(19) 0.11037(9)
N7B N 1.26854(22) 1.25060(16) 0.08912(8)
C29B C 1.29181(28) 1.2592(2) 0.11079(10)
H23B H 1.3072 1.2913 0.1170
C30B C 1.2942(3) 1.2228(2) 0.12449(10)
H24B H 1.3108 1.2306 0.1395
C31B C 1.2718(3) 1.1756(2) 0.11567(11)
H25B H 1.2727 1.1506 0.1246
C32B C 1.2478(3) 1.1652(2) 0.09312(11)
H26B H 1.2329 1.1333 0.0866
C33B C 1.24659(27) 1.20379(19) 0.08040(10)
N8B N 1.22713(22) 1.23464(16) 0.04399(8)
N9B N 1.20264(23) 1.21527(17) 0.02257(8)
C34B C 1.1816(3) 1.1646(2) 0.02211(11)
H27B H 1.1628 1.1434 0.0094
C35B C 1.1934(3) 1.1513(2) 0.04385(11)
H28B H 1.1845 1.1194 0.0490
C36B C 1.22131(28) 1.1950(2) 0.05672(10)
C37B C 1.19800(28) 1.2451(2) 0.00326(10)
H29B H 1.1926 1.2279 -0.0123
H30B H 1.2290 1.2764 0.0021
N10B N 0.94798(28) 1.31311(23) -0.08964(8)
C38B C 0.9142(4) 1.2994(3) -0.10767(11)
H31B H 0.8912 1.2657 -0.1094
C39B C 0.9114(4) 1.3316(4) -0.12359(13)
H32B H 0.8875 1.3200 -0.1359
C40B C 0.9445(5) 1.3817(4) -0.12120(14)
H33B H 0.9431 1.4045 -0.1317
C41B C 0.9802(4) 1.3974(4) -0.10259(12)
H34B H 1.0029 1.4310 -0.1005
C42B C 0.9814(4) 1.3628(3) -0.08743(10)
N11B N 1.01442(28) 1.34044(23) -0.05302(8)
N12B N 1.05119(28) 1.36409(23) -0.03629(8)
C43B C 1.0760(4) 1.4132(3) -0.04014(12)
H35B H 1.1023 1.4366 -0.0308
C44B C 1.0557(4) 1.4230(3) -0.06030(12)
H36B H 1.0654 1.4537 -0.0675
C45B C 1.0171(4) 1.3765(3) -0.06761(11)
C46B C 1.0606(4) 1.3371(3) -0.01740(10)
H37B H 1.0697 1.3566 -0.0024
H38B H 1.0300 1.3064 -0.0142
C47B C 1.1006(3) 1.3247(2) -0.02317(10)
C48B C 1.1271(3) 1.3390(2) -0.04442(10)
H39B H 1.1205 1.3567 -0.0561
C49B C 1.1641(4) 1.3272(3) -0.04885(11)
H40B H 1.1823 1.3377 -0.0634
C50B C 1.1743(3) 1.3008(2) -0.03238(10)
H41B H 1.1993 1.2936 -0.0357
C51B C 1.1473(3) 1.2841(2) -0.01009(10)
C52B C 1.1094(3) 1.2959(2) -0.00550(10)
C53B C 1.0820(3) 1.2789(2) 0.01662(10)
H42B H 1.0584 1.2880 0.0204
C54B C 1.0894(3) 1.2495(2) 0.03238(10)
H43B H 1.0695 1.2370 0.0463
C55B C 1.1266(3) 1.2376(2) 0.02787(10)
H44B H 1.1311 1.2173 0.0389
C56B C 1.1565(3) 1.2556(2) 0.00740(10)
Co1I Co 1.30358(3) 1.03832(3) -0.065666(13)
Co2I Co 1.0000 1.0000 -0.17934(2)
N1I N 1.34915(16) 1.09706(16) -0.04116(8)
C1I C 1.3715(2) 1.0928(2) -0.02090(11)
H1I H 1.3679 1.0620 -0.0170
C2I C 1.3998(3) 1.1327(3) -0.00566(12)
H2I H 1.4147 1.1284 0.0083
C3I C 1.4061(2) 1.1781(2) -0.01094(12)
H3I H 1.4247 1.2050 -0.0007
C4I C 1.3841(2) 1.1833(2) -0.03207(11)
H4I H 1.3885 1.2141 -0.0365
C5I C 1.3555(2) 1.1421(2) -0.04648(10)
N2I N 1.30283(16) 1.10209(16) -0.08111(8)
N3I N 1.28663(16) 1.11534(16) -0.10152(8)
C6I C 1.3040(2) 1.1649(2) -0.10185(11)
H5I H 1.2973 1.1822 -0.1138
C7I C 1.3331(2) 1.1847(2) -0.08139(10)
H6I H 1.3501 1.2179 -0.0766
C8I C 1.33152(19) 1.14439(18) -0.06924(10)
C9I C 1.25246(19) 1.07859(19) -0.11866(10)
H7I H 1.2554 1.0944 -0.1344
H8I H 1.2617 1.0534 -0.1209
N4I N 0.93742(17) 0.95141(24) -0.20167(9)
C10I C 0.9190(3) 0.9642(4) -0.22044(13)
H9I H 0.9324 0.9978 -0.2239
C11I C 0.8808(3) 0.9300(4) -0.23515(13)
H10I H 0.8681 0.9405 -0.2478
C12I C 0.8623(2) 0.8808(3) -0.23081(12)
H11I H 0.8373 0.8570 -0.2407
C13I C 0.8807(2) 0.8667(3) -0.21173(11)
H12I H 0.8684 0.8332 -0.2084
C14I C 0.91793(19) 0.90253(28) -0.19727(10)
N5I N 0.97321(16) 0.92841(16) -0.16227(8)
N6I N 0.98506(16) 0.90647(16) -0.14415(9)
C15I C 0.9606(2) 0.8569(2) -0.14706(12)
H13I H 0.9631 0.8342 -0.1369
C16I C 0.93147(19) 0.8457(2) -0.16739(11)
H14I H 0.9105 0.8144 -0.1740
C17I C 0.93966(18) 0.8904(2) -0.17606(10)
C18I C 1.0209(2) 0.9360(2) -0.12514(11)
H15I H 1.0172 0.9644 -0.1214
H16I H 1.0133 0.9161 -0.1103
C19I C 1.07390(19) 0.95403(19) -0.13211(10)
C20I C 1.0871(2) 0.93764(19) -0.15235(10)
H17I H 1.0625 0.9130 -0.1621
C21I C 1.13731(19) 0.95730(18) -0.15885(10)
H18I H 1.1457 0.9445 -0.1723
C22I C 1.17350(19) 0.99505(18) -0.14550(10)
H19I H 1.2064 1.0088 -0.1504
C23I C 1.16231(19) 1.01374(19) -0.12440(9)
C24I C 1.1116(2) 0.9921(2) -0.11701(9)
C25I C 1.0994(2) 1.0092(2) -0.09542(10)
H20I H 1.0667 0.9938 -0.0900
C26I C 1.1360(2) 1.0485(2) -0.08251(11)
H21I H 1.1277 1.0603 -0.0686
C27I C 1.1861(2) 1.0712(2) -0.09017(10)
H22I H 1.2104 1.0981 -0.0814
C28I C 1.19920(19) 1.05400(19) -0.11037(9)
N7I N 1.25060(16) 0.98206(15) -0.08912(8)
C29I C 1.2592(2) 0.96739(19) -0.11079(10)
H23I H 1.2913 0.9841 -0.1170
C30I C 1.2228(2) 0.9286(2) -0.12449(10)
H24I H 1.2306 0.9198 -0.1395
C31I C 1.1756(2) 0.9038(2) -0.11567(11)
H25I H 1.1506 0.8779 -0.1246
C32I C 1.1652(2) 0.9174(2) -0.09312(11)
H26I H 1.1333 0.9004 -0.0866
C33I C 1.20379(19) 0.95720(19) -0.08040(10)
N8I N 1.23464(16) 1.00751(15) -0.04399(8)
N9I N 1.21527(17) 1.01263(16) -0.02257(8)
C34I C 1.1646(2) 0.9830(2) -0.02211(11)
H27I H 1.1434 0.9806 -0.0094
C35I C 1.1513(2) 0.9579(2) -0.04385(11)
H28I H 1.1194 0.9349 -0.0490
C36I C 1.1950(2) 0.97369(19) -0.05672(10)
C37I C 1.2451(2) 1.04710(19) -0.00326(10)
H29I H 1.2279 1.0353 0.0123
H30I H 1.2764 1.0474 -0.0021
N10I N 1.31311(23) 1.36513(16) 0.08964(8)
C38I C 1.2994(3) 1.3852(2) 0.10767(11)
H31I H 1.2657 1.3745 0.1094
C39I C 1.3316(4) 1.4202(2) 0.12359(13)
H32I H 1.3200 1.4325 0.1359
C40I C 1.3817(4) 1.4372(3) 0.12120(14)
H33I H 1.4045 1.4614 0.1317
C41I C 1.3974(4) 1.4172(2) 0.10259(12)
H34I H 1.4310 1.4281 0.1005
C42I C 1.3628(3) 1.3814(2) 0.08743(10)
N11I N 1.34044(23) 1.32602(16) 0.05302(8)
N12I N 1.36409(23) 1.31290(16) 0.03629(8)
C43I C 1.4132(3) 1.3372(2) 0.04014(12)
H35I H 1.4366 1.3343 0.0308
C44I C 1.4230(3) 1.3673(2) 0.06030(12)
H36I H 1.4537 1.3883 0.0675
C45I C 1.3765(3) 1.3594(2) 0.06761(11)
C46I C 1.3371(3) 1.2765(2) 0.01740(10)
H37I H 1.3566 1.2869 0.0024
H38I H 1.3064 1.2764 0.0142
C47I C 1.3247(2) 1.2241(2) 0.02317(10)
C48I C 1.3390(2) 1.2119(2) 0.04442(10)
H39I H 1.3567 1.2362 0.0561
C49I C 1.3272(3) 1.1631(2) 0.04885(11)
H40I H 1.3377 1.1554 0.0634
C50I C 1.3008(2) 1.1265(2) 0.03238(10)
H41I H 1.2936 1.0943 0.0357
C51I C 1.2841(2) 1.1368(2) 0.01009(10)
C52I C 1.2959(2) 1.1865(2) 0.00550(10)
C53I C 1.2789(2) 1.1969(2) -0.01662(10)
H42I H 1.2880 1.2296 -0.0204
C54I C 1.2495(2) 1.1601(2) -0.03238(10)
H43I H 1.2370 1.1675 -0.0463
C55I C 1.2376(2) 1.1110(2) -0.02787(10)
H44I H 1.2173 1.0862 -0.0389
C56I C 1.2556(2) 1.0991(2) -0.00740(10)
Co1J Co 0.96168(3) 1.26526(4) -0.065666(13)
N1J N 0.90294(16) 1.25209(23) -0.04116(8)
C1J C 0.9072(2) 1.2787(3) -0.02090(11)
H1J H 0.9380 1.3059 -0.0170
C2J C 0.8673(3) 1.2671(4) -0.00566(12)
H2J H 0.8716 1.2863 0.0083
C3J C 0.8219(2) 1.2280(3) -0.01094(12)
H3J H 0.7950 1.2197 -0.0007
C4J C 0.8167(2) 1.2008(3) -0.03207(11)
H4J H 0.7859 1.1744 -0.0365
C5J C 0.8579(2) 1.2134(3) -0.04648(10)
N2J N 0.89791(16) 1.20074(23) -0.08111(8)
N3J N 0.88466(16) 1.17129(23) -0.10152(8)
C6J C 0.8351(2) 1.1391(3) -0.10185(11)
H5J H 0.8178 1.1151 -0.1138
C7J C 0.8153(2) 1.1484(3) -0.08139(10)
H6J H 0.7821 1.1322 -0.0766
C8J C 0.85561(18) 1.18713(26) -0.06924(10)
C9J C 0.92141(19) 1.17387(27) -0.11866(10)
H7J H 0.9056 1.1610 -0.1344
H8J H 0.9466 1.2083 -0.1209
N4J N 1.04859(24) 0.98601(29) -0.20167(9)
C10J C 1.0358(4) 0.9548(5) -0.22044(13)
H9J H 1.0022 0.9346 -0.2239
C11J C 1.0700(4) 0.9508(5) -0.23515(13)
H10J H 1.0595 0.9276 -0.2478
C12J C 1.1192(3) 0.9815(4) -0.23081(12)
H11J H 1.1430 0.9803 -0.2407
C13J C 1.1333(3) 1.0140(4) -0.21173(11)
H12J H 1.1668 1.0352 -0.2084
C14J C 1.09747(28) 1.01540(34) -0.19727(10)
N5J N 1.07159(16) 1.04480(23) -0.16227(8)
N6J N 1.09353(16) 1.07859(23) -0.14415(9)
C15J C 1.1431(2) 1.1037(3) -0.14706(12)
H13J H 1.1658 1.1289 -0.1369
C16J C 1.1543(2) 1.08577(28) -0.16739(11)
H14J H 1.1856 1.0961 -0.1740
C17J C 1.1096(2) 1.04926(27) -0.17606(10)
C18J C 1.0640(2) 1.0849(3) -0.12514(11)
H15J H 1.0356 1.0528 -0.1214
H16J H 1.0839 1.0972 -0.1103
C19J C 1.04597(19) 1.11987(27) -0.13211(10)
C20J C 1.06236(19) 1.14946(28) -0.15235(10)
H17J H 1.0870 1.1495 -0.1621
C21J C 1.04270(18) 1.18001(26) -0.15885(10)
H18J H 1.0555 1.2012 -0.1723
C22J C 1.00495(18) 1.17845(26) -0.14550(10)
H19J H 0.9912 1.1976 -0.1504
C23J C 0.98626(19) 1.14857(27) -0.12440(9)
C24J C 1.0079(2) 1.1195(3) -0.11701(9)
C25J C 0.9908(2) 1.0902(3) -0.09542(10)
H20J H 1.0062 1.0729 -0.0900
C26J C 0.9515(2) 1.0875(3) -0.08251(11)
H21J H 0.9397 1.0674 -0.0686
C27J C 0.9288(2) 1.1149(3) -0.09017(10)
H22J H 0.9019 1.1123 -0.0814
C28J C 0.94600(19) 1.14520(27) -0.11037(9)
N7J N 1.01794(15) 1.26854(22) -0.08912(8)
C29J C 1.03261(19) 1.29181(28) -0.11079(10)
H23J H 1.0159 1.3072 -0.1170
C30J C 1.0714(2) 1.2942(3) -0.12449(10)
H24J H 1.0802 1.3108 -0.1395
C31J C 1.0962(2) 1.2718(3) -0.11567(11)
H25J H 1.1221 1.2727 -0.1246
C32J C 1.0826(2) 1.2478(3) -0.09312(11)
H26J H 1.0996 1.2329 -0.0866
C33J C 1.04280(19) 1.24659(27) -0.08040(10)
N8J N 0.99249(15) 1.22713(22) -0.04399(8)
N9J N 0.98737(16) 1.20264(23) -0.02257(8)
C34J C 1.0170(2) 1.1816(3) -0.02211(11)
H27J H 1.0194 1.1628 -0.0094
C35J C 1.0421(2) 1.1934(3) -0.04385(11)
H28J H 1.0651 1.1845 -0.0490
C36J C 1.02631(19) 1.22131(28) -0.05672(10)
C37J C 0.95290(19) 1.19800(28) -0.00326(10)
H29J H 0.9647 1.1926 0.0123
H30J H 0.9526 1.2290 -0.0021
N10J N 0.63487(16) 0.94798(28) 0.08964(8)
C38J C 0.6148(2) 0.9142(4) 0.10767(11)
H31J H 0.6255 0.8912 0.1094
C39J C 0.5798(2) 0.9114(4) 0.12359(13)
H32J H 0.5675 0.8875 0.1359
C40J C 0.5628(3) 0.9445(5) 0.12120(14)
H33J H 0.5386 0.9431 0.1317
C41J C 0.5828(2) 0.9802(4) 0.10259(12)
H34J H 0.5719 1.0029 0.1005
C42J C 0.6186(2) 0.9814(4) 0.08743(10)
N11J N 0.67398(16) 1.01442(28) 0.05302(8)
N12J N 0.68710(16) 1.05119(28) 0.03629(8)
C43J C 0.6628(2) 1.0760(4) 0.04014(12)
H35J H 0.6657 1.1023 0.0308
C44J C 0.6327(2) 1.0557(4) 0.06030(12)
H36J H 0.6117 1.0654 0.0675
C45J C 0.6406(2) 1.0171(4) 0.06761(11)
C46J C 0.7235(2) 1.0606(4) 0.01740(10)
H37J H 0.7131 1.0697 0.0024
H38J H 0.7236 1.0300 0.0142
C47J C 0.7759(2) 1.1006(3) 0.02317(10)
C48J C 0.7881(2) 1.1271(3) 0.04442(10)
H39J H 0.7638 1.1205 0.0561
C49J C 0.8369(2) 1.1641(4) 0.04885(11)
H40J H 0.8446 1.1823 0.0634
C50J C 0.8735(2) 1.1743(3) 0.03238(10)
H41J H 0.9057 1.1993 0.0357
C51J C 0.8632(2) 1.1473(3) 0.01009(10)
C52J C 0.8135(2) 1.1094(3) 0.00550(10)
C53J C 0.8031(2) 1.0820(3) -0.01662(10)
H42J H 0.7704 1.0584 -0.0204
C54J C 0.8399(2) 1.0894(3) -0.03238(10)
H43J H 0.8325 1.0695 -0.0463
C55J C 0.8890(2) 1.1266(3) -0.02787(10)
H44J H 0.9138 1.1311 -0.0389
C56J C 0.9009(2) 1.1565(3) -0.00740(10)
Co1K Co 0.73474(4) 0.69642(3) -0.065666(13)
N1K N 0.74791(23) 0.65085(16) -0.04116(8)
C1K C 0.7213(3) 0.6285(2) -0.02090(11)
H1K H 0.6941 0.6321 -0.0170
C2K C 0.7329(4) 0.6002(3) -0.00566(12)
H2K H 0.7137 0.5853 0.0083
C3K C 0.7720(3) 0.5939(2) -0.01094(12)
H3K H 0.7803 0.5753 -0.0007
C4K C 0.7992(3) 0.6159(2) -0.03207(11)
H4K H 0.8256 0.6115 -0.0365
C5K C 0.7866(3) 0.6445(2) -0.04648(10)
N2K N 0.79926(23) 0.69717(16) -0.08111(8)
N3K N 0.82871(23) 0.71337(16) -0.10152(8)
C6K C 0.8609(3) 0.6960(2) -0.10185(11)
H5K H 0.8849 0.7027 -0.1138
C7K C 0.8516(3) 0.6669(2) -0.08139(10)
H6K H 0.8678 0.6499 -0.0766
C8K C 0.81287(26) 0.66848(19) -0.06924(10)
C9K C 0.82613(27) 0.74754(19) -0.11866(10)
H7K H 0.8390 0.7446 -0.1344
H8K H 0.7917 0.7383 -0.1209
N4K N 1.01399(29) 1.06258(17) -0.20167(9)
C10K C 1.0452(5) 1.0810(3) -0.22044(13)
H9K H 1.0654 1.0676 -0.2239
C11K C 1.0492(5) 1.1192(3) -0.23515(13)
H10K H 1.0724 1.1319 -0.2478
C12K C 1.0185(4) 1.1377(2) -0.23081(12)
H11K H 1.0197 1.1627 -0.2407
C13K C 0.9860(4) 1.1193(2) -0.21173(11)
H12K H 0.9648 1.1316 -0.2084
C14K C 0.98460(34) 1.08207(19) -0.19727(10)
N5K N 0.95520(23) 1.02679(16) -0.16227(8)
N6K N 0.92141(23) 1.01494(16) -0.14415(9)
C15K C 0.8963(3) 1.0394(2) -0.14706(12)
H13K H 0.8711 1.0369 -0.1369
C16K C 0.91423(28) 1.06853(19) -0.16739(11)
H14K H 0.9039 1.0895 -0.1740
C17K C 0.95074(27) 1.06034(18) -0.17606(10)
C18K C 0.9151(3) 0.9791(2) -0.12514(11)
H15K H 0.9472 0.9828 -0.1214
H16K H 0.9028 0.9867 -0.1103
C19K C 0.88013(27) 0.92610(19) -0.13211(10)
C20K C 0.85054(28) 0.9129(2) -0.15235(10)
H17K H 0.8505 0.9375 -0.1621
C21K C 0.81999(26) 0.86269(19) -0.15885(10)
H18K H 0.7988 0.8543 -0.1723
C22K C 0.82155(26) 0.82650(19) -0.14550(10)
H19K H 0.8024 0.7936 -0.1504
C23K C 0.85143(27) 0.83769(19) -0.12440(9)
C24K C 0.8805(3) 0.8884(2) -0.11701(9)
C25K C 0.9098(3) 0.9006(2) -0.09542(10)
H20K H 0.9271 0.9333 -0.0900
C26K C 0.9125(3) 0.8640(2) -0.08251(11)
H21K H 0.9326 0.8723 -0.0686
C27K C 0.8851(3) 0.8139(2) -0.09017(10)
H22K H 0.8877 0.7896 -0.0814
C28K C 0.85480(27) 0.80080(19) -0.11037(9)
N7K N 0.73146(22) 0.74940(16) -0.08912(8)
C29K C 0.70819(28) 0.7408(2) -0.11079(10)
H23K H 0.6928 0.7087 -0.1170
C30K C 0.7058(3) 0.7772(2) -0.12449(10)
H24K H 0.6892 0.7694 -0.1395
C31K C 0.7282(3) 0.8244(2) -0.11567(11)
H25K H 0.7273 0.8494 -0.1246
C32K C 0.7522(3) 0.8348(2) -0.09312(11)
H26K H 0.7671 0.8667 -0.0866
C33K C 0.75341(27) 0.79621(19) -0.08040(10)
N8K N 0.77287(22) 0.76536(16) -0.04399(8)
N9K N 0.79736(23) 0.78473(17) -0.02257(8)
C34K C 0.8184(3) 0.8354(2) -0.02211(11)
H27K H 0.8372 0.8566 -0.0094
C35K C 0.8066(3) 0.8487(2) -0.04385(11)
H28K H 0.8155 0.8806 -0.0490
C36K C 0.77869(28) 0.8050(2) -0.05672(10)
C37K C 0.80200(28) 0.7549(2) -0.00326(10)
H29K H 0.8074 0.7721 0.0123
H30K H 0.7710 0.7236 -0.0021
N10K N 1.05202(28) 0.68689(23) 0.08964(8)
C38K C 1.0858(4) 0.7006(3) 0.10767(11)
H31K H 1.1088 0.7343 0.1094
C39K C 1.0886(4) 0.6684(4) 0.12359(13)
H32K H 1.1125 0.6800 0.1359
C40K C 1.0555(5) 0.6183(4) 0.12120(14)
H33K H 1.0569 0.5955 0.1317
C41K C 1.0198(4) 0.6026(4) 0.10259(12)
H34K H 0.9971 0.5690 0.1005
C42K C 1.0186(4) 0.6372(3) 0.08743(10)
N11K N 0.98558(28) 0.65956(23) 0.05302(8)
N12K N 0.94881(28) 0.63591(23) 0.03629(8)
C43K C 0.9240(4) 0.5868(3) 0.04014(12)
H35K H 0.8977 0.5634 0.0308
C44K C 0.9443(4) 0.5770(3) 0.06030(12)
H36K H 0.9346 0.5463 0.0675
C45K C 0.9829(4) 0.6235(3) 0.06761(11)
C46K C 0.9394(4) 0.6629(3) 0.01740(10)
H37K H 0.9303 0.6434 0.0024
H38K H 0.9700 0.6936 0.0142
C47K C 0.8994(3) 0.6753(2) 0.02317(10)
C48K C 0.8729(3) 0.6610(2) 0.04442(10)
H39K H 0.8795 0.6433 0.0561
C49K C 0.8359(4) 0.6728(3) 0.04885(11)
H40K H 0.8177 0.6623 0.0634
C50K C 0.8257(3) 0.6992(2) 0.03238(10)
H41K H 0.8007 0.7064 0.0357
C51K C 0.8527(3) 0.7159(2) 0.01009(10)
C52K C 0.8906(3) 0.7041(2) 0.00550(10)
C53K C 0.9180(3) 0.7211(2) -0.01662(10)
H42K H 0.9416 0.7120 -0.0204
C54K C 0.9106(3) 0.7505(2) -0.03238(10)
H43K H 0.9305 0.7630 -0.0463
C55K C 0.8734(3) 0.7624(2) -0.02787(10)
H44K H 0.8689 0.7827 -0.0389
C56K C 0.8435(3) 0.7444(2) -0.00740(10)
B1 B 0.7315(2) 0.7254(2) 0.14858(12)
C57 C 0.69897(11) 0.75497(11) 0.15353(7)
C58 C 0.65001(12) 0.73421(10) 0.14576(7)
H45 H 0.6343 0.7032 0.1383
C59 C 0.62452(10) 0.75986(13) 0.14914(7)
H46 H 0.5918 0.7460 0.1439
C60 C 0.64799(13) 0.80628(13) 0.16031(7)
H47 H 0.6309 0.8234 0.1626
C61 C 0.69696(13) 0.82704(10) 0.16809(7)
H48 H 0.7127 0.8581 0.1756
C62 C 0.72245(10) 0.80138(11) 0.16470(6)
H49 H 0.7552 0.8153 0.1699
C63 C 0.76128(11) 0.74903(12) 0.12123(5)
C64 C 0.73230(9) 0.73674(13) 0.10011(6)
H50 H 0.6982 0.7154 0.1011
C65 C 0.75430(13) 0.75634(14) 0.07751(5)
H51 H 0.7349 0.7481 0.0634
C66 C 0.80527(13) 0.78825(13) 0.07603(5)
H52 H 0.8200 0.8014 0.0609
C67 C 0.83425(10) 0.80055(12) 0.09715(6)
H53 H 0.8684 0.8219 0.0962
C68 C 0.81226(11) 0.78094(12) 0.11974(5)
H54 H 0.8316 0.7892 0.1339
C69 C 0.77182(11) 0.73250(13) 0.17128(5)
C70 C 0.80858(13) 0.72095(13) 0.16596(5)
H55 H 0.8107 0.7102 0.1503
C71 C 0.84213(11) 0.72544(13) 0.18408(7)
H56 H 0.8667 0.7177 0.1805
C72 C 0.83890(12) 0.74150(14) 0.20751(6)
H57 H 0.8613 0.7445 0.2196
C73 C 0.80214(14) 0.75305(13) 0.21283(5)
H58 H 0.8000 0.7638 0.2285
C74 C 0.76859(12) 0.74856(13) 0.19471(6)
H59 H 0.7440 0.7563 0.1983
C75 C 0.69364(11) 0.66349(8) 0.14605(6)
C76 C 0.70311(11) 0.63614(11) 0.12889(6)
H60 H 0.7309 0.6519 0.1188
C77 C 0.67109(14) 0.58527(11) 0.12684(6)
H61 H 0.6774 0.5670 0.1154
C78 C 0.62960(12) 0.56176(8) 0.14195(7)
H62 H 0.6082 0.5277 0.1406
C79 C 0.62013(11) 0.58911(11) 0.15912(6)
H63 H 0.5924 0.5734 0.1692
C80 C 0.65214(12) 0.63997(11) 0.16117(6)
H64 H 0.6458 0.6583 0.1727
B2 B 0.0394(6) 0.8445(6) 0.2946(3)
C81 C 0.0705(8) 0.8823(9) 0.3179(4)
C82 C 0.0450(6) 0.8822(8) 0.3389(4)
H65 H 0.0105 0.8640 0.3392
C83 C 0.0711(8) 0.9093(9) 0.3594(4)
H66 H 0.0540 0.9093 0.3735
C84 C 0.1226(8) 0.9365(8) 0.3590(4)
H67 H 0.1401 0.9547 0.3727
C85 C 0.1481(6) 0.9366(8) 0.3379(4)
H68 H 0.1826 0.9548 0.3376
C86 C 0.1221(8) 0.9095(9) 0.3174(4)
C87 C 0.0268(3) 0.7852(2) 0.29418(14)
C88 C 0.0476(3) 0.7692(2) 0.31202(13)
H69 H 0.0675 0.7908 0.3243
C89 C 0.0388(3) 0.7207(3) 0.31150(13)
H70 H 0.0527 0.7100 0.3234
C90 C 0.0091(3) 0.6883(2) 0.29314(14)
H71 H 0.0032 0.6559 0.2928
C91 C -0.0117(3) 0.7044(2) 0.27530(13)
H72 H -0.0315 0.6827 0.2630
C92 C -0.0028(3) 0.7528(3) 0.27582(13)
H73 H -0.0167 0.7636 0.2639
C93 C -0.0116(3) 0.8502(4) 0.2966(2)
C94 C -0.0590(4) 0.8117(3) 0.2911(2)
H74 H -0.0636 0.7813 0.2857
C95 C -0.0996(3) 0.8186(3) 0.29371(19)
H75 H -0.1313 0.7929 0.2900
C96 C -0.0928(3) 0.8640(4) 0.3018(2)
H76 H -0.1199 0.8686 0.3036
C97 C -0.0453(4) 0.9025(3) 0.30730(19)
H77 H -0.0408 0.9328 0.3127
C98 C -0.0048(3) 0.8955(3) 0.3047(2)
H78 H 0.0270 0.9213 0.3084
C99 C 0.0760(3) 0.8746(3) 0.26935(13)
C100 C 0.0940(3) 0.8510(2) 0.25434(15)
H79 H 0.0848 0.8180 0.2573
C101 C 0.1257(3) 0.8765(3) 0.23495(14)
H80 H 0.1377 0.8607 0.2249
C102 C 0.1394(3) 0.9258(3) 0.23056(15)
H81 H 0.1606 0.9429 0.2176
C103 C 0.1214(3) 0.9494(2) 0.24556(17)
H82 H 0.1306 0.9824 0.2426
C104 C 0.0897(3) 0.9239(3) 0.26495(14)
H83 H 0.0777 0.9397 0.2750
B3? B 0.0690(7) 0.8811(7) 0.3010(4)
C105? C 0.0888(4) 0.8525(4) 0.3201(2)
C106? C 0.1377(4) 0.8630(4) 0.31864(19)
H84? H 0.1587 0.8846 0.3066
C107? C 0.1553(3) 0.8412(4) 0.3351(2)
H85? H 0.1880 0.8482 0.3341
C108? C 0.1240(4) 0.8089(4) 0.3531(2)
H86? H 0.1357 0.7943 0.3641
C109? C 0.0750(4) 0.7984(4) 0.35453(19)
H87? H 0.0541 0.7768 0.3665
C110? C 0.0575(3) 0.8202(4) 0.3380(2)
H88? H 0.0247 0.8131 0.3390
C111? C 0.0759(4) 0.9288(3) 0.31951(17)
C112? C 0.0425(3) 0.9193(3) 0.3385(2)
H89? H 0.0140 0.8883 0.3398
C113? C 0.0515(3) 0.9561(4) 0.35561(17)
H90? H 0.0291 0.9498 0.3683
C114? C 0.0940(4) 1.0025(3) 0.35366(17)
H91? H 0.1000 1.0272 0.3651
C115? C 0.1274(3) 1.0120(3) 0.33463(19)
H92? H 0.1558 1.0431 0.3333
C116? C 0.1184(3) 0.9752(4) 0.31756(17)
H93? H 0.1408 0.9816 0.3048
C117? C 0.0084(3) 0.8425(3) 0.29286(19)
C118? C -0.0023(3) 0.7973(3) 0.28256(19)
H94? H 0.0225 0.7890 0.2812
C119? C -0.0500(3) 0.7645(3) 0.27431(17)
H95? H -0.0572 0.7343 0.2674
C120? C -0.0871(3) 0.7769(3) 0.27635(18)
H96? H -0.1190 0.7550 0.2708
C121? C -0.0763(3) 0.8221(3) 0.28665(19)
H97? H -0.1011 0.8304 0.2880
C122? C -0.0286(4) 0.8549(3) 0.29491(19)
H98? H -0.0214 0.8851 0.3018
C123? C 0.0993(4) 0.8984(4) 0.27361(13)
C124? C 0.1119(4) 0.8657(3) 0.26277(17)
H99? H 0.1064 0.8373 0.2712
C125? C 0.1327(4) 0.8754(3) 0.23938(18)
H100? H 0.1411 0.8535 0.2321
C126? C 0.1410(4) 0.9178(4) 0.22683(15)
H101? H 0.1549 0.9242 0.2112
C127? C 0.1284(4) 0.9505(3) 0.23767(18)
H102? H 0.1340 0.9788 0.2293
C128? C 0.1076(4) 0.9408(3) 0.26106(17)
H103? H 0.0992 0.9626 0.2683
C129? C 0.0545(6) 0.8553(8) 0.3446(4)
H104? H 0.0204 0.8421 0.3457
C130? C 0.0824(7) 0.8617(8) 0.3657(3)
H105? H 0.0668 0.8528 0.3809
C131? C 0.1334(7) 0.8815(8) 0.3640(3)
H106? H 0.1520 0.8858 0.3781
C132? C 0.1566(6) 0.8948(8) 0.3412(4)
H107? H 0.1908 0.9080 0.3400
C133? C 0.1288(8) 0.8883(8) 0.3201(3)
H108? H 0.1391 0.9096 0.3033
C134? C 0.0778(7) 0.8686(9) 0.3218(3)
H109? H 0.1444 0.8972 0.3048
loop_
_geom_bond_atom_site_label_1
_geom_bond_atom_site_label_2
_geom_bond_site_symmetry_1
_geom_bond_site_symmetry_2
Co1 N1 1_555 1_555
Co2 N4 1_555 1_555
N1 C1 1_555 1_555
C1 H1 1_555 1_555
C2 C1 1_555 1_555
H2 C2 1_555 1_555
C3 C2 1_555 1_555
H3 C3 1_555 1_555
C4 C3 1_555 1_555
H4 C4 1_555 1_555
C5 N1 1_555 1_555
N2 Co1 1_555 1_555
N3 N2 1_555 1_555
C6 N3 1_555 1_555
H5 C6 1_555 1_555
C7 C6 1_555 1_555
H6 C7 1_555 1_555
C8 C5 1_555 1_555
C9 N3 1_555 1_555
H7 C9 1_555 1_555
H8 C9 1_555 1_555
N4 C10 1_555 1_555
C10 H9 1_555 1_555
C11 C10 1_555 1_555
H10 C11 1_555 1_555
C12 C11 1_555 1_555
H11 C12 1_555 1_555
C13 C12 1_555 1_555
H12 C13 1_555 1_555
C14 N4 1_555 1_555
N5 Co2 1_555 1_555
N6 N5 1_555 1_555
C15 N6 1_555 1_555
H13 C15 1_555 1_555
C16 C15 1_555 1_555
H14 C16 1_555 1_555
C17 C14 1_555 1_555
C18 N6 1_555 1_555
H15 C18 1_555 1_555
H16 C18 1_555 1_555
C19 C18 1_555 1_555
C20 C19 1_555 1_555
H17 C20 1_555 1_555
C21 C20 1_555 1_555
H18 C21 1_555 1_555
C22 C21 1_555 1_555
H19 C22 1_555 1_555
C23 C22 1_555 1_555
C24 C19 1_555 1_555
C25 C24 1_555 1_555
H20 C25 1_555 1_555
C26 C25 1_555 1_555
H21 C26 1_555 1_555
C27 C26 1_555 1_555
H22 C27 1_555 1_555
C28 C9 1_555 1_555
N7 Co1 1_555 1_555
C29 N7 1_555 1_555
H23 C29 1_555 1_555
C30 C29 1_555 1_555
H24 C30 1_555 1_555
C31 C30 1_555 1_555
H25 C31 1_555 1_555
C32 C31 1_555 1_555
H26 C32 1_555 1_555
C33 N7 1_555 1_555
N8 Co1 1_555 1_555
N9 N8 1_555 1_555
C34 N9 1_555 1_555
H27 C34 1_555 1_555
C35 C34 1_555 1_555
H28 C35 1_555 1_555
C36 C33 1_555 1_555
C37 N9 1_555 1_555
H29 C37 1_555 1_555
H30 C37 1_555 1_555
N10 C38 1_555 1_555
C38 H31 1_555 1_555
C39 C38 1_555 1_555
H32 C39 1_555 1_555
C40 C39 1_555 1_555
H33 C40 1_555 1_555
C41 C40 1_555 1_555
H34 C41 1_555 1_555
C42 N10 1_555 1_555
N11 N12 1_555 1_555
N12 C43 1_555 1_555
C43 H35 1_555 1_555
C44 C43 1_555 1_555
H36 C44 1_555 1_555
C45 C42 1_555 1_555
C46 N12 1_555 1_555
H37 C46 1_555 1_555
H38 C46 1_555 1_555
C47 C46 1_555 1_555
C48 C47 1_555 1_555
H39 C48 1_555 1_555
C49 C48 1_555 1_555
H40 C49 1_555 1_555
C50 C49 1_555 1_555
H41 C50 1_555 1_555
C51 C50 1_555 1_555
C52 C47 1_555 1_555
C53 C52 1_555 1_555
H42 C53 1_555 1_555
C54 C53 1_555 1_555
H43 C54 1_555 1_555
C55 C54 1_555 1_555
H44 C55 1_555 1_555
C56 C37 1_555 1_555
B1 C57 1_555 1_555
C57 C58 1_555 1_555
C58 H45 1_555 1_555
C59 C58 1_555 1_555
H46 C59 1_555 1_555
C60 C59 1_555 1_555
H47 C60 1_555 1_555
C61 C60 1_555 1_555
H48 C61 1_555 1_555
C62 C57 1_555 1_555
H49 C62 1_555 1_555
C63 B1 1_555 1_555
C64 C63 1_555 1_555
H50 C64 1_555 1_555
C65 C64 1_555 1_555
H51 C65 1_555 1_555
C66 C65 1_555 1_555
H52 C66 1_555 1_555
C67 C66 1_555 1_555
H53 C67 1_555 1_555
C68 C63 1_555 1_555
H54 C68 1_555 1_555
C69 B1 1_555 1_555
C70 C69 1_555 1_555
H55 C70 1_555 1_555
C71 C70 1_555 1_555
H56 C71 1_555 1_555
C72 C71 1_555 1_555
H57 C72 1_555 1_555
C73 C72 1_555 1_555
H58 C73 1_555 1_555
C74 C69 1_555 1_555
H59 C74 1_555 1_555
C75 B1 1_555 1_555
C76 C75 1_555 1_555
H60 C76 1_555 1_555
C77 C76 1_555 1_555
H61 C77 1_555 1_555
C78 C77 1_555 1_555
H62 C78 1_555 1_555
C79 C78 1_555 1_555
H63 C79 1_555 1_555
C80 C75 1_555 1_555
H64 C80 1_555 1_555
B2 C81 1_555 1_555
C81 C82 1_555 1_555
C82 H65 1_555 1_555
C83 C82 1_555 1_555
H66 C83 1_555 1_555
C84 C83 1_555 1_555
H67 C84 1_555 1_555
C85 C84 1_555 1_555
H68 C85 1_555 1_555
C86 C81 1_555 1_555
C87 B2 1_555 1_555
C88 C87 1_555 1_555
H69 C88 1_555 1_555
C89 C88 1_555 1_555
H70 C89 1_555 1_555
C90 C89 1_555 1_555
H71 C90 1_555 1_555
C91 C90 1_555 1_555
H72 C91 1_555 1_555
C92 C87 1_555 1_555
H73 C92 1_555 1_555
C93 B2 1_555 1_555
C94 C93 1_555 1_555
H74 C94 1_555 1_555
C95 C94 1_555 1_555
H75 C95 1_555 1_555
C96 C95 1_555 1_555
H76 C96 1_555 1_555
C97 C96 1_555 1_555
H77 C97 1_555 1_555
C98 C93 1_555 1_555
H78 C98 1_555 1_555
C99 B2 1_555 1_555
C100 C99 1_555 1_555
H79 C100 1_555 1_555
C101 C100 1_555 1_555
H80 C101 1_555 1_555
C102 C101 1_555 1_555
H81 C102 1_555 1_555
C103 C102 1_555 1_555
H82 C103 1_555 1_555
C104 C99 1_555 1_555
H83 C104 1_555 1_555
Co1A N1A 1_555 1_555
N1A C1A 1_555 1_555
C1A H1A 1_555 1_555
C2A C1A 1_555 1_555
H2A C2A 1_555 1_555
C3A C2A 1_555 1_555
H3A C3A 1_555 1_555
C4A C3A 1_555 1_555
H4A C4A 1_555 1_555
C5A N1A 1_555 1_555
N2A Co1A 1_555 1_555
N3A N2A 1_555 1_555
C6A N3A 1_555 1_555
H5A C6A 1_555 1_555
C7A C6A 1_555 1_555
H6A C7A 1_555 1_555
C8A C5A 1_555 1_555
C9A N3A 1_555 1_555
H7A C9A 1_555 1_555
H8A C9A 1_555 1_555
N4A Co2 1_555 1_555
C10A N4A 1_555 1_555
H9A C10A 1_555 1_555
C11A C10A 1_555 1_555
H10A C11A 1_555 1_555
C12A C11A 1_555 1_555
H11A C12A 1_555 1_555
C13A C12A 1_555 1_555
H12A C13A 1_555 1_555
C14A N4A 1_555 1_555
N5A Co2 1_555 1_555
N6A N5A 1_555 1_555
C15A N6A 1_555 1_555
H13A C15A 1_555 1_555
C16A C15A 1_555 1_555
H14A C16A 1_555 1_555
C17A C14A 1_555 1_555
C18A N6A 1_555 1_555
H15A C18A 1_555 1_555
H16A C18A 1_555 1_555
C19A C18A 1_555 1_555
C20A C19A 1_555 1_555
H17A C20A 1_555 1_555
C21A C20A 1_555 1_555
H18A C21A 1_555 1_555
C22A C21A 1_555 1_555
H19A C22A 1_555 1_555
C23A C22A 1_555 1_555
C24A C19A 1_555 1_555
C25A C24A 1_555 1_555
H20A C25A 1_555 1_555
C26A C25A 1_555 1_555
H21A C26A 1_555 1_555
C27A C26A 1_555 1_555
H22A C27A 1_555 1_555
C28A C9A 1_555 1_555
N7A Co1A 1_555 1_555
C29A N7A 1_555 1_555
H23A C29A 1_555 1_555
C30A C29A 1_555 1_555
H24A C30A 1_555 1_555
C31A C30A 1_555 1_555
H25A C31A 1_555 1_555
C32A C31A 1_555 1_555
H26A C32A 1_555 1_555
C33A N7A 1_555 1_555
N8A Co1A 1_555 1_555
N9A N8A 1_555 1_555
C34A N9A 1_555 1_555
H27A C34A 1_555 1_555
C35A C34A 1_555 1_555
H28A C35A 1_555 1_555
C36A C33A 1_555 1_555
C37A N9A 1_555 1_555
H29A C37A 1_555 1_555
H30A C37A 1_555 1_555
N10A C38A 1_555 1_555
C38A H31A 1_555 1_555
C39A C38A 1_555 1_555
H32A C39A 1_555 1_555
C40A C39A 1_555 1_555
H33A C40A 1_555 1_555
C41A C40A 1_555 1_555
H34A C41A 1_555 1_555
C42A N10A 1_555 1_555
N11A N12A 1_555 1_555
N12A C43A 1_555 1_555
C43A H35A 1_555 1_555
C44A C43A 1_555 1_555
H36A C44A 1_555 1_555
C45A C42A 1_555 1_555
C46A N12A 1_555 1_555
H37A C46A 1_555 1_555
H38A C46A 1_555 1_555
C47A C46A 1_555 1_555
C48A C47A 1_555 1_555
H39A C48A 1_555 1_555
C49A C48A 1_555 1_555
H40A C49A 1_555 1_555
C50A C49A 1_555 1_555
H41A C50A 1_555 1_555
C51A C50A 1_555 1_555
C52A C47A 1_555 1_555
C53A C52A 1_555 1_555
H42A C53A 1_555 1_555
C54A C53A 1_555 1_555
H43A C54A 1_555 1_555
C55A C54A 1_555 1_555
H44A C55A 1_555 1_555
C56A C37A 1_555 1_555
Co1B N1B 1_555 1_555
N1B C1B 1_555 1_555
C1B H1B 1_555 1_555
C2B C1B 1_555 1_555
H2B C2B 1_555 1_555
C3B C2B 1_555 1_555
H3B C3B 1_555 1_555
C4B C3B 1_555 1_555
H4B C4B 1_555 1_555
C5B N1B 1_555 1_555
N2B Co1B 1_555 1_555
N3B N2B 1_555 1_555
C6B N3B 1_555 1_555
H5B C6B 1_555 1_555
C7B C6B 1_555 1_555
H6B C7B 1_555 1_555
C8B C5B 1_555 1_555
C9B N3B 1_555 1_555
H7B C9B 1_555 1_555
H8B C9B 1_555 1_555
N4B Co2 1_555 1_555
C10B N4B 1_555 1_555
H9B C10B 1_555 1_555
C11B C10B 1_555 1_555
H10B C11B 1_555 1_555
C12B C11B 1_555 1_555
H11B C12B 1_555 1_555
C13B C12B 1_555 1_555
H12B C13B 1_555 1_555
C14B N4B 1_555 1_555
N5B Co2 1_555 1_555
N6B N5B 1_555 1_555
C15B N6B 1_555 1_555
H13B C15B 1_555 1_555
C16B C15B 1_555 1_555
H14B C16B 1_555 1_555
C17B C14B 1_555 1_555
C18B N6B 1_555 1_555
H15B C18B 1_555 1_555
H16B C18B 1_555 1_555
C19B C18B 1_555 1_555
C20B C19B 1_555 1_555
H17B C20B 1_555 1_555
C21B C20B 1_555 1_555
H18B C21B 1_555 1_555
C22B C21B 1_555 1_555
H19B C22B 1_555 1_555
C23B C22B 1_555 1_555
C24B C19B 1_555 1_555
C25B C24B 1_555 1_555
H20B C25B 1_555 1_555
C26B C25B 1_555 1_555
H21B C26B 1_555 1_555
C27B C26B 1_555 1_555
H22B C27B 1_555 1_555
C28B C9B 1_555 1_555
N7B Co1B 1_555 1_555
C29B N7B 1_555 1_555
H23B C29B 1_555 1_555
C30B C29B 1_555 1_555
H24B C30B 1_555 1_555
C31B C30B 1_555 1_555
H25B C31B 1_555 1_555
C32B C31B 1_555 1_555
H26B C32B 1_555 1_555
C33B N7B 1_555 1_555
N8B Co1B 1_555 1_555
N9B N8B 1_555 1_555
C34B N9B 1_555 1_555
H27B C34B 1_555 1_555
C35B C34B 1_555 1_555
H28B C35B 1_555 1_555
C36B C33B 1_555 1_555
C37B N9B 1_555 1_555
H29B C37B 1_555 1_555
H30B C37B 1_555 1_555
N10B C38B 1_555 1_555
C38B H31B 1_555 1_555
C39B C38B 1_555 1_555
H32B C39B 1_555 1_555
C40B C39B 1_555 1_555
H33B C40B 1_555 1_555
C41B C40B 1_555 1_555
H34B C41B 1_555 1_555
C42B N10B 1_555 1_555
N11B N12B 1_555 1_555
N12B C43B 1_555 1_555
C43B H35B 1_555 1_555
C44B C43B 1_555 1_555
H36B C44B 1_555 1_555
C45B C42B 1_555 1_555
C46B N12B 1_555 1_555
H37B C46B 1_555 1_555
H38B C46B 1_555 1_555
C47B C46B 1_555 1_555
C48B C47B 1_555 1_555
H39B C48B 1_555 1_555
C49B C48B 1_555 1_555
H40B C49B 1_555 1_555
C50B C49B 1_555 1_555
H41B C50B 1_555 1_555
C51B C50B 1_555 1_555
C52B C47B 1_555 1_555
C53B C52B 1_555 1_555
H42B C53B 1_555 1_555
C54B C53B 1_555 1_555
H43B C54B 1_555 1_555
C55B C54B 1_555 1_555
H44B C55B 1_555 1_555
C56B C37B 1_555 1_555
Co1I N10A 1_555 1_555
Co2I N4I 1_555 1_555
N1I Co1I 1_555 1_555
C1I N1I 1_555 1_555
H1I C1I 1_555 1_555
C2I C1I 1_555 1_555
H2I C2I 1_555 1_555
C3I C2I 1_555 1_555
H3I C3I 1_555 1_555
C4I C3I 1_555 1_555
H4I C4I 1_555 1_555
C5I N1I 1_555 1_555
N2I Co1I 1_555 1_555
N3I N2I 1_555 1_555
C6I N3I 1_555 1_555
H5I C6I 1_555 1_555
C7I C6I 1_555 1_555
H6I C7I 1_555 1_555
C8I C5I 1_555 1_555
C9I N3I 1_555 1_555
H7I C9I 1_555 1_555
H8I C9I 1_555 1_555
N4I C10I 1_555 1_555
C10I H9I 1_555 1_555
C11I C10I 1_555 1_555
H10I C11I 1_555 1_555
C12I C11I 1_555 1_555
H11I C12I 1_555 1_555
C13I C12I 1_555 1_555
H12I C13I 1_555 1_555
C14I N4I 1_555 1_555
N5I Co2I 1_555 1_555
N6I N5I 1_555 1_555
C15I N6I 1_555 1_555
H13I C15I 1_555 1_555
C16I C15I 1_555 1_555
H14I C16I 1_555 1_555
C17I C14I 1_555 1_555
C18I N6I 1_555 1_555
H15I C18I 1_555 1_555
H16I C18I 1_555 1_555
C19I C18I 1_555 1_555
C20I C19I 1_555 1_555
H17I C20I 1_555 1_555
C21I C20I 1_555 1_555
H18I C21I 1_555 1_555
C22I C21I 1_555 1_555
H19I C22I 1_555 1_555
C23I C22I 1_555 1_555
C24I C19I 1_555 1_555
C25I C24I 1_555 1_555
H20I C25I 1_555 1_555
C26I C25I 1_555 1_555
H21I C26I 1_555 1_555
C27I C26I 1_555 1_555
H22I C27I 1_555 1_555
C28I C9I 1_555 1_555
N7I Co1I 1_555 1_555
C29I N7I 1_555 1_555
H23I C29I 1_555 1_555
C30I C29I 1_555 1_555
H24I C30I 1_555 1_555
C31I C30I 1_555 1_555
H25I C31I 1_555 1_555
C32I C31I 1_555 1_555
H26I C32I 1_555 1_555
C33I N7I 1_555 1_555
N8I Co1I 1_555 1_555
N9I N8I 1_555 1_555
C34I N9I 1_555 1_555
H27I C34I 1_555 1_555
C35I C34I 1_555 1_555
H28I C35I 1_555 1_555
C36I C33I 1_555 1_555
C37I N9I 1_555 1_555
H29I C37I 1_555 1_555
H30I C37I 1_555 1_555
N10I Co1B 1_555 1_555
C38I N10I 1_555 1_555
H31I C38I 1_555 1_555
C39I C38I 1_555 1_555
H32I C39I 1_555 1_555
C40I C39I 1_555 1_555
H33I C40I 1_555 1_555
C41I C40I 1_555 1_555
H34I C41I 1_555 1_555
C42I N10I 1_555 1_555
N11I Co1B 1_555 1_555
N12I N11I 1_555 1_555
C43I N12I 1_555 1_555
H35I C43I 1_555 1_555
C44I C43I 1_555 1_555
H36I C44I 1_555 1_555
C45I C42I 1_555 1_555
C46I N12I 1_555 1_555
H37I C46I 1_555 1_555
H38I C46I 1_555 1_555
C47I C46I 1_555 1_555
C48I C47I 1_555 1_555
H39I C48I 1_555 1_555
C49I C48I 1_555 1_555
H40I C49I 1_555 1_555
C50I C49I 1_555 1_555
H41I C50I 1_555 1_555
C51I C50I 1_555 1_555
C52I C47I 1_555 1_555
C53I C52I 1_555 1_555
H42I C53I 1_555 1_555
C54I C53I 1_555 1_555
H43I C54I 1_555 1_555
C55I C54I 1_555 1_555
H44I C55I 1_555 1_555
C56I C37I 1_555 1_555
Co1J N10B 1_555 1_555
N1J Co1J 1_555 1_555
C1J N1J 1_555 1_555
H1J C1J 1_555 1_555
C2J C1J 1_555 1_555
H2J C2J 1_555 1_555
C3J C2J 1_555 1_555
H3J C3J 1_555 1_555
C4J C3J 1_555 1_555
H4J C4J 1_555 1_555
C5J N1J 1_555 1_555
N2J Co1J 1_555 1_555
N3J N2J 1_555 1_555
C6J N3J 1_555 1_555
H5J C6J 1_555 1_555
C7J C6J 1_555 1_555
H6J C7J 1_555 1_555
C8J C5J 1_555 1_555
C9J N3J 1_555 1_555
H7J C9J 1_555 1_555
H8J C9J 1_555 1_555
N4J Co2I 1_555 1_555
C10J N4J 1_555 1_555
H9J C10J 1_555 1_555
C11J C10J 1_555 1_555
H10J C11J 1_555 1_555
C12J C11J 1_555 1_555
H11J C12J 1_555 1_555
C13J C12J 1_555 1_555
H12J C13J 1_555 1_555
C14J N4J 1_555 1_555
N5J Co2I 1_555 1_555
N6J N5J 1_555 1_555
C15J N6J 1_555 1_555
H13J C15J 1_555 1_555
C16J C15J 1_555 1_555
H14J C16J 1_555 1_555
C17J C14J 1_555 1_555
C18J N6J 1_555 1_555
H15J C18J 1_555 1_555
H16J C18J 1_555 1_555
C19J C18J 1_555 1_555
C20J C19J 1_555 1_555
H17J C20J 1_555 1_555
C21J C20J 1_555 1_555
H18J C21J 1_555 1_555
C22J C21J 1_555 1_555
H19J C22J 1_555 1_555
C23J C22J 1_555 1_555
C24J C19J 1_555 1_555
C25J C24J 1_555 1_555
H20J C25J 1_555 1_555
C26J C25J 1_555 1_555
H21J C26J 1_555 1_555
C27J C26J 1_555 1_555
H22J C27J 1_555 1_555
C28J C9J 1_555 1_555
N7J Co1J 1_555 1_555
C29J N7J 1_555 1_555
H23J C29J 1_555 1_555
C30J C29J 1_555 1_555
H24J C30J 1_555 1_555
C31J C30J 1_555 1_555
H25J C31J 1_555 1_555
C32J C31J 1_555 1_555
H26J C32J 1_555 1_555
C33J N7J 1_555 1_555
N8J Co1J 1_555 1_555
N9J N8J 1_555 1_555
C34J N9J 1_555 1_555
H27J C34J 1_555 1_555
C35J C34J 1_555 1_555
H28J C35J 1_555 1_555
C36J C33J 1_555 1_555
C37J N9J 1_555 1_555
H29J C37J 1_555 1_555
H30J C37J 1_555 1_555
N10J Co1 1_555 1_555
C38J N10J 1_555 1_555
H31J C38J 1_555 1_555
C39J C38J 1_555 1_555
H32J C39J 1_555 1_555
C40J C39J 1_555 1_555
H33J C40J 1_555 1_555
C41J C40J 1_555 1_555
H34J C41J 1_555 1_555
C42J N10J 1_555 1_555
N11J Co1 1_555 1_555
N12J N11J 1_555 1_555
C43J N12J 1_555 1_555
H35J C43J 1_555 1_555
C44J C43J 1_555 1_555
H36J C44J 1_555 1_555
C45J C42J 1_555 1_555
C46J N12J 1_555 1_555
H37J C46J 1_555 1_555
H38J C46J 1_555 1_555
C47J C46J 1_555 1_555
C48J C47J 1_555 1_555
H39J C48J 1_555 1_555
C49J C48J 1_555 1_555
H40J C49J 1_555 1_555
C50J C49J 1_555 1_555
H41J C50J 1_555 1_555
C51J C50J 1_555 1_555
C52J C47J 1_555 1_555
C53J C52J 1_555 1_555
H42J C53J 1_555 1_555
C54J C53J 1_555 1_555
H43J C54J 1_555 1_555
C55J C54J 1_555 1_555
H44J C55J 1_555 1_555
C56J C37J 1_555 1_555
Co1K N10 1_555 1_555
N1K Co1K 1_555 1_555
C1K N1K 1_555 1_555
H1K C1K 1_555 1_555
C2K C1K 1_555 1_555
H2K C2K 1_555 1_555
C3K C2K 1_555 1_555
H3K C3K 1_555 1_555
C4K C3K 1_555 1_555
H4K C4K 1_555 1_555
C5K N1K 1_555 1_555
N2K Co1K 1_555 1_555
N3K N2K 1_555 1_555
C6K N3K 1_555 1_555
H5K C6K 1_555 1_555
C7K C6K 1_555 1_555
H6K C7K 1_555 1_555
C8K C5K 1_555 1_555
C9K N3K 1_555 1_555
H7K C9K 1_555 1_555
H8K C9K 1_555 1_555
N4K Co2I 1_555 1_555
C10K N4K 1_555 1_555
H9K C10K 1_555 1_555
C11K C10K 1_555 1_555
H10K C11K 1_555 1_555
C12K C11K 1_555 1_555
H11K C12K 1_555 1_555
C13K C12K 1_555 1_555
H12K C13K 1_555 1_555
C14K N4K 1_555 1_555
N5K Co2I 1_555 1_555
N6K N5K 1_555 1_555
C15K N6K 1_555 1_555
H13K C15K 1_555 1_555
C16K C15K 1_555 1_555
H14K C16K 1_555 1_555
C17K C14K 1_555 1_555
C18K N6K 1_555 1_555
H15K C18K 1_555 1_555
H16K C18K 1_555 1_555
C19K C18K 1_555 1_555
C20K C19K 1_555 1_555
H17K C20K 1_555 1_555
C21K C20K 1_555 1_555
H18K C21K 1_555 1_555
C22K C21K 1_555 1_555
H19K C22K 1_555 1_555
C23K C22K 1_555 1_555
C24K C19K 1_555 1_555
C25K C24K 1_555 1_555
H20K C25K 1_555 1_555
C26K C25K 1_555 1_555
H21K C26K 1_555 1_555
C27K C26K 1_555 1_555
H22K C27K 1_555 1_555
C28K C9K 1_555 1_555
N7K Co1K 1_555 1_555
C29K N7K 1_555 1_555
H23K C29K 1_555 1_555
C30K C29K 1_555 1_555
H24K C30K 1_555 1_555
C31K C30K 1_555 1_555
H25K C31K 1_555 1_555
C32K C31K 1_555 1_555
H26K C32K 1_555 1_555
C33K N7K 1_555 1_555
N8K Co1K 1_555 1_555
N9K N8K 1_555 1_555
C34K N9K 1_555 1_555
H27K C34K 1_555 1_555
C35K C34K 1_555 1_555
H28K C35K 1_555 1_555
C36K C33K 1_555 1_555
C37K N9K 1_555 1_555
H29K C37K 1_555 1_555
H30K C37K 1_555 1_555
N10K Co1A 1_555 1_555
C38K N10K 1_555 1_555
H31K C38K 1_555 1_555
C39K C38K 1_555 1_555
H32K C39K 1_555 1_555
C40K C39K 1_555 1_555
H33K C40K 1_555 1_555
C41K C40K 1_555 1_555
H34K C41K 1_555 1_555
C42K N10K 1_555 1_555
N11K Co1A 1_555 1_555
N12K N11K 1_555 1_555
C43K N12K 1_555 1_555
H35K C43K 1_555 1_555
C44K C43K 1_555 1_555
H36K C44K 1_555 1_555
C45K C42K 1_555 1_555
C46K N12K 1_555 1_555
H37K C46K 1_555 1_555
H38K C46K 1_555 1_555
C47K C46K 1_555 1_555
C48K C47K 1_555 1_555
H39K C48K 1_555 1_555
C49K C48K 1_555 1_555
H40K C49K 1_555 1_555
C50K C49K 1_555 1_555
H41K C50K 1_555 1_555
C51K C50K 1_555 1_555
C52K C47K 1_555 1_555
C53K C52K 1_555 1_555
H42K C53K 1_555 1_555
C54K C53K 1_555 1_555
H43K C54K 1_555 1_555
C55K C54K 1_555 1_555
H44K C55K 1_555 1_555
C56K C37K 1_555 1_555
C4 C5 1_555 1_555
N2 C8 1_555 1_555
C7 C8 1_555 1_555
C13 C14 1_555 1_555
N5 C17 1_555 1_555
C16 C17 1_555 1_555
C23 C24 1_555 1_555
C23 C28 1_555 1_555
C27 C28 1_555 1_555
C32 C33 1_555 1_555
N8 C36 1_555 1_555
C35 C36 1_555 1_555
C41 C42 1_555 1_555
N11 C45 1_555 1_555
N11 Co1K 1_555 1_555
C44 C45 1_555 1_555
C51 C52 1_555 1_555
C51 C56 1_555 1_555
C55 C56 1_555 1_555
C61 C62 1_555 1_555
C67 C68 1_555 1_555
C73 C74 1_555 1_555
C79 C80 1_555 1_555
C85 C86 1_555 1_555
C91 C92 1_555 1_555
C97 C98 1_555 1_555
C103 C104 1_555 1_555
C4A C5A 1_555 1_555
N2A C8A 1_555 1_555
C7A C8A 1_555 1_555
C13A C14A 1_555 1_555
N5A C17A 1_555 1_555
C16A C17A 1_555 1_555
C23A C24A 1_555 1_555
C23A C28A 1_555 1_555
C27A C28A 1_555 1_555
C32A C33A 1_555 1_555
N8A C36A 1_555 1_555
C35A C36A 1_555 1_555
C41A C42A 1_555 1_555
N11A C45A 1_555 1_555
N11A Co1I 1_555 1_555
C44A C45A 1_555 1_555
C51A C52A 1_555 1_555
C51A C56A 1_555 1_555
C55A C56A 1_555 1_555
C4B C5B 1_555 1_555
N2B C8B 1_555 1_555
C7B C8B 1_555 1_555
C13B C14B 1_555 1_555
N5B C17B 1_555 1_555
C16B C17B 1_555 1_555
C23B C24B 1_555 1_555
C23B C28B 1_555 1_555
C27B C28B 1_555 1_555
C32B C33B 1_555 1_555
N8B C36B 1_555 1_555
C35B C36B 1_555 1_555
C41B C42B 1_555 1_555
N11B C45B 1_555 1_555
N11B Co1J 1_555 1_555
C44B C45B 1_555 1_555
C51B C52B 1_555 1_555
C51B C56B 1_555 1_555
C55B C56B 1_555 1_555
C4I C5I 1_555 1_555
N2I C8I 1_555 1_555
C7I C8I 1_555 1_555
C13I C14I 1_555 1_555
N5I C17I 1_555 1_555
C16I C17I 1_555 1_555
C23I C24I 1_555 1_555
C23I C28I 1_555 1_555
C27I C28I 1_555 1_555
C32I C33I 1_555 1_555
N8I C36I 1_555 1_555
C35I C36I 1_555 1_555
C41I C42I 1_555 1_555
N11I C45I 1_555 1_555
C44I C45I 1_555 1_555
C51I C52I 1_555 1_555
C51I C56I 1_555 1_555
C55I C56I 1_555 1_555
C4J C5J 1_555 1_555
N2J C8J 1_555 1_555
C7J C8J 1_555 1_555
C13J C14J 1_555 1_555
N5J C17J 1_555 1_555
C16J C17J 1_555 1_555
C23J C24J 1_555 1_555
C23J C28J 1_555 1_555
C27J C28J 1_555 1_555
C32J C33J 1_555 1_555
N8J C36J 1_555 1_555
C35J C36J 1_555 1_555
C41J C42J 1_555 1_555
N11J C45J 1_555 1_555
C44J C45J 1_555 1_555
C51J C52J 1_555 1_555
C51J C56J 1_555 1_555
C55J C56J 1_555 1_555
C4K C5K 1_555 1_555
N2K C8K 1_555 1_555
C7K C8K 1_555 1_555
C13K C14K 1_555 1_555
N5K C17K 1_555 1_555
C16K C17K 1_555 1_555
C23K C24K 1_555 1_555
C23K C28K 1_555 1_555
C27K C28K 1_555 1_555
C32K C33K 1_555 1_555
N8K C36K 1_555 1_555
C35K C36K 1_555 1_555
C41K C42K 1_555 1_555
N11K C45K 1_555 1_555
C44K C45K 1_555 1_555
C51K C52K 1_555 1_555
C51K C56K 1_555 1_555
C55K C56K 1_555 1_555

#END
