# generated using pymatgen
data_Co4B9H327(C67N6)6
_symmetry_space_group_name_H-M   'P 1'
_cell_length_a   31.10710000
_cell_length_b   31.10710000
_cell_length_c   54.36150000
_cell_angle_alpha   90.00000000
_cell_angle_beta   90.00000000
_cell_angle_gamma   120.00000000
_symmetry_Int_Tables_number   1
_chemical_formula_structural   Co4B9H327(C67N6)6
_chemical_formula_sum   'Co24 B54 H1962 C2412 N216'
_cell_volume   45555.53109452
_cell_formula_units_Z   6
loop_
 _symmetry_equiv_pos_site_id
 _symmetry_equiv_pos_as_xyz
  1  'x, y, z'
loop_
 _atom_site_type_symbol
 _atom_site_label
 _atom_site_symmetry_multiplicity
 _atom_site_fract_x
 _atom_site_fract_y
 _atom_site_fract_z
 _atom_site_occupancy
  Co  Co1  1  0.000000  0.000000  0.820660  1.0
  Co  Co2  1  0.333333  0.666667  0.487327  1.0
  Co  Co3  1  0.666667  0.333333  0.153993  1.0
  Co  Co4  1  0.000000  0.000000  0.179340  1.0
  Co  Co5  1  0.666667  0.333333  0.512673  1.0
  Co  Co6  1  0.333333  0.666667  0.846007  1.0
  Co  Co7  1  0.303580  0.265260  0.934334  1.0
  Co  Co8  1  0.961680  0.696420  0.934334  1.0
  Co  Co9  1  0.734740  0.038320  0.934334  1.0
  Co  Co10  1  0.636913  0.931927  0.601001  1.0
  Co  Co11  1  0.295013  0.363087  0.601001  1.0
  Co  Co12  1  0.068073  0.704987  0.601001  1.0
  Co  Co13  1  0.970247  0.598593  0.267667  1.0
  Co  Co14  1  0.628347  0.029753  0.267667  1.0
  Co  Co15  1  0.401407  0.371653  0.267667  1.0
  Co  Co16  1  0.696420  0.734740  0.065666  1.0
  Co  Co17  1  0.038320  0.303580  0.065666  1.0
  Co  Co18  1  0.265260  0.961680  0.065666  1.0
  Co  Co19  1  0.363087  0.068073  0.398999  1.0
  Co  Co20  1  0.704987  0.636913  0.398999  1.0
  Co  Co21  1  0.931927  0.295013  0.398999  1.0
  Co  Co22  1  0.029753  0.401407  0.732333  1.0
  Co  Co23  1  0.371653  0.970247  0.732333  1.0
  Co  Co24  1  0.598593  0.628347  0.732333  1.0
  B  B25  1  0.268500  0.993900  0.851420  1
  B  B26  1  0.725400  0.731500  0.851420  1
  B  B27  1  0.006100  0.274600  0.851420  1
  B  B28  1  0.601833  0.660567  0.518087  1
  B  B29  1  0.058733  0.398167  0.518087  1
  B  B30  1  0.339433  0.941267  0.518087  1
  B  B31  1  0.935167  0.327233  0.184753  1
  B  B32  1  0.392067  0.064833  0.184753  1
  B  B33  1  0.672767  0.607933  0.184753  1
  B  B34  1  0.731500  0.006100  0.148580  1
  B  B35  1  0.274600  0.268500  0.148580  1
  B  B36  1  0.993900  0.725400  0.148580  1
  B  B37  1  0.398167  0.339433  0.481913  1
  B  B38  1  0.941267  0.601833  0.481913  1
  B  B39  1  0.660567  0.058733  0.481913  1
  B  B40  1  0.064833  0.672767  0.815247  1
  B  B41  1  0.607933  0.935167  0.815247  1
  B  B42  1  0.327233  0.392067  0.815247  1
  B  B43  1  0.960600  0.805100  0.705400  1
  B  B44  1  0.844500  0.039400  0.705400  1
  B  B45  1  0.194900  0.155500  0.705400  1
  B  B46  1  0.293933  0.471767  0.372067  1
  B  B47  1  0.177833  0.706067  0.372067  1
  B  B48  1  0.528233  0.822167  0.372067  1
  B  B49  1  0.627267  0.138433  0.038733  1
  B  B50  1  0.511167  0.372733  0.038733  1
  B  B51  1  0.861567  0.488833  0.038733  1
  B  B52  1  0.039400  0.194900  0.294600  1
  B  B53  1  0.155500  0.960600  0.294600  1
  B  B54  1  0.805100  0.844500  0.294600  1
  B  B55  1  0.706067  0.528233  0.627933  1
  B  B56  1  0.822167  0.293933  0.627933  1
  B  B57  1  0.471767  0.177833  0.627933  1
  B  B58  1  0.372733  0.861567  0.961267  1
  B  B59  1  0.488833  0.627267  0.961267  1
  B  B60  1  0.138433  0.511167  0.961267  1
  B  B61  1  0.931000  0.812100  0.699000  1
  B  B62  1  0.881100  0.069000  0.699000  1
  B  B63  1  0.187900  0.118900  0.699000  1
  B  B64  1  0.264333  0.478767  0.365667  1
  B  B65  1  0.214433  0.735667  0.365667  1
  B  B66  1  0.521233  0.785567  0.365667  1
  B  B67  1  0.597667  0.145433  0.032333  1
  B  B68  1  0.547767  0.402333  0.032333  1
  B  B69  1  0.854567  0.452233  0.032333  1
  B  B70  1  0.069000  0.187900  0.301000  1
  B  B71  1  0.118900  0.931000  0.301000  1
  B  B72  1  0.812100  0.881100  0.301000  1
  B  B73  1  0.735667  0.521233  0.634333  1
  B  B74  1  0.785567  0.264333  0.634333  1
  B  B75  1  0.478767  0.214433  0.634333  1
  B  B76  1  0.402333  0.854567  0.967667  1
  B  B77  1  0.452233  0.597667  0.967667  1
  B  B78  1  0.145433  0.547767  0.967667  1
  H  H79  1  0.365700  0.068900  0.861700  1
  H  H80  1  0.703200  0.634300  0.861700  1
  H  H81  1  0.931100  0.296800  0.861700  1
  H  H82  1  0.699033  0.735567  0.528367  1
  H  H83  1  0.036533  0.300967  0.528367  1
  H  H84  1  0.264433  0.963467  0.528367  1
  H  H85  1  0.032367  0.402233  0.195033  1
  H  H86  1  0.369867  0.967633  0.195033  1
  H  H87  1  0.597767  0.630133  0.195033  1
  H  H88  1  0.634300  0.931100  0.138300  1
  H  H89  1  0.296800  0.365700  0.138300  1
  H  H90  1  0.068900  0.703200  0.138300  1
  H  H91  1  0.300967  0.264433  0.471633  1
  H  H92  1  0.963467  0.699033  0.471633  1
  H  H93  1  0.735567  0.036533  0.471633  1
  H  H94  1  0.967633  0.597767  0.804967  1
  H  H95  1  0.630133  0.032367  0.804967  1
  H  H96  1  0.402233  0.369867  0.804967  1
  H  H97  1  0.408200  0.154200  0.856100  1
  H  H98  1  0.746000  0.591800  0.856100  1
  H  H99  1  0.845800  0.254000  0.856100  1
  H  H100  1  0.741533  0.820867  0.522767  1
  H  H101  1  0.079333  0.258467  0.522767  1
  H  H102  1  0.179133  0.920667  0.522767  1
  H  H103  1  0.074867  0.487533  0.189433  1
  H  H104  1  0.412667  0.925133  0.189433  1
  H  H105  1  0.512467  0.587333  0.189433  1
  H  H106  1  0.591800  0.845800  0.143900  1
  H  H107  1  0.254000  0.408200  0.143900  1
  H  H108  1  0.154200  0.746000  0.143900  1
  H  H109  1  0.258467  0.179133  0.477233  1
  H  H110  1  0.920667  0.741533  0.477233  1
  H  H111  1  0.820867  0.079333  0.477233  1
  H  H112  1  0.925133  0.512467  0.810567  1
  H  H113  1  0.587333  0.074867  0.810567  1
  H  H114  1  0.487533  0.412667  0.810567  1
  H  H115  1  0.369100  0.192500  0.837400  1
  H  H116  1  0.823400  0.630900  0.837400  1
  H  H117  1  0.807500  0.176600  0.837400  1
  H  H118  1  0.702433  0.859167  0.504067  1
  H  H119  1  0.156733  0.297567  0.504067  1
  H  H120  1  0.140833  0.843267  0.504067  1
  H  H121  1  0.035767  0.525833  0.170733  1
  H  H122  1  0.490067  0.964233  0.170733  1
  H  H123  1  0.474167  0.509933  0.170733  1
  H  H124  1  0.630900  0.807500  0.162600  1
  H  H125  1  0.176600  0.369100  0.162600  1
  H  H126  1  0.192500  0.823400  0.162600  1
  H  H127  1  0.297567  0.140833  0.495933  1
  H  H128  1  0.843267  0.702433  0.495933  1
  H  H129  1  0.859167  0.156733  0.495933  1
  H  H130  1  0.964233  0.474167  0.829267  1
  H  H131  1  0.509933  0.035767  0.829267  1
  H  H132  1  0.525833  0.490067  0.829267  1
  H  H133  1  0.287300  0.145400  0.824400  1
  H  H134  1  0.858100  0.712700  0.824400  1
  H  H135  1  0.854600  0.141900  0.824400  1
  H  H136  1  0.620633  0.812067  0.491067  1
  H  H137  1  0.191433  0.379367  0.491067  1
  H  H138  1  0.187933  0.808567  0.491067  1
  H  H139  1  0.953967  0.478733  0.157733  1
  H  H140  1  0.524767  0.046033  0.157733  1
  H  H141  1  0.521267  0.475233  0.157733  1
  H  H142  1  0.712700  0.854600  0.175600  1
  H  H143  1  0.141900  0.287300  0.175600  1
  H  H144  1  0.145400  0.858100  0.175600  1
  H  H145  1  0.379367  0.187933  0.508933  1
  H  H146  1  0.808567  0.620633  0.508933  1
  H  H147  1  0.812067  0.191433  0.508933  1
  H  H148  1  0.046033  0.521267  0.842267  1
  H  H149  1  0.475233  0.953967  0.842267  1
  H  H150  1  0.478733  0.524767  0.842267  1
  H  H151  1  0.244800  0.060100  0.830100  1
  H  H152  1  0.815300  0.755200  0.830100  1
  H  H153  1  0.939900  0.184700  0.830100  1
  H  H154  1  0.578133  0.726767  0.496767  1
  H  H155  1  0.148633  0.421867  0.496767  1
  H  H156  1  0.273233  0.851367  0.496767  1
  H  H157  1  0.911467  0.393433  0.163433  1
  H  H158  1  0.481967  0.088533  0.163433  1
  H  H159  1  0.606567  0.518033  0.163433  1
  H  H160  1  0.755200  0.939900  0.169900  1
  H  H161  1  0.184700  0.244800  0.169900  1
  H  H162  1  0.060100  0.815300  0.169900  1
  H  H163  1  0.421867  0.273233  0.503233  1
  H  H164  1  0.851367  0.578133  0.503233  1
  H  H165  1  0.726767  0.148633  0.503233  1
  H  H166  1  0.088533  0.606567  0.836567  1
  H  H167  1  0.518033  0.911467  0.836567  1
  H  H168  1  0.393433  0.481967  0.836567  1
  H  H169  1  0.301800  0.017200  0.898900  1
  H  H170  1  0.715400  0.698200  0.898900  1
  H  H171  1  0.982800  0.284600  0.898900  1
  H  H172  1  0.635133  0.683867  0.565567  1
  H  H173  1  0.048733  0.364867  0.565567  1
  H  H174  1  0.316133  0.951267  0.565567  1
  H  H175  1  0.968467  0.350533  0.232233  1
  H  H176  1  0.382067  0.031533  0.232233  1
  H  H177  1  0.649467  0.617933  0.232233  1
  H  H178  1  0.698200  0.982800  0.101100  1
  H  H179  1  0.284600  0.301800  0.101100  1
  H  H180  1  0.017200  0.715400  0.101100  1
  H  H181  1  0.364867  0.316133  0.434433  1
  H  H182  1  0.951267  0.635133  0.434433  1
  H  H183  1  0.683867  0.048733  0.434433  1
  H  H184  1  0.031533  0.649467  0.767767  1
  H  H185  1  0.617933  0.968467  0.767767  1
  H  H186  1  0.350533  0.382067  0.767767  1
  H  H187  1  0.265100  0.013200  0.936600  1
  H  H188  1  0.748100  0.734900  0.936600  1
  H  H189  1  0.986800  0.251900  0.936600  1
  H  H190  1  0.598433  0.679867  0.603267  1
  H  H191  1  0.081433  0.401567  0.603267  1
  H  H192  1  0.320133  0.918567  0.603267  1
  H  H193  1  0.931767  0.346533  0.269933  1
  H  H194  1  0.414767  0.068233  0.269933  1
  H  H195  1  0.653467  0.585233  0.269933  1
  H  H196  1  0.734900  0.986800  0.063400  1
  H  H197  1  0.251900  0.265100  0.063400  1
  H  H198  1  0.013200  0.748100  0.063400  1
  H  H199  1  0.401567  0.320133  0.396733  1
  H  H200  1  0.918567  0.598433  0.396733  1
  H  H201  1  0.679867  0.081433  0.396733  1
  H  H202  1  0.068233  0.653467  0.730067  1
  H  H203  1  0.585233  0.931767  0.730067  1
  H  H204  1  0.346533  0.414767  0.730067  1
  H  H205  1  0.180000  0.981400  0.939100  1
  H  H206  1  0.801400  0.820000  0.939100  1
  H  H207  1  0.018600  0.198600  0.939100  1
  H  H208  1  0.513333  0.648067  0.605767  1
  H  H209  1  0.134733  0.486667  0.605767  1
  H  H210  1  0.351933  0.865267  0.605767  1
  H  H211  1  0.846667  0.314733  0.272433  1
  H  H212  1  0.468067  0.153333  0.272433  1
  H  H213  1  0.685267  0.531933  0.272433  1
  H  H214  1  0.820000  0.018600  0.060900  1
  H  H215  1  0.198600  0.180000  0.060900  1
  H  H216  1  0.981400  0.801400  0.060900  1
  H  H217  1  0.486667  0.351933  0.394233  1
  H  H218  1  0.865267  0.513333  0.394233  1
  H  H219  1  0.648067  0.134733  0.394233  1
  H  H220  1  0.153333  0.685267  0.727567  1
  H  H221  1  0.531933  0.846667  0.727567  1
  H  H222  1  0.314733  0.468067  0.727567  1
  H  H223  1  0.131600  0.953500  0.903800  1
  H  H224  1  0.821900  0.868400  0.903800  1
  H  H225  1  0.046500  0.178100  0.903800  1
  H  H226  1  0.464933  0.620167  0.570467  1
  H  H227  1  0.155233  0.535067  0.570467  1
  H  H228  1  0.379833  0.844767  0.570467  1
  H  H229  1  0.798267  0.286833  0.237133  1
  H  H230  1  0.488567  0.201733  0.237133  1
  H  H231  1  0.713167  0.511433  0.237133  1
  H  H232  1  0.868400  0.046500  0.096200  1
  H  H233  1  0.178100  0.131600  0.096200  1
  H  H234  1  0.953500  0.821900  0.096200  1
  H  H235  1  0.535067  0.379833  0.429533  1
  H  H236  1  0.844767  0.464933  0.429533  1
  H  H237  1  0.620167  0.155233  0.429533  1
  H  H238  1  0.201733  0.713167  0.762867  1
  H  H239  1  0.511433  0.798267  0.762867  1
  H  H240  1  0.286833  0.488567  0.762867  1
  H  H241  1  0.168400  0.957600  0.866100  1
  H  H242  1  0.789200  0.831600  0.866100  1
  H  H243  1  0.042400  0.210800  0.866100  1
  H  H244  1  0.501733  0.624267  0.532767  1
  H  H245  1  0.122533  0.498267  0.532767  1
  H  H246  1  0.375733  0.877467  0.532767  1
  H  H247  1  0.835067  0.290933  0.199433  1
  H  H248  1  0.455867  0.164933  0.199433  1
  H  H249  1  0.709067  0.544133  0.199433  1
  H  H250  1  0.831600  0.042400  0.133900  1
  H  H251  1  0.210800  0.168400  0.133900  1
  H  H252  1  0.957600  0.789200  0.133900  1
  H  H253  1  0.498267  0.375733  0.467233  1
  H  H254  1  0.877467  0.501733  0.467233  1
  H  H255  1  0.624267  0.122533  0.467233  1
  H  H256  1  0.164933  0.709067  0.800567  1
  H  H257  1  0.544133  0.835067  0.800567  1
  H  H258  1  0.290933  0.455867  0.800567  1
  H  H259  1  0.189300  0.899500  0.849700  1
  H  H260  1  0.710200  0.810700  0.849700  1
  H  H261  1  0.100500  0.289800  0.849700  1
  H  H262  1  0.522633  0.566167  0.516367  1
  H  H263  1  0.043533  0.477367  0.516367  1
  H  H264  1  0.433833  0.956467  0.516367  1
  H  H265  1  0.855967  0.232833  0.183033  1
  H  H266  1  0.376867  0.144033  0.183033  1
  H  H267  1  0.767167  0.623133  0.183033  1
  H  H268  1  0.810700  0.100500  0.150300  1
  H  H269  1  0.289800  0.189300  0.150300  1
  H  H270  1  0.899500  0.710200  0.150300  1
  H  H271  1  0.477367  0.433833  0.483633  1
  H  H272  1  0.956467  0.522633  0.483633  1
  H  H273  1  0.566167  0.043533  0.483633  1
  H  H274  1  0.144033  0.767167  0.816967  1
  H  H275  1  0.623133  0.855967  0.816967  1
  H  H276  1  0.232833  0.376867  0.816967  1
  H  H277  1  0.133300  0.851000  0.819500  1
  H  H278  1  0.717700  0.866700  0.819500  1
  H  H279  1  0.149000  0.282300  0.819500  1
  H  H280  1  0.466633  0.517667  0.486167  1
  H  H281  1  0.051033  0.533367  0.486167  1
  H  H282  1  0.482333  0.948967  0.486167  1
  H  H283  1  0.799967  0.184333  0.152833  1
  H  H284  1  0.384367  0.200033  0.152833  1
  H  H285  1  0.815667  0.615633  0.152833  1
  H  H286  1  0.866700  0.149000  0.180500  1
  H  H287  1  0.282300  0.133300  0.180500  1
  H  H288  1  0.851000  0.717700  0.180500  1
  H  H289  1  0.533367  0.482333  0.513833  1
  H  H290  1  0.948967  0.466633  0.513833  1
  H  H291  1  0.517667  0.051033  0.513833  1
  H  H292  1  0.200033  0.815667  0.847167  1
  H  H293  1  0.615633  0.799967  0.847167  1
  H  H294  1  0.184333  0.384367  0.847167  1
  H  H295  1  0.138700  0.883200  0.780400  1
  H  H296  1  0.744500  0.861300  0.780400  1
  H  H297  1  0.116800  0.255500  0.780400  1
  H  H298  1  0.472033  0.549867  0.447067  1
  H  H299  1  0.077833  0.527967  0.447067  1
  H  H300  1  0.450133  0.922167  0.447067  1
  H  H301  1  0.805367  0.216533  0.113733  1
  H  H302  1  0.411167  0.194633  0.113733  1
  H  H303  1  0.783467  0.588833  0.113733  1
  H  H304  1  0.861300  0.116800  0.219600  1
  H  H305  1  0.255500  0.138700  0.219600  1
  H  H306  1  0.883200  0.744500  0.219600  1
  H  H307  1  0.527967  0.450133  0.552933  1
  H  H308  1  0.922167  0.472033  0.552933  1
  H  H309  1  0.549867  0.077833  0.552933  1
  H  H310  1  0.194633  0.783467  0.886267  1
  H  H311  1  0.588833  0.805367  0.886267  1
  H  H312  1  0.216533  0.411167  0.886267  1
  H  H313  1  0.200000  0.963800  0.771500  1
  H  H314  1  0.763800  0.800000  0.771500  1
  H  H315  1  0.036200  0.236200  0.771500  1
  H  H316  1  0.533333  0.630467  0.438167  1
  H  H317  1  0.097133  0.466667  0.438167  1
  H  H318  1  0.369533  0.902867  0.438167  1
  H  H319  1  0.866667  0.297133  0.104833  1
  H  H320  1  0.430467  0.133333  0.104833  1
  H  H321  1  0.702867  0.569533  0.104833  1
  H  H322  1  0.800000  0.036200  0.228500  1
  H  H323  1  0.236200  0.200000  0.228500  1
  H  H324  1  0.963800  0.763800  0.228500  1
  H  H325  1  0.466667  0.369533  0.561833  1
  H  H326  1  0.902867  0.533333  0.561833  1
  H  H327  1  0.630467  0.097133  0.561833  1
  H  H328  1  0.133333  0.702867  0.895167  1
  H  H329  1  0.569533  0.866667  0.895167  1
  H  H330  1  0.297133  0.430467  0.895167  1
  H  H331  1  0.256000  0.012300  0.801700  1
  H  H332  1  0.756300  0.744000  0.801700  1
  H  H333  1  0.987700  0.243700  0.801700  1
  H  H334  1  0.589333  0.678967  0.468367  1
  H  H335  1  0.089633  0.410667  0.468367  1
  H  H336  1  0.321033  0.910367  0.468367  1
  H  H337  1  0.922667  0.345633  0.135033  1
  H  H338  1  0.422967  0.077333  0.135033  1
  H  H339  1  0.654367  0.577033  0.135033  1
  H  H340  1  0.744000  0.987700  0.198300  1
  H  H341  1  0.243700  0.256000  0.198300  1
  H  H342  1  0.012300  0.756300  0.198300  1
  H  H343  1  0.410667  0.321033  0.531633  1
  H  H344  1  0.910367  0.589333  0.531633  1
  H  H345  1  0.678967  0.089633  0.531633  1
  H  H346  1  0.077333  0.654367  0.864967  1
  H  H347  1  0.577033  0.922667  0.864967  1
  H  H348  1  0.345633  0.422967  0.864967  1
  H  H349  1  0.269100  0.921000  0.881200  1
  H  H350  1  0.651900  0.730900  0.881200  1
  H  H351  1  0.079000  0.348100  0.881200  1
  H  H352  1  0.602433  0.587667  0.547867  1
  H  H353  1  0.985233  0.397567  0.547867  1
  H  H354  1  0.412333  0.014767  0.547867  1
  H  H355  1  0.935767  0.254333  0.214533  1
  H  H356  1  0.318567  0.064233  0.214533  1
  H  H357  1  0.745667  0.681433  0.214533  1
  H  H358  1  0.730900  0.079000  0.118800  1
  H  H359  1  0.348100  0.269100  0.118800  1
  H  H360  1  0.921000  0.651900  0.118800  1
  H  H361  1  0.397567  0.412333  0.452133  1
  H  H362  1  0.014767  0.602433  0.452133  1
  H  H363  1  0.587667  0.985233  0.452133  1
  H  H364  1  0.064233  0.745667  0.785467  1
  H  H365  1  0.681433  0.935767  0.785467  1
  H  H366  1  0.254333  0.318567  0.785467  1
  H  H367  1  0.322600  0.889600  0.884600  1
  H  H368  1  0.567000  0.677400  0.884600  1
  H  H369  1  0.110400  0.433000  0.884600  1
  H  H370  1  0.655933  0.556267  0.551267  1
  H  H371  1  0.900333  0.344067  0.551267  1
  H  H372  1  0.443733  0.099667  0.551267  1
  H  H373  1  0.989267  0.222933  0.217933  1
  H  H374  1  0.233667  0.010733  0.217933  1
  H  H375  1  0.777067  0.766333  0.217933  1
  H  H376  1  0.677400  0.110400  0.115400  1
  H  H377  1  0.433000  0.322600  0.115400  1
  H  H378  1  0.889600  0.567000  0.115400  1
  H  H379  1  0.344067  0.443733  0.448733  1
  H  H380  1  0.099667  0.655933  0.448733  1
  H  H381  1  0.556267  0.900333  0.448733  1
  H  H382  1  0.010733  0.777067  0.782067  1
  H  H383  1  0.766333  0.989267  0.782067  1
  H  H384  1  0.222933  0.233667  0.782067  1
  H  H385  1  0.391800  0.919500  0.859400  1
  H  H386  1  0.527700  0.608200  0.859400  1
  H  H387  1  0.080500  0.472300  0.859400  1
  H  H388  1  0.725133  0.586167  0.526067  1
  H  H389  1  0.861033  0.274867  0.526067  1
  H  H390  1  0.413833  0.138967  0.526067  1
  H  H391  1  0.058467  0.252833  0.192733  1
  H  H392  1  0.194367  0.941533  0.192733  1
  H  H393  1  0.747167  0.805633  0.192733  1
  H  H394  1  0.608200  0.080500  0.140600  1
  H  H395  1  0.472300  0.391800  0.140600  1
  H  H396  1  0.919500  0.527700  0.140600  1
  H  H397  1  0.274867  0.413833  0.473933  1
  H  H398  1  0.138967  0.725133  0.473933  1
  H  H399  1  0.586167  0.861033  0.473933  1
  H  H400  1  0.941533  0.747167  0.807267  1
  H  H401  1  0.805633  0.058467  0.807267  1
  H  H402  1  0.252833  0.194367  0.807267  1
  H  H403  1  0.407600  0.981000  0.830800  1
  H  H404  1  0.573400  0.592400  0.830800  1
  H  H405  1  0.019000  0.426600  0.830800  1
  H  H406  1  0.740933  0.647667  0.497467  1
  H  H407  1  0.906733  0.259067  0.497467  1
  H  H408  1  0.352333  0.093267  0.497467  1
  H  H409  1  0.074267  0.314333  0.164133  1
  H  H410  1  0.240067  0.925733  0.164133  1
  H  H411  1  0.685667  0.759933  0.164133  1
  H  H412  1  0.592400  0.019000  0.169200  1
  H  H413  1  0.426600  0.407600  0.169200  1
  H  H414  1  0.981000  0.573400  0.169200  1
  H  H415  1  0.259067  0.352333  0.502533  1
  H  H416  1  0.093267  0.740933  0.502533  1
  H  H417  1  0.647667  0.906733  0.502533  1
  H  H418  1  0.925733  0.685667  0.835867  1
  H  H419  1  0.759933  0.074267  0.835867  1
  H  H420  1  0.314333  0.240067  0.835867  1
  H  H421  1  0.354200  0.012500  0.827300  1
  H  H422  1  0.658300  0.645800  0.827300  1
  H  H423  1  0.987500  0.341700  0.827300  1
  H  H424  1  0.687533  0.679167  0.493967  1
  H  H425  1  0.991633  0.312467  0.493967  1
  H  H426  1  0.320833  0.008367  0.493967  1
  H  H427  1  0.020867  0.345833  0.160633  1
  H  H428  1  0.324967  0.979133  0.160633  1
  H  H429  1  0.654167  0.675033  0.160633  1
  H  H430  1  0.645800  0.987500  0.172700  1
  H  H431  1  0.341700  0.354200  0.172700  1
  H  H432  1  0.012500  0.658300  0.172700  1
  H  H433  1  0.312467  0.320833  0.506033  1
  H  H434  1  0.008367  0.687533  0.506033  1
  H  H435  1  0.679167  0.991633  0.506033  1
  H  H436  1  0.979133  0.654167  0.839367  1
  H  H437  1  0.675033  0.020867  0.839367  1
  H  H438  1  0.345833  0.324967  0.839367  1
  H  H439  1  0.989500  0.853500  0.660800  1
  H  H440  1  0.864000  0.010500  0.660800  1
  H  H441  1  0.146500  0.136000  0.660800  1
  H  H442  1  0.322833  0.520167  0.327467  1
  H  H443  1  0.197333  0.677167  0.327467  1
  H  H444  1  0.479833  0.802667  0.327467  1
  H  H445  1  0.656167  0.186833  0.994133  1
  H  H446  1  0.530667  0.343833  0.994133  1
  H  H447  1  0.813167  0.469333  0.994133  1
  H  H448  1  0.010500  0.146500  0.339200  1
  H  H449  1  0.136000  0.989500  0.339200  1
  H  H450  1  0.853500  0.864000  0.339200  1
  H  H451  1  0.677167  0.479833  0.672533  1
  H  H452  1  0.802667  0.322833  0.672533  1
  H  H453  1  0.520167  0.197333  0.672533  1
  H  H454  1  0.343833  0.813167  0.005867  1
  H  H455  1  0.469333  0.656167  0.005867  1
  H  H456  1  0.186833  0.530667  0.005867  1
  H  H457  1  0.946000  0.855300  0.626500  1
  H  H458  1  0.909300  0.054000  0.626500  1
  H  H459  1  0.144700  0.090700  0.626500  1
  H  H460  1  0.279333  0.521967  0.293167  1
  H  H461  1  0.242633  0.720667  0.293167  1
  H  H462  1  0.478033  0.757367  0.293167  1
  H  H463  1  0.612667  0.188633  0.959833  1
  H  H464  1  0.575967  0.387333  0.959833  1
  H  H465  1  0.811367  0.424033  0.959833  1
  H  H466  1  0.054000  0.144700  0.373500  1
  H  H467  1  0.090700  0.946000  0.373500  1
  H  H468  1  0.855300  0.909300  0.373500  1
  H  H469  1  0.720667  0.478033  0.706833  1
  H  H470  1  0.757367  0.279333  0.706833  1
  H  H471  1  0.521967  0.242633  0.706833  1
  H  H472  1  0.387333  0.811367  0.040167  1
  H  H473  1  0.424033  0.612667  0.040167  1
  H  H474  1  0.188633  0.575967  0.040167  1
  H  H475  1  0.859900  0.814600  0.627300  1
  H  H476  1  0.954700  0.140100  0.627300  1
  H  H477  1  0.185400  0.045300  0.627300  1
  H  H478  1  0.193233  0.481267  0.293967  1
  H  H479  1  0.288033  0.806767  0.293967  1
  H  H480  1  0.518733  0.711967  0.293967  1
  H  H481  1  0.526567  0.147933  0.960633  1
  H  H482  1  0.621367  0.473433  0.960633  1
  H  H483  1  0.852067  0.378633  0.960633  1
  H  H484  1  0.140100  0.185400  0.372700  1
  H  H485  1  0.045300  0.859900  0.372700  1
  H  H486  1  0.814600  0.954700  0.372700  1
  H  H487  1  0.806767  0.518733  0.706033  1
  H  H488  1  0.711967  0.193233  0.706033  1
  H  H489  1  0.481267  0.288033  0.706033  1
  H  H490  1  0.473433  0.852067  0.039367  1
  H  H491  1  0.378633  0.526567  0.039367  1
  H  H492  1  0.147933  0.621367  0.039367  1
  H  H493  1  0.817400  0.772200  0.662400  1
  H  H494  1  0.954800  0.182600  0.662400  1
  H  H495  1  0.227800  0.045200  0.662400  1
  H  H496  1  0.150733  0.438867  0.329067  1
  H  H497  1  0.288133  0.849267  0.329067  1
  H  H498  1  0.561133  0.711867  0.329067  1
  H  H499  1  0.484067  0.105533  0.995733  1
  H  H500  1  0.621467  0.515933  0.995733  1
  H  H501  1  0.894467  0.378533  0.995733  1
  H  H502  1  0.182600  0.227800  0.337600  1
  H  H503  1  0.045200  0.817400  0.337600  1
  H  H504  1  0.772200  0.954800  0.337600  1
  H  H505  1  0.849267  0.561133  0.670933  1
  H  H506  1  0.711867  0.150733  0.670933  1
  H  H507  1  0.438867  0.288133  0.670933  1
  H  H508  1  0.515933  0.894467  0.004267  1
  H  H509  1  0.378533  0.484067  0.004267  1
  H  H510  1  0.105533  0.621467  0.004267  1
  H  H511  1  0.932500  0.723300  0.675700  1
  H  H512  1  0.790800  0.067500  0.675700  1
  H  H513  1  0.276700  0.209200  0.675700  1
  H  H514  1  0.265833  0.389967  0.342367  1
  H  H515  1  0.124133  0.734167  0.342367  1
  H  H516  1  0.610033  0.875867  0.342367  1
  H  H517  1  0.599167  0.056633  0.009033  1
  H  H518  1  0.457467  0.400833  0.009033  1
  H  H519  1  0.943367  0.542533  0.009033  1
  H  H520  1  0.067500  0.276700  0.324300  1
  H  H521  1  0.209200  0.932500  0.324300  1
  H  H522  1  0.723300  0.790800  0.324300  1
  H  H523  1  0.734167  0.610033  0.657633  1
  H  H524  1  0.875867  0.265833  0.657633  1
  H  H525  1  0.389967  0.124133  0.657633  1
  H  H526  1  0.400833  0.943367  0.990967  1
  H  H527  1  0.542533  0.599167  0.990967  1
  H  H528  1  0.056633  0.457467  0.990967  1
  H  H529  1  0.947300  0.657300  0.676600  1
  H  H530  1  0.710000  0.052700  0.676600  1
  H  H531  1  0.342700  0.290000  0.676600  1
  H  H532  1  0.280633  0.323967  0.343267  1
  H  H533  1  0.043333  0.719367  0.343267  1
  H  H534  1  0.676033  0.956667  0.343267  1
  H  H535  1  0.613967  0.990633  0.009933  1
  H  H536  1  0.376667  0.386033  0.009933  1
  H  H537  1  0.009367  0.623333  0.009933  1
  H  H538  1  0.052700  0.342700  0.323400  1
  H  H539  1  0.290000  0.947300  0.323400  1
  H  H540  1  0.657300  0.710000  0.323400  1
  H  H541  1  0.719367  0.676033  0.656733  1
  H  H542  1  0.956667  0.280633  0.656733  1
  H  H543  1  0.323967  0.043333  0.656733  1
  H  H544  1  0.386033  0.009367  0.990067  1
  H  H545  1  0.623333  0.613967  0.990067  1
  H  H546  1  0.990633  0.376667  0.990067  1
  H  H547  1  0.996800  0.652700  0.707200  1
  H  H548  1  0.655900  0.003200  0.707200  1
  H  H549  1  0.347300  0.344100  0.707200  1
  H  H550  1  0.330133  0.319367  0.373867  1
  H  H551  1  0.989233  0.669867  0.373867  1
  H  H552  1  0.680633  0.010767  0.373867  1
  H  H553  1  0.663467  0.986033  0.040533  1
  H  H554  1  0.322567  0.336533  0.040533  1
  H  H555  1  0.013967  0.677433  0.040533  1
  H  H556  1  0.003200  0.347300  0.292800  1
  H  H557  1  0.344100  0.996800  0.292800  1
  H  H558  1  0.652700  0.655900  0.292800  1
  H  H559  1  0.669867  0.680633  0.626133  1
  H  H560  1  0.010767  0.330133  0.626133  1
  H  H561  1  0.319367  0.989233  0.626133  1
  H  H562  1  0.336533  0.013967  0.959467  1
  H  H563  1  0.677433  0.663467  0.959467  1
  H  H564  1  0.986033  0.322567  0.959467  1
  H  H565  1  0.031500  0.714200  0.737000  1
  H  H566  1  0.682700  0.968500  0.737000  1
  H  H567  1  0.285800  0.317300  0.737000  1
  H  H568  1  0.364833  0.380867  0.403667  1
  H  H569  1  0.016033  0.635167  0.403667  1
  H  H570  1  0.619133  0.983967  0.403667  1
  H  H571  1  0.698167  0.047533  0.070333  1
  H  H572  1  0.349367  0.301833  0.070333  1
  H  H573  1  0.952467  0.650633  0.070333  1
  H  H574  1  0.968500  0.285800  0.263000  1
  H  H575  1  0.317300  0.031500  0.263000  1
  H  H576  1  0.714200  0.682700  0.263000  1
  H  H577  1  0.635167  0.619133  0.596333  1
  H  H578  1  0.983967  0.364833  0.596333  1
  H  H579  1  0.380867  0.016033  0.596333  1
  H  H580  1  0.301833  0.952467  0.929667  1
  H  H581  1  0.650633  0.698167  0.929667  1
  H  H582  1  0.047533  0.349367  0.929667  1
  H  H583  1  0.016700  0.780300  0.736100  1
  H  H584  1  0.763600  0.983300  0.736100  1
  H  H585  1  0.219700  0.236400  0.736100  1
  H  H586  1  0.350033  0.446967  0.402767  1
  H  H587  1  0.096933  0.649967  0.402767  1
  H  H588  1  0.553033  0.903067  0.402767  1
  H  H589  1  0.683367  0.113633  0.069433  1
  H  H590  1  0.430267  0.316633  0.069433  1
  H  H591  1  0.886367  0.569733  0.069433  1
  H  H592  1  0.983300  0.219700  0.263900  1
  H  H593  1  0.236400  0.016700  0.263900  1
  H  H594  1  0.780300  0.763600  0.263900  1
  H  H595  1  0.649967  0.553033  0.597233  1
  H  H596  1  0.903067  0.350033  0.597233  1
  H  H597  1  0.446967  0.096933  0.597233  1
  H  H598  1  0.316633  0.886367  0.930567  1
  H  H599  1  0.569733  0.683367  0.930567  1
  H  H600  1  0.113633  0.430267  0.930567  1
  H  H601  1  0.063600  0.844900  0.714300  1
  H  H602  1  0.781300  0.936400  0.714300  1
  H  H603  1  0.155100  0.218700  0.714300  1
  H  H604  1  0.396933  0.511567  0.380967  1
  H  H605  1  0.114633  0.603067  0.380967  1
  H  H606  1  0.488433  0.885367  0.380967  1
  H  H607  1  0.730267  0.178233  0.047633  1
  H  H608  1  0.447967  0.269733  0.047633  1
  H  H609  1  0.821767  0.552033  0.047633  1
  H  H610  1  0.936400  0.155100  0.285700  1
  H  H611  1  0.218700  0.063600  0.285700  1
  H  H612  1  0.844900  0.781300  0.285700  1
  H  H613  1  0.603067  0.488433  0.619033  1
  H  H614  1  0.885367  0.396933  0.619033  1
  H  H615  1  0.511567  0.114633  0.619033  1
  H  H616  1  0.269733  0.821767  0.952367  1
  H  H617  1  0.552033  0.730267  0.952367  1
  H  H618  1  0.178233  0.447967  0.952367  1
  H  H619  1  0.131300  0.924200  0.710000  1
  H  H620  1  0.792900  0.868700  0.710000  1
  H  H621  1  0.075800  0.207100  0.710000  1
  H  H622  1  0.464633  0.590867  0.376667  1
  H  H623  1  0.126233  0.535367  0.376667  1
  H  H624  1  0.409133  0.873767  0.376667  1
  H  H625  1  0.797967  0.257533  0.043333  1
  H  H626  1  0.459567  0.202033  0.043333  1
  H  H627  1  0.742467  0.540433  0.043333  1
  H  H628  1  0.868700  0.075800  0.290000  1
  H  H629  1  0.207100  0.131300  0.290000  1
  H  H630  1  0.924200  0.792900  0.290000  1
  H  H631  1  0.535367  0.409133  0.623333  1
  H  H632  1  0.873767  0.464633  0.623333  1
  H  H633  1  0.590867  0.126233  0.623333  1
  H  H634  1  0.202033  0.742467  0.956667  1
  H  H635  1  0.540433  0.797967  0.956667  1
  H  H636  1  0.257533  0.459567  0.956667  1
  H  H637  1  0.119900  0.988500  0.696400  1
  H  H638  1  0.868600  0.880100  0.696400  1
  H  H639  1  0.011500  0.131400  0.696400  1
  H  H640  1  0.453233  0.655167  0.363067  1
  H  H641  1  0.201933  0.546767  0.363067  1
  H  H642  1  0.344833  0.798067  0.363067  1
  H  H643  1  0.786567  0.321833  0.029733  1
  H  H644  1  0.535267  0.213433  0.029733  1
  H  H645  1  0.678167  0.464733  0.029733  1
  H  H646  1  0.880100  0.011500  0.303600  1
  H  H647  1  0.131400  0.119900  0.303600  1
  H  H648  1  0.988500  0.868600  0.303600  1
  H  H649  1  0.546767  0.344833  0.636933  1
  H  H650  1  0.798067  0.453233  0.636933  1
  H  H651  1  0.655167  0.201933  0.636933  1
  H  H652  1  0.213433  0.678167  0.970267  1
  H  H653  1  0.464733  0.786567  0.970267  1
  H  H654  1  0.321833  0.535267  0.970267  1
  H  H655  1  0.040800  0.973600  0.687300  1
  H  H656  1  0.932800  0.959200  0.687300  1
  H  H657  1  0.026400  0.067200  0.687300  1
  H  H658  1  0.374133  0.640267  0.353967  1
  H  H659  1  0.266133  0.625867  0.353967  1
  H  H660  1  0.359733  0.733867  0.353967  1
  H  H661  1  0.707467  0.306933  0.020633  1
  H  H662  1  0.599467  0.292533  0.020633  1
  H  H663  1  0.693067  0.400533  0.020633  1
  H  H664  1  0.959200  0.026400  0.312700  1
  H  H665  1  0.067200  0.040800  0.312700  1
  H  H666  1  0.973600  0.932800  0.312700  1
  H  H667  1  0.625867  0.359733  0.646033  1
  H  H668  1  0.733867  0.374133  0.646033  1
  H  H669  1  0.640267  0.266133  0.646033  1
  H  H670  1  0.292533  0.693067  0.979367  1
  H  H671  1  0.400533  0.707467  0.979367  1
  H  H672  1  0.306933  0.599467  0.979367  1
  H  H673  1  0.973000  0.894300  0.691600  1
  H  H674  1  0.921300  0.027000  0.691600  1
  H  H675  1  0.105700  0.078700  0.691600  1
  H  H676  1  0.306333  0.560967  0.358267  1
  H  H677  1  0.254633  0.693667  0.358267  1
  H  H678  1  0.439033  0.745367  0.358267  1
  H  H679  1  0.639667  0.227633  0.024933  1
  H  H680  1  0.587967  0.360333  0.024933  1
  H  H681  1  0.772367  0.412033  0.024933  1
  H  H682  1  0.027000  0.105700  0.308400  1
  H  H683  1  0.078700  0.973000  0.308400  1
  H  H684  1  0.894300  0.921300  0.308400  1
  H  H685  1  0.693667  0.439033  0.641733  1
  H  H686  1  0.745367  0.306333  0.641733  1
  H  H687  1  0.560967  0.254633  0.641733  1
  H  H688  1  0.360333  0.772367  0.975067  1
  H  H689  1  0.412033  0.639667  0.975067  1
  H  H690  1  0.227633  0.587967  0.975067  1
  H  H691  1  0.915200  0.733200  0.742700  1
  H  H692  1  0.818000  0.084800  0.742700  1
  H  H693  1  0.266800  0.182000  0.742700  1
  H  H694  1  0.248533  0.399867  0.409367  1
  H  H695  1  0.151333  0.751467  0.409367  1
  H  H696  1  0.600133  0.848667  0.409367  1
  H  H697  1  0.581867  0.066533  0.076033  1
  H  H698  1  0.484667  0.418133  0.076033  1
  H  H699  1  0.933467  0.515333  0.076033  1
  H  H700  1  0.084800  0.266800  0.257300  1
  H  H701  1  0.182000  0.915200  0.257300  1
  H  H702  1  0.733200  0.818000  0.257300  1
  H  H703  1  0.751467  0.600133  0.590633  1
  H  H704  1  0.848667  0.248533  0.590633  1
  H  H705  1  0.399867  0.151333  0.590633  1
  H  H706  1  0.418133  0.933467  0.923967  1
  H  H707  1  0.515333  0.581867  0.923967  1
  H  H708  1  0.066533  0.484667  0.923967  1
  H  H709  1  0.862300  0.723000  0.775100  1
  H  H710  1  0.860700  0.137700  0.775100  1
  H  H711  1  0.277000  0.139300  0.775100  1
  H  H712  1  0.195633  0.389667  0.441767  1
  H  H713  1  0.194033  0.804367  0.441767  1
  H  H714  1  0.610333  0.805967  0.441767  1
  H  H715  1  0.528967  0.056333  0.108433  1
  H  H716  1  0.527367  0.471033  0.108433  1
  H  H717  1  0.943667  0.472633  0.108433  1
  H  H718  1  0.137700  0.277000  0.224900  1
  H  H719  1  0.139300  0.862300  0.224900  1
  H  H720  1  0.723000  0.860700  0.224900  1
  H  H721  1  0.804367  0.610333  0.558233  1
  H  H722  1  0.805967  0.195633  0.558233  1
  H  H723  1  0.389667  0.194033  0.558233  1
  H  H724  1  0.471033  0.943667  0.891567  1
  H  H725  1  0.472633  0.528967  0.891567  1
  H  H726  1  0.056333  0.527367  0.891567  1
  H  H727  1  0.839400  0.782300  0.782400  1
  H  H728  1  0.942900  0.160600  0.782400  1
  H  H729  1  0.217700  0.057100  0.782400  1
  H  H730  1  0.172733  0.448967  0.449067  1
  H  H731  1  0.276233  0.827267  0.449067  1
  H  H732  1  0.551033  0.723767  0.449067  1
  H  H733  1  0.506067  0.115633  0.115733  1
  H  H734  1  0.609567  0.493933  0.115733  1
  H  H735  1  0.884367  0.390433  0.115733  1
  H  H736  1  0.160600  0.217700  0.217600  1
  H  H737  1  0.057100  0.839400  0.217600  1
  H  H738  1  0.782300  0.942900  0.217600  1
  H  H739  1  0.827267  0.551033  0.550933  1
  H  H740  1  0.723767  0.172733  0.550933  1
  H  H741  1  0.448967  0.276233  0.550933  1
  H  H742  1  0.493933  0.884367  0.884267  1
  H  H743  1  0.390433  0.506067  0.884267  1
  H  H744  1  0.115633  0.609567  0.884267  1
  H  H745  1  0.869400  0.851800  0.757400  1
  H  H746  1  0.982400  0.130600  0.757400  1
  H  H747  1  0.148200  0.017600  0.757400  1
  H  H748  1  0.202733  0.518467  0.424067  1
  H  H749  1  0.315733  0.797267  0.424067  1
  H  H750  1  0.481533  0.684267  0.424067  1
  H  H751  1  0.536067  0.185133  0.090733  1
  H  H752  1  0.649067  0.463933  0.090733  1
  H  H753  1  0.814867  0.350933  0.090733  1
  H  H754  1  0.130600  0.148200  0.242600  1
  H  H755  1  0.017600  0.869400  0.242600  1
  H  H756  1  0.851800  0.982400  0.242600  1
  H  H757  1  0.797267  0.481533  0.575933  1
  H  H758  1  0.684267  0.202733  0.575933  1
  H  H759  1  0.518467  0.315733  0.575933  1
  H  H760  1  0.463933  0.814867  0.909267  1
  H  H761  1  0.350933  0.536067  0.909267  1
  H  H762  1  0.185133  0.649067  0.909267  1
  H  H763  1  0.922300  0.862000  0.725000  1
  H  H764  1  0.939700  0.077700  0.725000  1
  H  H765  1  0.138000  0.060300  0.725000  1
  H  H766  1  0.255633  0.528667  0.391667  1
  H  H767  1  0.273033  0.744367  0.391667  1
  H  H768  1  0.471333  0.726967  0.391667  1
  H  H769  1  0.588967  0.195333  0.058333  1
  H  H770  1  0.606367  0.411033  0.058333  1
  H  H771  1  0.804667  0.393633  0.058333  1
  H  H772  1  0.077700  0.138000  0.275000  1
  H  H773  1  0.060300  0.922300  0.275000  1
  H  H774  1  0.862000  0.939700  0.275000  1
  H  H775  1  0.744367  0.471333  0.608333  1
  H  H776  1  0.726967  0.255633  0.608333  1
  H  H777  1  0.528667  0.273033  0.608333  1
  H  H778  1  0.411033  0.804667  0.941667  1
  H  H779  1  0.393633  0.588967  0.941667  1
  H  H780  1  0.195333  0.606367  0.941667  1
  H  H781  1  0.841300  0.725900  0.693400  1
  H  H782  1  0.884600  0.158700  0.693400  1
  H  H783  1  0.274100  0.115400  0.693400  1
  H  H784  1  0.174633  0.392567  0.360067  1
  H  H785  1  0.217933  0.825367  0.360067  1
  H  H786  1  0.607433  0.782067  0.360067  1
  H  H787  1  0.507967  0.059233  0.026733  1
  H  H788  1  0.551267  0.492033  0.026733  1
  H  H789  1  0.940767  0.448733  0.026733  1
  H  H790  1  0.158700  0.274100  0.306600  1
  H  H791  1  0.115400  0.841300  0.306600  1
  H  H792  1  0.725900  0.884600  0.306600  1
  H  H793  1  0.825367  0.607433  0.639933  1
  H  H794  1  0.782067  0.174633  0.639933  1
  H  H795  1  0.392567  0.217933  0.639933  1
  H  H796  1  0.492033  0.940767  0.973267  1
  H  H797  1  0.448733  0.507967  0.973267  1
  H  H798  1  0.059233  0.551267  0.973267  1
  H  H799  1  0.812000  0.660200  0.665900  1
  H  H800  1  0.848200  0.188000  0.665900  1
  H  H801  1  0.339800  0.151800  0.665900  1
  H  H802  1  0.145333  0.326867  0.332567  1
  H  H803  1  0.181533  0.854667  0.332567  1
  H  H804  1  0.673133  0.818467  0.332567  1
  H  H805  1  0.478667  0.993533  0.999233  1
  H  H806  1  0.514867  0.521333  0.999233  1
  H  H807  1  0.006467  0.485133  0.999233  1
  H  H808  1  0.188000  0.339800  0.334100  1
  H  H809  1  0.151800  0.812000  0.334100  1
  H  H810  1  0.660200  0.848200  0.334100  1
  H  H811  1  0.854667  0.673133  0.667433  1
  H  H812  1  0.818467  0.145333  0.667433  1
  H  H813  1  0.326867  0.181533  0.667433  1
  H  H814  1  0.521333  0.006467  0.000767  1
  H  H815  1  0.485133  0.478667  0.000767  1
  H  H816  1  0.993533  0.514867  0.000767  1
  H  H817  1  0.864300  0.658600  0.635900  1
  H  H818  1  0.794300  0.135700  0.635900  1
  H  H819  1  0.341400  0.205700  0.635900  1
  H  H820  1  0.197633  0.325267  0.302567  1
  H  H821  1  0.127633  0.802367  0.302567  1
  H  H822  1  0.674733  0.872367  0.302567  1
  H  H823  1  0.530967  0.991933  0.969233  1
  H  H824  1  0.460967  0.469033  0.969233  1
  H  H825  1  0.008067  0.539033  0.969233  1
  H  H826  1  0.135700  0.341400  0.364100  1
  H  H827  1  0.205700  0.864300  0.364100  1
  H  H828  1  0.658600  0.794300  0.364100  1
  H  H829  1  0.802367  0.674733  0.697433  1
  H  H830  1  0.872367  0.197633  0.697433  1
  H  H831  1  0.325267  0.127633  0.697433  1
  H  H832  1  0.469033  0.008067  0.030767  1
  H  H833  1  0.539033  0.530967  0.030767  1
  H  H834  1  0.991933  0.460967  0.030767  1
  H  H835  1  0.945900  0.722700  0.633500  1
  H  H836  1  0.776800  0.054100  0.633500  1
  H  H837  1  0.277300  0.223200  0.633500  1
  H  H838  1  0.279233  0.389367  0.300167  1
  H  H839  1  0.110133  0.720767  0.300167  1
  H  H840  1  0.610633  0.889867  0.300167  1
  H  H841  1  0.612567  0.056033  0.966833  1
  H  H842  1  0.443467  0.387433  0.966833  1
  H  H843  1  0.943967  0.556533  0.966833  1
  H  H844  1  0.054100  0.277300  0.366500  1
  H  H845  1  0.223200  0.945900  0.366500  1
  H  H846  1  0.722700  0.776800  0.366500  1
  H  H847  1  0.720767  0.610633  0.699833  1
  H  H848  1  0.889867  0.279233  0.699833  1
  H  H849  1  0.389367  0.110133  0.699833  1
  H  H850  1  0.387433  0.943967  0.033167  1
  H  H851  1  0.556533  0.612567  0.033167  1
  H  H852  1  0.056033  0.443467  0.033167  1
  H  H853  1  0.975300  0.788400  0.661000  1
  H  H854  1  0.813100  0.024700  0.661000  1
  H  H855  1  0.211600  0.186900  0.661000  1
  H  H856  1  0.308633  0.455067  0.327667  1
  H  H857  1  0.146433  0.691367  0.327667  1
  H  H858  1  0.544933  0.853567  0.327667  1
  H  H859  1  0.641967  0.121733  0.994333  1
  H  H860  1  0.479767  0.358033  0.994333  1
  H  H861  1  0.878267  0.520233  0.994333  1
  H  H862  1  0.024700  0.211600  0.339000  1
  H  H863  1  0.186900  0.975300  0.339000  1
  H  H864  1  0.788400  0.813100  0.339000  1
  H  H865  1  0.691367  0.544933  0.672333  1
  H  H866  1  0.853567  0.308633  0.672333  1
  H  H867  1  0.455067  0.146433  0.672333  1
  H  H868  1  0.358033  0.878267  0.005667  1
  H  H869  1  0.520233  0.641967  0.005667  1
  H  H870  1  0.121733  0.479767  0.005667  1
  H  H871  1  0.986000  0.874300  0.660200  1
  H  H872  1  0.888300  0.014000  0.660200  1
  H  H873  1  0.125700  0.111700  0.660200  1
  H  H874  1  0.319333  0.540967  0.326867  1
  H  H875  1  0.221633  0.680667  0.326867  1
  H  H876  1  0.459033  0.778367  0.326867  1
  H  H877  1  0.652667  0.207633  0.993533  1
  H  H878  1  0.554967  0.347333  0.993533  1
  H  H879  1  0.792367  0.445033  0.993533  1
  H  H880  1  0.014000  0.125700  0.339800  1
  H  H881  1  0.111700  0.986000  0.339800  1
  H  H882  1  0.874300  0.888300  0.339800  1
  H  H883  1  0.680667  0.459033  0.673133  1
  H  H884  1  0.778367  0.319333  0.673133  1
  H  H885  1  0.540967  0.221633  0.673133  1
  H  H886  1  0.347333  0.792367  0.006467  1
  H  H887  1  0.445033  0.652667  0.006467  1
  H  H888  1  0.207633  0.554967  0.006467  1
  H  H889  1  0.970900  0.920700  0.631700  1
  H  H890  1  0.949800  0.029100  0.631700  1
  H  H891  1  0.079300  0.050200  0.631700  1
  H  H892  1  0.304233  0.587367  0.298367  1
  H  H893  1  0.283133  0.695767  0.298367  1
  H  H894  1  0.412633  0.716867  0.298367  1
  H  H895  1  0.637567  0.254033  0.965033  1
  H  H896  1  0.616467  0.362433  0.965033  1
  H  H897  1  0.745967  0.383533  0.965033  1
  H  H898  1  0.029100  0.079300  0.368300  1
  H  H899  1  0.050200  0.970900  0.368300  1
  H  H900  1  0.920700  0.949800  0.368300  1
  H  H901  1  0.695767  0.412633  0.701633  1
  H  H902  1  0.716867  0.304233  0.701633  1
  H  H903  1  0.587367  0.283133  0.701633  1
  H  H904  1  0.362433  0.745967  0.034967  1
  H  H905  1  0.383533  0.637567  0.034967  1
  H  H906  1  0.254033  0.616467  0.034967  1
  H  H907  1  0.900000  0.927200  0.634900  1
  H  H908  1  0.027200  0.100000  0.634900  1
  H  H909  1  0.072800  0.972800  0.634900  1
  H  H910  1  0.233333  0.593867  0.301567  1
  H  H911  1  0.360533  0.766667  0.301567  1
  H  H912  1  0.406133  0.639467  0.301567  1
  H  H913  1  0.566667  0.260533  0.968233  1
  H  H914  1  0.693867  0.433333  0.968233  1
  H  H915  1  0.739467  0.306133  0.968233  1
  H  H916  1  0.100000  0.072800  0.365100  1
  H  H917  1  0.972800  0.900000  0.365100  1
  H  H918  1  0.927200  0.027200  0.365100  1
  H  H919  1  0.766667  0.406133  0.698433  1
  H  H920  1  0.639467  0.233333  0.698433  1
  H  H921  1  0.593867  0.360533  0.698433  1
  H  H922  1  0.433333  0.739467  0.031767  1
  H  H923  1  0.306133  0.566667  0.031767  1
  H  H924  1  0.260533  0.693867  0.031767  1
  H  H925  1  0.844200  0.887300  0.666667  1
  H  H926  1  0.043100  0.155800  0.666667  1
  H  H927  1  0.112700  0.956900  0.666667  1
  H  H928  1  0.177533  0.553967  0.333333  1
  H  H929  1  0.376433  0.822467  0.333333  1
  H  H930  1  0.446033  0.623567  0.333333  1
  H  H931  1  0.510867  0.220633  0.000000  1
  H  H932  1  0.709767  0.489133  1.000000  1
  H  H933  1  0.779367  0.290233  1.000000  1
  H  H934  1  0.155800  0.112700  0.333333  1
  H  H935  1  0.956900  0.844200  0.333333  1
  H  H936  1  0.887300  0.043100  0.333333  1
  H  H937  1  0.822467  0.446033  0.666667  1
  H  H938  1  0.623567  0.177533  0.666667  1
  H  H939  1  0.553967  0.376433  0.666667  1
  H  H940  1  0.489133  0.779367  0.000000  1
  H  H941  1  0.290233  0.510867  0.000000  1
  H  H942  1  0.220633  0.709767  0.000000  1
  H  H943  1  0.859200  0.840800  0.695200  1
  H  H944  1  0.981600  0.140800  0.695200  1
  H  H945  1  0.159200  0.018400  0.695200  1
  H  H946  1  0.192533  0.507467  0.361867  1
  H  H947  1  0.314933  0.807467  0.361867  1
  H  H948  1  0.492533  0.685067  0.361867  1
  H  H949  1  0.525867  0.174133  0.028533  1
  H  H950  1  0.648267  0.474133  0.028533  1
  H  H951  1  0.825867  0.351733  0.028533  1
  H  H952  1  0.140800  0.159200  0.304800  1
  H  H953  1  0.018400  0.859200  0.304800  1
  H  H954  1  0.840800  0.981600  0.304800  1
  H  H955  1  0.807467  0.492533  0.638133  1
  H  H956  1  0.685067  0.192533  0.638133  1
  H  H957  1  0.507467  0.314933  0.638133  1
  H  H958  1  0.474133  0.825867  0.971467  1
  H  H959  1  0.351733  0.525867  0.971467  1
  H  H960  1  0.174133  0.648267  0.971467  1
  H  H961  1  0.977500  0.766500  0.718800  1
  H  H962  1  0.789000  0.022500  0.718800  1
  H  H963  1  0.233500  0.211000  0.718800  1
  H  H964  1  0.310833  0.433167  0.385467  1
  H  H965  1  0.122333  0.689167  0.385467  1
  H  H966  1  0.566833  0.877667  0.385467  1
  H  H967  1  0.644167  0.099833  0.052133  1
  H  H968  1  0.455667  0.355833  0.052133  1
  H  H969  1  0.900167  0.544333  0.052133  1
  H  H970  1  0.022500  0.233500  0.281200  1
  H  H971  1  0.211000  0.977500  0.281200  1
  H  H972  1  0.766500  0.789000  0.281200  1
  H  H973  1  0.689167  0.566833  0.614533  1
  H  H974  1  0.877667  0.310833  0.614533  1
  H  H975  1  0.433167  0.122333  0.614533  1
  H  H976  1  0.355833  0.900167  0.947867  1
  H  H977  1  0.544333  0.644167  0.947867  1
  H  H978  1  0.099833  0.455667  0.947867  1
  H  H979  1  0.057200  0.791500  0.732600  1
  H  H980  1  0.734300  0.942800  0.732600  1
  H  H981  1  0.208500  0.265700  0.732600  1
  H  H982  1  0.390533  0.458167  0.399267  1
  H  H983  1  0.067633  0.609467  0.399267  1
  H  H984  1  0.541833  0.932367  0.399267  1
  H  H985  1  0.723867  0.124833  0.065933  1
  H  H986  1  0.400967  0.276133  0.065933  1
  H  H987  1  0.875167  0.599033  0.065933  1
  H  H988  1  0.942800  0.208500  0.267400  1
  H  H989  1  0.265700  0.057200  0.267400  1
  H  H990  1  0.791500  0.734300  0.267400  1
  H  H991  1  0.609467  0.541833  0.600733  1
  H  H992  1  0.932367  0.390533  0.600733  1
  H  H993  1  0.458167  0.067633  0.600733  1
  H  H994  1  0.276133  0.875167  0.934067  1
  H  H995  1  0.599033  0.723867  0.934067  1
  H  H996  1  0.124833  0.400967  0.934067  1
  H  H997  1  0.119000  0.874000  0.729200  1
  H  H998  1  0.755000  0.881000  0.729200  1
  H  H999  1  0.126000  0.245000  0.729200  1
  H  H1000  1  0.452333  0.540667  0.395867  1
  H  H1001  1  0.088333  0.547667  0.395867  1
  H  H1002  1  0.459333  0.911667  0.395867  1
  H  H1003  1  0.785667  0.207333  0.062533  1
  H  H1004  1  0.421667  0.214333  0.062533  1
  H  H1005  1  0.792667  0.578333  0.062533  1
  H  H1006  1  0.881000  0.126000  0.270800  1
  H  H1007  1  0.245000  0.119000  0.270800  1
  H  H1008  1  0.874000  0.755000  0.270800  1
  H  H1009  1  0.547667  0.459333  0.604133  1
  H  H1010  1  0.911667  0.452333  0.604133  1
  H  H1011  1  0.540667  0.088333  0.604133  1
  H  H1012  1  0.214333  0.792667  0.937467  1
  H  H1013  1  0.578333  0.785667  0.937467  1
  H  H1014  1  0.207333  0.421667  0.937467  1
  H  H1015  1  0.101100  0.931500  0.712000  1
  H  H1016  1  0.830400  0.898900  0.712000  1
  H  H1017  1  0.068500  0.169600  0.712000  1
  H  H1018  1  0.434433  0.598167  0.378667  1
  H  H1019  1  0.163733  0.565567  0.378667  1
  H  H1020  1  0.401833  0.836267  0.378667  1
  H  H1021  1  0.767767  0.264833  0.045333  1
  H  H1022  1  0.497067  0.232233  0.045333  1
  H  H1023  1  0.735167  0.502933  0.045333  1
  H  H1024  1  0.898900  0.068500  0.288000  1
  H  H1025  1  0.169600  0.101100  0.288000  1
  H  H1026  1  0.931500  0.830400  0.288000  1
  H  H1027  1  0.565567  0.401833  0.621333  1
  H  H1028  1  0.836267  0.434433  0.621333  1
  H  H1029  1  0.598167  0.163733  0.621333  1
  H  H1030  1  0.232233  0.735167  0.954667  1
  H  H1031  1  0.502933  0.767767  0.954667  1
  H  H1032  1  0.264833  0.497067  0.954667  1
  H  H1033  1  0.021400  0.906500  0.698200  1
  H  H1034  1  0.885100  0.978600  0.698200  1
  H  H1035  1  0.093500  0.114900  0.698200  1
  H  H1036  1  0.354733  0.573167  0.364867  1
  H  H1037  1  0.218433  0.645267  0.364867  1
  H  H1038  1  0.426833  0.781567  0.364867  1
  H  H1039  1  0.688067  0.239833  0.031533  1
  H  H1040  1  0.551767  0.311933  0.031533  1
  H  H1041  1  0.760167  0.448233  0.031533  1
  H  H1042  1  0.978600  0.093500  0.301800  1
  H  H1043  1  0.114900  0.021400  0.301800  1
  H  H1044  1  0.906500  0.885100  0.301800  1
  H  H1045  1  0.645267  0.426833  0.635133  1
  H  H1046  1  0.781567  0.354733  0.635133  1
  H  H1047  1  0.573167  0.218433  0.635133  1
  H  H1048  1  0.311933  0.760167  0.968467  1
  H  H1049  1  0.448233  0.688067  0.968467  1
  H  H1050  1  0.239833  0.551767  0.968467  1
  H  H1051  1  0.893600  0.730900  0.728800  1
  H  H1052  1  0.837300  0.106400  0.728800  1
  H  H1053  1  0.269100  0.162700  0.728800  1
  H  H1054  1  0.226933  0.397567  0.395467  1
  H  H1055  1  0.170633  0.773067  0.395467  1
  H  H1056  1  0.602433  0.829367  0.395467  1
  H  H1057  1  0.560267  0.064233  0.062133  1
  H  H1058  1  0.503967  0.439733  0.062133  1
  H  H1059  1  0.935767  0.496033  0.062133  1
  H  H1060  1  0.106400  0.269100  0.271200  1
  H  H1061  1  0.162700  0.893600  0.271200  1
  H  H1062  1  0.730900  0.837300  0.271200  1
  H  H1063  1  0.773067  0.602433  0.604533  1
  H  H1064  1  0.829367  0.226933  0.604533  1
  H  H1065  1  0.397567  0.170633  0.604533  1
  H  H1066  1  0.439733  0.935767  0.937867  1
  H  H1067  1  0.496033  0.560267  0.937867  1
  H  H1068  1  0.064233  0.503967  0.937867  1
  H  H1069  1  0.858900  0.712400  0.767900  1
  H  H1070  1  0.853500  0.141100  0.767900  1
  H  H1071  1  0.287600  0.146500  0.767900  1
  H  H1072  1  0.192233  0.379067  0.434567  1
  H  H1073  1  0.186833  0.807767  0.434567  1
  H  H1074  1  0.620933  0.813167  0.434567  1
  H  H1075  1  0.525567  0.045733  0.101233  1
  H  H1076  1  0.520167  0.474433  0.101233  1
  H  H1077  1  0.954267  0.479833  0.101233  1
  H  H1078  1  0.141100  0.287600  0.232100  1
  H  H1079  1  0.146500  0.858900  0.232100  1
  H  H1080  1  0.712400  0.853500  0.232100  1
  H  H1081  1  0.807767  0.620933  0.565433  1
  H  H1082  1  0.813167  0.192233  0.565433  1
  H  H1083  1  0.379067  0.186833  0.565433  1
  H  H1084  1  0.474433  0.954267  0.898767  1
  H  H1085  1  0.479833  0.525567  0.898767  1
  H  H1086  1  0.045733  0.520167  0.898767  1
  H  H1087  1  0.845100  0.769300  0.788800  1
  H  H1088  1  0.924200  0.154900  0.788800  1
  H  H1089  1  0.230700  0.075800  0.788800  1
  H  H1090  1  0.178433  0.435967  0.455467  1
  H  H1091  1  0.257533  0.821567  0.455467  1
  H  H1092  1  0.564033  0.742467  0.455467  1
  H  H1093  1  0.511767  0.102633  0.122133  1
  H  H1094  1  0.590867  0.488233  0.122133  1
  H  H1095  1  0.897367  0.409133  0.122133  1
  H  H1096  1  0.154900  0.230700  0.211200  1
  H  H1097  1  0.075800  0.845100  0.211200  1
  H  H1098  1  0.769300  0.924200  0.211200  1
  H  H1099  1  0.821567  0.564033  0.544533  1
  H  H1100  1  0.742467  0.178433  0.544533  1
  H  H1101  1  0.435967  0.257533  0.544533  1
  H  H1102  1  0.488233  0.897367  0.877867  1
  H  H1103  1  0.409133  0.511767  0.877867  1
  H  H1104  1  0.102633  0.590867  0.877867  1
  H  H1105  1  0.866000  0.844800  0.770700  1
  H  H1106  1  0.978800  0.134000  0.770700  1
  H  H1107  1  0.155200  0.021200  0.770700  1
  H  H1108  1  0.199333  0.511467  0.437367  1
  H  H1109  1  0.312133  0.800667  0.437367  1
  H  H1110  1  0.488533  0.687867  0.437367  1
  H  H1111  1  0.532667  0.178133  0.104033  1
  H  H1112  1  0.645467  0.467333  0.104033  1
  H  H1113  1  0.821867  0.354533  0.104033  1
  H  H1114  1  0.134000  0.155200  0.229300  1
  H  H1115  1  0.021200  0.866000  0.229300  1
  H  H1116  1  0.844800  0.978800  0.229300  1
  H  H1117  1  0.800667  0.488533  0.562633  1
  H  H1118  1  0.687867  0.199333  0.562633  1
  H  H1119  1  0.511467  0.312133  0.562633  1
  H  H1120  1  0.467333  0.821867  0.895967  1
  H  H1121  1  0.354533  0.532667  0.895967  1
  H  H1122  1  0.178133  0.645467  0.895967  1
  H  H1123  1  0.900800  0.863400  0.731700  1
  H  H1124  1  0.962600  0.099200  0.731700  1
  H  H1125  1  0.136600  0.037400  0.731700  1
  H  H1126  1  0.234133  0.530067  0.398367  1
  H  H1127  1  0.295933  0.765867  0.398367  1
  H  H1128  1  0.469933  0.704067  0.398367  1
  H  H1129  1  0.567467  0.196733  0.065033  1
  H  H1130  1  0.629267  0.432533  0.065033  1
  H  H1131  1  0.803267  0.370733  0.065033  1
  H  H1132  1  0.099200  0.136600  0.268300  1
  H  H1133  1  0.037400  0.900800  0.268300  1
  H  H1134  1  0.863400  0.962600  0.268300  1
  H  H1135  1  0.765867  0.469933  0.601633  1
  H  H1136  1  0.704067  0.234133  0.601633  1
  H  H1137  1  0.530067  0.295933  0.601633  1
  H  H1138  1  0.432533  0.803267  0.934967  1
  H  H1139  1  0.370733  0.567467  0.934967  1
  H  H1140  1  0.196733  0.629267  0.934967  1
  H  H1141  1  0.979600  0.821700  0.654300  1
  H  H1142  1  0.842100  0.020400  0.654300  1
  H  H1143  1  0.178300  0.157900  0.654300  1
  H  H1144  1  0.312933  0.488367  0.320967  1
  H  H1145  1  0.175433  0.687067  0.320967  1
  H  H1146  1  0.511633  0.824567  0.320967  1
  H  H1147  1  0.646267  0.155033  0.987633  1
  H  H1148  1  0.508767  0.353733  0.987633  1
  H  H1149  1  0.844967  0.491233  0.987633  1
  H  H1150  1  0.020400  0.178300  0.345700  1
  H  H1151  1  0.157900  0.979600  0.345700  1
  H  H1152  1  0.821700  0.842100  0.345700  1
  H  H1153  1  0.687067  0.511633  0.679033  1
  H  H1154  1  0.824567  0.312933  0.679033  1
  H  H1155  1  0.488367  0.175433  0.679033  1
  H  H1156  1  0.353733  0.844967  0.012367  1
  H  H1157  1  0.491233  0.646267  0.012367  1
  H  H1158  1  0.155033  0.508767  0.012367  1
  H  H1159  1  0.933200  0.786000  0.619100  1
  H  H1160  1  0.852800  0.066800  0.619100  1
  H  H1161  1  0.214000  0.147200  0.619100  1
  H  H1162  1  0.266533  0.452667  0.285767  1
  H  H1163  1  0.186133  0.733467  0.285767  1
  H  H1164  1  0.547333  0.813867  0.285767  1
  H  H1165  1  0.599867  0.119333  0.952433  1
  H  H1166  1  0.519467  0.400133  0.952433  1
  H  H1167  1  0.880667  0.480533  0.952433  1
  H  H1168  1  0.066800  0.214000  0.380900  1
  H  H1169  1  0.147200  0.933200  0.380900  1
  H  H1170  1  0.786000  0.852800  0.380900  1
  H  H1171  1  0.733467  0.547333  0.714233  1
  H  H1172  1  0.813867  0.266533  0.714233  1
  H  H1173  1  0.452667  0.186133  0.714233  1
  H  H1174  1  0.400133  0.880667  0.047567  1
  H  H1175  1  0.480533  0.599867  0.047567  1
  H  H1176  1  0.119333  0.519467  0.047567  1
  H  H1177  1  0.848000  0.733800  0.621900  1
  H  H1178  1  0.885800  0.152000  0.621900  1
  H  H1179  1  0.266200  0.114200  0.621900  1
  H  H1180  1  0.181333  0.400467  0.288567  1
  H  H1181  1  0.219133  0.818667  0.288567  1
  H  H1182  1  0.599533  0.780867  0.288567  1
  H  H1183  1  0.514667  0.067133  0.955233  1
  H  H1184  1  0.552467  0.485333  0.955233  1
  H  H1185  1  0.932867  0.447533  0.955233  1
  H  H1186  1  0.152000  0.266200  0.378100  1
  H  H1187  1  0.114200  0.848000  0.378100  1
  H  H1188  1  0.733800  0.885800  0.378100  1
  H  H1189  1  0.818667  0.599533  0.711433  1
  H  H1190  1  0.780867  0.181333  0.711433  1
  H  H1191  1  0.400467  0.219133  0.711433  1
  H  H1192  1  0.485333  0.932867  0.044767  1
  H  H1193  1  0.447533  0.514667  0.044767  1
  H  H1194  1  0.067133  0.552467  0.044767  1
  H  H1195  1  0.809200  0.717200  0.660000  1
  H  H1196  1  0.908000  0.190800  0.660000  1
  H  H1197  1  0.282800  0.092000  0.660000  1
  H  H1198  1  0.142533  0.383867  0.326667  1
  H  H1199  1  0.241333  0.857467  0.326667  1
  H  H1200  1  0.616133  0.758667  0.326667  1
  H  H1201  1  0.475867  0.050533  0.993333  1
  H  H1202  1  0.574667  0.524133  0.993333  1
  H  H1203  1  0.949467  0.425333  0.993333  1
  H  H1204  1  0.190800  0.282800  0.340000  1
  H  H1205  1  0.092000  0.809200  0.340000  1
  H  H1206  1  0.717200  0.908000  0.340000  1
  H  H1207  1  0.857467  0.616133  0.673333  1
  H  H1208  1  0.758667  0.142533  0.673333  1
  H  H1209  1  0.383867  0.241333  0.673333  1
  H  H1210  1  0.524133  0.949467  0.006667  1
  H  H1211  1  0.425333  0.475867  0.006667  1
  H  H1212  1  0.050533  0.574667  0.006667  1
  H  H1213  1  0.860900  0.770500  0.696700  1
  H  H1214  1  0.909600  0.139100  0.696700  1
  H  H1215  1  0.229500  0.090400  0.696700  1
  H  H1216  1  0.194233  0.437167  0.363367  1
  H  H1217  1  0.242933  0.805767  0.363367  1
  H  H1218  1  0.562833  0.757067  0.363367  1
  H  H1219  1  0.527567  0.103833  0.030033  1
  H  H1220  1  0.576267  0.472433  0.030033  1
  H  H1221  1  0.896167  0.423733  0.030033  1
  H  H1222  1  0.139100  0.229500  0.303300  1
  H  H1223  1  0.090400  0.860900  0.303300  1
  H  H1224  1  0.770500  0.909600  0.303300  1
  H  H1225  1  0.805767  0.562833  0.636633  1
  H  H1226  1  0.757067  0.194233  0.636633  1
  H  H1227  1  0.437167  0.242933  0.636633  1
  H  H1228  1  0.472433  0.896167  0.969967  1
  H  H1229  1  0.423733  0.527567  0.969967  1
  H  H1230  1  0.103833  0.576267  0.969967  1
  H  H1231  1  0.855600  0.752800  0.695200  1
  H  H1232  1  0.897200  0.144400  0.695200  1
  H  H1233  1  0.247200  0.102800  0.695200  1
  H  H1234  1  0.188933  0.419467  0.361867  1
  H  H1235  1  0.230533  0.811067  0.361867  1
  H  H1236  1  0.580533  0.769467  0.361867  1
  H  H1237  1  0.522267  0.086133  0.028533  1
  H  H1238  1  0.563867  0.477733  0.028533  1
  H  H1239  1  0.913867  0.436133  0.028533  1
  H  H1240  1  0.144400  0.247200  0.304800  1
  H  H1241  1  0.102800  0.855600  0.304800  1
  H  H1242  1  0.752800  0.897200  0.304800  1
  H  H1243  1  0.811067  0.580533  0.638133  1
  H  H1244  1  0.769467  0.188933  0.638133  1
  H  H1245  1  0.419467  0.230533  0.638133  1
  H  H1246  1  0.477733  0.913867  0.971467  1
  H  H1247  1  0.436133  0.522267  0.971467  1
  H  H1248  1  0.086133  0.563867  0.971467  1
  H  H1249  1  0.367900  0.305900  0.983000  1.0
  H  H1250  1  0.938000  0.632100  0.983000  1.0
  H  H1251  1  0.694100  0.062000  0.983000  1.0
  H  H1252  1  0.701233  0.972567  0.649667  1.0
  H  H1253  1  0.271333  0.298767  0.649667  1.0
  H  H1254  1  0.027433  0.728667  0.649667  1.0
  H  H1255  1  0.034567  0.639233  0.316333  1.0
  H  H1256  1  0.604667  0.965433  0.316333  1.0
  H  H1257  1  0.360767  0.395333  0.316333  1.0
  H  H1258  1  0.632100  0.694100  0.017000  1.0
  H  H1259  1  0.062000  0.367900  0.017000  1.0
  H  H1260  1  0.305900  0.938000  0.017000  1.0
  H  H1261  1  0.298767  0.027433  0.350333  1.0
  H  H1262  1  0.728667  0.701233  0.350333  1.0
  H  H1263  1  0.972567  0.271333  0.350333  1.0
  H  H1264  1  0.965433  0.360767  0.683667  1.0
  H  H1265  1  0.395333  0.034567  0.683667  1.0
  H  H1266  1  0.639233  0.604667  0.683667  1.0
  H  H1267  1  0.414700  0.286300  0.008300  1.0
  H  H1268  1  0.871600  0.585300  0.008300  1.0
  H  H1269  1  0.713700  0.128400  0.008300  1.0
  H  H1270  1  0.748033  0.952967  0.674967  1.0
  H  H1271  1  0.204933  0.251967  0.674967  1.0
  H  H1272  1  0.047033  0.795067  0.674967  1.0
  H  H1273  1  0.081367  0.619633  0.341633  1.0
  H  H1274  1  0.538267  0.918633  0.341633  1.0
  H  H1275  1  0.380367  0.461733  0.341633  1.0
  H  H1276  1  0.585300  0.713700  0.991700  1.0
  H  H1277  1  0.128400  0.414700  0.991700  1.0
  H  H1278  1  0.286300  0.871600  0.991700  1.0
  H  H1279  1  0.251967  0.047033  0.325033  1.0
  H  H1280  1  0.795067  0.748033  0.325033  1.0
  H  H1281  1  0.952967  0.204933  0.325033  1.0
  H  H1282  1  0.918633  0.380367  0.658367  1.0
  H  H1283  1  0.461733  0.081367  0.658367  1.0
  H  H1284  1  0.619633  0.538267  0.658367  1.0
  H  H1285  1  0.424700  0.219700  0.999300  1.0
  H  H1286  1  0.795000  0.575300  0.999300  1.0
  H  H1287  1  0.780300  0.205000  0.999300  1.0
  H  H1288  1  0.758033  0.886367  0.665967  1.0
  H  H1289  1  0.128333  0.241967  0.665967  1.0
  H  H1290  1  0.113633  0.871667  0.665967  1.0
  H  H1291  1  0.091367  0.553033  0.332633  1.0
  H  H1292  1  0.461667  0.908633  0.332633  1.0
  H  H1293  1  0.446967  0.538333  0.332633  1.0
  H  H1294  1  0.575300  0.780300  0.000700  1.0
  H  H1295  1  0.205000  0.424700  0.000700  1.0
  H  H1296  1  0.219700  0.795000  0.000700  1.0
  H  H1297  1  0.241967  0.113633  0.334033  1.0
  H  H1298  1  0.871667  0.758033  0.334033  1.0
  H  H1299  1  0.886367  0.128333  0.334033  1.0
  H  H1300  1  0.908633  0.446967  0.667367  1.0
  H  H1301  1  0.538333  0.091367  0.667367  1.0
  H  H1302  1  0.553033  0.461667  0.667367  1.0
  H  H1303  1  0.388500  0.174400  0.963500  1.0
  H  H1304  1  0.785900  0.611500  0.963500  1.0
  H  H1305  1  0.825600  0.214100  0.963500  1.0
  H  H1306  1  0.721833  0.841067  0.630167  1.0
  H  H1307  1  0.119233  0.278167  0.630167  1.0
  H  H1308  1  0.158933  0.880767  0.630167  1.0
  H  H1309  1  0.055167  0.507733  0.296833  1.0
  H  H1310  1  0.452567  0.944833  0.296833  1.0
  H  H1311  1  0.492267  0.547433  0.296833  1.0
  H  H1312  1  0.611500  0.825600  0.036500  1.0
  H  H1313  1  0.214100  0.388500  0.036500  1.0
  H  H1314  1  0.174400  0.785900  0.036500  1.0
  H  H1315  1  0.278167  0.158933  0.369833  1.0
  H  H1316  1  0.880767  0.721833  0.369833  1.0
  H  H1317  1  0.841067  0.119233  0.369833  1.0
  H  H1318  1  0.944833  0.492267  0.703167  1.0
  H  H1319  1  0.547433  0.055167  0.703167  1.0
  H  H1320  1  0.507733  0.452567  0.703167  1.0
  H  H1321  1  0.297300  0.115100  0.886200  1.0
  H  H1322  1  0.817800  0.702700  0.886200  1.0
  H  H1323  1  0.884900  0.182200  0.886200  1.0
  H  H1324  1  0.630633  0.781767  0.552867  1.0
  H  H1325  1  0.151133  0.369367  0.552867  1.0
  H  H1326  1  0.218233  0.848867  0.552867  1.0
  H  H1327  1  0.963967  0.448433  0.219533  1.0
  H  H1328  1  0.484467  0.036033  0.219533  1.0
  H  H1329  1  0.551567  0.515533  0.219533  1.0
  H  H1330  1  0.702700  0.884900  0.113800  1.0
  H  H1331  1  0.182200  0.297300  0.113800  1.0
  H  H1332  1  0.115100  0.817800  0.113800  1.0
  H  H1333  1  0.369367  0.218233  0.447133  1.0
  H  H1334  1  0.848867  0.630633  0.447133  1.0
  H  H1335  1  0.781767  0.151133  0.447133  1.0
  H  H1336  1  0.036033  0.551567  0.780467  1.0
  H  H1337  1  0.515533  0.963967  0.780467  1.0
  H  H1338  1  0.448433  0.484467  0.780467  1.0
  H  H1339  1  0.350100  0.132200  0.923400  1.0
  H  H1340  1  0.782100  0.649900  0.923400  1.0
  H  H1341  1  0.867800  0.217900  0.923400  1.0
  H  H1342  1  0.683433  0.798867  0.590067  1.0
  H  H1343  1  0.115433  0.316567  0.590067  1.0
  H  H1344  1  0.201133  0.884567  0.590067  1.0
  H  H1345  1  0.016767  0.465533  0.256733  1.0
  H  H1346  1  0.448767  0.983233  0.256733  1.0
  H  H1347  1  0.534467  0.551233  0.256733  1.0
  H  H1348  1  0.649900  0.867800  0.076600  1.0
  H  H1349  1  0.217900  0.350100  0.076600  1.0
  H  H1350  1  0.132200  0.782100  0.076600  1.0
  H  H1351  1  0.316567  0.201133  0.409933  1.0
  H  H1352  1  0.884567  0.683433  0.409933  1.0
  H  H1353  1  0.798867  0.115433  0.409933  1.0
  H  H1354  1  0.983233  0.534467  0.743267  1.0
  H  H1355  1  0.551233  0.016767  0.743267  1.0
  H  H1356  1  0.465533  0.448767  0.743267  1.0
  H  H1357  1  0.255400  0.161000  0.865600  1.0
  H  H1358  1  0.905600  0.744600  0.865600  1.0
  H  H1359  1  0.839000  0.094400  0.865600  1.0
  H  H1360  1  0.588733  0.827667  0.532267  1.0
  H  H1361  1  0.238933  0.411267  0.532267  1.0
  H  H1362  1  0.172333  0.761067  0.532267  1.0
  H  H1363  1  0.922067  0.494333  0.198933  1.0
  H  H1364  1  0.572267  0.077933  0.198933  1.0
  H  H1365  1  0.505667  0.427733  0.198933  1.0
  H  H1366  1  0.744600  0.839000  0.134400  1.0
  H  H1367  1  0.094400  0.255400  0.134400  1.0
  H  H1368  1  0.161000  0.905600  0.134400  1.0
  H  H1369  1  0.411267  0.172333  0.467733  1.0
  H  H1370  1  0.761067  0.588733  0.467733  1.0
  H  H1371  1  0.827667  0.238933  0.467733  1.0
  H  H1372  1  0.077933  0.505667  0.801067  1.0
  H  H1373  1  0.427733  0.922067  0.801067  1.0
  H  H1374  1  0.494333  0.572267  0.801067  1.0
  H  H1375  1  0.261700  0.208300  0.879100  1.0
  H  H1376  1  0.946600  0.738300  0.879100  1.0
  H  H1377  1  0.791700  0.053400  0.879100  1.0
  H  H1378  1  0.595033  0.874967  0.545767  1.0
  H  H1379  1  0.279933  0.404967  0.545767  1.0
  H  H1380  1  0.125033  0.720067  0.545767  1.0
  H  H1381  1  0.928367  0.541633  0.212433  1.0
  H  H1382  1  0.613267  0.071633  0.212433  1.0
  H  H1383  1  0.458367  0.386733  0.212433  1.0
  H  H1384  1  0.738300  0.791700  0.120900  1.0
  H  H1385  1  0.053400  0.261700  0.120900  1.0
  H  H1386  1  0.208300  0.946600  0.120900  1.0
  H  H1387  1  0.404967  0.125033  0.454233  1.0
  H  H1388  1  0.720067  0.595033  0.454233  1.0
  H  H1389  1  0.874967  0.279933  0.454233  1.0
  H  H1390  1  0.071633  0.458367  0.787567  1.0
  H  H1391  1  0.386733  0.928367  0.787567  1.0
  H  H1392  1  0.541633  0.613267  0.787567  1.0
  H  H1393  1  0.932400  0.934600  0.776100  1.0
  H  H1394  1  0.002200  0.067600  0.776100  1.0
  H  H1395  1  0.065400  0.997800  0.776100  1.0
  H  H1396  1  0.265733  0.601267  0.442767  1.0
  H  H1397  1  0.335533  0.734267  0.442767  1.0
  H  H1398  1  0.398733  0.664467  0.442767  1.0
  H  H1399  1  0.599067  0.267933  0.109433  1.0
  H  H1400  1  0.668867  0.400933  0.109433  1.0
  H  H1401  1  0.732067  0.331133  0.109433  1.0
  H  H1402  1  0.067600  0.065400  0.223900  1.0
  H  H1403  1  0.997800  0.932400  0.223900  1.0
  H  H1404  1  0.934600  0.002200  0.223900  1.0
  H  H1405  1  0.734267  0.398733  0.557233  1.0
  H  H1406  1  0.664467  0.265733  0.557233  1.0
  H  H1407  1  0.601267  0.335533  0.557233  1.0
  H  H1408  1  0.400933  0.732067  0.890567  1.0
  H  H1409  1  0.331133  0.599067  0.890567  1.0
  H  H1410  1  0.267933  0.668867  0.890567  1.0
  H  H1411  1  0.868100  0.927600  0.752200  1.0
  H  H1412  1  0.059500  0.131900  0.752200  1.0
  H  H1413  1  0.072400  0.940500  0.752200  1.0
  H  H1414  1  0.201433  0.594267  0.418867  1.0
  H  H1415  1  0.392833  0.798567  0.418867  1.0
  H  H1416  1  0.405733  0.607167  0.418867  1.0
  H  H1417  1  0.534767  0.260933  0.085533  1.0
  H  H1418  1  0.726167  0.465233  0.085533  1.0
  H  H1419  1  0.739067  0.273833  0.085533  1.0
  H  H1420  1  0.131900  0.072400  0.247800  1.0
  H  H1421  1  0.940500  0.868100  0.247800  1.0
  H  H1422  1  0.927600  0.059500  0.247800  1.0
  H  H1423  1  0.798567  0.405733  0.581133  1.0
  H  H1424  1  0.607167  0.201433  0.581133  1.0
  H  H1425  1  0.594267  0.392833  0.581133  1.0
  H  H1426  1  0.465233  0.739067  0.914467  1.0
  H  H1427  1  0.273833  0.534767  0.914467  1.0
  H  H1428  1  0.260933  0.726167  0.914467  1.0
  H  H1429  1  0.837300  0.980300  0.759300  1.0
  H  H1430  1  0.143000  0.162700  0.759300  1.0
  H  H1431  1  0.019700  0.857000  0.759300  1.0
  H  H1432  1  0.170633  0.646967  0.425967  1.0
  H  H1433  1  0.476333  0.829367  0.425967  1.0
  H  H1434  1  0.353033  0.523667  0.425967  1.0
  H  H1435  1  0.503967  0.313633  0.092633  1.0
  H  H1436  1  0.809667  0.496033  0.092633  1.0
  H  H1437  1  0.686367  0.190333  0.092633  1.0
  H  H1438  1  0.162700  0.019700  0.240700  1.0
  H  H1439  1  0.857000  0.837300  0.240700  1.0
  H  H1440  1  0.980300  0.143000  0.240700  1.0
  H  H1441  1  0.829367  0.353033  0.574033  1.0
  H  H1442  1  0.523667  0.170633  0.574033  1.0
  H  H1443  1  0.646967  0.476333  0.574033  1.0
  H  H1444  1  0.496033  0.686367  0.907367  1.0
  H  H1445  1  0.190333  0.503967  0.907367  1.0
  H  H1446  1  0.313633  0.809667  0.907367  1.0
  H  H1447  1  0.868400  0.035200  0.791600  1.0
  H  H1448  1  0.166800  0.131600  0.791600  1.0
  H  H1449  1  0.964800  0.833200  0.791600  1.0
  H  H1450  1  0.201733  0.701867  0.458267  1.0
  H  H1451  1  0.500133  0.798267  0.458267  1.0
  H  H1452  1  0.298133  0.499867  0.458267  1.0
  H  H1453  1  0.535067  0.368533  0.124933  1.0
  H  H1454  1  0.833467  0.464933  0.124933  1.0
  H  H1455  1  0.631467  0.166533  0.124933  1.0
  H  H1456  1  0.131600  0.964800  0.208400  1.0
  H  H1457  1  0.833200  0.868400  0.208400  1.0
  H  H1458  1  0.035200  0.166800  0.208400  1.0
  H  H1459  1  0.798267  0.298133  0.541733  1.0
  H  H1460  1  0.499867  0.201733  0.541733  1.0
  H  H1461  1  0.701867  0.500133  0.541733  1.0
  H  H1462  1  0.464933  0.631467  0.875067  1.0
  H  H1463  1  0.166533  0.535067  0.875067  1.0
  H  H1464  1  0.368533  0.833467  0.875067  1.0
  H  H1465  1  0.963100  0.128900  0.863100  1.0
  H  H1466  1  0.165800  0.036900  0.863100  1.0
  H  H1467  1  0.871100  0.834200  0.863100  1.0
  H  H1468  1  0.296433  0.795567  0.529767  1.0
  H  H1469  1  0.499133  0.703567  0.529767  1.0
  H  H1470  1  0.204433  0.500867  0.529767  1.0
  H  H1471  1  0.629767  0.462233  0.196433  1.0
  H  H1472  1  0.832467  0.370233  0.196433  1.0
  H  H1473  1  0.537767  0.167533  0.196433  1.0
  H  H1474  1  0.036900  0.871100  0.136900  1.0
  H  H1475  1  0.834200  0.963100  0.136900  1.0
  H  H1476  1  0.128900  0.165800  0.136900  1.0
  H  H1477  1  0.703567  0.204433  0.470233  1.0
  H  H1478  1  0.500867  0.296433  0.470233  1.0
  H  H1479  1  0.795567  0.499133  0.470233  1.0
  H  H1480  1  0.370233  0.537767  0.803567  1.0
  H  H1481  1  0.167533  0.629767  0.803567  1.0
  H  H1482  1  0.462233  0.832467  0.803567  1.0
  H  H1483  1  0.910500  0.096100  0.826000  1.0
  H  H1484  1  0.185600  0.089500  0.826000  1.0
  H  H1485  1  0.903900  0.814400  0.826000  1.0
  H  H1486  1  0.243833  0.762767  0.492667  1.0
  H  H1487  1  0.518933  0.756167  0.492667  1.0
  H  H1488  1  0.237233  0.481067  0.492667  1.0
  H  H1489  1  0.577167  0.429433  0.159333  1.0
  H  H1490  1  0.852267  0.422833  0.159333  1.0
  H  H1491  1  0.570567  0.147733  0.159333  1.0
  H  H1492  1  0.089500  0.903900  0.174000  1.0
  H  H1493  1  0.814400  0.910500  0.174000  1.0
  H  H1494  1  0.096100  0.185600  0.174000  1.0
  H  H1495  1  0.756167  0.237233  0.507333  1.0
  H  H1496  1  0.481067  0.243833  0.507333  1.0
  H  H1497  1  0.762767  0.518933  0.507333  1.0
  H  H1498  1  0.422833  0.570567  0.840667  1.0
  H  H1499  1  0.147733  0.577167  0.840667  1.0
  H  H1500  1  0.429433  0.852267  0.840667  1.0
  H  H1501  1  0.017200  0.052800  0.878600  1.0
  H  H1502  1  0.035600  0.982800  0.878600  1.0
  H  H1503  1  0.947200  0.964400  0.878600  1.0
  H  H1504  1  0.350533  0.719467  0.545267  1.0
  H  H1505  1  0.368933  0.649467  0.545267  1.0
  H  H1506  1  0.280533  0.631067  0.545267  1.0
  H  H1507  1  0.683867  0.386133  0.211933  1.0
  H  H1508  1  0.702267  0.316133  0.211933  1.0
  H  H1509  1  0.613867  0.297733  0.211933  1.0
  H  H1510  1  0.982800  0.947200  0.121400  1.0
  H  H1511  1  0.964400  0.017200  0.121400  1.0
  H  H1512  1  0.052800  0.035600  0.121400  1.0
  H  H1513  1  0.649467  0.280533  0.454733  1.0
  H  H1514  1  0.631067  0.350533  0.454733  1.0
  H  H1515  1  0.719467  0.368933  0.454733  1.0
  H  H1516  1  0.316133  0.613867  0.788067  1.0
  H  H1517  1  0.297733  0.683867  0.788067  1.0
  H  H1518  1  0.386133  0.702267  0.788067  1.0
  H  H1519  1  0.013300  0.097200  0.889700  1.0
  H  H1520  1  0.083900  0.986700  0.889700  1.0
  H  H1521  1  0.902800  0.916100  0.889700  1.0
  H  H1522  1  0.346633  0.763867  0.556367  1.0
  H  H1523  1  0.417233  0.653367  0.556367  1.0
  H  H1524  1  0.236133  0.582767  0.556367  1.0
  H  H1525  1  0.679967  0.430533  0.223033  1.0
  H  H1526  1  0.750567  0.320033  0.223033  1.0
  H  H1527  1  0.569467  0.249433  0.223033  1.0
  H  H1528  1  0.986700  0.902800  0.110300  1.0
  H  H1529  1  0.916100  0.013300  0.110300  1.0
  H  H1530  1  0.097200  0.083900  0.110300  1.0
  H  H1531  1  0.653367  0.236133  0.443633  1.0
  H  H1532  1  0.582767  0.346633  0.443633  1.0
  H  H1533  1  0.763867  0.417233  0.443633  1.0
  H  H1534  1  0.320033  0.569467  0.776967  1.0
  H  H1535  1  0.249433  0.679967  0.776967  1.0
  H  H1536  1  0.430533  0.750567  0.776967  1.0
  H  H1537  1  0.062500  0.149500  0.837900  1.0
  H  H1538  1  0.087000  0.937500  0.837900  1.0
  H  H1539  1  0.850500  0.913000  0.837900  1.0
  H  H1540  1  0.395833  0.816167  0.504567  1.0
  H  H1541  1  0.420333  0.604167  0.504567  1.0
  H  H1542  1  0.183833  0.579667  0.504567  1.0
  H  H1543  1  0.729167  0.482833  0.171233  1.0
  H  H1544  1  0.753667  0.270833  0.171233  1.0
  H  H1545  1  0.517167  0.246333  0.171233  1.0
  H  H1546  1  0.937500  0.850500  0.162100  1.0
  H  H1547  1  0.913000  0.062500  0.162100  1.0
  H  H1548  1  0.149500  0.087000  0.162100  1.0
  H  H1549  1  0.604167  0.183833  0.495433  1.0
  H  H1550  1  0.579667  0.395833  0.495433  1.0
  H  H1551  1  0.816167  0.420333  0.495433  1.0
  H  H1552  1  0.270833  0.517167  0.828767  1.0
  H  H1553  1  0.246333  0.729167  0.828767  1.0
  H  H1554  1  0.482833  0.753667  0.828767  1.0
  H  H1555  1  0.145700  0.201200  0.827700  1.0
  H  H1556  1  0.055500  0.854300  0.827700  1.0
  H  H1557  1  0.798800  0.944500  0.827700  1.0
  H  H1558  1  0.479033  0.867867  0.494367  1.0
  H  H1559  1  0.388833  0.520967  0.494367  1.0
  H  H1560  1  0.132133  0.611167  0.494367  1.0
  H  H1561  1  0.812367  0.534533  0.161033  1.0
  H  H1562  1  0.722167  0.187633  0.161033  1.0
  H  H1563  1  0.465467  0.277833  0.161033  1.0
  H  H1564  1  0.854300  0.798800  0.172300  1.0
  H  H1565  1  0.944500  0.145700  0.172300  1.0
  H  H1566  1  0.201200  0.055500  0.172300  1.0
  H  H1567  1  0.520967  0.132133  0.505633  1.0
  H  H1568  1  0.611167  0.479033  0.505633  1.0
  H  H1569  1  0.867867  0.388833  0.505633  1.0
  H  H1570  1  0.187633  0.465467  0.838967  1.0
  H  H1571  1  0.277833  0.812367  0.838967  1.0
  H  H1572  1  0.534533  0.722167  0.838967  1.0
  H  H1573  1  0.206400  0.197600  0.849600  1.0
  H  H1574  1  0.991200  0.793600  0.849600  1.0
  H  H1575  1  0.802400  0.008800  0.849600  1.0
  H  H1576  1  0.539733  0.864267  0.516267  1.0
  H  H1577  1  0.324533  0.460267  0.516267  1.0
  H  H1578  1  0.135733  0.675467  0.516267  1.0
  H  H1579  1  0.873067  0.530933  0.182933  1.0
  H  H1580  1  0.657867  0.126933  0.182933  1.0
  H  H1581  1  0.469067  0.342133  0.182933  1.0
  H  H1582  1  0.793600  0.802400  0.150400  1.0
  H  H1583  1  0.008800  0.206400  0.150400  1.0
  H  H1584  1  0.197600  0.991200  0.150400  1.0
  H  H1585  1  0.460267  0.135733  0.483733  1.0
  H  H1586  1  0.675467  0.539733  0.483733  1.0
  H  H1587  1  0.864267  0.324533  0.483733  1.0
  H  H1588  1  0.126933  0.469067  0.817067  1.0
  H  H1589  1  0.342133  0.873067  0.817067  1.0
  H  H1590  1  0.530933  0.657867  0.817067  1.0
  H  H1591  1  0.066700  0.072900  0.910000  1.0
  H  H1592  1  0.006200  0.933300  0.910000  1.0
  H  H1593  1  0.927100  0.993800  0.910000  1.0
  H  H1594  1  0.400033  0.739567  0.576667  1.0
  H  H1595  1  0.339533  0.599967  0.576667  1.0
  H  H1596  1  0.260433  0.660467  0.576667  1.0
  H  H1597  1  0.733367  0.406233  0.243333  1.0
  H  H1598  1  0.672867  0.266633  0.243333  1.0
  H  H1599  1  0.593767  0.327133  0.243333  1.0
  H  H1600  1  0.933300  0.927100  0.090000  1.0
  H  H1601  1  0.993800  0.066700  0.090000  1.0
  H  H1602  1  0.072900  0.006200  0.090000  1.0
  H  H1603  1  0.599967  0.260433  0.423333  1.0
  H  H1604  1  0.660467  0.400033  0.423333  1.0
  H  H1605  1  0.739567  0.339533  0.423333  1.0
  H  H1606  1  0.266633  0.593767  0.756667  1.0
  H  H1607  1  0.327133  0.733367  0.756667  1.0
  H  H1608  1  0.406233  0.672867  0.756667  1.0
  H  H1609  1  0.127700  0.067400  0.931400  1.0
  H  H1610  1  0.939700  0.872300  0.931400  1.0
  H  H1611  1  0.932600  0.060300  0.931400  1.0
  H  H1612  1  0.461033  0.734067  0.598067  1.0
  H  H1613  1  0.273033  0.538967  0.598067  1.0
  H  H1614  1  0.265933  0.726967  0.598067  1.0
  H  H1615  1  0.794367  0.400733  0.264733  1.0
  H  H1616  1  0.606367  0.205633  0.264733  1.0
  H  H1617  1  0.599267  0.393633  0.264733  1.0
  H  H1618  1  0.872300  0.932600  0.068600  1.0
  H  H1619  1  0.060300  0.127700  0.068600  1.0
  H  H1620  1  0.067400  0.939700  0.068600  1.0
  H  H1621  1  0.538967  0.265933  0.401933  1.0
  H  H1622  1  0.726967  0.461033  0.401933  1.0
  H  H1623  1  0.734067  0.273033  0.401933  1.0
  H  H1624  1  0.205633  0.599267  0.735267  1.0
  H  H1625  1  0.393633  0.794367  0.735267  1.0
  H  H1626  1  0.400733  0.606367  0.735267  1.0
  H  H1627  1  0.210400  0.112300  0.918600  1.0
  H  H1628  1  0.901900  0.789600  0.918600  1.0
  H  H1629  1  0.887700  0.098100  0.918600  1.0
  H  H1630  1  0.543733  0.778967  0.585267  1.0
  H  H1631  1  0.235233  0.456267  0.585267  1.0
  H  H1632  1  0.221033  0.764767  0.585267  1.0
  H  H1633  1  0.877067  0.445633  0.251933  1.0
  H  H1634  1  0.568567  0.122933  0.251933  1.0
  H  H1635  1  0.554367  0.431433  0.251933  1.0
  H  H1636  1  0.789600  0.887700  0.081400  1.0
  H  H1637  1  0.098100  0.210400  0.081400  1.0
  H  H1638  1  0.112300  0.901900  0.081400  1.0
  H  H1639  1  0.456267  0.221033  0.414733  1.0
  H  H1640  1  0.764767  0.543733  0.414733  1.0
  H  H1641  1  0.778967  0.235233  0.414733  1.0
  H  H1642  1  0.122933  0.554367  0.748067  1.0
  H  H1643  1  0.431433  0.877067  0.748067  1.0
  H  H1644  1  0.445633  0.568567  0.748067  1.0
  H  H1645  1  0.291300  0.307200  0.883000  1.0
  H  H1646  1  0.015900  0.708700  0.883000  1.0
  H  H1647  1  0.692800  0.984100  0.883000  1.0
  H  H1648  1  0.624633  0.973867  0.549667  1.0
  H  H1649  1  0.349233  0.375367  0.549667  1.0
  H  H1650  1  0.026133  0.650767  0.549667  1.0
  H  H1651  1  0.957967  0.640533  0.216333  1.0
  H  H1652  1  0.682567  0.042033  0.216333  1.0
  H  H1653  1  0.359467  0.317433  0.216333  1.0
  H  H1654  1  0.708700  0.692800  0.117000  1.0
  H  H1655  1  0.984100  0.291300  0.117000  1.0
  H  H1656  1  0.307200  0.015900  0.117000  1.0
  H  H1657  1  0.375367  0.026133  0.450333  1.0
  H  H1658  1  0.650767  0.624633  0.450333  1.0
  H  H1659  1  0.973867  0.349233  0.450333  1.0
  H  H1660  1  0.042033  0.359467  0.783667  1.0
  H  H1661  1  0.317433  0.957967  0.783667  1.0
  H  H1662  1  0.640533  0.682567  0.783667  1.0
  H  H1663  1  0.230600  0.310800  0.860500  1.0
  H  H1664  1  0.080200  0.769400  0.860500  1.0
  H  H1665  1  0.689200  0.919800  0.860500  1.0
  H  H1666  1  0.563933  0.977467  0.527167  1.0
  H  H1667  1  0.413533  0.436067  0.527167  1.0
  H  H1668  1  0.022533  0.586467  0.527167  1.0
  H  H1669  1  0.897267  0.644133  0.193833  1.0
  H  H1670  1  0.746867  0.102733  0.193833  1.0
  H  H1671  1  0.355867  0.253133  0.193833  1.0
  H  H1672  1  0.769400  0.689200  0.139500  1.0
  H  H1673  1  0.919800  0.230600  0.139500  1.0
  H  H1674  1  0.310800  0.080200  0.139500  1.0
  H  H1675  1  0.436067  0.022533  0.472833  1.0
  H  H1676  1  0.586467  0.563933  0.472833  1.0
  H  H1677  1  0.977467  0.413533  0.472833  1.0
  H  H1678  1  0.102733  0.355867  0.806167  1.0
  H  H1679  1  0.253133  0.897267  0.806167  1.0
  H  H1680  1  0.644133  0.746867  0.806167  1.0
  H  H1681  1  0.150600  0.272700  0.875400  1.0
  H  H1682  1  0.122100  0.849400  0.875400  1.0
  H  H1683  1  0.727300  0.877900  0.875400  1.0
  H  H1684  1  0.483933  0.939367  0.542067  1.0
  H  H1685  1  0.455433  0.516067  0.542067  1.0
  H  H1686  1  0.060633  0.544567  0.542067  1.0
  H  H1687  1  0.817267  0.606033  0.208733  1.0
  H  H1688  1  0.788767  0.182733  0.208733  1.0
  H  H1689  1  0.393967  0.211233  0.208733  1.0
  H  H1690  1  0.849400  0.727300  0.124600  1.0
  H  H1691  1  0.877900  0.150600  0.124600  1.0
  H  H1692  1  0.272700  0.122100  0.124600  1.0
  H  H1693  1  0.516067  0.060633  0.457933  1.0
  H  H1694  1  0.544567  0.483933  0.457933  1.0
  H  H1695  1  0.939367  0.455433  0.457933  1.0
  H  H1696  1  0.182733  0.393967  0.791267  1.0
  H  H1697  1  0.211233  0.817267  0.791267  1.0
  H  H1698  1  0.606033  0.788767  0.791267  1.0
  H  H1699  1  0.133300  0.232900  0.913400  1.0
  H  H1700  1  0.099600  0.866700  0.913400  1.0
  H  H1701  1  0.767100  0.900400  0.913400  1.0
  H  H1702  1  0.466633  0.899567  0.580067  1.0
  H  H1703  1  0.432933  0.533367  0.580067  1.0
  H  H1704  1  0.100433  0.567067  0.580067  1.0
  H  H1705  1  0.799967  0.566233  0.246733  1.0
  H  H1706  1  0.766267  0.200033  0.246733  1.0
  H  H1707  1  0.433767  0.233733  0.246733  1.0
  H  H1708  1  0.866700  0.767100  0.086600  1.0
  H  H1709  1  0.900400  0.133300  0.086600  1.0
  H  H1710  1  0.232900  0.099600  0.086600  1.0
  H  H1711  1  0.533367  0.100433  0.419933  1.0
  H  H1712  1  0.567067  0.466633  0.419933  1.0
  H  H1713  1  0.899567  0.432933  0.419933  1.0
  H  H1714  1  0.200033  0.433767  0.753267  1.0
  H  H1715  1  0.233733  0.799967  0.753267  1.0
  H  H1716  1  0.566233  0.766267  0.753267  1.0
  H  H1717  1  0.143400  0.162800  0.990600  1.0
  H  H1718  1  0.019400  0.856600  0.990600  1.0
  H  H1719  1  0.837200  0.980600  0.990600  1.0
  H  H1720  1  0.476733  0.829467  0.657267  1.0
  H  H1721  1  0.352733  0.523267  0.657267  1.0
  H  H1722  1  0.170533  0.647267  0.657267  1.0
  H  H1723  1  0.810067  0.496133  0.323933  1.0
  H  H1724  1  0.686067  0.189933  0.323933  1.0
  H  H1725  1  0.503867  0.313933  0.323933  1.0
  H  H1726  1  0.856600  0.837200  0.009400  1.0
  H  H1727  1  0.980600  0.143400  0.009400  1.0
  H  H1728  1  0.162800  0.019400  0.009400  1.0
  H  H1729  1  0.523267  0.170533  0.342733  1.0
  H  H1730  1  0.647267  0.476733  0.342733  1.0
  H  H1731  1  0.829467  0.352733  0.342733  1.0
  H  H1732  1  0.189933  0.503867  0.676067  1.0
  H  H1733  1  0.313933  0.810067  0.676067  1.0
  H  H1734  1  0.496133  0.686067  0.676067  1.0
  H  H1735  1  0.119400  0.184500  0.951000  1.0
  H  H1736  1  0.065100  0.880600  0.951000  1.0
  H  H1737  1  0.815500  0.934900  0.951000  1.0
  H  H1738  1  0.452733  0.851167  0.617667  1.0
  H  H1739  1  0.398433  0.547267  0.617667  1.0
  H  H1740  1  0.148833  0.601567  0.617667  1.0
  H  H1741  1  0.786067  0.517833  0.284333  1.0
  H  H1742  1  0.731767  0.213933  0.284333  1.0
  H  H1743  1  0.482167  0.268233  0.284333  1.0
  H  H1744  1  0.880600  0.815500  0.049000  1.0
  H  H1745  1  0.934900  0.119400  0.049000  1.0
  H  H1746  1  0.184500  0.065100  0.049000  1.0
  H  H1747  1  0.547267  0.148833  0.382333  1.0
  H  H1748  1  0.601567  0.452733  0.382333  1.0
  H  H1749  1  0.851167  0.398433  0.382333  1.0
  H  H1750  1  0.213933  0.482167  0.715667  1.0
  H  H1751  1  0.268233  0.786067  0.715667  1.0
  H  H1752  1  0.517833  0.731767  0.715667  1.0
  H  H1753  1  0.227900  0.192600  0.012300  1.0
  H  H1754  1  0.964700  0.772100  0.012300  1.0
  H  H1755  1  0.807400  0.035300  0.012300  1.0
  H  H1756  1  0.561233  0.859267  0.678967  1.0
  H  H1757  1  0.298033  0.438767  0.678967  1.0
  H  H1758  1  0.140733  0.701967  0.678967  1.0
  H  H1759  1  0.894567  0.525933  0.345633  1.0
  H  H1760  1  0.631367  0.105433  0.345633  1.0
  H  H1761  1  0.474067  0.368633  0.345633  1.0
  H  H1762  1  0.772100  0.807400  0.987700  1.0
  H  H1763  1  0.035300  0.227900  0.987700  1.0
  H  H1764  1  0.192600  0.964700  0.987700  1.0
  H  H1765  1  0.438767  0.140733  0.321033  1.0
  H  H1766  1  0.701967  0.561233  0.321033  1.0
  H  H1767  1  0.859267  0.298033  0.321033  1.0
  H  H1768  1  0.105433  0.474067  0.654367  1.0
  H  H1769  1  0.368633  0.894567  0.654367  1.0
  H  H1770  1  0.525933  0.631367  0.654367  1.0
  H  H1771  1  0.276400  0.229000  0.997900  1.0
  H  H1772  1  0.952600  0.723600  0.997900  1.0
  H  H1773  1  0.771000  0.047400  0.997900  1.0
  H  H1774  1  0.609733  0.895667  0.664567  1.0
  H  H1775  1  0.285933  0.390267  0.664567  1.0
  H  H1776  1  0.104333  0.714067  0.664567  1.0
  H  H1777  1  0.943067  0.562333  0.331233  1.0
  H  H1778  1  0.619267  0.056933  0.331233  1.0
  H  H1779  1  0.437667  0.380733  0.331233  1.0
  H  H1780  1  0.723600  0.771000  0.002100  1.0
  H  H1781  1  0.047400  0.276400  0.002100  1.0
  H  H1782  1  0.229000  0.952600  0.002100  1.0
  H  H1783  1  0.390267  0.104333  0.335433  1.0
  H  H1784  1  0.714067  0.609733  0.335433  1.0
  H  H1785  1  0.895667  0.285933  0.335433  1.0
  H  H1786  1  0.056933  0.437667  0.668767  1.0
  H  H1787  1  0.380733  0.943067  0.668767  1.0
  H  H1788  1  0.562333  0.619267  0.668767  1.0
  H  H1789  1  0.265700  0.891200  0.109400  1.0
  H  H1790  1  0.625500  0.734300  0.109400  1.0
  H  H1791  1  0.108800  0.374500  0.109400  1.0
  H  H1792  1  0.599033  0.557867  0.776067  1.0
  H  H1793  1  0.958833  0.400967  0.776067  1.0
  H  H1794  1  0.442133  0.041167  0.776067  1.0
  H  H1795  1  0.932367  0.224533  0.442733  1.0
  H  H1796  1  0.292167  0.067633  0.442733  1.0
  H  H1797  1  0.775467  0.707833  0.442733  1.0
  H  H1798  1  0.734300  0.108800  0.890600  1.0
  H  H1799  1  0.374500  0.265700  0.890600  1.0
  H  H1800  1  0.891200  0.625500  0.890600  1.0
  H  H1801  1  0.400967  0.442133  0.223933  1.0
  H  H1802  1  0.041167  0.599033  0.223933  1.0
  H  H1803  1  0.557867  0.958833  0.223933  1.0
  H  H1804  1  0.067633  0.775467  0.557267  1.0
  H  H1805  1  0.707833  0.932367  0.557267  1.0
  H  H1806  1  0.224533  0.292167  0.557267  1.0
  H  H1807  1  0.320000  0.887500  0.135900  1.0
  H  H1808  1  0.567500  0.680000  0.135900  1.0
  H  H1809  1  0.112500  0.432500  0.135900  1.0
  H  H1810  1  0.653333  0.554167  0.802567  1.0
  H  H1811  1  0.900833  0.346667  0.802567  1.0
  H  H1812  1  0.445833  0.099167  0.802567  1.0
  H  H1813  1  0.986667  0.220833  0.469233  1.0
  H  H1814  1  0.234167  0.013333  0.469233  1.0
  H  H1815  1  0.779167  0.765833  0.469233  1.0
  H  H1816  1  0.680000  0.112500  0.864100  1.0
  H  H1817  1  0.432500  0.320000  0.864100  1.0
  H  H1818  1  0.887500  0.567500  0.864100  1.0
  H  H1819  1  0.346667  0.445833  0.197433  1.0
  H  H1820  1  0.099167  0.653333  0.197433  1.0
  H  H1821  1  0.554167  0.900833  0.197433  1.0
  H  H1822  1  0.013333  0.779167  0.530767  1.0
  H  H1823  1  0.765833  0.986667  0.530767  1.0
  H  H1824  1  0.220833  0.234167  0.530767  1.0
  H  H1825  1  0.404500  0.943100  0.131700  1.0
  H  H1826  1  0.538600  0.595500  0.131700  1.0
  H  H1827  1  0.056900  0.461400  0.131700  1.0
  H  H1828  1  0.737833  0.609767  0.798367  1.0
  H  H1829  1  0.871933  0.262167  0.798367  1.0
  H  H1830  1  0.390233  0.128067  0.798367  1.0
  H  H1831  1  0.071167  0.276433  0.465033  1.0
  H  H1832  1  0.205267  0.928833  0.465033  1.0
  H  H1833  1  0.723567  0.794733  0.465033  1.0
  H  H1834  1  0.595500  0.056900  0.868300  1.0
  H  H1835  1  0.461400  0.404500  0.868300  1.0
  H  H1836  1  0.943100  0.538600  0.868300  1.0
  H  H1837  1  0.262167  0.390233  0.201633  1.0
  H  H1838  1  0.128067  0.737833  0.201633  1.0
  H  H1839  1  0.609767  0.871933  0.201633  1.0
  H  H1840  1  0.928833  0.723567  0.534967  1.0
  H  H1841  1  0.794733  0.071167  0.534967  1.0
  H  H1842  1  0.276433  0.205267  0.534967  1.0
  H  H1843  1  0.431000  0.002900  0.100500  1.0
  H  H1844  1  0.571900  0.569000  0.100500  1.0
  H  H1845  1  0.997100  0.428100  0.100500  1.0
  H  H1846  1  0.764333  0.669567  0.767167  1.0
  H  H1847  1  0.905233  0.235667  0.767167  1.0
  H  H1848  1  0.330433  0.094767  0.767167  1.0
  H  H1849  1  0.097667  0.336233  0.433833  1.0
  H  H1850  1  0.238567  0.902333  0.433833  1.0
  H  H1851  1  0.663767  0.761433  0.433833  1.0
  H  H1852  1  0.569000  0.997100  0.899500  1.0
  H  H1853  1  0.428100  0.431000  0.899500  1.0
  H  H1854  1  0.002900  0.571900  0.899500  1.0
  H  H1855  1  0.235667  0.330433  0.232833  1.0
  H  H1856  1  0.094767  0.764333  0.232833  1.0
  H  H1857  1  0.669567  0.905233  0.232833  1.0
  H  H1858  1  0.902333  0.663767  0.566167  1.0
  H  H1859  1  0.761433  0.097667  0.566167  1.0
  H  H1860  1  0.336233  0.238567  0.566167  1.0
  H  H1861  1  0.436600  0.102300  0.030800  1.0
  H  H1862  1  0.665700  0.563400  0.030800  1.0
  H  H1863  1  0.897700  0.334300  0.030800  1.0
  H  H1864  1  0.769933  0.768967  0.697467  1.0
  H  H1865  1  0.999033  0.230067  0.697467  1.0
  H  H1866  1  0.231033  0.000967  0.697467  1.0
  H  H1867  1  0.103267  0.435633  0.364133  1.0
  H  H1868  1  0.332367  0.896733  0.364133  1.0
  H  H1869  1  0.564367  0.667633  0.364133  1.0
  H  H1870  1  0.563400  0.897700  0.969200  1.0
  H  H1871  1  0.334300  0.436600  0.969200  1.0
  H  H1872  1  0.102300  0.665700  0.969200  1.0
  H  H1873  1  0.230067  0.231033  0.302533  1.0
  H  H1874  1  0.000967  0.769933  0.302533  1.0
  H  H1875  1  0.768967  0.999033  0.302533  1.0
  H  H1876  1  0.896733  0.564367  0.635867  1.0
  H  H1877  1  0.667633  0.103267  0.635867  1.0
  H  H1878  1  0.435633  0.332367  0.635867  1.0
  H  H1879  1  0.453700  0.065400  0.067500  1.0
  H  H1880  1  0.611700  0.546300  0.067500  1.0
  H  H1881  1  0.934600  0.388300  0.067500  1.0
  H  H1882  1  0.787033  0.732067  0.734167  1.0
  H  H1883  1  0.945033  0.212967  0.734167  1.0
  H  H1884  1  0.267933  0.054967  0.734167  1.0
  H  H1885  1  0.120367  0.398733  0.400833  1.0
  H  H1886  1  0.278367  0.879633  0.400833  1.0
  H  H1887  1  0.601267  0.721633  0.400833  1.0
  H  H1888  1  0.546300  0.934600  0.932500  1.0
  H  H1889  1  0.388300  0.453700  0.932500  1.0
  H  H1890  1  0.065400  0.611700  0.932500  1.0
  H  H1891  1  0.212967  0.267933  0.265833  1.0
  H  H1892  1  0.054967  0.787033  0.265833  1.0
  H  H1893  1  0.732067  0.945033  0.265833  1.0
  H  H1894  1  0.879633  0.601267  0.599167  1.0
  H  H1895  1  0.721633  0.120367  0.599167  1.0
  H  H1896  1  0.398733  0.278367  0.599167  1.0
  H  H1897  1  0.356600  0.069700  0.002400  1.0
  H  H1898  1  0.713100  0.643400  0.002400  1.0
  H  H1899  1  0.930300  0.286900  0.002400  1.0
  H  H1900  1  0.689933  0.736367  0.669067  1.0
  H  H1901  1  0.046433  0.310067  0.669067  1.0
  H  H1902  1  0.263633  0.953567  0.669067  1.0
  H  H1903  1  0.023267  0.403033  0.335733  1.0
  H  H1904  1  0.379767  0.976733  0.335733  1.0
  H  H1905  1  0.596967  0.620233  0.335733  1.0
  H  H1906  1  0.643400  0.930300  0.997600  1.0
  H  H1907  1  0.286900  0.356600  0.997600  1.0
  H  H1908  1  0.069700  0.713100  0.997600  1.0
  H  H1909  1  0.310067  0.263633  0.330933  1.0
  H  H1910  1  0.953567  0.689933  0.330933  1.0
  H  H1911  1  0.736367  0.046433  0.330933  1.0
  H  H1912  1  0.976733  0.596967  0.664267  1.0
  H  H1913  1  0.620233  0.023267  0.664267  1.0
  H  H1914  1  0.403033  0.379767  0.664267  1.0
  H  H1915  1  0.306400  0.030000  0.014200  1.0
  H  H1916  1  0.723600  0.693600  0.014200  1.0
  H  H1917  1  0.970000  0.276400  0.014200  1.0
  H  H1918  1  0.639733  0.696667  0.680867  1.0
  H  H1919  1  0.056933  0.360267  0.680867  1.0
  H  H1920  1  0.303333  0.943067  0.680867  1.0
  H  H1921  1  0.973067  0.363333  0.347533  1.0
  H  H1922  1  0.390267  0.026933  0.347533  1.0
  H  H1923  1  0.636667  0.609733  0.347533  1.0
  H  H1924  1  0.693600  0.970000  0.985800  1.0
  H  H1925  1  0.276400  0.306400  0.985800  1.0
  H  H1926  1  0.030000  0.723600  0.985800  1.0
  H  H1927  1  0.360267  0.303333  0.319133  1.0
  H  H1928  1  0.943067  0.639733  0.319133  1.0
  H  H1929  1  0.696667  0.056933  0.319133  1.0
  H  H1930  1  0.026933  0.636667  0.652467  1.0
  H  H1931  1  0.609733  0.973067  0.652467  1.0
  H  H1932  1  0.363333  0.390267  0.652467  1.0
  H  H1933  1  0.356700  0.120500  0.056100  1.0
  H  H1934  1  0.763800  0.643300  0.056100  1.0
  H  H1935  1  0.879500  0.236200  0.056100  1.0
  H  H1936  1  0.690033  0.787167  0.722767  1.0
  H  H1937  1  0.097133  0.309967  0.722767  1.0
  H  H1938  1  0.212833  0.902867  0.722767  1.0
  H  H1939  1  0.023367  0.453833  0.389433  1.0
  H  H1940  1  0.430467  0.976633  0.389433  1.0
  H  H1941  1  0.546167  0.569533  0.389433  1.0
  H  H1942  1  0.643300  0.879500  0.943900  1.0
  H  H1943  1  0.236200  0.356700  0.943900  1.0
  H  H1944  1  0.120500  0.763800  0.943900  1.0
  H  H1945  1  0.309967  0.212833  0.277233  1.0
  H  H1946  1  0.902867  0.690033  0.277233  1.0
  H  H1947  1  0.787167  0.097133  0.277233  1.0
  H  H1948  1  0.976633  0.546167  0.610567  1.0
  H  H1949  1  0.569533  0.023367  0.610567  1.0
  H  H1950  1  0.453833  0.430467  0.610567  1.0
  H  H1951  1  0.337700  0.182300  0.063400  1.0
  H  H1952  1  0.844600  0.662300  0.063400  1.0
  H  H1953  1  0.817700  0.155400  0.063400  1.0
  H  H1954  1  0.671033  0.848967  0.730067  1.0
  H  H1955  1  0.177933  0.328967  0.730067  1.0
  H  H1956  1  0.151033  0.822067  0.730067  1.0
  H  H1957  1  0.004367  0.515633  0.396733  1.0
  H  H1958  1  0.511267  0.995633  0.396733  1.0
  H  H1959  1  0.484367  0.488733  0.396733  1.0
  H  H1960  1  0.662300  0.817700  0.936600  1.0
  H  H1961  1  0.155400  0.337700  0.936600  1.0
  H  H1962  1  0.182300  0.844600  0.936600  1.0
  H  H1963  1  0.328967  0.151033  0.269933  1.0
  H  H1964  1  0.822067  0.671033  0.269933  1.0
  H  H1965  1  0.848967  0.177933  0.269933  1.0
  H  H1966  1  0.995633  0.484367  0.603267  1.0
  H  H1967  1  0.488733  0.004367  0.603267  1.0
  H  H1968  1  0.515633  0.511267  0.603267  1.0
  H  H1969  1  0.293600  0.199300  0.035700  1.0
  H  H1970  1  0.905700  0.706400  0.035700  1.0
  H  H1971  1  0.800700  0.094300  0.035700  1.0
  H  H1972  1  0.626933  0.865967  0.702367  1.0
  H  H1973  1  0.239033  0.373067  0.702367  1.0
  H  H1974  1  0.134033  0.760967  0.702367  1.0
  H  H1975  1  0.960267  0.532633  0.369033  1.0
  H  H1976  1  0.572367  0.039733  0.369033  1.0
  H  H1977  1  0.467367  0.427633  0.369033  1.0
  H  H1978  1  0.706400  0.800700  0.964300  1.0
  H  H1979  1  0.094300  0.293600  0.964300  1.0
  H  H1980  1  0.199300  0.905700  0.964300  1.0
  H  H1981  1  0.373067  0.134033  0.297633  1.0
  H  H1982  1  0.760967  0.626933  0.297633  1.0
  H  H1983  1  0.865967  0.239033  0.297633  1.0
  H  H1984  1  0.039733  0.467367  0.630967  1.0
  H  H1985  1  0.427633  0.960267  0.630967  1.0
  H  H1986  1  0.532633  0.572367  0.630967  1.0
  H  H1987  1  0.288000  0.058400  0.979600  1.0
  H  H1988  1  0.770400  0.712000  0.979600  1.0
  H  H1989  1  0.941600  0.229600  0.979600  1.0
  H  H1990  1  0.621333  0.725067  0.646267  1.0
  H  H1991  1  0.103733  0.378667  0.646267  1.0
  H  H1992  1  0.274933  0.896267  0.646267  1.0
  H  H1993  1  0.954667  0.391733  0.312933  1.0
  H  H1994  1  0.437067  0.045333  0.312933  1.0
  H  H1995  1  0.608267  0.562933  0.312933  1.0
  H  H1996  1  0.712000  0.941600  0.020400  1.0
  H  H1997  1  0.229600  0.288000  0.020400  1.0
  H  H1998  1  0.058400  0.770400  0.020400  1.0
  H  H1999  1  0.378667  0.274933  0.353733  1.0
  H  H2000  1  0.896267  0.621333  0.353733  1.0
  H  H2001  1  0.725067  0.103733  0.353733  1.0
  H  H2002  1  0.045333  0.608267  0.687067  1.0
  H  H2003  1  0.562933  0.954667  0.687067  1.0
  H  H2004  1  0.391733  0.437067  0.687067  1.0
  H  H2005  1  0.237000  0.069500  0.953700  1.0
  H  H2006  1  0.832500  0.763000  0.953700  1.0
  H  H2007  1  0.930500  0.167500  0.953700  1.0
  H  H2008  1  0.570333  0.736167  0.620367  1.0
  H  H2009  1  0.165833  0.429667  0.620367  1.0
  H  H2010  1  0.263833  0.834167  0.620367  1.0
  H  H2011  1  0.903667  0.402833  0.287033  1.0
  H  H2012  1  0.499167  0.096333  0.287033  1.0
  H  H2013  1  0.597167  0.500833  0.287033  1.0
  H  H2014  1  0.763000  0.930500  0.046300  1.0
  H  H2015  1  0.167500  0.237000  0.046300  1.0
  H  H2016  1  0.069500  0.832500  0.046300  1.0
  H  H2017  1  0.429667  0.263833  0.379633  1.0
  H  H2018  1  0.834167  0.570333  0.379633  1.0
  H  H2019  1  0.736167  0.165833  0.379633  1.0
  H  H2020  1  0.096333  0.597167  0.712967  1.0
  H  H2021  1  0.500833  0.903667  0.712967  1.0
  H  H2022  1  0.402833  0.499167  0.712967  1.0
  H  H2023  1  0.217300  0.131100  0.961100  1.0
  H  H2024  1  0.913800  0.782700  0.961100  1.0
  H  H2025  1  0.868900  0.086200  0.961100  1.0
  H  H2026  1  0.550633  0.797767  0.627767  1.0
  H  H2027  1  0.247133  0.449367  0.627767  1.0
  H  H2028  1  0.202233  0.752867  0.627767  1.0
  H  H2029  1  0.883967  0.464433  0.294433  1.0
  H  H2030  1  0.580467  0.116033  0.294433  1.0
  H  H2031  1  0.535567  0.419533  0.294433  1.0
  H  H2032  1  0.782700  0.868900  0.038900  1.0
  H  H2033  1  0.086200  0.217300  0.038900  1.0
  H  H2034  1  0.131100  0.913800  0.038900  1.0
  H  H2035  1  0.449367  0.202233  0.372233  1.0
  H  H2036  1  0.752867  0.550633  0.372233  1.0
  H  H2037  1  0.797767  0.247133  0.372233  1.0
  H  H2038  1  0.116033  0.535567  0.705567  1.0
  H  H2039  1  0.419533  0.883967  0.705567  1.0
  H  H2040  1  0.464433  0.580467  0.705567  1.0
  C  C2041  1  0.301030  0.056000  0.846470  1
  C  C2042  1  0.754970  0.698970  0.846470  1
  C  C2043  1  0.944000  0.245030  0.846470  1
  C  C2044  1  0.634363  0.722667  0.513137  1
  C  C2045  1  0.088303  0.365637  0.513137  1
  C  C2046  1  0.277333  0.911697  0.513137  1
  C  C2047  1  0.967697  0.389333  0.179803  1
  C  C2048  1  0.421637  0.032303  0.179803  1
  C  C2049  1  0.610667  0.578363  0.179803  1
  C  C2050  1  0.698970  0.944000  0.153530  1
  C  C2051  1  0.245030  0.301030  0.153530  1
  C  C2052  1  0.056000  0.754970  0.153530  1
  C  C2053  1  0.365637  0.277333  0.486863  1
  C  C2054  1  0.911697  0.634363  0.486863  1
  C  C2055  1  0.722667  0.088303  0.486863  1
  C  C2056  1  0.032303  0.610667  0.820197  1
  C  C2057  1  0.578363  0.967697  0.820197  1
  C  C2058  1  0.389333  0.421637  0.820197  1
  C  C2059  1  0.349990  0.084200  0.854240  1
  C  C2060  1  0.734210  0.650010  0.854240  1
  C  C2061  1  0.915800  0.265790  0.854240  1
  C  C2062  1  0.683323  0.750867  0.520907  1
  C  C2063  1  0.067543  0.316677  0.520907  1
  C  C2064  1  0.249133  0.932457  0.520907  1
  C  C2065  1  0.016657  0.417533  0.187573  1
  C  C2066  1  0.400877  0.983343  0.187573  1
  C  C2067  1  0.582467  0.599123  0.187573  1
  C  C2068  1  0.650010  0.915800  0.145760  1
  C  C2069  1  0.265790  0.349990  0.145760  1
  C  C2070  1  0.084200  0.734210  0.145760  1
  C  C2071  1  0.316677  0.249133  0.479093  1
  C  C2072  1  0.932457  0.683323  0.479093  1
  C  C2073  1  0.750867  0.067543  0.479093  1
  C  C2074  1  0.983343  0.582467  0.812427  1
  C  C2075  1  0.599123  0.016657  0.812427  1
  C  C2076  1  0.417533  0.400877  0.812427  1
  C  C2077  1  0.375480  0.135340  0.850860  1
  C  C2078  1  0.759860  0.624520  0.850860  1
  C  C2079  1  0.864660  0.240140  0.850860  1
  C  C2080  1  0.708813  0.802007  0.517527  1
  C  C2081  1  0.093193  0.291187  0.517527  1
  C  C2082  1  0.197993  0.906807  0.517527  1
  C  C2083  1  0.042147  0.468673  0.184193  1
  C  C2084  1  0.426527  0.957853  0.184193  1
  C  C2085  1  0.531327  0.573473  0.184193  1
  C  C2086  1  0.624520  0.864660  0.149140  1
  C  C2087  1  0.240140  0.375480  0.149140  1
  C  C2088  1  0.135340  0.759860  0.149140  1
  C  C2089  1  0.291187  0.197993  0.482473  1
  C  C2090  1  0.906807  0.708813  0.482473  1
  C  C2091  1  0.802007  0.093193  0.482473  1
  C  C2092  1  0.957853  0.531327  0.815807  1
  C  C2093  1  0.573473  0.042147  0.815807  1
  C  C2094  1  0.468673  0.426527  0.815807  1
  C  C2095  1  0.352010  0.158290  0.839690  1
  C  C2096  1  0.806280  0.647990  0.839690  1
  C  C2097  1  0.841710  0.193720  0.839690  1
  C  C2098  1  0.685343  0.824957  0.506357  1
  C  C2099  1  0.139613  0.314657  0.506357  1
  C  C2100  1  0.175043  0.860387  0.506357  1
  C  C2101  1  0.018677  0.491623  0.173023  1
  C  C2102  1  0.472947  0.981323  0.173023  1
  C  C2103  1  0.508377  0.527053  0.173023  1
  C  C2104  1  0.647990  0.841710  0.160310  1
  C  C2105  1  0.193720  0.352010  0.160310  1
  C  C2106  1  0.158290  0.806280  0.160310  1
  C  C2107  1  0.314657  0.175043  0.493643  1
  C  C2108  1  0.860387  0.685343  0.493643  1
  C  C2109  1  0.824957  0.139613  0.493643  1
  C  C2110  1  0.981323  0.508377  0.826977  1
  C  C2111  1  0.527053  0.018677  0.826977  1
  C  C2112  1  0.491623  0.472947  0.826977  1
  C  C2113  1  0.303040  0.130080  0.831910  1
  C  C2114  1  0.827040  0.696960  0.831910  1
  C  C2115  1  0.869920  0.172960  0.831910  1
  C  C2116  1  0.636373  0.796747  0.498577  1
  C  C2117  1  0.160373  0.363627  0.498577  1
  C  C2118  1  0.203253  0.839627  0.498577  1
  C  C2119  1  0.969707  0.463413  0.165243  1
  C  C2120  1  0.493707  0.030293  0.165243  1
  C  C2121  1  0.536587  0.506293  0.165243  1
  C  C2122  1  0.696960  0.869920  0.168090  1
  C  C2123  1  0.172960  0.303040  0.168090  1
  C  C2124  1  0.130080  0.827040  0.168090  1
  C  C2125  1  0.363627  0.203253  0.501423  1
  C  C2126  1  0.839627  0.636373  0.501423  1
  C  C2127  1  0.796747  0.160373  0.501423  1
  C  C2128  1  0.030293  0.536587  0.834757  1
  C  C2129  1  0.506293  0.969707  0.834757  1
  C  C2130  1  0.463413  0.493707  0.834757  1
  C  C2131  1  0.277550  0.078930  0.835300  1
  C  C2132  1  0.801380  0.722450  0.835300  1
  C  C2133  1  0.921070  0.198620  0.835300  1
  C  C2134  1  0.610883  0.745597  0.501967  1
  C  C2135  1  0.134713  0.389117  0.501967  1
  C  C2136  1  0.254403  0.865287  0.501967  1
  C  C2137  1  0.944217  0.412263  0.168633  1
  C  C2138  1  0.468047  0.055783  0.168633  1
  C  C2139  1  0.587737  0.531953  0.168633  1
  C  C2140  1  0.722450  0.921070  0.164700  1
  C  C2141  1  0.198620  0.277550  0.164700  1
  C  C2142  1  0.078930  0.801380  0.164700  1
  C  C2143  1  0.389117  0.254403  0.498033  1
  C  C2144  1  0.865287  0.610883  0.498033  1
  C  C2145  1  0.745597  0.134713  0.498033  1
  C  C2146  1  0.055783  0.587737  0.831367  1
  C  C2147  1  0.531953  0.944217  0.831367  1
  C  C2148  1  0.412263  0.468047  0.831367  1
  C  C2149  1  0.238720  0.987750  0.878770  1
  C  C2150  1  0.749030  0.761280  0.878770  1
  C  C2151  1  0.012250  0.250970  0.878770  1
  C  C2152  1  0.572053  0.654417  0.545437  1
  C  C2153  1  0.082363  0.427947  0.545437  1
  C  C2154  1  0.345583  0.917637  0.545437  1
  C  C2155  1  0.905387  0.321083  0.212103  1
  C  C2156  1  0.415697  0.094613  0.212103  1
  C  C2157  1  0.678917  0.584303  0.212103  1
  C  C2158  1  0.761280  0.012250  0.121230  1
  C  C2159  1  0.250970  0.238720  0.121230  1
  C  C2160  1  0.987750  0.749030  0.121230  1
  C  C2161  1  0.427947  0.345583  0.454563  1
  C  C2162  1  0.917637  0.572053  0.454563  1
  C  C2163  1  0.654417  0.082363  0.454563  1
  C  C2164  1  0.094613  0.678917  0.787897  1
  C  C2165  1  0.584303  0.905387  0.787897  1
  C  C2166  1  0.321083  0.415697  0.787897  1
  C  C2167  1  0.267700  0.004440  0.899890  1
  C  C2168  1  0.736740  0.732300  0.899890  1
  C  C2169  1  0.995560  0.263260  0.899890  1
  C  C2170  1  0.601033  0.671107  0.566557  1
  C  C2171  1  0.070073  0.398967  0.566557  1
  C  C2172  1  0.328893  0.929927  0.566557  1
  C  C2173  1  0.934367  0.337773  0.233223  1
  C  C2174  1  0.403407  0.065633  0.233223  1
  C  C2175  1  0.662227  0.596593  0.233223  1
  C  C2176  1  0.732300  0.995560  0.100110  1
  C  C2177  1  0.263260  0.267700  0.100110  1
  C  C2178  1  0.004440  0.736740  0.100110  1
  C  C2179  1  0.398967  0.328893  0.433443  1
  C  C2180  1  0.929927  0.601033  0.433443  1
  C  C2181  1  0.671107  0.070073  0.433443  1
  C  C2182  1  0.065633  0.662227  0.766777  1
  C  C2183  1  0.596593  0.934367  0.766777  1
  C  C2184  1  0.337773  0.403407  0.766777  1
  C  C2185  1  0.245700  0.002040  0.922490  1
  C  C2186  1  0.756340  0.754300  0.922490  1
  C  C2187  1  0.997960  0.243660  0.922490  1
  C  C2188  1  0.579033  0.668707  0.589157  1
  C  C2189  1  0.089673  0.420967  0.589157  1
  C  C2190  1  0.331293  0.910327  0.589157  1
  C  C2191  1  0.912367  0.335373  0.255823  1
  C  C2192  1  0.423007  0.087633  0.255823  1
  C  C2193  1  0.664627  0.576993  0.255823  1
  C  C2194  1  0.754300  0.997960  0.077510  1
  C  C2195  1  0.243660  0.245700  0.077510  1
  C  C2196  1  0.002040  0.756340  0.077510  1
  C  C2197  1  0.420967  0.331293  0.410843  1
  C  C2198  1  0.910327  0.579033  0.410843  1
  C  C2199  1  0.668707  0.089673  0.410843  1
  C  C2200  1  0.087633  0.664627  0.744177  1
  C  C2201  1  0.576993  0.912367  0.744177  1
  C  C2202  1  0.335373  0.423007  0.744177  1
  C  C2203  1  0.194730  0.982980  0.923970  1
  C  C2204  1  0.788250  0.805270  0.923970  1
  C  C2205  1  0.017020  0.211750  0.923970  1
  C  C2206  1  0.528063  0.649647  0.590637  1
  C  C2207  1  0.121583  0.471937  0.590637  1
  C  C2208  1  0.350353  0.878417  0.590637  1
  C  C2209  1  0.861397  0.316313  0.257303  1
  C  C2210  1  0.454917  0.138603  0.257303  1
  C  C2211  1  0.683687  0.545083  0.257303  1
  C  C2212  1  0.805270  0.017020  0.076030  1
  C  C2213  1  0.211750  0.194730  0.076030  1
  C  C2214  1  0.982980  0.788250  0.076030  1
  C  C2215  1  0.471937  0.350353  0.409363  1
  C  C2216  1  0.878417  0.528063  0.409363  1
  C  C2217  1  0.649647  0.121583  0.409363  1
  C  C2218  1  0.138603  0.683687  0.742697  1
  C  C2219  1  0.545083  0.861397  0.742697  1
  C  C2220  1  0.316313  0.454917  0.742697  1
  C  C2221  1  0.165750  0.966300  0.902850  1
  C  C2222  1  0.800550  0.834250  0.902850  1
  C  C2223  1  0.033700  0.199450  0.902850  1
  C  C2224  1  0.499083  0.632967  0.569517  1
  C  C2225  1  0.133883  0.500917  0.569517  1
  C  C2226  1  0.367033  0.866117  0.569517  1
  C  C2227  1  0.832417  0.299633  0.236183  1
  C  C2228  1  0.467217  0.167583  0.236183  1
  C  C2229  1  0.700367  0.532783  0.236183  1
  C  C2230  1  0.834250  0.033700  0.097150  1
  C  C2231  1  0.199450  0.165750  0.097150  1
  C  C2232  1  0.966300  0.800550  0.097150  1
  C  C2233  1  0.500917  0.367033  0.430483  1
  C  C2234  1  0.866117  0.499083  0.430483  1
  C  C2235  1  0.632967  0.133883  0.430483  1
  C  C2236  1  0.167583  0.700367  0.763817  1
  C  C2237  1  0.532783  0.832417  0.763817  1
  C  C2238  1  0.299633  0.467217  0.763817  1
  C  C2239  1  0.187740  0.968680  0.880260  1
  C  C2240  1  0.780940  0.812260  0.880260  1
  C  C2241  1  0.031320  0.219060  0.880260  1
  C  C2242  1  0.521073  0.635347  0.546927  1
  C  C2243  1  0.114273  0.478927  0.546927  1
  C  C2244  1  0.364653  0.885727  0.546927  1
  C  C2245  1  0.854407  0.302013  0.213593  1
  C  C2246  1  0.447607  0.145593  0.213593  1
  C  C2247  1  0.697987  0.552393  0.213593  1
  C  C2248  1  0.812260  0.031320  0.119740  1
  C  C2249  1  0.219060  0.187740  0.119740  1
  C  C2250  1  0.968680  0.780940  0.119740  1
  C  C2251  1  0.478927  0.364653  0.453073  1
  C  C2252  1  0.885727  0.521073  0.453073  1
  C  C2253  1  0.635347  0.114273  0.453073  1
  C  C2254  1  0.145593  0.697987  0.786407  1
  C  C2255  1  0.552393  0.854407  0.786407  1
  C  C2256  1  0.302013  0.447607  0.786407  1
  C  C2257  1  0.228180  0.960680  0.828720  1
  C  C2258  1  0.732500  0.771820  0.828720  1
  C  C2259  1  0.039320  0.267500  0.828720  1
  C  C2260  1  0.561513  0.627347  0.495387  1
  C  C2261  1  0.065833  0.438487  0.495387  1
  C  C2262  1  0.372653  0.934167  0.495387  1
  C  C2263  1  0.894847  0.294013  0.162053  1
  C  C2264  1  0.399167  0.105153  0.162053  1
  C  C2265  1  0.705987  0.600833  0.162053  1
  C  C2266  1  0.771820  0.039320  0.171280  1
  C  C2267  1  0.267500  0.228180  0.171280  1
  C  C2268  1  0.960680  0.732500  0.171280  1
  C  C2269  1  0.438487  0.372653  0.504613  1
  C  C2270  1  0.934167  0.561513  0.504613  1
  C  C2271  1  0.627347  0.065833  0.504613  1
  C  C2272  1  0.105153  0.705987  0.837947  1
  C  C2273  1  0.600833  0.894847  0.837947  1
  C  C2274  1  0.294013  0.399167  0.837947  1
  C  C2275  1  0.191420  0.912370  0.834040  1
  C  C2276  1  0.720950  0.808580  0.834040  1
  C  C2277  1  0.087630  0.279050  0.834040  1
  C  C2278  1  0.524753  0.579037  0.500707  1
  C  C2279  1  0.054283  0.475247  0.500707  1
  C  C2280  1  0.420963  0.945717  0.500707  1
  C  C2281  1  0.858087  0.245703  0.167373  1
  C  C2282  1  0.387617  0.141913  0.167373  1
  C  C2283  1  0.754297  0.612383  0.167373  1
  C  C2284  1  0.808580  0.087630  0.165960  1
  C  C2285  1  0.279050  0.191420  0.165960  1
  C  C2286  1  0.912370  0.720950  0.165960  1
  C  C2287  1  0.475247  0.420963  0.499293  1
  C  C2288  1  0.945717  0.524753  0.499293  1
  C  C2289  1  0.579037  0.054283  0.499293  1
  C  C2290  1  0.141913  0.754297  0.832627  1
  C  C2291  1  0.612383  0.858087  0.832627  1
  C  C2292  1  0.245703  0.387617  0.832627  1
  C  C2293  1  0.157870  0.883310  0.815920  1
  C  C2294  1  0.725440  0.842130  0.815920  1
  C  C2295  1  0.116690  0.274560  0.815920  1
  C  C2296  1  0.491203  0.549977  0.482587  1
  C  C2297  1  0.058773  0.508797  0.482587  1
  C  C2298  1  0.450023  0.941227  0.482587  1
  C  C2299  1  0.824537  0.216643  0.149253  1
  C  C2300  1  0.392107  0.175463  0.149253  1
  C  C2301  1  0.783357  0.607893  0.149253  1
  C  C2302  1  0.842130  0.116690  0.184080  1
  C  C2303  1  0.274560  0.157870  0.184080  1
  C  C2304  1  0.883310  0.725440  0.184080  1
  C  C2305  1  0.508797  0.450023  0.517413  1
  C  C2306  1  0.941227  0.491203  0.517413  1
  C  C2307  1  0.549977  0.058773  0.517413  1
  C  C2308  1  0.175463  0.783357  0.850747  1
  C  C2309  1  0.607893  0.824537  0.850747  1
  C  C2310  1  0.216643  0.392107  0.850747  1
  C  C2311  1  0.161100  0.902600  0.792490  1
  C  C2312  1  0.741500  0.838900  0.792490  1
  C  C2313  1  0.097400  0.258500  0.792490  1
  C  C2314  1  0.494433  0.569267  0.459157  1
  C  C2315  1  0.074833  0.505567  0.459157  1
  C  C2316  1  0.430733  0.925167  0.459157  1
  C  C2317  1  0.827767  0.235933  0.125823  1
  C  C2318  1  0.408167  0.172233  0.125823  1
  C  C2319  1  0.764067  0.591833  0.125823  1
  C  C2320  1  0.838900  0.097400  0.207510  1
  C  C2321  1  0.258500  0.161100  0.207510  1
  C  C2322  1  0.902600  0.741500  0.207510  1
  C  C2323  1  0.505567  0.430733  0.540843  1
  C  C2324  1  0.925167  0.494433  0.540843  1
  C  C2325  1  0.569267  0.074833  0.540843  1
  C  C2326  1  0.172233  0.764067  0.874177  1
  C  C2327  1  0.591833  0.827767  0.874177  1
  C  C2328  1  0.235933  0.408167  0.874177  1
  C  C2329  1  0.197860  0.950910  0.787170  1
  C  C2330  1  0.753050  0.802140  0.787170  1
  C  C2331  1  0.049090  0.246950  0.787170  1
  C  C2332  1  0.531193  0.617577  0.453837  1
  C  C2333  1  0.086383  0.468807  0.453837  1
  C  C2334  1  0.382423  0.913617  0.453837  1
  C  C2335  1  0.864527  0.284243  0.120503  1
  C  C2336  1  0.419717  0.135473  0.120503  1
  C  C2337  1  0.715757  0.580283  0.120503  1
  C  C2338  1  0.802140  0.049090  0.212830  1
  C  C2339  1  0.246950  0.197860  0.212830  1
  C  C2340  1  0.950910  0.753050  0.212830  1
  C  C2341  1  0.468807  0.382423  0.546163  1
  C  C2342  1  0.913617  0.531193  0.546163  1
  C  C2343  1  0.617577  0.086383  0.546163  1
  C  C2344  1  0.135473  0.715757  0.879497  1
  C  C2345  1  0.580283  0.864527  0.879497  1
  C  C2346  1  0.284243  0.419717  0.879497  1
  C  C2347  1  0.231410  0.979970  0.805290  1
  C  C2348  1  0.748560  0.768590  0.805290  1
  C  C2349  1  0.020030  0.251440  0.805290  1
  C  C2350  1  0.564743  0.646637  0.471957  1
  C  C2351  1  0.081893  0.435257  0.471957  1
  C  C2352  1  0.353363  0.918107  0.471957  1
  C  C2353  1  0.898077  0.313303  0.138623  1
  C  C2354  1  0.415227  0.101923  0.138623  1
  C  C2355  1  0.686697  0.584773  0.138623  1
  C  C2356  1  0.768590  0.020030  0.194710  1
  C  C2357  1  0.251440  0.231410  0.194710  1
  C  C2358  1  0.979970  0.748560  0.194710  1
  C  C2359  1  0.435257  0.353363  0.528043  1
  C  C2360  1  0.918107  0.564743  0.528043  1
  C  C2361  1  0.646637  0.081893  0.528043  1
  C  C2362  1  0.101923  0.686697  0.861377  1
  C  C2363  1  0.584773  0.898077  0.861377  1
  C  C2364  1  0.313303  0.415227  0.861377  1
  C  C2365  1  0.306360  0.969850  0.853950  1
  C  C2366  1  0.663490  0.693640  0.853950  1
  C  C2367  1  0.030150  0.336510  0.853950  1
  C  C2368  1  0.639693  0.636517  0.520617  1
  C  C2369  1  0.996823  0.360307  0.520617  1
  C  C2370  1  0.363483  0.003177  0.520617  1
  C  C2371  1  0.973027  0.303183  0.187283  1
  C  C2372  1  0.330157  0.026973  0.187283  1
  C  C2373  1  0.696817  0.669843  0.187283  1
  C  C2374  1  0.693640  0.030150  0.146050  1
  C  C2375  1  0.336510  0.306360  0.146050  1
  C  C2376  1  0.969850  0.663490  0.146050  1
  C  C2377  1  0.360307  0.363483  0.479383  1
  C  C2378  1  0.003177  0.639693  0.479383  1
  C  C2379  1  0.636517  0.996823  0.479383  1
  C  C2380  1  0.026973  0.696817  0.812717  1
  C  C2381  1  0.669843  0.973027  0.812717  1
  C  C2382  1  0.303183  0.330157  0.812717  1
  C  C2383  1  0.296890  0.933030  0.871110  1
  C  C2384  1  0.636140  0.703110  0.871110  1
  C  C2385  1  0.066970  0.363860  0.871110  1
  C  C2386  1  0.630223  0.599697  0.537777  1
  C  C2387  1  0.969473  0.369777  0.537777  1
  C  C2388  1  0.400303  0.030527  0.537777  1
  C  C2389  1  0.963557  0.266363  0.204443  1
  C  C2390  1  0.302807  0.036443  0.204443  1
  C  C2391  1  0.733637  0.697193  0.204443  1
  C  C2392  1  0.703110  0.066970  0.128890  1
  C  C2393  1  0.363860  0.296890  0.128890  1
  C  C2394  1  0.933030  0.636140  0.128890  1
  C  C2395  1  0.369777  0.400303  0.462223  1
  C  C2396  1  0.030527  0.630223  0.462223  1
  C  C2397  1  0.599697  0.969473  0.462223  1
  C  C2398  1  0.036443  0.733637  0.795557  1
  C  C2399  1  0.697193  0.963557  0.795557  1
  C  C2400  1  0.266363  0.302807  0.795557  1
  C  C2401  1  0.328910  0.914180  0.873160  1
  C  C2402  1  0.585270  0.671090  0.873160  1
  C  C2403  1  0.085820  0.414730  0.873160  1
  C  C2404  1  0.662243  0.580847  0.539827  1
  C  C2405  1  0.918603  0.337757  0.539827  1
  C  C2406  1  0.419153  0.081397  0.539827  1
  C  C2407  1  0.995577  0.247513  0.206493  1
  C  C2408  1  0.251937  0.004423  0.206493  1
  C  C2409  1  0.752487  0.748063  0.206493  1
  C  C2410  1  0.671090  0.085820  0.126840  1
  C  C2411  1  0.414730  0.328910  0.126840  1
  C  C2412  1  0.914180  0.585270  0.126840  1
  C  C2413  1  0.337757  0.419153  0.460173  1
  C  C2414  1  0.081397  0.662243  0.460173  1
  C  C2415  1  0.580847  0.918603  0.460173  1
  C  C2416  1  0.004423  0.752487  0.793507  1
  C  C2417  1  0.748063  0.995577  0.793507  1
  C  C2418  1  0.247513  0.251937  0.793507  1
  C  C2419  1  0.370400  0.932160  0.858050  1
  C  C2420  1  0.561760  0.629600  0.858050  1
  C  C2421  1  0.067840  0.438240  0.858050  1
  C  C2422  1  0.703733  0.598827  0.524717  1
  C  C2423  1  0.895093  0.296267  0.524717  1
  C  C2424  1  0.401173  0.104907  0.524717  1
  C  C2425  1  0.037067  0.265493  0.191383  1
  C  C2426  1  0.228427  0.962933  0.191383  1
  C  C2427  1  0.734507  0.771573  0.191383  1
  C  C2428  1  0.629600  0.067840  0.141950  1
  C  C2429  1  0.438240  0.370400  0.141950  1
  C  C2430  1  0.932160  0.561760  0.141950  1
  C  C2431  1  0.296267  0.401173  0.475283  1
  C  C2432  1  0.104907  0.703733  0.475283  1
  C  C2433  1  0.598827  0.895093  0.475283  1
  C  C2434  1  0.962933  0.734507  0.808617  1
  C  C2435  1  0.771573  0.037067  0.808617  1
  C  C2436  1  0.265493  0.228427  0.808617  1
  C  C2437  1  0.379870  0.968980  0.840880  1
  C  C2438  1  0.589110  0.620130  0.840880  1
  C  C2439  1  0.031020  0.410890  0.840880  1
  C  C2440  1  0.713203  0.635647  0.507547  1
  C  C2441  1  0.922443  0.286797  0.507547  1
  C  C2442  1  0.364353  0.077557  0.507547  1
  C  C2443  1  0.046537  0.302313  0.174213  1
  C  C2444  1  0.255777  0.953463  0.174213  1
  C  C2445  1  0.697687  0.744223  0.174213  1
  C  C2446  1  0.620130  0.031020  0.159120  1
  C  C2447  1  0.410890  0.379870  0.159120  1
  C  C2448  1  0.968980  0.589110  0.159120  1
  C  C2449  1  0.286797  0.364353  0.492453  1
  C  C2450  1  0.077557  0.713203  0.492453  1
  C  C2451  1  0.635647  0.922443  0.492453  1
  C  C2452  1  0.953463  0.697687  0.825787  1
  C  C2453  1  0.744223  0.046537  0.825787  1
  C  C2454  1  0.302313  0.255777  0.825787  1
  C  C2455  1  0.347860  0.987830  0.838830  1
  C  C2456  1  0.639970  0.652140  0.838830  1
  C  C2457  1  0.012170  0.360030  0.838830  1
  C  C2458  1  0.681193  0.654497  0.505497  1
  C  C2459  1  0.973303  0.318807  0.505497  1
  C  C2460  1  0.345503  0.026697  0.505497  1
  C  C2461  1  0.014527  0.321163  0.172163  1
  C  C2462  1  0.306637  0.985473  0.172163  1
  C  C2463  1  0.678837  0.693363  0.172163  1
  C  C2464  1  0.652140  0.012170  0.161170  1
  C  C2465  1  0.360030  0.347860  0.161170  1
  C  C2466  1  0.987830  0.639970  0.161170  1
  C  C2467  1  0.318807  0.345503  0.494503  1
  C  C2468  1  0.026697  0.681193  0.494503  1
  C  C2469  1  0.654497  0.973303  0.494503  1
  C  C2470  1  0.985473  0.678837  0.827837  1
  C  C2471  1  0.693363  0.014527  0.827837  1
  C  C2472  1  0.321163  0.306637  0.827837  1
  C  C2473  1  0.929500  0.811800  0.682100  1
  C  C2474  1  0.882300  0.070500  0.682100  1
  C  C2475  1  0.188200  0.117700  0.682100  1
  C  C2476  1  0.262833  0.478467  0.348767  1
  C  C2477  1  0.215633  0.737167  0.348767  1
  C  C2478  1  0.521533  0.784367  0.348767  1
  C  C2479  1  0.596167  0.145133  0.015433  1
  C  C2480  1  0.548967  0.403833  0.015433  1
  C  C2481  1  0.854867  0.451033  0.015433  1
  C  C2482  1  0.070500  0.188200  0.317900  1
  C  C2483  1  0.117700  0.929500  0.317900  1
  C  C2484  1  0.811800  0.882300  0.317900  1
  C  C2485  1  0.737167  0.521533  0.651233  1
  C  C2486  1  0.784367  0.262833  0.651233  1
  C  C2487  1  0.478467  0.215633  0.651233  1
  C  C2488  1  0.403833  0.854867  0.984567  1
  C  C2489  1  0.451033  0.596167  0.984567  1
  C  C2490  1  0.145133  0.548967  0.984567  1
  C  C2491  1  0.955000  0.837200  0.661100  1
  C  C2492  1  0.882200  0.045000  0.661100  1
  C  C2493  1  0.162800  0.117800  0.661100  1
  C  C2494  1  0.288333  0.503867  0.327767  1
  C  C2495  1  0.215533  0.711667  0.327767  1
  C  C2496  1  0.496133  0.784467  0.327767  1
  C  C2497  1  0.621667  0.170533  0.994433  1
  C  C2498  1  0.548867  0.378333  0.994433  1
  C  C2499  1  0.829467  0.451133  0.994433  1
  C  C2500  1  0.045000  0.162800  0.338900  1
  C  C2501  1  0.117800  0.955000  0.338900  1
  C  C2502  1  0.837200  0.882200  0.338900  1
  C  C2503  1  0.711667  0.496133  0.672233  1
  C  C2504  1  0.784467  0.288333  0.672233  1
  C  C2505  1  0.503867  0.215533  0.672233  1
  C  C2506  1  0.378333  0.829467  0.005567  1
  C  C2507  1  0.451133  0.621667  0.005567  1
  C  C2508  1  0.170533  0.548867  0.005567  1
  C  C2509  1  0.928900  0.838200  0.640600  1
  C  C2510  1  0.909300  0.071100  0.640600  1
  C  C2511  1  0.161800  0.090700  0.640600  1
  C  C2512  1  0.262233  0.504867  0.307267  1
  C  C2513  1  0.242633  0.737767  0.307267  1
  C  C2514  1  0.495133  0.757367  0.307267  1
  C  C2515  1  0.595567  0.171533  0.973933  1
  C  C2516  1  0.575967  0.404433  0.973933  1
  C  C2517  1  0.828467  0.424033  0.973933  1
  C  C2518  1  0.071100  0.161800  0.359400  1
  C  C2519  1  0.090700  0.928900  0.359400  1
  C  C2520  1  0.838200  0.909300  0.359400  1
  C  C2521  1  0.737767  0.495133  0.692733  1
  C  C2522  1  0.757367  0.262233  0.692733  1
  C  C2523  1  0.504867  0.242633  0.692733  1
  C  C2524  1  0.404433  0.828467  0.026067  1
  C  C2525  1  0.424033  0.595567  0.026067  1
  C  C2526  1  0.171533  0.575967  0.026067  1
  C  C2527  1  0.877400  0.813900  0.641000  1
  C  C2528  1  0.936500  0.122600  0.641000  1
  C  C2529  1  0.186100  0.063500  0.641000  1
  C  C2530  1  0.210733  0.480567  0.307667  1
  C  C2531  1  0.269833  0.789267  0.307667  1
  C  C2532  1  0.519433  0.730167  0.307667  1
  C  C2533  1  0.544067  0.147233  0.974333  1
  C  C2534  1  0.603167  0.455933  0.974333  1
  C  C2535  1  0.852767  0.396833  0.974333  1
  C  C2536  1  0.122600  0.186100  0.359000  1
  C  C2537  1  0.063500  0.877400  0.359000  1
  C  C2538  1  0.813900  0.936500  0.359000  1
  C  C2539  1  0.789267  0.519433  0.692333  1
  C  C2540  1  0.730167  0.210733  0.692333  1
  C  C2541  1  0.480567  0.269833  0.692333  1
  C  C2542  1  0.455933  0.852767  0.025667  1
  C  C2543  1  0.396833  0.544067  0.025667  1
  C  C2544  1  0.147233  0.603167  0.025667  1
  C  C2545  1  0.851900  0.788500  0.662100  1
  C  C2546  1  0.936600  0.148100  0.662100  1
  C  C2547  1  0.211500  0.063400  0.662100  1
  C  C2548  1  0.185233  0.455167  0.328767  1
  C  C2549  1  0.269933  0.814767  0.328767  1
  C  C2550  1  0.544833  0.730067  0.328767  1
  C  C2551  1  0.518567  0.121833  0.995433  1
  C  C2552  1  0.603267  0.481433  0.995433  1
  C  C2553  1  0.878167  0.396733  0.995433  1
  C  C2554  1  0.148100  0.211500  0.337900  1
  C  C2555  1  0.063400  0.851900  0.337900  1
  C  C2556  1  0.788500  0.936600  0.337900  1
  C  C2557  1  0.814767  0.544833  0.671233  1
  C  C2558  1  0.730067  0.185233  0.671233  1
  C  C2559  1  0.455167  0.269933  0.671233  1
  C  C2560  1  0.481433  0.878167  0.004567  1
  C  C2561  1  0.396733  0.518567  0.004567  1
  C  C2562  1  0.121833  0.603267  0.004567  1
  C  C2563  1  0.877900  0.787400  0.682600  1
  C  C2564  1  0.909500  0.122100  0.682600  1
  C  C2565  1  0.212600  0.090500  0.682600  1
  C  C2566  1  0.211233  0.454067  0.349267  1
  C  C2567  1  0.242833  0.788767  0.349267  1
  C  C2568  1  0.545933  0.757167  0.349267  1
  C  C2569  1  0.544567  0.120733  0.015933  1
  C  C2570  1  0.576167  0.455433  0.015933  1
  C  C2571  1  0.879267  0.423833  0.015933  1
  C  C2572  1  0.122100  0.212600  0.317400  1
  C  C2573  1  0.090500  0.877900  0.317400  1
  C  C2574  1  0.787400  0.909500  0.317400  1
  C  C2575  1  0.788767  0.545933  0.650733  1
  C  C2576  1  0.757167  0.211233  0.650733  1
  C  C2577  1  0.454067  0.242833  0.650733  1
  C  C2578  1  0.455433  0.879267  0.984067  1
  C  C2579  1  0.423833  0.544567  0.984067  1
  C  C2580  1  0.120733  0.576167  0.984067  1
  C  C2581  1  0.973200  0.758400  0.705820  1
  C  C2582  1  0.785200  0.026800  0.705820  1
  C  C2583  1  0.241600  0.214800  0.705820  1
  C  C2584  1  0.306533  0.425067  0.372487  1
  C  C2585  1  0.118533  0.693467  0.372487  1
  C  C2586  1  0.574933  0.881467  0.372487  1
  C  C2587  1  0.639867  0.091733  0.039153  1
  C  C2588  1  0.451867  0.360133  0.039153  1
  C  C2589  1  0.908267  0.548133  0.039153  1
  C  C2590  1  0.026800  0.241600  0.294180  1
  C  C2591  1  0.214800  0.973200  0.294180  1
  C  C2592  1  0.758400  0.785200  0.294180  1
  C  C2593  1  0.693467  0.574933  0.627513  1
  C  C2594  1  0.881467  0.306533  0.627513  1
  C  C2595  1  0.425067  0.118533  0.627513  1
  C  C2596  1  0.360133  0.908267  0.960847  1
  C  C2597  1  0.548133  0.639867  0.960847  1
  C  C2598  1  0.091733  0.451867  0.960847  1
  C  C2599  1  0.952400  0.721600  0.687980  1
  C  C2600  1  0.769200  0.047600  0.687980  1
  C  C2601  1  0.278400  0.230800  0.687980  1
  C  C2602  1  0.285733  0.388267  0.354647  1
  C  C2603  1  0.102533  0.714267  0.354647  1
  C  C2604  1  0.611733  0.897467  0.354647  1
  C  C2605  1  0.619067  0.054933  0.021313  1
  C  C2606  1  0.435867  0.380933  0.021313  1
  C  C2607  1  0.945067  0.564133  0.021313  1
  C  C2608  1  0.047600  0.278400  0.312020  1
  C  C2609  1  0.230800  0.952400  0.312020  1
  C  C2610  1  0.721600  0.769200  0.312020  1
  C  C2611  1  0.714267  0.611733  0.645353  1
  C  C2612  1  0.897467  0.285733  0.645353  1
  C  C2613  1  0.388267  0.102533  0.645353  1
  C  C2614  1  0.380933  0.945067  0.978687  1
  C  C2615  1  0.564133  0.619067  0.978687  1
  C  C2616  1  0.054933  0.435867  0.978687  1
  C  C2617  1  0.961200  0.681900  0.688500  1
  C  C2618  1  0.720700  0.038800  0.688500  1
  C  C2619  1  0.318100  0.279300  0.688500  1
  C  C2620  1  0.294533  0.348567  0.355167  1
  C  C2621  1  0.054033  0.705467  0.355167  1
  C  C2622  1  0.651433  0.945967  0.355167  1
  C  C2623  1  0.627867  0.015233  0.021833  1
  C  C2624  1  0.387367  0.372133  0.021833  1
  C  C2625  1  0.984767  0.612633  0.021833  1
  C  C2626  1  0.038800  0.318100  0.311500  1
  C  C2627  1  0.279300  0.961200  0.311500  1
  C  C2628  1  0.681900  0.720700  0.311500  1
  C  C2629  1  0.705467  0.651433  0.644833  1
  C  C2630  1  0.945967  0.294533  0.644833  1
  C  C2631  1  0.348567  0.054033  0.644833  1
  C  C2632  1  0.372133  0.984767  0.978167  1
  C  C2633  1  0.612633  0.627867  0.978167  1
  C  C2634  1  0.015233  0.387367  0.978167  1
  C  C2635  1  0.990900  0.679200  0.706860  1
  C  C2636  1  0.688300  0.009100  0.706860  1
  C  C2637  1  0.320800  0.311700  0.706860  1
  C  C2638  1  0.324233  0.345867  0.373527  1
  C  C2639  1  0.021633  0.675767  0.373527  1
  C  C2640  1  0.654133  0.978367  0.373527  1
  C  C2641  1  0.657567  0.012533  0.040193  1
  C  C2642  1  0.354967  0.342433  0.040193  1
  C  C2643  1  0.987467  0.645033  0.040193  1
  C  C2644  1  0.009100  0.320800  0.293140  1
  C  C2645  1  0.311700  0.990900  0.293140  1
  C  C2646  1  0.679200  0.688300  0.293140  1
  C  C2647  1  0.675767  0.654133  0.626473  1
  C  C2648  1  0.978367  0.324233  0.626473  1
  C  C2649  1  0.345867  0.021633  0.626473  1
  C  C2650  1  0.342433  0.987467  0.959807  1
  C  C2651  1  0.645033  0.657567  0.959807  1
  C  C2652  1  0.012533  0.354967  0.959807  1
  C  C2653  1  0.011700  0.716100  0.724700  1
  C  C2654  1  0.704400  0.988300  0.724700  1
  C  C2655  1  0.283900  0.295600  0.724700  1
  C  C2656  1  0.345033  0.382767  0.391367  1
  C  C2657  1  0.037733  0.654967  0.391367  1
  C  C2658  1  0.617233  0.962267  0.391367  1
  C  C2659  1  0.678367  0.049433  0.058033  1
  C  C2660  1  0.371067  0.321633  0.058033  1
  C  C2661  1  0.950567  0.628933  0.058033  1
  C  C2662  1  0.988300  0.283900  0.275300  1
  C  C2663  1  0.295600  0.011700  0.275300  1
  C  C2664  1  0.716100  0.704400  0.275300  1
  C  C2665  1  0.654967  0.617233  0.608633  1
  C  C2666  1  0.962267  0.345033  0.608633  1
  C  C2667  1  0.382767  0.037733  0.608633  1
  C  C2668  1  0.321633  0.950567  0.941967  1
  C  C2669  1  0.628933  0.678367  0.941967  1
  C  C2670  1  0.049433  0.371067  0.941967  1
  C  C2671  1  0.002800  0.755600  0.724180  1
  C  C2672  1  0.752800  0.997200  0.724180  1
  C  C2673  1  0.244400  0.247200  0.724180  1
  C  C2674  1  0.336133  0.422267  0.390847  1
  C  C2675  1  0.086133  0.663867  0.390847  1
  C  C2676  1  0.577733  0.913867  0.390847  1
  C  C2677  1  0.669467  0.088933  0.057513  1
  C  C2678  1  0.419467  0.330533  0.057513  1
  C  C2679  1  0.911067  0.580533  0.057513  1
  C  C2680  1  0.997200  0.244400  0.275820  1
  C  C2681  1  0.247200  0.002800  0.275820  1
  C  C2682  1  0.755600  0.752800  0.275820  1
  C  C2683  1  0.663867  0.577733  0.609153  1
  C  C2684  1  0.913867  0.336133  0.609153  1
  C  C2685  1  0.422267  0.086133  0.609153  1
  C  C2686  1  0.330533  0.911067  0.942487  1
  C  C2687  1  0.580533  0.669467  0.942487  1
  C  C2688  1  0.088933  0.419467  0.942487  1
  C  C2689  1  0.011600  0.861800  0.703400  1
  C  C2690  1  0.850200  0.988400  0.703400  1
  C  C2691  1  0.138200  0.149800  0.703400  1
  C  C2692  1  0.344933  0.528467  0.370067  1
  C  C2693  1  0.183533  0.655067  0.370067  1
  C  C2694  1  0.471533  0.816467  0.370067  1
  C  C2695  1  0.678267  0.195133  0.036733  1
  C  C2696  1  0.516867  0.321733  0.036733  1
  C  C2697  1  0.804867  0.483133  0.036733  1
  C  C2698  1  0.988400  0.138200  0.296600  1
  C  C2699  1  0.149800  0.011600  0.296600  1
  C  C2700  1  0.861800  0.850200  0.296600  1
  C  C2701  1  0.655067  0.471533  0.629933  1
  C  C2702  1  0.816467  0.344933  0.629933  1
  C  C2703  1  0.528467  0.183533  0.629933  1
  C  C2704  1  0.321733  0.804867  0.963267  1
  C  C2705  1  0.483133  0.678267  0.963267  1
  C  C2706  1  0.195133  0.516867  0.963267  1
  C  C2707  1  0.059000  0.870700  0.708900  1
  C  C2708  1  0.811700  0.941000  0.708900  1
  C  C2709  1  0.129300  0.188300  0.708900  1
  C  C2710  1  0.392333  0.537367  0.375567  1
  C  C2711  1  0.145033  0.607667  0.375567  1
  C  C2712  1  0.462633  0.854967  0.375567  1
  C  C2713  1  0.725667  0.204033  0.042233  1
  C  C2714  1  0.478367  0.274333  0.042233  1
  C  C2715  1  0.795967  0.521633  0.042233  1
  C  C2716  1  0.941000  0.129300  0.291100  1
  C  C2717  1  0.188300  0.059000  0.291100  1
  C  C2718  1  0.870700  0.811700  0.291100  1
  C  C2719  1  0.607667  0.462633  0.624433  1
  C  C2720  1  0.854967  0.392333  0.624433  1
  C  C2721  1  0.537367  0.145033  0.624433  1
  C  C2722  1  0.274333  0.795967  0.957767  1
  C  C2723  1  0.521633  0.725667  0.957767  1
  C  C2724  1  0.204033  0.478367  0.957767  1
  C  C2725  1  0.099600  0.918200  0.706290  1
  C  C2726  1  0.818600  0.900400  0.706290  1
  C  C2727  1  0.081800  0.181400  0.706290  1
  C  C2728  1  0.432933  0.584867  0.372957  1
  C  C2729  1  0.151933  0.567067  0.372957  1
  C  C2730  1  0.415133  0.848067  0.372957  1
  C  C2731  1  0.766267  0.251533  0.039623  1
  C  C2732  1  0.485267  0.233733  0.039623  1
  C  C2733  1  0.748467  0.514733  0.039623  1
  C  C2734  1  0.900400  0.081800  0.293710  1
  C  C2735  1  0.181400  0.099600  0.293710  1
  C  C2736  1  0.918200  0.818600  0.293710  1
  C  C2737  1  0.567067  0.415133  0.627043  1
  C  C2738  1  0.848067  0.432933  0.627043  1
  C  C2739  1  0.584867  0.151933  0.627043  1
  C  C2740  1  0.233733  0.748467  0.960377  1
  C  C2741  1  0.514733  0.766267  0.960377  1
  C  C2742  1  0.251533  0.485267  0.960377  1
  C  C2743  1  0.092800  0.956800  0.698200  1
  C  C2744  1  0.864000  0.907200  0.698200  1
  C  C2745  1  0.043200  0.136000  0.698200  1
  C  C2746  1  0.426133  0.623467  0.364867  1
  C  C2747  1  0.197333  0.573867  0.364867  1
  C  C2748  1  0.376533  0.802667  0.364867  1
  C  C2749  1  0.759467  0.290133  0.031533  1
  C  C2750  1  0.530667  0.240533  0.031533  1
  C  C2751  1  0.709867  0.469333  0.031533  1
  C  C2752  1  0.907200  0.043200  0.301800  1
  C  C2753  1  0.136000  0.092800  0.301800  1
  C  C2754  1  0.956800  0.864000  0.301800  1
  C  C2755  1  0.573867  0.376533  0.635133  1
  C  C2756  1  0.802667  0.426133  0.635133  1
  C  C2757  1  0.623467  0.197333  0.635133  1
  C  C2758  1  0.240533  0.709867  0.968467  1
  C  C2759  1  0.469333  0.759467  0.968467  1
  C  C2760  1  0.290133  0.530667  0.968467  1
  C  C2761  1  0.045300  0.947800  0.692700  1
  C  C2762  1  0.902500  0.954700  0.692700  1
  C  C2763  1  0.052200  0.097500  0.692700  1
  C  C2764  1  0.378633  0.614467  0.359367  1
  C  C2765  1  0.235833  0.621367  0.359367  1
  C  C2766  1  0.385533  0.764167  0.359367  1
  C  C2767  1  0.711967  0.281133  0.026033  1
  C  C2768  1  0.569167  0.288033  0.026033  1
  C  C2769  1  0.718867  0.430833  0.026033  1
  C  C2770  1  0.954700  0.052200  0.307300  1
  C  C2771  1  0.097500  0.045300  0.307300  1
  C  C2772  1  0.947800  0.902500  0.307300  1
  C  C2773  1  0.621367  0.385533  0.640633  1
  C  C2774  1  0.764167  0.378633  0.640633  1
  C  C2775  1  0.614467  0.235833  0.640633  1
  C  C2776  1  0.288033  0.718867  0.973967  1
  C  C2777  1  0.430833  0.711967  0.973967  1
  C  C2778  1  0.281133  0.569167  0.973967  1
  C  C2779  1  0.004800  0.900300  0.695300  1
  C  C2780  1  0.895500  0.995200  0.695300  1
  C  C2781  1  0.099700  0.104500  0.695300  1
  C  C2782  1  0.338133  0.566967  0.361967  1
  C  C2783  1  0.228833  0.661867  0.361967  1
  C  C2784  1  0.433033  0.771167  0.361967  1
  C  C2785  1  0.671467  0.233633  0.028633  1
  C  C2786  1  0.562167  0.328533  0.028633  1
  C  C2787  1  0.766367  0.437833  0.028633  1
  C  C2788  1  0.995200  0.099700  0.304700  1
  C  C2789  1  0.104500  0.004800  0.304700  1
  C  C2790  1  0.900300  0.895500  0.304700  1
  C  C2791  1  0.661867  0.433033  0.638033  1
  C  C2792  1  0.771167  0.338133  0.638033  1
  C  C2793  1  0.566967  0.228833  0.638033  1
  C  C2794  1  0.328533  0.766367  0.971367  1
  C  C2795  1  0.437833  0.671467  0.971367  1
  C  C2796  1  0.233633  0.562167  0.971367  1
  C  C2797  1  0.924000  0.798600  0.730650  1
  C  C2798  1  0.874600  0.076000  0.730650  1
  C  C2799  1  0.201400  0.125400  0.730650  1
  C  C2800  1  0.257333  0.465267  0.397317  1
  C  C2801  1  0.207933  0.742667  0.397317  1
  C  C2802  1  0.534733  0.792067  0.397317  1
  C  C2803  1  0.590667  0.131933  0.063983  1
  C  C2804  1  0.541267  0.409333  0.063983  1
  C  C2805  1  0.868067  0.458733  0.063983  1
  C  C2806  1  0.076000  0.201400  0.269350  1
  C  C2807  1  0.125400  0.924000  0.269350  1
  C  C2808  1  0.798600  0.874600  0.269350  1
  C  C2809  1  0.742667  0.534733  0.602683  1
  C  C2810  1  0.792067  0.257333  0.602683  1
  C  C2811  1  0.465267  0.207933  0.602683  1
  C  C2812  1  0.409333  0.868067  0.936017  1
  C  C2813  1  0.458733  0.590667  0.936017  1
  C  C2814  1  0.131933  0.541267  0.936017  1
  C  C2815  1  0.906000  0.757000  0.745660  1
  C  C2816  1  0.851000  0.094000  0.745660  1
  C  C2817  1  0.243000  0.149000  0.745660  1
  C  C2818  1  0.239333  0.423667  0.412327  1
  C  C2819  1  0.184333  0.760667  0.412327  1
  C  C2820  1  0.576333  0.815667  0.412327  1
  C  C2821  1  0.572667  0.090333  0.078993  1
  C  C2822  1  0.517667  0.427333  0.078993  1
  C  C2823  1  0.909667  0.482333  0.078993  1
  C  C2824  1  0.094000  0.243000  0.254340  1
  C  C2825  1  0.149000  0.906000  0.254340  1
  C  C2826  1  0.757000  0.851000  0.254340  1
  C  C2827  1  0.760667  0.576333  0.587673  1
  C  C2828  1  0.815667  0.239333  0.587673  1
  C  C2829  1  0.423667  0.184333  0.587673  1
  C  C2830  1  0.427333  0.909667  0.921007  1
  C  C2831  1  0.482333  0.572667  0.921007  1
  C  C2832  1  0.090333  0.517667  0.921007  1
  C  C2833  1  0.874300  0.750800  0.765050  1
  C  C2834  1  0.876500  0.125700  0.765050  1
  C  C2835  1  0.249200  0.123500  0.765050  1
  C  C2836  1  0.207633  0.417467  0.431717  1
  C  C2837  1  0.209833  0.792367  0.431717  1
  C  C2838  1  0.582533  0.790167  0.431717  1
  C  C2839  1  0.540967  0.084133  0.098383  1
  C  C2840  1  0.543167  0.459033  0.098383  1
  C  C2841  1  0.915867  0.456833  0.098383  1
  C  C2842  1  0.125700  0.249200  0.234950  1
  C  C2843  1  0.123500  0.874300  0.234950  1
  C  C2844  1  0.750800  0.876500  0.234950  1
  C  C2845  1  0.792367  0.582533  0.568283  1
  C  C2846  1  0.790167  0.207633  0.568283  1
  C  C2847  1  0.417467  0.209833  0.568283  1
  C  C2848  1  0.459033  0.915867  0.901617  1
  C  C2849  1  0.456833  0.540967  0.901617  1
  C  C2850  1  0.084133  0.543167  0.901617  1
  C  C2851  1  0.860600  0.786400  0.769440  1
  C  C2852  1  0.925800  0.139400  0.769440  1
  C  C2853  1  0.213600  0.074200  0.769440  1
  C  C2854  1  0.193933  0.453067  0.436107  1
  C  C2855  1  0.259133  0.806067  0.436107  1
  C  C2856  1  0.546933  0.740867  0.436107  1
  C  C2857  1  0.527267  0.119733  0.102773  1
  C  C2858  1  0.592467  0.472733  0.102773  1
  C  C2859  1  0.880267  0.407533  0.102773  1
  C  C2860  1  0.139400  0.213600  0.230560  1
  C  C2861  1  0.074200  0.860600  0.230560  1
  C  C2862  1  0.786400  0.925800  0.230560  1
  C  C2863  1  0.806067  0.546933  0.563893  1
  C  C2864  1  0.740867  0.193933  0.563893  1
  C  C2865  1  0.453067  0.259133  0.563893  1
  C  C2866  1  0.472733  0.880267  0.897227  1
  C  C2867  1  0.407533  0.527267  0.897227  1
  C  C2868  1  0.119733  0.592467  0.897227  1
  C  C2869  1  0.878600  0.828000  0.754440  1
  C  C2870  1  0.949400  0.121400  0.754440  1
  C  C2871  1  0.172000  0.050600  0.754440  1
  C  C2872  1  0.211933  0.494667  0.421107  1
  C  C2873  1  0.282733  0.788067  0.421107  1
  C  C2874  1  0.505333  0.717267  0.421107  1
  C  C2875  1  0.545267  0.161333  0.087773  1
  C  C2876  1  0.616067  0.454733  0.087773  1
  C  C2877  1  0.838667  0.383933  0.087773  1
  C  C2878  1  0.121400  0.172000  0.245560  1
  C  C2879  1  0.050600  0.878600  0.245560  1
  C  C2880  1  0.828000  0.949400  0.245560  1
  C  C2881  1  0.788067  0.505333  0.578893  1
  C  C2882  1  0.717267  0.211933  0.578893  1
  C  C2883  1  0.494667  0.282733  0.578893  1
  C  C2884  1  0.454733  0.838667  0.912227  1
  C  C2885  1  0.383933  0.545267  0.912227  1
  C  C2886  1  0.161333  0.616067  0.912227  1
  C  C2887  1  0.910300  0.834200  0.735050  1
  C  C2888  1  0.923900  0.089700  0.735050  1
  C  C2889  1  0.165800  0.076100  0.735050  1
  C  C2890  1  0.243633  0.500867  0.401717  1
  C  C2891  1  0.257233  0.756367  0.401717  1
  C  C2892  1  0.499133  0.742767  0.401717  1
  C  C2893  1  0.576967  0.167533  0.068383  1
  C  C2894  1  0.590567  0.423033  0.068383  1
  C  C2895  1  0.832467  0.409433  0.068383  1
  C  C2896  1  0.089700  0.165800  0.264950  1
  C  C2897  1  0.076100  0.910300  0.264950  1
  C  C2898  1  0.834200  0.923900  0.264950  1
  C  C2899  1  0.756367  0.499133  0.598283  1
  C  C2900  1  0.742767  0.243633  0.598283  1
  C  C2901  1  0.500867  0.257233  0.598283  1
  C  C2902  1  0.423033  0.832467  0.931617  1
  C  C2903  1  0.409433  0.576967  0.931617  1
  C  C2904  1  0.167533  0.590567  0.931617  1
  C  C2905  1  0.911200  0.763700  0.679900  1
  C  C2906  1  0.852500  0.088800  0.679900  1
  C  C2907  1  0.236300  0.147500  0.679900  1
  C  C2908  1  0.244533  0.430367  0.346567  1
  C  C2909  1  0.185833  0.755467  0.346567  1
  C  C2910  1  0.569633  0.814167  0.346567  1
  C  C2911  1  0.577867  0.097033  0.013233  1
  C  C2912  1  0.519167  0.422133  0.013233  1
  C  C2913  1  0.902967  0.480833  0.013233  1
  C  C2914  1  0.088800  0.236300  0.320100  1
  C  C2915  1  0.147500  0.911200  0.320100  1
  C  C2916  1  0.763700  0.852500  0.320100  1
  C  C2917  1  0.755467  0.569633  0.653433  1
  C  C2918  1  0.814167  0.244533  0.653433  1
  C  C2919  1  0.430367  0.185833  0.653433  1
  C  C2920  1  0.422133  0.902967  0.986767  1
  C  C2921  1  0.480833  0.577867  0.986767  1
  C  C2922  1  0.097033  0.519167  0.986767  1
  C  C2923  1  0.862300  0.725300  0.681360  1
  C  C2924  1  0.863000  0.137700  0.681360  1
  C  C2925  1  0.274700  0.137000  0.681360  1
  C  C2926  1  0.195633  0.391967  0.348027  1
  C  C2927  1  0.196333  0.804367  0.348027  1
  C  C2928  1  0.608033  0.803667  0.348027  1
  C  C2929  1  0.528967  0.058633  0.014693  1
  C  C2930  1  0.529667  0.471033  0.014693  1
  C  C2931  1  0.941367  0.470333  0.014693  1
  C  C2932  1  0.137700  0.274700  0.318640  1
  C  C2933  1  0.137000  0.862300  0.318640  1
  C  C2934  1  0.725300  0.863000  0.318640  1
  C  C2935  1  0.804367  0.608033  0.651973  1
  C  C2936  1  0.803667  0.195633  0.651973  1
  C  C2937  1  0.391967  0.196333  0.651973  1
  C  C2938  1  0.471033  0.941367  0.985307  1
  C  C2939  1  0.470333  0.528967  0.985307  1
  C  C2940  1  0.058633  0.529667  0.985307  1
  C  C2941  1  0.844700  0.685900  0.664900  1
  C  C2942  1  0.841200  0.155300  0.664900  1
  C  C2943  1  0.314100  0.158800  0.664900  1
  C  C2944  1  0.178033  0.352567  0.331567  1
  C  C2945  1  0.174533  0.821967  0.331567  1
  C  C2946  1  0.647433  0.825467  0.331567  1
  C  C2947  1  0.511367  0.019233  0.998233  1
  C  C2948  1  0.507867  0.488633  0.998233  1
  C  C2949  1  0.980767  0.492133  0.998233  1
  C  C2950  1  0.155300  0.314100  0.335100  1
  C  C2951  1  0.158800  0.844700  0.335100  1
  C  C2952  1  0.685900  0.841200  0.335100  1
  C  C2953  1  0.821967  0.647433  0.668433  1
  C  C2954  1  0.825467  0.178033  0.668433  1
  C  C2955  1  0.352567  0.174533  0.668433  1
  C  C2956  1  0.488633  0.980767  0.001767  1
  C  C2957  1  0.492133  0.511367  0.001767  1
  C  C2958  1  0.019233  0.507867  0.001767  1
  C  C2959  1  0.876000  0.684900  0.646900  1
  C  C2960  1  0.808900  0.124000  0.646900  1
  C  C2961  1  0.315100  0.191100  0.646900  1
  C  C2962  1  0.209333  0.351567  0.313567  1
  C  C2963  1  0.142233  0.790667  0.313567  1
  C  C2964  1  0.648433  0.857767  0.313567  1
  C  C2965  1  0.542667  0.018233  0.980233  1
  C  C2966  1  0.475567  0.457333  0.980233  1
  C  C2967  1  0.981767  0.524433  0.980233  1
  C  C2968  1  0.124000  0.315100  0.353100  1
  C  C2969  1  0.191100  0.876000  0.353100  1
  C  C2970  1  0.684900  0.808900  0.353100  1
  C  C2971  1  0.790667  0.648433  0.686433  1
  C  C2972  1  0.857767  0.209333  0.686433  1
  C  C2973  1  0.351567  0.142233  0.686433  1
  C  C2974  1  0.457333  0.981767  0.019767  1
  C  C2975  1  0.524433  0.542667  0.019767  1
  C  C2976  1  0.018233  0.475567  0.019767  1
  C  C2977  1  0.925000  0.723400  0.645470  1
  C  C2978  1  0.798400  0.075000  0.645470  1
  C  C2979  1  0.276600  0.201600  0.645470  1
  C  C2980  1  0.258333  0.390067  0.312137  1
  C  C2981  1  0.131733  0.741667  0.312137  1
  C  C2982  1  0.609933  0.868267  0.312137  1
  C  C2983  1  0.591667  0.056733  0.978803  1
  C  C2984  1  0.465067  0.408333  0.978803  1
  C  C2985  1  0.943267  0.534933  0.978803  1
  C  C2986  1  0.075000  0.276600  0.354530  1
  C  C2987  1  0.201600  0.925000  0.354530  1
  C  C2988  1  0.723400  0.798400  0.354530  1
  C  C2989  1  0.741667  0.609933  0.687863  1
  C  C2990  1  0.868267  0.258333  0.687863  1
  C  C2991  1  0.390067  0.131733  0.687863  1
  C  C2992  1  0.408333  0.943267  0.021197  1
  C  C2993  1  0.534933  0.591667  0.021197  1
  C  C2994  1  0.056733  0.465067  0.021197  1
  C  C2995  1  0.942500  0.762700  0.662000  1
  C  C2996  1  0.820200  0.057500  0.662000  1
  C  C2997  1  0.237300  0.179800  0.662000  1
  C  C2998  1  0.275833  0.429367  0.328667  1
  C  C2999  1  0.153533  0.724167  0.328667  1
  C  C3000  1  0.570633  0.846467  0.328667  1
  C  C3001  1  0.609167  0.096033  0.995333  1
  C  C3002  1  0.486867  0.390833  0.995333  1
  C  C3003  1  0.903967  0.513133  0.995333  1
  C  C3004  1  0.057500  0.237300  0.338000  1
  C  C3005  1  0.179800  0.942500  0.338000  1
  C  C3006  1  0.762700  0.820200  0.338000  1
  C  C3007  1  0.724167  0.570633  0.671333  1
  C  C3008  1  0.846467  0.275833  0.671333  1
  C  C3009  1  0.429367  0.153533  0.671333  1
  C  C3010  1  0.390833  0.903967  0.004667  1
  C  C3011  1  0.513133  0.609167  0.004667  1
  C  C3012  1  0.096033  0.486867  0.004667  1
  C  C3013  1  0.924100  0.852900  0.680490  1
  C  C3014  1  0.928800  0.075900  0.680490  1
  C  C3015  1  0.147100  0.071200  0.680490  1
  C  C3016  1  0.257433  0.519567  0.347157  1
  C  C3017  1  0.262133  0.742567  0.347157  1
  C  C3018  1  0.480433  0.737867  0.347157  1
  C  C3019  1  0.590767  0.186233  0.013823  1
  C  C3020  1  0.595467  0.409233  0.013823  1
  C  C3021  1  0.813767  0.404533  0.013823  1
  C  C3022  1  0.075900  0.147100  0.319510  1
  C  C3023  1  0.071200  0.924100  0.319510  1
  C  C3024  1  0.852900  0.928800  0.319510  1
  C  C3025  1  0.742567  0.480433  0.652843  1
  C  C3026  1  0.737867  0.257433  0.652843  1
  C  C3027  1  0.519567  0.262133  0.652843  1
  C  C3028  1  0.409233  0.813767  0.986177  1
  C  C3029  1  0.404533  0.590767  0.986177  1
  C  C3030  1  0.186233  0.595467  0.986177  1
  C  C3031  1  0.957500  0.876800  0.661500  1
  C  C3032  1  0.919300  0.042500  0.661500  1
  C  C3033  1  0.123200  0.080700  0.661500  1
  C  C3034  1  0.290833  0.543467  0.328167  1
  C  C3035  1  0.252633  0.709167  0.328167  1
  C  C3036  1  0.456533  0.747367  0.328167  1
  C  C3037  1  0.624167  0.210133  0.994833  1
  C  C3038  1  0.585967  0.375833  0.994833  1
  C  C3039  1  0.789867  0.414033  0.994833  1
  C  C3040  1  0.042500  0.123200  0.338500  1
  C  C3041  1  0.080700  0.957500  0.338500  1
  C  C3042  1  0.876800  0.919300  0.338500  1
  C  C3043  1  0.709167  0.456533  0.671833  1
  C  C3044  1  0.747367  0.290833  0.671833  1
  C  C3045  1  0.543467  0.252633  0.671833  1
  C  C3046  1  0.375833  0.789867  0.005167  1
  C  C3047  1  0.414033  0.624167  0.005167  1
  C  C3048  1  0.210133  0.585967  0.005167  1
  C  C3049  1  0.948500  0.904600  0.644390  1
  C  C3050  1  0.956100  0.051500  0.644390  1
  C  C3051  1  0.095400  0.043900  0.644390  1
  C  C3052  1  0.281833  0.571267  0.311057  1
  C  C3053  1  0.289433  0.718167  0.311057  1
  C  C3054  1  0.428733  0.710567  0.311057  1
  C  C3055  1  0.615167  0.237933  0.977723  1
  C  C3056  1  0.622767  0.384833  0.977723  1
  C  C3057  1  0.762067  0.377233  0.977723  1
  C  C3058  1  0.051500  0.095400  0.355610  1
  C  C3059  1  0.043900  0.948500  0.355610  1
  C  C3060  1  0.904600  0.956100  0.355610  1
  C  C3061  1  0.718167  0.428733  0.688943  1
  C  C3062  1  0.710567  0.281833  0.688943  1
  C  C3063  1  0.571267  0.289433  0.688943  1
  C  C3064  1  0.384833  0.762067  0.022277  1
  C  C3065  1  0.377233  0.615167  0.022277  1
  C  C3066  1  0.237933  0.622767  0.022277  1
  C  C3067  1  0.906000  0.908500  0.646340  1
  C  C3068  1  0.002500  0.094000  0.646340  1
  C  C3069  1  0.091500  0.997500  0.646340  1
  C  C3070  1  0.239333  0.575167  0.313007  1
  C  C3071  1  0.335833  0.760667  0.313007  1
  C  C3072  1  0.424833  0.664167  0.313007  1
  C  C3073  1  0.572667  0.241833  0.979673  1
  C  C3074  1  0.669167  0.427333  0.979673  1
  C  C3075  1  0.758167  0.330833  0.979673  1
  C  C3076  1  0.094000  0.091500  0.353660  1
  C  C3077  1  0.997500  0.906000  0.353660  1
  C  C3078  1  0.908500  0.002500  0.353660  1
  C  C3079  1  0.760667  0.424833  0.686993  1
  C  C3080  1  0.664167  0.239333  0.686993  1
  C  C3081  1  0.575167  0.335833  0.686993  1
  C  C3082  1  0.427333  0.758167  0.020327  1
  C  C3083  1  0.330833  0.572667  0.020327  1
  C  C3084  1  0.241833  0.669167  0.020327  1
  C  C3085  1  0.872600  0.884600  0.665370  1
  C  C3086  1  0.012000  0.127400  0.665370  1
  C  C3087  1  0.115400  0.988000  0.665370  1
  C  C3088  1  0.205933  0.551267  0.332037  1
  C  C3089  1  0.345333  0.794067  0.332037  1
  C  C3090  1  0.448733  0.654667  0.332037  1
  C  C3091  1  0.539267  0.217933  0.998703  1
  C  C3092  1  0.678667  0.460733  0.998703  1
  C  C3093  1  0.782067  0.321333  0.998703  1
  C  C3094  1  0.127400  0.115400  0.334630  1
  C  C3095  1  0.988000  0.872600  0.334630  1
  C  C3096  1  0.884600  0.012000  0.334630  1
  C  C3097  1  0.794067  0.448733  0.667963  1
  C  C3098  1  0.654667  0.205933  0.667963  1
  C  C3099  1  0.551267  0.345333  0.667963  1
  C  C3100  1  0.460733  0.782067  0.001297  1
  C  C3101  1  0.321333  0.539267  0.001297  1
  C  C3102  1  0.217933  0.678667  0.001297  1
  C  C3103  1  0.881600  0.856800  0.682440  1
  C  C3104  1  0.975200  0.118400  0.682440  1
  C  C3105  1  0.143200  0.024800  0.682440  1
  C  C3106  1  0.214933  0.523467  0.349107  1
  C  C3107  1  0.308533  0.785067  0.349107  1
  C  C3108  1  0.476533  0.691467  0.349107  1
  C  C3109  1  0.548267  0.190133  0.015773  1
  C  C3110  1  0.641867  0.451733  0.015773  1
  C  C3111  1  0.809867  0.358133  0.015773  1
  C  C3112  1  0.118400  0.143200  0.317560  1
  C  C3113  1  0.024800  0.881600  0.317560  1
  C  C3114  1  0.856800  0.975200  0.317560  1
  C  C3115  1  0.785067  0.476533  0.650893  1
  C  C3116  1  0.691467  0.214933  0.650893  1
  C  C3117  1  0.523467  0.308533  0.650893  1
  C  C3118  1  0.451733  0.809867  0.984227  1
  C  C3119  1  0.358133  0.548267  0.984227  1
  C  C3120  1  0.190133  0.641867  0.984227  1
  C  C3121  1  0.991600  0.834100  0.707140  1
  C  C3122  1  0.842500  0.008400  0.707140  1
  C  C3123  1  0.165900  0.157500  0.707140  1
  C  C3124  1  0.324933  0.500767  0.373807  1
  C  C3125  1  0.175833  0.675067  0.373807  1
  C  C3126  1  0.499233  0.824167  0.373807  1
  C  C3127  1  0.658267  0.167433  0.040473  1
  C  C3128  1  0.509167  0.341733  0.040473  1
  C  C3129  1  0.832567  0.490833  0.040473  1
  C  C3130  1  0.008400  0.165900  0.292860  1
  C  C3131  1  0.157500  0.991600  0.292860  1
  C  C3132  1  0.834100  0.842500  0.292860  1
  C  C3133  1  0.675067  0.499233  0.626193  1
  C  C3134  1  0.824167  0.324933  0.626193  1
  C  C3135  1  0.500767  0.175833  0.626193  1
  C  C3136  1  0.341733  0.832567  0.959527  1
  C  C3137  1  0.490833  0.658267  0.959527  1
  C  C3138  1  0.167433  0.509167  0.959527  1
  C  C3139  1  0.002300  0.799600  0.717440  1
  C  C3140  1  0.797300  0.997700  0.717440  1
  C  C3141  1  0.200400  0.202700  0.717440  1
  C  C3142  1  0.335633  0.466267  0.384107  1
  C  C3143  1  0.130633  0.664367  0.384107  1
  C  C3144  1  0.533733  0.869367  0.384107  1
  C  C3145  1  0.668967  0.132933  0.050773  1
  C  C3146  1  0.463967  0.331033  0.050773  1
  C  C3147  1  0.867067  0.536033  0.050773  1
  C  C3148  1  0.997700  0.200400  0.282560  1
  C  C3149  1  0.202700  0.002300  0.282560  1
  C  C3150  1  0.799600  0.797300  0.282560  1
  C  C3151  1  0.664367  0.533733  0.615893  1
  C  C3152  1  0.869367  0.335633  0.615893  1
  C  C3153  1  0.466267  0.130633  0.615893  1
  C  C3154  1  0.331033  0.867067  0.949227  1
  C  C3155  1  0.536033  0.668967  0.949227  1
  C  C3156  1  0.132933  0.463967  0.949227  1
  C  C3157  1  0.050000  0.814500  0.725690  1
  C  C3158  1  0.764500  0.950000  0.725690  1
  C  C3159  1  0.185500  0.235500  0.725690  1
  C  C3160  1  0.383333  0.481167  0.392357  1
  C  C3161  1  0.097833  0.616667  0.392357  1
  C  C3162  1  0.518833  0.902167  0.392357  1
  C  C3163  1  0.716667  0.147833  0.059023  1
  C  C3164  1  0.431167  0.283333  0.059023  1
  C  C3165  1  0.852167  0.568833  0.059023  1
  C  C3166  1  0.950000  0.185500  0.274310  1
  C  C3167  1  0.235500  0.050000  0.274310  1
  C  C3168  1  0.814500  0.764500  0.274310  1
  C  C3169  1  0.616667  0.518833  0.607643  1
  C  C3170  1  0.902167  0.383333  0.607643  1
  C  C3171  1  0.481167  0.097833  0.607643  1
  C  C3172  1  0.283333  0.852167  0.940977  1
  C  C3173  1  0.568833  0.716667  0.940977  1
  C  C3174  1  0.147833  0.431167  0.940977  1
  C  C3175  1  0.087100  0.864000  0.723650  1
  C  C3176  1  0.776900  0.912900  0.723650  1
  C  C3177  1  0.136000  0.223100  0.723650  1
  C  C3178  1  0.420433  0.530667  0.390317  1
  C  C3179  1  0.110233  0.579567  0.390317  1
  C  C3180  1  0.469333  0.889767  0.390317  1
  C  C3181  1  0.753767  0.197333  0.056983  1
  C  C3182  1  0.443567  0.246233  0.056983  1
  C  C3183  1  0.802667  0.556433  0.056983  1
  C  C3184  1  0.912900  0.136000  0.276350  1
  C  C3185  1  0.223100  0.087100  0.276350  1
  C  C3186  1  0.864000  0.776900  0.276350  1
  C  C3187  1  0.579567  0.469333  0.609683  1
  C  C3188  1  0.889767  0.420433  0.609683  1
  C  C3189  1  0.530667  0.110233  0.609683  1
  C  C3190  1  0.246233  0.802667  0.943017  1
  C  C3191  1  0.556433  0.753767  0.943017  1
  C  C3192  1  0.197333  0.443567  0.943017  1
  C  C3193  1  0.076300  0.898400  0.713350  1
  C  C3194  1  0.822100  0.923700  0.713350  1
  C  C3195  1  0.101600  0.177900  0.713350  1
  C  C3196  1  0.409633  0.565067  0.380017  1
  C  C3197  1  0.155433  0.590367  0.380017  1
  C  C3198  1  0.434933  0.844567  0.380017  1
  C  C3199  1  0.742967  0.231733  0.046683  1
  C  C3200  1  0.488767  0.257033  0.046683  1
  C  C3201  1  0.768267  0.511233  0.046683  1
  C  C3202  1  0.923700  0.101600  0.286650  1
  C  C3203  1  0.177900  0.076300  0.286650  1
  C  C3204  1  0.898400  0.822100  0.286650  1
  C  C3205  1  0.590367  0.434933  0.619983  1
  C  C3206  1  0.844567  0.409633  0.619983  1
  C  C3207  1  0.565067  0.155433  0.619983  1
  C  C3208  1  0.257033  0.768267  0.953317  1
  C  C3209  1  0.511233  0.742967  0.953317  1
  C  C3210  1  0.231733  0.488767  0.953317  1
  C  C3211  1  0.028600  0.883500  0.705090  1
  C  C3212  1  0.854900  0.971400  0.705090  1
  C  C3213  1  0.116500  0.145100  0.705090  1
  C  C3214  1  0.361933  0.550167  0.371757  1
  C  C3215  1  0.188233  0.638067  0.371757  1
  C  C3216  1  0.449833  0.811767  0.371757  1
  C  C3217  1  0.695267  0.216833  0.038423  1
  C  C3218  1  0.521567  0.304733  0.038423  1
  C  C3219  1  0.783167  0.478433  0.038423  1
  C  C3220  1  0.971400  0.116500  0.294910  1
  C  C3221  1  0.145100  0.028600  0.294910  1
  C  C3222  1  0.883500  0.854900  0.294910  1
  C  C3223  1  0.638067  0.449833  0.628243  1
  C  C3224  1  0.811767  0.361933  0.628243  1
  C  C3225  1  0.550167  0.188233  0.628243  1
  C  C3226  1  0.304733  0.783167  0.961577  1
  C  C3227  1  0.478433  0.695267  0.961577  1
  C  C3228  1  0.216833  0.521567  0.961577  1
  C  C3229  1  0.900700  0.799100  0.726390  1
  C  C3230  1  0.898400  0.099300  0.726390  1
  C  C3231  1  0.200900  0.101600  0.726390  1
  C  C3232  1  0.234033  0.465767  0.393057  1
  C  C3233  1  0.231733  0.765967  0.393057  1
  C  C3234  1  0.534233  0.768267  0.393057  1
  C  C3235  1  0.567367  0.132433  0.059723  1
  C  C3236  1  0.565067  0.432633  0.059723  1
  C  C3237  1  0.867567  0.434933  0.059723  1
  C  C3238  1  0.099300  0.200900  0.273610  1
  C  C3239  1  0.101600  0.900700  0.273610  1
  C  C3240  1  0.799100  0.898400  0.273610  1
  C  C3241  1  0.765967  0.534233  0.606943  1
  C  C3242  1  0.768267  0.234033  0.606943  1
  C  C3243  1  0.465767  0.231733  0.606943  1
  C  C3244  1  0.432633  0.867567  0.940277  1
  C  C3245  1  0.434933  0.567367  0.940277  1
  C  C3246  1  0.132433  0.565067  0.940277  1
  C  C3247  1  0.888100  0.753800  0.737230  1
  C  C3248  1  0.865700  0.111900  0.737230  1
  C  C3249  1  0.246200  0.134300  0.737230  1
  C  C3250  1  0.221433  0.420467  0.403897  1
  C  C3251  1  0.199033  0.778567  0.403897  1
  C  C3252  1  0.579533  0.800967  0.403897  1
  C  C3253  1  0.554767  0.087133  0.070563  1
  C  C3254  1  0.532367  0.445233  0.070563  1
  C  C3255  1  0.912867  0.467633  0.070563  1
  C  C3256  1  0.111900  0.246200  0.262770  1
  C  C3257  1  0.134300  0.888100  0.262770  1
  C  C3258  1  0.753800  0.865700  0.262770  1
  C  C3259  1  0.778567  0.579533  0.596103  1
  C  C3260  1  0.800967  0.221433  0.596103  1
  C  C3261  1  0.420467  0.199033  0.596103  1
  C  C3262  1  0.445233  0.912867  0.929437  1
  C  C3263  1  0.467633  0.554767  0.929437  1
  C  C3264  1  0.087133  0.532367  0.929437  1
  C  C3265  1  0.867300  0.742700  0.760620  1
  C  C3266  1  0.875400  0.132700  0.760620  1
  C  C3267  1  0.257300  0.124600  0.760620  1
  C  C3268  1  0.200633  0.409367  0.427287  1
  C  C3269  1  0.208733  0.799367  0.427287  1
  C  C3270  1  0.590633  0.791267  0.427287  1
  C  C3271  1  0.533967  0.076033  0.093953  1
  C  C3272  1  0.542067  0.466033  0.093953  1
  C  C3273  1  0.923967  0.457933  0.093953  1
  C  C3274  1  0.132700  0.257300  0.239380  1
  C  C3275  1  0.124600  0.867300  0.239380  1
  C  C3276  1  0.742700  0.875400  0.239380  1
  C  C3277  1  0.799367  0.590633  0.572713  1
  C  C3278  1  0.791267  0.200633  0.572713  1
  C  C3279  1  0.409367  0.208733  0.572713  1
  C  C3280  1  0.466033  0.923967  0.906047  1
  C  C3281  1  0.457933  0.533967  0.906047  1
  C  C3282  1  0.076033  0.542067  0.906047  1
  C  C3283  1  0.859000  0.776800  0.773170  1
  C  C3284  1  0.917800  0.141000  0.773170  1
  C  C3285  1  0.223200  0.082200  0.773170  1
  C  C3286  1  0.192333  0.443467  0.439837  1
  C  C3287  1  0.251133  0.807667  0.439837  1
  C  C3288  1  0.556533  0.748867  0.439837  1
  C  C3289  1  0.525667  0.110133  0.106503  1
  C  C3290  1  0.584467  0.474333  0.106503  1
  C  C3291  1  0.889867  0.415533  0.106503  1
  C  C3292  1  0.141000  0.223200  0.226830  1
  C  C3293  1  0.082200  0.859000  0.226830  1
  C  C3294  1  0.776800  0.917800  0.226830  1
  C  C3295  1  0.807667  0.556533  0.560163  1
  C  C3296  1  0.748867  0.192333  0.560163  1
  C  C3297  1  0.443467  0.251133  0.560163  1
  C  C3298  1  0.474333  0.889867  0.893497  1
  C  C3299  1  0.415533  0.525667  0.893497  1
  C  C3300  1  0.110133  0.584467  0.893497  1
  C  C3301  1  0.871600  0.822100  0.762330  1
  C  C3302  1  0.950500  0.128400  0.762330  1
  C  C3303  1  0.177900  0.049500  0.762330  1
  C  C3304  1  0.204933  0.488767  0.428997  1
  C  C3305  1  0.283833  0.795067  0.428997  1
  C  C3306  1  0.511233  0.716167  0.428997  1
  C  C3307  1  0.538267  0.155433  0.095663  1
  C  C3308  1  0.617167  0.461733  0.095663  1
  C  C3309  1  0.844567  0.382833  0.095663  1
  C  C3310  1  0.128400  0.177900  0.237670  1
  C  C3311  1  0.049500  0.871600  0.237670  1
  C  C3312  1  0.822100  0.950500  0.237670  1
  C  C3313  1  0.795067  0.511233  0.571003  1
  C  C3314  1  0.716167  0.204933  0.571003  1
  C  C3315  1  0.488767  0.283833  0.571003  1
  C  C3316  1  0.461733  0.844567  0.904337  1
  C  C3317  1  0.382833  0.538267  0.904337  1
  C  C3318  1  0.155433  0.617167  0.904337  1
  C  C3319  1  0.892400  0.833200  0.738940  1
  C  C3320  1  0.940800  0.107600  0.738940  1
  C  C3321  1  0.166800  0.059200  0.738940  1
  C  C3322  1  0.225733  0.499867  0.405607  1
  C  C3323  1  0.274133  0.774267  0.405607  1
  C  C3324  1  0.500133  0.725867  0.405607  1
  C  C3325  1  0.559067  0.166533  0.072273  1
  C  C3326  1  0.607467  0.440933  0.072273  1
  C  C3327  1  0.833467  0.392533  0.072273  1
  C  C3328  1  0.107600  0.166800  0.261060  1
  C  C3329  1  0.059200  0.892400  0.261060  1
  C  C3330  1  0.833200  0.940800  0.261060  1
  C  C3331  1  0.774267  0.500133  0.594393  1
  C  C3332  1  0.725867  0.225733  0.594393  1
  C  C3333  1  0.499867  0.274133  0.594393  1
  C  C3334  1  0.440933  0.833467  0.927727  1
  C  C3335  1  0.392533  0.559067  0.927727  1
  C  C3336  1  0.166533  0.607467  0.927727  1
  C  C3337  1  0.945500  0.800800  0.655400  1
  C  C3338  1  0.855300  0.054500  0.655400  1
  C  C3339  1  0.199200  0.144700  0.655400  1
  C  C3340  1  0.278833  0.467467  0.322067  1
  C  C3341  1  0.188633  0.721167  0.322067  1
  C  C3342  1  0.532533  0.811367  0.322067  1
  C  C3343  1  0.612167  0.134133  0.988733  1
  C  C3344  1  0.521967  0.387833  0.988733  1
  C  C3345  1  0.865867  0.478033  0.988733  1
  C  C3346  1  0.054500  0.199200  0.344600  1
  C  C3347  1  0.144700  0.945500  0.344600  1
  C  C3348  1  0.800800  0.855300  0.344600  1
  C  C3349  1  0.721167  0.532533  0.677933  1
  C  C3350  1  0.811367  0.278833  0.677933  1
  C  C3351  1  0.467467  0.188633  0.677933  1
  C  C3352  1  0.387833  0.865867  0.011267  1
  C  C3353  1  0.478033  0.612167  0.011267  1
  C  C3354  1  0.134133  0.521967  0.011267  1
  C  C3355  1  0.917600  0.779300  0.634300  1
  C  C3356  1  0.861700  0.082400  0.634300  1
  C  C3357  1  0.220700  0.138300  0.634300  1
  C  C3358  1  0.250933  0.445967  0.300967  1
  C  C3359  1  0.195033  0.749067  0.300967  1
  C  C3360  1  0.554033  0.804967  0.300967  1
  C  C3361  1  0.584267  0.112633  0.967633  1
  C  C3362  1  0.528367  0.415733  0.967633  1
  C  C3363  1  0.887367  0.471633  0.967633  1
  C  C3364  1  0.082400  0.220700  0.365700  1
  C  C3365  1  0.138300  0.917600  0.365700  1
  C  C3366  1  0.779300  0.861700  0.365700  1
  C  C3367  1  0.749067  0.554033  0.699033  1
  C  C3368  1  0.804967  0.250933  0.699033  1
  C  C3369  1  0.445967  0.195033  0.699033  1
  C  C3370  1  0.415733  0.887367  0.032367  1
  C  C3371  1  0.471633  0.584267  0.032367  1
  C  C3372  1  0.112633  0.528367  0.032367  1
  C  C3373  1  0.866600  0.748100  0.636000  1
  C  C3374  1  0.881500  0.133400  0.636000  1
  C  C3375  1  0.251900  0.118500  0.636000  1
  C  C3376  1  0.199933  0.414767  0.302667  1
  C  C3377  1  0.214833  0.800067  0.302667  1
  C  C3378  1  0.585233  0.785167  0.302667  1
  C  C3379  1  0.533267  0.081433  0.969333  1
  C  C3380  1  0.548167  0.466733  0.969333  1
  C  C3381  1  0.918567  0.451833  0.969333  1
  C  C3382  1  0.133400  0.251900  0.364000  1
  C  C3383  1  0.118500  0.866600  0.364000  1
  C  C3384  1  0.748100  0.881500  0.364000  1
  C  C3385  1  0.800067  0.585233  0.697333  1
  C  C3386  1  0.785167  0.199933  0.697333  1
  C  C3387  1  0.414767  0.214833  0.697333  1
  C  C3388  1  0.466733  0.918567  0.030667  1
  C  C3389  1  0.451833  0.533267  0.030667  1
  C  C3390  1  0.081433  0.548167  0.030667  1
  C  C3391  1  0.843400  0.738200  0.658800  1
  C  C3392  1  0.894800  0.156600  0.658800  1
  C  C3393  1  0.261800  0.105200  0.658800  1
  C  C3394  1  0.176733  0.404867  0.325467  1
  C  C3395  1  0.228133  0.823267  0.325467  1
  C  C3396  1  0.595133  0.771867  0.325467  1
  C  C3397  1  0.510067  0.071533  0.992133  1
  C  C3398  1  0.561467  0.489933  0.992133  1
  C  C3399  1  0.928467  0.438533  0.992133  1
  C  C3400  1  0.156600  0.261800  0.341200  1
  C  C3401  1  0.105200  0.843400  0.341200  1
  C  C3402  1  0.738200  0.894800  0.341200  1
  C  C3403  1  0.823267  0.595133  0.674533  1
  C  C3404  1  0.771867  0.176733  0.674533  1
  C  C3405  1  0.404867  0.228133  0.674533  1
  C  C3406  1  0.489933  0.928467  0.007867  1
  C  C3407  1  0.438533  0.510067  0.007867  1
  C  C3408  1  0.071533  0.561467  0.007867  1
  C  C3409  1  0.871200  0.759500  0.679900  1
  C  C3410  1  0.888300  0.128800  0.679900  1
  C  C3411  1  0.240500  0.111700  0.679900  1
  C  C3412  1  0.204533  0.426167  0.346567  1
  C  C3413  1  0.221633  0.795467  0.346567  1
  C  C3414  1  0.573833  0.778367  0.346567  1
  C  C3415  1  0.537867  0.092833  0.013233  1
  C  C3416  1  0.554967  0.462133  0.013233  1
  C  C3417  1  0.907167  0.445033  0.013233  1
  C  C3418  1  0.128800  0.240500  0.320100  1
  C  C3419  1  0.111700  0.871200  0.320100  1
  C  C3420  1  0.759500  0.888300  0.320100  1
  C  C3421  1  0.795467  0.573833  0.653433  1
  C  C3422  1  0.778367  0.204533  0.653433  1
  C  C3423  1  0.426167  0.221633  0.653433  1
  C  C3424  1  0.462133  0.907167  0.986767  1
  C  C3425  1  0.445033  0.537867  0.986767  1
  C  C3426  1  0.092833  0.554967  0.986767  1
  C  C3427  1  0.922200  0.790800  0.678200  1
  C  C3428  1  0.868600  0.077800  0.678200  1
  C  C3429  1  0.209200  0.131400  0.678200  1
  C  C3430  1  0.255533  0.457467  0.344867  1
  C  C3431  1  0.201933  0.744467  0.344867  1
  C  C3432  1  0.542533  0.798067  0.344867  1
  C  C3433  1  0.588867  0.124133  0.011533  1
  C  C3434  1  0.535267  0.411133  0.011533  1
  C  C3435  1  0.875867  0.464733  0.011533  1
  C  C3436  1  0.077800  0.209200  0.321800  1
  C  C3437  1  0.131400  0.922200  0.321800  1
  C  C3438  1  0.790800  0.868600  0.321800  1
  C  C3439  1  0.744467  0.542533  0.655133  1
  C  C3440  1  0.798067  0.255533  0.655133  1
  C  C3441  1  0.457467  0.201933  0.655133  1
  C  C3442  1  0.411133  0.875867  0.988467  1
  C  C3443  1  0.464733  0.588867  0.988467  1
  C  C3444  1  0.124133  0.535267  0.988467  1
  C  C3445  1  0.371500  0.278700  0.979100  1.0
  C  C3446  1  0.907200  0.628500  0.979100  1.0
  C  C3447  1  0.721300  0.092800  0.979100  1.0
  C  C3448  1  0.704833  0.945367  0.645767  1.0
  C  C3449  1  0.240533  0.295167  0.645767  1.0
  C  C3450  1  0.054633  0.759467  0.645767  1.0
  C  C3451  1  0.038167  0.612033  0.312433  1.0
  C  C3452  1  0.573867  0.961833  0.312433  1.0
  C  C3453  1  0.387967  0.426133  0.312433  1.0
  C  C3454  1  0.628500  0.721300  0.020900  1.0
  C  C3455  1  0.092800  0.371500  0.020900  1.0
  C  C3456  1  0.278700  0.907200  0.020900  1.0
  C  C3457  1  0.295167  0.054633  0.354233  1.0
  C  C3458  1  0.759467  0.704833  0.354233  1.0
  C  C3459  1  0.945367  0.240533  0.354233  1.0
  C  C3460  1  0.961833  0.387967  0.687567  1.0
  C  C3461  1  0.426133  0.038167  0.687567  1.0
  C  C3462  1  0.612033  0.573867  0.687567  1.0
  C  C3463  1  0.399800  0.267100  0.994340  1.0
  C  C3464  1  0.867300  0.600200  0.994340  1.0
  C  C3465  1  0.732900  0.132700  0.994340  1.0
  C  C3466  1  0.733133  0.933767  0.661007  1.0
  C  C3467  1  0.200633  0.266867  0.661007  1.0
  C  C3468  1  0.066233  0.799367  0.661007  1.0
  C  C3469  1  0.066467  0.600433  0.327673  1.0
  C  C3470  1  0.533967  0.933533  0.327673  1.0
  C  C3471  1  0.399567  0.466033  0.327673  1.0
  C  C3472  1  0.600200  0.732900  0.005660  1.0
  C  C3473  1  0.132700  0.399800  0.005660  1.0
  C  C3474  1  0.267100  0.867300  0.005660  1.0
  C  C3475  1  0.266867  0.066233  0.338993  1.0
  C  C3476  1  0.799367  0.733133  0.338993  1.0
  C  C3477  1  0.933767  0.200633  0.338993  1.0
  C  C3478  1  0.933533  0.399567  0.672327  1.0
  C  C3479  1  0.466033  0.066467  0.672327  1.0
  C  C3480  1  0.600433  0.533967  0.672327  1.0
  C  C3481  1  0.406100  0.228000  0.989060  1.0
  C  C3482  1  0.821900  0.593900  0.989060  1.0
  C  C3483  1  0.772000  0.178100  0.989060  1.0
  C  C3484  1  0.739433  0.894667  0.655727  1.0
  C  C3485  1  0.155233  0.260567  0.655727  1.0
  C  C3486  1  0.105333  0.844767  0.655727  1.0
  C  C3487  1  0.072767  0.561333  0.322393  1.0
  C  C3488  1  0.488567  0.927233  0.322393  1.0
  C  C3489  1  0.438667  0.511433  0.322393  1.0
  C  C3490  1  0.593900  0.772000  0.010940  1.0
  C  C3491  1  0.178100  0.406100  0.010940  1.0
  C  C3492  1  0.228000  0.821900  0.010940  1.0
  C  C3493  1  0.260567  0.105333  0.344273  1.0
  C  C3494  1  0.844767  0.739433  0.344273  1.0
  C  C3495  1  0.894667  0.155233  0.344273  1.0
  C  C3496  1  0.927233  0.438667  0.677607  1.0
  C  C3497  1  0.511433  0.072767  0.677607  1.0
  C  C3498  1  0.561333  0.488567  0.677607  1.0
  C  C3499  1  0.384100  0.200800  0.967930  1.0
  C  C3500  1  0.816700  0.615900  0.967930  1.0
  C  C3501  1  0.799200  0.183300  0.967930  1.0
  C  C3502  1  0.717433  0.867467  0.634597  1.0
  C  C3503  1  0.150033  0.282567  0.634597  1.0
  C  C3504  1  0.132533  0.849967  0.634597  1.0
  C  C3505  1  0.050767  0.534133  0.301263  1.0
  C  C3506  1  0.483367  0.949233  0.301263  1.0
  C  C3507  1  0.465867  0.516633  0.301263  1.0
  C  C3508  1  0.615900  0.799200  0.032070  1.0
  C  C3509  1  0.183300  0.384100  0.032070  1.0
  C  C3510  1  0.200800  0.816700  0.032070  1.0
  C  C3511  1  0.282567  0.132533  0.365403  1.0
  C  C3512  1  0.849967  0.717433  0.365403  1.0
  C  C3513  1  0.867467  0.150033  0.365403  1.0
  C  C3514  1  0.949233  0.465867  0.698737  1.0
  C  C3515  1  0.516633  0.050767  0.698737  1.0
  C  C3516  1  0.534133  0.483367  0.698737  1.0
  C  C3517  1  0.355500  0.213400  0.953520  1.0
  C  C3518  1  0.857900  0.644500  0.953520  1.0
  C  C3519  1  0.786600  0.142100  0.953520  1.0
  C  C3520  1  0.688833  0.880067  0.620187  1.0
  C  C3521  1  0.191233  0.311167  0.620187  1.0
  C  C3522  1  0.119933  0.808767  0.620187  1.0
  C  C3523  1  0.022167  0.546733  0.286853  1.0
  C  C3524  1  0.524567  0.977833  0.286853  1.0
  C  C3525  1  0.453267  0.475433  0.286853  1.0
  C  C3526  1  0.644500  0.786600  0.046480  1.0
  C  C3527  1  0.142100  0.355500  0.046480  1.0
  C  C3528  1  0.213400  0.857900  0.046480  1.0
  C  C3529  1  0.311167  0.119933  0.379813  1.0
  C  C3530  1  0.808767  0.688833  0.379813  1.0
  C  C3531  1  0.880067  0.191233  0.379813  1.0
  C  C3532  1  0.977833  0.453267  0.713147  1.0
  C  C3533  1  0.475433  0.022167  0.713147  1.0
  C  C3534  1  0.546733  0.524567  0.713147  1.0
  C  C3535  1  0.304000  0.139100  0.898150  1.0
  C  C3536  1  0.835100  0.696000  0.898150  1.0
  C  C3537  1  0.860900  0.164900  0.898150  1.0
  C  C3538  1  0.637333  0.805767  0.564817  1.0
  C  C3539  1  0.168433  0.362667  0.564817  1.0
  C  C3540  1  0.194233  0.831567  0.564817  1.0
  C  C3541  1  0.970667  0.472433  0.231483  1.0
  C  C3542  1  0.501767  0.029333  0.231483  1.0
  C  C3543  1  0.527567  0.498233  0.231483  1.0
  C  C3544  1  0.696000  0.860900  0.101850  1.0
  C  C3545  1  0.164900  0.304000  0.101850  1.0
  C  C3546  1  0.139100  0.835100  0.101850  1.0
  C  C3547  1  0.362667  0.194233  0.435183  1.0
  C  C3548  1  0.831567  0.637333  0.435183  1.0
  C  C3549  1  0.805767  0.168433  0.435183  1.0
  C  C3550  1  0.029333  0.527567  0.768517  1.0
  C  C3551  1  0.498233  0.970667  0.768517  1.0
  C  C3552  1  0.472433  0.501767  0.768517  1.0
  C  C3553  1  0.333100  0.148400  0.918610  1.0
  C  C3554  1  0.815300  0.666900  0.918610  1.0
  C  C3555  1  0.851600  0.184700  0.918610  1.0
  C  C3556  1  0.666433  0.815067  0.585277  1.0
  C  C3557  1  0.148633  0.333567  0.585277  1.0
  C  C3558  1  0.184933  0.851367  0.585277  1.0
  C  C3559  1  0.999767  0.481733  0.251943  1.0
  C  C3560  1  0.481967  0.000233  0.251943  1.0
  C  C3561  1  0.518267  0.518033  0.251943  1.0
  C  C3562  1  0.666900  0.851600  0.081390  1.0
  C  C3563  1  0.184700  0.333100  0.081390  1.0
  C  C3564  1  0.148400  0.815300  0.081390  1.0
  C  C3565  1  0.333567  0.184933  0.414723  1.0
  C  C3566  1  0.851367  0.666433  0.414723  1.0
  C  C3567  1  0.815067  0.148633  0.414723  1.0
  C  C3568  1  0.000233  0.518267  0.748057  1.0
  C  C3569  1  0.518033  0.999767  0.748057  1.0
  C  C3570  1  0.481733  0.481967  0.748057  1.0
  C  C3571  1  0.331520  0.187130  0.930760  1.0
  C  C3572  1  0.855610  0.668480  0.930760  1.0
  C  C3573  1  0.812870  0.144390  0.930760  1.0
  C  C3574  1  0.664853  0.853797  0.597427  1.0
  C  C3575  1  0.188943  0.335147  0.597427  1.0
  C  C3576  1  0.146203  0.811057  0.597427  1.0
  C  C3577  1  0.998187  0.520463  0.264093  1.0
  C  C3578  1  0.522277  0.001813  0.264093  1.0
  C  C3579  1  0.479537  0.477723  0.264093  1.0
  C  C3580  1  0.668480  0.812870  0.069240  1.0
  C  C3581  1  0.144390  0.331520  0.069240  1.0
  C  C3582  1  0.187130  0.855610  0.069240  1.0
  C  C3583  1  0.335147  0.146203  0.402573  1.0
  C  C3584  1  0.811057  0.664853  0.402573  1.0
  C  C3585  1  0.853797  0.188943  0.402573  1.0
  C  C3586  1  0.001813  0.479537  0.735907  1.0
  C  C3587  1  0.477723  0.998187  0.735907  1.0
  C  C3588  1  0.520463  0.522277  0.735907  1.0
  C  C3589  1  0.252460  0.173870  0.881340  1.0
  C  C3590  1  0.921410  0.747540  0.881340  1.0
  C  C3591  1  0.826130  0.078590  0.881340  1.0
  C  C3592  1  0.585793  0.840537  0.548007  1.0
  C  C3593  1  0.254743  0.414207  0.548007  1.0
  C  C3594  1  0.159463  0.745257  0.548007  1.0
  C  C3595  1  0.919127  0.507203  0.214673  1.0
  C  C3596  1  0.588077  0.080873  0.214673  1.0
  C  C3597  1  0.492797  0.411923  0.214673  1.0
  C  C3598  1  0.747540  0.826130  0.118660  1.0
  C  C3599  1  0.078590  0.252460  0.118660  1.0
  C  C3600  1  0.173870  0.921410  0.118660  1.0
  C  C3601  1  0.414207  0.159463  0.451993  1.0
  C  C3602  1  0.745257  0.585793  0.451993  1.0
  C  C3603  1  0.840537  0.254743  0.451993  1.0
  C  C3604  1  0.080873  0.492797  0.785327  1.0
  C  C3605  1  0.411923  0.919127  0.785327  1.0
  C  C3606  1  0.507203  0.588077  0.785327  1.0
  C  C3607  1  0.919000  0.954800  0.779560  1.0
  C  C3608  1  0.035800  0.081000  0.779560  1.0
  C  C3609  1  0.045200  0.964200  0.779560  1.0
  C  C3610  1  0.252333  0.621467  0.446227  1.0
  C  C3611  1  0.369133  0.747667  0.446227  1.0
  C  C3612  1  0.378533  0.630867  0.446227  1.0
  C  C3613  1  0.585667  0.288133  0.112893  1.0
  C  C3614  1  0.702467  0.414333  0.112893  1.0
  C  C3615  1  0.711867  0.297533  0.112893  1.0
  C  C3616  1  0.081000  0.045200  0.220440  1.0
  C  C3617  1  0.964200  0.919000  0.220440  1.0
  C  C3618  1  0.954800  0.035800  0.220440  1.0
  C  C3619  1  0.747667  0.378533  0.553773  1.0
  C  C3620  1  0.630867  0.252333  0.553773  1.0
  C  C3621  1  0.621467  0.369133  0.553773  1.0
  C  C3622  1  0.414333  0.711867  0.887107  1.0
  C  C3623  1  0.297533  0.585667  0.887107  1.0
  C  C3624  1  0.288133  0.702467  0.887107  1.0
  C  C3625  1  0.880800  0.950800  0.764850  1.0
  C  C3626  1  0.070000  0.119200  0.764850  1.0
  C  C3627  1  0.049200  0.930000  0.764850  1.0
  C  C3628  1  0.214133  0.617467  0.431517  1.0
  C  C3629  1  0.403333  0.785867  0.431517  1.0
  C  C3630  1  0.382533  0.596667  0.431517  1.0
  C  C3631  1  0.547467  0.284133  0.098183  1.0
  C  C3632  1  0.736667  0.452533  0.098183  1.0
  C  C3633  1  0.715867  0.263333  0.098183  1.0
  C  C3634  1  0.119200  0.049200  0.235150  1.0
  C  C3635  1  0.930000  0.880800  0.235150  1.0
  C  C3636  1  0.950800  0.070000  0.235150  1.0
  C  C3637  1  0.785867  0.382533  0.568483  1.0
  C  C3638  1  0.596667  0.214133  0.568483  1.0
  C  C3639  1  0.617467  0.403333  0.568483  1.0
  C  C3640  1  0.452533  0.715867  0.901817  1.0
  C  C3641  1  0.263333  0.547467  0.901817  1.0
  C  C3642  1  0.284133  0.736667  0.901817  1.0
  C  C3643  1  0.862300  0.981500  0.769190  1.0
  C  C3644  1  0.119200  0.137700  0.769190  1.0
  C  C3645  1  0.018500  0.880800  0.769190  1.0
  C  C3646  1  0.195633  0.648167  0.435857  1.0
  C  C3647  1  0.452533  0.804367  0.435857  1.0
  C  C3648  1  0.351833  0.547467  0.435857  1.0
  C  C3649  1  0.528967  0.314833  0.102523  1.0
  C  C3650  1  0.785867  0.471033  0.102523  1.0
  C  C3651  1  0.685167  0.214133  0.102523  1.0
  C  C3652  1  0.137700  0.018500  0.230810  1.0
  C  C3653  1  0.880800  0.862300  0.230810  1.0
  C  C3654  1  0.981500  0.119200  0.230810  1.0
  C  C3655  1  0.804367  0.351833  0.564143  1.0
  C  C3656  1  0.547467  0.195633  0.564143  1.0
  C  C3657  1  0.648167  0.452533  0.564143  1.0
  C  C3658  1  0.471033  0.685167  0.897477  1.0
  C  C3659  1  0.214133  0.528967  0.897477  1.0
  C  C3660  1  0.314833  0.785867  0.897477  1.0
  C  C3661  1  0.880700  0.014000  0.788270  1.0
  C  C3662  1  0.133300  0.119300  0.788270  1.0
  C  C3663  1  0.986000  0.866700  0.788270  1.0
  C  C3664  1  0.214033  0.680667  0.454937  1.0
  C  C3665  1  0.466633  0.785967  0.454937  1.0
  C  C3666  1  0.319333  0.533367  0.454937  1.0
  C  C3667  1  0.547367  0.347333  0.121603  1.0
  C  C3668  1  0.799967  0.452633  0.121603  1.0
  C  C3669  1  0.652667  0.200033  0.121603  1.0
  C  C3670  1  0.119300  0.986000  0.211730  1.0
  C  C3671  1  0.866700  0.880700  0.211730  1.0
  C  C3672  1  0.014000  0.133300  0.211730  1.0
  C  C3673  1  0.785967  0.319333  0.545063  1.0
  C  C3674  1  0.533367  0.214033  0.545063  1.0
  C  C3675  1  0.680667  0.466633  0.545063  1.0
  C  C3676  1  0.452633  0.652667  0.878397  1.0
  C  C3677  1  0.200033  0.547367  0.878397  1.0
  C  C3678  1  0.347333  0.799967  0.878397  1.0
  C  C3679  1  0.917930  0.015400  0.802730  1.0
  C  C3680  1  0.097470  0.082070  0.802730  1.0
  C  C3681  1  0.984600  0.902530  0.802730  1.0
  C  C3682  1  0.251263  0.682067  0.469397  1.0
  C  C3683  1  0.430803  0.748737  0.469397  1.0
  C  C3684  1  0.317933  0.569197  0.469397  1.0
  C  C3685  1  0.584597  0.348733  0.136063  1.0
  C  C3686  1  0.764137  0.415403  0.136063  1.0
  C  C3687  1  0.651267  0.235863  0.136063  1.0
  C  C3688  1  0.082070  0.984600  0.197270  1.0
  C  C3689  1  0.902530  0.917930  0.197270  1.0
  C  C3690  1  0.015400  0.097470  0.197270  1.0
  C  C3691  1  0.748737  0.317933  0.530603  1.0
  C  C3692  1  0.569197  0.251263  0.530603  1.0
  C  C3693  1  0.682067  0.430803  0.530603  1.0
  C  C3694  1  0.415403  0.651267  0.863937  1.0
  C  C3695  1  0.235863  0.584597  0.863937  1.0
  C  C3696  1  0.348733  0.764137  0.863937  1.0
  C  C3697  1  0.960600  0.103700  0.852940  1.0
  C  C3698  1  0.143100  0.039400  0.852940  1.0
  C  C3699  1  0.896300  0.856900  0.852940  1.0
  C  C3700  1  0.293933  0.770367  0.519607  1.0
  C  C3701  1  0.476433  0.706067  0.519607  1.0
  C  C3702  1  0.229633  0.523567  0.519607  1.0
  C  C3703  1  0.627267  0.437033  0.186273  1.0
  C  C3704  1  0.809767  0.372733  0.186273  1.0
  C  C3705  1  0.562967  0.190233  0.186273  1.0
  C  C3706  1  0.039400  0.896300  0.147060  1.0
  C  C3707  1  0.856900  0.960600  0.147060  1.0
  C  C3708  1  0.103700  0.143100  0.147060  1.0
  C  C3709  1  0.706067  0.229633  0.480393  1.0
  C  C3710  1  0.523567  0.293933  0.480393  1.0
  C  C3711  1  0.770367  0.476433  0.480393  1.0
  C  C3712  1  0.372733  0.562967  0.813727  1.0
  C  C3713  1  0.190233  0.627267  0.813727  1.0
  C  C3714  1  0.437033  0.809767  0.813727  1.0
  C  C3715  1  0.931470  0.085770  0.832610  1.0
  C  C3716  1  0.154300  0.068530  0.832610  1.0
  C  C3717  1  0.914230  0.845700  0.832610  1.0
  C  C3718  1  0.264803  0.752437  0.499277  1.0
  C  C3719  1  0.487633  0.735197  0.499277  1.0
  C  C3720  1  0.247563  0.512367  0.499277  1.0
  C  C3721  1  0.598137  0.419103  0.165943  1.0
  C  C3722  1  0.820967  0.401863  0.165943  1.0
  C  C3723  1  0.580897  0.179033  0.165943  1.0
  C  C3724  1  0.068530  0.914230  0.167390  1.0
  C  C3725  1  0.845700  0.931470  0.167390  1.0
  C  C3726  1  0.085770  0.154300  0.167390  1.0
  C  C3727  1  0.735197  0.247563  0.500723  1.0
  C  C3728  1  0.512367  0.264803  0.500723  1.0
  C  C3729  1  0.752437  0.487633  0.500723  1.0
  C  C3730  1  0.401863  0.580897  0.834057  1.0
  C  C3731  1  0.179033  0.598137  0.834057  1.0
  C  C3732  1  0.419103  0.820967  0.834057  1.0
  C  C3733  1  0.939660  0.049260  0.823940  1.0
  C  C3734  1  0.109600  0.060340  0.823940  1.0
  C  C3735  1  0.950740  0.890400  0.823940  1.0
  C  C3736  1  0.272993  0.715927  0.490607  1.0
  C  C3737  1  0.442933  0.727007  0.490607  1.0
  C  C3738  1  0.284073  0.557067  0.490607  1.0
  C  C3739  1  0.606327  0.382593  0.157273  1.0
  C  C3740  1  0.776267  0.393673  0.157273  1.0
  C  C3741  1  0.617407  0.223733  0.157273  1.0
  C  C3742  1  0.060340  0.950740  0.176060  1.0
  C  C3743  1  0.890400  0.939660  0.176060  1.0
  C  C3744  1  0.049260  0.109600  0.176060  1.0
  C  C3745  1  0.727007  0.284073  0.509393  1.0
  C  C3746  1  0.557067  0.272993  0.509393  1.0
  C  C3747  1  0.715927  0.442933  0.509393  1.0
  C  C3748  1  0.393673  0.617407  0.842727  1.0
  C  C3749  1  0.223733  0.606327  0.842727  1.0
  C  C3750  1  0.382593  0.776267  0.842727  1.0
  C  C3751  1  0.020900  0.084900  0.874860  1.0
  C  C3752  1  0.064000  0.979100  0.874860  1.0
  C  C3753  1  0.915100  0.936000  0.874860  1.0
  C  C3754  1  0.354233  0.751567  0.541527  1.0
  C  C3755  1  0.397333  0.645767  0.541527  1.0
  C  C3756  1  0.248433  0.602667  0.541527  1.0
  C  C3757  1  0.687567  0.418233  0.208193  1.0
  C  C3758  1  0.730667  0.312433  0.208193  1.0
  C  C3759  1  0.581767  0.269333  0.208193  1.0
  C  C3760  1  0.979100  0.915100  0.125140  1.0
  C  C3761  1  0.936000  0.020900  0.125140  1.0
  C  C3762  1  0.084900  0.064000  0.125140  1.0
  C  C3763  1  0.645767  0.248433  0.458473  1.0
  C  C3764  1  0.602667  0.354233  0.458473  1.0
  C  C3765  1  0.751567  0.397333  0.458473  1.0
  C  C3766  1  0.312433  0.581767  0.791807  1.0
  C  C3767  1  0.269333  0.687567  0.791807  1.0
  C  C3768  1  0.418233  0.730667  0.791807  1.0
  C  C3769  1  0.073900  0.119870  0.867890  1.0
  C  C3770  1  0.045970  0.926100  0.867890  1.0
  C  C3771  1  0.880130  0.954030  0.867890  1.0
  C  C3772  1  0.407233  0.786537  0.534557  1.0
  C  C3773  1  0.379303  0.592767  0.534557  1.0
  C  C3774  1  0.213463  0.620697  0.534557  1.0
  C  C3775  1  0.740567  0.453203  0.201223  1.0
  C  C3776  1  0.712637  0.259433  0.201223  1.0
  C  C3777  1  0.546797  0.287363  0.201223  1.0
  C  C3778  1  0.926100  0.880130  0.132110  1.0
  C  C3779  1  0.954030  0.073900  0.132110  1.0
  C  C3780  1  0.119870  0.045970  0.132110  1.0
  C  C3781  1  0.592767  0.213463  0.465443  1.0
  C  C3782  1  0.620697  0.407233  0.465443  1.0
  C  C3783  1  0.786537  0.379303  0.465443  1.0
  C  C3784  1  0.259433  0.546797  0.798777  1.0
  C  C3785  1  0.287363  0.740567  0.798777  1.0
  C  C3786  1  0.453203  0.712637  0.798777  1.0
  C  C3787  1  0.087100  0.149460  0.847650  1.0
  C  C3788  1  0.062360  0.912900  0.847650  1.0
  C  C3789  1  0.850540  0.937640  0.847650  1.0
  C  C3790  1  0.420433  0.816127  0.514317  1.0
  C  C3791  1  0.395693  0.579567  0.514317  1.0
  C  C3792  1  0.183873  0.604307  0.514317  1.0
  C  C3793  1  0.753767  0.482793  0.180983  1.0
  C  C3794  1  0.729027  0.246233  0.180983  1.0
  C  C3795  1  0.517207  0.270973  0.180983  1.0
  C  C3796  1  0.912900  0.850540  0.152350  1.0
  C  C3797  1  0.937640  0.087100  0.152350  1.0
  C  C3798  1  0.149460  0.062360  0.152350  1.0
  C  C3799  1  0.579567  0.183873  0.485683  1.0
  C  C3800  1  0.604307  0.420433  0.485683  1.0
  C  C3801  1  0.816127  0.395693  0.485683  1.0
  C  C3802  1  0.246233  0.517207  0.819017  1.0
  C  C3803  1  0.270973  0.753767  0.819017  1.0
  C  C3804  1  0.482793  0.729027  0.819017  1.0
  C  C3805  1  0.137310  0.180010  0.841150  1.0
  C  C3806  1  0.042700  0.862690  0.841150  1.0
  C  C3807  1  0.819990  0.957300  0.841150  1.0
  C  C3808  1  0.470643  0.846677  0.507817  1.0
  C  C3809  1  0.376033  0.529357  0.507817  1.0
  C  C3810  1  0.153323  0.623967  0.507817  1.0
  C  C3811  1  0.803977  0.513343  0.174483  1.0
  C  C3812  1  0.709367  0.196023  0.174483  1.0
  C  C3813  1  0.486657  0.290633  0.174483  1.0
  C  C3814  1  0.862690  0.819990  0.158850  1.0
  C  C3815  1  0.957300  0.137310  0.158850  1.0
  C  C3816  1  0.180010  0.042700  0.158850  1.0
  C  C3817  1  0.529357  0.153323  0.492183  1.0
  C  C3818  1  0.623967  0.470643  0.492183  1.0
  C  C3819  1  0.846677  0.376033  0.492183  1.0
  C  C3820  1  0.196023  0.486657  0.825517  1.0
  C  C3821  1  0.290633  0.803977  0.825517  1.0
  C  C3822  1  0.513343  0.709367  0.825517  1.0
  C  C3823  1  0.173500  0.178450  0.854500  1.0
  C  C3824  1  0.004950  0.826500  0.854500  1.0
  C  C3825  1  0.821550  0.995050  0.854500  1.0
  C  C3826  1  0.506833  0.845117  0.521167  1.0
  C  C3827  1  0.338283  0.493167  0.521167  1.0
  C  C3828  1  0.154883  0.661717  0.521167  1.0
  C  C3829  1  0.840167  0.511783  0.187833  1.0
  C  C3830  1  0.671617  0.159833  0.187833  1.0
  C  C3831  1  0.488217  0.328383  0.187833  1.0
  C  C3832  1  0.826500  0.821550  0.145500  1.0
  C  C3833  1  0.995050  0.173500  0.145500  1.0
  C  C3834  1  0.178450  0.004950  0.145500  1.0
  C  C3835  1  0.493167  0.154883  0.478833  1.0
  C  C3836  1  0.661717  0.506833  0.478833  1.0
  C  C3837  1  0.845117  0.338283  0.478833  1.0
  C  C3838  1  0.159833  0.488217  0.812167  1.0
  C  C3839  1  0.328383  0.840167  0.812167  1.0
  C  C3840  1  0.511783  0.671617  0.812167  1.0
  C  C3841  1  0.162310  0.148570  0.875600  1.0
  C  C3842  1  0.986260  0.837690  0.875600  1.0
  C  C3843  1  0.851430  0.013740  0.875600  1.0
  C  C3844  1  0.495643  0.815237  0.542267  1.0
  C  C3845  1  0.319593  0.504357  0.542267  1.0
  C  C3846  1  0.184763  0.680407  0.542267  1.0
  C  C3847  1  0.828977  0.481903  0.208933  1.0
  C  C3848  1  0.652927  0.171023  0.208933  1.0
  C  C3849  1  0.518097  0.347073  0.208933  1.0
  C  C3850  1  0.837690  0.851430  0.124400  1.0
  C  C3851  1  0.013740  0.162310  0.124400  1.0
  C  C3852  1  0.148570  0.986260  0.124400  1.0
  C  C3853  1  0.504357  0.184763  0.457733  1.0
  C  C3854  1  0.680407  0.495643  0.457733  1.0
  C  C3855  1  0.815237  0.319593  0.457733  1.0
  C  C3856  1  0.171023  0.518097  0.791067  1.0
  C  C3857  1  0.347073  0.828977  0.791067  1.0
  C  C3858  1  0.481903  0.652927  0.791067  1.0
  C  C3859  1  0.111600  0.119500  0.882990  1.0
  C  C3860  1  0.007900  0.888400  0.882990  1.0
  C  C3861  1  0.880500  0.992100  0.882990  1.0
  C  C3862  1  0.444933  0.786167  0.549657  1.0
  C  C3863  1  0.341233  0.555067  0.549657  1.0
  C  C3864  1  0.213833  0.658767  0.549657  1.0
  C  C3865  1  0.778267  0.452833  0.216323  1.0
  C  C3866  1  0.674567  0.221733  0.216323  1.0
  C  C3867  1  0.547167  0.325433  0.216323  1.0
  C  C3868  1  0.888400  0.880500  0.117010  1.0
  C  C3869  1  0.992100  0.111600  0.117010  1.0
  C  C3870  1  0.119500  0.007900  0.117010  1.0
  C  C3871  1  0.555067  0.213833  0.450343  1.0
  C  C3872  1  0.658767  0.444933  0.450343  1.0
  C  C3873  1  0.786167  0.341233  0.450343  1.0
  C  C3874  1  0.221733  0.547167  0.783677  1.0
  C  C3875  1  0.325433  0.778267  0.783677  1.0
  C  C3876  1  0.452833  0.674567  0.783677  1.0
  C  C3877  1  0.099400  0.090200  0.904580  1.0
  C  C3878  1  0.990800  0.900600  0.904580  1.0
  C  C3879  1  0.909800  0.009200  0.904580  1.0
  C  C3880  1  0.432733  0.756867  0.571247  1.0
  C  C3881  1  0.324133  0.567267  0.571247  1.0
  C  C3882  1  0.243133  0.675867  0.571247  1.0
  C  C3883  1  0.766067  0.423533  0.237913  1.0
  C  C3884  1  0.657467  0.233933  0.237913  1.0
  C  C3885  1  0.576467  0.342533  0.237913  1.0
  C  C3886  1  0.900600  0.909800  0.095420  1.0
  C  C3887  1  0.009200  0.099400  0.095420  1.0
  C  C3888  1  0.090200  0.990800  0.095420  1.0
  C  C3889  1  0.567267  0.243133  0.428753  1.0
  C  C3890  1  0.675867  0.432733  0.428753  1.0
  C  C3891  1  0.756867  0.324133  0.428753  1.0
  C  C3892  1  0.233933  0.576467  0.762087  1.0
  C  C3893  1  0.342533  0.766067  0.762087  1.0
  C  C3894  1  0.423533  0.657467  0.762087  1.0
  C  C3895  1  0.136000  0.087500  0.917490  1.0
  C  C3896  1  0.951500  0.864000  0.917490  1.0
  C  C3897  1  0.912500  0.048500  0.917490  1.0
  C  C3898  1  0.469333  0.754167  0.584157  1.0
  C  C3899  1  0.284833  0.530667  0.584157  1.0
  C  C3900  1  0.245833  0.715167  0.584157  1.0
  C  C3901  1  0.802667  0.420833  0.250823  1.0
  C  C3902  1  0.618167  0.197333  0.250823  1.0
  C  C3903  1  0.579167  0.381833  0.250823  1.0
  C  C3904  1  0.864000  0.912500  0.082510  1.0
  C  C3905  1  0.048500  0.136000  0.082510  1.0
  C  C3906  1  0.087500  0.951500  0.082510  1.0
  C  C3907  1  0.530667  0.245833  0.415843  1.0
  C  C3908  1  0.715167  0.469333  0.415843  1.0
  C  C3909  1  0.754167  0.284833  0.415843  1.0
  C  C3910  1  0.197333  0.579167  0.749177  1.0
  C  C3911  1  0.381833  0.802667  0.749177  1.0
  C  C3912  1  0.420833  0.618167  0.749177  1.0
  C  C3913  1  0.186100  0.114900  0.909830  1.0
  C  C3914  1  0.928800  0.813900  0.909830  1.0
  C  C3915  1  0.885100  0.071200  0.909830  1.0
  C  C3916  1  0.519433  0.781567  0.576497  1.0
  C  C3917  1  0.262133  0.480567  0.576497  1.0
  C  C3918  1  0.218433  0.737867  0.576497  1.0
  C  C3919  1  0.852767  0.448233  0.243163  1.0
  C  C3920  1  0.595467  0.147233  0.243163  1.0
  C  C3921  1  0.551767  0.404533  0.243163  1.0
  C  C3922  1  0.813900  0.885100  0.090170  1.0
  C  C3923  1  0.071200  0.186100  0.090170  1.0
  C  C3924  1  0.114900  0.928800  0.090170  1.0
  C  C3925  1  0.480567  0.218433  0.423503  1.0
  C  C3926  1  0.737867  0.519433  0.423503  1.0
  C  C3927  1  0.781567  0.262133  0.423503  1.0
  C  C3928  1  0.147233  0.551767  0.756837  1.0
  C  C3929  1  0.404533  0.852767  0.756837  1.0
  C  C3930  1  0.448233  0.595467  0.756837  1.0
  C  C3931  1  0.199200  0.145200  0.889630  1.0
  C  C3932  1  0.946000  0.800800  0.889630  1.0
  C  C3933  1  0.854800  0.054000  0.889630  1.0
  C  C3934  1  0.532533  0.811867  0.556297  1.0
  C  C3935  1  0.279333  0.467467  0.556297  1.0
  C  C3936  1  0.188133  0.720667  0.556297  1.0
  C  C3937  1  0.865867  0.478533  0.222963  1.0
  C  C3938  1  0.612667  0.134133  0.222963  1.0
  C  C3939  1  0.521467  0.387333  0.222963  1.0
  C  C3940  1  0.800800  0.854800  0.110370  1.0
  C  C3941  1  0.054000  0.199200  0.110370  1.0
  C  C3942  1  0.145200  0.946000  0.110370  1.0
  C  C3943  1  0.467467  0.188133  0.443703  1.0
  C  C3944  1  0.720667  0.532533  0.443703  1.0
  C  C3945  1  0.811867  0.279333  0.443703  1.0
  C  C3946  1  0.134133  0.521467  0.777037  1.0
  C  C3947  1  0.387333  0.865867  0.777037  1.0
  C  C3948  1  0.478533  0.612667  0.777037  1.0
  C  C3949  1  0.259200  0.291810  0.889210  1.0
  C  C3950  1  0.032610  0.740800  0.889210  1.0
  C  C3951  1  0.708190  0.967390  0.889210  1.0
  C  C3952  1  0.592533  0.958477  0.555877  1.0
  C  C3953  1  0.365943  0.407467  0.555877  1.0
  C  C3954  1  0.041523  0.634057  0.555877  1.0
  C  C3955  1  0.925867  0.625143  0.222543  1.0
  C  C3956  1  0.699277  0.074133  0.222543  1.0
  C  C3957  1  0.374857  0.300723  0.222543  1.0
  C  C3958  1  0.740800  0.708190  0.110790  1.0
  C  C3959  1  0.967390  0.259200  0.110790  1.0
  C  C3960  1  0.291810  0.032610  0.110790  1.0
  C  C3961  1  0.407467  0.041523  0.444123  1.0
  C  C3962  1  0.634057  0.592533  0.444123  1.0
  C  C3963  1  0.958477  0.365943  0.444123  1.0
  C  C3964  1  0.074133  0.374857  0.777457  1.0
  C  C3965  1  0.300723  0.925867  0.777457  1.0
  C  C3966  1  0.625143  0.699277  0.777457  1.0
  C  C3967  1  0.222800  0.294200  0.875510  1.0
  C  C3968  1  0.071400  0.777200  0.875510  1.0
  C  C3969  1  0.705800  0.928600  0.875510  1.0
  C  C3970  1  0.556133  0.960867  0.542177  1.0
  C  C3971  1  0.404733  0.443867  0.542177  1.0
  C  C3972  1  0.039133  0.595267  0.542177  1.0
  C  C3973  1  0.889467  0.627533  0.208843  1.0
  C  C3974  1  0.738067  0.110533  0.208843  1.0
  C  C3975  1  0.372467  0.261933  0.208843  1.0
  C  C3976  1  0.777200  0.705800  0.124490  1.0
  C  C3977  1  0.928600  0.222800  0.124490  1.0
  C  C3978  1  0.294200  0.071400  0.124490  1.0
  C  C3979  1  0.443867  0.039133  0.457823  1.0
  C  C3980  1  0.595267  0.556133  0.457823  1.0
  C  C3981  1  0.960867  0.404733  0.457823  1.0
  C  C3982  1  0.110533  0.372467  0.791157  1.0
  C  C3983  1  0.261933  0.889467  0.791157  1.0
  C  C3984  1  0.627533  0.738067  0.791157  1.0
  C  C3985  1  0.175600  0.271800  0.884330  1.0
  C  C3986  1  0.096200  0.824400  0.884330  1.0
  C  C3987  1  0.728200  0.903800  0.884330  1.0
  C  C3988  1  0.508933  0.938467  0.550997  1.0
  C  C3989  1  0.429533  0.491067  0.550997  1.0
  C  C3990  1  0.061533  0.570467  0.550997  1.0
  C  C3991  1  0.842267  0.605133  0.217663  1.0
  C  C3992  1  0.762867  0.157733  0.217663  1.0
  C  C3993  1  0.394867  0.237133  0.217663  1.0
  C  C3994  1  0.824400  0.728200  0.115670  1.0
  C  C3995  1  0.903800  0.175600  0.115670  1.0
  C  C3996  1  0.271800  0.096200  0.115670  1.0
  C  C3997  1  0.491067  0.061533  0.449003  1.0
  C  C3998  1  0.570467  0.508933  0.449003  1.0
  C  C3999  1  0.938467  0.429533  0.449003  1.0
  C  C4000  1  0.157733  0.394867  0.782337  1.0
  C  C4001  1  0.237133  0.842267  0.782337  1.0
  C  C4002  1  0.605133  0.762867  0.782337  1.0
  C  C4003  1  0.165200  0.247800  0.906880  1.0
  C  C4004  1  0.082600  0.834800  0.906880  1.0
  C  C4005  1  0.752200  0.917400  0.906880  1.0
  C  C4006  1  0.498533  0.914467  0.573547  1.0
  C  C4007  1  0.415933  0.501467  0.573547  1.0
  C  C4008  1  0.085533  0.584067  0.573547  1.0
  C  C4009  1  0.831867  0.581133  0.240213  1.0
  C  C4010  1  0.749267  0.168133  0.240213  1.0
  C  C4011  1  0.418867  0.250733  0.240213  1.0
  C  C4012  1  0.834800  0.752200  0.093120  1.0
  C  C4013  1  0.917400  0.165200  0.093120  1.0
  C  C4014  1  0.247800  0.082600  0.093120  1.0
  C  C4015  1  0.501467  0.085533  0.426453  1.0
  C  C4016  1  0.584067  0.498533  0.426453  1.0
  C  C4017  1  0.914467  0.415933  0.426453  1.0
  C  C4018  1  0.168133  0.418867  0.759787  1.0
  C  C4019  1  0.250733  0.831867  0.759787  1.0
  C  C4020  1  0.581133  0.749267  0.759787  1.0
  C  C4021  1  0.203790  0.246590  0.919600  1.0
  C  C4022  1  0.042800  0.796210  0.919600  1.0
  C  C4023  1  0.753410  0.957200  0.919600  1.0
  C  C4024  1  0.537123  0.913257  0.586267  1.0
  C  C4025  1  0.376133  0.462877  0.586267  1.0
  C  C4026  1  0.086743  0.623867  0.586267  1.0
  C  C4027  1  0.870457  0.579923  0.252933  1.0
  C  C4028  1  0.709467  0.129543  0.252933  1.0
  C  C4029  1  0.420077  0.290533  0.252933  1.0
  C  C4030  1  0.796210  0.753410  0.080400  1.0
  C  C4031  1  0.957200  0.203790  0.080400  1.0
  C  C4032  1  0.246590  0.042800  0.080400  1.0
  C  C4033  1  0.462877  0.086743  0.413733  1.0
  C  C4034  1  0.623867  0.537123  0.413733  1.0
  C  C4035  1  0.913257  0.376133  0.413733  1.0
  C  C4036  1  0.129543  0.420077  0.747067  1.0
  C  C4037  1  0.290533  0.870457  0.747067  1.0
  C  C4038  1  0.579923  0.709467  0.747067  1.0
  C  C4039  1  0.164600  0.181600  0.977890  1.0
  C  C4040  1  0.017000  0.835400  0.977890  1.0
  C  C4041  1  0.818400  0.983000  0.977890  1.0
  C  C4042  1  0.497933  0.848267  0.644557  1.0
  C  C4043  1  0.350333  0.502067  0.644557  1.0
  C  C4044  1  0.151733  0.649667  0.644557  1.0
  C  C4045  1  0.831267  0.514933  0.311223  1.0
  C  C4046  1  0.683667  0.168733  0.311223  1.0
  C  C4047  1  0.485067  0.316333  0.311223  1.0
  C  C4048  1  0.835400  0.818400  0.022110  1.0
  C  C4049  1  0.983000  0.164600  0.022110  1.0
  C  C4050  1  0.181600  0.017000  0.022110  1.0
  C  C4051  1  0.502067  0.151733  0.355443  1.0
  C  C4052  1  0.649667  0.497933  0.355443  1.0
  C  C4053  1  0.848267  0.350333  0.355443  1.0
  C  C4054  1  0.168733  0.485067  0.688777  1.0
  C  C4055  1  0.316333  0.831267  0.688777  1.0
  C  C4056  1  0.514933  0.683667  0.688777  1.0
  C  C4057  1  0.151300  0.193400  0.956150  1.0
  C  C4058  1  0.042100  0.848700  0.956150  1.0
  C  C4059  1  0.806600  0.957900  0.956150  1.0
  C  C4060  1  0.484633  0.860067  0.622817  1.0
  C  C4061  1  0.375433  0.515367  0.622817  1.0
  C  C4062  1  0.139933  0.624567  0.622817  1.0
  C  C4063  1  0.817967  0.526733  0.289483  1.0
  C  C4064  1  0.708767  0.182033  0.289483  1.0
  C  C4065  1  0.473267  0.291233  0.289483  1.0
  C  C4066  1  0.848700  0.806600  0.043850  1.0
  C  C4067  1  0.957900  0.151300  0.043850  1.0
  C  C4068  1  0.193400  0.042100  0.043850  1.0
  C  C4069  1  0.515367  0.139933  0.377183  1.0
  C  C4070  1  0.624567  0.484633  0.377183  1.0
  C  C4071  1  0.860067  0.375433  0.377183  1.0
  C  C4072  1  0.182033  0.473267  0.710517  1.0
  C  C4073  1  0.291233  0.817967  0.710517  1.0
  C  C4074  1  0.526733  0.708767  0.710517  1.0
  C  C4075  1  0.195000  0.221310  0.943280  1.0
  C  C4076  1  0.026310  0.805000  0.943280  1.0
  C  C4077  1  0.778690  0.973690  0.943280  1.0
  C  C4078  1  0.528333  0.887977  0.609947  1.0
  C  C4079  1  0.359643  0.471667  0.609947  1.0
  C  C4080  1  0.112023  0.640357  0.609947  1.0
  C  C4081  1  0.861667  0.554643  0.276613  1.0
  C  C4082  1  0.692977  0.138333  0.276613  1.0
  C  C4083  1  0.445357  0.307023  0.276613  1.0
  C  C4084  1  0.805000  0.778690  0.056720  1.0
  C  C4085  1  0.973690  0.195000  0.056720  1.0
  C  C4086  1  0.221310  0.026310  0.056720  1.0
  C  C4087  1  0.471667  0.112023  0.390053  1.0
  C  C4088  1  0.640357  0.528333  0.390053  1.0
  C  C4089  1  0.887977  0.359643  0.390053  1.0
  C  C4090  1  0.138333  0.445357  0.723387  1.0
  C  C4091  1  0.307023  0.861667  0.723387  1.0
  C  C4092  1  0.554643  0.692977  0.723387  1.0
  C  C4093  1  0.245100  0.198000  0.996740  1.0
  C  C4094  1  0.952900  0.754900  0.996740  1.0
  C  C4095  1  0.802000  0.047100  0.996740  1.0
  C  C4096  1  0.578433  0.864667  0.663407  1.0
  C  C4097  1  0.286233  0.421567  0.663407  1.0
  C  C4098  1  0.135333  0.713767  0.663407  1.0
  C  C4099  1  0.911767  0.531333  0.330073  1.0
  C  C4100  1  0.619567  0.088233  0.330073  1.0
  C  C4101  1  0.468667  0.380433  0.330073  1.0
  C  C4102  1  0.754900  0.802000  0.003260  1.0
  C  C4103  1  0.047100  0.245100  0.003260  1.0
  C  C4104  1  0.198000  0.952900  0.003260  1.0
  C  C4105  1  0.421567  0.135333  0.336593  1.0
  C  C4106  1  0.713767  0.578433  0.336593  1.0
  C  C4107  1  0.864667  0.286233  0.336593  1.0
  C  C4108  1  0.088233  0.468667  0.669927  1.0
  C  C4109  1  0.380433  0.911767  0.669927  1.0
  C  C4110  1  0.531333  0.619567  0.669927  1.0
  C  C4111  1  0.299400  0.914200  0.107670  1.0
  C  C4112  1  0.614800  0.700600  0.107670  1.0
  C  C4113  1  0.085800  0.385200  0.107670  1.0
  C  C4114  1  0.632733  0.580867  0.774337  1.0
  C  C4115  1  0.948133  0.367267  0.774337  1.0
  C  C4116  1  0.419133  0.051867  0.774337  1.0
  C  C4117  1  0.966067  0.247533  0.441003  1.0
  C  C4118  1  0.281467  0.033933  0.441003  1.0
  C  C4119  1  0.752467  0.718533  0.441003  1.0
  C  C4120  1  0.700600  0.085800  0.892330  1.0
  C  C4121  1  0.385200  0.299400  0.892330  1.0
  C  C4122  1  0.914200  0.614800  0.892330  1.0
  C  C4123  1  0.367267  0.419133  0.225663  1.0
  C  C4124  1  0.051867  0.632733  0.225663  1.0
  C  C4125  1  0.580867  0.948133  0.225663  1.0
  C  C4126  1  0.033933  0.752467  0.558997  1.0
  C  C4127  1  0.718533  0.966067  0.558997  1.0
  C  C4128  1  0.247533  0.281467  0.558997  1.0
  C  C4129  1  0.331600  0.911400  0.123590  1.0
  C  C4130  1  0.579800  0.668400  0.123590  1.0
  C  C4131  1  0.088600  0.420200  0.123590  1.0
  C  C4132  1  0.664933  0.578067  0.790257  1.0
  C  C4133  1  0.913133  0.335067  0.790257  1.0
  C  C4134  1  0.421933  0.086867  0.790257  1.0
  C  C4135  1  0.998267  0.244733  0.456923  1.0
  C  C4136  1  0.246467  0.001733  0.456923  1.0
  C  C4137  1  0.755267  0.753533  0.456923  1.0
  C  C4138  1  0.668400  0.088600  0.876410  1.0
  C  C4139  1  0.420200  0.331600  0.876410  1.0
  C  C4140  1  0.911400  0.579800  0.876410  1.0
  C  C4141  1  0.335067  0.421933  0.209743  1.0
  C  C4142  1  0.086867  0.664933  0.209743  1.0
  C  C4143  1  0.578067  0.913133  0.209743  1.0
  C  C4144  1  0.001733  0.755267  0.543077  1.0
  C  C4145  1  0.753533  0.998267  0.543077  1.0
  C  C4146  1  0.244733  0.246467  0.543077  1.0
  C  C4147  1  0.381700  0.944500  0.121200  1.0
  C  C4148  1  0.562800  0.618300  0.121200  1.0
  C  C4149  1  0.055500  0.437200  0.121200  1.0
  C  C4150  1  0.715033  0.611167  0.787867  1.0
  C  C4151  1  0.896133  0.284967  0.787867  1.0
  C  C4152  1  0.388833  0.103867  0.787867  1.0
  C  C4153  1  0.048367  0.277833  0.454533  1.0
  C  C4154  1  0.229467  0.951633  0.454533  1.0
  C  C4155  1  0.722167  0.770533  0.454533  1.0
  C  C4156  1  0.618300  0.055500  0.878800  1.0
  C  C4157  1  0.437200  0.381700  0.878800  1.0
  C  C4158  1  0.944500  0.562800  0.878800  1.0
  C  C4159  1  0.284967  0.388833  0.212133  1.0
  C  C4160  1  0.103867  0.715033  0.212133  1.0
  C  C4161  1  0.611167  0.896133  0.212133  1.0
  C  C4162  1  0.951633  0.722167  0.545467  1.0
  C  C4163  1  0.770533  0.048367  0.545467  1.0
  C  C4164  1  0.277833  0.229467  0.545467  1.0
  C  C4165  1  0.397400  0.980200  0.102590  1.0
  C  C4166  1  0.582800  0.602600  0.102590  1.0
  C  C4167  1  0.019800  0.417200  0.102590  1.0
  C  C4168  1  0.730733  0.646867  0.769257  1.0
  C  C4169  1  0.916133  0.269267  0.769257  1.0
  C  C4170  1  0.353133  0.083867  0.769257  1.0
  C  C4171  1  0.064067  0.313533  0.435923  1.0
  C  C4172  1  0.249467  0.935933  0.435923  1.0
  C  C4173  1  0.686467  0.750533  0.435923  1.0
  C  C4174  1  0.602600  0.019800  0.897410  1.0
  C  C4175  1  0.417200  0.397400  0.897410  1.0
  C  C4176  1  0.980200  0.582800  0.897410  1.0
  C  C4177  1  0.269267  0.353133  0.230743  1.0
  C  C4178  1  0.083867  0.730733  0.230743  1.0
  C  C4179  1  0.646867  0.916133  0.230743  1.0
  C  C4180  1  0.935933  0.686467  0.564077  1.0
  C  C4181  1  0.750533  0.064067  0.564077  1.0
  C  C4182  1  0.313533  0.249467  0.564077  1.0
  C  C4183  1  0.362800  0.981400  0.087430  1.0
  C  C4184  1  0.618600  0.637200  0.087430  1.0
  C  C4185  1  0.018600  0.381400  0.087430  1.0
  C  C4186  1  0.696133  0.648067  0.754097  1.0
  C  C4187  1  0.951933  0.303867  0.754097  1.0
  C  C4188  1  0.351933  0.048067  0.754097  1.0
  C  C4189  1  0.029467  0.314733  0.420763  1.0
  C  C4190  1  0.285267  0.970533  0.420763  1.0
  C  C4191  1  0.685267  0.714733  0.420763  1.0
  C  C4192  1  0.637200  0.018600  0.912570  1.0
  C  C4193  1  0.381400  0.362800  0.912570  1.0
  C  C4194  1  0.981400  0.618600  0.912570  1.0
  C  C4195  1  0.303867  0.351933  0.245903  1.0
  C  C4196  1  0.048067  0.696133  0.245903  1.0
  C  C4197  1  0.648067  0.951933  0.245903  1.0
  C  C4198  1  0.970533  0.685267  0.579237  1.0
  C  C4199  1  0.714733  0.029467  0.579237  1.0
  C  C4200  1  0.314733  0.285267  0.579237  1.0
  C  C4201  1  0.413200  0.076000  0.040140  1.0
  C  C4202  1  0.662800  0.586800  0.040140  1.0
  C  C4203  1  0.924000  0.337200  0.040140  1.0
  C  C4204  1  0.746533  0.742667  0.706807  1.0
  C  C4205  1  0.996133  0.253467  0.706807  1.0
  C  C4206  1  0.257333  0.003867  0.706807  1.0
  C  C4207  1  0.079867  0.409333  0.373473  1.0
  C  C4208  1  0.329467  0.920133  0.373473  1.0
  C  C4209  1  0.590667  0.670533  0.373473  1.0
  C  C4210  1  0.586800  0.924000  0.959860  1.0
  C  C4211  1  0.337200  0.413200  0.959860  1.0
  C  C4212  1  0.076000  0.662800  0.959860  1.0
  C  C4213  1  0.253467  0.257333  0.293193  1.0
  C  C4214  1  0.003867  0.746533  0.293193  1.0
  C  C4215  1  0.742667  0.996133  0.293193  1.0
  C  C4216  1  0.920133  0.590667  0.626527  1.0
  C  C4217  1  0.670533  0.079867  0.626527  1.0
  C  C4218  1  0.409333  0.329467  0.626527  1.0
  C  C4219  1  0.423000  0.055700  0.060300  1.0
  C  C4220  1  0.632700  0.577000  0.060300  1.0
  C  C4221  1  0.944300  0.367300  0.060300  1.0
  C  C4222  1  0.756333  0.722367  0.726967  1.0
  C  C4223  1  0.966033  0.243667  0.726967  1.0
  C  C4224  1  0.277633  0.033967  0.726967  1.0
  C  C4225  1  0.089667  0.389033  0.393633  1.0
  C  C4226  1  0.299367  0.910333  0.393633  1.0
  C  C4227  1  0.610967  0.700633  0.393633  1.0
  C  C4228  1  0.577000  0.944300  0.939700  1.0
  C  C4229  1  0.367300  0.423000  0.939700  1.0
  C  C4230  1  0.055700  0.632700  0.939700  1.0
  C  C4231  1  0.243667  0.277633  0.273033  1.0
  C  C4232  1  0.033967  0.756333  0.273033  1.0
  C  C4233  1  0.722367  0.966033  0.273033  1.0
  C  C4234  1  0.910333  0.610967  0.606367  1.0
  C  C4235  1  0.700633  0.089667  0.606367  1.0
  C  C4236  1  0.389033  0.299367  0.606367  1.0
  C  C4237  1  0.376500  0.017100  0.067610  1.0
  C  C4238  1  0.640600  0.623500  0.067610  1.0
  C  C4239  1  0.982900  0.359400  0.067610  1.0
  C  C4240  1  0.709833  0.683767  0.734277  1.0
  C  C4241  1  0.973933  0.290167  0.734277  1.0
  C  C4242  1  0.316233  0.026067  0.734277  1.0
  C  C4243  1  0.043167  0.350433  0.400943  1.0
  C  C4244  1  0.307267  0.956833  0.400943  1.0
  C  C4245  1  0.649567  0.692733  0.400943  1.0
  C  C4246  1  0.623500  0.982900  0.932390  1.0
  C  C4247  1  0.359400  0.376500  0.932390  1.0
  C  C4248  1  0.017100  0.640600  0.932390  1.0
  C  C4249  1  0.290167  0.316233  0.265723  1.0
  C  C4250  1  0.026067  0.709833  0.265723  1.0
  C  C4251  1  0.683767  0.973933  0.265723  1.0
  C  C4252  1  0.956833  0.649567  0.599057  1.0
  C  C4253  1  0.692733  0.043167  0.599057  1.0
  C  C4254  1  0.350433  0.307267  0.599057  1.0
  C  C4255  1  0.337100  0.060600  0.017400  1.0
  C  C4256  1  0.723500  0.662900  0.017400  1.0
  C  C4257  1  0.939400  0.276500  0.017400  1.0
  C  C4258  1  0.670433  0.727267  0.684067  1.0
  C  C4259  1  0.056833  0.329567  0.684067  1.0
  C  C4260  1  0.272733  0.943167  0.684067  1.0
  C  C4261  1  0.003767  0.393933  0.350733  1.0
  C  C4262  1  0.390167  0.996233  0.350733  1.0
  C  C4263  1  0.606067  0.609833  0.350733  1.0
  C  C4264  1  0.662900  0.939400  0.982600  1.0
  C  C4265  1  0.276500  0.337100  0.982600  1.0
  C  C4266  1  0.060600  0.723500  0.982600  1.0
  C  C4267  1  0.329567  0.272733  0.315933  1.0
  C  C4268  1  0.943167  0.670433  0.315933  1.0
  C  C4269  1  0.727267  0.056833  0.315933  1.0
  C  C4270  1  0.996233  0.606067  0.649267  1.0
  C  C4271  1  0.609833  0.003767  0.649267  1.0
  C  C4272  1  0.393933  0.390167  0.649267  1.0
  C  C4273  1  0.324700  0.100600  0.023170  1.0
  C  C4274  1  0.775900  0.675300  0.023170  1.0
  C  C4275  1  0.899400  0.224100  0.023170  1.0
  C  C4276  1  0.658033  0.767267  0.689837  1.0
  C  C4277  1  0.109233  0.341967  0.689837  1.0
  C  C4278  1  0.232733  0.890767  0.689837  1.0
  C  C4279  1  0.991367  0.433933  0.356503  1.0
  C  C4280  1  0.442567  0.008633  0.356503  1.0
  C  C4281  1  0.566067  0.557433  0.356503  1.0
  C  C4282  1  0.675300  0.899400  0.976830  1.0
  C  C4283  1  0.224100  0.324700  0.976830  1.0
  C  C4284  1  0.100600  0.775900  0.976830  1.0
  C  C4285  1  0.341967  0.232733  0.310163  1.0
  C  C4286  1  0.890767  0.658033  0.310163  1.0
  C  C4287  1  0.767267  0.109233  0.310163  1.0
  C  C4288  1  0.008633  0.566067  0.643497  1.0
  C  C4289  1  0.557433  0.991367  0.643497  1.0
  C  C4290  1  0.433933  0.442567  0.643497  1.0
  C  C4291  1  0.339000  0.127100  0.044420  1.0
  C  C4292  1  0.788100  0.661000  0.044420  1.0
  C  C4293  1  0.872900  0.211900  0.044420  1.0
  C  C4294  1  0.672333  0.793767  0.711087  1.0
  C  C4295  1  0.121433  0.327667  0.711087  1.0
  C  C4296  1  0.206233  0.878567  0.711087  1.0
  C  C4297  1  0.005667  0.460433  0.377753  1.0
  C  C4298  1  0.454767  0.994333  0.377753  1.0
  C  C4299  1  0.539567  0.545233  0.377753  1.0
  C  C4300  1  0.661000  0.872900  0.955580  1.0
  C  C4301  1  0.211900  0.339000  0.955580  1.0
  C  C4302  1  0.127100  0.788100  0.955580  1.0
  C  C4303  1  0.327667  0.206233  0.288913  1.0
  C  C4304  1  0.878567  0.672333  0.288913  1.0
  C  C4305  1  0.793767  0.121433  0.288913  1.0
  C  C4306  1  0.994333  0.539567  0.622247  1.0
  C  C4307  1  0.545233  0.005667  0.622247  1.0
  C  C4308  1  0.460433  0.454767  0.622247  1.0
  C  C4309  1  0.327200  0.164100  0.048850  1.0
  C  C4310  1  0.836900  0.672800  0.048850  1.0
  C  C4311  1  0.835900  0.163100  0.048850  1.0
  C  C4312  1  0.660533  0.830767  0.715517  1.0
  C  C4313  1  0.170233  0.339467  0.715517  1.0
  C  C4314  1  0.169233  0.829767  0.715517  1.0
  C  C4315  1  0.993867  0.497433  0.382183  1.0
  C  C4316  1  0.503567  0.006133  0.382183  1.0
  C  C4317  1  0.502567  0.496433  0.382183  1.0
  C  C4318  1  0.672800  0.835900  0.951150  1.0
  C  C4319  1  0.163100  0.327200  0.951150  1.0
  C  C4320  1  0.164100  0.836900  0.951150  1.0
  C  C4321  1  0.339467  0.169233  0.284483  1.0
  C  C4322  1  0.829767  0.660533  0.284483  1.0
  C  C4323  1  0.830767  0.170233  0.284483  1.0
  C  C4324  1  0.006133  0.502567  0.617817  1.0
  C  C4325  1  0.496433  0.993867  0.617817  1.0
  C  C4326  1  0.497433  0.503567  0.617817  1.0
  C  C4327  1  0.300800  0.174300  0.032380  1.0
  C  C4328  1  0.873500  0.699200  0.032380  1.0
  C  C4329  1  0.825700  0.126500  0.032380  1.0
  C  C4330  1  0.634133  0.840967  0.699047  1.0
  C  C4331  1  0.206833  0.365867  0.699047  1.0
  C  C4332  1  0.159033  0.793167  0.699047  1.0
  C  C4333  1  0.967467  0.507633  0.365713  1.0
  C  C4334  1  0.540167  0.032533  0.365713  1.0
  C  C4335  1  0.492367  0.459833  0.365713  1.0
  C  C4336  1  0.699200  0.825700  0.967620  1.0
  C  C4337  1  0.126500  0.300800  0.967620  1.0
  C  C4338  1  0.174300  0.873500  0.967620  1.0
  C  C4339  1  0.365867  0.159033  0.300953  1.0
  C  C4340  1  0.793167  0.634133  0.300953  1.0
  C  C4341  1  0.840967  0.206833  0.300953  1.0
  C  C4342  1  0.032533  0.492367  0.634287  1.0
  C  C4343  1  0.459833  0.967467  0.634287  1.0
  C  C4344  1  0.507633  0.540167  0.634287  1.0
  C  C4345  1  0.284100  0.147300  0.010090  1.0
  C  C4346  1  0.863200  0.715900  0.010090  1.0
  C  C4347  1  0.852700  0.136800  0.010090  1.0
  C  C4348  1  0.617433  0.813967  0.676757  1.0
  C  C4349  1  0.196533  0.382567  0.676757  1.0
  C  C4350  1  0.186033  0.803467  0.676757  1.0
  C  C4351  1  0.950767  0.480633  0.343423  1.0
  C  C4352  1  0.529867  0.049233  0.343423  1.0
  C  C4353  1  0.519367  0.470133  0.343423  1.0
  C  C4354  1  0.715900  0.852700  0.989910  1.0
  C  C4355  1  0.136800  0.284100  0.989910  1.0
  C  C4356  1  0.147300  0.863200  0.989910  1.0
  C  C4357  1  0.382567  0.186033  0.323243  1.0
  C  C4358  1  0.803467  0.617433  0.323243  1.0
  C  C4359  1  0.813967  0.196533  0.323243  1.0
  C  C4360  1  0.049233  0.519367  0.656577  1.0
  C  C4361  1  0.470133  0.950767  0.656577  1.0
  C  C4362  1  0.480633  0.529867  0.656577  1.0
  C  C4363  1  0.295900  0.109400  0.005500  1.0
  C  C4364  1  0.813500  0.704100  0.005500  1.0
  C  C4365  1  0.890600  0.186500  0.005500  1.0
  C  C4366  1  0.629233  0.776067  0.672167  1.0
  C  C4367  1  0.146833  0.370767  0.672167  1.0
  C  C4368  1  0.223933  0.853167  0.672167  1.0
  C  C4369  1  0.962567  0.442733  0.338833  1.0
  C  C4370  1  0.480167  0.037433  0.338833  1.0
  C  C4371  1  0.557267  0.519833  0.338833  1.0
  C  C4372  1  0.704100  0.890600  0.994500  1.0
  C  C4373  1  0.186500  0.295900  0.994500  1.0
  C  C4374  1  0.109400  0.813500  0.994500  1.0
  C  C4375  1  0.370767  0.223933  0.327833  1.0
  C  C4376  1  0.853167  0.629233  0.327833  1.0
  C  C4377  1  0.776067  0.146833  0.327833  1.0
  C  C4378  1  0.037433  0.557267  0.661167  1.0
  C  C4379  1  0.519833  0.962567  0.661167  1.0
  C  C4380  1  0.442733  0.480167  0.661167  1.0
  C  C4381  1  0.278900  0.082000  0.983380  1.0
  C  C4382  1  0.803100  0.721100  0.983380  1.0
  C  C4383  1  0.918000  0.196900  0.983380  1.0
  C  C4384  1  0.612233  0.748667  0.650047  1.0
  C  C4385  1  0.136433  0.387767  0.650047  1.0
  C  C4386  1  0.251333  0.863567  0.650047  1.0
  C  C4387  1  0.945567  0.415333  0.316713  1.0
  C  C4388  1  0.469767  0.054433  0.316713  1.0
  C  C4389  1  0.584667  0.530233  0.316713  1.0
  C  C4390  1  0.721100  0.918000  0.016620  1.0
  C  C4391  1  0.196900  0.278900  0.016620  1.0
  C  C4392  1  0.082000  0.803100  0.016620  1.0
  C  C4393  1  0.387767  0.251333  0.349953  1.0
  C  C4394  1  0.863567  0.612233  0.349953  1.0
  C  C4395  1  0.748667  0.136433  0.349953  1.0
  C  C4396  1  0.054433  0.584667  0.683287  1.0
  C  C4397  1  0.530233  0.945567  0.683287  1.0
  C  C4398  1  0.415333  0.469767  0.683287  1.0
  C  C4399  1  0.249500  0.089400  0.967620  1.0
  C  C4400  1  0.839900  0.750500  0.967620  1.0
  C  C4401  1  0.910600  0.160100  0.967620  1.0
  C  C4402  1  0.582833  0.756067  0.634287  1.0
  C  C4403  1  0.173233  0.417167  0.634287  1.0
  C  C4404  1  0.243933  0.826767  0.634287  1.0
  C  C4405  1  0.916167  0.422733  0.300953  1.0
  C  C4406  1  0.506567  0.083833  0.300953  1.0
  C  C4407  1  0.577267  0.493433  0.300953  1.0
  C  C4408  1  0.750500  0.910600  0.032380  1.0
  C  C4409  1  0.160100  0.249500  0.032380  1.0
  C  C4410  1  0.089400  0.839900  0.032380  1.0
  C  C4411  1  0.417167  0.243933  0.365713  1.0
  C  C4412  1  0.826767  0.582833  0.365713  1.0
  C  C4413  1  0.756067  0.173233  0.365713  1.0
  C  C4414  1  0.083833  0.577267  0.699047  1.0
  C  C4415  1  0.493433  0.916167  0.699047  1.0
  C  C4416  1  0.422733  0.506567  0.699047  1.0
  C  C4417  1  0.237600  0.126600  0.972130  1.0
  C  C4418  1  0.889000  0.762400  0.972130  1.0
  C  C4419  1  0.873400  0.111000  0.972130  1.0
  C  C4420  1  0.570933  0.793267  0.638797  1.0
  C  C4421  1  0.222333  0.429067  0.638797  1.0
  C  C4422  1  0.206733  0.777667  0.638797  1.0
  C  C4423  1  0.904267  0.459933  0.305463  1.0
  C  C4424  1  0.555667  0.095733  0.305463  1.0
  C  C4425  1  0.540067  0.444333  0.305463  1.0
  C  C4426  1  0.762400  0.873400  0.027870  1.0
  C  C4427  1  0.111000  0.237600  0.027870  1.0
  C  C4428  1  0.126600  0.889000  0.027870  1.0
  C  C4429  1  0.429067  0.206733  0.361203  1.0
  C  C4430  1  0.777667  0.570933  0.361203  1.0
  C  C4431  1  0.793267  0.222333  0.361203  1.0
  C  C4432  1  0.095733  0.540067  0.694537  1.0
  C  C4433  1  0.444333  0.904267  0.694537  1.0
  C  C4434  1  0.459933  0.555667  0.694537  1.0
  C  C4435  1  0.255600  0.156500  0.992600  1.0
  C  C4436  1  0.900900  0.744400  0.992600  1.0
  C  C4437  1  0.843500  0.099100  0.992600  1.0
  C  C4438  1  0.588933  0.823167  0.659267  1.0
  C  C4439  1  0.234233  0.411067  0.659267  1.0
  C  C4440  1  0.176833  0.765767  0.659267  1.0
  C  C4441  1  0.922267  0.489833  0.325933  1.0
  C  C4442  1  0.567567  0.077733  0.325933  1.0
  C  C4443  1  0.510167  0.432433  0.325933  1.0
  C  C4444  1  0.744400  0.843500  0.007400  1.0
  C  C4445  1  0.099100  0.255600  0.007400  1.0
  C  C4446  1  0.156500  0.900900  0.007400  1.0
  C  C4447  1  0.411067  0.176833  0.340733  1.0
  C  C4448  1  0.765767  0.588933  0.340733  1.0
  C  C4449  1  0.823167  0.234233  0.340733  1.0
  C  C4450  1  0.077733  0.510167  0.674067  1.0
  C  C4451  1  0.432433  0.922267  0.674067  1.0
  C  C4452  1  0.489833  0.567567  0.674067  1.0
  N  N4453  1  0.349150  0.252090  0.958840  1.0
  N  N4454  1  0.902940  0.650850  0.958840  1.0
  N  N4455  1  0.747910  0.097060  0.958840  1.0
  N  N4456  1  0.682483  0.918757  0.625507  1.0
  N  N4457  1  0.236273  0.317517  0.625507  1.0
  N  N4458  1  0.081243  0.763727  0.625507  1.0
  N  N4459  1  0.015817  0.585423  0.292173  1.0
  N  N4460  1  0.569607  0.984183  0.292173  1.0
  N  N4461  1  0.414577  0.430393  0.292173  1.0
  N  N4462  1  0.650850  0.747910  0.041160  1.0
  N  N4463  1  0.097060  0.349150  0.041160  1.0
  N  N4464  1  0.252090  0.902940  0.041160  1.0
  N  N4465  1  0.317517  0.081243  0.374493  1.0
  N  N4466  1  0.763727  0.682483  0.374493  1.0
  N  N4467  1  0.918757  0.236273  0.374493  1.0
  N  N4468  1  0.984183  0.414577  0.707827  1.0
  N  N4469  1  0.430393  0.015817  0.707827  1.0
  N  N4470  1  0.585423  0.569607  0.707827  1.0
  N  N4471  1  0.302830  0.200740  0.918890  1.0
  N  N4472  1  0.897910  0.697170  0.918890  1.0
  N  N4473  1  0.799260  0.102090  0.918890  1.0
  N  N4474  1  0.636163  0.867407  0.585557  1.0
  N  N4475  1  0.231243  0.363837  0.585557  1.0
  N  N4476  1  0.132593  0.768757  0.585557  1.0
  N  N4477  1  0.969497  0.534073  0.252223  1.0
  N  N4478  1  0.564577  0.030503  0.252223  1.0
  N  N4479  1  0.465927  0.435423  0.252223  1.0
  N  N4480  1  0.697170  0.799260  0.081110  1.0
  N  N4481  1  0.102090  0.302830  0.081110  1.0
  N  N4482  1  0.200740  0.897910  0.081110  1.0
  N  N4483  1  0.363837  0.132593  0.414443  1.0
  N  N4484  1  0.768757  0.636163  0.414443  1.0
  N  N4485  1  0.867407  0.231243  0.414443  1.0
  N  N4486  1  0.030503  0.465927  0.747777  1.0
  N  N4487  1  0.435423  0.969497  0.747777  1.0
  N  N4488  1  0.534073  0.564577  0.747777  1.0
  N  N4489  1  0.286630  0.171290  0.898480  1.0
  N  N4490  1  0.884660  0.713370  0.898480  1.0
  N  N4491  1  0.828710  0.115340  0.898480  1.0
  N  N4492  1  0.619963  0.837957  0.565147  1.0
  N  N4493  1  0.217993  0.380037  0.565147  1.0
  N  N4494  1  0.162043  0.782007  0.565147  1.0
  N  N4495  1  0.953297  0.504623  0.231813  1.0
  N  N4496  1  0.551327  0.046703  0.231813  1.0
  N  N4497  1  0.495377  0.448673  0.231813  1.0
  N  N4498  1  0.713370  0.828710  0.101520  1.0
  N  N4499  1  0.115340  0.286630  0.101520  1.0
  N  N4500  1  0.171290  0.884660  0.101520  1.0
  N  N4501  1  0.380037  0.162043  0.434853  1.0
  N  N4502  1  0.782007  0.619963  0.434853  1.0
  N  N4503  1  0.837957  0.217993  0.434853  1.0
  N  N4504  1  0.046703  0.495377  0.768187  1.0
  N  N4505  1  0.448673  0.953297  0.768187  1.0
  N  N4506  1  0.504623  0.551327  0.768187  1.0
  N  N4507  1  0.937420  0.986010  0.798330  1.0
  N  N4508  1  0.048590  0.062580  0.798330  1.0
  N  N4509  1  0.013990  0.951410  0.798330  1.0
  N  N4510  1  0.270753  0.652677  0.464997  1.0
  N  N4511  1  0.381923  0.729247  0.464997  1.0
  N  N4512  1  0.347323  0.618077  0.464997  1.0
  N  N4513  1  0.604087  0.319343  0.131663  1.0
  N  N4514  1  0.715257  0.395913  0.131663  1.0
  N  N4515  1  0.680657  0.284743  0.131663  1.0
  N  N4516  1  0.062580  0.013990  0.201670  1.0
  N  N4517  1  0.951410  0.937420  0.201670  1.0
  N  N4518  1  0.986010  0.048590  0.201670  1.0
  N  N4519  1  0.729247  0.347323  0.535003  1.0
  N  N4520  1  0.618077  0.270753  0.535003  1.0
  N  N4521  1  0.652677  0.381923  0.535003  1.0
  N  N4522  1  0.395913  0.680657  0.868337  1.0
  N  N4523  1  0.284743  0.604087  0.868337  1.0
  N  N4524  1  0.319343  0.715257  0.868337  1.0
  N  N4525  1  0.973210  0.044800  0.837730  1.0
  N  N4526  1  0.071590  0.026790  0.837730  1.0
  N  N4527  1  0.955200  0.928410  0.837730  1.0
  N  N4528  1  0.306543  0.711467  0.504397  1.0
  N  N4529  1  0.404923  0.693457  0.504397  1.0
  N  N4530  1  0.288533  0.595077  0.504397  1.0
  N  N4531  1  0.639877  0.378133  0.171063  1.0
  N  N4532  1  0.738257  0.360123  0.171063  1.0
  N  N4533  1  0.621867  0.261743  0.171063  1.0
  N  N4534  1  0.026790  0.955200  0.162270  1.0
  N  N4535  1  0.928410  0.973210  0.162270  1.0
  N  N4536  1  0.044800  0.071590  0.162270  1.0
  N  N4537  1  0.693457  0.288533  0.495603  1.0
  N  N4538  1  0.595077  0.306543  0.495603  1.0
  N  N4539  1  0.711467  0.404923  0.495603  1.0
  N  N4540  1  0.360123  0.621867  0.828937  1.0
  N  N4541  1  0.261743  0.639877  0.828937  1.0
  N  N4542  1  0.378133  0.738257  0.828937  1.0
  N  N4543  1  0.985060  0.078590  0.855850  1.0
  N  N4544  1  0.093530  0.014940  0.855850  1.0
  N  N4545  1  0.921410  0.906470  0.855850  1.0
  N  N4546  1  0.318393  0.745257  0.522517  1.0
  N  N4547  1  0.426863  0.681607  0.522517  1.0
  N  N4548  1  0.254743  0.573137  0.522517  1.0
  N  N4549  1  0.651727  0.411923  0.189183  1.0
  N  N4550  1  0.760197  0.348273  0.189183  1.0
  N  N4551  1  0.588077  0.239803  0.189183  1.0
  N  N4552  1  0.014940  0.921410  0.144150  1.0
  N  N4553  1  0.906470  0.985060  0.144150  1.0
  N  N4554  1  0.078590  0.093530  0.144150  1.0
  N  N4555  1  0.681607  0.254743  0.477483  1.0
  N  N4556  1  0.573137  0.318393  0.477483  1.0
  N  N4557  1  0.745257  0.426863  0.477483  1.0
  N  N4558  1  0.348273  0.588077  0.810817  1.0
  N  N4559  1  0.239803  0.651727  0.810817  1.0
  N  N4560  1  0.411923  0.760197  0.810817  1.0
  N  N4561  1  0.250600  0.268540  0.910880  1.0
  N  N4562  1  0.017940  0.749400  0.910880  1.0
  N  N4563  1  0.731460  0.982060  0.910880  1.0
  N  N4564  1  0.583933  0.935207  0.577547  1.0
  N  N4565  1  0.351273  0.416067  0.577547  1.0
  N  N4566  1  0.064793  0.648727  0.577547  1.0
  N  N4567  1  0.917267  0.601873  0.244213  1.0
  N  N4568  1  0.684607  0.082733  0.244213  1.0
  N  N4569  1  0.398127  0.315393  0.244213  1.0
  N  N4570  1  0.749400  0.731460  0.089120  1.0
  N  N4571  1  0.982060  0.250600  0.089120  1.0
  N  N4572  1  0.268540  0.017940  0.089120  1.0
  N  N4573  1  0.416067  0.064793  0.422453  1.0
  N  N4574  1  0.648727  0.583933  0.422453  1.0
  N  N4575  1  0.935207  0.351273  0.422453  1.0
  N  N4576  1  0.082733  0.398127  0.755787  1.0
  N  N4577  1  0.315393  0.917267  0.755787  1.0
  N  N4578  1  0.601873  0.684607  0.755787  1.0
  N  N4579  1  0.234640  0.227130  0.956010  1.0
  N  N4580  1  0.992490  0.765360  0.956010  1.0
  N  N4581  1  0.772870  0.007510  0.956010  1.0
  N  N4582  1  0.567973  0.893797  0.622677  1.0
  N  N4583  1  0.325823  0.432027  0.622677  1.0
  N  N4584  1  0.106203  0.674177  0.622677  1.0
  N  N4585  1  0.901307  0.560463  0.289343  1.0
  N  N4586  1  0.659157  0.098693  0.289343  1.0
  N  N4587  1  0.439537  0.340843  0.289343  1.0
  N  N4588  1  0.765360  0.772870  0.043990  1.0
  N  N4589  1  0.007510  0.234640  0.043990  1.0
  N  N4590  1  0.227130  0.992490  0.043990  1.0
  N  N4591  1  0.432027  0.106203  0.377323  1.0
  N  N4592  1  0.674177  0.567973  0.377323  1.0
  N  N4593  1  0.893797  0.325823  0.377323  1.0
  N  N4594  1  0.098693  0.439537  0.710657  1.0
  N  N4595  1  0.340843  0.901307  0.710657  1.0
  N  N4596  1  0.560463  0.659157  0.710657  1.0
  N  N4597  1  0.215270  0.202640  0.977430  1.0
  N  N4598  1  0.987370  0.784730  0.977430  1.0
  N  N4599  1  0.797360  0.012630  0.977430  1.0
  N  N4600  1  0.548603  0.869307  0.644097  1.0
  N  N4601  1  0.320703  0.451397  0.644097  1.0
  N  N4602  1  0.130693  0.679297  0.644097  1.0
  N  N4603  1  0.881937  0.535973  0.310763  1.0
  N  N4604  1  0.654037  0.118063  0.310763  1.0
  N  N4605  1  0.464027  0.345963  0.310763  1.0
  N  N4606  1  0.784730  0.797360  0.022570  1.0
  N  N4607  1  0.012630  0.215270  0.022570  1.0
  N  N4608  1  0.202640  0.987370  0.022570  1.0
  N  N4609  1  0.451397  0.130693  0.355903  1.0
  N  N4610  1  0.679297  0.548603  0.355903  1.0
  N  N4611  1  0.869307  0.320703  0.355903  1.0
  N  N4612  1  0.118063  0.464027  0.689237  1.0
  N  N4613  1  0.345963  0.881937  0.689237  1.0
  N  N4614  1  0.535973  0.654037  0.689237  1.0
  N  N4615  1  0.313110  0.947980  0.089640  1.0
  N  N4616  1  0.634870  0.686890  0.089640  1.0
  N  N4617  1  0.052020  0.365130  0.089640  1.0
  N  N4618  1  0.646443  0.614647  0.756307  1.0
  N  N4619  1  0.968203  0.353557  0.756307  1.0
  N  N4620  1  0.385353  0.031797  0.756307  1.0
  N  N4621  1  0.979777  0.281313  0.422973  1.0
  N  N4622  1  0.301537  0.020223  0.422973  1.0
  N  N4623  1  0.718687  0.698463  0.422973  1.0
  N  N4624  1  0.686890  0.052020  0.910360  1.0
  N  N4625  1  0.365130  0.313110  0.910360  1.0
  N  N4626  1  0.947980  0.634870  0.910360  1.0
  N  N4627  1  0.353557  0.385353  0.243693  1.0
  N  N4628  1  0.031797  0.646443  0.243693  1.0
  N  N4629  1  0.614647  0.968203  0.243693  1.0
  N  N4630  1  0.020223  0.718687  0.577027  1.0
  N  N4631  1  0.698463  0.979777  0.577027  1.0
  N  N4632  1  0.281313  0.301537  0.577027  1.0
  N  N4633  1  0.340440  0.014420  0.053020  1.0
  N  N4634  1  0.673980  0.659560  0.053020  1.0
  N  N4635  1  0.985580  0.326020  0.053020  1.0
  N  N4636  1  0.673773  0.681087  0.719687  1.0
  N  N4637  1  0.007313  0.326227  0.719687  1.0
  N  N4638  1  0.318913  0.992687  0.719687  1.0
  N  N4639  1  0.007107  0.347753  0.386353  1.0
  N  N4640  1  0.340647  0.992893  0.386353  1.0
  N  N4641  1  0.652247  0.659353  0.386353  1.0
  N  N4642  1  0.659560  0.985580  0.946980  1.0
  N  N4643  1  0.326020  0.340440  0.946980  1.0
  N  N4644  1  0.014420  0.673980  0.946980  1.0
  N  N4645  1  0.326227  0.318913  0.280313  1.0
  N  N4646  1  0.992687  0.673773  0.280313  1.0
  N  N4647  1  0.681087  0.007313  0.280313  1.0
  N  N4648  1  0.992893  0.652247  0.613647  1.0
  N  N4649  1  0.659353  0.007107  0.613647  1.0
  N  N4650  1  0.347753  0.340647  0.613647  1.0
  N  N4651  1  0.364090  0.051190  0.036290  1.0
  N  N4652  1  0.687100  0.635910  0.036290  1.0
  N  N4653  1  0.948810  0.312900  0.036290  1.0
  N  N4654  1  0.697423  0.717857  0.702957  1.0
  N  N4655  1  0.020433  0.302577  0.702957  1.0
  N  N4656  1  0.282143  0.979567  0.702957  1.0
  N  N4657  1  0.030757  0.384523  0.369623  1.0
  N  N4658  1  0.353767  0.969243  0.369623  1.0
  N  N4659  1  0.615477  0.646233  0.369623  1.0
  N  N4660  1  0.635910  0.948810  0.963710  1.0
  N  N4661  1  0.312900  0.364090  0.963710  1.0
  N  N4662  1  0.051190  0.687100  0.963710  1.0
  N  N4663  1  0.302577  0.282143  0.297043  1.0
  N  N4664  1  0.979567  0.697423  0.297043  1.0
  N  N4665  1  0.717857  0.020433  0.297043  1.0
  N  N4666  1  0.969243  0.615477  0.630377  1.0
  N  N4667  1  0.646233  0.030757  0.630377  1.0
  N  N4668  1  0.384523  0.353767  0.630377  1.0
