
#######################################################################
#
#                 Cambridge Crystallographic Data Centre
#                                CCDC 
#
#######################################################################
#
# If this CIF has been generated from an entry in the Cambridge 
# Structural Database, then it will include bibliographic, chemical, 
# crystal, experimental, refinement or atomic coordinate data resulting 
# from the CCDC's data processing and validation procedures.
#
#######################################################################

data_SERWEU
_chemical_formula_moiety         
'C80 H64 N16 Pd4 8+,8(C7 H7 O3 S1 1-),23(H2 O1)'
_chemical_name_systematic        
"tetrakis(\m-4,4'-bipyridine)-tetrakis(2,2'-bipyridine)-tetra-palladium octakis(4-methylbenzene-1-sulfonate) tricosahydrate"
_symmetry_cell_setting           triclinic
_symmetry_space_group_name_H-M   'P -1'
_symmetry_Int_Tables_number      2
_space_group_name_Hall           '-P 1'
loop_
_symmetry_equiv_pos_site_id
_symmetry_equiv_pos_as_xyz
1 x,y,z
2 -x,-y,-z
_cell_length_a                   9.9562(2)
_cell_length_b                   18.5183(4)
_cell_length_c                   22.7992(5)
_cell_angle_alpha                74.6070(10)
_cell_angle_beta                 87.7830(10)
_cell_angle_gamma                76.1340(10)
_cell_volume                     3933.24
_exptl_crystal_colour            yellow
_exptl_crystal_description       rectangular
_cell_formula_units_Z            1
loop_
_atom_site_label
_atom_site_type_symbol
_atom_site_fract_x
_atom_site_fract_y
_atom_site_fract_z
Pd1 Pd 0.21563(3) 0.12617(2) 0.59892(2)
Pd2 Pd 0.58591(3) 0.45334(2) 0.16906(2)
C1 C 0.0776(5) 0.0885(3) 0.71889(18)
H1 H 0.1066 0.1289 0.7274
C2 C -0.0043(5) 0.0510(3) 0.7594(2)
H2 H -0.0310 0.0663 0.7946
C3 C -0.0464(5) -0.0084(3) 0.7480(2)
H3 H -0.1023 -0.0342 0.7752
C4 C -0.0054(5) -0.0301(3) 0.6955(2)
H4 H -0.0326 -0.0712 0.6873
C5 C 0.0760(4) 0.0091(2) 0.65540(18)
C6 C 0.1237(4) -0.0078(2) 0.59763(19)
C7 C 0.1064(5) -0.0707(3) 0.5799(2)
H5 H 0.0626 -0.1059 0.6053
C8 C 0.1540(5) -0.0813(3) 0.5246(2)
H6 H 0.1421 -0.1233 0.5121
C9 C 0.2194(5) -0.0288(3) 0.4879(2)
H7 H 0.2523 -0.0349 0.4504
C10 C 0.2353(5) 0.0326(3) 0.5076(2)
H8 H 0.2805 0.0676 0.4830
C11 C 0.1520(5) 0.2700(3) 0.6385(2)
H9 H 0.0700 0.2805 0.6163
C12 C 0.1748(5) 0.3233(3) 0.6661(2)
H10 H 0.1086 0.3694 0.6624
C13 C 0.2957(4) 0.3091(2) 0.69959(18)
C14 C 0.3898(5) 0.2400(3) 0.7033(2)
H11 H 0.4724 0.2280 0.7254
C15 C 0.3613(5) 0.1888(3) 0.6742(2)
H12 H 0.4261 0.1424 0.6770
C16 C 0.3231(4) 0.3659(2) 0.72967(17)
C17 C 0.2169(4) 0.4178(3) 0.7482(2)
H13 H 0.1253 0.4179 0.7414
C18 C 0.2463(4) 0.4692(2) 0.7765(2)
H14 H 0.1736 0.5037 0.7886
C19 C 0.4791(5) 0.4234(3) 0.7679(2)
H15 H 0.5696 0.4258 0.7739
C20 C 0.4566(5) 0.3708(3) 0.7394(2)
H16 H 0.5313 0.3383 0.7264
C21 C 0.2145(4) 0.2510(3) 0.4907(2)
H17 H 0.1238 0.2659 0.5025
C22 C 0.2578(4) 0.2956(3) 0.4388(2)
H18 H 0.1968 0.3399 0.4163
C23 C 0.3923(4) 0.2750(2) 0.41983(17)
C24 C 0.4780(4) 0.2102(2) 0.45720(18)
H19 H 0.5702 0.1952 0.4473
C25 C 0.4287(4) 0.1679(2) 0.50862(18)
H20 H 0.4888 0.1247 0.5329
C26 C 0.4376(4) 0.3187(2) 0.36169(16)
C27 C 0.3432(4) 0.3600(3) 0.31443(18)
H21 H 0.2495 0.3619 0.3199
C28 C 0.3872(4) 0.3979(3) 0.25986(19)
H22 H 0.3221 0.4253 0.2288
C29 C 0.6138(4) 0.3583(2) 0.29520(18)
H23 H 0.7068 0.3579 0.2886
C30 C 0.5759(4) 0.3194(2) 0.35114(18)
H24 H 0.6426 0.2935 0.3818
C31 C 0.4850(5) 0.3251(3) 0.1388(2)
H25 H 0.4475 0.3167 0.1773
C32 C 0.4696(6) 0.2792(3) 0.1023(2)
H26 H 0.4221 0.2406 0.1157
C33 C 0.5255(6) 0.2914(3) 0.0456(3)
H27 H 0.5168 0.2608 0.0202
C34 C 0.5947(6) 0.3495(3) 0.0265(2)
H28 H 0.6334 0.3582 -0.0118
C35 C 0.6061(4) 0.3940(2) 0.06429(18)
C36 C 0.6711(5) 0.4599(2) 0.04753(18)
C37 C 0.7364(6) 0.4806(3) -0.0071(2)
H29 H 0.7425 0.4520 -0.0355
C38 C 0.7926(7) 0.5446(4) -0.0189(3)
H30 H 0.8395 0.5584 -0.0547
C39 C 0.7784(7) 0.5869(3) 0.0222(2)
H31 H 0.8136 0.6307 0.0144
C40 C 0.7118(6) 0.5645(3) 0.0754(2)
H32 H 0.7014 0.5943 0.1030
N1 N 0.1173(3) 0.06860(18) 0.66750(14)
N2 N 0.1876(3) 0.04370(18) 0.56106(14)
N3 N 0.2448(3) 0.20320(18) 0.64245(14)
N4 N 0.2975(3) 0.18654(17) 0.52502(14)
N5 N 0.5209(3) 0.39676(18) 0.24985(14)
N6 N 0.5521(3) 0.38155(19) 0.12078(14)
N7 N 0.6615(4) 0.50171(19) 0.08896(15)
N8 N 0.3756(3) 0.47110(18) 0.78738(14)
Pd1A Pd 0.78437(3) 0.87383(2) 0.40108(2)
Pd2A Pd 0.41409(3) 0.54666(2) 0.83094(2)
C1A C 0.9224(5) 0.9115(3) 0.28111(18)
H1A H 0.8934 0.8711 0.2726
C2A C 1.0043(5) 0.9490(3) 0.2406(2)
H2A H 1.0310 0.9337 0.2054
C3A C 1.0464(5) 1.0084(3) 0.2520(2)
H3A H 1.1023 1.0342 0.2248
C4A C 1.0054(5) 1.0301(3) 0.3045(2)
H4A H 1.0326 1.0712 0.3127
C5A C 0.9240(4) 0.9909(2) 0.34460(18)
C6A C 0.8763(4) 1.0078(2) 0.40237(19)
C7A C 0.8936(5) 1.0707(3) 0.4201(2)
H5A H 0.9374 1.1059 0.3947
C8A C 0.8460(5) 1.0813(3) 0.4754(2)
H6A H 0.8579 1.1233 0.4879
C9A C 0.7806(5) 1.0288(3) 0.5121(2)
H7A H 0.7477 1.0349 0.5496
C10A C 0.7647(5) 0.9674(3) 0.4924(2)
H8A H 0.7195 0.9324 0.5170
C11A C 0.8480(5) 0.7300(3) 0.3615(2)
H9A H 0.9300 0.7195 0.3837
C12A C 0.8252(5) 0.6767(3) 0.3339(2)
H10A H 0.8914 0.6306 0.3376
C13A C 0.7043(4) 0.6909(2) 0.30041(18)
C14A C 0.6102(5) 0.7600(3) 0.2967(2)
H11A H 0.5276 0.7720 0.2746
C15A C 0.6387(5) 0.8112(3) 0.3258(2)
H12A H 0.5739 0.8576 0.3230
C16A C 0.6769(4) 0.6341(2) 0.27033(17)
C17A C 0.7831(4) 0.5822(3) 0.2518(2)
H13A H 0.8747 0.5821 0.2586
C18A C 0.7537(4) 0.5308(2) 0.2235(2)
H14A H 0.8264 0.4963 0.2114
C19A C 0.5209(5) 0.5766(3) 0.2321(2)
H15A H 0.4304 0.5742 0.2261
C20A C 0.5434(5) 0.6292(3) 0.2606(2)
H16A H 0.4687 0.6617 0.2736
C21A C 0.7855(4) 0.7490(3) 0.5093(2)
H17A H 0.8762 0.7341 0.4975
C22A C 0.7422(4) 0.7044(3) 0.5612(2)
H18A H 0.8032 0.6601 0.5837
C23A C 0.6077(4) 0.7250(2) 0.58017(17)
C24A C 0.5220(4) 0.7898(2) 0.54280(18)
H19A H 0.4298 0.8048 0.5527
C25A C 0.5713(4) 0.8321(2) 0.49138(18)
H20A H 0.5112 0.8753 0.4671
C26A C 0.5624(4) 0.6813(2) 0.63831(16)
C27A C 0.6568(4) 0.6400(3) 0.68557(18)
H21A H 0.7505 0.6381 0.6801
C28A C 0.6128(4) 0.6021(3) 0.74014(19)
H22A H 0.6779 0.5747 0.7712
C29A C 0.3862(4) 0.6417(2) 0.70480(18)
H23A H 0.2932 0.6421 0.7114
C30A C 0.4241(4) 0.6806(2) 0.64886(18)
H24A H 0.3574 0.7065 0.6182
C31A C 0.5150(5) 0.6749(3) 0.8612(2)
H25A H 0.5525 0.6833 0.8227
C32A C 0.5304(6) 0.7208(3) 0.8977(2)
H26A H 0.5779 0.7594 0.8843
C33A C 0.4745(6) 0.7086(3) 0.9544(3)
H27A H 0.4832 0.7392 0.9798
C34A C 0.4053(6) 0.6505(3) 0.9735(2)
H28A H 0.3666 0.6418 1.0118
C35A C 0.3939(4) 0.6060(2) 0.93571(18)
C36A C 0.3289(5) 0.5401(2) 0.95247(18)
C37A C 0.2636(6) 0.5194(3) 1.0071(2)
H29A H 0.2575 0.5480 1.0355
C38A C 0.2074(7) 0.4554(4) 1.0189(3)
H30A H 0.1605 0.4416 1.0547
C39A C 0.2216(7) 0.4131(3) 0.9778(2)
H31A H 0.1864 0.3693 0.9856
C40A C 0.2882(6) 0.4355(3) 0.9246(2)
H32A H 0.2986 0.4057 0.8970
N1A N 0.8827(3) 0.93140(18) 0.33250(14)
N2A N 0.8124(3) 0.95630(18) 0.43894(14)
N3A N 0.7552(3) 0.79680(18) 0.35755(14)
N4A N 0.7025(3) 0.81346(17) 0.47498(14)
N5A N 0.4791(3) 0.60324(18) 0.75015(14)
N6A N 0.4479(3) 0.61845(19) 0.87922(14)
N7A N 0.3385(4) 0.49829(19) 0.91104(15)
N8A N 0.6244(3) 0.52890(18) 0.21262(14)
C41 C 0.5393(4) 0.0887(2) 0.2956(2)
S1 S 0.4231(11) 0.0581(8) 0.3510(5)
O1 O 0.3667(9) 0.1166(5) 0.3780(4)
C42 C 0.5645(5) 0.0613(3) 0.2446(2)
H33 H 0.5221 0.0236 0.2396
C43 C 0.6519(6) 0.0894(4) 0.2012(3)
H34 H 0.6674 0.0700 0.1672
C44 C 0.7168(5) 0.1444(3) 0.2059(3)
C45 C 0.6930(6) 0.1711(3) 0.2571(3)
H35 H 0.7370 0.2082 0.2619
C46 C 0.6049(6) 0.1441(3) 0.3016(3)
H36 H 0.5901 0.1633 0.3357
C47 C 0.8123(7) 0.1748(4) 0.1586(4)
H37 H 0.7907 0.2301 0.1494
H38 H 0.8013 0.1594 0.1224
H39 H 0.9062 0.1544 0.1737
O2 O 0.4970(15) -0.0131(8) 0.3890(7)
O3 O 0.3115(9) 0.0431(5) 0.3142(4)
C48 C 0.0881(4) 0.2754(2) 0.1525(2)
S2 S 0.0148(11) 0.3513(6) 0.1944(4)
O4 O 0.0792(16) 0.3379(9) 0.2376(6)
O5 O -0.1249(11) 0.3657(7) 0.1836(5)
O6 O -0.0073(11) 0.4205(4) 0.1457(3)
C49 C 0.1784(5) 0.2072(3) 0.1836(2)
H40 H 0.2042 0.1997 0.2239
C50 C 0.2291(5) 0.1508(3) 0.1539(3)
H41 H 0.2880 0.1048 0.1749
C51 C 0.1948(6) 0.1609(3) 0.0942(3)
C52 C 0.1045(7) 0.2292(3) 0.0642(3)
H42 H 0.0789 0.2366 0.0238
C53 C 0.0517(5) 0.2864(3) 0.0929(2)
H43 H -0.0082 0.3321 0.0720
C54 C 0.2538(10) 0.0982(5) 0.0617(4)
H44 H 0.3504 0.0775 0.0722
H45 H 0.2426 0.1200 0.0184
H46 H 0.2056 0.0577 0.0739
C55 C 0.6557(5) 0.3330(3) 0.5767(2)
S3 S 0.79216(14) 0.25198(10) 0.57737(7)
O7 O 0.8426(5) 0.2207(3) 0.6394(2)
O8 O 0.7349(5) 0.2002(3) 0.5546(3)
O9 O 0.8978(4) 0.2820(4) 0.5390(2)
C56 C 0.5246(5) 0.3371(3) 0.5572(2)
H47 H 0.5069 0.2968 0.5439
C57 C 0.4181(5) 0.4014(3) 0.5573(2)
H48 H 0.3299 0.4038 0.5437
C58 C 0.4406(6) 0.4612(3) 0.5770(2)
C59 C 0.5732(7) 0.4563(3) 0.5959(3)
H49 H 0.5916 0.4967 0.6088
C60 C 0.6786(6) 0.3929(4) 0.5962(3)
H50 H 0.7667 0.3907 0.6099
C61 C 0.3242(8) 0.5291(4) 0.5786(3)
H51 H 0.2983 0.5265 0.6200
H52 H 0.2462 0.5283 0.5555
H53 H 0.3534 0.5759 0.5614
S4 S 0.7839(5) 0.1989(3) -0.08686(18)
O10 O 0.6706(16) 0.2570(9) -0.0921(6)
O11 O 0.8052(15) 0.1675(7) -0.1381(5)
O12 O 0.9036(16) 0.2252(9) -0.0740(6)
C62 C 0.7694(11) 0.1201(5) -0.0248(4)
C63 C 0.6457(10) 0.0969(6) -0.0163(5)
H54 H 0.5704 0.1234 -0.0427
C64 C 0.6345(9) 0.0341(6) 0.0314(5)
H55 H 0.5517 0.0185 0.0371
C65 C 0.7471(11) -0.0055(5) 0.0708(4)
C66 C 0.8708(10) 0.0177(7) 0.0623(5)
H56 H 0.9462 -0.0087 0.0886
C67 C 0.8820(10) 0.0805(7) 0.0145(6)
H57 H 0.9648 0.0961 0.0088
C68 C 0.737(2) -0.0758(9) 0.1215(6)
H58 H 0.6444 -0.0828 0.1222
H59 H 0.7597 -0.0685 0.1597
H60 H 0.8005 -0.1205 0.1146
O13 O 0.3713(10) 0.9231(6) 0.1849(4)
O14 O 0.3256(5) 0.8948(3) 0.3047(3)
O15 O 0.9531(5) 0.4018(2) 0.33541(19)
O16 O 0.8820(4) 0.2752(2) 0.41548(19)
O17 O 0.0823(9) 0.5492(4) 0.1649(3)
O18 O 0.3148(8) 0.5838(5) 0.1221(3)
O19 O 0.1655(6) 0.5772(3) 0.2701(3)
O20 O 0.9274(6) 0.5033(3) 0.6201(3)
O21 O 0.8255(8) 0.2696(3) 0.7453(3)
O22 O 0.0857(5) 0.1976(2) 0.3530(2)
loop_
_geom_bond_atom_site_label_1
_geom_bond_atom_site_label_2
_geom_bond_site_symmetry_1
_geom_bond_site_symmetry_2
Pd1 N1 1_555 1_555
Pd2 N5 1_555 1_555
C1 H1 1_555 1_555
C2 C1 1_555 1_555
H2 C2 1_555 1_555
C3 C2 1_555 1_555
H3 C3 1_555 1_555
C4 C3 1_555 1_555
H4 C4 1_555 1_555
C5 C4 1_555 1_555
C6 C5 1_555 1_555
C7 C6 1_555 1_555
H5 C7 1_555 1_555
C8 C7 1_555 1_555
H6 C8 1_555 1_555
C9 C8 1_555 1_555
H7 C9 1_555 1_555
C10 C9 1_555 1_555
H8 C10 1_555 1_555
C11 H9 1_555 1_555
C12 C11 1_555 1_555
H10 C12 1_555 1_555
C13 C12 1_555 1_555
C14 C13 1_555 1_555
H11 C14 1_555 1_555
C15 C14 1_555 1_555
H12 C15 1_555 1_555
C16 C13 1_555 1_555
C17 C16 1_555 1_555
H13 C17 1_555 1_555
C18 C17 1_555 1_555
H14 C18 1_555 1_555
C19 H15 1_555 1_555
C20 C16 1_555 1_555
H16 C20 1_555 1_555
C21 H17 1_555 1_555
C22 C21 1_555 1_555
H18 C22 1_555 1_555
C23 C22 1_555 1_555
C24 C23 1_555 1_555
H19 C24 1_555 1_555
C25 C24 1_555 1_555
H20 C25 1_555 1_555
C26 C23 1_555 1_555
C27 C26 1_555 1_555
H21 C27 1_555 1_555
C28 C27 1_555 1_555
H22 C28 1_555 1_555
C29 H23 1_555 1_555
C30 C26 1_555 1_555
H24 C30 1_555 1_555
C31 H25 1_555 1_555
C32 C31 1_555 1_555
H26 C32 1_555 1_555
C33 C32 1_555 1_555
H27 C33 1_555 1_555
C34 C33 1_555 1_555
H28 C34 1_555 1_555
C35 C34 1_555 1_555
C36 C35 1_555 1_555
C37 C36 1_555 1_555
H29 C37 1_555 1_555
C38 C37 1_555 1_555
H30 C38 1_555 1_555
C39 C38 1_555 1_555
H31 C39 1_555 1_555
C40 C39 1_555 1_555
H32 C40 1_555 1_555
N1 C1 1_555 1_555
N2 Pd1 1_555 1_555
N3 Pd1 1_555 1_555
N4 Pd1 1_555 1_555
N5 C28 1_555 1_555
N6 Pd2 1_555 1_555
N7 Pd2 1_555 1_555
N8 C18 1_555 1_555
C41 S1 1_555 1_555
S1 O1 1_555 1_555
C42 C41 1_555 1_555
H33 C42 1_555 1_555
C43 C42 1_555 1_555
H34 C43 1_555 1_555
C44 C43 1_555 1_555
C45 C44 1_555 1_555
H35 C45 1_555 1_555
C46 C41 1_555 1_555
H36 C46 1_555 1_555
C47 C44 1_555 1_555
H37 C47 1_555 1_555
H38 C47 1_555 1_555
H39 C47 1_555 1_555
O2 S1 1_555 1_555
O3 S1 1_555 1_555
C48 S2 1_555 1_555
S2 O4 1_555 1_555
O5 S2 1_555 1_555
O6 S2 1_555 1_555
C49 C48 1_555 1_555
H40 C49 1_555 1_555
C50 C49 1_555 1_555
H41 C50 1_555 1_555
C51 C50 1_555 1_555
C52 C51 1_555 1_555
H42 C52 1_555 1_555
C53 C48 1_555 1_555
H43 C53 1_555 1_555
C54 C51 1_555 1_555
H44 C54 1_555 1_555
H45 C54 1_555 1_555
H46 C54 1_555 1_555
C55 S3 1_555 1_555
S3 O7 1_555 1_555
O8 S3 1_555 1_555
O9 S3 1_555 1_555
C56 C55 1_555 1_555
H47 C56 1_555 1_555
C57 C56 1_555 1_555
H48 C57 1_555 1_555
C58 C57 1_555 1_555
C59 C58 1_555 1_555
H49 C59 1_555 1_555
C60 C55 1_555 1_555
H50 C60 1_555 1_555
C61 C58 1_555 1_555
H51 C61 1_555 1_555
H52 C61 1_555 1_555
H53 C61 1_555 1_555
S4 O10 1_555 1_555
O11 S4 1_555 1_555
O12 S4 1_555 1_555
C62 S4 1_555 1_555
C63 C62 1_555 1_555
H54 C63 1_555 1_555
C64 C63 1_555 1_555
H55 C64 1_555 1_555
C65 C64 1_555 1_555
C66 C65 1_555 1_555
H56 C66 1_555 1_555
C67 C62 1_555 1_555
H57 C67 1_555 1_555
C68 C65 1_555 1_555
H58 C68 1_555 1_555
H59 C68 1_555 1_555
H60 C68 1_555 1_555
Pd1A N1A 1_555 1_555
Pd2A N8 1_555 1_555
C1A H1A 1_555 1_555
C2A C1A 1_555 1_555
H2A C2A 1_555 1_555
C3A C2A 1_555 1_555
H3A C3A 1_555 1_555
C4A C3A 1_555 1_555
H4A C4A 1_555 1_555
C5A C4A 1_555 1_555
C6A C5A 1_555 1_555
C7A C6A 1_555 1_555
H5A C7A 1_555 1_555
C8A C7A 1_555 1_555
H6A C8A 1_555 1_555
C9A C8A 1_555 1_555
H7A C9A 1_555 1_555
C10A C9A 1_555 1_555
H8A C10A 1_555 1_555
C11A H9A 1_555 1_555
C12A C11A 1_555 1_555
H10A C12A 1_555 1_555
C13A C12A 1_555 1_555
C14A C13A 1_555 1_555
H11A C14A 1_555 1_555
C15A C14A 1_555 1_555
H12A C15A 1_555 1_555
C16A C13A 1_555 1_555
C17A C16A 1_555 1_555
H13A C17A 1_555 1_555
C18A C17A 1_555 1_555
H14A C18A 1_555 1_555
C19A H15A 1_555 1_555
C20A C16A 1_555 1_555
H16A C20A 1_555 1_555
C21A H17A 1_555 1_555
C22A C21A 1_555 1_555
H18A C22A 1_555 1_555
C23A C22A 1_555 1_555
C24A C23A 1_555 1_555
H19A C24A 1_555 1_555
C25A C24A 1_555 1_555
H20A C25A 1_555 1_555
C26A C23A 1_555 1_555
C27A C26A 1_555 1_555
H21A C27A 1_555 1_555
C28A C27A 1_555 1_555
H22A C28A 1_555 1_555
C29A H23A 1_555 1_555
C30A C26A 1_555 1_555
H24A C30A 1_555 1_555
C31A H25A 1_555 1_555
C32A C31A 1_555 1_555
H26A C32A 1_555 1_555
C33A C32A 1_555 1_555
H27A C33A 1_555 1_555
C34A C33A 1_555 1_555
H28A C34A 1_555 1_555
C35A C34A 1_555 1_555
C36A C35A 1_555 1_555
C37A C36A 1_555 1_555
H29A C37A 1_555 1_555
C38A C37A 1_555 1_555
H30A C38A 1_555 1_555
C39A C38A 1_555 1_555
H31A C39A 1_555 1_555
C40A C39A 1_555 1_555
H32A C40A 1_555 1_555
N1A C1A 1_555 1_555
N2A Pd1A 1_555 1_555
N3A Pd1A 1_555 1_555
N4A Pd1A 1_555 1_555
N5A Pd2A 1_555 1_555
N6A Pd2A 1_555 1_555
N7A Pd2A 1_555 1_555
N8A Pd2 1_555 1_555
C5 N1 1_555 1_555
C6 N2 1_555 1_555
C10 N2 1_555 1_555
C11 N3 1_555 1_555
C15 N3 1_555 1_555
C19 C20 1_555 1_555
C19 N8 1_555 1_555
C21 N4 1_555 1_555
C25 N4 1_555 1_555
C29 C30 1_555 1_555
C29 N5 1_555 1_555
C31 N6 1_555 1_555
C35 N6 1_555 1_555
C36 N7 1_555 1_555
C40 N7 1_555 1_555
C45 C46 1_555 1_555
C52 C53 1_555 1_555
C59 C60 1_555 1_555
C66 C67 1_555 1_555
C5A N1A 1_555 1_555
C6A N2A 1_555 1_555
C10A N2A 1_555 1_555
C11A N3A 1_555 1_555
C15A N3A 1_555 1_555
C18A N8A 1_555 1_555
C19A C20A 1_555 1_555
C19A N8A 1_555 1_555
C21A N4A 1_555 1_555
C25A N4A 1_555 1_555
C28A N5A 1_555 1_555
C29A C30A 1_555 1_555
C29A N5A 1_555 1_555
C31A N6A 1_555 1_555
C35A N6A 1_555 1_555
C36A N7A 1_555 1_555
C40A N7A 1_555 1_555

#END
