
#######################################################################
#
#                 Cambridge Crystallographic Data Centre
#                                CCDC 
#
#######################################################################
#
# If this CIF has been generated from an entry in the Cambridge 
# Structural Database, then it will include bibliographic, chemical, 
# crystal, experimental, refinement or atomic coordinate data resulting 
# from the CCDC's data processing and validation procedures.
#
#######################################################################

data_SERWAQ
_chemical_formula_moiety         
'C64 H96 N16 Pd4 8+,8(C7 H7 O3 S1 1-),22(H2 O1)'
_chemical_name_systematic        
"tetrakis(\m-4,4'-bipyridine)-tetrakis(N^1^,N^1^,N^2^,N^2^-tetramethylethane-1,2-diamine)-tetra-palladium octakis(4-methylbenzene-1-sulfonate) docosahydrate"
_symmetry_cell_setting           triclinic
_symmetry_space_group_name_H-M   'P -1'
_symmetry_Int_Tables_number      2
_space_group_name_Hall           '-P 1'
loop_
_symmetry_equiv_pos_site_id
_symmetry_equiv_pos_as_xyz
1 x,y,z
2 -x,-y,-z
_cell_length_a                   9.8546(9)
_cell_length_b                   18.778(2)
_cell_length_c                   20.755(2)
_cell_angle_alpha                75.766(3)
_cell_angle_beta                 87.336(3)
_cell_angle_gamma                87.509(3)
_cell_volume                     3716.74
_exptl_crystal_colour            yellow
_exptl_crystal_description       plate
_cell_formula_units_Z            1
loop_
_atom_site_label
_atom_site_type_symbol
_atom_site_fract_x
_atom_site_fract_y
_atom_site_fract_z
Pd1 Pd 0.04569(3) 0.77301(2) 0.76270(2)
Pd2 Pd 0.39129(3) 1.33898(2) 0.72076(2)
N1 N 0.4602(3) 1.35824(17) 0.62324(15)
N2 N 0.4621(3) 1.44191(16) 0.71791(16)
N3 N 0.3251(3) 1.23697(16) 0.72339(15)
N4 N -0.3198(3) 0.68113(17) 1.18273(15)
N5 N 0.0038(3) 0.66610(17) 0.76451(16)
N6 N 0.1250(3) 0.77845(18) 0.66758(15)
N7 N -0.0339(3) 0.76485(17) 0.85670(15)
N8 N 0.0947(3) 0.87823(16) 0.75916(15)
C1 C 0.4067(4) 1.1781(2) 0.7418(2)
H1 H 0.4973 1.1846 0.7489
C2 C 0.3621(4) 1.1077(2) 0.7507(2)
H2 H 0.4225 1.0678 0.7634
C3 C 0.2275(4) 1.0961(2) 0.74097(19)
C4 C 0.1439(4) 1.1583(2) 0.7220(2)
H3 H 0.0528 1.1535 0.7145
C5 C 0.1947(4) 1.2267(2) 0.7142(2)
H4 H 0.1363 1.2676 0.7020
C6 C 0.0117(4) 0.9364(2) 0.7368(2)
H5 H -0.0748 0.9286 0.7244
C7 C 0.0498(4) 1.0071(2) 0.7314(2)
H6 H -0.0112 1.0461 0.7157
C8 C 0.1779(4) 1.0211(2) 0.74911(19)
C9 C 0.2600(5) 0.9592(2) 0.7750(2)
H7 H 0.3456 0.9650 0.7897
C10 C 0.2163(4) 0.8902(2) 0.7789(2)
H8 H 0.2737 0.8501 0.7961
C11 C -0.3885(4) 0.7252(2) 1.1334(2)
H9 H -0.4759 0.7417 1.1427
C12 C -0.3351(4) 0.7471(2) 1.0694(2)
H10 H -0.3854 0.7784 1.0366
C13 C -0.2054(4) 0.7222(2) 1.0543(2)
C14 C -0.1355(4) 0.6771(2) 1.1064(2)
H11 H -0.0482 0.6594 1.0986
C15 C -0.1937(4) 0.6587(2) 1.1688(2)
H12 H -0.1439 0.6294 1.2030
C16 C -0.1668(4) 0.7733(2) 0.86767(19)
H13 H -0.2225 0.7879 0.8315
C17 C -0.2250(4) 0.7612(2) 0.93116(19)
H14 H -0.3186 0.7669 0.9370
C18 C -0.1454(4) 0.7408(2) 0.98572(19)
C19 C -0.0067(4) 0.7367(3) 0.9733(2)
H15 H 0.0515 0.7254 1.0087
C20 C 0.0459(5) 0.7491(3) 0.9093(2)
H16 H 0.1396 0.7465 0.9022
C21 C 0.5918(4) 1.3179(2) 0.6185(2)
H17 H 0.6552 1.3311 0.6470
H18 H 0.5781 1.2660 0.6321
H19 H 0.6271 1.3306 0.5734
C22 C 0.3641(5) 1.3374(3) 0.5792(2)
H20 H 0.2786 1.3632 0.5818
H21 H 0.4001 1.3500 0.5342
H22 H 0.3512 1.2854 0.5928
C23 C 0.4784(5) 1.4389(2) 0.6016(2)
H23 H 0.5347 1.4504 0.5611
H24 H 0.3907 1.4640 0.5925
C24 C 0.5431(4) 1.4646(2) 0.6541(2)
H25 H 0.5482 1.5177 0.6413
H26 H 0.6348 1.4438 0.6598
C25 C 0.3479(4) 1.4951(2) 0.7199(3)
H27 H 0.2888 1.4961 0.6842
H28 H 0.2981 1.4807 0.7617
H29 H 0.3827 1.5432 0.7152
C26 C 0.5532(5) 1.4406(3) 0.7731(3)
H30 H 0.6275 1.4061 0.7719
H31 H 0.5879 1.4887 0.7683
H32 H 0.5032 1.4262 0.8148
C27 C -0.1398(4) 0.6603(2) 0.7499(2)
H33 H -0.1973 0.6729 0.7843
H34 H -0.1595 0.6934 0.7079
H35 H -0.1559 0.6109 0.7479
C28 C 0.0333(6) 0.6126(3) 0.8286(3)
H36 H 0.1266 0.6158 0.8388
H37 H -0.0248 0.6239 0.8634
H38 H 0.0173 0.5638 0.8249
C29 C 0.0961(5) 0.6470(2) 0.7121(3)
H39 H 0.0682 0.6019 0.7024
H40 H 0.1884 0.6394 0.7273
C30 C 0.0898(5) 0.7084(3) 0.6510(2)
H41 H -0.0009 0.7132 0.6339
H42 H 0.1533 0.6982 0.6171
C31 C 0.0680(5) 0.8402(3) 0.6169(2)
H43 H -0.0291 0.8373 0.6180
H44 H 0.0916 0.8858 0.6260
H45 H 0.1044 0.8379 0.5738
C32 C 0.2755(4) 0.7833(3) 0.6657(2)
H46 H 0.3131 0.7431 0.6987
H47 H 0.3117 0.7810 0.6225
H48 H 0.2988 0.8289 0.6748
Pd1A Pd -0.04569(3) 1.22699(2) 1.23730(2)
Pd2A Pd -0.39129(3) 0.66102(2) 1.27924(2)
N1A N -0.4602(3) 0.64176(17) 1.37676(15)
N2A N -0.4621(3) 0.55809(16) 1.28209(16)
N3A N -0.3251(3) 0.76303(16) 1.27661(15)
N4A N 0.3198(3) 1.31887(17) 0.81727(15)
N5A N -0.0038(3) 1.33390(17) 1.23549(16)
N6A N -0.1250(3) 1.22155(18) 1.33242(15)
N7A N 0.0339(3) 1.23515(17) 1.14330(15)
N8A N -0.0947(3) 1.12177(16) 1.24084(15)
C1A C -0.4067(4) 0.8219(2) 1.2582(2)
H1A H -0.4973 0.8154 1.2511
C2A C -0.3621(4) 0.8923(2) 1.2493(2)
H2A H -0.4225 0.9322 1.2366
C3A C -0.2275(4) 0.9039(2) 1.25903(19)
C4A C -0.1439(4) 0.8417(2) 1.2780(2)
H3A H -0.0528 0.8465 1.2855
C5A C -0.1947(4) 0.7733(2) 1.2858(2)
H4A H -0.1363 0.7324 1.2980
C6A C -0.0117(4) 1.0636(2) 1.2632(2)
H5A H 0.0748 1.0714 1.2756
C7A C -0.0498(4) 0.9929(2) 1.2686(2)
H6A H 0.0112 0.9539 1.2843
C8A C -0.1779(4) 0.9789(2) 1.25089(19)
C9A C -0.2600(5) 1.0408(2) 1.2250(2)
H7A H -0.3456 1.0350 1.2103
C10A C -0.2163(4) 1.1098(2) 1.2211(2)
H8A H -0.2737 1.1499 1.2039
C11A C 0.3885(4) 1.2748(2) 0.8666(2)
H9A H 0.4759 1.2583 0.8573
C12A C 0.3351(4) 1.2529(2) 0.9306(2)
H10A H 0.3854 1.2216 0.9634
C13A C 0.2054(4) 1.2778(2) 0.9457(2)
C14A C 0.1355(4) 1.3229(2) 0.8936(2)
H11A H 0.0482 1.3406 0.9014
C15A C 0.1937(4) 1.3413(2) 0.8312(2)
H12A H 0.1439 1.3706 0.7970
C16A C 0.1668(4) 1.2267(2) 1.13233(19)
H13A H 0.2225 1.2121 1.1685
C17A C 0.2250(4) 1.2388(2) 1.06884(19)
H14A H 0.3186 1.2331 1.0630
C18A C 0.1454(4) 1.2592(2) 1.01428(19)
C19A C 0.0067(4) 1.2633(3) 1.0267(2)
H15A H -0.0515 1.2746 0.9913
C20A C -0.0459(5) 1.2509(3) 1.0907(2)
H16A H -0.1396 1.2535 1.0978
C21A C -0.5918(4) 0.6821(2) 1.3815(2)
H17A H -0.6552 0.6689 1.3530
H18A H -0.5781 0.7340 1.3679
H19A H -0.6271 0.6694 1.4266
C22A C -0.3641(5) 0.6626(3) 1.4208(2)
H20A H -0.2786 0.6368 1.4182
H21A H -0.4001 0.6500 1.4658
H22A H -0.3512 0.7146 1.4072
C23A C -0.4784(5) 0.5611(2) 1.3984(2)
H23A H -0.5347 0.5496 1.4389
H24A H -0.3907 0.5360 1.4075
C24A C -0.5431(4) 0.5354(2) 1.3459(2)
H25A H -0.5482 0.4823 1.3587
H26A H -0.6348 0.5562 1.3402
C25A C -0.3479(4) 0.5049(2) 1.2801(3)
H27A H -0.2888 0.5039 1.3158
H28A H -0.2981 0.5193 1.2383
H29A H -0.3827 0.4568 1.2848
C26A C -0.5532(5) 0.5594(3) 1.2269(3)
H30A H -0.6275 0.5939 1.2281
H31A H -0.5879 0.5113 1.2317
H32A H -0.5032 0.5738 1.1852
C27A C 0.1398(4) 1.3397(2) 1.2501(2)
H33A H 0.1973 1.3271 1.2157
H34A H 0.1595 1.3066 1.2921
H35A H 0.1559 1.3891 1.2521
C28A C -0.0333(6) 1.3874(3) 1.1714(3)
H36A H -0.1266 1.3842 1.1612
H37A H 0.0248 1.3761 1.1366
H38A H -0.0173 1.4362 1.1751
C29A C -0.0961(5) 1.3530(2) 1.2879(3)
H39A H -0.0682 1.3981 1.2976
H40A H -0.1884 1.3606 1.2727
C30A C -0.0898(5) 1.2916(3) 1.3490(2)
H41A H 0.0009 1.2868 1.3661
H42A H -0.1533 1.3018 1.3829
C31A C -0.0680(5) 1.1598(3) 1.3831(2)
H43A H 0.0291 1.1627 1.3820
H44A H -0.0916 1.1142 1.3740
H45A H -0.1044 1.1621 1.4262
C32A C -0.2755(4) 1.2167(3) 1.3343(2)
H46A H -0.3131 1.2569 1.3013
H47A H -0.3117 1.2190 1.3775
H48A H -0.2988 1.1711 1.3252
S1 S 0.54711(11) 0.30961(6) 0.17240(6)
O1 O 0.6821(4) 0.2895(3) 0.1555(2)
O2 O 0.5455(5) 0.3540(2) 0.21951(19)
O3 O 0.4625(4) 0.2476(2) 0.1938(2)
C33 C 0.4750(4) 0.3646(2) 0.0996(2)
C34 C 0.3722(5) 0.4151(2) 0.1052(2)
H49 H 0.3449 0.4221 0.1468
C35 C 0.3101(5) 0.4552(3) 0.0491(3)
H50 H 0.2400 0.4888 0.0532
C36 C 0.3502(6) 0.4464(3) -0.0131(3)
C37 C 0.4556(6) 0.3978(3) -0.0181(3)
H51 H 0.4859 0.3925 -0.0598
C38 C 0.5173(5) 0.3568(3) 0.0375(2)
H52 H 0.5879 0.3235 0.0332
C39 C 0.2794(8) 0.4912(3) -0.0740(3)
H53 H 0.2087 0.5219 -0.0606
H54 H 0.3441 0.5213 -0.1033
H55 H 0.2406 0.4587 -0.0968
S2 S 0.60310(14) 0.15796(7) 0.53654(6)
O4 O 0.7008(4) 0.2138(2) 0.5126(2)
O5 O 0.4745(4) 0.1805(2) 0.5075(2)
O6 O 0.5924(6) 0.1338(2) 0.60704(18)
C40 C 0.6649(5) 0.0805(2) 0.5081(2)
C41 C 0.7731(6) 0.0401(3) 0.5383(3)
H56 H 0.8118 0.0523 0.5740
C42 C 0.8244(7) -0.0189(3) 0.5155(3)
H57 H 0.8979 -0.0463 0.5363
C43 C 0.7702(6) -0.0383(3) 0.4629(3)
C44 C 0.6627(5) 0.0035(3) 0.4328(3)
H58 H 0.6252 -0.0080 0.3965
C45 C 0.6092(5) 0.0621(3) 0.4555(2)
H59 H 0.5350 0.0893 0.4350
C46 C 0.8272(8) -0.1042(3) 0.4399(3)
H60 H 0.9017 -0.1261 0.4669
H61 H 0.7577 -0.1394 0.4439
H62 H 0.8587 -0.0889 0.3943
S3 S 0.01611(11) 0.55860(6) 0.32491(6)
O7 O 0.0190(4) 0.52873(18) 0.26679(16)
O8 O 0.1361(3) 0.59899(18) 0.32893(18)
O9 O -0.1081(3) 0.60050(17) 0.33075(17)
C47 C 0.0153(4) 0.4815(2) 0.3941(2)
C48 C -0.0892(5) 0.4722(3) 0.4405(2)
H63 H -0.1586 0.5080 0.4369
C49 C -0.0933(5) 0.4105(3) 0.4926(2)
H64 H -0.1654 0.4052 0.5238
C50 C 0.0088(5) 0.3565(2) 0.4991(2)
C51 C 0.1147(5) 0.3675(2) 0.4525(2)
H65 H 0.1852 0.3323 0.4566
C52 C 0.1200(4) 0.4287(2) 0.4000(2)
H66 H 0.1924 0.4346 0.3690
C53 C 0.0007(6) 0.2879(3) 0.5553(3)
H67 H -0.0804 0.2907 0.5822
H68 H -0.0015 0.2455 0.5373
H69 H 0.0787 0.2839 0.5821
S4 S 0.6821(2) 1.02830(14) 0.86058(10)
O10 O 0.6158(6) 1.0873(4) 0.8833(4)
O11 O 0.7220(10) 1.0443(6) 0.7975(4)
O12 O 0.6066(16) 0.9700(6) 0.8672(7)
C54 C 0.8621(10) 1.0318(6) 0.8827(5)
C55 C 0.930(3) 0.9690(14) 0.9069(11)
H70 H 0.8878 0.9245 0.9124
C56 C 1.0679(12) 0.9700(6) 0.9242(5)
H71 H 1.1154 0.9259 0.9406
C57 C 1.1317(10) 1.0349(6) 0.9173(4)
C58 C 1.0605(14) 1.0992(8) 0.8925(8)
H72 H 1.1023 1.1439 0.8862
C59 C 0.9230(11) 1.0973(6) 0.8765(5)
H73 H 0.8734 1.1411 0.8617
C60 C 1.2748(13) 1.0349(9) 0.9363(7)
H74 H 1.2770 1.0409 0.9809
H75 H 1.3204 1.0747 0.9064
H76 H 1.3197 0.9892 0.9340
S4A S 1.3179(2) 0.97170(14) 1.13942(10)
O10A O 1.3842(6) 0.9127(4) 1.1167(4)
O11A O 1.2780(10) 0.9557(6) 1.2025(4)
O12A O 1.3934(16) 1.0300(6) 1.1328(7)
C54A C 1.1379(10) 0.9682(6) 1.1173(5)
C55A C 1.070(3) 1.0310(14) 1.0931(11)
H70A H 1.1122 1.0755 1.0876
C56A C 0.9321(12) 1.0300(6) 1.0758(5)
H71A H 0.8846 1.0741 1.0594
C57A C 0.8683(10) 0.9651(6) 1.0827(4)
C58A C 0.9395(14) 0.9008(8) 1.1075(8)
H72A H 0.8977 0.8561 1.1138
C59A C 1.0770(11) 0.9027(6) 1.1235(5)
H73A H 1.1266 0.8589 1.1383
C60A C 0.7252(13) 0.9651(9) 1.0637(7)
H74A H 0.7230 0.9591 1.0191
H75A H 0.6796 0.9253 1.0936
H76A H 0.6803 1.0108 1.0660
O13 O 0.4146(4) 0.3525(2) 0.3409(2)
O14 O 0.7061(4) 0.7799(2) 0.5964(2)
O15 O 0.6063(4) 0.3626(2) 0.4358(2)
O16 O 0.3138(5) 0.1541(2) 0.2987(2)
O17 O 0.8523(5) 0.4397(3) 0.8615(2)
O18 O 0.3845(6) 0.0106(2) 0.3034(2)
O19 O 0.8044(5) 0.1575(2) 0.6945(3)
O20 O 0.7590(6) 0.2970(3) 0.8915(3)
O21 O 0.4621(5) 0.8538(3) 0.8986(3)
O22 O 0.6583(7) 0.1736(3) 0.9752(3)
O23 O 0.8006(9) 0.2726(3) 0.7642(3)
loop_
_geom_bond_atom_site_label_1
_geom_bond_atom_site_label_2
_geom_bond_site_symmetry_1
_geom_bond_site_symmetry_2
Pd1 N5 1_555 1_555
Pd2 N1 1_555 1_555
N1 C21 1_555 1_555
N2 Pd2 1_555 1_555
N3 Pd2 1_555 1_555
N4 C11 1_555 1_555
N5 C27 1_555 1_555
N6 Pd1 1_555 1_555
N7 Pd1 1_555 1_555
N8 Pd1 1_555 1_555
C1 N3 1_555 1_555
H1 C1 1_555 1_555
C2 C1 1_555 1_555
H2 C2 1_555 1_555
C3 C2 1_555 1_555
C4 C3 1_555 1_555
H3 C4 1_555 1_555
C5 N3 1_555 1_555
H4 C5 1_555 1_555
C6 N8 1_555 1_555
H5 C6 1_555 1_555
C7 C6 1_555 1_555
H6 C7 1_555 1_555
C8 C3 1_555 1_555
C9 C8 1_555 1_555
H7 C9 1_555 1_555
C10 N8 1_555 1_555
H8 C10 1_555 1_555
C11 H9 1_555 1_555
C12 C11 1_555 1_555
H10 C12 1_555 1_555
C13 C12 1_555 1_555
C14 C13 1_555 1_555
H11 C14 1_555 1_555
C15 N4 1_555 1_555
H12 C15 1_555 1_555
C16 N7 1_555 1_555
H13 C16 1_555 1_555
C17 C16 1_555 1_555
H14 C17 1_555 1_555
C18 C13 1_555 1_555
C19 C18 1_555 1_555
H15 C19 1_555 1_555
C20 N7 1_555 1_555
H16 C20 1_555 1_555
C21 H17 1_555 1_555
H18 C21 1_555 1_555
H19 C21 1_555 1_555
C22 N1 1_555 1_555
H20 C22 1_555 1_555
H21 C22 1_555 1_555
H22 C22 1_555 1_555
C23 N1 1_555 1_555
H23 C23 1_555 1_555
H24 C23 1_555 1_555
C24 N2 1_555 1_555
H25 C24 1_555 1_555
H26 C24 1_555 1_555
C25 N2 1_555 1_555
H27 C25 1_555 1_555
H28 C25 1_555 1_555
H29 C25 1_555 1_555
C26 N2 1_555 1_555
H30 C26 1_555 1_555
H31 C26 1_555 1_555
H32 C26 1_555 1_555
C27 H33 1_555 1_555
H34 C27 1_555 1_555
H35 C27 1_555 1_555
C28 N5 1_555 1_555
H36 C28 1_555 1_555
H37 C28 1_555 1_555
H38 C28 1_555 1_555
C29 N5 1_555 1_555
H39 C29 1_555 1_555
H40 C29 1_555 1_555
C30 N6 1_555 1_555
H41 C30 1_555 1_555
H42 C30 1_555 1_555
C31 N6 1_555 1_555
H43 C31 1_555 1_555
H44 C31 1_555 1_555
H45 C31 1_555 1_555
C32 N6 1_555 1_555
H46 C32 1_555 1_555
H47 C32 1_555 1_555
H48 C32 1_555 1_555
S1 O1 1_555 1_555
O2 S1 1_555 1_555
O3 S1 1_555 1_555
C33 S1 1_555 1_555
C34 C33 1_555 1_555
H49 C34 1_555 1_555
C35 C34 1_555 1_555
H50 C35 1_555 1_555
C36 C35 1_555 1_555
C37 C36 1_555 1_555
H51 C37 1_555 1_555
C38 C33 1_555 1_555
H52 C38 1_555 1_555
C39 C36 1_555 1_555
H53 C39 1_555 1_555
H54 C39 1_555 1_555
H55 C39 1_555 1_555
S2 O4 1_555 1_555
O5 S2 1_555 1_555
O6 S2 1_555 1_555
C40 S2 1_555 1_555
C41 C40 1_555 1_555
H56 C41 1_555 1_555
C42 C41 1_555 1_555
H57 C42 1_555 1_555
C43 C42 1_555 1_555
C44 C43 1_555 1_555
H58 C44 1_555 1_555
C45 C40 1_555 1_555
H59 C45 1_555 1_555
C46 C43 1_555 1_555
H60 C46 1_555 1_555
H61 C46 1_555 1_555
H62 C46 1_555 1_555
S3 O7 1_555 1_555
O8 S3 1_555 1_555
O9 S3 1_555 1_555
C47 S3 1_555 1_555
C48 C47 1_555 1_555
H63 C48 1_555 1_555
C49 C48 1_555 1_555
H64 C49 1_555 1_555
C50 C49 1_555 1_555
C51 C50 1_555 1_555
H65 C51 1_555 1_555
C52 C47 1_555 1_555
H66 C52 1_555 1_555
C53 C50 1_555 1_555
H67 C53 1_555 1_555
H68 C53 1_555 1_555
H69 C53 1_555 1_555
S4 O10 1_555 1_555
O11 S4 1_555 1_555
O12 S4 1_555 1_555
C54 S4 1_555 1_555
C55 C54 1_555 1_555
H70 C55 1_555 1_555
C56 C55 1_555 1_555
H71 C56 1_555 1_555
C57 C56 1_555 1_555
C58 C57 1_555 1_555
H72 C58 1_555 1_555
C59 C54 1_555 1_555
H73 C59 1_555 1_555
C60 C57 1_555 1_555
H74 C60 1_555 1_555
H75 C60 1_555 1_555
H76 C60 1_555 1_555
Pd1A N5A 1_555 1_555
Pd2A N4 1_555 1_555
N1A Pd2A 1_555 1_555
N2A Pd2A 1_555 1_555
N3A Pd2A 1_555 1_555
N4A Pd2 1_555 1_555
N5A C27A 1_555 1_555
N6A Pd1A 1_555 1_555
N7A Pd1A 1_555 1_555
N8A Pd1A 1_555 1_555
C1A N3A 1_555 1_555
H1A C1A 1_555 1_555
C2A C1A 1_555 1_555
H2A C2A 1_555 1_555
C3A C2A 1_555 1_555
C4A C3A 1_555 1_555
H3A C4A 1_555 1_555
C5A N3A 1_555 1_555
H4A C5A 1_555 1_555
C6A N8A 1_555 1_555
H5A C6A 1_555 1_555
C7A C6A 1_555 1_555
H6A C7A 1_555 1_555
C8A C3A 1_555 1_555
C9A C8A 1_555 1_555
H7A C9A 1_555 1_555
C10A N8A 1_555 1_555
H8A C10A 1_555 1_555
C11A N4A 1_555 1_555
H9A C11A 1_555 1_555
C12A C11A 1_555 1_555
H10A C12A 1_555 1_555
C13A C12A 1_555 1_555
C14A C13A 1_555 1_555
H11A C14A 1_555 1_555
C15A N4A 1_555 1_555
H12A C15A 1_555 1_555
C16A N7A 1_555 1_555
H13A C16A 1_555 1_555
C17A C16A 1_555 1_555
H14A C17A 1_555 1_555
C18A C13A 1_555 1_555
C19A C18A 1_555 1_555
H15A C19A 1_555 1_555
C20A N7A 1_555 1_555
H16A C20A 1_555 1_555
C21A N1A 1_555 1_555
H17A C21A 1_555 1_555
H18A C21A 1_555 1_555
H19A C21A 1_555 1_555
C22A N1A 1_555 1_555
H20A C22A 1_555 1_555
H21A C22A 1_555 1_555
H22A C22A 1_555 1_555
C23A N1A 1_555 1_555
H23A C23A 1_555 1_555
H24A C23A 1_555 1_555
C24A N2A 1_555 1_555
H25A C24A 1_555 1_555
H26A C24A 1_555 1_555
C25A N2A 1_555 1_555
H27A C25A 1_555 1_555
H28A C25A 1_555 1_555
H29A C25A 1_555 1_555
C26A N2A 1_555 1_555
H30A C26A 1_555 1_555
H31A C26A 1_555 1_555
H32A C26A 1_555 1_555
C27A H33A 1_555 1_555
H34A C27A 1_555 1_555
H35A C27A 1_555 1_555
C28A N5A 1_555 1_555
H36A C28A 1_555 1_555
H37A C28A 1_555 1_555
H38A C28A 1_555 1_555
C29A N5A 1_555 1_555
H39A C29A 1_555 1_555
H40A C29A 1_555 1_555
C30A N6A 1_555 1_555
H41A C30A 1_555 1_555
H42A C30A 1_555 1_555
C31A N6A 1_555 1_555
H43A C31A 1_555 1_555
H44A C31A 1_555 1_555
H45A C31A 1_555 1_555
C32A N6A 1_555 1_555
H46A C32A 1_555 1_555
H47A C32A 1_555 1_555
H48A C32A 1_555 1_555
S4A O10A 1_555 1_555
O11A S4A 1_555 1_555
O12A S4A 1_555 1_555
C54A S4A 1_555 1_555
C55A C54A 1_555 1_555
H70A C55A 1_555 1_555
C56A C55A 1_555 1_555
H71A C56A 1_555 1_555
C57A C56A 1_555 1_555
C58A C57A 1_555 1_555
H72A C58A 1_555 1_555
C59A C54A 1_555 1_555
H73A C59A 1_555 1_555
C60A C57A 1_555 1_555
H74A C60A 1_555 1_555
H75A C60A 1_555 1_555
H76A C60A 1_555 1_555
C4 C5 1_555 1_555
C7 C8 1_555 1_555
C9 C10 1_555 1_555
C14 C15 1_555 1_555
C17 C18 1_555 1_555
C19 C20 1_555 1_555
C23 C24 1_555 1_555
C29 C30 1_555 1_555
C37 C38 1_555 1_555
C44 C45 1_555 1_555
C51 C52 1_555 1_555
C58 C59 1_555 1_555
C4A C5A 1_555 1_555
C7A C8A 1_555 1_555
C9A C10A 1_555 1_555
C14A C15A 1_555 1_555
C17A C18A 1_555 1_555
C19A C20A 1_555 1_555
C23A C24A 1_555 1_555
C29A C30A 1_555 1_555
C58A C59A 1_555 1_555

#END
