
#######################################################################
#
#                 Cambridge Crystallographic Data Centre
#                                CCDC 
#
#######################################################################
#
# If this CIF has been generated from an entry in the Cambridge 
# Structural Database, then it will include bibliographic, chemical, 
# crystal, experimental, refinement or atomic coordinate data resulting 
# from the CCDC's data processing and validation procedures.
#
#######################################################################

data_SERWOE
_chemical_formula_moiety         
'C88 H64 N16 Pd4 8+,8(C7 H7 O3 S1 1-),24.9(H2 O1)'
_chemical_name_systematic        
"tetrakis(\m-4,4'-bipyridine)-tetrakis(1,10-phenanthroline)-tetra-palladium octakis(4-methylbenzene-1-sulfonate) hydrate"
_symmetry_cell_setting           triclinic
_symmetry_space_group_name_H-M   'P -1'
_symmetry_Int_Tables_number      2
_space_group_name_Hall           '-P 1'
loop_
_symmetry_equiv_pos_site_id
_symmetry_equiv_pos_as_xyz
1 x,y,z
2 -x,-y,-z
_cell_length_a                   9.5734(4)
_cell_length_b                   17.7586(7)
_cell_length_c                   23.9228(9)
_cell_angle_alpha                104.0070(10)
_cell_angle_beta                 91.9320(10)
_cell_angle_gamma                102.6910(10)
_cell_volume                     3833.53
_exptl_crystal_colour            white
_exptl_crystal_description       Needle
_cell_formula_units_Z            1
loop_
_atom_site_label
_atom_site_type_symbol
_atom_site_fract_x
_atom_site_fract_y
_atom_site_fract_z
Pd1 Pd 0.24623(2) 0.13205(2) 0.42854(2)
Pd2 Pd 0.07973(2) 0.53855(2) 0.16219(2)
N1 N 0.33315(15) 0.06689(8) 0.36422(6)
N2 N 0.28039(14) 0.04880(8) 0.46957(6)
N3 N 0.16913(15) 0.19816(8) 0.49633(6)
N4 N -0.02245(15) 0.40224(8) 0.76187(6)
N5 N 0.16213(15) 0.48948(8) 0.08895(6)
N6 N 0.21113(15) 0.20654(8) 0.38110(6)
N7 N 0.03965(15) 0.61313(8) 0.11442(6)
N8 N 0.11062(15) 0.45760(8) 0.20470(6)
C1 C 0.36448(17) 0.00142(9) 0.37777(7)
C2 C 0.42518(18) -0.05298(10) 0.33999(7)
C3 C 0.45887(19) -0.03731(11) 0.28628(8)
H1 H 0.5025 -0.0720 0.2595
C4 C 0.4278(2) 0.02854(12) 0.27328(8)
H2 H 0.4497 0.0396 0.2372
C5 C 0.36370(18) 0.07968(10) 0.31294(7)
H3 H 0.3415 0.1246 0.3029
C6 C 0.33353(16) -0.00894(9) 0.43381(7)
C7 C 0.36106(17) -0.07523(10) 0.45075(8)
C8 C 0.33285(18) -0.08080(10) 0.50743(8)
H4 H 0.3496 -0.1246 0.5207
C9 C 0.28068(18) -0.02191(10) 0.54305(8)
H5 H 0.2620 -0.0247 0.5813
C10 C 0.25496(17) 0.04239(10) 0.52283(7)
H6 H 0.2184 0.0824 0.5479
C11 C 0.41772(19) -0.13211(10) 0.41026(8)
H7 H 0.4336 -0.1781 0.4206
C12 C 0.44916(19) -0.12137(10) 0.35737(8)
H8 H 0.4876 -0.1597 0.3315
C13 C 0.04045(17) 0.17209(9) 0.51442(7)
H9 H -0.0201 0.1230 0.4927
C14 C -0.00689(17) 0.21447(10) 0.56374(7)
H10 H -0.0987 0.1947 0.5755
C15 C 0.08147(17) 0.28643(9) 0.59607(7)
C16 C 0.21090(18) 0.31501(10) 0.57495(7)
H11 H 0.2709 0.3654 0.5945
C17 C 0.25163(18) 0.26973(10) 0.52543(7)
H12 H 0.3404 0.2896 0.5115
C18 C 0.04353(17) 0.32900(9) 0.65259(7)
C19 C -0.09920(17) 0.32620(9) 0.66467(7)
H13 H -0.1756 0.2989 0.6355
C20 C -0.12834(17) 0.36342(10) 0.71920(7)
H14 H -0.2255 0.3617 0.7270
C21 C 0.11529(17) 0.40664(10) 0.75076(7)
H15 H 0.1896 0.4347 0.7806
C22 C 0.15160(17) 0.37109(10) 0.69662(7)
H16 H 0.2498 0.3754 0.6896
C23 C 0.16889(17) 0.53477(9) 0.04995(7)
C24 C 0.23704(17) 0.51888(10) -0.00111(7)
C25 C 0.30552(19) 0.45455(11) -0.01054(8)
H17 H 0.3559 0.4426 -0.0439
C26 C 0.2984(2) 0.40959(11) 0.02907(8)
H18 H 0.3439 0.3662 0.0232
C27 C 0.22360(19) 0.42781(10) 0.07835(7)
H19 H 0.2169 0.3952 0.1048
C28 C 0.10008(17) 0.59986(9) 0.06308(7)
C29 C 0.09410(18) 0.64619(10) 0.02336(7)
C30 C 0.01658(19) 0.70634(11) 0.03719(8)
H20 H 0.0090 0.7389 0.0116
C31 C -0.04780(19) 0.71728(11) 0.08804(8)
H21 H -0.1021 0.7567 0.0974
C32 C -0.03308(18) 0.66992(10) 0.12628(7)
H22 H -0.0765 0.6788 0.1617
C33 C 0.23379(19) 0.56835(11) -0.04017(7)
H23 H 0.2807 0.5587 -0.0747
C34 C 0.16483(19) 0.62884(11) -0.02878(8)
H24 H 0.1633 0.6602 -0.0557
C35 C -0.00471(18) 0.41126(10) 0.22089(7)
H25 H -0.0984 0.4146 0.2091
C36 C 0.01000(18) 0.35930(10) 0.25403(8)
H26 H -0.0726 0.3282 0.2655
C37 C 0.14715(18) 0.35290(10) 0.27052(7)
C38 C 0.26517(19) 0.39940(11) 0.25204(8)
H27 H 0.3599 0.3952 0.2614
C39 C 0.24289(18) 0.45157(10) 0.22008(8)
H28 H 0.3237 0.4842 0.2087
C40 C 0.16820(18) 0.30198(10) 0.30918(7)
C41 C 0.06412(18) 0.23360(11) 0.30969(8)
H29 H -0.0229 0.2190 0.2852
C42 C 0.08869(18) 0.18724(10) 0.34622(7)
H30 H 0.0175 0.1408 0.3466
C43 C 0.31185(18) 0.27294(10) 0.38169(7)
H31 H 0.3975 0.2864 0.4068
C44 C 0.29343(19) 0.32194(10) 0.34654(8)
H32 H 0.3653 0.3688 0.3478
Pd1A Pd -0.24623(2) 0.86795(2) 0.57146(2)
Pd2A Pd -0.07973(2) 0.46145(2) 0.83781(2)
N1A N -0.33315(15) 0.93311(8) 0.63578(6)
N2A N -0.28039(14) 0.95120(8) 0.53043(6)
N3A N -0.16913(15) 0.80184(8) 0.50367(6)
N4A N 0.02245(15) 0.59776(8) 0.23813(6)
N5A N -0.16213(15) 0.51052(8) 0.91105(6)
N6A N -0.21113(15) 0.79346(8) 0.61890(6)
N7A N -0.03965(15) 0.38687(8) 0.88558(6)
N8A N -0.11062(15) 0.54240(8) 0.79530(6)
C1A C -0.36448(17) 0.99858(9) 0.62223(7)
C2A C -0.42518(18) 1.05298(10) 0.66001(7)
C3A C -0.45887(19) 1.03731(11) 0.71372(8)
H1A H -0.5025 1.0720 0.7405
C4A C -0.4278(2) 0.97146(12) 0.72672(8)
H2A H -0.4497 0.9604 0.7628
C5A C -0.36370(18) 0.92032(10) 0.68706(7)
H3A H -0.3415 0.8754 0.6971
C6A C -0.33353(16) 1.00894(9) 0.56619(7)
C7A C -0.36106(17) 1.07523(10) 0.54925(8)
C8A C -0.33285(18) 1.08080(10) 0.49257(8)
H4A H -0.3496 1.1246 0.4793
C9A C -0.28068(18) 1.02191(10) 0.45695(8)
H5A H -0.2620 1.0247 0.4187
C10A C -0.25496(17) 0.95761(10) 0.47717(7)
H6A H -0.2184 0.9176 0.4521
C11A C -0.41772(19) 1.13211(10) 0.58974(8)
H7A H -0.4336 1.1781 0.5794
C12A C -0.44916(19) 1.12137(10) 0.64263(8)
H8A H -0.4876 1.1597 0.6685
C13A C -0.04045(17) 0.82791(9) 0.48558(7)
H9A H 0.0201 0.8770 0.5073
C14A C 0.00689(17) 0.78553(10) 0.43626(7)
H10A H 0.0987 0.8053 0.4245
C15A C -0.08147(17) 0.71357(9) 0.40393(7)
C16A C -0.21090(18) 0.68499(10) 0.42505(7)
H11A H -0.2709 0.6346 0.4055
C17A C -0.25163(18) 0.73027(10) 0.47457(7)
H12A H -0.3404 0.7104 0.4885
C18A C -0.04353(17) 0.67100(9) 0.34741(7)
C19A C 0.09920(17) 0.67380(9) 0.33533(7)
H13A H 0.1756 0.7011 0.3645
C20A C 0.12834(17) 0.63658(10) 0.28080(7)
H14A H 0.2255 0.6383 0.2730
C21A C -0.11529(17) 0.59336(10) 0.24924(7)
H15A H -0.1896 0.5653 0.2194
C22A C -0.15160(17) 0.62891(10) 0.30338(7)
H16A H -0.2498 0.6246 0.3104
C23A C -0.16889(17) 0.46523(9) 0.95005(7)
C24A C -0.23704(17) 0.48112(10) 1.00111(7)
C25A C -0.30552(19) 0.54545(11) 1.01054(8)
H17A H -0.3559 0.5574 1.0439
C26A C -0.2984(2) 0.59041(11) 0.97093(8)
H18A H -0.3439 0.6338 0.9768
C27A C -0.22360(19) 0.57219(10) 0.92165(7)
H19A H -0.2169 0.6048 0.8952
C28A C -0.10008(17) 0.40014(9) 0.93692(7)
C29A C -0.09410(18) 0.35381(10) 0.97664(7)
C30A C -0.01658(19) 0.29366(11) 0.96281(8)
H20A H -0.0090 0.2611 0.9884
C31A C 0.04780(19) 0.28272(11) 0.91196(8)
H21A H 0.1021 0.2433 0.9026
C32A C 0.03308(18) 0.33008(10) 0.87372(7)
H22A H 0.0765 0.3212 0.8383
C33A C -0.23379(19) 0.43165(11) 1.04017(7)
H23A H -0.2807 0.4413 1.0747
C34A C -0.16483(19) 0.37116(11) 1.02878(8)
H24A H -0.1633 0.3398 1.0557
C35A C 0.00471(18) 0.58874(10) 0.77911(7)
H25A H 0.0984 0.5854 0.7909
C36A C -0.01000(18) 0.64070(10) 0.74597(8)
H26A H 0.0726 0.6718 0.7345
C37A C -0.14715(18) 0.64710(10) 0.72948(7)
C38A C -0.26517(19) 0.60060(11) 0.74796(8)
H27A H -0.3599 0.6048 0.7386
C39A C -0.24289(18) 0.54843(10) 0.77992(8)
H28A H -0.3237 0.5158 0.7913
C40A C -0.16820(18) 0.69802(10) 0.69082(7)
C41A C -0.06412(18) 0.76640(11) 0.69031(8)
H29A H 0.0229 0.7810 0.7148
C42A C -0.08869(18) 0.81276(10) 0.65378(7)
H30A H -0.0175 0.8592 0.6534
C43A C -0.31185(18) 0.72706(10) 0.61831(7)
H31A H -0.3975 0.7136 0.5932
C44A C -0.29343(19) 0.67806(10) 0.65346(8)
H32A H -0.3653 0.6312 0.6522
O1 O 0.87053(16) -0.13208(9) 0.35998(6)
O2 O 0.9831(2) 0.00744(14) 0.36857(8)
O3 O 0.77448(15) -0.06032(9) 0.29982(7)
S1 S 0.90292(5) -0.06798(3) 0.33064(2)
C45 C 1.01588(19) -0.09783(11) 0.27641(7)
C46 C 1.0763(2) -0.16238(11) 0.27601(8)
H33 H 1.0575 -0.1907 0.3050
C47 C 1.1643(2) -0.18553(11) 0.23316(8)
H34 H 1.2058 -0.2294 0.2334
C48 C 1.1924(2) -0.14526(12) 0.18981(8)
C49 C 1.1303(3) -0.08082(13) 0.19078(10)
H35 H 1.1475 -0.0531 0.1614
C50 C 1.0441(2) -0.05650(12) 0.23364(9)
H36 H 1.0042 -0.0119 0.2340
C51 C 1.2911(2) -0.16921(14) 0.14469(10)
H37 H 1.2999 -0.2236 0.1430
H38 H 1.3861 -0.1324 0.1548
H39 H 1.2514 -0.1672 0.1069
O4 O 0.7815(2) 0.07965(11) 0.26683(10)
H40 H 0.7480 0.0730 0.2313
H41 H 0.7666 0.0337 0.2752
O5 O 0.7839(2) 0.09239(11) 0.15348(9)
H42 H 0.8764 0.1091 0.1536
H43 H 0.7639 0.0823 0.1865
O6 O 0.33211(17) 0.17962(10) 0.21513(7)
O7 O 0.25126(17) 0.22952(9) 0.13697(7)
O8 O 0.07885(18) 0.14476(11) 0.18007(8)
S2 S 0.22665(5) 0.16472(3) 0.16608(2)
C52 C 0.2530(2) 0.07954(11) 0.11496(8)
C53 C 0.3881(2) 0.06298(12) 0.11262(8)
H44 H 0.4668 0.0974 0.1383
C54 C 0.4078(2) -0.00413(12) 0.07258(9)
H45 H 0.5002 -0.0154 0.0712
C55 C 0.2937(2) -0.05519(11) 0.03425(8)
C56 C 0.1594(2) -0.03727(12) 0.03704(8)
H46 H 0.0809 -0.0713 0.0111
C57 C 0.1377(2) 0.02947(12) 0.07703(8)
H47 H 0.0452 0.0408 0.0785
C58 C 0.3153(2) -0.12840(13) -0.00860(9)
H48 H 0.3881 -0.1124 -0.0340
H49 H 0.2244 -0.1567 -0.0319
H50 H 0.3476 -0.1636 0.0122
O9 O 0.2858(3) 0.70690(16) 0.46286(11)
O10 O 0.44427(19) 0.64355(13) 0.50632(13)
O11 O 0.3993(2) 0.76793(14) 0.56103(11)
S3 S 0.34062(9) 0.69365(6) 0.51621(6)
C59 C 0.19443(18) 0.63790(10) 0.54354(8)
C60 C 0.05371(19) 0.63217(11) 0.52390(8)
H51 H 0.0339 0.6587 0.4956
C61 C -0.05849(19) 0.58707(11) 0.54615(9)
H52 H -0.1551 0.5831 0.5328
C62 C -0.0312(2) 0.54782(11) 0.58751(8)
C63 C 0.1112(2) 0.55573(12) 0.60746(9)
H53 H 0.1312 0.5301 0.6363
C64 C 0.2240(2) 0.60046(12) 0.58587(8)
H54 H 0.3206 0.6055 0.5998
C65 C -0.1524(2) 0.49458(12) 0.60845(10)
H55 H -0.2431 0.5088 0.6007
H56 H -0.1338 0.5016 0.6501
H57 H -0.1591 0.4387 0.5881
O12 O 0.61625(16) 0.65115(8) 0.21753(6)
O13 O 0.36798(15) 0.65229(9) 0.19102(7)
O14 O 0.49224(15) 0.56685(8) 0.12669(6)
S4 S 0.50590(4) 0.64169(2) 0.17108(2)
C66 C 0.57033(17) 0.71914(10) 0.13693(7)
C67 C 0.65665(19) 0.79209(11) 0.16845(8)
H58 H 0.6821 0.8009 0.2086
C68 C 0.70524(19) 0.85191(11) 0.14062(9)
H59 H 0.7625 0.9019 0.1623
C69 C 0.67130(19) 0.83973(11) 0.08140(8)
C70 C 0.58128(19) 0.76734(11) 0.05077(8)
H60 H 0.5541 0.7589 0.0108
C71 C 0.53093(18) 0.70734(10) 0.07837(7)
H61 H 0.4696 0.6583 0.0572
C72 C 0.7344(2) 0.90205(13) 0.05040(11)
H62 H 0.7442 0.9554 0.0762
H63 H 0.6708 0.8960 0.0158
H64 H 0.8292 0.8953 0.0390
O15 O 0.62164(17) 0.74430(8) 0.32724(6)
H65 H 0.6199 0.7171 0.2915
H66 H 0.6974 0.7839 0.3354
O16 O 0.42092(17) 0.63630(10) 0.36252(7)
H67 H 0.4809 0.6739 0.3522
H68 H 0.3906 0.6562 0.3955
O17 O 0.5338(2) 0.50985(10) 0.36868(9)
H69 H 0.5434 0.5109 0.4051
H70 H 0.4968 0.5491 0.3647
O18 O 0.65251(19) 0.43877(10) 0.27205(8)
H71 H 0.6372 0.3889 0.2729
H72 H 0.6076 0.4638 0.2990
O19 O 0.59965(19) 0.44965(9) 0.16264(8)
H73 H 0.5621 0.4859 0.1538
H74 H 0.6023 0.4553 0.1999
O20 O 0.51217(18) 0.29271(10) 0.09742(7)
H75 H 0.4304 0.2688 0.1071
H76 H 0.5322 0.3430 0.1161
O21 O 0.72606(17) 0.24039(10) 0.15033(7)
H77 H 0.7008 0.2554 0.1852
H78 H 0.6610 0.2439 0.1253
O22 O 0.99970(17) 0.27052(10) 0.09883(7)
H79 H 0.9248 0.2620 0.1181
H80 H 1.0673 0.2522 0.1121
O23 O 0.60090(18) 0.27804(10) 0.25420(7)
H81 H 0.5128 0.2545 0.2401
H82 H 0.6233 0.2594 0.2828
O24 O 0.6982(2) 0.20622(13) 0.32827(8)
H83 H 0.6592 0.2140 0.3609
H84 H 0.7335 0.1643 0.3236
H85? H 0.7527 0.1137 0.2940
O25? O 0.759(3) -0.0869(14) 0.3267(14)
O26? O 0.961(4) 0.019(4) 0.3731(13)
O27? O 0.820(3) 0.0298(15) 0.2907(12)
S5? S 0.8733(11) -0.0233(6) 0.3188(5)
C73? C 0.9894(12) -0.0680(7) 0.2724(5)
C74? C 1.027(2) -0.1371(10) 0.2803(8)
H86? H 0.9889 -0.1605 0.3100
C75? C 1.119(2) -0.1710(12) 0.2444(10)
H87? H 1.1455 -0.2174 0.2500
C76? C 1.174(2) -0.1380(14) 0.1999(10)
C77? C 1.135(4) -0.0696(18) 0.1924(12)
H88? H 1.1712 -0.0468 0.1622
C78? C 1.044(3) -0.0347(14) 0.2285(10)
H89? H 1.0187 0.0121 0.2231
C79? C 1.270(3) -0.1767(19) 0.1594(13)
H90? H 1.3212 -0.2066 0.1790
H91? H 1.3405 -0.1354 0.1477
H92? H 1.2119 -0.2131 0.1250
O28? O 0.263(4) 0.722(2) 0.4658(14)
O29? O 0.425(2) 0.6237(13) 0.4806(13)
O30? O 0.409(3) 0.7465(13) 0.5424(11)
S6? S 0.3324(15) 0.6778(10) 0.4972(9)
H93? H 0.6262 0.4415 0.2377
H94? H 0.5461 0.4025 0.1457
H95? H 0.5817 0.2775 0.1126
H96? H 0.7369 0.1916 0.1442
H97? H 0.7424 0.1306 0.1506
H98? H 0.6142 0.3292 0.2581
H99? H 0.6569 0.2264 0.3044
O31? O 0.5721(10) 0.5167(5) 0.4804(4)
H100? H 0.5493 0.4710 0.4891
H101? H 0.5181 0.5474 0.4972
O32? O 0.4572(8) 0.4804(3) 0.4688(3)
H102? H 0.4453 0.5273 0.4859
H103? H 0.5052 0.4632 0.4926
H104? H 0.4603 0.5963 0.3616
loop_
_geom_bond_atom_site_label_1
_geom_bond_atom_site_label_2
_geom_bond_site_symmetry_1
_geom_bond_site_symmetry_2
Pd1 N1 1_555 1_555
Pd2 N5 1_555 1_555
N1 C1 1_555 1_555
N2 Pd1 1_555 1_555
N3 Pd1 1_555 1_555
N4 C20 1_555 1_555
N5 C23 1_555 1_555
N6 Pd1 1_555 1_555
N7 Pd2 1_555 1_555
N8 Pd2 1_555 1_555
C1 C2 1_555 1_555
C2 C3 1_555 1_555
C3 H1 1_555 1_555
C4 C3 1_555 1_555
H2 C4 1_555 1_555
C5 N1 1_555 1_555
H3 C5 1_555 1_555
C6 N2 1_555 1_555
C7 C6 1_555 1_555
C8 C7 1_555 1_555
H4 C8 1_555 1_555
C9 C8 1_555 1_555
H5 C9 1_555 1_555
C10 N2 1_555 1_555
H6 C10 1_555 1_555
C11 C7 1_555 1_555
H7 C11 1_555 1_555
C12 C2 1_555 1_555
H8 C12 1_555 1_555
C13 N3 1_555 1_555
H9 C13 1_555 1_555
C14 C13 1_555 1_555
H10 C14 1_555 1_555
C15 C14 1_555 1_555
C16 C15 1_555 1_555
H11 C16 1_555 1_555
C17 N3 1_555 1_555
H12 C17 1_555 1_555
C18 C15 1_555 1_555
C19 C18 1_555 1_555
H13 C19 1_555 1_555
C20 C19 1_555 1_555
H14 C20 1_555 1_555
C21 N4 1_555 1_555
H15 C21 1_555 1_555
C22 C18 1_555 1_555
H16 C22 1_555 1_555
C23 C24 1_555 1_555
C24 C25 1_555 1_555
C25 H17 1_555 1_555
C26 C25 1_555 1_555
H18 C26 1_555 1_555
C27 N5 1_555 1_555
H19 C27 1_555 1_555
C28 N7 1_555 1_555
C29 C28 1_555 1_555
C30 C29 1_555 1_555
H20 C30 1_555 1_555
C31 C30 1_555 1_555
H21 C31 1_555 1_555
C32 N7 1_555 1_555
H22 C32 1_555 1_555
C33 C24 1_555 1_555
H23 C33 1_555 1_555
C34 C29 1_555 1_555
H24 C34 1_555 1_555
C35 N8 1_555 1_555
H25 C35 1_555 1_555
C36 C35 1_555 1_555
H26 C36 1_555 1_555
C37 C36 1_555 1_555
C38 C37 1_555 1_555
H27 C38 1_555 1_555
C39 N8 1_555 1_555
H28 C39 1_555 1_555
C40 C37 1_555 1_555
C41 C40 1_555 1_555
H29 C41 1_555 1_555
C42 N6 1_555 1_555
H30 C42 1_555 1_555
C43 N6 1_555 1_555
H31 C43 1_555 1_555
C44 C40 1_555 1_555
H32 C44 1_555 1_555
O1 S1 1_555 1_555
O2 S1 1_555 1_555
O3 S1 1_555 1_555
S1 C45 1_555 1_555
C45 C46 1_555 1_555
C46 H33 1_555 1_555
C47 C46 1_555 1_555
H34 C47 1_555 1_555
C48 C47 1_555 1_555
C49 C48 1_555 1_555
H35 C49 1_555 1_555
C50 C45 1_555 1_555
H36 C50 1_555 1_555
C51 C48 1_555 1_555
H37 C51 1_555 1_555
H38 C51 1_555 1_555
H39 C51 1_555 1_555
O4 H40 1_555 1_555
H41 O4 1_555 1_555
O5 H42 1_555 1_555
H43 O5 1_555 1_555
O6 S2 1_555 1_555
O7 S2 1_555 1_555
O8 S2 1_555 1_555
S2 C52 1_555 1_555
C52 C53 1_555 1_555
C53 H44 1_555 1_555
C54 C53 1_555 1_555
H45 C54 1_555 1_555
C55 C54 1_555 1_555
C56 C55 1_555 1_555
H46 C56 1_555 1_555
C57 C52 1_555 1_555
H47 C57 1_555 1_555
C58 C55 1_555 1_555
H48 C58 1_555 1_555
H49 C58 1_555 1_555
H50 C58 1_555 1_555
O9 S3 1_555 1_555
O10 S3 1_555 1_555
O11 S3 1_555 1_555
S3 C59 1_555 1_555
C59 C60 1_555 1_555
C60 H51 1_555 1_555
C61 C60 1_555 1_555
H52 C61 1_555 1_555
C62 C61 1_555 1_555
C63 C62 1_555 1_555
H53 C63 1_555 1_555
C64 C59 1_555 1_555
H54 C64 1_555 1_555
C65 C62 1_555 1_555
H55 C65 1_555 1_555
H56 C65 1_555 1_555
H57 C65 1_555 1_555
O12 S4 1_555 1_555
O13 S4 1_555 1_555
O14 S4 1_555 1_555
S4 C66 1_555 1_555
C66 C67 1_555 1_555
C67 H58 1_555 1_555
C68 C67 1_555 1_555
H59 C68 1_555 1_555
C69 C68 1_555 1_555
C70 C69 1_555 1_555
H60 C70 1_555 1_555
C71 C66 1_555 1_555
H61 C71 1_555 1_555
C72 C69 1_555 1_555
H62 C72 1_555 1_555
H63 C72 1_555 1_555
H64 C72 1_555 1_555
O15 H65 1_555 1_555
H66 O15 1_555 1_555
O16 H67 1_555 1_555
H68 O16 1_555 1_555
O17 H69 1_555 1_555
H70 O17 1_555 1_555
O18 H71 1_555 1_555
H72 O18 1_555 1_555
O19 H73 1_555 1_555
H74 O19 1_555 1_555
O20 H75 1_555 1_555
H76 O20 1_555 1_555
O21 H77 1_555 1_555
H78 O21 1_555 1_555
O22 H79 1_555 1_555
H80 O22 1_555 1_555
O23 H81 1_555 1_555
H82 O23 1_555 1_555
O24 H83 1_555 1_555
H84 O24 1_555 1_555
Pd1A N1A 1_555 1_555
Pd2A N4 1_555 1_555
N1A C1A 1_555 1_555
N2A Pd1A 1_555 1_555
N3A Pd1A 1_555 1_555
N4A Pd2 1_555 1_555
N5A Pd2A 1_555 1_555
N6A Pd1A 1_555 1_555
N7A Pd2A 1_555 1_555
N8A Pd2A 1_555 1_555
C1A C2A 1_555 1_555
C2A C3A 1_555 1_555
C3A H1A 1_555 1_555
C4A C3A 1_555 1_555
H2A C4A 1_555 1_555
C5A N1A 1_555 1_555
H3A C5A 1_555 1_555
C6A N2A 1_555 1_555
C7A C6A 1_555 1_555
C8A C7A 1_555 1_555
H4A C8A 1_555 1_555
C9A C8A 1_555 1_555
H5A C9A 1_555 1_555
C10A N2A 1_555 1_555
H6A C10A 1_555 1_555
C11A C7A 1_555 1_555
H7A C11A 1_555 1_555
C12A C2A 1_555 1_555
H8A C12A 1_555 1_555
C13A N3A 1_555 1_555
H9A C13A 1_555 1_555
C14A C13A 1_555 1_555
H10A C14A 1_555 1_555
C15A C14A 1_555 1_555
C16A C15A 1_555 1_555
H11A C16A 1_555 1_555
C17A N3A 1_555 1_555
H12A C17A 1_555 1_555
C18A C15A 1_555 1_555
C19A C18A 1_555 1_555
H13A C19A 1_555 1_555
C20A N4A 1_555 1_555
H14A C20A 1_555 1_555
C21A N4A 1_555 1_555
H15A C21A 1_555 1_555
C22A C18A 1_555 1_555
H16A C22A 1_555 1_555
C23A N5A 1_555 1_555
C24A C23A 1_555 1_555
C25A C24A 1_555 1_555
H17A C25A 1_555 1_555
C26A C25A 1_555 1_555
H18A C26A 1_555 1_555
C27A N5A 1_555 1_555
H19A C27A 1_555 1_555
C28A N7A 1_555 1_555
C29A C28A 1_555 1_555
C30A C29A 1_555 1_555
H20A C30A 1_555 1_555
C31A C30A 1_555 1_555
H21A C31A 1_555 1_555
C32A N7A 1_555 1_555
H22A C32A 1_555 1_555
C33A C24A 1_555 1_555
H23A C33A 1_555 1_555
C34A C29A 1_555 1_555
H24A C34A 1_555 1_555
C35A N8A 1_555 1_555
H25A C35A 1_555 1_555
C36A C35A 1_555 1_555
H26A C36A 1_555 1_555
C37A C36A 1_555 1_555
C38A C37A 1_555 1_555
H27A C38A 1_555 1_555
C39A N8A 1_555 1_555
H28A C39A 1_555 1_555
C40A C37A 1_555 1_555
C41A C40A 1_555 1_555
H29A C41A 1_555 1_555
C42A N6A 1_555 1_555
H30A C42A 1_555 1_555
C43A N6A 1_555 1_555
H31A C43A 1_555 1_555
C44A C40A 1_555 1_555
H32A C44A 1_555 1_555
C1 C6 1_555 1_555
C4 C5 1_555 1_555
C9 C10 1_555 1_555
C11 C12 1_555 1_555
C16 C17 1_555 1_555
C21 C22 1_555 1_555
C23 C28 1_555 1_555
C26 C27 1_555 1_555
C31 C32 1_555 1_555
C33 C34 1_555 1_555
C38 C39 1_555 1_555
C41 C42 1_555 1_555
C43 C44 1_555 1_555
C49 C50 1_555 1_555
C56 C57 1_555 1_555
C63 C64 1_555 1_555
C70 C71 1_555 1_555
C1A C6A 1_555 1_555
C4A C5A 1_555 1_555
C9A C10A 1_555 1_555
C11A C12A 1_555 1_555
C16A C17A 1_555 1_555
C19A C20A 1_555 1_555
C21A C22A 1_555 1_555
C23A C28A 1_555 1_555
C26A C27A 1_555 1_555
C31A C32A 1_555 1_555
C33A C34A 1_555 1_555
C38A C39A 1_555 1_555
C41A C42A 1_555 1_555
C43A C44A 1_555 1_555

#END
