# generated using pymatgen
data_H158Pd4C144S8N16O43
_symmetry_space_group_name_H-M   'P 1'
_cell_length_a   23.31230000
_cell_length_b   23.50720000
_cell_length_c   30.02410000
_cell_angle_alpha   77.61910000
_cell_angle_beta   68.07920000
_cell_angle_gamma   76.37770000
_symmetry_Int_Tables_number   1
_chemical_formula_structural   H158Pd4C144S8N16O43
_chemical_formula_sum   'H632 Pd16 C576 S32.0 N64 O172.0'
_cell_volume   14687.76227792
_cell_formula_units_Z   4
loop_
 _symmetry_equiv_pos_site_id
 _symmetry_equiv_pos_as_xyz
  1  'x, y, z'
loop_
 _atom_site_type_symbol
 _atom_site_label
 _atom_site_symmetry_multiplicity
 _atom_site_fract_x
 _atom_site_fract_y
 _atom_site_fract_z
 _atom_site_occupancy
  H  H1  1  0.777100  0.412000  0.837200  0.929
  H  H2  1  0.222900  0.588000  0.162800  0.929
  H  H3  1  0.876900  0.422500  0.781400  0.929
  H  H4  1  0.123100  0.577500  0.218600  0.929
  H  H5  1  0.828000  0.599700  0.771200  0.929
  H  H6  1  0.172000  0.400300  0.228800  0.929
  H  H7  1  0.728200  0.590400  0.826400  0.929
  H  H8  1  0.271800  0.409600  0.173600  0.929
  H  H9  1  0.929000  0.507700  0.702300  0.929
  H  H10  1  0.071000  0.492300  0.297700  0.929
  H  H11  1  0.959000  0.491200  0.744400  0.929
  H  H12  1  0.041000  0.508800  0.255600  0.929
  H  H13  1  0.933600  0.558800  0.727900  0.929
  H  H14  1  0.066400  0.441200  0.272100  0.929
  H  H15  1  0.882300  0.009900  0.408600  1.0
  H  H16  1  0.117700  0.990100  0.591400  1.0
  H  H17  1  0.976200  0.948300  0.372200  1.0
  H  H18  1  0.023800  0.051700  0.627800  1.0
  H  H19  1  0.068300  0.954300  0.382800  1.0
  H  H20  1  0.931700  0.045700  0.617200  1.0
  H  H21  1  0.860000  0.186200  0.543300  1.0
  H  H22  1  0.140000  0.813800  0.456700  1.0
  H  H23  1  0.945300  0.201400  0.559800  1.0
  H  H24  1  0.054700  0.798600  0.440200  1.0
  H  H25  1  0.045600  0.150600  0.523500  1.0
  H  H26  1  0.954400  0.849400  0.476500  1.0
  H  H27  1  0.115000  0.071500  0.468700  1.0
  H  H28  1  0.885000  0.928500  0.531300  1.0
  H  H29  1  0.122200  0.003700  0.421300  1.0
  H  H30  1  0.877800  0.996300  0.578700  1.0
  H  H31  1  0.775700  0.011800  0.486700  1.0
  H  H32  1  0.224300  0.988200  0.513300  1.0
  H  H33  1  0.702700  0.991600  0.459300  1.0
  H  H34  1  0.297300  0.008400  0.540700  1.0
  H  H35  1  0.705900  0.151900  0.375400  1.0
  H  H36  1  0.294100  0.848100  0.624600  1.0
  H  H37  1  0.778400  0.168600  0.405300  1.0
  H  H38  1  0.221600  0.831400  0.594700  1.0
  H  H39  1  0.628700  0.966400  0.310600  1.0
  H  H40  1  0.371300  0.033600  0.689400  1.0
  H  H41  1  0.691000  0.905200  0.252300  1.0
  H  H42  1  0.309000  0.094800  0.747700  1.0
  H  H43  1  0.647100  0.876000  0.204300  1.0
  H  H44  1  0.352900  0.124000  0.795700  1.0
  H  H45  1  0.350000  0.073300  0.338800  1.0
  H  H46  1  0.650000  0.926700  0.661200  1.0
  H  H47  1  0.293800  0.050100  0.296800  1.0
  H  H48  1  0.706200  0.949900  0.703200  1.0
  H  H49  1  0.343300  0.984100  0.240200  1.0
  H  H50  1  0.656700  0.015900  0.759800  1.0
  H  H51  1  0.444200  0.915700  0.196900  1.0
  H  H52  1  0.555800  0.084300  0.803100  1.0
  H  H53  1  0.547900  0.878600  0.184800  1.0
  H  H54  1  0.452100  0.121400  0.815200  1.0
  H  H55  1  0.522700  0.999300  0.430500  1.0
  H  H56  1  0.477300  0.000700  0.569500  1.0
  H  H57  1  0.598500  0.011100  0.459500  1.0
  H  H58  1  0.401500  0.988900  0.540500  1.0
  H  H59  1  0.677200  0.108700  0.330400  1.0
  H  H60  1  0.322800  0.891300  0.669600  1.0
  H  H61  1  0.598200  0.097000  0.305400  1.0
  H  H62  1  0.401800  0.903000  0.694600  1.0
  H  H63  1  0.366900  0.052000  0.424500  1.0
  H  H64  1  0.633100  0.948000  0.575500  1.0
  H  H65  1  0.296000  0.128000  0.464400  1.0
  H  H66  1  0.704000  0.872000  0.535600  1.0
  H  H67  1  0.411200  0.242300  0.377300  1.0
  H  H68  1  0.588800  0.757700  0.622700  1.0
  H  H69  1  0.477900  0.164400  0.337900  1.0
  H  H70  1  0.522100  0.835600  0.662100  1.0
  H  H71  1  0.127800  0.507700  0.586700  1.0
  H  H72  1  0.872200  0.492300  0.413300  1.0
  H  H73  1  0.040800  0.579100  0.619700  1.0
  H  H74  1  0.959200  0.420900  0.380300  1.0
  H  H75  1  0.943100  0.577000  0.616500  1.0
  H  H76  1  0.056900  0.423000  0.383500  1.0
  H  H77  1  0.117800  0.319200  0.475800  1.0
  H  H78  1  0.882200  0.680800  0.524200  1.0
  H  H79  1  0.025900  0.305800  0.468400  1.0
  H  H80  1  0.974100  0.694200  0.531600  1.0
  H  H81  1  0.930800  0.365500  0.503500  1.0
  H  H82  1  0.069200  0.634500  0.496500  1.0
  H  H83  1  0.872900  0.453600  0.551000  1.0
  H  H84  1  0.127100  0.546400  0.449000  1.0
  H  H85  1  0.877200  0.525600  0.589400  1.0
  H  H86  1  0.122800  0.474400  0.410600  1.0
  H  H87  1  0.219500  0.343600  0.595000  1.0
  H  H88  1  0.780500  0.656400  0.405000  1.0
  H  H89  1  0.295000  0.357400  0.622700  1.0
  H  H90  1  0.705000  0.642600  0.377300  1.0
  H  H91  1  0.308700  0.512700  0.532100  1.0
  H  H92  1  0.691300  0.487300  0.467900  1.0
  H  H93  1  0.232300  0.495400  0.506600  1.0
  H  H94  1  0.767700  0.504600  0.493400  1.0
  H  H95  1  0.252700  0.385600  0.432900  1.0
  H  H96  1  0.747300  0.614400  0.567100  1.0
  H  H97  1  0.322500  0.309500  0.392400  1.0
  H  H98  1  0.677500  0.690500  0.607600  1.0
  H  H99  1  0.262800  0.195000  0.514900  1.0
  H  H100  1  0.737200  0.805000  0.485100  1.0
  H  H101  1  0.192000  0.273000  0.551700  1.0
  H  H102  1  0.808000  0.727000  0.448300  1.0
  H  H103  1  0.372200  0.553800  0.687500  1.0
  H  H104  1  0.627800  0.446200  0.312500  1.0
  H  H105  1  0.313000  0.620800  0.742400  1.0
  H  H106  1  0.687000  0.379200  0.257600  1.0
  H  H107  1  0.353600  0.639800  0.796500  1.0
  H  H108  1  0.646400  0.360200  0.203500  1.0
  H  H109  1  0.630100  0.407800  0.686500  1.0
  H  H110  1  0.369900  0.592200  0.313500  1.0
  H  H111  1  0.678700  0.415300  0.740200  1.0
  H  H112  1  0.321300  0.584700  0.259800  1.0
  H  H113  1  0.637900  0.489500  0.789400  1.0
  H  H114  1  0.362100  0.510500  0.210600  1.0
  H  H115  1  0.548000  0.575500  0.819700  1.0
  H  H116  1  0.452000  0.424500  0.180300  1.0
  H  H117  1  0.449700  0.625400  0.823600  1.0
  H  H118  1  0.550300  0.374600  0.176400  1.0
  H  H119  1  0.483600  0.503100  0.569600  1.0
  H  H120  1  0.516400  0.496900  0.430400  1.0
  H  H121  1  0.412800  0.489000  0.536600  1.0
  H  H122  1  0.587200  0.511000  0.463400  1.0
  H  H123  1  0.317100  0.407600  0.668400  1.0
  H  H124  1  0.682900  0.592400  0.331600  1.0
  H  H125  1  0.389700  0.423600  0.698400  1.0
  H  H126  1  0.610300  0.576400  0.301600  1.0
  H  H127  1  0.517900  0.341600  0.668200  1.0
  H  H128  1  0.482100  0.658400  0.331800  1.0
  H  H129  1  0.584300  0.266300  0.625900  1.0
  H  H130  1  0.415700  0.733700  0.374100  1.0
  H  H131  1  0.693400  0.384800  0.538800  1.0
  H  H132  1  0.306600  0.615200  0.461200  1.0
  H  H133  1  0.623900  0.457600  0.583000  1.0
  H  H134  1  0.376100  0.542400  0.417000  1.0
  H  H135  1  0.638700  0.057200  0.959200  1.0
  H  H136  1  0.361300  0.942800  0.040800  1.0
  H  H137  1  0.553600  0.039200  0.944100  1.0
  H  H138  1  0.446400  0.960800  0.055900  1.0
  H  H139  1  0.453100  0.091500  0.978700  1.0
  H  H140  1  0.546900  0.908500  0.021300  1.0
  H  H141  1  0.616500  0.241700  0.086800  1.0
  H  H142  1  0.383500  0.758300  0.913200  1.0
  H  H143  1  0.522400  0.303900  0.121800  1.0
  H  H144  1  0.477600  0.696100  0.878200  1.0
  H  H145  1  0.430600  0.296500  0.111700  1.0
  H  H146  1  0.569400  0.703500  0.888300  1.0
  H  H147  1  0.376600  0.243500  0.075400  1.0
  H  H148  1  0.623400  0.756500  0.924600  1.0
  H  H149  1  0.383600  0.173000  0.030800  1.0
  H  H150  1  0.616400  0.827000  0.969200  1.0
  H  H151  1  0.273200  0.760600  0.995000  1.0
  H  H152  1  0.726800  0.239400  0.005000  1.0
  H  H153  1  0.200100  0.738900  0.968400  1.0
  H  H154  1  0.799900  0.261100  0.031600  1.0
  H  H155  1  0.207700  0.895200  0.878800  1.0
  H  H156  1  0.792300  0.104800  0.121200  1.0
  H  H157  1  0.279700  0.913500  0.908100  1.0
  H  H158  1  0.720300  0.086500  0.091900  1.0
  H  H159  1  0.759100  0.125000  0.927600  1.0
  H  H160  1  0.240900  0.875000  0.072400  1.0
  H  H161  1  0.830900  0.049100  0.887700  1.0
  H  H162  1  0.169100  0.950900  0.112300  1.0
  H  H163  1  0.771100  0.934400  0.009700  1.0
  H  H164  1  0.228900  0.065600  0.990300  1.0
  H  H165  1  0.700300  0.012500  0.046400  1.0
  H  H166  1  0.299700  0.987500  0.953600  1.0
  H  H167  1  0.872800  0.837900  0.817500  1.0
  H  H168  1  0.127200  0.162100  0.182500  1.0
  H  H169  1  0.823200  0.826700  0.766000  1.0
  H  H170  1  0.176800  0.173300  0.234000  1.0
  H  H171  1  0.865400  0.752600  0.716900  1.0
  H  H172  1  0.134600  0.247400  0.283100  1.0
  H  H173  1  0.134000  0.697000  0.814900  1.0
  H  H174  1  0.866000  0.303000  0.185100  1.0
  H  H175  1  0.194000  0.630000  0.760400  1.0
  H  H176  1  0.806000  0.370000  0.239600  1.0
  H  H177  1  0.152900  0.608700  0.707400  1.0
  H  H178  1  0.847100  0.391300  0.292600  1.0
  H  H179  1  0.056700  0.620700  0.681300  1.0
  H  H180  1  0.943300  0.379300  0.318700  1.0
  H  H181  1  0.957900  0.668900  0.685100  1.0
  H  H182  1  0.042100  0.331100  0.314900  1.0
  H  H183  1  0.023300  0.745700  0.932000  1.0
  H  H184  1  0.976700  0.254300  0.068000  1.0
  H  H185  1  0.094000  0.760600  0.964900  1.0
  H  H186  1  0.906000  0.239400  0.035100  1.0
  H  H187  1  0.186800  0.844800  0.833300  1.0
  H  H188  1  0.813200  0.155200  0.166700  1.0
  H  H189  1  0.113800  0.828800  0.803800  1.0
  H  H190  1  0.886200  0.171200  0.196200  1.0
  H  H191  1  0.985700  0.908300  0.831500  1.0
  H  H192  1  0.014300  0.091700  0.168500  1.0
  H  H193  1  0.916900  0.984800  0.871300  1.0
  H  H194  1  0.083100  0.015200  0.128700  1.0
  H  H195  1  0.808300  0.866900  0.960200  1.0
  H  H196  1  0.191700  0.133100  0.039800  1.0
  H  H197  1  0.880100  0.792500  0.919000  1.0
  H  H198  1  0.119900  0.207500  0.081000  1.0
  H  H199  1  0.374300  0.425900  0.038900  1.0
  H  H200  1  0.625700  0.574100  0.961100  1.0
  H  H201  1  0.465000  0.439400  0.048600  1.0
  H  H202  1  0.535000  0.560600  0.951400  1.0
  H  H203  1  0.562400  0.387100  0.008100  1.0
  H  H204  1  0.437600  0.612900  0.991900  1.0
  H  H205  1  0.374500  0.249200  0.912700  1.0
  H  H206  1  0.625500  0.750800  0.087300  1.0
  H  H207  1  0.464700  0.185200  0.873700  1.0
  H  H208  1  0.535300  0.814800  0.126300  1.0
  H  H209  1  0.561300  0.189000  0.877900  1.0
  H  H210  1  0.438700  0.811000  0.122100  1.0
  H  H211  1  0.623700  0.237700  0.910200  1.0
  H  H212  1  0.376300  0.762300  0.089800  1.0
  H  H213  1  0.624400  0.305700  0.953900  1.0
  H  H214  1  0.375600  0.694300  0.046100  1.0
  H  H215  1  0.269500  0.254900  0.992300  1.0
  H  H216  1  0.730500  0.745100  0.007700  1.0
  H  H217  1  0.196100  0.237800  0.963500  1.0
  H  H218  1  0.803900  0.762200  0.036500  1.0
  H  H219  1  0.206500  0.397300  0.878700  1.0
  H  H220  1  0.793500  0.602700  0.121300  1.0
  H  H221  1  0.279600  0.410500  0.909200  1.0
  H  H222  1  0.720400  0.589500  0.090800  1.0
  H  H223  1  0.315100  0.480500  0.956900  1.0
  H  H224  1  0.684900  0.519500  0.043100  1.0
  H  H225  1  0.244700  0.559500  0.992600  1.0
  H  H226  1  0.755300  0.440500  0.007400  1.0
  H  H227  1  0.165400  0.442800  0.107400  1.0
  H  H228  1  0.834600  0.557200  0.892600  1.0
  H  H229  1  0.234200  0.366400  0.067100  1.0
  H  H230  1  0.765800  0.633600  0.932900  1.0
  H  H231  1  0.854900  0.317100  0.830900  1.0
  H  H232  1  0.145100  0.682900  0.169100  1.0
  H  H233  1  0.802600  0.291000  0.787400  1.0
  H  H234  1  0.197400  0.709000  0.212600  1.0
  H  H235  1  0.854300  0.222400  0.733500  1.0
  H  H236  1  0.145700  0.777600  0.266500  1.0
  H  H237  1  0.132300  0.214200  0.810300  1.0
  H  H238  1  0.867700  0.785800  0.189700  1.0
  H  H239  1  0.197200  0.150900  0.754000  1.0
  H  H240  1  0.802800  0.849100  0.246000  1.0
  H  H241  1  0.156200  0.117900  0.706100  1.0
  H  H242  1  0.843800  0.882100  0.293900  1.0
  H  H243  1  0.059700  0.116900  0.685000  1.0
  H  H244  1  0.940300  0.883100  0.315000  1.0
  H  H245  1  0.956100  0.152200  0.694600  1.0
  H  H246  1  0.043900  0.847800  0.305400  1.0
  H  H247  1  0.019800  0.248900  0.929300  1.0
  H  H248  1  0.980200  0.751100  0.070700  1.0
  H  H249  1  0.093000  0.260500  0.961000  1.0
  H  H250  1  0.907000  0.739500  0.039000  1.0
  H  H251  1  0.178700  0.354200  0.831900  1.0
  H  H252  1  0.821300  0.645800  0.168100  1.0
  H  H253  1  0.102400  0.343100  0.804200  1.0
  H  H254  1  0.897600  0.656900  0.195800  1.0
  H  H255  1  0.134600  0.700300  0.084400  1.0
  H  H256  1  0.865400  0.299700  0.915600  1.0
  H  H257  1  0.205800  0.624600  0.044400  1.0
  H  H258  1  0.794200  0.375400  0.955600  1.0
  H  H259  1  0.083700  0.512600  0.122700  1.0
  H  H260  1  0.916300  0.487400  0.877300  1.0
  H  H261  1  0.017600  0.589700  0.163400  1.0
  H  H262  1  0.982400  0.410300  0.836600  1.0
  H  H263  1  0.851000  0.348300  0.067800  1.0
  H  H264  1  0.149000  0.651700  0.932200  1.0
  H  H265  1  0.942700  0.340900  0.000500  1.0
  H  H266  1  0.057300  0.659100  0.999500  1.0
  H  H267  1  0.940300  0.516600  0.986200  1.0
  H  H268  1  0.059700  0.483400  0.013800  1.0
  H  H269  1  0.848300  0.524700  0.053500  1.0
  H  H270  1  0.151700  0.475300  0.946500  1.0
  H  H271  1  0.015400  0.393800  0.926100  1.0
  H  H272  1  0.984600  0.606200  0.073900  1.0
  H  H273  1  0.048600  0.407800  0.959700  1.0
  H  H274  1  0.951400  0.592200  0.040300  1.0
  H  H275  1  0.019700  0.460700  0.926600  1.0
  H  H276  1  0.980300  0.539300  0.073400  1.0
  H  H277  1  0.856700  0.848500  0.075200  1.0
  H  H278  1  0.143300  0.151500  0.924800  1.0
  H  H279  1  0.944100  0.840600  0.004700  1.0
  H  H280  1  0.055900  0.159400  0.995300  1.0
  H  H281  1  0.941900  0.016600  0.985900  1.0
  H  H282  1  0.058100  0.983400  0.014100  1.0
  H  H283  1  0.854400  0.025500  0.056600  1.0
  H  H284  1  0.145600  0.974500  0.943400  1.0
  H  H285  1  0.013000  0.891500  0.927800  1.0
  H  H286  1  0.987000  0.108500  0.072200  1.0
  H  H287  1  0.049400  0.908500  0.957500  1.0
  H  H288  1  0.950600  0.091500  0.042500  1.0
  H  H289  1  0.017100  0.959200  0.925100  1.0
  H  H290  1  0.982900  0.040800  0.074900  1.0
  H  H291  1  0.644900  0.224800  0.445300  1.0
  H  H292  1  0.355100  0.775200  0.554700  1.0
  H  H293  1  0.556900  0.231400  0.515800  1.0
  H  H294  1  0.443100  0.768600  0.484200  1.0
  H  H295  1  0.550300  0.408200  0.499000  1.0
  H  H296  1  0.449700  0.591800  0.501000  1.0
  H  H297  1  0.638400  0.402000  0.428500  1.0
  H  H298  1  0.361600  0.598000  0.571500  1.0
  H  H299  1  0.479800  0.286700  0.577000  1.0
  H  H300  1  0.520200  0.713300  0.423000  1.0
  H  H301  1  0.447400  0.339000  0.545800  1.0
  H  H302  1  0.552600  0.661000  0.454200  1.0
  H  H303  1  0.483800  0.353800  0.576500  1.0
  H  H304  1  0.516200  0.646200  0.423500  1.0
  H  H305  1  0.979200  0.398300  0.677900  1.0
  H  H306  1  0.020800  0.601700  0.322100  1.0
  H  H307  1  0.956400  0.342000  0.633200  1.0
  H  H308  1  0.043600  0.658000  0.366800  1.0
  H  H309  1  0.119600  0.229600  0.623500  1.0
  H  H310  1  0.880400  0.770400  0.376500  1.0
  H  H311  1  0.143800  0.286100  0.667400  1.0
  H  H312  1  0.856200  0.713900  0.332600  1.0
  H  H313  1  0.036200  0.257400  0.561400  1.0
  H  H314  1  0.963800  0.742600  0.438600  1.0
  H  H315  1  0.974900  0.245000  0.607000  1.0
  H  H316  1  0.025100  0.755000  0.393000  1.0
  H  H317  1  0.040500  0.201500  0.602100  1.0
  H  H318  1  0.959500  0.798500  0.397900  1.0
  H  H319  1  0.612500  0.113200  0.638600  1.0
  H  H320  1  0.387500  0.886800  0.361400  1.0
  H  H321  1  0.547800  0.174700  0.696300  1.0
  H  H322  1  0.452200  0.825300  0.303700  1.0
  H  H323  1  0.407000  0.193700  0.643500  1.0
  H  H324  1  0.593000  0.806300  0.356500  1.0
  H  H325  1  0.472400  0.134500  0.584100  1.0
  H  H326  1  0.527600  0.865500  0.415900  1.0
  H  H327  1  0.432000  0.273800  0.696600  1.0
  H  H328  1  0.568000  0.726200  0.303400  1.0
  H  H329  1  0.442800  0.224200  0.739800  1.0
  H  H330  1  0.557200  0.775800  0.260200  1.0
  H  H331  1  0.385800  0.226500  0.721600  1.0
  H  H332  1  0.614200  0.773500  0.278400  1.0
  H  H333  1  0.025500  0.111500  0.915800  1.0
  H  H334  1  0.974500  0.888500  0.084200  1.0
  H  H335  1  0.092300  0.050600  0.858100  1.0
  H  H336  1  0.907700  0.949400  0.141900  1.0
  H  H337  1  0.955800  0.070300  0.800600  1.0
  H  H338  1  0.044200  0.929700  0.199400  1.0
  H  H339  1  0.889600  0.133600  0.856800  1.0
  H  H340  1  0.110400  0.866400  0.143200  1.0
  H  H341  1  0.070700  0.970600  0.803900  1.0
  H  H342  1  0.929300  0.029400  0.196100  1.0
  H  H343  1  0.116600  0.018100  0.778600  1.0
  H  H344  1  0.883400  0.981900  0.221400  1.0
  H  H345  1  0.060300  0.019100  0.760000  1.0
  H  H346  1  0.939700  0.980900  0.240000  1.0
  H  H347  1  0.975800  0.394200  0.077800  1.0
  H  H348  1  0.024200  0.605800  0.922200  1.0
  H  H349  1  0.908400  0.454400  0.135900  1.0
  H  H350  1  0.091600  0.545600  0.864100  1.0
  H  H351  1  0.039400  0.424100  0.200400  1.0
  H  H352  1  0.960600  0.575900  0.799600  1.0
  H  H353  1  0.105800  0.361000  0.144100  1.0
  H  H354  1  0.894200  0.639000  0.855900  1.0
  H  H355  1  0.931600  0.530000  0.193800  1.0
  H  H356  1  0.068400  0.470000  0.806200  1.0
  H  H357  1  0.935700  0.479500  0.238300  1.0
  H  H358  1  0.064300  0.520500  0.761700  1.0
  H  H359  1  0.881500  0.486200  0.216000  1.0
  H  H360  1  0.118500  0.513800  0.784000  1.0
  H  H361  1  0.749800  0.842800  0.909600  1.0
  H  H362  1  0.250200  0.157200  0.090400  1.0
  H  H363  1  0.767900  0.748300  0.889100  1.0
  H  H364  1  0.232100  0.251700  0.110900  1.0
  H  H365  1  0.676400  0.811900  0.792800  1.0
  H  H366  1  0.323600  0.188100  0.207200  1.0
  H  H367  1  0.660100  0.907100  0.811800  1.0
  H  H368  1  0.339900  0.092900  0.188200  1.0
  H  H369  1  0.721900  0.681600  0.855700  1.0
  H  H370  1  0.278100  0.318400  0.144300  1.0
  H  H371  1  0.710100  0.709700  0.805800  1.0
  H  H372  1  0.289900  0.290300  0.194200  1.0
  H  H373  1  0.779500  0.697700  0.808200  1.0
  H  H374  1  0.220500  0.302300  0.191800  1.0
  H  H375  1  0.645100  0.903600  0.426900  1.0
  H  H376  1  0.354900  0.096400  0.573100  1.0
  H  H377  1  0.556600  0.910500  0.496800  1.0
  H  H378  1  0.443400  0.089500  0.503200  1.0
  H  H379  1  0.558800  0.734600  0.512500  1.0
  H  H380  1  0.441200  0.265400  0.487500  1.0
  H  H381  1  0.646900  0.727100  0.441800  1.0
  H  H382  1  0.353100  0.272900  0.558200  1.0
  H  H383  1  0.451200  0.843000  0.541700  1.0
  H  H384  1  0.548800  0.157000  0.458300  1.0
  H  H385  1  0.487200  0.857600  0.572900  1.0
  H  H386  1  0.512800  0.142400  0.427100  1.0
  H  H387  1  0.482600  0.790500  0.573500  1.0
  H  H388  1  0.517400  0.209500  0.426500  1.0
  H  H389  1  0.749500  0.402800  0.592500  1.0
  H  H390  1  0.250500  0.597200  0.407500  1.0
  H  H391  1  0.731200  0.494700  0.617100  1.0
  H  H392  1  0.268800  0.505300  0.382900  1.0
  H  H393  1  0.829000  0.424700  0.708500  1.0
  H  H394  1  0.171000  0.575300  0.291500  1.0
  H  H395  1  0.846700  0.331900  0.684700  1.0
  H  H396  1  0.153300  0.668100  0.315300  1.0
  H  H397  1  0.741100  0.557600  0.664900  1.0
  H  H398  1  0.258900  0.442400  0.335100  1.0
  H  H399  1  0.743000  0.525100  0.717100  1.0
  H  H400  1  0.257000  0.474900  0.282900  1.0
  H  H401  1  0.806100  0.540700  0.675100  1.0
  H  H402  1  0.193900  0.459300  0.324900  1.0
  H  H403  1  0.482800  0.647400  0.577800  1.0
  H  H404  1  0.517200  0.352600  0.422200  1.0
  H  H405  1  0.415600  0.706200  0.637000  1.0
  H  H406  1  0.584400  0.293800  0.363000  1.0
  H  H407  1  0.544600  0.669600  0.703700  1.0
  H  H408  1  0.455400  0.330400  0.296300  1.0
  H  H409  1  0.611400  0.608500  0.645900  1.0
  H  H410  1  0.388600  0.391500  0.354100  1.0
  H  H411  1  0.437700  0.777500  0.697600  1.0
  H  H412  1  0.562300  0.222500  0.302400  1.0
  H  H413  1  0.441300  0.725900  0.741500  1.0
  H  H414  1  0.558700  0.274100  0.258500  1.0
  H  H415  1  0.387600  0.733700  0.718500  1.0
  H  H416  1  0.612400  0.266300  0.281500  1.0
  H  H417  1  0.547400  0.343100  0.824000  1.0
  H  H418  1  0.452600  0.656900  0.176000  1.0
  H  H419  1  0.549800  0.406800  0.873000  1.0
  H  H420  1  0.450200  0.593200  0.127000  1.0
  H  H421  1  0.378700  0.496800  0.874200  1.0
  H  H422  1  0.621300  0.503200  0.125800  1.0
  H  H423  1  0.374600  0.432900  0.826100  1.0
  H  H424  1  0.625400  0.567100  0.173900  1.0
  H  H425  1  0.509900  0.501300  0.904400  1.0
  H  H426  1  0.490100  0.498700  0.095600  1.0
  H  H427  1  0.447700  0.482000  0.945400  1.0
  H  H428  1  0.552300  0.518000  0.054600  1.0
  H  H429  1  0.442400  0.537200  0.904500  1.0
  H  H430  1  0.557600  0.462800  0.095500  1.0
  H  H431  1  0.126400  0.809400  0.675000  1.0
  H  H432  1  0.873600  0.190600  0.325000  1.0
  H  H433  1  0.122000  0.746900  0.626400  1.0
  H  H434  1  0.878000  0.253100  0.373600  1.0
  H  H435  1  0.951900  0.839600  0.626200  1.0
  H  H436  1  0.048100  0.160400  0.373800  1.0
  H  H437  1  0.955400  0.902200  0.675400  1.0
  H  H438  1  0.044600  0.097800  0.324600  1.0
  H  H439  1  0.047200  0.764900  0.555200  1.0
  H  H440  1  0.952800  0.235100  0.444800  1.0
  H  H441  1  0.991200  0.739100  0.599100  1.0
  H  H442  1  0.008800  0.260900  0.400900  1.0
  H  H443  1  0.062400  0.708900  0.592500  1.0
  H  H444  1  0.937600  0.291100  0.407500  1.0
  H  H445  1  0.177300  0.633800  0.480300  1.0
  H  H446  1  0.822700  0.366200  0.519700  1.0
  H  H447  1  0.179000  0.612600  0.527800  1.0
  H  H448  1  0.821000  0.387400  0.472200  1.0
  H  H449  1  0.170200  0.587800  0.605200  1.0
  H  H450  1  0.829800  0.412200  0.394800  1.0
  H  H451  1  0.193200  0.641700  0.595600  1.0
  H  H452  1  0.806800  0.358300  0.404400  1.0
  H  H453  1  0.195000  0.516900  0.663100  1.0
  H  H454  1  0.805000  0.483100  0.336900  1.0
  H  H455  1  0.147900  0.489500  0.661000  1.0
  H  H456  1  0.852100  0.510500  0.339000  1.0
  H  H457  1  0.251100  0.519300  0.717900  1.0
  H  H458  1  0.748900  0.480700  0.282100  1.0
  H  H459  1  0.265400  0.563800  0.676900  1.0
  H  H460  1  0.734600  0.436200  0.323100  1.0
  H  H461  1  0.289600  0.333000  0.755700  1.0
  H  H462  1  0.710400  0.667000  0.244300  1.0
  H  H463  1  0.331900  0.343600  0.775800  1.0
  H  H464  1  0.668100  0.656400  0.224200  1.0
  H  H465  1  0.259400  0.271000  0.703000  1.0
  H  H466  1  0.740600  0.729000  0.297000  1.0
  H  H467  1  0.211100  0.311800  0.730800  1.0
  H  H468  1  0.788900  0.688200  0.269200  1.0
  H  H469  1  0.248200  0.234300  0.788600  1.0
  H  H470  1  0.751800  0.765700  0.211400  1.0
  H  H471  1  0.232600  0.186300  0.826000  1.0
  H  H472  1  0.767400  0.813700  0.174000  1.0
  H  H473  1  0.355000  0.251300  0.843700  1.0
  H  H474  1  0.645000  0.748700  0.156300  1.0
  H  H475  1  0.320600  0.217400  0.832300  1.0
  H  H476  1  0.679400  0.782600  0.167700  1.0
  H  H477  1  0.327300  0.112700  0.015700  1.0
  H  H478  1  0.672700  0.887300  0.984300  1.0
  H  H479  1  0.328400  0.144300  0.969500  1.0
  H  H480  1  0.671600  0.855700  0.030500  1.0
  H  H481  1  0.670500  0.399700  0.971200  1.0
  H  H482  1  0.329500  0.600300  0.028800  1.0
  H  H483  1  0.677500  0.362300  0.013400  1.0
  H  H484  1  0.322500  0.637700  0.986600  1.0
  H  H485  1  0.681900  0.271400  0.157500  1.0
  H  H486  1  0.318100  0.728600  0.842500  1.0
  H  H487  1  0.633800  0.245500  0.155500  1.0
  H  H488  1  0.366200  0.754500  0.844500  1.0
  H  H489  1  0.745500  0.270700  0.205200  1.0
  H  H490  1  0.254500  0.729300  0.794800  1.0
  H  H491  1  0.759500  0.318200  0.166900  1.0
  H  H492  1  0.240500  0.681800  0.833100  1.0
  H  H493  1  0.829700  0.098200  0.277500  1.0
  H  H494  1  0.170300  0.901800  0.722500  1.0
  H  H495  1  0.789400  0.083400  0.257600  1.0
  H  H496  1  0.210600  0.916600  0.742400  1.0
  H  H497  1  0.703900  0.056400  0.238600  1.0
  H  H498  1  0.296100  0.943600  0.761400  1.0
  H  H499  1  0.756300  0.024300  0.205700  1.0
  H  H500  1  0.243700  0.975700  0.794300  1.0
  H  H501  1  0.731400  0.936500  0.328900  1.0
  H  H502  1  0.268600  0.063500  0.671100  1.0
  H  H503  1  0.749100  0.985200  0.292700  1.0
  H  H504  1  0.250900  0.014800  0.707300  1.0
  H  H505  1  0.818100  0.968400  0.339600  1.0
  H  H506  1  0.181900  0.031600  0.660400  1.0
  H  H507  1  0.857900  0.001600  0.345200  1.0
  H  H508  1  0.142100  0.998400  0.654800  1.0
  H  H509  1  0.823500  0.863500  0.488900  1.0
  H  H510  1  0.176500  0.136500  0.511100  1.0
  H  H511  1  0.836100  0.821100  0.527100  1.0
  H  H512  1  0.163900  0.178900  0.472900  1.0
  H  H513  1  0.827400  0.930100  0.690700  1.0
  H  H514  1  0.172600  0.069900  0.309300  1.0
  H  H515  1  0.828200  0.964700  0.723700  1.0
  H  H516  1  0.171800  0.035300  0.276300  1.0
  H  H517  1  0.790500  0.038700  0.666667  1.0
  H  H518  1  0.209500  0.961300  0.333333  1.0
  H  H519  1  0.808100  0.094000  0.641900  1.0
  H  H520  1  0.191900  0.906000  0.358100  1.0
  H  H521  1  0.727700  0.032800  0.576500  1.0
  H  H522  1  0.272300  0.967200  0.423500  1.0
  H  H523  1  0.764900  0.036900  0.603600  1.0
  H  H524  1  0.235100  0.963100  0.396400  1.0
  H  H525  1  0.866600  0.111600  0.693400  1.0
  H  H526  1  0.133400  0.888400  0.306600  1.0
  H  H527  1  0.851100  0.164700  0.664000  1.0
  H  H528  1  0.148900  0.835300  0.336000  1.0
  H  H529  1  0.630000  0.137400  0.810000  1.0
  H  H530  1  0.370000  0.862600  0.190000  1.0
  H  H531  1  0.650900  0.080100  0.831300  1.0
  H  H532  1  0.349100  0.919900  0.168700  1.0
  H  H533  1  0.703400  0.151000  0.851600  1.0
  H  H534  1  0.296600  0.849000  0.148400  1.0
  H  H535  1  0.722700  0.201600  0.818300  1.0
  H  H536  1  0.277300  0.798400  0.181700  1.0
  H  H537  1  0.775900  0.217700  0.909500  1.0
  H  H538  1  0.224100  0.782300  0.090500  1.0
  H  H539  1  0.740300  0.211500  0.881900  1.0
  H  H540  1  0.259700  0.788500  0.118100  1.0
  H  H541  1  0.684800  0.307600  0.808900  1.0
  H  H542  1  0.315200  0.692400  0.191100  1.0
  H  H543  1  0.678400  0.289200  0.769200  1.0
  H  H544  1  0.321600  0.710800  0.230800  1.0
  H  H545  1  0.760300  0.437600  0.852900  0.071
  H  H546  1  0.239700  0.562400  0.147100  0.071
  H  H547  1  0.863200  0.433000  0.798100  0.071
  H  H548  1  0.136800  0.567000  0.201900  0.071
  H  H549  1  0.831300  0.608800  0.756600  0.071
  H  H550  1  0.168700  0.391200  0.243400  0.071
  H  H551  1  0.728400  0.614700  0.811200  0.071
  H  H552  1  0.271600  0.385300  0.188800  0.071
  H  H553  1  0.944500  0.474000  0.738100  0.071
  H  H554  1  0.055500  0.526000  0.261900  0.071
  H  H555  1  0.921500  0.528300  0.702700  0.071
  H  H556  1  0.078500  0.471700  0.297300  0.071
  H  H557  1  0.946700  0.540100  0.742200  0.071
  H  H558  1  0.053300  0.459900  0.257800  0.071
  H  H559  1  0.714800  0.365000  0.892600  0.1
  H  H560  1  0.285200  0.635000  0.107400  0.1
  H  H561  1  0.720300  0.305100  0.914700  0.1
  H  H562  1  0.279700  0.694900  0.085300  0.1
  H  H563  1  0.735600  0.226700  0.293100  0.21
  H  H564  1  0.264400  0.773300  0.706900  0.21
  H  H565  1  0.764700  0.183700  0.261000  0.21
  H  H566  1  0.235300  0.816300  0.739000  0.21
  H  H567  1  0.664400  0.149000  0.213400  0.21
  H  H568  1  0.335600  0.851000  0.786600  0.21
  H  H569  1  0.693200  0.176800  0.235000  0.21
  H  H570  1  0.306800  0.823200  0.765000  0.21
  H  H571  1  0.819300  0.881500  0.622900  0.21
  H  H572  1  0.180700  0.118500  0.377100  0.21
  H  H573  1  0.784000  0.939700  0.622000  0.21
  H  H574  1  0.216000  0.060300  0.378000  0.21
  H  H575  1  0.722000  0.801500  0.648000  0.21
  H  H576  1  0.278000  0.198500  0.352000  0.21
  H  H577  1  0.634400  0.784100  0.717000  0.21
  H  H578  1  0.365600  0.215900  0.283000  0.21
  H  H579  1  0.721100  0.620100  0.749400  0.21
  H  H580  1  0.278900  0.379900  0.250600  0.21
  H  H581  1  0.813800  0.638200  0.684200  0.21
  H  H582  1  0.186200  0.361800  0.315800  0.21
  H  H583  1  0.577300  0.723000  0.780900  0.21
  H  H584  1  0.422700  0.277000  0.219100  0.21
  H  H585  1  0.596100  0.654100  0.775800  0.21
  H  H586  1  0.403900  0.345900  0.224200  0.21
  H  H587  1  0.618800  0.679600  0.810600  0.21
  H  H588  1  0.381200  0.320400  0.189400  0.21
  H  H589  1  0.620100  0.064200  0.175600  0.21
  H  H590  1  0.379900  0.935800  0.824400  0.21
  H  H591  1  0.447000  0.143800  0.175100  0.21
  H  H592  1  0.553000  0.856200  0.824900  0.21
  H  H593  1  0.623900  0.000300  0.125400  0.21
  H  H594  1  0.376100  0.999700  0.874600  0.21
  H  H595  1  0.450300  0.078800  0.123900  0.21
  H  H596  1  0.549700  0.921200  0.876100  0.21
  H  H597  1  0.522900  0.010200  0.061600  0.21
  H  H598  1  0.477100  0.989800  0.938400  0.21
  H  H599  1  0.576400  0.965600  0.079000  0.21
  H  H600  1  0.423600  0.034400  0.921000  0.21
  H  H601  1  0.504000  0.962200  0.108900  0.21
  H  H602  1  0.496000  0.037800  0.891100  0.21
  H  H603  1  0.258500  0.440000  0.776500  0.25
  H  H604  1  0.741500  0.560000  0.223500  0.25
  H  H605  1  0.236300  0.482700  0.808900  0.25
  H  H606  1  0.763700  0.517300  0.191100  0.25
  H  H607  1  0.302500  0.163500  0.904200  0.25
  H  H608  1  0.697500  0.836500  0.095800  0.25
  H  H609  1  0.284100  0.107600  0.912800  0.25
  H  H610  1  0.715900  0.892400  0.087200  0.25
  H  H611  1  0.699100  0.388100  0.078200  0.25
  H  H612  1  0.300900  0.611900  0.921800  0.25
  H  H613  1  0.681800  0.331400  0.087600  0.25
  H  H614  1  0.318200  0.668600  0.912400  0.25
  H  H615  1  0.837000  0.908800  0.401100  0.25
  H  H616  1  0.163000  0.091200  0.598900  0.25
  H  H617  1  0.813300  0.855300  0.411400  0.25
  H  H618  1  0.186700  0.144700  0.588600  0.25
  H  H619  1  0.659500  0.175300  0.725500  0.25
  H  H620  1  0.340500  0.824700  0.274500  0.25
  H  H621  1  0.696700  0.122700  0.707400  0.25
  H  H622  1  0.303300  0.877300  0.292600  0.25
  H  H623  1  0.562200  0.213000  0.782800  0.25
  H  H624  1  0.437800  0.787000  0.217200  0.25
  H  H625  1  0.625400  0.208400  0.750800  0.25
  H  H626  1  0.374600  0.791600  0.249200  0.25
  H  H627  1  0.619700  0.290100  0.714700  0.25
  H  H628  1  0.380300  0.709900  0.285300  0.25
  H  H629  1  0.683900  0.273000  0.687500  0.25
  H  H630  1  0.316100  0.727000  0.312500  0.25
  H  H631  1  0.710700  0.131900  0.537800  0.263
  H  H632  1  0.289300  0.868100  0.462200  0.263
  H  H633  1  0.639000  0.205700  0.577500  0.263
  H  H634  1  0.361000  0.794300  0.422500  0.263
  H  H635  1  0.758400  0.319000  0.502900  0.263
  H  H636  1  0.241600  0.681000  0.497100  0.263
  H  H637  1  0.828300  0.242100  0.463500  0.263
  H  H638  1  0.171700  0.757900  0.536500  0.263
  H  H639  1  0.797800  0.045300  0.828800  0.5
  H  H640  1  0.202200  0.954700  0.171200  0.5
  H  H641  1  0.792900  0.105500  0.807200  0.5
  H  H642  1  0.207100  0.894500  0.192800  0.5
  H  H643  1  0.812600  0.122600  0.787800  0.5
  H  H644  1  0.187400  0.877400  0.212200  0.5
  H  H645  1  0.839100  0.065300  0.774400  0.5
  H  H646  1  0.160900  0.934700  0.225600  0.5
  H  H647  1  0.929600  0.019600  0.734000  0.5
  H  H648  1  0.070400  0.980400  0.266000  0.5
  H  H649  1  0.878300  0.059300  0.760500  0.5
  H  H650  1  0.121700  0.940700  0.239500  0.5
  H  H651  1  0.890000  0.965400  0.768300  0.5
  H  H652  1  0.110000  0.034600  0.231700  0.5
  H  H653  1  0.833800  0.966400  0.809200  0.5
  H  H654  1  0.166200  0.033600  0.190800  0.5
  H  H655  1  0.813900  0.945300  0.805100  0.5
  H  H656  1  0.186100  0.054700  0.194900  0.5
  H  H657  1  0.880400  0.931200  0.785500  0.5
  H  H658  1  0.119600  0.068800  0.214500  0.5
  H  H659  1  0.568300  0.212600  0.774000  0.5
  H  H660  1  0.431700  0.787400  0.226000  0.5
  H  H661  1  0.632400  0.212200  0.745100  0.5
  H  H662  1  0.367600  0.787800  0.254900  0.5
  H  H663  1  0.616500  0.307500  0.721800  0.5
  H  H664  1  0.383500  0.692500  0.278200  0.5
  H  H665  1  0.678900  0.281700  0.696600  0.5
  H  H666  1  0.321100  0.718300  0.303400  0.5
  H  H667  1  0.736900  0.125400  0.568100  0.737
  H  H668  1  0.263100  0.874600  0.431900  0.737
  H  H669  1  0.665700  0.201400  0.608200  0.737
  H  H670  1  0.334300  0.798600  0.391800  0.737
  H  H671  1  0.733300  0.317800  0.488700  0.737
  H  H672  1  0.266700  0.682200  0.511300  0.737
  H  H673  1  0.803300  0.239400  0.452200  0.737
  H  H674  1  0.196700  0.760600  0.547800  0.737
  H  H675  1  0.283300  0.440200  0.768200  0.75
  H  H676  1  0.716700  0.559800  0.231800  0.75
  H  H677  1  0.262400  0.483900  0.799600  0.75
  H  H678  1  0.737600  0.516100  0.200400  0.75
  H  H679  1  0.347800  0.150500  0.890300  0.75
  H  H680  1  0.652200  0.849500  0.109700  0.75
  H  H681  1  0.318100  0.100700  0.900300  0.75
  H  H682  1  0.681900  0.899300  0.099700  0.75
  H  H683  1  0.672000  0.392900  0.087400  0.75
  H  H684  1  0.328000  0.607100  0.912600  0.75
  H  H685  1  0.650000  0.338200  0.100100  0.75
  H  H686  1  0.350000  0.661800  0.899900  0.75
  H  H687  1  0.794800  0.860800  0.420100  0.75
  H  H688  1  0.205200  0.139200  0.579900  0.75
  H  H689  1  0.813600  0.916300  0.412500  0.75
  H  H690  1  0.186400  0.083700  0.587500  0.75
  H  H691  1  0.711000  0.137500  0.659700  0.75
  H  H692  1  0.289000  0.862500  0.340300  0.75
  H  H693  1  0.706900  0.196800  0.665700  0.75
  H  H694  1  0.293100  0.803200  0.334300  0.75
  H  H695  1  0.640600  0.043200  0.166300  0.79
  H  H696  1  0.359400  0.956800  0.833700  0.79
  H  H697  1  0.617600  0.988800  0.119900  0.79
  H  H698  1  0.382400  0.011200  0.880100  0.79
  H  H699  1  0.450500  0.097500  0.135500  0.79
  H  H700  1  0.549500  0.902500  0.864500  0.79
  H  H701  1  0.472800  0.151900  0.182000  0.79
  H  H702  1  0.527200  0.848100  0.818000  0.79
  H  H703  1  0.543200  0.962200  0.094800  0.79
  H  H704  1  0.456800  0.037800  0.905200  0.79
  H  H705  1  0.524500  0.021300  0.061500  0.79
  H  H706  1  0.475500  0.978700  0.938500  0.79
  H  H707  1  0.472400  0.996800  0.109700  0.79
  H  H708  1  0.527600  0.003200  0.890300  0.79
  H  H709  1  0.730000  0.815200  0.650900  0.79
  H  H710  1  0.270000  0.184800  0.349100  0.79
  H  H711  1  0.629500  0.813200  0.708700  0.79
  H  H712  1  0.370500  0.186800  0.291300  0.79
  H  H713  1  0.676200  0.637900  0.747100  0.79
  H  H714  1  0.323800  0.362100  0.252900  0.79
  H  H715  1  0.776600  0.639600  0.690600  0.79
  H  H716  1  0.223400  0.360400  0.309400  0.79
  H  H717  1  0.553700  0.765600  0.770100  0.79
  H  H718  1  0.446300  0.234400  0.229900  0.79
  H  H719  1  0.556800  0.698400  0.765100  0.79
  H  H720  1  0.443200  0.301600  0.234900  0.79
  H  H721  1  0.581700  0.712700  0.803700  0.79
  H  H722  1  0.418300  0.287300  0.196300  0.79
  H  H723  1  0.745100  0.244400  0.289900  0.79
  H  H724  1  0.254900  0.755600  0.710100  0.79
  H  H725  1  0.775300  0.194800  0.264800  0.79
  H  H726  1  0.224700  0.805200  0.735200  0.79
  H  H727  1  0.772800  0.941600  0.593500  0.79
  H  H728  1  0.227200  0.058400  0.406500  0.79
  H  H729  1  0.784100  0.888400  0.573700  0.79
  H  H730  1  0.215900  0.111600  0.426300  0.79
  H  H731  1  0.835500  0.835900  0.668300  0.79
  H  H732  1  0.164500  0.164100  0.331700  0.79
  H  H733  1  0.789700  0.876700  0.651800  0.79
  H  H734  1  0.210300  0.123300  0.348200  0.79
  H  H735  1  0.689600  0.368300  0.856200  0.9
  H  H736  1  0.310400  0.631700  0.143800  0.9
  H  H737  1  0.707200  0.311400  0.880000  0.9
  H  H738  1  0.292800  0.688600  0.120000  0.9
  Pd  Pd739  1  0.843610  0.110710  0.474570  1.0
  Pd  Pd740  1  0.156390  0.889290  0.525430  1.0
  Pd  Pd741  1  0.489670  0.037270  0.338930  1.0
  Pd  Pd742  1  0.510330  0.962730  0.661070  1.0
  Pd  Pd743  1  0.151580  0.401690  0.529260  1.0
  Pd  Pd744  1  0.848420  0.598310  0.470740  1.0
  Pd  Pd745  1  0.504070  0.469560  0.668180  1.0
  Pd  Pd746  1  0.495930  0.530440  0.331820  1.0
  Pd  Pd747  1  0.655890  0.139480  0.022450  1.0
  Pd  Pd748  1  0.344110  0.860520  0.977550  1.0
  Pd  Pd749  1  0.000820  0.779710  0.834370  1.0
  Pd  Pd750  1  0.999180  0.220290  0.165630  1.0
  Pd  Pd751  1  0.345930  0.350600  0.975900  1.0
  Pd  Pd752  1  0.654070  0.649400  0.024100  1.0
  Pd  Pd753  1  0.993060  0.283680  0.835220  1.0
  Pd  Pd754  1  0.006940  0.716320  0.164780  1.0
  C  C755  1  0.919370  0.012130  0.413910  1.0
  C  C756  1  0.080630  0.987870  0.586090  1.0
  C  C757  1  0.975720  0.975470  0.391690  1.0
  C  C758  1  0.024280  0.024530  0.608310  1.0
  C  C759  1  0.030090  0.978770  0.398010  1.0
  C  C760  1  0.969910  0.021230  0.601990  1.0
  C  C761  1  0.028620  0.019040  0.427480  1.0
  C  C762  1  0.971380  0.980960  0.572520  1.0
  C  C763  1  0.970510  0.053710  0.448830  1.0
  C  C764  1  0.029490  0.946290  0.551170  1.0
  C  C765  1  0.900590  0.164910  0.528470  1.0
  C  C766  1  0.099410  0.835090  0.471530  1.0
  C  C767  1  0.951670  0.174130  0.538500  1.0
  C  C768  1  0.048330  0.825870  0.461500  1.0
  C  C769  1  0.010690  0.143810  0.517500  1.0
  C  C770  1  0.989310  0.856190  0.482500  1.0
  C  C771  1  0.019060  0.102350  0.486840  1.0
  C  C772  1  0.980940  0.897650  0.513160  1.0
  C  C773  1  0.965900  0.095210  0.478810  1.0
  C  C774  1  0.034100  0.904790  0.521190  1.0
  C  C775  1  0.078370  0.066890  0.464000  1.0
  C  C776  1  0.921630  0.933110  0.536000  1.0
  C  C777  1  0.082630  0.026900  0.435780  1.0
  C  C778  1  0.917370  0.973100  0.564220  1.0
  C  C779  1  0.760930  0.040480  0.464100  1.0
  C  C780  1  0.239070  0.959520  0.535900  1.0
  C  C781  1  0.717370  0.028240  0.447940  1.0
  C  C782  1  0.282630  0.971760  0.552060  1.0
  C  C783  1  0.695150  0.070160  0.414800  1.0
  C  C784  1  0.304850  0.929840  0.585200  1.0
  C  C785  1  0.719240  0.122840  0.398540  1.0
  C  C786  1  0.280760  0.877160  0.601460  1.0
  C  C787  1  0.762600  0.132420  0.416260  1.0
  C  C788  1  0.237400  0.867580  0.583740  1.0
  C  C789  1  0.691710  0.268830  0.551400  1.0
  C  C790  1  0.308290  0.731170  0.448600  1.0
  C  C791  1  0.610590  0.956130  0.290550  1.0
  C  C792  1  0.389410  0.043870  0.709450  1.0
  C  C793  1  0.647880  0.918680  0.256070  1.0
  C  C794  1  0.352120  0.081320  0.743930  1.0
  C  C795  1  0.622140  0.901450  0.227710  1.0
  C  C796  1  0.377860  0.098550  0.772290  1.0
  C  C797  1  0.558300  0.922040  0.233960  1.0
  C  C798  1  0.441700  0.077960  0.766040  1.0
  C  C799  1  0.524650  0.961120  0.268080  1.0
  C  C800  1  0.475350  0.038880  0.731920  1.0
  C  C801  1  0.370760  0.046570  0.315650  1.0
  C  C802  1  0.629240  0.953430  0.684350  1.0
  C  C803  1  0.336680  0.032790  0.290680  1.0
  C  C804  1  0.663320  0.967210  0.709320  1.0
  C  C805  1  0.365890  0.993880  0.257200  1.0
  C  C806  1  0.634110  0.006120  0.742800  1.0
  C  C807  1  0.429510  0.968820  0.248490  1.0
  C  C808  1  0.570490  0.031180  0.751510  1.0
  C  C809  1  0.460350  0.985240  0.274840  1.0
  C  C810  1  0.539650  0.014760  0.725160  1.0
  C  C811  1  0.464550  0.927660  0.214680  1.0
  C  C812  1  0.535450  0.072340  0.785320  1.0
  C  C813  1  0.525870  0.905550  0.207630  1.0
  C  C814  1  0.474130  0.094450  0.792370  1.0
  C  C815  1  0.554220  0.021880  0.410350  1.0
  C  C816  1  0.445780  0.978120  0.589650  1.0
  C  C817  1  0.599530  0.028500  0.427680  1.0
  C  C818  1  0.400470  0.971500  0.572320  1.0
  C  C819  1  0.646700  0.061010  0.397870  1.0
  C  C820  1  0.353300  0.938990  0.602130  1.0
  C  C821  1  0.645840  0.086480  0.351510  1.0
  C  C822  1  0.354160  0.913520  0.648490  1.0
  C  C823  1  0.598940  0.079020  0.336700  1.0
  C  C824  1  0.401060  0.920980  0.663300  1.0
  C  C825  1  0.375310  0.091260  0.414430  1.0
  C  C826  1  0.624690  0.908740  0.585570  1.0
  C  C827  1  0.333040  0.136460  0.438580  1.0
  C  C828  1  0.666960  0.863540  0.561420  1.0
  C  C829  1  0.345020  0.194110  0.424900  1.0
  C  C830  1  0.654980  0.805890  0.575100  1.0
  C  C831  1  0.400740  0.203780  0.387050  1.0
  C  C832  1  0.599260  0.796220  0.612950  1.0
  C  C833  1  0.440560  0.157070  0.363860  1.0
  C  C834  1  0.559440  0.842930  0.636140  1.0
  C  C835  1  0.088480  0.507060  0.584260  1.0
  C  C836  1  0.911520  0.492940  0.415740  1.0
  C  C837  1  0.036150  0.549610  0.604620  1.0
  C  C838  1  0.963850  0.450390  0.395380  1.0
  C  C839  1  0.978470  0.548520  0.602720  1.0
  C  C840  1  0.021530  0.451480  0.397280  1.0
  C  C841  1  0.972320  0.504840  0.580170  1.0
  C  C842  1  0.027680  0.495160  0.419830  1.0
  C  C843  1  0.026730  0.464740  0.559810  1.0
  C  C844  1  0.973270  0.535260  0.440190  1.0
  C  C845  1  0.079400  0.343860  0.490430  1.0
  C  C846  1  0.920600  0.656140  0.509570  1.0
  C  C847  1  0.024450  0.335750  0.485790  1.0
  C  C848  1  0.975550  0.664250  0.514210  1.0
  C  C849  1  0.968320  0.371070  0.506310  1.0
  C  C850  1  0.031680  0.628930  0.493690  1.0
  C  C851  1  0.967150  0.415770  0.531540  1.0
  C  C852  1  0.032850  0.584230  0.468460  1.0
  C  C853  1  0.024150  0.420920  0.534940  1.0
  C  C854  1  0.975850  0.579080  0.465060  1.0
  C  C855  1  0.911820  0.456510  0.552960  1.0
  C  C856  1  0.088180  0.543490  0.447040  1.0
  C  C857  1  0.914460  0.498950  0.575830  1.0
  C  C858  1  0.085540  0.501050  0.424170  1.0
  C  C859  1  0.237680  0.378390  0.582470  1.0
  C  C860  1  0.762320  0.621610  0.417530  1.0
  C  C861  1  0.282660  0.386310  0.599040  1.0
  C  C862  1  0.717340  0.613690  0.400960  1.0
  C  C863  1  0.309880  0.437310  0.580690  1.0
  C  C864  1  0.690120  0.562690  0.419310  1.0
  C  C865  1  0.290650  0.477920  0.545610  1.0
  C  C866  1  0.709350  0.522080  0.454390  1.0
  C  C867  1  0.245150  0.467470  0.530510  1.0
  C  C868  1  0.754850  0.532530  0.469490  1.0
  C  C869  1  0.254180  0.346210  0.449300  1.0
  C  C870  1  0.745820  0.653790  0.550700  1.0
  C  C871  1  0.296430  0.301140  0.425170  1.0
  C  C872  1  0.703570  0.698860  0.574830  1.0
  C  C873  1  0.300370  0.243440  0.449280  1.0
  C  C874  1  0.699630  0.756560  0.550720  1.0
  C  C875  1  0.260920  0.233630  0.497220  1.0
  C  C876  1  0.739080  0.766370  0.502780  1.0
  C  C877  1  0.218920  0.280350  0.519040  1.0
  C  C878  1  0.781080  0.719650  0.480960  1.0
  C  C879  1  0.389270  0.560990  0.709550  1.0
  C  C880  1  0.610730  0.439010  0.290450  1.0
  C  C881  1  0.353780  0.601490  0.742220  1.0
  C  C882  1  0.646220  0.398510  0.257780  1.0
  C  C883  1  0.377830  0.613160  0.773830  1.0
  C  C884  1  0.622170  0.386840  0.226170  1.0
  C  C885  1  0.438830  0.585450  0.772450  1.0
  C  C886  1  0.561170  0.414550  0.227550  1.0
  C  C887  1  0.470890  0.544500  0.739550  1.0
  C  C888  1  0.529110  0.455500  0.260450  1.0
  C  C889  1  0.611550  0.436880  0.707760  1.0
  C  C890  1  0.388450  0.563120  0.292240  1.0
  C  C891  1  0.641390  0.441860  0.739450  1.0
  C  C892  1  0.358610  0.558140  0.260550  1.0
  C  C893  1  0.616780  0.484870  0.769150  1.0
  C  C894  1  0.383220  0.515130  0.230850  1.0
  C  C895  1  0.559750  0.522080  0.769140  1.0
  C  C896  1  0.440250  0.477920  0.230860  1.0
  C  C897  1  0.531120  0.512630  0.738140  1.0
  C  C898  1  0.468880  0.487370  0.261860  1.0
  C  C899  1  0.528020  0.566730  0.800230  1.0
  C  C900  1  0.471980  0.433270  0.199770  1.0
  C  C901  1  0.470060  0.596600  0.802230  1.0
  C  C902  1  0.529940  0.403400  0.197770  1.0
  C  C903  1  0.449420  0.483700  0.589610  1.0
  C  C904  1  0.550580  0.516300  0.410390  1.0
  C  C905  1  0.407250  0.475410  0.569820  1.0
  C  C906  1  0.592750  0.524590  0.430180  1.0
  C  C907  1  0.356590  0.446970  0.599170  1.0
  C  C908  1  0.643410  0.553030  0.400830  1.0
  C  C909  1  0.350740  0.427430  0.647580  1.0
  C  C910  1  0.649260  0.572570  0.352420  1.0
  C  C911  1  0.394210  0.436970  0.665290  1.0
  C  C912  1  0.605790  0.563030  0.334710  1.0
  C  C913  1  0.554260  0.350340  0.641690  1.0
  C  C914  1  0.445740  0.649660  0.358310  1.0
  C  C915  1  0.593780  0.305230  0.616610  1.0
  C  C916  1  0.406220  0.694770  0.383390  1.0
  C  C917  1  0.647460  0.316690  0.577750  1.0
  C  C918  1  0.352540  0.683310  0.422250  1.0
  C  C919  1  0.657750  0.374790  0.565440  1.0
  C  C920  1  0.342250  0.625210  0.434560  1.0
  C  C921  1  0.616190  0.418100  0.591930  1.0
  C  C922  1  0.383810  0.581900  0.408070  1.0
  C  C923  1  0.598110  0.078970  0.973340  1.0
  C  C924  1  0.401890  0.921030  0.026660  1.0
  C  C925  1  0.547230  0.067970  0.964130  1.0
  C  C926  1  0.452770  0.932030  0.035870  1.0
  C  C927  1  0.488010  0.099050  0.984240  1.0
  C  C928  1  0.511990  0.900950  0.015760  1.0
  C  C929  1  0.479820  0.142260  0.013160  1.0
  C  C930  1  0.520180  0.857740  0.986840  1.0
  C  C931  1  0.532900  0.150710  0.020660  1.0
  C  C932  1  0.467100  0.849290  0.979340  1.0
  C  C933  1  0.579410  0.238630  0.081870  1.0
  C  C934  1  0.420590  0.761370  0.918130  1.0
  C  C935  1  0.523000  0.275700  0.103210  1.0
  C  C936  1  0.477000  0.724300  0.896790  1.0
  C  C937  1  0.468740  0.271370  0.097290  1.0
  C  C938  1  0.531260  0.728630  0.902710  1.0
  C  C939  1  0.469970  0.229260  0.069640  1.0
  C  C940  1  0.530030  0.770740  0.930360  1.0
  C  C941  1  0.528150  0.194030  0.049120  1.0
  C  C942  1  0.471850  0.805970  0.950880  1.0
  C  C943  1  0.416160  0.219880  0.061640  1.0
  C  C944  1  0.583840  0.780120  0.938360  1.0
  C  C945  1  0.420230  0.178410  0.035090  1.0
  C  C946  1  0.579770  0.821590  0.964910  1.0
  C  C947  1  0.259430  0.788020  0.971320  1.0
  C  C948  1  0.740570  0.211980  0.028680  1.0
  C  C949  1  0.215870  0.774910  0.955540  1.0
  C  C950  1  0.784130  0.225090  0.044460  1.0
  C  C951  1  0.195330  0.814910  0.920730  1.0
  C  C952  1  0.804670  0.185090  0.079270  1.0
  C  C953  1  0.220310  0.867160  0.902830  1.0
  C  C954  1  0.779690  0.132840  0.097170  1.0
  C  C955  1  0.263310  0.877710  0.920210  1.0
  C  C956  1  0.736690  0.122290  0.079790  1.0
  C  C957  1  0.761710  0.085770  0.944310  1.0
  C  C958  1  0.238290  0.914230  0.055690  1.0
  C  C959  1  0.804690  0.040750  0.920460  1.0
  C  C960  1  0.195310  0.959250  0.079540  1.0
  C  C961  1  0.809150  0.983060  0.945010  1.0
  C  C962  1  0.190850  0.016940  0.054990  1.0
  C  C963  1  0.769570  0.973180  0.992150  1.0
  C  C964  1  0.230430  0.026820  0.007850  1.0
  C  C965  1  0.727360  0.020020  0.013900  1.0
  C  C966  1  0.272640  0.979980  0.986100  1.0
  C  C967  1  0.891730  0.808490  0.796600  1.0
  C  C968  1  0.108270  0.191510  0.203400  1.0
  C  C969  1  0.861540  0.801430  0.766110  1.0
  C  C970  1  0.138460  0.198570  0.233890  1.0
  C  C971  1  0.886770  0.758500  0.736490  1.0
  C  C972  1  0.113230  0.241500  0.263510  1.0
  C  C973  1  0.945220  0.723060  0.735560  1.0
  C  C974  1  0.054780  0.276940  0.264440  1.0
  C  C975  1  0.973870  0.734070  0.765670  1.0
  C  C976  1  0.026130  0.265930  0.234330  1.0
  C  C977  1  0.116950  0.689050  0.793150  1.0
  C  C978  1  0.883050  0.310950  0.206850  1.0
  C  C979  1  0.152950  0.648430  0.760780  1.0
  C  C980  1  0.847050  0.351570  0.239220  1.0
  C  C981  1  0.128580  0.635520  0.729830  1.0
  C  C982  1  0.871420  0.364480  0.270170  1.0
  C  C983  1  0.067300  0.662240  0.731440  1.0
  C  C984  1  0.932700  0.337760  0.268560  1.0
  C  C985  1  0.034890  0.703470  0.763930  1.0
  C  C986  1  0.965110  0.296530  0.236070  1.0
  C  C987  1  0.035990  0.649720  0.702410  1.0
  C  C988  1  0.964010  0.350280  0.297590  1.0
  C  C989  1  0.977600  0.678410  0.704460  1.0
  C  C990  1  0.022400  0.321590  0.295540  1.0
  C  C991  1  0.056850  0.766070  0.912090  1.0
  C  C992  1  0.943150  0.233930  0.087910  1.0
  C  C993  1  0.099020  0.774590  0.931790  1.0
  C  C994  1  0.900980  0.225410  0.068210  1.0
  C  C995  1  0.148940  0.804090  0.902300  1.0
  C  C996  1  0.851060  0.195910  0.097700  1.0
  C  C997  1  0.153680  0.824430  0.854110  1.0
  C  C998  1  0.846320  0.175570  0.145890  1.0
  C  C999  1  0.110100  0.814820  0.836730  1.0
  C  C1000  1  0.889900  0.185180  0.163270  1.0
  C  C1001  1  0.949150  0.899890  0.857970  1.0
  C  C1002  1  0.050850  0.100110  0.142030  1.0
  C  C1003  1  0.908170  0.945700  0.881460  1.0
  C  C1004  1  0.091830  0.054300  0.118540  1.0
  C  C1005  1  0.854290  0.934560  0.919930  1.0
  C  C1006  1  0.145710  0.065440  0.080070  1.0
  C  C1007  1  0.844400  0.876380  0.933800  1.0
  C  C1008  1  0.155600  0.123620  0.066200  1.0
  C  C1009  1  0.887300  0.832140  0.909070  1.0
  C  C1010  1  0.112700  0.167860  0.090930  1.0
  C  C1011  1  0.413630  0.403680  0.022610  1.0
  C  C1012  1  0.586370  0.596320  0.977390  1.0
  C  C1013  1  0.467950  0.412000  0.028430  1.0
  C  C1014  1  0.532050  0.588000  0.971570  1.0
  C  C1015  1  0.525370  0.380620  0.005100  1.0
  C  C1016  1  0.474630  0.619380  0.994900  1.0
  C  C1017  1  0.528540  0.338640  0.976710  1.0
  C  C1018  1  0.471460  0.661360  0.023290  1.0
  C  C1019  1  0.472170  0.332620  0.972580  1.0
  C  C1020  1  0.527830  0.667380  0.027420  1.0
  C  C1021  1  0.413430  0.250680  0.915410  1.0
  C  C1022  1  0.586570  0.749320  0.084590  1.0
  C  C1023  1  0.467640  0.212570  0.891660  1.0
  C  C1024  1  0.532360  0.787430  0.108340  1.0
  C  C1025  1  0.524650  0.214570  0.894160  1.0
  C  C1026  1  0.475350  0.785430  0.105840  1.0
  C  C1027  1  0.528070  0.255120  0.921260  1.0
  C  C1028  1  0.471930  0.744880  0.078740  1.0
  C  C1029  1  0.472050  0.291040  0.944490  1.0
  C  C1030  1  0.527950  0.708960  0.055510  1.0
  C  C1031  1  0.585460  0.261840  0.925840  1.0
  C  C1032  1  0.414540  0.738160  0.074160  1.0
  C  C1033  1  0.585820  0.301810  0.951900  1.0
  C  C1034  1  0.414180  0.698190  0.048100  1.0
  C  C1035  1  0.256430  0.283880  0.968980  1.0
  C  C1036  1  0.743570  0.716120  0.031020  1.0
  C  C1037  1  0.212510  0.273610  0.952050  1.0
  C  C1038  1  0.787490  0.726390  0.047950  1.0
  C  C1039  1  0.192560  0.316010  0.918150  1.0
  C  C1040  1  0.807440  0.683990  0.081850  1.0
  C  C1041  1  0.218650  0.367600  0.902040  1.0
  C  C1042  1  0.781350  0.632400  0.097960  1.0
  C  C1043  1  0.262280  0.375190  0.920210  1.0
  C  C1044  1  0.737720  0.624810  0.079790  1.0
  C  C1045  1  0.283890  0.472950  0.987680  1.0
  C  C1046  1  0.716110  0.527050  0.012320  1.0
  C  C1047  1  0.242380  0.520300  0.008980  1.0
  C  C1048  1  0.757620  0.479700  0.991020  1.0
  C  C1049  1  0.197320  0.510300  0.054440  1.0
  C  C1050  1  0.802680  0.489700  0.945560  1.0
  C  C1051  1  0.195360  0.451570  0.076210  1.0
  C  C1052  1  0.804640  0.548430  0.923790  1.0
  C  C1053  1  0.237110  0.406090  0.052360  1.0
  C  C1054  1  0.762890  0.593910  0.947640  1.0
  C  C1055  1  0.876990  0.289620  0.808570  1.0
  C  C1056  1  0.123010  0.710380  0.191430  1.0
  C  C1057  1  0.845200  0.273840  0.782810  1.0
  C  C1058  1  0.154800  0.726160  0.217190  1.0
  C  C1059  1  0.875660  0.233510  0.750880  1.0
  C  C1060  1  0.124340  0.766490  0.249120  1.0
  C  C1061  1  0.939020  0.208830  0.744260  1.0
  C  C1062  1  0.060980  0.791170  0.255740  1.0
  C  C1063  1  0.967710  0.227760  0.770980  1.0
  C  C1064  1  0.032290  0.772240  0.229020  1.0
  C  C1065  1  0.115470  0.202440  0.790060  1.0
  C  C1066  1  0.884530  0.797560  0.209940  1.0
  C  C1067  1  0.154340  0.163700  0.756880  1.0
  C  C1068  1  0.845660  0.836300  0.243120  1.0
  C  C1069  1  0.130260  0.144240  0.728570  1.0
  C  C1070  1  0.869740  0.855760  0.271430  1.0
  C  C1071  1  0.066660  0.163830  0.733370  1.0
  C  C1072  1  0.933340  0.836170  0.266630  1.0
  C  C1073  1  0.031410  0.204430  0.765980  1.0
  C  C1074  1  0.968590  0.795570  0.234020  1.0
  C  C1075  1  0.036450  0.144750  0.706750  1.0
  C  C1076  1  0.963550  0.855250  0.293250  1.0
  C  C1077  1  0.975280  0.165910  0.712200  1.0
  C  C1078  1  0.024720  0.834090  0.287800  1.0
  C  C1079  1  0.052420  0.270580  0.909610  1.0
  C  C1080  1  0.947580  0.729420  0.090390  1.0
  C  C1081  1  0.096150  0.277020  0.928560  1.0
  C  C1082  1  0.903850  0.722980  0.071440  1.0
  C  C1083  1  0.144850  0.308070  0.899580  1.0
  C  C1084  1  0.855150  0.691930  0.100420  1.0
  C  C1085  1  0.146440  0.332650  0.852510  1.0
  C  C1086  1  0.853560  0.667350  0.147490  1.0
  C  C1087  1  0.101220  0.325560  0.836020  1.0
  C  C1088  1  0.898780  0.674440  0.163980  1.0
  C  C1089  1  0.124830  0.661510  0.092730  1.0
  C  C1090  1  0.875170  0.338490  0.907270  1.0
  C  C1091  1  0.167240  0.616620  0.068390  1.0
  C  C1092  1  0.832760  0.383380  0.931610  1.0
  C  C1093  1  0.153080  0.559500  0.079240  1.0
  C  C1094  1  0.846920  0.440500  0.920760  1.0
  C  C1095  1  0.095620  0.550450  0.114850  1.0
  C  C1096  1  0.904380  0.449550  0.885150  1.0
  C  C1097  1  0.055980  0.596830  0.138650  1.0
  C  C1098  1  0.944020  0.403170  0.861350  1.0
  C  C1099  1  0.841830  0.437050  0.067960  1.0
  C  C1100  1  0.158170  0.562950  0.932040  1.0
  C  C1101  1  0.869530  0.382340  0.051590  1.0
  C  C1102  1  0.130470  0.617660  0.948410  1.0
  C  C1103  1  0.924160  0.378090  0.011560  1.0
  C  C1104  1  0.075840  0.621910  0.988440  1.0
  C  C1105  1  0.952460  0.427570  0.987190  1.0
  C  C1106  1  0.047540  0.572430  0.012810  1.0
  C  C1107  1  0.922770  0.482220  0.003040  1.0
  C  C1108  1  0.077230  0.517780  0.996960  1.0
  C  C1109  1  0.867890  0.487190  0.043120  1.0
  C  C1110  1  0.132110  0.512810  0.956880  1.0
  C  C1111  1  0.014430  0.421980  0.946320  1.0
  C  C1112  1  0.985570  0.578020  0.053680  1.0
  C  C1113  1  0.848250  0.937600  0.073510  1.0
  C  C1114  1  0.151750  0.062400  0.926490  1.0
  C  C1115  1  0.874390  0.882520  0.057530  1.0
  C  C1116  1  0.125610  0.117480  0.942470  1.0
  C  C1117  1  0.926500  0.878030  0.015580  1.0
  C  C1118  1  0.073500  0.121970  0.984420  1.0
  C  C1119  1  0.953660  0.927250  0.988940  1.0
  C  C1120  1  0.046340  0.072750  0.011060  1.0
  C  C1121  1  0.925290  0.982330  0.004400  1.0
  C  C1122  1  0.074710  0.017670  0.995600  1.0
  C  C1123  1  0.873020  0.987860  0.046460  1.0
  C  C1124  1  0.126980  0.012140  0.953540  1.0
  C  C1125  1  0.013520  0.921030  0.946080  1.0
  C  C1126  1  0.986480  0.078970  0.053920  1.0
  C  C1127  1  0.648810  0.313070  0.429620  1.0
  C  C1128  1  0.351190  0.686930  0.570380  1.0
  C  C1129  1  0.625290  0.262140  0.455900  1.0
  C  C1130  1  0.374710  0.737860  0.544100  1.0
  C  C1131  1  0.572770  0.266230  0.497930  1.0
  C  C1132  1  0.427230  0.733770  0.502070  1.0
  C  C1133  1  0.543050  0.320710  0.514210  1.0
  C  C1134  1  0.456950  0.679290  0.485790  1.0
  C  C1135  1  0.568930  0.370950  0.487940  1.0
  C  C1136  1  0.431070  0.629050  0.512060  1.0
  C  C1137  1  0.621430  0.367520  0.445920  1.0
  C  C1138  1  0.378570  0.632480  0.554080  1.0
  C  C1139  1  0.483310  0.325470  0.557120  1.0
  C  C1140  1  0.516690  0.674530  0.442880  1.0
  C  C1141  1  0.063750  0.347470  0.677030  1.0
  C  C1142  1  0.936250  0.652530  0.322970  1.0
  C  C1143  1  0.007890  0.364070  0.666760  1.0
  C  C1144  1  0.992110  0.635930  0.333240  1.0
  C  C1145  1  0.994370  0.330440  0.640250  1.0
  C  C1146  1  0.005630  0.669560  0.359750  1.0
  C  C1147  1  0.035850  0.279980  0.623960  1.0
  C  C1148  1  0.964150  0.720020  0.376040  1.0
  C  C1149  1  0.091090  0.264030  0.634460  1.0
  C  C1150  1  0.908910  0.735970  0.365540  1.0
  C  C1151  1  0.105630  0.297450  0.660740  1.0
  C  C1152  1  0.894370  0.702550  0.339260  1.0
  C  C1153  1  0.020530  0.242710  0.596180  1.0
  C  C1154  1  0.979470  0.757290  0.403820  1.0
  C  C1155  1  0.548960  0.118920  0.605250  1.0
  C  C1156  1  0.451040  0.881080  0.394750  1.0
  C  C1157  1  0.571110  0.130290  0.639050  1.0
  C  C1158  1  0.428890  0.869710  0.360950  1.0
  C  C1159  1  0.532380  0.166710  0.673500  1.0
  C  C1160  1  0.467620  0.833290  0.326500  1.0
  C  C1161  1  0.471250  0.191700  0.675050  1.0
  C  C1162  1  0.528750  0.808300  0.324950  1.0
  C  C1163  1  0.449050  0.178280  0.641990  1.0
  C  C1164  1  0.550950  0.821720  0.358010  1.0
  C  C1165  1  0.487770  0.142620  0.606880  1.0
  C  C1166  1  0.512230  0.857380  0.393120  1.0
  C  C1167  1  0.429230  0.232630  0.711490  1.0
  C  C1168  1  0.570770  0.767370  0.288510  1.0
  C  C1169  1  0.950950  0.127530  0.892190  1.0
  C  C1170  1  0.049050  0.872470  0.107810  1.0
  C  C1171  1  0.011290  0.103230  0.892430  1.0
  C  C1172  1  0.988710  0.896770  0.107570  1.0
  C  C1173  1  0.050830  0.066600  0.858220  1.0
  C  C1174  1  0.949170  0.933400  0.141780  1.0
  C  C1175  1  0.030410  0.053170  0.824110  1.0
  C  C1176  1  0.969590  0.946830  0.175890  1.0
  C  C1177  1  0.970090  0.078560  0.823880  1.0
  C  C1178  1  0.029910  0.921440  0.176120  1.0
  C  C1179  1  0.930350  0.116060  0.857550  1.0
  C  C1180  1  0.069650  0.883940  0.142450  1.0
  C  C1181  1  0.073250  0.011590  0.788530  1.0
  C  C1182  1  0.926750  0.988410  0.211470  1.0
  C  C1183  1  0.047790  0.373140  0.104710  1.0
  C  C1184  1  0.952210  0.626860  0.895290  1.0
  C  C1185  1  0.988880  0.400300  0.102570  1.0
  C  C1186  1  0.011120  0.599700  0.897430  1.0
  C  C1187  1  0.948940  0.436640  0.137100  1.0
  C  C1188  1  0.051060  0.563360  0.862900  1.0
  C  C1189  1  0.967600  0.447230  0.173220  1.0
  C  C1190  1  0.032400  0.552770  0.826780  1.0
  C  C1191  1  0.026360  0.418270  0.175500  1.0
  C  C1192  1  0.973640  0.581730  0.824500  1.0
  C  C1193  1  0.066280  0.380940  0.141740  1.0
  C  C1194  1  0.933720  0.619060  0.858260  1.0
  C  C1195  1  0.925390  0.489430  0.208400  1.0
  C  C1196  1  0.074610  0.510570  0.791600  1.0
  C  C1197  1  0.702920  0.884010  0.862610  1.0
  C  C1198  1  0.297080  0.115990  0.137390  1.0
  C  C1199  1  0.735150  0.836640  0.885750  1.0
  C  C1200  1  0.264850  0.163360  0.114250  1.0
  C  C1201  1  0.745570  0.780490  0.873580  1.0
  C  C1202  1  0.254430  0.219510  0.126420  1.0
  C  C1203  1  0.723860  0.770460  0.838960  1.0
  C  C1204  1  0.276140  0.229540  0.161040  1.0
  C  C1205  1  0.691640  0.818110  0.816300  1.0
  C  C1206  1  0.308360  0.181890  0.183700  1.0
  C  C1207  1  0.681540  0.874790  0.827760  1.0
  C  C1208  1  0.318460  0.125210  0.172240  1.0
  C  C1209  1  0.734790  0.709570  0.826040  1.0
  C  C1210  1  0.265210  0.290430  0.173960  1.0
  C  C1211  1  0.653280  0.814840  0.426930  1.0
  C  C1212  1  0.346720  0.185160  0.573070  1.0
  C  C1213  1  0.627050  0.869440  0.443760  1.0
  C  C1214  1  0.372950  0.130560  0.556240  1.0
  C  C1215  1  0.574330  0.873350  0.485430  1.0
  C  C1216  1  0.425670  0.126650  0.514570  1.0
  C  C1217  1  0.546820  0.823700  0.511030  1.0
  C  C1218  1  0.453180  0.176300  0.488970  1.0
  C  C1219  1  0.575500  0.769160  0.494710  1.0
  C  C1220  1  0.424500  0.230840  0.505290  1.0
  C  C1221  1  0.628230  0.764420  0.452720  1.0
  C  C1222  1  0.371770  0.235580  0.547280  1.0
  C  C1223  1  0.486730  0.829160  0.553470  1.0
  C  C1224  1  0.513270  0.170840  0.446530  1.0
  C  C1225  1  0.799810  0.358320  0.636260  1.0
  C  C1226  1  0.200190  0.641680  0.363740  1.0
  C  C1227  1  0.765460  0.407090  0.616240  1.0
  C  C1228  1  0.234540  0.592910  0.383760  1.0
  C  C1229  1  0.754690  0.461760  0.630890  1.0
  C  C1230  1  0.245310  0.538240  0.369110  1.0
  C  C1231  1  0.777860  0.469050  0.665570  1.0
  C  C1232  1  0.222140  0.530950  0.334430  1.0
  C  C1233  1  0.812550  0.420230  0.685150  1.0
  C  C1234  1  0.187450  0.579770  0.314850  1.0
  C  C1235  1  0.823350  0.364990  0.670900  1.0
  C  C1236  1  0.176650  0.635010  0.329100  1.0
  C  C1237  1  0.765960  0.528290  0.682090  1.0
  C  C1238  1  0.234040  0.471710  0.317910  1.0
  C  C1239  1  0.554220  0.623500  0.605640  1.0
  C  C1240  1  0.445780  0.376500  0.394360  1.0
  C  C1241  1  0.495600  0.652010  0.603260  1.0
  C  C1242  1  0.504400  0.347990  0.396740  1.0
  C  C1243  1  0.455770  0.687320  0.638380  1.0
  C  C1244  1  0.544230  0.312680  0.361620  1.0
  C  C1245  1  0.474050  0.695370  0.675620  1.0
  C  C1246  1  0.525950  0.304630  0.324380  1.0
  C  C1247  1  0.532010  0.665380  0.678110  1.0
  C  C1248  1  0.467990  0.334620  0.321890  1.0
  C  C1249  1  0.572200  0.629120  0.643520  1.0
  C  C1250  1  0.427800  0.370880  0.356480  1.0
  C  C1251  1  0.431410  0.736760  0.711480  1.0
  C  C1252  1  0.568590  0.263240  0.288520  1.0
  C  C1253  1  0.460420  0.381650  0.820860  1.0
  C  C1254  1  0.539580  0.618350  0.179140  1.0
  C  C1255  1  0.512890  0.373890  0.834460  1.0
  C  C1256  1  0.487110  0.626110  0.165540  1.0
  C  C1257  1  0.514070  0.411860  0.863630  1.0
  C  C1258  1  0.485930  0.588140  0.136370  1.0
  C  C1259  1  0.464020  0.457270  0.879500  1.0
  C  C1260  1  0.535980  0.542730  0.120500  1.0
  C  C1261  1  0.412520  0.465260  0.864550  1.0
  C  C1262  1  0.587480  0.534740  0.135450  1.0
  C  C1263  1  0.410160  0.427540  0.835700  1.0
  C  C1264  1  0.589840  0.572460  0.164300  1.0
  C  C1265  1  0.466170  0.497980  0.911200  1.0
  C  C1266  1  0.533830  0.502020  0.088800  1.0
  C  C1267  1  0.041370  0.862600  0.679400  1.0
  C  C1268  1  0.958630  0.137400  0.320600  1.0
  C  C1269  1  0.091030  0.815670  0.664910  1.0
  C  C1270  1  0.908970  0.184330  0.335090  1.0
  C  C1271  1  0.088310  0.778670  0.636000  1.0
  C  C1272  1  0.911690  0.221330  0.364000  1.0
  C  C1273  1  0.036960  0.787100  0.620640  1.0
  C  C1274  1  0.963040  0.212900  0.379360  1.0
  C  C1275  1  0.987500  0.833570  0.635960  1.0
  C  C1276  1  0.012500  0.166430  0.364040  1.0
  C  C1277  1  0.989440  0.871040  0.665220  1.0
  C  C1278  1  0.010560  0.128960  0.334780  1.0
  C  C1279  1  0.034200  0.746450  0.589100  1.0
  C  C1280  1  0.965800  0.253550  0.410900  1.0
  C  C1281  1  0.734200  0.526800  0.837800  0.071
  C  C1282  1  0.265800  0.473200  0.162200  0.071
  C  C1283  1  0.774400  0.472600  0.833600  0.071
  C  C1284  1  0.225600  0.527400  0.166400  0.071
  C  C1285  1  0.835800  0.470100  0.800700  0.071
  C  C1286  1  0.164200  0.529900  0.199300  0.071
  C  C1287  1  0.817100  0.573900  0.776200  0.071
  C  C1288  1  0.182900  0.426100  0.223800  0.071
  C  C1289  1  0.857600  0.520400  0.771900  0.071
  C  C1290  1  0.142400  0.479600  0.228100  0.071
  C  C1291  1  0.755700  0.577600  0.808800  0.071
  C  C1292  1  0.244300  0.422400  0.191200  0.071
  C  C1293  1  0.923300  0.515300  0.735500  0.071
  C  C1294  1  0.076700  0.484700  0.264500  0.071
  C  C1295  1  0.778640  0.724030  0.664600  0.21
  C  C1296  1  0.221360  0.275970  0.335400  0.21
  C  C1297  1  0.723200  0.766200  0.670300  0.21
  C  C1298  1  0.276800  0.233800  0.329700  0.21
  C  C1299  1  0.670600  0.754300  0.709500  0.21
  C  C1300  1  0.329400  0.245700  0.290500  0.21
  C  C1301  1  0.669900  0.699700  0.737940  0.21
  C  C1302  1  0.330100  0.300300  0.262060  0.21
  C  C1303  1  0.722100  0.657400  0.729500  0.21
  C  C1304  1  0.277900  0.342600  0.270500  0.21
  C  C1305  1  0.777800  0.668300  0.691400  0.21
  C  C1306  1  0.222200  0.331700  0.308600  0.21
  C  C1307  1  0.610200  0.688000  0.780100  0.21
  C  C1308  1  0.389800  0.312000  0.219900  0.21
  C  C1309  1  0.533800  0.109940  0.179820  0.21
  C  C1310  1  0.466200  0.890060  0.820180  0.21
  C  C1311  1  0.585500  0.067400  0.165200  0.21
  C  C1312  1  0.414500  0.932600  0.834800  0.21
  C  C1313  1  0.483000  0.114400  0.164800  0.21
  C  C1314  1  0.517000  0.885600  0.835200  0.21
  C  C1315  1  0.587500  0.029300  0.135500  0.21
  C  C1316  1  0.412500  0.970700  0.864500  0.21
  C  C1317  1  0.484800  0.075600  0.134400  0.21
  C  C1318  1  0.515200  0.924400  0.865600  0.21
  C  C1319  1  0.537900  0.032100  0.119900  0.21
  C  C1320  1  0.462100  0.967900  0.880100  0.21
  C  C1321  1  0.534000  0.988800  0.089900  0.21
  C  C1322  1  0.466000  0.011200  0.910100  0.21
  C  C1323  1  0.722400  0.169400  0.533000  0.263
  C  C1324  1  0.277600  0.830600  0.467000  0.263
  C  C1325  1  0.679200  0.213900  0.556700  0.263
  C  C1326  1  0.320800  0.786100  0.443300  0.263
  C  C1327  1  0.749400  0.279900  0.512500  0.263
  C  C1328  1  0.250600  0.720100  0.487500  0.263
  C  C1329  1  0.791000  0.234700  0.489500  0.263
  C  C1330  1  0.209000  0.765300  0.510500  0.263
  C  C1331  1  0.735850  0.165000  0.552160  0.737
  C  C1332  1  0.264150  0.835000  0.447840  0.737
  C  C1333  1  0.693330  0.209820  0.576000  0.737
  C  C1334  1  0.306670  0.790180  0.424000  0.737
  C  C1335  1  0.733000  0.278760  0.505740  0.737
  C  C1336  1  0.267000  0.721240  0.494260  0.737
  C  C1337  1  0.774800  0.231420  0.484120  0.737
  C  C1338  1  0.225200  0.768580  0.515880  0.737
  C  C1339  1  0.558790  0.102780  0.178510  0.79
  C  C1340  1  0.441210  0.897220  0.821490  0.79
  C  C1341  1  0.602000  0.054240  0.160160  0.79
  C  C1342  1  0.398000  0.945760  0.839840  0.79
  C  C1343  1  0.588160  0.021900  0.132660  0.79
  C  C1344  1  0.411840  0.978100  0.867340  0.79
  C  C1345  1  0.531500  0.037570  0.123660  0.79
  C  C1346  1  0.468500  0.962430  0.876340  0.79
  C  C1347  1  0.488900  0.086270  0.141860  0.79
  C  C1348  1  0.511100  0.913730  0.858140  0.79
  C  C1349  1  0.502260  0.118780  0.169370  0.79
  C  C1350  1  0.497740  0.881220  0.830630  0.79
  C  C1351  1  0.516600  0.001280  0.094910  0.79
  C  C1352  1  0.483400  0.998720  0.905090  0.79
  C  C1353  1  0.762670  0.726700  0.664950  0.79
  C  C1354  1  0.237330  0.273300  0.335050  0.79
  C  C1355  1  0.719090  0.779200  0.670350  0.79
  C  C1356  1  0.280910  0.220800  0.329650  0.79
  C  C1357  1  0.659340  0.777720  0.704840  0.79
  C  C1358  1  0.340660  0.222280  0.295160  0.79
  C  C1359  1  0.642530  0.725110  0.733830  0.79
  C  C1360  1  0.357470  0.274890  0.266170  0.79
  C  C1361  1  0.686810  0.674150  0.727790  0.79
  C  C1362  1  0.313190  0.325850  0.272210  0.79
  C  C1363  1  0.746520  0.675060  0.693880  0.79
  C  C1364  1  0.253480  0.324940  0.306120  0.79
  C  C1365  1  0.578030  0.725480  0.771470  0.79
  C  C1366  1  0.421970  0.274520  0.228530  0.79
  C  C1367  1  0.742670  0.500320  0.837770  0.929
  C  C1368  1  0.257330  0.499680  0.162230  0.929
  C  C1369  1  0.787200  0.450320  0.823940  0.929
  C  C1370  1  0.212800  0.549680  0.176060  0.929
  C  C1371  1  0.846750  0.456790  0.790510  0.929
  C  C1372  1  0.153250  0.543210  0.209490  0.929
  C  C1373  1  0.862820  0.512300  0.770290  0.929
  C  C1374  1  0.137180  0.487700  0.229710  0.929
  C  C1375  1  0.817850  0.561390  0.784460  0.929
  C  C1376  1  0.182150  0.438610  0.215540  0.929
  C  C1377  1  0.758320  0.556020  0.817540  0.929
  C  C1378  1  0.241680  0.443980  0.182460  0.929
  C  C1379  1  0.926720  0.517980  0.732970  0.929
  C  C1380  1  0.073280  0.482020  0.267030  0.929
  S  S1381  1  0.471090  0.331260  0.773180  0.228
  S  S1382  1  0.528910  0.668740  0.226820  0.228
  S  S1383  1  0.772960  0.440810  0.120050  1.0
  S  S1384  1  0.227040  0.559190  0.879950  1.0
  S  S1385  1  0.781950  0.943450  0.127330  1.0
  S  S1386  1  0.218050  0.056550  0.872670  1.0
  S  S1387  1  0.714870  0.309390  0.375320  1.0
  S  S1388  1  0.285130  0.690610  0.624680  1.0
  S  S1389  1  0.079360  0.390270  0.711660  1.0
  S  S1390  1  0.920640  0.609730  0.288340  1.0
  S  S1391  1  0.600200  0.079070  0.557030  1.0
  S  S1392  1  0.399800  0.920930  0.442970  1.0
  S  S1393  1  0.898370  0.168660  0.939300  1.0
  S  S1394  1  0.101630  0.831340  0.060700  1.0
  S  S1395  1  0.101810  0.333170  0.057220  1.0
  S  S1396  1  0.898190  0.666830  0.942780  1.0
  S  S1397  1  0.690980  0.955370  0.878170  1.0
  S  S1398  1  0.309020  0.044630  0.121830  1.0
  S  S1399  1  0.719620  0.810530  0.373170  1.0
  S  S1400  1  0.280380  0.189470  0.626830  1.0
  S  S1401  1  0.812960  0.288550  0.617270  1.0
  S  S1402  1  0.187040  0.711450  0.382730  1.0
  S  S1403  1  0.607590  0.584090  0.557560  1.0
  S  S1404  1  0.392410  0.415910  0.442440  1.0
  S  S1405  1  0.656300  0.532000  0.879800  0.071
  S  S1406  1  0.343700  0.468000  0.120200  0.071
  S  S1407  1  0.031600  0.912800  0.726700  0.21
  S  S1408  1  0.968400  0.087200  0.273300  0.21
  S  S1409  1  0.844400  0.743300  0.615530  0.21
  S  S1410  1  0.155600  0.256700  0.384470  0.21
  S  S1411  1  0.532750  0.158640  0.218330  0.21
  S  S1412  1  0.467250  0.841360  0.781670  0.21
  S  S1413  1  0.452850  0.334950  0.786980  0.772
  S  S1414  1  0.547150  0.665050  0.213020  0.772
  S  S1415  1  0.573730  0.144570  0.214220  0.79
  S  S1416  1  0.426270  0.855430  0.785780  0.79
  S  S1417  1  0.839850  0.725480  0.621220  0.79
  S  S1418  1  0.160150  0.274520  0.378780  0.79
  S  S1419  1  0.049200  0.909010  0.713580  0.79
  S  S1420  1  0.950800  0.090990  0.286420  0.79
  S  S1421  1  0.666667  0.493930  0.880820  0.929
  S  S1422  1  0.333333  0.506070  0.119180  0.929
  N  N1423  1  0.916680  0.050020  0.442260  1.0
  N  N1424  1  0.083320  0.949980  0.557740  1.0
  N  N1425  1  0.907520  0.127050  0.498760  1.0
  N  N1426  1  0.092480  0.872950  0.501240  1.0
  N  N1427  1  0.783000  0.091960  0.448590  1.0
  N  N1428  1  0.217000  0.908040  0.551410  1.0
  N  N1429  1  0.777070  0.176670  0.505300  1.0
  N  N1430  1  0.222930  0.823330  0.494700  1.0
  N  N1431  1  0.550410  0.977810  0.296080  1.0
  N  N1432  1  0.449590  0.022190  0.703920  1.0
  N  N1433  1  0.430940  0.023750  0.308210  1.0
  N  N1434  1  0.569060  0.976250  0.691790  1.0
  N  N1435  1  0.554200  0.046920  0.365530  1.0
  N  N1436  1  0.445800  0.953080  0.634470  1.0
  N  N1437  1  0.428070  0.101600  0.377010  1.0
  N  N1438  1  0.571930  0.898400  0.622990  1.0
  N  N1439  1  0.084030  0.466310  0.561920  1.0
  N  N1440  1  0.915970  0.533690  0.438080  1.0
  N  N1441  1  0.079570  0.385090  0.514640  1.0
  N  N1442  1  0.920430  0.614910  0.485360  1.0
  N  N1443  1  0.218710  0.418380  0.549140  1.0
  N  N1444  1  0.781290  0.581620  0.450860  1.0
  N  N1445  1  0.215130  0.335910  0.495350  1.0
  N  N1446  1  0.784870  0.664090  0.504650  1.0
  N  N1447  1  0.446200  0.532360  0.708710  1.0
  N  N1448  1  0.553800  0.467640  0.291290  1.0
  N  N1449  1  0.558220  0.471760  0.706780  1.0
  N  N1450  1  0.441780  0.528240  0.293220  1.0
  N  N1451  1  0.442680  0.464600  0.636870  1.0
  N  N1452  1  0.557320  0.535400  0.363130  1.0
  N  N1453  1  0.565250  0.405930  0.629970  1.0
  N  N1454  1  0.434750  0.594070  0.370030  1.0
  N  N1455  1  0.591360  0.118850  0.001170  1.0
  N  N1456  1  0.408640  0.881150  0.998830  1.0
  N  N1457  1  0.582050  0.199220  0.054850  1.0
  N  N1458  1  0.417950  0.800780  0.945150  1.0
  N  N1459  1  0.282740  0.838780  0.953860  1.0
  N  N1460  1  0.717260  0.161220  0.046140  1.0
  N  N1461  1  0.723520  0.075000  0.990790  1.0
  N  N1462  1  0.276480  0.925000  0.009210  1.0
  N  N1463  1  0.946170  0.775100  0.796970  1.0
  N  N1464  1  0.053830  0.224900  0.203030  1.0
  N  N1465  1  0.059610  0.716780  0.794350  1.0
  N  N1466  1  0.940390  0.283220  0.205650  1.0
  N  N1467  1  0.062380  0.786070  0.865270  1.0
  N  N1468  1  0.937620  0.213930  0.134730  1.0
  N  N1469  1  0.938970  0.843940  0.871350  1.0
  N  N1470  1  0.061030  0.156060  0.128650  1.0
  N  N1471  1  0.281480  0.416570  0.009100  1.0
  N  N1472  1  0.718520  0.583430  0.990900  1.0
  N  N1473  1  0.415510  0.365440  0.994820  1.0
  N  N1474  1  0.584490  0.634560  0.005180  1.0
  N  N1475  1  0.415360  0.288820  0.941580  1.0
  N  N1476  1  0.584640  0.711180  0.058420  1.0
  N  N1477  1  0.281060  0.334150  0.953090  1.0
  N  N1478  1  0.718940  0.665850  0.046910  1.0
  N  N1479  1  0.936900  0.267630  0.802960  1.0
  N  N1480  1  0.063100  0.732370  0.197040  1.0
  N  N1481  1  0.055650  0.223210  0.794060  1.0
  N  N1482  1  0.944350  0.776790  0.205940  1.0
  N  N1483  1  0.055200  0.294390  0.863900  1.0
  N  N1484  1  0.944800  0.705610  0.136100  1.0
  N  N1485  1  0.070010  0.651740  0.127870  1.0
  N  N1486  1  0.929990  0.348260  0.872130  1.0
  O  O1487  1  0.392770  0.315720  0.813480  0.772
  O  O1488  1  0.607230  0.684280  0.186520  0.772
  O  O1489  1  0.506830  0.287670  0.781790  0.772
  O  O1490  1  0.493170  0.712330  0.218210  0.772
  O  O1491  1  0.452910  0.371600  0.741480  0.772
  O  O1492  1  0.547090  0.628400  0.258520  0.772
  O  O1493  1  0.762760  0.498610  0.134350  1.0
  O  O1494  1  0.237240  0.501390  0.865650  1.0
  O  O1495  1  0.785610  0.392010  0.156000  1.0
  O  O1496  1  0.214390  0.607990  0.844000  1.0
  O  O1497  1  0.722420  0.433890  0.104900  1.0
  O  O1498  1  0.277580  0.566110  0.895100  1.0
  O  O1499  1  0.782360  0.996390  0.144910  1.0
  O  O1500  1  0.217640  0.003610  0.855090  1.0
  O  O1501  1  0.790390  0.889780  0.160490  1.0
  O  O1502  1  0.209610  0.110220  0.839510  1.0
  O  O1503  1  0.727420  0.948730  0.113190  1.0
  O  O1504  1  0.272580  0.051270  0.886810  1.0
  O  O1505  1  0.704890  0.363890  0.343560  1.0
  O  O1506  1  0.295110  0.636110  0.656440  1.0
  O  O1507  1  0.714510  0.257620  0.356240  1.0
  O  O1508  1  0.285490  0.742380  0.643760  1.0
  O  O1509  1  0.769450  0.303820  0.388910  1.0
  O  O1510  1  0.230550  0.696180  0.611090  1.0
  O  O1511  1  0.140550  0.363410  0.715680  1.0
  O  O1512  1  0.859450  0.636590  0.284320  1.0
  O  O1513  1  0.028880  0.387240  0.758250  1.0
  O  O1514  1  0.971120  0.612760  0.241750  1.0
  O  O1515  1  0.077880  0.449740  0.684790  1.0
  O  O1516  1  0.922120  0.550260  0.315210  1.0
  O  O1517  1  0.562940  0.044250  0.547500  1.0
  O  O1518  1  0.437060  0.955750  0.452500  1.0
  O  O1519  1  0.648540  0.041180  0.575430  1.0
  O  O1520  1  0.351460  0.958820  0.424570  1.0
  O  O1521  1  0.624860  0.123360  0.516880  1.0
  O  O1522  1  0.375140  0.876640  0.483120  1.0
  O  O1523  1  0.851370  0.206370  0.919340  1.0
  O  O1524  1  0.148630  0.793630  0.080660  1.0
  O  O1525  1  0.935090  0.203590  0.949340  1.0
  O  O1526  1  0.064910  0.796410  0.050660  1.0
  O  O1527  1  0.872250  0.125010  0.979630  1.0
  O  O1528  1  0.127750  0.874990  0.020370  1.0
  O  O1529  1  0.150010  0.297040  0.076420  1.0
  O  O1530  1  0.849990  0.702960  0.923580  1.0
  O  O1531  1  0.065680  0.297550  0.046970  1.0
  O  O1532  1  0.934320  0.702450  0.953030  1.0
  O  O1533  1  0.125770  0.378070  0.016890  1.0
  O  O1534  1  0.874230  0.621930  0.983110  1.0
  O  O1535  1  0.650930  0.993790  0.852990  1.0
  O  O1536  1  0.349070  0.006210  0.147010  1.0
  O  O1537  1  0.752390  0.969820  0.864660  1.0
  O  O1538  1  0.247610  0.030180  0.135340  1.0
  O  O1539  1  0.659560  0.949970  0.930730  1.0
  O  O1540  1  0.340440  0.050030  0.069270  1.0
  O  O1541  1  0.725560  0.753920  0.358030  1.0
  O  O1542  1  0.274440  0.246080  0.641970  1.0
  O  O1543  1  0.772730  0.813750  0.386570  1.0
  O  O1544  1  0.227270  0.186250  0.613430  1.0
  O  O1545  1  0.706850  0.861150  0.338350  1.0
  O  O1546  1  0.293150  0.138850  0.661650  1.0
  O  O1547  1  0.656150  0.547480  0.576180  1.0
  O  O1548  1  0.343850  0.452520  0.423820  1.0
  O  O1549  1  0.571010  0.548820  0.547540  1.0
  O  O1550  1  0.428990  0.451180  0.452460  1.0
  O  O1551  1  0.631080  0.629360  0.517530  1.0
  O  O1552  1  0.368920  0.370640  0.482470  1.0
  O  O1553  1  0.183990  0.602290  0.500240  1.0
  O  O1554  1  0.816010  0.397710  0.499760  1.0
  O  O1555  1  0.167440  0.624150  0.590870  1.0
  O  O1556  1  0.832560  0.375850  0.409130  1.0
  O  O1557  1  0.167370  0.519740  0.649250  1.0
  O  O1558  1  0.832630  0.480260  0.350750  1.0
  O  O1559  1  0.249370  0.531440  0.688800  1.0
  O  O1560  1  0.750630  0.468560  0.311200  1.0
  O  O1561  1  0.297250  0.357950  0.769770  1.0
  O  O1562  1  0.702750  0.642050  0.230230  1.0
  O  O1563  1  0.247180  0.288960  0.728280  1.0
  O  O1564  1  0.752820  0.711040  0.271720  1.0
  O  O1565  1  0.248920  0.218190  0.817230  1.0
  O  O1566  1  0.751080  0.781810  0.182770  1.0
  O  O1567  1  0.345690  0.216310  0.847870  1.0
  O  O1568  1  0.654310  0.783690  0.152130  1.0
  O  O1569  1  0.310050  0.143760  0.000720  1.0
  O  O1570  1  0.689950  0.856240  0.999280  1.0
  O  O1571  1  0.683330  0.363760  0.982890  1.0
  O  O1572  1  0.316670  0.636240  0.017110  1.0
  O  O1573  1  0.659020  0.271060  0.140460  1.0
  O  O1574  1  0.340980  0.728940  0.859540  1.0
  O  O1575  1  0.745130  0.285010  0.176030  1.0
  O  O1576  1  0.254870  0.714990  0.823970  1.0
  O  O1577  1  0.795850  0.110770  0.269710  1.0
  O  O1578  1  0.204150  0.889230  0.730290  1.0
  O  O1579  1  0.743090  0.039920  0.232330  1.0
  O  O1580  1  0.256910  0.960080  0.767670  1.0
  O  O1581  1  0.747490  0.968390  0.321810  1.0
  O  O1582  1  0.252510  0.031610  0.678190  1.0
  O  O1583  1  0.846900  0.967070  0.351860  1.0
  O  O1584  1  0.153100  0.032930  0.648140  1.0
  O  O1585  1  0.833870  0.858170  0.514660  1.0
  O  O1586  1  0.166130  0.141830  0.485340  1.0
  O  O1587  1  0.824370  0.965880  0.695830  1.0
  O  O1588  1  0.175630  0.034120  0.304170  1.0
  O  O1589  1  0.778570  0.072660  0.651490  1.0
  O  O1590  1  0.221430  0.927340  0.348510  1.0
  O  O1591  1  0.764800  0.022620  0.579150  1.0
  O  O1592  1  0.235200  0.977380  0.420850  1.0
  O  O1593  1  0.866200  0.127080  0.664350  1.0
  O  O1594  1  0.133800  0.872920  0.335650  1.0
  O  O1595  1  0.639080  0.117250  0.835170  1.0
  O  O1596  1  0.360920  0.882750  0.164830  1.0
  O  O1597  1  0.735170  0.168460  0.834500  1.0
  O  O1598  1  0.264830  0.831540  0.165500  1.0
  O  O1599  1  0.739000  0.226550  0.906480  1.0
  O  O1600  1  0.261000  0.773450  0.093520  1.0
  O  O1601  1  0.680000  0.278050  0.798320  1.0
  O  O1602  1  0.320000  0.721950  0.201680  1.0
  O  O1603  1  0.663700  0.512900  0.927200  0.071
  O  O1604  1  0.336300  0.487100  0.072800  0.071
  O  O1605  1  0.627600  0.593700  0.872200  0.071
  O  O1606  1  0.372400  0.406300  0.127800  0.071
  O  O1607  1  0.628000  0.490400  0.868400  0.071
  O  O1608  1  0.372000  0.509600  0.131600  0.071
  O  O1609  1  0.543100  0.215500  0.191900  0.1
  O  O1610  1  0.456900  0.784500  0.808100  0.1
  O  O1611  1  0.464600  0.162800  0.257400  0.1
  O  O1612  1  0.535400  0.837200  0.742600  0.1
  O  O1613  1  0.573500  0.128500  0.245200  0.1
  O  O1614  1  0.426500  0.871500  0.754800  0.1
  O  O1615  1  0.739700  0.335200  0.902100  0.1
  O  O1616  1  0.260300  0.664800  0.097900  0.1
  O  O1617  1  0.591500  0.179900  0.188400  0.11
  O  O1618  1  0.408500  0.820100  0.811600  0.11
  O  O1619  1  0.480500  0.206800  0.218600  0.11
  O  O1620  1  0.519500  0.793200  0.781400  0.11
  O  O1621  1  0.540100  0.121400  0.262000  0.11
  O  O1622  1  0.459900  0.878600  0.738000  0.11
  O  O1623  1  0.858700  0.795900  0.625200  0.21
  O  O1624  1  0.141300  0.204100  0.374800  0.21
  O  O1625  1  0.891600  0.690700  0.619400  0.21
  O  O1626  1  0.108400  0.309300  0.380600  0.21
  O  O1627  1  0.828900  0.750500  0.571800  0.21
  O  O1628  1  0.171100  0.249500  0.428200  0.21
  O  O1629  1  0.966500  0.922000  0.759300  0.21
  O  O1630  1  0.033500  0.078000  0.240700  0.21
  O  O1631  1  0.075100  0.883200  0.752300  0.21
  O  O1632  1  0.924900  0.116800  0.247700  0.21
  O  O1633  1  0.051300  0.967300  0.696600  0.21
  O  O1634  1  0.948700  0.032700  0.303400  0.21
  O  O1635  1  0.740300  0.217800  0.265100  0.21
  O  O1636  1  0.259700  0.782200  0.734900  0.21
  O  O1637  1  0.692500  0.143600  0.227000  0.21
  O  O1638  1  0.307500  0.856400  0.773000  0.21
  O  O1639  1  0.792200  0.907200  0.640700  0.21
  O  O1640  1  0.207800  0.092800  0.359300  0.21
  O  O1641  1  0.450200  0.277100  0.803000  0.228
  O  O1642  1  0.549800  0.722900  0.197000  0.228
  O  O1643  1  0.428300  0.360200  0.746700  0.228
  O  O1644  1  0.571700  0.639800  0.253300  0.228
  O  O1645  1  0.535900  0.321100  0.740800  0.228
  O  O1646  1  0.464100  0.678900  0.259200  0.228
  O  O1647  1  0.237800  0.475400  0.781200  0.25
  O  O1648  1  0.762200  0.524600  0.218800  0.25
  O  O1649  1  0.296000  0.131500  0.924700  0.25
  O  O1650  1  0.704000  0.868500  0.075300  0.25
  O  O1651  1  0.689900  0.362400  0.066000  0.25
  O  O1652  1  0.310100  0.637600  0.934000  0.25
  O  O1653  1  0.833900  0.875000  0.419900  0.25
  O  O1654  1  0.166100  0.125000  0.580100  0.25
  O  O1655  1  0.662000  0.137200  0.728700  0.25
  O  O1656  1  0.338000  0.862800  0.271300  0.25
  O  O1657  1  0.598500  0.189700  0.774400  0.25
  O  O1658  1  0.401500  0.810300  0.225600  0.25
  O  O1659  1  0.654600  0.267000  0.715300  0.25
  O  O1660  1  0.345400  0.733000  0.284700  0.25
  O  O1661  1  0.007200  0.965100  0.711600  0.345
  O  O1662  1  0.992800  0.034900  0.288400  0.345
  O  O1663  1  0.046100  0.876000  0.761000  0.345
  O  O1664  1  0.953900  0.124000  0.239000  0.345
  O  O1665  1  0.114510  0.921500  0.687100  0.345
  O  O1666  1  0.885490  0.078500  0.312900  0.345
  O  O1667  1  0.987240  0.948000  0.725930  0.445
  O  O1668  1  0.012760  0.052000  0.274070  0.445
  O  O1669  1  0.056700  0.868700  0.756000  0.445
  O  O1670  1  0.943300  0.131300  0.244000  0.445
  O  O1671  1  0.102200  0.937040  0.685420  0.445
  O  O1672  1  0.897800  0.062960  0.314580  0.445
  O  O1673  1  0.850300  0.247300  0.643600  0.5
  O  O1674  1  0.149700  0.752700  0.356400  0.5
  O  O1675  1  0.750800  0.275300  0.628300  0.5
  O  O1676  1  0.249200  0.724700  0.371700  0.5
  O  O1677  1  0.847900  0.300000  0.565140  0.5
  O  O1678  1  0.152100  0.700000  0.434860  0.5
  O  O1679  1  0.817600  0.075300  0.816500  0.5
  O  O1680  1  0.182400  0.924700  0.183500  0.5
  O  O1681  1  0.844100  0.102040  0.768080  0.5
  O  O1682  1  0.155900  0.897960  0.231920  0.5
  O  O1683  1  0.903800  0.052600  0.731700  0.5
  O  O1684  1  0.096200  0.947400  0.268300  0.5
  O  O1685  1  0.850000  0.979800  0.778700  0.5
  O  O1686  1  0.150000  0.020200  0.221300  0.5
  O  O1687  1  0.845600  0.936700  0.779300  0.5
  O  O1688  1  0.154400  0.063300  0.220700  0.5
  O  O1689  1  0.602400  0.191300  0.757300  0.5
  O  O1690  1  0.397600  0.808700  0.242700  0.5
  O  O1691  1  0.656000  0.308910  0.714690  0.5
  O  O1692  1  0.344000  0.691090  0.285310  0.5
  O  O1693  1  0.753100  0.267200  0.639800  0.5
  O  O1694  1  0.246900  0.732800  0.360200  0.5
  O  O1695  1  0.860700  0.252100  0.636300  0.5
  O  O1696  1  0.139300  0.747900  0.363700  0.5
  O  O1697  1  0.831500  0.294400  0.564800  0.5
  O  O1698  1  0.168500  0.705600  0.435200  0.5
  O  O1699  1  0.276650  0.477930  0.769460  0.75
  O  O1700  1  0.723350  0.522070  0.230540  0.75
  O  O1701  1  0.340330  0.117770  0.909370  0.75
  O  O1702  1  0.659670  0.882230  0.090630  0.75
  O  O1703  1  0.650980  0.371590  0.080860  0.75
  O  O1704  1  0.349020  0.628410  0.919140  0.75
  O  O1705  1  0.799100  0.887370  0.434230  0.75
  O  O1706  1  0.200900  0.112630  0.565770  0.75
  O  O1707  1  0.689480  0.165320  0.677230  0.75
  O  O1708  1  0.310520  0.834680  0.322770  0.75
  O  O1709  1  0.570760  0.204870  0.188500  0.79
  O  O1710  1  0.429240  0.795130  0.811500  0.79
  O  O1711  1  0.523400  0.139990  0.260620  0.79
  O  O1712  1  0.476600  0.860010  0.739380  0.79
  O  O1713  1  0.635300  0.118300  0.217510  0.79
  O  O1714  1  0.364700  0.881700  0.782490  0.79
  O  O1715  1  0.872580  0.665680  0.624160  0.79
  O  O1716  1  0.127420  0.334320  0.375840  0.79
  O  O1717  1  0.831400  0.748700  0.574680  0.79
  O  O1718  1  0.168600  0.251300  0.425320  0.79
  O  O1719  1  0.867770  0.767250  0.633850  0.79
  O  O1720  1  0.132230  0.232750  0.366150  0.79
  O  O1721  1  0.764480  0.233130  0.261520  0.79
  O  O1722  1  0.235520  0.766870  0.738480  0.79
  O  O1723  1  0.762330  0.907870  0.598230  0.79
  O  O1724  1  0.237670  0.092130  0.401770  0.79
  O  O1725  1  0.813000  0.871020  0.669730  0.79
  O  O1726  1  0.187000  0.128980  0.330270  0.79
  O  O1727  1  0.711560  0.333080  0.851940  0.9
  O  O1728  1  0.288440  0.666920  0.148060  0.9
  O  O1729  1  0.627110  0.550190  0.872300  0.929
  O  O1730  1  0.372890  0.449810  0.127700  0.929
  O  O1731  1  0.673440  0.483020  0.928560  0.929
  O  O1732  1  0.326560  0.516980  0.071440  0.929
  O  O1733  1  0.648790  0.443820  0.870830  0.929
  O  O1734  1  0.351210  0.556180  0.129170  0.929
