
#######################################################################
#
#                 Cambridge Crystallographic Data Centre
#                                CCDC 
#
#######################################################################
#
# If this CIF has been generated from an entry in the Cambridge 
# Structural Database, then it will include bibliographic, chemical, 
# crystal, experimental, refinement or atomic coordinate data resulting 
# from the CCDC's data processing and validation procedures.
#
#######################################################################

data_SEYGUB
_chemical_formula_moiety         'C48 H42 Fe2 N16 2+,2(F6 P1 1-),2(C2 H3 N1)'
_chemical_name_systematic        
'bis(\m-N,N-bis[(pyridin-2-yl)methyl]-3-{[(pyridin-2-yl)methylidene]amino}aniline)-diazido-di-iron bis(hexafluorophosphate) acetonitrile solvate'
_symmetry_cell_setting           triclinic
_symmetry_space_group_name_H-M   'P -1'
_symmetry_Int_Tables_number      2
_space_group_name_Hall           '-P 1'
loop_
_symmetry_equiv_pos_site_id
_symmetry_equiv_pos_as_xyz
1 x,y,z
2 -x,-y,-z
_cell_length_a                   9.0466(5)
_cell_length_b                   13.1052(7)
_cell_length_c                   13.3358(7)
_cell_angle_alpha                65.7143(15)
_cell_angle_beta                 78.3353(17)
_cell_angle_gamma                88.2513(17)
_cell_volume                     1408.93
_exptl_crystal_colour            'light green'
_exptl_crystal_description       plank
_cell_formula_units_Z            1
loop_
_atom_site_label
_atom_site_type_symbol
_atom_site_fract_x
_atom_site_fract_y
_atom_site_fract_z
Fe1 Fe 0.08362(5) 0.69713(3) 0.68836(3)
N1 N -0.1507(3) 1.3493(2) 0.4542(2)
N2 N 0.0488(3) 1.1939(2) 0.4427(2)
N3 N 0.2825(3) 0.8379(2) 0.6243(2)
N4 N 0.2733(3) 0.6147(2) 0.7624(2)
N5 N 0.0385(3) 0.7688(2) 0.8104(2)
N6 N -0.0856(3) 0.5761(2) 0.7732(3)
N7 N -0.1017(8) 0.4878(6) 0.8472(6)
N8 N -0.1226(9) 0.3982(6) 0.9181(7)
C1 C -0.2435(4) 1.4291(3) 0.4589(3)
H1 H -0.2971 1.4622 0.4019
C2 C -0.2637(5) 1.4648(3) 0.5451(3)
H2 H -0.3306 1.5198 0.5462
C3 C -0.1840(5) 1.4181(4) 0.6282(4)
H3 H -0.1957 1.4408 0.6867
C4 C -0.0846(5) 1.3359(3) 0.6238(3)
H4 H -0.0278 1.3034 0.6788
C5 C -0.0723(4) 1.3039(3) 0.5367(3)
C6 C 0.0326(4) 1.2189(3) 0.5270(3)
H5 H 0.0874 1.1831 0.5827
C7 C 0.1508(3) 1.1093(2) 0.4373(3)
C8 C 0.1679(3) 1.0155(2) 0.5334(2)
H6 H 0.1135 1.0071 0.6037
C9 C 0.2665(3) 0.9345(2) 0.5240(3)
C10 C 0.3439(4) 0.9472(3) 0.4181(3)
H7 H 0.4085 0.8930 0.4107
C11 C 0.3253(4) 1.0405(3) 0.3231(3)
H8 H 0.3774 1.0481 0.2525
C12 C 0.2298(4) 1.1224(3) 0.3325(3)
H9 H 0.2192 1.1855 0.2688
C13 C 0.4155(3) 0.7735(2) 0.6069(3)
H10 H 0.5077 0.8179 0.5919
H11 H 0.4155 0.7570 0.5423
C14 C 0.4106(4) 0.6654(2) 0.7101(3)
C15 C 0.5412(4) 0.6204(3) 0.7466(3)
H12 H 0.6355 0.6565 0.7078
C16 C 0.5278(4) 0.5204(3) 0.8420(3)
H13 H 0.6131 0.4883 0.8683
C17 C 0.3852(4) 0.4692(3) 0.8974(3)
H14 H 0.3730 0.4027 0.9621
C18 C 0.2613(4) 0.5186(3) 0.8547(3)
H15 H 0.1658 0.4837 0.8916
C19 C 0.2848(3) 0.8683(3) 0.7198(2)
H16 H 0.3170 0.9470 0.6898
H17 H 0.3594 0.8254 0.7605
C20 C 0.1354(3) 0.8484(3) 0.8015(2)
C21 C 0.1066(4) 0.9066(3) 0.8695(3)
H18 H 0.1742 0.9635 0.8599
C22 C -0.0246(4) 0.8783(3) 0.9515(3)
H19 H -0.0468 0.9164 0.9976
C23 C -0.1226(4) 0.7927(3) 0.9644(3)
H20 H -0.2099 0.7707 1.0205
C24 C -0.0872(4) 0.7413(3) 0.8920(3)
H21 H -0.1537 0.6845 0.8998
Fe1A Fe -0.08362(5) 1.30287(3) 0.31164(3)
N1A N 0.1507(3) 0.6507(2) 0.5458(2)
N2A N -0.0488(3) 0.8061(2) 0.5573(2)
N3A N -0.2825(3) 1.1621(2) 0.3757(2)
N4A N -0.2733(3) 1.3853(2) 0.2376(2)
N5A N -0.0385(3) 1.2312(2) 0.1896(2)
N6A N 0.0856(3) 1.4239(2) 0.2268(3)
N7A N 0.1017(8) 1.5122(6) 0.1528(6)
N8A N 0.1226(9) 1.6018(6) 0.0819(7)
C1A C 0.2435(4) 0.5709(3) 0.5411(3)
H1A H 0.2971 0.5378 0.5981
C2A C 0.2637(5) 0.5352(3) 0.4549(3)
H2A H 0.3306 0.4802 0.4538
C3A C 0.1840(5) 0.5819(4) 0.3718(4)
H3A H 0.1957 0.5592 0.3133
C4A C 0.0846(5) 0.6641(3) 0.3762(3)
H4A H 0.0278 0.6966 0.3212
C5A C 0.0723(4) 0.6961(3) 0.4633(3)
C6A C -0.0326(4) 0.7811(3) 0.4730(3)
H5A H -0.0874 0.8169 0.4173
C7A C -0.1508(3) 0.8907(2) 0.5627(3)
C8A C -0.1679(3) 0.9845(2) 0.4666(2)
H6A H -0.1135 0.9929 0.3963
C9A C -0.2665(3) 1.0655(2) 0.4760(3)
C10A C -0.3439(4) 1.0528(3) 0.5819(3)
H7A H -0.4085 1.1070 0.5893
C11A C -0.3253(4) 0.9595(3) 0.6769(3)
H8A H -0.3774 0.9519 0.7475
C12A C -0.2298(4) 0.8776(3) 0.6675(3)
H9A H -0.2192 0.8145 0.7312
C13A C -0.4155(3) 1.2265(2) 0.3931(3)
H10A H -0.5077 1.1821 0.4081
H11A H -0.4155 1.2430 0.4577
C14A C -0.4106(4) 1.3346(2) 0.2899(3)
C15A C -0.5412(4) 1.3796(3) 0.2534(3)
H12A H -0.6355 1.3435 0.2922
C16A C -0.5278(4) 1.4796(3) 0.1580(3)
H13A H -0.6131 1.5117 0.1317
C17A C -0.3852(4) 1.5308(3) 0.1026(3)
H14A H -0.3730 1.5973 0.0379
C18A C -0.2613(4) 1.4814(3) 0.1453(3)
H15A H -0.1658 1.5163 0.1084
C19A C -0.2848(3) 1.1317(3) 0.2802(2)
H16A H -0.3170 1.0530 0.3102
H17A H -0.3594 1.1746 0.2395
C20A C -0.1354(3) 1.1516(3) 0.1985(2)
C21A C -0.1066(4) 1.0934(3) 0.1305(3)
H18A H -0.1742 1.0365 0.1401
C22A C 0.0246(4) 1.1217(3) 0.0485(3)
H19A H 0.0468 1.0836 0.0024
C23A C 0.1226(4) 1.2073(3) 0.0356(3)
H20A H 0.2099 1.2293 -0.0205
C24A C 0.0872(4) 1.2587(3) 0.1080(3)
H21A H 0.1537 1.3155 0.1002
P1 P 0.35263(11) 0.21975(7) 0.72769(7)
F1 F 0.3206(6) 0.1327(5) 0.6774(6)
F2 F 0.5321(4) 0.2303(7) 0.6852(7)
F3 F 0.3980(12) 0.1019(5) 0.8143(8)
F4 F 0.1718(4) 0.2049(9) 0.7738(7)
F5 F 0.3068(10) 0.3273(5) 0.6293(5)
F6 F 0.3848(9) 0.3067(6) 0.7784(7)
N9 N 0.5141(5) 0.2209(3) 1.0629(3)
C25 C 0.5879(5) 0.1942(4) 1.0006(4)
C26 C 0.6836(6) 0.1577(6) 0.9202(5)
H22 H 0.6791 0.0773 0.9507
H23 H 0.7861 0.1854 0.9062
H24 H 0.6483 0.1866 0.8510
loop_
_geom_bond_atom_site_label_1
_geom_bond_atom_site_label_2
_geom_bond_site_symmetry_1
_geom_bond_site_symmetry_2
Fe1 N3 1_555 1_555
N1 C1 1_555 1_555
N2 C6 1_555 1_555
N3 C9 1_555 1_555
N4 Fe1 1_555 1_555
N5 Fe1 1_555 1_555
N6 Fe1 1_555 1_555
N7 N6 1_555 1_555
N8 N7 1_555 1_555
C1 H1 1_555 1_555
C2 C1 1_555 1_555
H2 C2 1_555 1_555
C3 C2 1_555 1_555
H3 C3 1_555 1_555
C4 C3 1_555 1_555
H4 C4 1_555 1_555
C5 N1 1_555 1_555
C6 C5 1_555 1_555
H5 C6 1_555 1_555
C7 N2 1_555 1_555
C8 C7 1_555 1_555
H6 C8 1_555 1_555
C9 C8 1_555 1_555
C10 C9 1_555 1_555
H7 C10 1_555 1_555
C11 C10 1_555 1_555
H8 C11 1_555 1_555
C12 C7 1_555 1_555
H9 C12 1_555 1_555
C13 N3 1_555 1_555
H10 C13 1_555 1_555
H11 C13 1_555 1_555
C14 N4 1_555 1_555
C15 C14 1_555 1_555
H12 C15 1_555 1_555
C16 C15 1_555 1_555
H13 C16 1_555 1_555
C17 C16 1_555 1_555
H14 C17 1_555 1_555
C18 N4 1_555 1_555
H15 C18 1_555 1_555
C19 N3 1_555 1_555
H16 C19 1_555 1_555
H17 C19 1_555 1_555
C20 N5 1_555 1_555
C21 C20 1_555 1_555
H18 C21 1_555 1_555
C22 C21 1_555 1_555
H19 C22 1_555 1_555
C23 C22 1_555 1_555
H20 C23 1_555 1_555
C24 N5 1_555 1_555
H21 C24 1_555 1_555
P1 F1 1_555 1_555
F2 P1 1_555 1_555
F3 P1 1_555 1_555
F4 P1 1_555 1_555
F5 P1 1_555 1_555
F6 P1 1_555 1_555
N9 C25 1_555 1_555
C25 C26 1_555 1_555
C26 H22 1_555 1_555
H23 C26 1_555 1_555
H24 C26 1_555 1_555
Fe1A N1 1_555 1_555
N1A Fe1 1_555 1_555
N2A Fe1 1_555 1_555
N3A Fe1A 1_555 1_555
N4A Fe1A 1_555 1_555
N5A Fe1A 1_555 1_555
N6A Fe1A 1_555 1_555
N7A N6A 1_555 1_555
N8A N7A 1_555 1_555
C1A N1A 1_555 1_555
H1A C1A 1_555 1_555
C2A C1A 1_555 1_555
H2A C2A 1_555 1_555
C3A C2A 1_555 1_555
H3A C3A 1_555 1_555
C4A C3A 1_555 1_555
H4A C4A 1_555 1_555
C5A N1A 1_555 1_555
C6A N2A 1_555 1_555
H5A C6A 1_555 1_555
C7A N2A 1_555 1_555
C8A C7A 1_555 1_555
H6A C8A 1_555 1_555
C9A N3A 1_555 1_555
C10A C9A 1_555 1_555
H7A C10A 1_555 1_555
C11A C10A 1_555 1_555
H8A C11A 1_555 1_555
C12A C7A 1_555 1_555
H9A C12A 1_555 1_555
C13A N3A 1_555 1_555
H10A C13A 1_555 1_555
H11A C13A 1_555 1_555
C14A N4A 1_555 1_555
C15A C14A 1_555 1_555
H12A C15A 1_555 1_555
C16A C15A 1_555 1_555
H13A C16A 1_555 1_555
C17A C16A 1_555 1_555
H14A C17A 1_555 1_555
C18A N4A 1_555 1_555
H15A C18A 1_555 1_555
C19A N3A 1_555 1_555
H16A C19A 1_555 1_555
H17A C19A 1_555 1_555
C20A N5A 1_555 1_555
C21A C20A 1_555 1_555
H18A C21A 1_555 1_555
C22A C21A 1_555 1_555
H19A C22A 1_555 1_555
C23A C22A 1_555 1_555
H20A C23A 1_555 1_555
C24A N5A 1_555 1_555
H21A C24A 1_555 1_555
N2 Fe1A 1_555 1_555
C4 C5 1_555 1_555
C11 C12 1_555 1_555
C13 C14 1_555 1_555
C17 C18 1_555 1_555
C19 C20 1_555 1_555
C23 C24 1_555 1_555
C4A C5A 1_555 1_555
C5A C6A 1_555 1_555
C8A C9A 1_555 1_555
C11A C12A 1_555 1_555
C13A C14A 1_555 1_555
C17A C18A 1_555 1_555
C19A C20A 1_555 1_555
C23A C24A 1_555 1_555

#END
