
#######################################################################
#
#                 Cambridge Crystallographic Data Centre
#                                CCDC 
#
#######################################################################
#
# If this CIF has been generated from an entry in the Cambridge 
# Structural Database, then it will include bibliographic, chemical, 
# crystal, experimental, refinement or atomic coordinate data resulting 
# from the CCDC's data processing and validation procedures.
#
#######################################################################

data_SEYHAI
_chemical_formula_moiety         'C52 H48 Fe2 N12 4+,4(F6 P1 1-),2(C2 H3 N1)'
_chemical_name_systematic        
'bis(\m-N,N-bis[(pyridin-2-yl)methyl]-3-{[(pyridin-2-yl)methylidene]amino}aniline)-bis(acetonitrile)-di-iron tetrakis(hexafluorophosphate) acetonitrile solvate'
_symmetry_cell_setting           triclinic
_symmetry_space_group_name_H-M   'P -1'
_symmetry_Int_Tables_number      2
_space_group_name_Hall           '-P 1'
loop_
_symmetry_equiv_pos_site_id
_symmetry_equiv_pos_as_xyz
1 x,y,z
2 -x,-y,-z
_cell_length_a                   12.7381(5)
_cell_length_b                   12.8678(5)
_cell_length_c                   13.2029(6)
_cell_angle_alpha                109.8380(10)
_cell_angle_beta                 94.7080(10)
_cell_angle_gamma                116.9190(10)
_cell_volume                     1741.95
_exptl_crystal_colour            'reddish pink'
_exptl_crystal_description       prism
_cell_formula_units_Z            1
loop_
_atom_site_label
_atom_site_type_symbol
_atom_site_fract_x
_atom_site_fract_y
_atom_site_fract_z
Fe1 Fe -0.19887(4) -0.35476(4) 0.36366(3)
N1 N 0.3551(2) 0.3485(3) 0.7110(2)
N2 N -0.2927(3) -0.4505(3) 0.4601(3)
N3 N 0.1770(2) 0.1703(2) 0.5163(2)
N4 N -0.0819(2) -0.2813(2) 0.2529(2)
N5 N -0.0280(2) -0.3354(3) 0.4325(2)
N6 N -0.2568(3) -0.5273(3) 0.2172(2)
C1 C 0.4486(3) 0.4384(3) 0.8026(3)
H1 H 0.4488 0.5147 0.8450
C2 C -0.4077(6) -0.5763(6) 0.5697(6)
H2 H -0.4691 -0.6646 0.5164
H3 H -0.4484 -0.5353 0.6124
H4 H -0.3490 -0.5777 0.6213
C3 C 0.5457(3) 0.4251(4) 0.8388(3)
H5 H 0.6116 0.4924 0.9032
C4 C -0.3429(4) -0.5038(4) 0.5085(3)
C5 C 0.5458(4) 0.3139(5) 0.7806(4)
H6 H 0.6107 0.3027 0.8049
C6 C 0.4488(3) 0.2178(4) 0.6850(3)
H7 H 0.4456 0.1396 0.6430
C7 C 0.3570(3) 0.2402(3) 0.6530(3)
C8 C 0.2593(3) 0.1478(3) 0.5482(3)
H8 H 0.2568 0.0707 0.5035
C9 C 0.0865(3) 0.0744(3) 0.4111(2)
C10 C 0.0404(3) -0.0553(3) 0.3827(2)
H9 H 0.0658 -0.0810 0.4349
C11 C -0.0428(3) -0.1485(3) 0.2786(2)
C12 C -0.0820(4) -0.1095(4) 0.2047(3)
H10 H -0.1390 -0.1716 0.1334
C13 C -0.0377(5) 0.0205(4) 0.2355(4)
H11 H -0.0658 0.0464 0.1850
C14 C 0.0470(4) 0.1137(3) 0.3384(3)
H12 H 0.0771 0.2024 0.3584
C15 C 0.0265(3) -0.2973(3) 0.2705(3)
H13 H 0.0975 -0.2277 0.2622
H14 H 0.0080 -0.3802 0.2113
C16 C 0.0617(3) -0.2946(3) 0.3837(3)
C17 C 0.1817(3) -0.2585(4) 0.4311(3)
H15 H 0.2442 -0.2269 0.3964
C18 C 0.2080(4) -0.2694(5) 0.5297(4)
H16 H 0.2894 -0.2436 0.5645
C19 C 0.1149(4) -0.3182(4) 0.5767(3)
H17 H 0.1301 -0.3306 0.6421
C20 C -0.0015(3) -0.3489(3) 0.5266(3)
H18 H -0.0652 -0.3807 0.5600
C21 C -0.1648(3) -0.3740(3) 0.1379(2)
H19 H -0.1178 -0.3644 0.0823
H20 H -0.2304 -0.3559 0.1220
C22 C -0.2208(3) -0.5095(3) 0.1282(3)
C23 C -0.2389(3) -0.6103(4) 0.0318(3)
H21 H -0.2114 -0.5955 -0.0293
C24 C -0.2990(4) -0.7349(4) 0.0267(3)
H22 H -0.3121 -0.8059 -0.0381
C25 C -0.3385(4) -0.7533(4) 0.1160(4)
H23 H -0.3815 -0.8373 0.1130
C26 C -0.3151(3) -0.6480(3) 0.2103(3)
H24 H -0.3410 -0.6610 0.2726
Fe1A Fe 0.19887(4) 0.35476(4) 0.63634(3)
N1A N -0.3551(2) -0.3485(3) 0.2890(2)
N2A N 0.2927(3) 0.4505(3) 0.5399(3)
N3A N -0.1770(2) -0.1703(2) 0.4837(2)
N4A N 0.0819(2) 0.2813(2) 0.7471(2)
N5A N 0.0280(2) 0.3354(3) 0.5675(2)
N6A N 0.2568(3) 0.5273(3) 0.7828(2)
C1A C -0.4486(3) -0.4384(3) 0.1974(3)
H1A H -0.4488 -0.5147 0.1550
C2A C 0.4077(6) 0.5763(6) 0.4303(6)
H2A H 0.4691 0.6646 0.4836
H3A H 0.4484 0.5353 0.3876
H4A H 0.3490 0.5777 0.3787
C3A C -0.5457(3) -0.4251(4) 0.1612(3)
H5A H -0.6116 -0.4924 0.0968
C4A C 0.3429(4) 0.5038(4) 0.4915(3)
C5A C -0.5458(4) -0.3139(5) 0.2194(4)
H6A H -0.6107 -0.3027 0.1951
C6A C -0.4488(3) -0.2178(4) 0.3150(3)
H7A H -0.4456 -0.1396 0.3570
C7A C -0.3570(3) -0.2402(3) 0.3470(3)
C8A C -0.2593(3) -0.1478(3) 0.4518(3)
H8A H -0.2568 -0.0707 0.4965
C9A C -0.0865(3) -0.0744(3) 0.5889(2)
C10A C -0.0404(3) 0.0553(3) 0.6173(2)
H9A H -0.0658 0.0810 0.5651
C11A C 0.0428(3) 0.1485(3) 0.7214(2)
C12A C 0.0820(4) 0.1095(4) 0.7953(3)
H10A H 0.1390 0.1716 0.8666
C13A C 0.0377(5) -0.0205(4) 0.7645(4)
H11A H 0.0658 -0.0464 0.8150
C14A C -0.0470(4) -0.1137(3) 0.6616(3)
H12A H -0.0771 -0.2024 0.6416
C15A C -0.0265(3) 0.2973(3) 0.7295(3)
H13A H -0.0975 0.2277 0.7378
H14A H -0.0080 0.3802 0.7887
C16A C -0.0617(3) 0.2946(3) 0.6163(3)
C17A C -0.1817(3) 0.2585(4) 0.5689(3)
H15A H -0.2442 0.2269 0.6036
C18A C -0.2080(4) 0.2694(5) 0.4703(4)
H16A H -0.2894 0.2436 0.4355
C19A C -0.1149(4) 0.3182(4) 0.4233(3)
H17A H -0.1301 0.3306 0.3579
C20A C 0.0015(3) 0.3489(3) 0.4734(3)
H18A H 0.0652 0.3807 0.4400
C21A C 0.1648(3) 0.3740(3) 0.8621(2)
H19A H 0.1178 0.3644 0.9177
H20A H 0.2304 0.3559 0.8780
C22A C 0.2208(3) 0.5095(3) 0.8718(3)
C23A C 0.2389(3) 0.6103(4) 0.9682(3)
H21A H 0.2114 0.5955 1.0293
C24A C 0.2990(4) 0.7349(4) 0.9733(3)
H22A H 0.3121 0.8059 1.0381
C25A C 0.3385(4) 0.7533(4) 0.8840(4)
H23A H 0.3815 0.8373 0.8870
C26A C 0.3151(3) 0.6480(3) 0.7897(3)
H24A H 0.3410 0.6610 0.7274
P1 P 0.0708(3) 0.3779(3) 0.1681(2)
F1 F 0.1739(4) 0.5241(4) 0.2095(4)
F2 F 0.1564(4) 0.3393(4) 0.1005(3)
F3 F -0.0291(5) 0.2295(4) 0.1305(5)
F4 F -0.0064(4) 0.4244(5) 0.2403(4)
F5 F 0.1388(5) 0.3792(5) 0.2754(4)
F6 F 0.0055(4) 0.3819(5) 0.0619(3)
P4 P 0.5829(4) 0.9655(4) 0.7041(3)
F19 F 0.5493(8) 0.9369(8) 0.5749(4)
F20 F 0.4762(7) 0.9973(8) 0.7294(7)
F21 F 0.6170(5) 0.9836(5) 0.8303(3)
F22 F 0.6937(5) 0.9431(7) 0.6864(6)
F23 F 0.4905(6) 0.8165(5) 0.6656(6)
F24 F 0.6639(12) 1.1157(6) 0.7380(12)
N9 N 0.3761(6) 0.2762(6) -0.0290(5)
C31 C 0.3605(12) 0.0562(11) -0.0908(11)
H31 H 0.2969 -0.0063 -0.1621
H32 H 0.3397 0.0257 -0.0325
H33 H 0.4397 0.0658 -0.0992
C32 C 0.3681(8) 0.1794(7) -0.0591(7)
loop_
_geom_bond_atom_site_label_1
_geom_bond_atom_site_label_2
_geom_bond_site_symmetry_1
_geom_bond_site_symmetry_2
Fe1 N2 1_555 1_555
N1 C1 1_555 1_555
N2 C4 1_555 1_555
N3 C8 1_555 1_555
N4 Fe1 1_555 1_555
N5 Fe1 1_555 1_555
N6 Fe1 1_555 1_555
C1 H1 1_555 1_555
C2 H2 1_555 1_555
H3 C2 1_555 1_555
H4 C2 1_555 1_555
C3 C1 1_555 1_555
H5 C3 1_555 1_555
C4 C2 1_555 1_555
C5 C3 1_555 1_555
H6 C5 1_555 1_555
C6 C5 1_555 1_555
H7 C6 1_555 1_555
C7 N1 1_555 1_555
C8 C7 1_555 1_555
H8 C8 1_555 1_555
C9 N3 1_555 1_555
C10 C9 1_555 1_555
H9 C10 1_555 1_555
C11 N4 1_555 1_555
C12 C11 1_555 1_555
H10 C12 1_555 1_555
C13 C12 1_555 1_555
H11 C13 1_555 1_555
C14 C9 1_555 1_555
H12 C14 1_555 1_555
C15 N4 1_555 1_555
H13 C15 1_555 1_555
H14 C15 1_555 1_555
C16 N5 1_555 1_555
C17 C16 1_555 1_555
H15 C17 1_555 1_555
C18 C17 1_555 1_555
H16 C18 1_555 1_555
C19 C18 1_555 1_555
H17 C19 1_555 1_555
C20 N5 1_555 1_555
H18 C20 1_555 1_555
C21 N4 1_555 1_555
H19 C21 1_555 1_555
H20 C21 1_555 1_555
C22 N6 1_555 1_555
C23 C22 1_555 1_555
H21 C23 1_555 1_555
C24 C23 1_555 1_555
H22 C24 1_555 1_555
C25 C24 1_555 1_555
H23 C25 1_555 1_555
C26 N6 1_555 1_555
H24 C26 1_555 1_555
P1 F1 1_555 1_555
F2 P1 1_555 1_555
F3 P1 1_555 1_555
F4 P1 1_555 1_555
F5 P1 1_555 1_555
F6 P1 1_555 1_555
P4 F19 1_555 1_555
F20 P4 1_555 1_555
F21 P4 1_555 1_555
F22 P4 1_555 1_555
F23 P4 1_555 1_555
F24 P4 1_555 1_555
N9 C32 1_555 1_555
C31 H31 1_555 1_555
H32 C31 1_555 1_555
H33 C31 1_555 1_555
C32 C31 1_555 1_555
Fe1A N1 1_555 1_555
N1A Fe1 1_555 1_555
N2A Fe1A 1_555 1_555
N3A Fe1 1_555 1_555
N4A Fe1A 1_555 1_555
N5A Fe1A 1_555 1_555
N6A Fe1A 1_555 1_555
C1A N1A 1_555 1_555
H1A C1A 1_555 1_555
C2A H2A 1_555 1_555
H3A C2A 1_555 1_555
H4A C2A 1_555 1_555
C3A C1A 1_555 1_555
H5A C3A 1_555 1_555
C4A N2A 1_555 1_555
C5A C3A 1_555 1_555
H6A C5A 1_555 1_555
C6A C5A 1_555 1_555
H7A C6A 1_555 1_555
C7A N1A 1_555 1_555
C8A N3A 1_555 1_555
H8A C8A 1_555 1_555
C9A N3A 1_555 1_555
C10A C9A 1_555 1_555
H9A C10A 1_555 1_555
C11A N4A 1_555 1_555
C12A C11A 1_555 1_555
H10A C12A 1_555 1_555
C13A C12A 1_555 1_555
H11A C13A 1_555 1_555
C14A C9A 1_555 1_555
H12A C14A 1_555 1_555
C15A N4A 1_555 1_555
H13A C15A 1_555 1_555
H14A C15A 1_555 1_555
C16A N5A 1_555 1_555
C17A C16A 1_555 1_555
H15A C17A 1_555 1_555
C18A C17A 1_555 1_555
H16A C18A 1_555 1_555
C19A C18A 1_555 1_555
H17A C19A 1_555 1_555
C20A N5A 1_555 1_555
H18A C20A 1_555 1_555
C21A N4A 1_555 1_555
H19A C21A 1_555 1_555
H20A C21A 1_555 1_555
C22A N6A 1_555 1_555
C23A C22A 1_555 1_555
H21A C23A 1_555 1_555
C24A C23A 1_555 1_555
H22A C24A 1_555 1_555
C25A C24A 1_555 1_555
H23A C25A 1_555 1_555
C26A N6A 1_555 1_555
H24A C26A 1_555 1_555
N3 Fe1A 1_555 1_555
C6 C7 1_555 1_555
C10 C11 1_555 1_555
C13 C14 1_555 1_555
C15 C16 1_555 1_555
C19 C20 1_555 1_555
C21 C22 1_555 1_555
C25 C26 1_555 1_555
C2A C4A 1_555 1_555
C6A C7A 1_555 1_555
C7A C8A 1_555 1_555
C10A C11A 1_555 1_555
C13A C14A 1_555 1_555
C15A C16A 1_555 1_555
C19A C20A 1_555 1_555
C21A C22A 1_555 1_555
C25A C26A 1_555 1_555

#END
