# generated using pymatgen
data_Cu3B5H78C92(N11F10)2
_symmetry_space_group_name_H-M   'P 1'
_cell_length_a   19.50140000
_cell_length_b   19.56638107
_cell_length_c   33.31860000
_cell_angle_alpha   93.92987566
_cell_angle_beta   90.00000000
_cell_angle_gamma   119.89020099
_symmetry_Int_Tables_number   1
_chemical_formula_structural   Cu3B5H78C92(N11F10)2
_chemical_formula_sum   'Cu12 B20 H312 C368 N88 F80'
_cell_volume   10987.82935810
_cell_formula_units_Z   4
loop_
 _symmetry_equiv_pos_site_id
 _symmetry_equiv_pos_as_xyz
  1  'x, y, z'
loop_
 _atom_site_type_symbol
 _atom_site_label
 _atom_site_symmetry_multiplicity
 _atom_site_fract_x
 _atom_site_fract_y
 _atom_site_fract_z
 _atom_site_occupancy
  B  B1  1  0.378900  0.364000  0.060300  1
  B  B2  1  0.985100  0.364000  0.560300  1
  B  B3  1  0.231600  0.941600  0.202000  1
  B  B4  1  0.710000  0.941600  0.702000  1
  B  B5  1  0.919900  0.090000  0.187300  1
  B  B6  1  0.170100  0.090000  0.687300  1
  B  B7  1  0.530600  0.802400  0.070200  1
  B  B8  1  0.271800  0.802400  0.570200  1
  B  B9  1  0.364800  0.628000  0.418100  1
  B  B10  1  0.263200  0.628000  0.918100  1
  B  B11  1  0.610900  0.967000  0.377500  1
  B  B12  1  0.356100  0.967000  0.877500  1
  B  B13  1  0.855300  0.864600  0.336900  1
  B  B14  1  0.009300  0.864600  0.836900  1
  B  B15  1  0.989500  0.428800  0.077300  1
  B  B16  1  0.439300  0.428800  0.577300  1
  B  B17  1  0.684900  0.242000  0.265400  1
  B  B18  1  0.557100  0.242000  0.765400  1
  B  B19  1  0.776700  0.564800  0.159500  1
  B  B20  1  0.788100  0.564800  0.659500  1
  C  C21  1  0.119100  0.185200  0.086300  1
  C  C22  1  0.066100  0.185200  0.586300  1
  C  C23  1  0.061800  0.201400  0.101400  1
  C  C24  1  0.139600  0.201400  0.601400  1
  C  C25  1  0.055700  0.264000  0.088100  1
  C  C26  1  0.208300  0.264000  0.588100  1
  C  C27  1  0.106700  0.310200  0.059600  1
  C  C28  1  0.203500  0.310200  0.559600  1
  C  C29  1  0.164000  0.294000  0.044500  1
  C  C30  1  0.130000  0.294000  0.544500  1
  C  C31  1  0.131800  0.127800  0.098200  1
  C  C32  1  0.996000  0.127800  0.598200  1
  C  C33  1  0.094900  0.068600  0.125800  1
  C  C34  1  0.973700  0.068600  0.625800  1
  C  C35  1  0.140100  0.030400  0.128900  1
  C  C36  1  0.890300  0.030400  0.628900  1
  C  C37  1  0.266100  0.051000  0.100000  1
  C  C38  1  0.784900  0.051000  0.600000  1
  C  C39  1  0.972720  0.613640  0.941900  1
  C  C40  1  0.640920  0.613640  0.441900  1
  C  C41  1  0.905000  0.568800  0.917300  1
  C  C42  1  0.663800  0.568800  0.417300  1
  C  C43  1  0.851800  0.491400  0.925100  1
  C  C44  1  0.639600  0.491400  0.425100  1
  C  C45  1  0.866260  0.458520  0.957500  1
  C  C46  1  0.592260  0.458520  0.457500  1
  C  C47  1  0.933900  0.503200  0.982100  1
  C  C48  1  0.569300  0.503200  0.482100  1
  C  C49  1  0.032400  0.687800  0.935400  1
  C  C50  1  0.655400  0.687800  0.435400  1
  C  C51  1  0.043900  0.740800  0.905600  1
  C  C52  1  0.696900  0.740800  0.405600  1
  C  C53  1  0.122400  0.805600  0.910900  1
  C  C54  1  0.683200  0.805600  0.410900  1
  C  C55  1  0.238400  0.840200  0.959500  1
  C  C56  1  0.601800  0.840200  0.459500  1
  C  C57  1  0.258500  0.994400  0.063300  1
  C  C58  1  0.735900  0.994400  0.563300  1
  C  C59  1  0.187400  0.953400  0.040800  1
  C  C60  1  0.766000  0.953400  0.540800  1
  C  C61  1  0.180900  0.904600  0.007000  1
  C  C62  1  0.723700  0.904600  0.507000  1
  C  C63  1  0.245300  0.896800  0.995530  1
  C  C64  1  0.651500  0.896800  0.495530  1
  C  C65  1  0.316420  0.937840  0.017950  1
  C  C66  1  0.621420  0.937840  0.517950  1
  C  C67  1  0.323020  0.986640  0.051820  1
  C  C68  1  0.663620  0.986640  0.551820  1
  C  C69  1  0.394000  0.027600  0.074240  1
  C  C70  1  0.633600  0.027600  0.574240  1
  C  C71  1  0.458500  0.019800  0.062800  1
  C  C72  1  0.561300  0.019800  0.562800  1
  C  C73  1  0.451900  0.971000  0.028900  1
  C  C74  1  0.519100  0.971000  0.528900  1
  C  C75  1  0.380800  0.930000  0.006500  1
  C  C76  1  0.549200  0.930000  0.506500  1
  C  C77  1  0.192300  0.761800  0.068400  1
  C  C78  1  0.569500  0.761800  0.568400  1
  C  C79  1  0.263200  0.812200  0.089600  1
  C  C80  1  0.549000  0.812200  0.589600  1
  C  C81  1  0.332100  0.812400  0.078800  1
  C  C82  1  0.480300  0.812400  0.578800  1
  C  C83  1  0.330000  0.761800  0.046700  1
  C  C84  1  0.431800  0.761800  0.546700  1
  C  C85  1  0.259100  0.711400  0.025500  1
  C  C86  1  0.452300  0.711400  0.525500  1
  C  C87  1  0.122700  0.753000  0.077600  1
  C  C88  1  0.630300  0.753000  0.577600  1
  C  C89  1  0.095400  0.787800  0.107600  1
  C  C90  1  0.692400  0.787800  0.607600  1
  C  C91  1  0.011400  0.744000  0.106000  1
  C  C92  1  0.732600  0.744000  0.606000  1
  C  C93  1  0.912600  0.623600  0.062800  1
  C  C94  1  0.711000  0.623600  0.562800  1
  C  C95  1  0.771800  0.943200  0.966800  1
  C  C96  1  0.171400  0.943200  0.466800  1
  C  C97  1  0.784200  0.013600  0.953000  1
  C  C98  1  0.229400  0.013600  0.453000  1
  C  C99  1  0.748300  0.053000  0.971300  1
  C  C100  1  0.304700  0.053000  0.471300  1
  C  C101  1  0.700000  0.022000  0.003600  1
  C  C102  1  0.322000  0.022000  0.503600  1
  C  C103  1  0.687500  0.951400  0.017400  1
  C  C104  1  0.263900  0.951400  0.517400  1
  C  C105  1  0.800300  0.899600  0.950000  1
  C  C106  1  0.099300  0.899600  0.450000  1
  C  C107  1  0.853200  0.914600  0.918100  1
  C  C108  1  0.061400  0.914600  0.418100  1
  C  C109  1  0.853800  0.843600  0.906900  1
  C  C110  1  0.989800  0.843600  0.406900  1
  C  C111  1  0.772700  0.702200  0.930800  1
  C  C112  1  0.929500  0.702200  0.430800  1
  C  C113  1  0.872200  0.642400  0.029300  1
  C  C114  1  0.770200  0.642400  0.529300  1
  C  C115  1  0.909220  0.719240  0.017700  1
  C  C116  1  0.810020  0.719240  0.517700  1
  C  C117  1  0.878110  0.737620  0.985300  1
  C  C118  1  0.859510  0.737620  0.485300  1
  C  C119  1  0.809850  0.679100  0.964600  1
  C  C120  1  0.869250  0.679100  0.464600  1
  C  C121  1  0.772800  0.602200  0.976200  1
  C  C122  1  0.829400  0.602200  0.476200  1
  C  C123  1  0.804000  0.583800  0.008560  1
  C  C124  1  0.779800  0.583800  0.508560  1
  C  C125  1  0.766950  0.506900  0.020200  1
  C  C126  1  0.739950  0.506900  0.520200  1
  C  C127  1  0.698790  0.448380  0.999400  1
  C  C128  1  0.749590  0.448380  0.499400  1
  C  C129  1  0.667580  0.466760  0.967100  1
  C  C130  1  0.799180  0.466760  0.467100  1
  C  C131  1  0.704600  0.543600  0.955500  1
  C  C132  1  0.839000  0.543600  0.455500  1
  C  C133  1  0.307700  0.122200  0.984900  1
  C  C134  1  0.814500  0.122200  0.484900  1
  C  C135  1  0.361700  0.102600  0.968500  1
  C  C136  1  0.740900  0.102600  0.468500  1
  C  C137  1  0.435400  0.131400  0.987700  1
  C  C138  1  0.696000  0.131400  0.487700  1
  C  C139  1  0.455000  0.179800  0.023200  1
  C  C140  1  0.724800  0.179800  0.523200  1
  C  C141  1  0.400900  0.199400  0.039600  1
  C  C142  1  0.798500  0.199400  0.539600  1
  C  C143  1  0.236100  0.098600  0.967500  1
  C  C144  1  0.862500  0.098600  0.467500  1
  C  C145  1  0.193000  0.045800  0.933700  1
  C  C146  1  0.852800  0.045800  0.433700  1
  C  C147  1  0.124200  0.051400  0.926700  1
  C  C148  1  0.927200  0.051400  0.426700  1
  C  C149  1  0.071500  0.132600  0.963100  1
  C  C150  1  0.061100  0.132600  0.463100  1
  C  C151  1  0.705750  0.689300  0.060400  1
  C  C152  1  0.983550  0.689300  0.560400  1
  C  C153  1  0.684900  0.617000  0.075200  1
  C  C154  1  0.932100  0.617000  0.575200  1
  C  C155  1  0.623400  0.547600  0.056500  1
  C  C156  1  0.924200  0.547600  0.556500  1
  C  C157  1  0.582650  0.550500  0.023000  1
  C  C158  1  0.967850  0.550500  0.523000  1
  C  C159  1  0.603500  0.622800  0.008200  1
  C  C160  1  0.019300  0.622800  0.508200  1
  C  C161  1  0.760680  0.758760  0.077200  1
  C  C162  1  0.998080  0.758760  0.577200  1
  C  C163  1  0.815100  0.783200  0.110600  1
  C  C164  1  0.968100  0.783200  0.610600  1
  C  C165  1  0.853700  0.867000  0.116600  1
  C  C166  1  0.013300  0.867000  0.616600  1
  C  C167  1  0.839300  0.969400  0.082800  1
  C  C168  1  0.130100  0.969400  0.582800  1
  C  C169  1  0.006900  0.088800  0.992000  1
  C  C170  1  0.081900  0.088800  0.492000  1
  C  C171  1  0.998200  0.019400  0.005800  1
  C  C172  1  0.021200  0.019400  0.505800  1
  C  C173  1  0.944960  0.982320  0.035400  1
  C  C174  1  0.037360  0.982320  0.535400  1
  C  C175  1  0.900170  0.014340  0.051300  1
  C  C176  1  0.114170  0.014340  0.551300  1
  C  C177  1  0.908780  0.083560  0.037490  1
  C  C178  1  0.174780  0.083560  0.537490  1
  C  C179  1  0.962170  0.120740  0.007830  1
  C  C180  1  0.158570  0.120740  0.507830  1
  C  C181  1  0.970770  0.189940  0.994000  1
  C  C182  1  0.219170  0.189940  0.494000  1
  C  C183  1  0.925980  0.221960  0.009900  1
  C  C184  1  0.295980  0.221960  0.509900  1
  C  C185  1  0.872700  0.184800  0.039500  1
  C  C186  1  0.312100  0.184800  0.539500  1
  C  C187  1  0.864100  0.115600  0.053300  1
  C  C188  1  0.251500  0.115600  0.553300  1
  C  C189  1  0.127300  0.436000  0.970300  1
  C  C190  1  0.308700  0.436000  0.470300  1
  C  C191  1  0.115700  0.503000  0.983400  1
  C  C192  1  0.387300  0.503000  0.483400  1
  C  C193  1  0.466200  0.712200  0.935500  1
  C  C194  1  0.246000  0.712200  0.435500  1
  C  C195  1  0.542400  0.739000  0.957500  1
  C  C196  1  0.196600  0.739000  0.457500  1
  C  C197  1  0.145800  0.675200  0.171900  1
  C  C198  1  0.529400  0.675200  0.671900  1
  C  C199  1  0.072300  0.616800  0.155800  1
  C  C200  1  0.544500  0.616800  0.655800  1
  C  C201  1  0.004400  0.618600  0.166700  1
  C  C202  1  0.614200  0.618600  0.666700  1
  C  C203  1  0.010000  0.678800  0.193600  1
  C  C204  1  0.668800  0.678800  0.693600  1
  C  C205  1  0.083500  0.737200  0.209800  1
  C  C206  1  0.653700  0.737200  0.709800  1
  C  C207  1  0.215100  0.680400  0.161700  1
  C  C208  1  0.465300  0.680400  0.661700  1
  C  C209  1  0.236200  0.635800  0.134300  1
  C  C210  1  0.399600  0.635800  0.634300  1
  C  C211  1  0.320100  0.674800  0.133800  1
  C  C212  1  0.354700  0.674800  0.633800  1
  C  C213  1  0.427800  0.804200  0.168200  1
  C  C214  1  0.376400  0.804200  0.668200  1
  C  C215  1  0.585300  0.521200  0.298100  1
  C  C216  1  0.935900  0.521200  0.798100  1
  C  C217  1  0.570700  0.455800  0.318400  1
  C  C218  1  0.885100  0.455800  0.818400  1
  C  C219  1  0.600300  0.407400  0.304300  1
  C  C220  1  0.807100  0.407400  0.804300  1
  C  C221  1  0.644400  0.424400  0.269900  1
  C  C222  1  0.780000  0.424400  0.769900  1
  C  C223  1  0.659000  0.489800  0.249600  1
  C  C224  1  0.830800  0.489800  0.749600  1
  C  C225  1  0.562400  0.574200  0.310900  1
  C  C226  1  0.011800  0.574200  0.810900  1
  C  C227  1  0.515900  0.575600  0.343300  1
  C  C228  1  0.059700  0.575600  0.843300  1
  C  C229  1  0.518600  0.649600  0.345600  1
  C  C230  1  0.131000  0.649600  0.845600  1
  C  C231  1  0.594500  0.771800  0.305400  1
  C  C232  1  0.177300  0.771800  0.805400  1
  C  C233  1  0.474020  0.794040  0.203100  1
  C  C234  1  0.320020  0.794040  0.703100  1
  C  C235  1  0.441330  0.723460  0.221600  1
  C  C236  1  0.282130  0.723460  0.721600  1
  C  C237  1  0.479480  0.717360  0.255200  1
  C  C238  1  0.237880  0.717360  0.755200  1
  C  C239  1  0.550320  0.781840  0.270400  1
  C  C240  1  0.231520  0.781840  0.770400  1
  C  C241  1  0.583010  0.852420  0.251920  1
  C  C242  1  0.269410  0.852420  0.751920  1
  C  C243  1  0.544860  0.858520  0.218260  1
  C  C244  1  0.313660  0.858520  0.718260  1
  C  C245  1  0.577650  0.929100  0.199770  1
  C  C246  1  0.351450  0.929100  0.699770  1
  C  C247  1  0.648490  0.993580  0.214900  1
  C  C248  1  0.345090  0.993580  0.714900  1
  C  C249  1  0.686640  0.987480  0.248600  1
  C  C250  1  0.300840  0.987480  0.748600  1
  C  C251  1  0.653950  0.916900  0.267100  1
  C  C252  1  0.262950  0.916900  0.767100  1
  C  C253  1  0.647340  0.739280  0.183100  1
  C  C254  1  0.091940  0.739280  0.683100  1
  C  C255  1  0.668200  0.808600  0.164900  1
  C  C256  1  0.140400  0.808600  0.664900  1
  C  C257  1  0.730630  0.880060  0.181100  1
  C  C258  1  0.149430  0.880060  0.681100  1
  C  C259  1  0.772370  0.882340  0.215500  1
  C  C260  1  0.109970  0.882340  0.715500  1
  C  C261  1  0.751500  0.813000  0.233600  1
  C  C262  1  0.061500  0.813000  0.733600  1
  C  C263  1  0.590430  0.666860  0.169600  1
  C  C264  1  0.076430  0.666860  0.669600  1
  C  C265  1  0.537700  0.636600  0.135200  1
  C  C266  1  0.098900  0.636600  0.635200  1
  C  C267  1  0.497600  0.552800  0.134000  1
  C  C268  1  0.055200  0.552800  0.634000  1
  C  C269  1  0.503700  0.456800  0.177800  1
  C  C270  1  0.953100  0.456800  0.677800  1
  C  C271  1  0.053200  0.368400  0.291100  1
  C  C272  1  0.315200  0.368400  0.791100  1
  C  C273  1  0.000400  0.389600  0.307700  1
  C  C274  1  0.389200  0.389600  0.807700  1
  C  C275  1  0.922000  0.350800  0.293600  1
  C  C276  1  0.428800  0.350800  0.793600  1
  C  C277  1  0.896300  0.290600  0.262800  1
  C  C278  1  0.394300  0.290600  0.762800  1
  C  C279  1  0.949100  0.269400  0.246200  1
  C  C280  1  0.320300  0.269400  0.746200  1
  C  C281  1  0.128700  0.400600  0.304800  1
  C  C282  1  0.271900  0.400600  0.804800  1
  C  C283  1  0.177500  0.463600  0.333600  1
  C  C284  1  0.286100  0.463600  0.833600  1
  C  C285  1  0.248800  0.462000  0.339600  1
  C  C286  1  0.213200  0.462000  0.839600  1
  C  C287  1  0.294300  0.364600  0.312800  1
  C  C288  1  0.070300  0.364600  0.812800  1
  C  C289  1  0.445930  0.428260  0.213510  1
  C  C290  1  0.982330  0.428260  0.713510  1
  C  C291  1  0.409090  0.471380  0.224800  1
  C  C292  1  0.062290  0.471380  0.724800  1
  C  C293  1  0.360260  0.451120  0.257500  1
  C  C294  1  0.090860  0.451120  0.757500  1
  C  C295  1  0.348300  0.387800  0.278900  1
  C  C296  1  0.039500  0.387800  0.778900  1
  C  C297  1  0.385210  0.344620  0.267550  1
  C  C298  1  0.959410  0.344620  0.767550  1
  C  C299  1  0.434040  0.364880  0.234880  1
  C  C300  1  0.930840  0.364880  0.734880  1
  C  C301  1  0.470900  0.321800  0.223600  1
  C  C302  1  0.850900  0.321800  0.723600  1
  C  C303  1  0.458900  0.258400  0.244900  1
  C  C304  1  0.799500  0.258400  0.744900  1
  C  C305  1  0.410050  0.238100  0.277600  1
  C  C306  1  0.828050  0.238100  0.777600  1
  C  C307  1  0.373210  0.281220  0.288920  1
  C  C308  1  0.908010  0.281220  0.788920  1
  C  C309  1  0.404700  0.889400  0.269600  1
  C  C310  1  0.484700  0.889400  0.769600  1
  C  C311  1  0.476800  0.949000  0.286500  1
  C  C312  1  0.472200  0.949000  0.786500  1
  C  C313  1  0.519200  0.019000  0.267900  1
  C  C314  1  0.499800  0.019000  0.767900  1
  C  C315  1  0.489600  0.029400  0.232300  1
  C  C316  1  0.539800  0.029400  0.732300  1
  C  C317  1  0.417500  0.969800  0.215400  1
  C  C318  1  0.552300  0.969800  0.715400  1
  C  C319  1  0.356000  0.823600  0.288700  1
  C  C320  1  0.467600  0.823600  0.788700  1
  C  C321  1  0.366600  0.789000  0.322600  1
  C  C322  1  0.422400  0.789000  0.822600  1
  C  C323  1  0.292300  0.722800  0.330200  1
  C  C324  1  0.430500  0.722800  0.830200  1
  C  C325  1  0.154100  0.664800  0.295000  1
  C  C326  1  0.510700  0.664800  0.795000  1
  C  C327  1  0.220800  0.267000  0.192500  1
  C  C328  1  0.046200  0.267000  0.692500  1
  C  C329  1  0.271300  0.242000  0.176800  1
  C  C330  1  0.970700  0.242000  0.676800  1
  C  C331  1  0.277600  0.182600  0.194200  1
  C  C332  1  0.905000  0.182600  0.694200  1
  C  C333  1  0.233500  0.148600  0.227300  1
  C  C334  1  0.915100  0.148600  0.727300  1
  C  C335  1  0.183000  0.173600  0.243000  1
  C  C336  1  0.990600  0.173600  0.743000  1
  C  C337  1  0.208800  0.323000  0.176900  1
  C  C338  1  0.114200  0.323000  0.676900  1
  C  C339  1  0.240800  0.374200  0.145400  1
  C  C340  1  0.133400  0.374200  0.645400  1
  C  C341  1  0.196900  0.413600  0.141500  1
  C  C342  1  0.216700  0.413600  0.641500  1
  C  C343  1  0.077900  0.404200  0.176400  1
  C  C344  1  0.326300  0.404200  0.676400  1
  C  C345  1  0.134790  0.593980  0.266700  1
  C  C346  1  0.459190  0.593980  0.766700  1
  C  C347  1  0.193800  0.580400  0.251700  1
  C  C348  1  0.386600  0.580400  0.751700  1
  C  C349  1  0.175300  0.520200  0.221700  1
  C  C350  1  0.344900  0.520200  0.721700  1
  C  C351  1  0.097820  0.473640  0.206680  1
  C  C352  1  0.375820  0.473640  0.706680  1
  C  C353  1  0.038700  0.487200  0.221660  1
  C  C354  1  0.448500  0.487200  0.721660  1
  C  C355  1  0.057190  0.547380  0.251680  1
  C  C356  1  0.490190  0.547380  0.751680  1
  C  C357  1  0.998180  0.560960  0.266700  1
  C  C358  1  0.562780  0.560960  0.766700  1
  C  C359  1  0.920700  0.514400  0.251600  1
  C  C360  1  0.593700  0.514400  0.751600  1
  C  C361  1  0.902200  0.454200  0.221600  1
  C  C362  1  0.552000  0.454200  0.721600  1
  C  C363  1  0.961200  0.440600  0.206600  1
  C  C364  1  0.479400  0.440600  0.706600  1
  C  C365  1  0.907700  0.713800  0.286800  1
  C  C366  1  0.806100  0.713800  0.786800  1
  C  C367  1  0.828900  0.694400  0.271800  1
  C  C368  1  0.865500  0.694400  0.771800  1
  C  C369  1  0.943700  0.059200  0.314500  1
  C  C370  1  0.115500  0.059200  0.814500  1
  C  C371  1  0.002000  0.126800  0.294200  1
  C  C372  1  0.124800  0.126800  0.794200  1
  C  C373  1  0.797200  0.573600  0.346100  1
  C  C374  1  0.776400  0.573600  0.846100  1
  C  C375  1  0.793400  0.503400  0.348700  1
  C  C376  1  0.710000  0.503400  0.848700  1
  C  C377  1  0.177100  0.567200  0.518300  1
  C  C378  1  0.390100  0.567200  0.018300  1
  C  C379  1  0.225500  0.542800  0.538500  1
  C  C380  1  0.317300  0.542800  0.038500  1
  C  C381  1  0.854500  0.253800  0.905500  1
  C  C382  1  0.399300  0.253800  0.405500  1
  C  C383  1  0.922100  0.333600  0.902200  1
  C  C384  1  0.411500  0.333600  0.402200  1
  C  C385  1  0.022700  0.957600  0.236700  1
  C  C386  1  0.934900  0.957600  0.736700  1
  C  C387  1  0.993400  0.890400  0.208700  1
  C  C388  1  0.897000  0.890400  0.708700  1
  Cu  Cu389  1  0.250250  0.201760  0.040470  1
  Cu  Cu390  1  0.951510  0.201760  0.540470  1
  Cu  Cu391  1  0.089530  0.646340  0.006590  1
  Cu  Cu392  1  0.556810  0.646340  0.506590  1
  Cu  Cu393  1  0.696470  0.801820  0.012540  1
  Cu  Cu394  1  0.105350  0.801820  0.512540  1
  Cu  Cu395  1  0.263110  0.816160  0.218360  1
  Cu  Cu396  1  0.553050  0.816160  0.718360  1
  Cu  Cu397  1  0.656910  0.639300  0.239870  1
  Cu  Cu398  1  0.982390  0.639300  0.739870  1
  Cu  Cu399  1  0.103140  0.271920  0.242830  1
  Cu  Cu400  1  0.168780  0.271920  0.742830  1
  F  F401  1  0.326700  0.313000  0.027300  1
  F  F402  1  0.986300  0.313000  0.527300  1
  F  F403  1  0.360700  0.321000  0.093600  1
  F  F404  1  0.960300  0.321000  0.593600  1
  F  F405  1  0.457200  0.390600  0.050800  1
  F  F406  1  0.933400  0.390600  0.550800  1
  F  F407  1  0.369400  0.429000  0.067400  1
  F  F408  1  0.059600  0.429000  0.567400  1
  F  F409  1  0.229400  0.895200  0.233900  1
  F  F410  1  0.665800  0.895200  0.733900  1
  F  F411  1  0.255300  0.918200  0.167800  1
  F  F412  1  0.662900  0.918200  0.667800  1
  F  F413  1  0.157600  0.932200  0.195600  1
  F  F414  1  0.774600  0.932200  0.695600  1
  F  F415  1  0.282700  0.020400  0.212600  1
  F  F416  1  0.737700  0.020400  0.712600  1
  F  F417  1  0.866200  0.092200  0.161200  1
  F  F418  1  0.226000  0.092200  0.661200  1
  F  F419  1  0.932100  0.029600  0.173400  1
  F  F420  1  0.097500  0.029600  0.673400  1
  F  F421  1  0.990500  0.160400  0.189500  1
  F  F422  1  0.169900  0.160400  0.689500  1
  F  F423  1  0.886400  0.075600  0.224200  1
  F  F424  1  0.189200  0.075600  0.724200  1
  F  F425  1  0.473800  0.734800  0.084600  1
  F  F426  1  0.261000  0.734800  0.584600  1
  F  F427  1  0.541400  0.866200  0.093000  1
  F  F428  1  0.324800  0.866200  0.593000  1
  F  F429  1  0.505700  0.809200  0.032000  1
  F  F430  1  0.303500  0.809200  0.532000  1
  F  F431  1  0.598700  0.800200  0.068000  1
  F  F432  1  0.201500  0.800200  0.568000  1
  F  F433  1  0.386400  0.572200  0.406400  1
  F  F434  1  0.185800  0.572200  0.906400  1
  F  F435  1  0.427900  0.700800  0.423900  1
  F  F436  1  0.272900  0.700800  0.923900  1
  F  F437  1  0.321100  0.606600  0.451600  1
  F  F438  1  0.285500  0.606600  0.951600  1
  F  F439  1  0.311800  0.623200  0.388600  1
  F  F440  1  0.311400  0.623200  0.888600  1
  F  F441  1  0.681800  0.965600  0.381000  1
  F  F442  1  0.283800  0.965600  0.881000  1
  F  F443  1  0.594200  0.990800  0.414200  1
  F  F444  1  0.396600  0.990800  0.914200  1
  F  F445  1  0.620300  0.020000  0.349700  1
  F  F446  1  0.399700  0.020000  0.849700  1
  F  F447  1  0.550700  0.893200  0.364600  1
  F  F448  1  0.342500  0.893200  0.864600  1
  F  F449  1  0.902300  0.919800  0.366100  1
  F  F450  1  0.017500  0.919800  0.866100  1
  F  F451  1  0.787600  0.868600  0.332600  1
  F  F452  1  0.081000  0.868600  0.832600  1
  F  F453  1  0.892400  0.876200  0.300900  1
  F  F454  1  0.983800  0.876200  0.800900  1
  F  F455  1  0.837000  0.791200  0.348000  1
  F  F456  1  0.954200  0.791200  0.848000  1
  F  F457  1  0.946500  0.368200  0.102400  1
  F  F458  1  0.421700  0.368200  0.602400  1
  F  F459  1  0.963300  0.482200  0.080400  1
  F  F460  1  0.518900  0.482200  0.580400  1
  F  F461  1  0.980600  0.397200  0.037900  1
  F  F462  1  0.416600  0.397200  0.537900  1
  F  F463  1  0.068700  0.465000  0.087500  1
  F  F464  1  0.396300  0.465000  0.587500  1
  F  F465  1  0.701000  0.240800  0.305600  1
  F  F466  1  0.539800  0.240800  0.805600  1
  F  F467  1  0.697200  0.187200  0.243200  1
  F  F468  1  0.490000  0.187200  0.743200  1
  F  F469  1  0.606800  0.222200  0.260200  1
  F  F470  1  0.615400  0.222200  0.760200  1
  F  F471  1  0.735200  0.316200  0.253200  1
  F  F472  1  0.581000  0.316200  0.753200  1
  F  F473  1  0.833700  0.637200  0.147700  1
  F  F474  1  0.803500  0.637200  0.647700  1
  F  F475  1  0.809600  0.557400  0.194500  1
  F  F476  1  0.747800  0.557400  0.694500  1
  F  F477  1  0.717800  0.579000  0.173100  1
  F  F478  1  0.861200  0.579000  0.673100  1
  F  F479  1  0.781900  0.511600  0.132000  1
  F  F480  1  0.729700  0.511600  0.632000  1
  H  H481  1  0.027700  0.170400  0.120500  1
  H  H482  1  0.142700  0.170400  0.620500  1
  H  H483  1  0.017400  0.274800  0.098200  1
  H  H484  1  0.257400  0.274800  0.598200  1
  H  H485  1  0.102700  0.352200  0.050700  1
  H  H486  1  0.249500  0.352200  0.550700  1
  H  H487  1  0.198100  0.325000  0.025500  1
  H  H488  1  0.126900  0.325000  0.525500  1
  H  H489  1  0.049200  0.057000  0.139400  1
  H  H490  1  0.007800  0.057000  0.639400  1
  H  H491  1  0.129100  0.989200  0.144900  1
  H  H492  1  0.860100  0.989200  0.644900  1
  H  H493  1  0.270100  0.028400  0.124300  1
  H  H494  1  0.758300  0.028400  0.624300  1
  H  H495  1  0.314800  0.100800  0.098400  1
  H  H496  1  0.786000  0.100800  0.598400  1
  H  H497  1  0.895400  0.590800  0.895600  1
  H  H498  1  0.695400  0.590800  0.395600  1
  H  H499  1  0.806500  0.461400  0.908600  1
  H  H500  1  0.654900  0.461400  0.408600  1
  H  H501  1  0.830600  0.406600  0.962700  1
  H  H502  1  0.576000  0.406600  0.462700  1
  H  H503  1  0.943700  0.481400  0.003800  1
  H  H504  1  0.537700  0.481400  0.503800  1
  H  H505  1  0.006600  0.734200  0.886100  1
  H  H506  1  0.727600  0.734200  0.386100  1
  H  H507  1  0.145500  0.848800  0.895500  1
  H  H508  1  0.703300  0.848800  0.395500  1
  H  H509  1  0.271400  0.870600  0.938400  1
  H  H510  1  0.599200  0.870600  0.438400  1
  H  H511  1  0.257900  0.806200  0.967700  1
  H  H512  1  0.548300  0.806200  0.467700  1
  H  H513  1  0.144300  0.958600  0.048500  1
  H  H514  1  0.814300  0.958600  0.548500  1
  H  H515  1  0.133300  0.877200  0.992000  1
  H  H516  1  0.743900  0.877200  0.492000  1
  H  H517  1  0.398500  0.060400  0.096900  1
  H  H518  1  0.661900  0.060400  0.596900  1
  H  H519  1  0.506100  0.047400  0.077800  1
  H  H520  1  0.541300  0.047400  0.577800  1
  H  H521  1  0.495000  0.965800  0.021300  1
  H  H522  1  0.470800  0.965800  0.521300  1
  H  H523  1  0.376400  0.897400  0.983800  1
  H  H524  1  0.521000  0.897400  0.483800  1
  H  H525  1  0.264600  0.846000  0.111000  1
  H  H526  1  0.581400  0.846000  0.611000  1
  H  H527  1  0.379600  0.846200  0.093000  1
  H  H528  1  0.466600  0.846200  0.593000  1
  H  H529  1  0.376200  0.762000  0.039500  1
  H  H530  1  0.385800  0.762000  0.539500  1
  H  H531  1  0.257700  0.677600  0.004100  1
  H  H532  1  0.419900  0.677600  0.504100  1
  H  H533  1  0.127000  0.831600  0.125300  1
  H  H534  1  0.704600  0.831600  0.625300  1
  H  H535  1  0.978400  0.754200  0.122300  1
  H  H536  1  0.775800  0.754200  0.622300  1
  H  H537  1  0.879600  0.610800  0.086000  1
  H  H538  1  0.731200  0.610800  0.586000  1
  H  H539  1  0.915400  0.577000  0.053700  1
  H  H540  1  0.661600  0.577000  0.553700  1
  H  H541  1  0.816600  0.034600  0.931400  1
  H  H542  1  0.218000  0.034600  0.431400  1
  H  H543  1  0.756700  0.100400  0.962000  1
  H  H544  1  0.343700  0.100400  0.462000  1
  H  H545  1  0.675900  0.048200  0.015900  1
  H  H546  1  0.372300  0.048200  0.515900  1
  H  H547  1  0.655200  0.930600  0.039000  1
  H  H548  1  0.275400  0.930600  0.539000  1
  H  H549  1  0.882400  0.962600  0.906700  1
  H  H550  1  0.080200  0.962600  0.406700  1
  H  H551  1  0.883400  0.836800  0.886700  1
  H  H552  1  0.953400  0.836800  0.386700  1
  H  H553  1  0.783700  0.684400  0.904900  1
  H  H554  1  0.900700  0.684400  0.404900  1
  H  H555  1  0.715700  0.674800  0.933200  1
  H  H556  1  0.959100  0.674800  0.433200  1
  H  H557  1  0.954900  0.758400  0.031600  1
  H  H558  1  0.803500  0.758400  0.531600  1
  H  H559  1  0.902800  0.789000  0.977600  1
  H  H560  1  0.886200  0.789000  0.477600  1
  H  H561  1  0.787800  0.494600  0.041800  1
  H  H562  1  0.706800  0.494600  0.541800  1
  H  H563  1  0.674000  0.397000  0.007200  1
  H  H564  1  0.723000  0.397000  0.507200  1
  H  H565  1  0.621900  0.427600  0.953200  1
  H  H566  1  0.805700  0.427600  0.453200  1
  H  H567  1  0.683800  0.556000  0.933800  1
  H  H568  1  0.872200  0.556000  0.433800  1
  H  H569  1  0.348600  0.070200  0.944700  1
  H  H570  1  0.721600  0.070200  0.444700  1
  H  H571  1  0.471500  0.118200  0.976700  1
  H  H572  1  0.646700  0.118200  0.476700  1
  H  H573  1  0.504300  0.199000  0.036000  1
  H  H574  1  0.694700  0.199000  0.536000  1
  H  H575  1  0.414000  0.231600  0.063400  1
  H  H576  1  0.817600  0.231600  0.563400  1
  H  H577  1  0.207200  0.013000  0.918800  1
  H  H578  1  0.805800  0.013000  0.418800  1
  H  H579  1  0.085600  0.023200  0.906400  1
  H  H580  1  0.937600  0.023200  0.406400  1
  H  H581  1  0.046500  0.130000  0.937400  1
  H  H582  1  0.083500  0.130000  0.437400  1
  H  H583  1  0.100500  0.187800  0.973100  1
  H  H584  1  0.087300  0.187800  0.473100  1
  H  H585  1  0.712100  0.615000  0.097600  1
  H  H586  1  0.902900  0.615000  0.597600  1
  H  H587  1  0.609400  0.499200  0.066400  1
  H  H588  1  0.889800  0.499200  0.566400  1
  H  H589  1  0.541500  0.504000  0.010500  1
  H  H590  1  0.962500  0.504000  0.510500  1
  H  H591  1  0.576300  0.624800  0.985800  1
  H  H592  1  0.048500  0.624800  0.485800  1
  H  H593  1  0.824100  0.750200  0.126000  1
  H  H594  1  0.926100  0.750200  0.626000  1
  H  H595  1  0.892200  0.898400  0.136500  1
  H  H596  1  0.006200  0.898400  0.636500  1
  H  H597  1  0.858400  0.999200  0.108700  1
  H  H598  1  0.140800  0.999200  0.608700  1
  H  H599  1  0.790200  0.967800  0.075800  1
  H  H600  1  0.177600  0.967800  0.575800  1
  H  H601  1  0.028200  0.998000  0.995200  1
  H  H602  1  0.969800  0.998000  0.495200  1
  H  H603  1  0.939200  0.936000  0.044700  1
  H  H604  1  0.996800  0.936000  0.544700  1
  H  H605  1  0.006400  0.214800  0.974200  1
  H  H606  1  0.208400  0.214800  0.474200  1
  H  H607  1  0.931800  0.268200  0.000600  1
  H  H608  1  0.336400  0.268200  0.500600  1
  H  H609  1  0.842800  0.206200  0.050100  1
  H  H610  1  0.363400  0.206200  0.550100  1
  H  H611  1  0.828400  0.090800  0.073200  1
  H  H612  1  0.262400  0.090800  0.573200  1
  H  H613  1  0.111100  0.399800  0.990900  1
  H  H614  1  0.288700  0.399800  0.490900  1
  H  H615  1  0.182300  0.455400  0.965400  1
  H  H616  1  0.273100  0.455400  0.465400  1
  H  H617  1  0.096300  0.409600  0.946000  1
  H  H618  1  0.313300  0.409600  0.446000  1
  H  H619  1  0.424200  0.670800  0.949100  1
  H  H620  1  0.246600  0.670800  0.449100  1
  H  H621  1  0.468400  0.692800  0.908600  1
  H  H622  1  0.224400  0.692800  0.408600  1
  H  H623  1  0.456800  0.755800  0.934600  1
  H  H624  1  0.299000  0.755800  0.434600  1
  H  H625  1  0.068600  0.576600  0.137800  1
  H  H626  1  0.508000  0.576600  0.637800  1
  H  H627  1  0.955300  0.579600  0.155900  1
  H  H628  1  0.624300  0.579600  0.655900  1
  H  H629  1  0.964400  0.679800  0.200900  1
  H  H630  1  0.715400  0.679800  0.700900  1
  H  H631  1  0.087200  0.777400  0.227800  1
  H  H632  1  0.690200  0.777400  0.727800  1
  H  H633  1  0.201300  0.589200  0.119200  1
  H  H634  1  0.387900  0.589200  0.619200  1
  H  H635  1  0.349800  0.658200  0.118500  1
  H  H636  1  0.308400  0.658200  0.618500  1
  H  H637  1  0.427000  0.853000  0.174200  1
  H  H638  1  0.426000  0.853000  0.674200  1
  H  H639  1  0.456500  0.809800  0.143800  1
  H  H640  1  0.353300  0.809800  0.643800  1
  H  H641  1  0.541200  0.444400  0.341400  1
  H  H642  1  0.903200  0.444400  0.841400  1
  H  H643  1  0.590500  0.363600  0.317900  1
  H  H644  1  0.773100  0.363600  0.817900  1
  H  H645  1  0.664200  0.392000  0.260500  1
  H  H646  1  0.727800  0.392000  0.760500  1
  H  H647  1  0.688500  0.501200  0.226600  1
  H  H648  1  0.812700  0.501200  0.726600  1
  H  H649  1  0.488500  0.535200  0.360100  1
  H  H650  1  0.046700  0.535200  0.860100  1
  H  H651  1  0.493200  0.666200  0.364200  1
  H  H652  1  0.173000  0.666200  0.864200  1
  H  H653  1  0.650000  0.795200  0.299200  1
  H  H654  1  0.145200  0.795200  0.799200  1
  H  H655  1  0.591400  0.801600  0.329200  1
  H  H656  1  0.210200  0.801600  0.829200  1
  H  H657  1  0.393900  0.680400  0.211400  1
  H  H658  1  0.286500  0.680400  0.711400  1
  H  H659  1  0.457600  0.670200  0.267600  1
  H  H660  1  0.212600  0.670200  0.767600  1
  H  H661  1  0.552100  0.933200  0.177200  1
  H  H662  1  0.381100  0.933200  0.677200  1
  H  H663  1  0.670400  0.040800  0.202600  1
  H  H664  1  0.370400  0.040800  0.702600  1
  H  H665  1  0.734000  0.030600  0.258800  1
  H  H666  1  0.296600  0.030600  0.758800  1
  H  H667  1  0.679400  0.912800  0.289600  1
  H  H668  1  0.233400  0.912800  0.789600  1
  H  H669  1  0.640300  0.807000  0.141900  1
  H  H670  1  0.166700  0.807000  0.641900  1
  H  H671  1  0.744600  0.926400  0.168900  1
  H  H672  1  0.181800  0.926400  0.668900  1
  H  H673  1  0.814200  0.930200  0.226300  1
  H  H674  1  0.116000  0.930200  0.726300  1
  H  H675  1  0.779400  0.814600  0.256600  1
  H  H676  1  0.035200  0.814600  0.756600  1
  H  H677  1  0.530700  0.666400  0.116800  1
  H  H678  1  0.135700  0.666400  0.616800  1
  H  H679  1  0.459700  0.518000  0.114600  1
  H  H680  1  0.058300  0.518000  0.614600  1
  H  H681  1  0.551000  0.455200  0.185000  1
  H  H682  1  0.904200  0.455200  0.685000  1
  H  H683  1  0.478500  0.420000  0.154300  1
  H  H684  1  0.941500  0.420000  0.654300  1
  H  H685  1  0.017700  0.430000  0.328300  1
  H  H686  1  0.412300  0.430000  0.828300  1
  H  H687  1  0.886700  0.365000  0.304700  1
  H  H688  1  0.478300  0.365000  0.804700  1
  H  H689  1  0.843800  0.264600  0.253400  1
  H  H690  1  0.420800  0.264600  0.753400  1
  H  H691  1  0.931900  0.229200  0.225600  1
  H  H692  1  0.297300  0.229200  0.725600  1
  H  H693  1  0.165200  0.499800  0.346200  1
  H  H694  1  0.334600  0.499800  0.846200  1
  H  H695  1  0.291200  0.496800  0.356900  1
  H  H696  1  0.205600  0.496800  0.856900  1
  H  H697  1  0.261700  0.307400  0.310900  1
  H  H698  1  0.045700  0.307400  0.810900  1
  H  H699  1  0.325800  0.380400  0.337800  1
  H  H700  1  0.054600  0.380400  0.837800  1
  H  H701  1  0.417100  0.513800  0.210500  1
  H  H702  1  0.096700  0.513800  0.710500  1
  H  H703  1  0.335600  0.480000  0.265100  1
  H  H704  1  0.144400  0.480000  0.765100  1
  H  H705  1  0.503600  0.335400  0.201700  1
  H  H706  1  0.831800  0.335400  0.701700  1
  H  H707  1  0.483600  0.229600  0.237400  1
  H  H708  1  0.746000  0.229600  0.737400  1
  H  H709  1  0.402100  0.195600  0.291900  1
  H  H710  1  0.793500  0.195600  0.791900  1
  H  H711  1  0.340500  0.267600  0.310800  1
  H  H712  1  0.927100  0.267600  0.810800  1
  H  H713  1  0.496600  0.942000  0.310300  1
  H  H714  1  0.445400  0.942000  0.810300  1
  H  H715  1  0.567400  0.058800  0.279300  1
  H  H716  1  0.491400  0.058800  0.779300  1
  H  H717  1  0.518000  0.076200  0.219900  1
  H  H718  1  0.558200  0.076200  0.719900  1
  H  H719  1  0.397700  0.976800  0.191600  1
  H  H720  1  0.579100  0.976800  0.691600  1
  H  H721  1  0.413800  0.806600  0.337200  1
  H  H722  1  0.392800  0.806600  0.837200  1
  H  H723  1  0.282400  0.689400  0.350700  1
  H  H724  1  0.407000  0.689400  0.850700  1
  H  H725  1  0.130100  0.693200  0.284300  1
  H  H726  1  0.563100  0.693200  0.784300  1
  H  H727  1  0.131100  0.647000  0.320700  1
  H  H728  1  0.515900  0.647000  0.820700  1
  H  H729  1  0.300800  0.264800  0.154600  1
  H  H730  1  0.964000  0.264800  0.654600  1
  H  H731  1  0.311400  0.165800  0.183700  1
  H  H732  1  0.854400  0.165800  0.683700  1
  H  H733  1  0.237700  0.108800  0.238900  1
  H  H734  1  0.871100  0.108800  0.738900  1
  H  H735  1  0.153400  0.150800  0.265100  1
  H  H736  1  0.997400  0.150800  0.765100  1
  H  H737  1  0.283000  0.380600  0.129900  1
  H  H738  1  0.097600  0.380600  0.629900  1
  H  H739  1  0.205400  0.450400  0.123100  1
  H  H740  1  0.245000  0.450400  0.623100  1
  H  H741  1  0.031800  0.357800  0.185200  1
  H  H742  1  0.326000  0.357800  0.685200  1
  H  H743  1  0.063600  0.415200  0.150700  1
  H  H744  1  0.351600  0.415200  0.650700  1
  H  H745  1  0.245700  0.611600  0.261800  1
  H  H746  1  0.365900  0.611600  0.761800  1
  H  H747  1  0.214900  0.511200  0.211700  1
  H  H748  1  0.296300  0.511200  0.711700  1
  H  H749  1  0.010600  0.601200  0.286700  1
  H  H750  1  0.590600  0.601200  0.786700  1
  H  H751  1  0.881100  0.523400  0.261700  1
  H  H752  1  0.642300  0.523400  0.761700  1
  H  H753  1  0.850300  0.423000  0.211600  1
  H  H754  1  0.572700  0.423000  0.711600  1
  H  H755  1  0.948900  0.400400  0.186500  1
  H  H756  1  0.451500  0.400400  0.686500  1
  H  H757  1  0.903000  0.689000  0.311400  1
  H  H758  1  0.786000  0.689000  0.811400  1
  H  H759  1  0.940100  0.770000  0.291800  1
  H  H760  1  0.829900  0.770000  0.791800  1
  H  H761  1  0.931500  0.695000  0.267100  1
  H  H762  1  0.763500  0.695000  0.767100  1
  H  H763  1  0.967700  0.054400  0.338500  1
  H  H764  1  0.086700  0.054400  0.838500  1
  H  H765  1  0.925100  0.012000  0.296900  1
  H  H766  1  0.086900  0.012000  0.796900  1
  H  H767  1  0.900100  0.066800  0.321400  1
  H  H768  1  0.166700  0.066800  0.821400  1
  H  H769  1  0.790000  0.580400  0.318400  1
  H  H770  1  0.790400  0.580400  0.818400  1
  H  H771  1  0.847900  0.615200  0.356400  1
  H  H772  1  0.767300  0.615200  0.856400  1
  H  H773  1  0.756300  0.575000  0.361600  1
  H  H774  1  0.818700  0.575000  0.861600  1
  H  H775  1  0.125900  0.544200  0.529900  1
  H  H776  1  0.418300  0.544200  0.029900  1
  H  H777  1  0.171100  0.549800  0.490200  1
  H  H778  1  0.378700  0.549800  0.990200  1
  H  H779  1  0.201800  0.623800  0.521300  1
  H  H780  1  0.422000  0.623800  0.021300  1
  H  H781  1  0.808900  0.249000  0.891700  1
  H  H782  1  0.440100  0.249000  0.391700  1
  H  H783  1  0.843700  0.245200  0.933400  1
  H  H784  1  0.401500  0.245200  0.433400  1
  H  H785  1  0.866800  0.215400  0.893600  1
  H  H786  1  0.348600  0.215400  0.393600  1
  H  H787  1  0.982100  0.970800  0.241700  1
  H  H788  1  0.988700  0.970800  0.741700  1
  H  H789  1  0.067500  0.001400  0.226000  1
  H  H790  1  0.933900  0.001400  0.726000  1
  H  H791  1  0.038500  0.946000  0.261500  1
  H  H792  1  0.907500  0.946000  0.761500  1
  N  N793  1  0.170100  0.231400  0.057800  1
  N  N794  1  0.061300  0.231400  0.557800  1
  N  N795  1  0.204900  0.065800  0.103200  1
  N  N796  1  0.860900  0.065800  0.603200  1
  N  N797  1  0.199800  0.126000  0.084300  1
  N  N798  1  0.926200  0.126000  0.584300  1
  N  N799  1  0.987200  0.580800  0.974300  1
  N  N800  1  0.593600  0.580800  0.474300  1
  N  N801  1  0.159400  0.792600  0.944000  1
  N  N802  1  0.633200  0.792600  0.444000  1
  N  N803  1  0.103800  0.720000  0.959100  1
  N  N804  1  0.616200  0.720000  0.459100  1
  N  N805  1  0.190200  0.711200  0.036300  1
  N  N806  1  0.521000  0.711200  0.536300  1
  N  N807  1  0.986800  0.682200  0.074900  1
  N  N808  1  0.695400  0.682200  0.574900  1
  N  N809  1  0.055600  0.687800  0.057400  1
  N  N810  1  0.632200  0.687800  0.557400  1
  N  N811  1  0.723400  0.912000  0.999100  1
  N  N812  1  0.188600  0.912000  0.499100  1
  N  N813  1  0.801300  0.784800  0.931700  1
  N  N814  1  0.983500  0.784800  0.431700  1
  N  N815  1  0.768200  0.819400  0.958400  1
  N  N816  1  0.051200  0.819400  0.458400  1
  N  N817  1  0.327300  0.170600  0.020500  1
  N  N818  1  0.843300  0.170600  0.520500  1
  N  N819  1  0.124900  0.107800  0.956100  1
  N  N820  1  0.982900  0.107800  0.456100  1
  N  N821  1  0.194100  0.137000  0.981300  1
  N  N822  1  0.942900  0.137000  0.481300  1
  N  N823  1  0.665100  0.692200  0.026900  1
  N  N824  1  0.027100  0.692200  0.526900  1
  N  N825  1  0.823020  0.894240  0.086800  1
  N  N826  1  0.071220  0.894240  0.586800  1
  N  N827  1  0.765500  0.827400  0.062500  1
  N  N828  1  0.061900  0.827400  0.562500  1
  N  N829  1  0.109700  0.558000  0.995100  1
  N  N830  1  0.448300  0.558000  0.495100  1
  N  N831  1  0.600100  0.762600  0.977400  1
  N  N832  1  0.162500  0.762600  0.477400  1
  N  N833  1  0.151400  0.735400  0.198900  1
  N  N834  1  0.584000  0.735400  0.698900  1
  N  N835  1  0.350900  0.743600  0.161000  1
  N  N836  1  0.392700  0.743600  0.661000  1
  N  N837  1  0.285900  0.747000  0.178200  1
  N  N838  1  0.461100  0.747000  0.678200  1
  N  N839  1  0.629400  0.538200  0.263700  1
  N  N840  1  0.908800  0.538200  0.763700  1
  N  N841  1  0.566810  0.694020  0.314600  1
  N  N842  1  0.127210  0.694020  0.814600  1
  N  N843  1  0.593900  0.647400  0.293100  1
  N  N844  1  0.053500  0.647400  0.793100  1
  N  N845  1  0.688980  0.741560  0.217400  1
  N  N846  1  0.052580  0.741560  0.717400  1
  N  N847  1  0.525500  0.531200  0.167600  1
  N  N848  1  0.005700  0.531200  0.667600  1
  N  N849  1  0.583000  0.601800  0.189500  1
  N  N850  1  0.018800  0.601800  0.689500  1
  N  N851  1  0.027600  0.308400  0.260400  1
  N  N852  1  0.280800  0.308400  0.760400  1
  N  N853  1  0.243900  0.397800  0.314500  1
  N  N854  1  0.153900  0.397800  0.814500  1
  N  N855  1  0.169600  0.359800  0.293100  1
  N  N856  1  0.190200  0.359800  0.793100  1
  N  N857  1  0.375000  0.899800  0.234000  1
  N  N858  1  0.524800  0.899800  0.734000  1
  N  N859  1  0.235800  0.716400  0.301100  1
  N  N860  1  0.480600  0.716400  0.801100  1
  N  N861  1  0.275200  0.778800  0.275500  1
  N  N862  1  0.503600  0.778800  0.775500  1
  N  N863  1  0.176700  0.233000  0.225600  1
  N  N864  1  0.056300  0.233000  0.725600  1
  N  N865  1  0.137900  0.387000  0.170700  1
  N  N866  1  0.249100  0.387000  0.670700  1
  N  N867  1  0.145200  0.331000  0.192600  1
  N  N868  1  0.185800  0.331000  0.692600  1
  N  N869  1  0.768600  0.678000  0.260100  1
  N  N870  1  0.909400  0.678000  0.760100  1
  N  N871  1  0.043900  0.181800  0.277600  1
  N  N872  1  0.137900  0.181800  0.777600  1
  N  N873  1  0.789900  0.437200  0.347500  1
  N  N874  1  0.647300  0.437200  0.847500  1
  N  N875  1  0.257600  0.521200  0.558700  1
  N  N876  1  0.263600  0.521200  0.058700  1
  N  N877  1  0.973500  0.391800  0.895000  1
  N  N878  1  0.418300  0.391800  0.395000  1
  N  N879  1  0.959200  0.837200  0.185600  1
  N  N880  1  0.878000  0.837200  0.685600  1
