
#######################################################################
#
#                 Cambridge Crystallographic Data Centre
#                                CCDC 
#
#######################################################################
#
# If this CIF has been generated from an entry in the Cambridge 
# Structural Database, then it will include bibliographic, chemical, 
# crystal, experimental, refinement or atomic coordinate data resulting 
# from the CCDC's data processing and validation procedures.
#
#######################################################################

data_SEZFAG
_chemical_formula_moiety         'C420 H334 Cl2 Cu12 N90 O10 22+,22(Cl1 O4 1-)'
_chemical_name_systematic        
'pentadecakis(\m~2~-1,4-bis(3-(2-Pyridyl)-1H-pyrazolylmethyl)naphthalene)-diaqua-bis(perchlorato-O)-dodeca-copper docosaperchlorate'
_symmetry_cell_setting           monoclinic
_symmetry_space_group_name_H-M   'P 21/n'
_symmetry_Int_Tables_number      14
_space_group_name_Hall           '-P 2yn'
loop_
_symmetry_equiv_pos_site_id
_symmetry_equiv_pos_as_xyz
1 x,y,z
2 1/2-x,1/2+y,1/2-z
3 -x,-y,-z
4 1/2+x,1/2-y,1/2+z
_cell_length_a                   29.779(4)
_cell_length_b                   38.677(4)
_cell_length_c                   45.440(5)
_cell_angle_alpha                90
_cell_angle_beta                 97.798(2)
_cell_angle_gamma                90
_cell_volume                     51852.1
_exptl_crystal_colour            'light green'
_exptl_crystal_description       slab
_cell_formula_units_Z            4
loop_
_atom_site_label
_atom_site_type_symbol
_atom_site_fract_x
_atom_site_fract_y
_atom_site_fract_z
Cu1 Cu 0.44302(9) 0.00518(6) 0.35872(7)
Cu2 Cu 0.22149(9) 0.15576(5) 0.20476(5)
Cu3 Cu 0.52176(9) 0.06259(6) 0.14824(7)
Cu4 Cu 0.71079(10) 0.08963(6) 0.47864(7)
Cu5 Cu 0.87494(11) 0.14356(8) 0.32832(8)
Cu6 Cu 0.83148(9) 0.38298(6) 0.33830(6)
Cu7 Cu 0.19108(9) 0.34634(6) 0.33823(6)
Cu8 Cu 0.34671(11) 0.25007(6) 0.50251(7)
Cu9 Cu 0.62992(8) 0.38726(6) 0.50473(5)
Cu10 Cu 0.65111(11) 0.27222(7) 0.10002(7)
Cu11 Cu 0.40509(12) 0.40295(7) 0.12259(7)
Cu12 Cu 0.52175(9) 0.51358(6) 0.30536(6)
N1 N 0.5093(3) 0.0045(3) 0.3538(3)
C1 C 0.5379(4) -0.0228(3) 0.3633(3)
H1 H 0.5260 -0.0432 0.3710
C2 C 0.5840(4) -0.0204(3) 0.3615(3)
H2 H 0.6036 -0.0391 0.3680
C3 C 0.6015(3) 0.0094(4) 0.3502(3)
H3 H 0.6331 0.0110 0.3490
C4 C 0.5729(5) 0.0367(3) 0.3408(3)
H4 H 0.5849 0.0571 0.3331
C5 C 0.5268(4) 0.0343(3) 0.3426(3)
N2 N 0.4299(3) 0.0880(3) 0.3388(3)
N3 N 0.4538(4) 0.0564(3) 0.3450(3)
C6 C 0.4975(4) 0.0602(3) 0.3362(3)
C7 C 0.5006(4) 0.0940(3) 0.3245(3)
H5 H 0.5261 0.1035 0.3169
C8 C 0.4588(5) 0.1112(2) 0.3261(3)
H6 H 0.4515 0.1342 0.3198
C9 C 0.3859(6) 0.0960(5) 0.3466(4)
H7 H 0.3858 0.1204 0.3530
H8 H 0.3807 0.0815 0.3638
N4 N 0.2373(4) 0.1458(3) 0.1637(2)
C10 C 0.2308(4) 0.1703(2) 0.1412(3)
H9 H 0.2204 0.1928 0.1452
C11 C 0.2395(4) 0.1619(3) 0.1128(2)
H10 H 0.2351 0.1787 0.0974
C12 C 0.2547(4) 0.1290(3) 0.1069(2)
H11 H 0.2606 0.1232 0.0874
C13 C 0.2611(4) 0.1044(2) 0.1294(3)
H12 H 0.2715 0.0819 0.1254
C14 C 0.2524(4) 0.1128(3) 0.1578(3)
N5 N 0.2444(4) 0.0671(3) 0.2254(2)
N6 N 0.2450(4) 0.0975(2) 0.2079(3)
C15 C 0.2574(4) 0.0880(3) 0.1799(3)
C16 C 0.2645(4) 0.0516(3) 0.1801(3)
H13 H 0.2731 0.0383 0.1642
C17 C 0.2564(4) 0.0387(2) 0.2082(3)
H14 H 0.2587 0.0153 0.2143
C18 C 0.2325(6) 0.0661(5) 0.2554(4)
H15 H 0.2203 0.0430 0.2593
H16 H 0.2086 0.0834 0.2573
C19 C 0.3463(2) 0.0905(2) 0.3218(2)
C20 C 0.3544(3) 0.0816(2) 0.2934(3)
H17 H 0.3845 0.0812 0.2886
C21 C 0.3183(4) 0.0732(2) 0.2718(2)
H18 H 0.3238 0.0671 0.2524
C22 C 0.2742(3) 0.0737(2) 0.27871(18)
C23 C 0.2662(3) 0.08262(15) 0.30717(17)
C24 C 0.3023(3) 0.09103(16) 0.32872(17)
C25 C 0.2943(3) 0.1000(2) 0.35718(17)
H19 H 0.3189 0.1057 0.3719
C26 C 0.2502(4) 0.1005(2) 0.3641(2)
H20 H 0.2447 0.1066 0.3835
C27 C 0.2142(3) 0.0921(2) 0.3425(3)
H21 H 0.1840 0.0924 0.3473
C28 C 0.2222(2) 0.0831(2) 0.3141(2)
H22 H 0.1975 0.0774 0.2993
N7 N 0.2124(5) 0.1605(2) 0.2475(2)
C29 C 0.1695(4) 0.1575(3) 0.2561(3)
H23 H 0.1439 0.1535 0.2417
C30 C 0.1641(4) 0.1604(3) 0.2860(3)
H24 H 0.1348 0.1584 0.2919
C31 C 0.2016(5) 0.1663(3) 0.3071(2)
H25 H 0.1979 0.1683 0.3275
C32 C 0.2445(4) 0.1693(3) 0.2985(3)
H26 H 0.2701 0.1733 0.3130
C33 C 0.2499(4) 0.1664(3) 0.2687(3)
N8 N 0.3270(5) 0.1814(3) 0.2181(3)
N9 N 0.2827(4) 0.1739(3) 0.2247(3)
C34 C 0.2851(4) 0.1706(3) 0.2560(3)
C35 C 0.3308(5) 0.1760(3) 0.2687(2)
H27 H 0.3420 0.1753 0.2893
C36 C 0.3567(3) 0.1827(3) 0.2453(4)
H28 H 0.3883 0.1872 0.2475
C37 C 0.3364(7) 0.1893(4) 0.1891(4)
H29 H 0.3595 0.2079 0.1906
H30 H 0.3085 0.1985 0.1774
N10 N 0.5405(5) 0.0224(2) 0.1746(2)
C38 C 0.5855(4) 0.0137(3) 0.1835(3)
H31 H 0.6091 0.0274 0.1774
C39 C 0.5962(3) -0.0152(3) 0.2013(3)
H32 H 0.6270 -0.0211 0.2074
C40 C 0.5618(5) -0.0353(2) 0.2102(2)
H33 H 0.5691 -0.0550 0.2224
C41 C 0.5168(4) -0.0266(3) 0.2013(3)
H34 H 0.4933 -0.0403 0.2074
C42 C 0.5061(3) 0.0023(3) 0.1835(3)
N11 N 0.4100(4) 0.0425(3) 0.1417(2)
N12 N 0.4566(4) 0.0408(3) 0.1534(3)
C43 C 0.4631(4) 0.0114(3) 0.1722(3)
C44 C 0.4205(5) -0.0051(3) 0.1722(3)
H35 H 0.4149 -0.0253 0.1829
C45 C 0.3876(3) 0.0142(3) 0.1534(3)
H36 H 0.3562 0.0090 0.1493
C46 C 0.3925(7) 0.0710(4) 0.1234(4)
H37 H 0.3663 0.0628 0.1094
H38 H 0.4161 0.0788 0.1116
C47 C 0.3541(3) 0.1579(2) 0.17162(19)
C48 C 0.3638(3) 0.1266(3) 0.18614(19)
H39 H 0.3624 0.1248 0.2068
C49 C 0.3757(3) 0.0980(2) 0.1704(2)
H40 H 0.3824 0.0766 0.1803
C50 C 0.3779(3) 0.10065(17) 0.1401(2)
C51 C 0.3681(2) 0.13193(17) 0.12557(19)
C52 C 0.3562(2) 0.16054(17) 0.14133(19)
C53 C 0.3464(3) 0.19183(17) 0.1268(2)
H41 H 0.3383 0.2114 0.1376
C54 C 0.3485(3) 0.1945(2) 0.0965(2)
H42 H 0.3419 0.2159 0.0866
C55 C 0.3604(4) 0.1659(3) 0.08076(19)
H43 H 0.3619 0.1677 0.0601
C56 C 0.3702(3) 0.1346(2) 0.09528(19)
H44 H 0.3783 0.1150 0.0845
N13 N 0.3743(3) 0.0100(3) 0.3603(4)
C57 C 0.3562(5) 0.0190(3) 0.3858(3)
H45 H 0.3757 0.0245 0.4035
C58 C 0.3095(5) 0.0198(3) 0.3856(3)
H46 H 0.2971 0.0259 0.4031
C59 C 0.2809(3) 0.0116(3) 0.3597(4)
H47 H 0.2489 0.0122 0.3596
C60 C 0.2990(5) 0.0027(3) 0.3342(3)
H48 H 0.2794 -0.0028 0.3165
C61 C 0.3457(5) 0.0019(3) 0.3344(3)
N14 N 0.4257(4) -0.0276(3) 0.2868(4)
N15 N 0.4142(5) -0.0139(3) 0.3138(3)
C62 C 0.3664(5) -0.0095(3) 0.3104(3)
C63 C 0.3484(4) -0.0205(3) 0.2814(4)
H49 H 0.3174 -0.0203 0.2732
C64 C 0.3851(6) -0.0317(3) 0.2668(3)
H50 H 0.3828 -0.0403 0.2471
C65 C 0.4710(7) -0.0325(5) 0.2822(5)
H51 H 0.4722 -0.0523 0.2684
H52 H 0.4889 -0.0390 0.3013
N16 N 0.4987(4) 0.1051(3) 0.1242(4)
C66 C 0.4971(4) 0.1075(3) 0.0936(3)
H53 H 0.5062 0.0885 0.0826
C67 C 0.4824(4) 0.1379(4) 0.0790(3)
H54 H 0.4813 0.1396 0.0581
C68 C 0.4692(4) 0.1658(3) 0.0951(4)
H55 H 0.4591 0.1866 0.0851
C69 C 0.4707(4) 0.1634(3) 0.1257(4)
H56 H 0.4617 0.1825 0.1367
C70 C 0.4854(4) 0.1330(4) 0.1403(3)
N17 N 0.5305(4) 0.1075(3) 0.2149(3)
N18 N 0.5204(5) 0.1023(3) 0.1837(3)
C71 C 0.4934(5) 0.1305(4) 0.1717(3)
C72 C 0.4867(4) 0.1531(3) 0.1953(4)
H57 H 0.4699 0.1740 0.1936
C73 C 0.5097(5) 0.1389(4) 0.2220(3)
H58 H 0.5109 0.1486 0.2413
C74 C 0.5594(6) 0.0854(4) 0.2345(4)
H59 H 0.5744 0.0997 0.2511
H60 H 0.5834 0.0763 0.2236
C75 C 0.4937(3) -0.0018(3) 0.2696(3)
C76 C 0.4682(3) 0.0254(3) 0.2561(3)
H61 H 0.4361 0.0247 0.2542
C77 C 0.4898(4) 0.0536(3) 0.2452(3)
H62 H 0.4724 0.0722 0.2360
C78 C 0.5368(4) 0.0547(2) 0.2479(2)
C79 C 0.5623(3) 0.02751(19) 0.26151(18)
C80 C 0.5408(3) -0.00071(19) 0.27236(18)
C81 C 0.5662(4) -0.0279(2) 0.2859(2)
H63 H 0.5515 -0.0472 0.2933
C82 C 0.6133(4) -0.0268(3) 0.2886(3)
H64 H 0.6307 -0.0454 0.2979
C83 C 0.6348(3) 0.0014(3) 0.2778(3)
H65 H 0.6670 0.0021 0.2796
C84 C 0.6093(3) 0.0286(3) 0.2642(3)
H66 H 0.6241 0.0478 0.2568
N19 N 0.4419(5) -0.0458(3) 0.3744(4)
C85 C 0.4343(5) -0.0747(4) 0.3562(3)
H67 H 0.4274 -0.0720 0.3353
C86 C 0.4366(5) -0.1076(3) 0.3686(4)
H68 H 0.4314 -0.1274 0.3562
C87 C 0.4467(5) -0.1116(3) 0.3992(4)
H69 H 0.4483 -0.1341 0.4077
C88 C 0.4543(5) -0.0827(4) 0.4174(3)
H70 H 0.4612 -0.0855 0.4383
C89 C 0.4520(5) -0.0498(3) 0.4050(4)
N20 N 0.4694(5) 0.0371(3) 0.4288(4)
N21 N 0.4609(5) 0.0112(4) 0.4066(3)
C90 C 0.4618(5) -0.0214(3) 0.4209(4)
C91 C 0.4708(5) -0.0157(4) 0.4520(3)
H71 H 0.4733 -0.0331 0.4670
C92 C 0.4755(5) 0.0204(4) 0.4569(3)
H72 H 0.4817 0.0315 0.4757
C93 C 0.4767(6) 0.0741(4) 0.4227(5)
H73 H 0.4735 0.0878 0.4407
H74 H 0.4533 0.0820 0.4066
N22 N 0.7601(4) 0.0530(3) 0.4833(4)
C94 C 0.7868(5) 0.0446(4) 0.5098(3)
H75 H 0.7826 0.0564 0.5276
C95 C 0.8196(5) 0.0190(4) 0.5104(3)
H76 H 0.8379 0.0132 0.5285
C96 C 0.8257(4) 0.0017(3) 0.4844(4)
H77 H 0.8482 -0.0158 0.4848
C97 C 0.7990(6) 0.0101(4) 0.4578(3)
H78 H 0.8032 -0.0017 0.4401
C98 C 0.7662(5) 0.0357(4) 0.4573(3)
N23 N 0.6887(4) 0.0819(3) 0.4041(4)
N24 N 0.7097(5) 0.0743(4) 0.4333(3)
C99 C 0.7385(5) 0.0452(4) 0.4317(3)
C100 C 0.7352(5) 0.0349(3) 0.4015(4)
H79 H 0.7508 0.0161 0.3940
C101 C 0.7044(5) 0.0575(4) 0.3844(3)
H80 H 0.6958 0.0566 0.3635
C102 C 0.6561(5) 0.1096(5) 0.3955(5)
H81 H 0.6557 0.1151 0.3742
H82 H 0.6650 0.1306 0.4072
C103 C 0.5240(4) 0.0803(3) 0.4137(3)
C104 C 0.5594(5) 0.0567(2) 0.4191(3)
H83 H 0.5542 0.0346 0.4271
C105 C 0.6023(4) 0.0654(3) 0.4128(3)
H84 H 0.6265 0.0493 0.4165
C106 C 0.6100(3) 0.0978(3) 0.4011(3)
C107 C 0.5746(3) 0.1214(2) 0.39566(19)
C108 C 0.5317(3) 0.1127(2) 0.40198(19)
C109 C 0.4963(3) 0.1363(3) 0.3966(3)
H85 H 0.4670 0.1303 0.4009
C110 C 0.5039(4) 0.1686(3) 0.3849(3)
H86 H 0.4798 0.1848 0.3812
C111 C 0.5469(5) 0.1774(2) 0.3786(3)
H87 H 0.5521 0.1995 0.3705
C112 C 0.5822(4) 0.1537(3) 0.3840(3)
H88 H 0.6116 0.1597 0.3796
N25 N 0.6615(5) 0.1243(3) 0.4750(3)
C113 C 0.6157(6) 0.1170(3) 0.4744(3)
H89 H 0.6060 0.0938 0.4760
C114 C 0.5841(4) 0.1437(4) 0.4713(3)
H90 H 0.5528 0.1387 0.4709
C115 C 0.5984(5) 0.1776(3) 0.4689(3)
H91 H 0.5768 0.1959 0.4668
C116 C 0.6442(6) 0.1849(3) 0.4695(3)
H92 H 0.6539 0.2082 0.4679
C117 C 0.6758(4) 0.1583(4) 0.4726(3)
N26 N 0.7945(5) 0.1439(4) 0.4765(3)
N27 N 0.7489(6) 0.1330(3) 0.4764(3)
C118 C 0.7211(4) 0.1630(5) 0.4745(3)
C119 C 0.7494(6) 0.1923(3) 0.4734(3)
H93 H 0.7397 0.2157 0.4720
C120 C 0.7948(5) 0.1806(4) 0.4746(3)
H94 H 0.8208 0.1947 0.4742
C121 C 0.8335(7) 0.1223(5) 0.4758(4)
H95 H 0.8334 0.1043 0.4912
H96 H 0.8610 0.1366 0.4813
N28 N 0.8300(5) 0.1613(4) 0.2956(3)
C122 C 0.8303(4) 0.1916(4) 0.2792(3)
H97 H 0.8559 0.2065 0.2820
C123 C 0.7931(6) 0.2001(3) 0.2585(3)
H98 H 0.7933 0.2208 0.2473
C124 C 0.7556(4) 0.1784(4) 0.2544(3)
H99 H 0.7302 0.1842 0.2403
C125 C 0.7554(5) 0.1481(4) 0.2708(4)
H100 H 0.7298 0.1332 0.2679
C126 C 0.7926(6) 0.1396(3) 0.2914(3)
N29 N 0.8253(5) 0.0706(4) 0.3398(3)
N30 N 0.8286(5) 0.1032(3) 0.3260(3)
C127 C 0.7891(6) 0.1078(3) 0.3050(3)
C128 C 0.7615(4) 0.0780(4) 0.3059(3)
H101 H 0.7330 0.0741 0.2942
C129 C 0.7839(6) 0.0550(3) 0.3274(4)
H102 H 0.7730 0.0330 0.3326
C130 C 0.8606(8) 0.0600(5) 0.3665(5)
H103 H 0.8599 0.0347 0.3696
H104 H 0.8915 0.0666 0.3628
C131 C 0.8376(4) 0.1047(3) 0.4468(3)
C132 C 0.8063(3) 0.1119(3) 0.4220(3)
H105 H 0.7808 0.1262 0.4238
C133 C 0.8121(4) 0.0982(3) 0.3945(3)
H106 H 0.7907 0.1031 0.3775
C134 C 0.8494(4) 0.0773(3) 0.3918(2)
C135 C 0.8807(3) 0.0702(2) 0.4165(2)
C136 C 0.8749(3) 0.0839(2) 0.44404(19)
C137 C 0.9062(4) 0.0767(3) 0.4688(2)
H107 H 0.9022 0.0861 0.4876
C138 C 0.9434(4) 0.0558(3) 0.4661(3)
H108 H 0.9649 0.0510 0.4831
C139 C 0.9493(3) 0.0421(3) 0.4386(3)
H109 H 0.9747 0.0279 0.4368
C140 C 0.9179(4) 0.0493(3) 0.4138(3)
H110 H 0.9219 0.0399 0.3950
N31 N 0.9243(4) 0.1289(4) 0.3611(3)
C141 C 0.9599(5) 0.1068(3) 0.3574(3)
H111 H 0.9610 0.0958 0.3388
C142 C 0.9939(4) 0.1007(3) 0.3810(4)
H112 H 1.0182 0.0856 0.3785
C143 C 0.9922(4) 0.1167(4) 0.4082(3)
H113 H 1.0155 0.1126 0.4243
C144 C 0.9567(6) 0.1389(3) 0.4119(3)
H114 H 0.9556 0.1499 0.4304
C145 C 0.9227(4) 0.1450(3) 0.3883(4)
N32 N 0.8183(4) 0.1878(3) 0.3779(3)
N33 N 0.8534(6) 0.1670(3) 0.3691(3)
C146 C 0.8883(4) 0.1643(3) 0.3936(4)
C147 C 0.8749(5) 0.1835(4) 0.4175(3)
H115 H 0.8918 0.1861 0.4367
C148 C 0.8316(5) 0.1980(3) 0.4079(3)
H116 H 0.8145 0.2121 0.4194
C149 C 0.7787(6) 0.1971(5) 0.3581(4)
H117 H 0.7541 0.2030 0.3698
H118 H 0.7687 0.1769 0.3455
N34 N 0.8993(3) 0.4004(4) 0.3425(3)
C150 C 0.9167(5) 0.4252(3) 0.3631(3)
H119 H 0.8971 0.4372 0.3745
C151 C 0.9629(5) 0.4324(3) 0.3671(3)
H120 H 0.9748 0.4494 0.3812
C152 C 0.9916(3) 0.4149(4) 0.3505(3)
H121 H 1.0231 0.4199 0.3533
C153 C 0.9741(5) 0.3901(3) 0.3300(3)
H122 H 0.9937 0.3781 0.3186
C154 C 0.9279(5) 0.3829(3) 0.3259(3)
N35 N 0.8524(4) 0.3248(3) 0.2825(3)
N36 N 0.8649(5) 0.3500(3) 0.3049(3)
C155 C 0.9118(5) 0.3571(3) 0.3054(3)
C156 C 0.9282(4) 0.3364(4) 0.2834(4)
H123 H 0.9584 0.3359 0.2789
C157 C 0.8915(6) 0.3164(3) 0.2693(3)
H124 H 0.8928 0.3002 0.2537
C158 C 0.8077(6) 0.3092(5) 0.2774(4)
H125 H 0.8030 0.2989 0.2573
H126 H 0.7845 0.3274 0.2781
C159 C 0.7869(4) 0.2274(3) 0.3384(2)
C160 C 0.8295(4) 0.2427(3) 0.3399(3)
H127 H 0.8537 0.2346 0.3540
C161 C 0.8365(3) 0.2696(3) 0.3208(3)
H128 H 0.8655 0.2800 0.3218
C162 C 0.8009(4) 0.2813(2) 0.3002(3)
C163 C 0.7584(3) 0.26612(19) 0.29871(18)
C164 C 0.7514(3) 0.23917(19) 0.31780(19)
C165 C 0.7089(4) 0.2239(3) 0.3163(3)
H129 H 0.7041 0.2055 0.3293
C166 C 0.6733(3) 0.2357(3) 0.2957(3)
H130 H 0.6443 0.2253 0.2947
C167 C 0.6803(4) 0.2626(3) 0.2766(3)
H131 H 0.6561 0.2706 0.2625
C168 C 0.7229(4) 0.2779(3) 0.2781(2)
H132 H 0.7277 0.2963 0.2651
N37 N 0.1539(3) 0.1415(3) 0.1874(3)
C169 C 0.1412(4) 0.1069(3) 0.1843(3)
H133 H 0.1621 0.0893 0.1914
C170 C 0.0980(5) 0.0982(2) 0.1709(3)
H134 H 0.0893 0.0746 0.1688
C171 C 0.0674(3) 0.1240(4) 0.1605(3)
H135 H 0.0378 0.1180 0.1514
C172 C 0.0801(4) 0.1585(3) 0.1636(3)
H136 H 0.0591 0.1762 0.1565
C173 C 0.1233(5) 0.1673(2) 0.1770(3)
N38 N 0.1922(4) 0.2424(3) 0.1953(3)
N39 N 0.1842(4) 0.2063(3) 0.1933(3)
C174 C 0.1378(5) 0.2010(3) 0.1821(3)
C175 C 0.1171(3) 0.2340(4) 0.1772(3)
H137 H 0.0862 0.2381 0.1698
C176 C 0.1507(5) 0.2596(2) 0.1853(3)
H138 H 0.1462 0.2839 0.1843
C177 C 0.2360(6) 0.2562(5) 0.2055(3)
H139 H 0.2384 0.2797 0.1973
H140 H 0.2594 0.2415 0.1981
N40 N 0.1411(4) 0.3384(4) 0.3636(3)
C178 C 0.1107(5) 0.3637(2) 0.3699(3)
H141 H 0.1130 0.3865 0.3623
C179 C 0.0770(4) 0.3558(3) 0.3871(3)
H142 H 0.0562 0.3732 0.3914
C180 C 0.0737(4) 0.3225(4) 0.3982(3)
H143 H 0.0506 0.3171 0.4100
C181 C 0.1041(5) 0.2972(2) 0.3920(3)
H144 H 0.1018 0.2744 0.3995
C182 C 0.1378(4) 0.3051(3) 0.3747(3)
N41 N 0.2349(4) 0.2651(3) 0.3494(3)
N42 N 0.2043(5) 0.2924(2) 0.3529(3)
C183 C 0.1709(4) 0.2797(3) 0.3696(3)
C184 C 0.1809(5) 0.2445(3) 0.3765(3)
H145 H 0.1640 0.2296 0.3875
C185 C 0.2205(5) 0.2355(3) 0.3640(3)
H146 H 0.2348 0.2135 0.3651
C186 C 0.2705(7) 0.2663(5) 0.3353(4)
H147 H 0.2920 0.2480 0.3436
H148 H 0.2857 0.2888 0.3396
C187 C 0.2451(3) 0.2578(2) 0.2394(2)
C188 C 0.2096(3) 0.2538(2) 0.2561(3)
H149 H 0.1798 0.2498 0.2464
C189 C 0.2179(3) 0.2557(2) 0.2869(3)
H150 H 0.1936 0.2529 0.2983
C190 C 0.2616(4) 0.2616(2) 0.3010(2)
C191 C 0.2971(3) 0.26559(16) 0.28435(17)
C192 C 0.2888(3) 0.26372(16) 0.25354(17)
C193 C 0.3243(4) 0.2677(2) 0.2369(2)
H151 H 0.3187 0.2665 0.2158
C194 C 0.3680(3) 0.2736(2) 0.2510(3)
H152 H 0.3923 0.2764 0.2396
C195 C 0.3763(3) 0.2755(2) 0.2818(3)
H153 H 0.4061 0.2795 0.2914
C196 C 0.3408(3) 0.2715(2) 0.2985(2)
H154 H 0.3464 0.2728 0.3195
N43 N 0.2394(4) 0.3539(3) 0.3123(3)
C197 C 0.2353(4) 0.3441(3) 0.2827(4)
H155 H 0.2083 0.3332 0.2736
C198 C 0.2706(6) 0.3503(3) 0.2662(2)
H156 H 0.2677 0.3436 0.2460
C199 C 0.3100(4) 0.3663(3) 0.2795(3)
H157 H 0.3341 0.3706 0.2683
C200 C 0.3141(4) 0.3761(3) 0.3092(4)
H158 H 0.3410 0.3871 0.3182
C201 C 0.2788(6) 0.3699(3) 0.3256(2)
N44 N 0.2455(5) 0.3842(3) 0.3977(3)
N45 N 0.2391(4) 0.3716(3) 0.3680(3)
C202 C 0.2776(6) 0.3810(4) 0.3546(3)
C203 C 0.3079(4) 0.3994(3) 0.3759(4)
H159 H 0.3364 0.4087 0.3728
C204 C 0.2880(5) 0.4013(3) 0.4025(3)
H160 H 0.3009 0.4122 0.4204
C205 C 0.2145(7) 0.3766(5) 0.4184(5)
H161 H 0.1829 0.3796 0.4086
H162 H 0.2196 0.3929 0.4354
N46 N 0.3993(5) 0.2244(3) 0.4891(3)
C206 C 0.4439(6) 0.2275(3) 0.5026(2)
H163 H 0.4507 0.2402 0.5205
C207 C 0.4786(4) 0.2120(3) 0.4897(3)
H164 H 0.5091 0.2141 0.4989
C208 C 0.4687(5) 0.1933(3) 0.4635(3)
H165 H 0.4925 0.1827 0.4547
C209 C 0.4241(6) 0.1902(3) 0.4501(2)
H166 H 0.4174 0.1775 0.4321
C210 C 0.3894(4) 0.2058(3) 0.4629(3)
N47 N 0.2689(4) 0.2157(3) 0.4541(3)
N48 N 0.3133(6) 0.2225(3) 0.4687(3)
C211 C 0.3444(4) 0.2041(4) 0.4535(4)
C212 C 0.3192(6) 0.1859(3) 0.4295(3)
H167 H 0.3315 0.1715 0.4157
C213 C 0.2725(5) 0.1931(3) 0.4299(3)
H168 H 0.2481 0.1843 0.4164
C214 C 0.2329(7) 0.2341(5) 0.4607(5)
H169 H 0.2352 0.2359 0.4826
H170 H 0.2050 0.2209 0.4538
C215 C 0.2215(4) 0.3387(2) 0.4299(2)
C216 C 0.2556(3) 0.3175(3) 0.4219(3)
H171 H 0.2770 0.3266 0.4102
C217 C 0.2584(3) 0.2832(3) 0.4309(3)
H172 H 0.2817 0.2688 0.4254
C218 C 0.2271(4) 0.2700(2) 0.4481(3)
C219 C 0.1930(3) 0.29107(18) 0.45610(18)
C220 C 0.1902(3) 0.32542(18) 0.44703(18)
C221 C 0.1561(4) 0.3465(2) 0.4551(3)
H173 H 0.1542 0.3700 0.4489
C222 C 0.1248(3) 0.3333(3) 0.4722(3)
H174 H 0.1015 0.3477 0.4777
C223 C 0.1276(3) 0.2989(3) 0.4813(2)
H175 H 0.1063 0.2899 0.4930
C224 C 0.1617(4) 0.2778(2) 0.4732(2)
H176 H 0.1637 0.2544 0.4794
N49 N 0.2965(4) 0.2777(3) 0.5157(3)
C225 C 0.2660(4) 0.2642(2) 0.5332(3)
H177 H 0.2677 0.2405 0.5388
C226 C 0.2329(4) 0.2853(3) 0.5426(3)
H178 H 0.2121 0.2761 0.5546
C227 C 0.2304(4) 0.3200(3) 0.5344(3)
H179 H 0.2078 0.3344 0.5408
C228 C 0.2609(5) 0.3335(2) 0.5169(3)
H180 H 0.2591 0.3572 0.5113
C229 C 0.2939(4) 0.3124(3) 0.5075(3)
N50 N 0.3793(4) 0.3166(3) 0.4616(3)
N51 N 0.3532(5) 0.2997(2) 0.4812(3)
C230 C 0.3223(4) 0.3242(3) 0.4903(3)
C231 C 0.3293(5) 0.3562(3) 0.4763(3)
H181 H 0.3132 0.3770 0.4784
C232 C 0.3646(5) 0.3515(3) 0.4585(3)
H182 H 0.3762 0.3687 0.4467
C233 C 0.4103(6) 0.3010(5) 0.4458(4)
H183 H 0.4096 0.3132 0.4266
H184 H 0.4001 0.2770 0.4413
N52 N 0.6373(4) 0.4061(3) 0.5476(2)
C234 C 0.6497(4) 0.4404(3) 0.5530(2)
H185 H 0.6528 0.4554 0.5368
C235 C 0.6577(4) 0.4526(2) 0.5820(3)
H186 H 0.6661 0.4761 0.5856
C236 C 0.6532(4) 0.4306(3) 0.6056(2)
H187 H 0.6587 0.4390 0.6254
C237 C 0.6408(4) 0.3963(3) 0.6002(3)
H188 H 0.6378 0.3813 0.6163
C238 C 0.6329(4) 0.3840(2) 0.5712(3)
N53 N 0.6034(4) 0.3047(3) 0.5341(2)
N54 N 0.6172(4) 0.3398(3) 0.5347(3)
C239 C 0.6218(4) 0.3513(2) 0.5646(3)
C240 C 0.6108(5) 0.3233(3) 0.5825(2)
H189 H 0.6110 0.3237 0.6034
C241 C 0.5994(4) 0.2945(2) 0.5636(3)
H190 H 0.5907 0.2722 0.5697
C242 C 0.5948(6) 0.2874(4) 0.5057(4)
H191 H 0.5999 0.2623 0.5088
H192 H 0.6167 0.2959 0.4928
C243 C 0.4582(3) 0.2999(2) 0.4605(2)
C244 C 0.4686(4) 0.3114(2) 0.4896(2)
H193 H 0.4457 0.3215 0.4995
C245 C 0.5125(4) 0.3081(2) 0.50425(19)
H194 H 0.5196 0.3159 0.5241
C246 C 0.5460(3) 0.2933(2) 0.48979(19)
C247 C 0.5356(3) 0.28178(16) 0.46068(18)
C248 C 0.4917(3) 0.28507(16) 0.44603(18)
C249 C 0.4813(3) 0.2736(2) 0.41692(19)
H195 H 0.4513 0.2758 0.4069
C250 C 0.5148(4) 0.2588(2) 0.40246(19)
H196 H 0.5077 0.2509 0.3826
C251 C 0.5587(4) 0.2555(2) 0.4171(2)
H197 H 0.5816 0.2454 0.4072
C252 C 0.5691(3) 0.2670(2) 0.4462(2)
H198 H 0.5991 0.2647 0.4562
N55 N 0.5246(6) 0.0301(3) 0.1076(3)
C253 C 0.4890(4) 0.0108(4) 0.0930(4)
H199 H 0.4600 0.0116 0.0994
C254 C 0.4959(5) -0.0097(3) 0.0689(3)
H200 H 0.4717 -0.0229 0.0588
C255 C 0.5384(6) -0.0109(3) 0.0594(3)
H201 H 0.5431 -0.0249 0.0430
C256 C 0.5740(4) 0.0084(4) 0.0741(4)
H202 H 0.6030 0.0076 0.0676
C257 C 0.5670(5) 0.0290(3) 0.0982(4)
N56 N 0.6269(6) 0.0880(3) 0.1462(3)
N57 N 0.5881(5) 0.0679(4) 0.1356(4)
C258 C 0.5975(6) 0.0495(3) 0.1101(4)
C259 C 0.6422(6) 0.0580(4) 0.1050(3)
H203 H 0.6572 0.0494 0.0894
C260 C 0.6604(4) 0.0818(4) 0.1273(4)
H204 H 0.6897 0.0919 0.1292
C261 C 0.6319(8) 0.1120(3) 0.1715(4)
H205 H 0.6645 0.1152 0.1786
H206 H 0.6176 0.1017 0.1879
N58 N 0.6335(7) 0.2848(3) 0.0581(3)
C262 C 0.6643(4) 0.2990(3) 0.0411(4)
H207 H 0.6952 0.3017 0.0494
C263 C 0.6500(6) 0.3092(3) 0.0120(4)
H208 H 0.6710 0.3189 0.0004
C264 C 0.6048(7) 0.3053(3) 0.0000(3)
H209 H 0.5950 0.3123 -0.0199
C265 C 0.5740(4) 0.2912(3) 0.0170(4)
H210 H 0.5431 0.2885 0.0087
C266 C 0.5883(6) 0.2809(3) 0.0460(4)
N59 N 0.5488(7) 0.2560(3) 0.1135(3)
N60 N 0.5807(4) 0.2649(3) 0.0942(5)
C267 C 0.5569(7) 0.2693(3) 0.0652(4)
C268 C 0.5102(6) 0.2631(4) 0.0665(4)
H211 H 0.4865 0.2643 0.0503
C269 C 0.5052(5) 0.2550(3) 0.0964(5)
H212 H 0.4775 0.2497 0.1037
C270 C 0.5560(8) 0.2502(4) 0.1455(4)
H213 H 0.5271 0.2526 0.1537
H214 H 0.5778 0.2673 0.1553
C271 C 0.6101(4) 0.1475(2) 0.1633(3)
C272 C 0.5975(4) 0.1577(3) 0.1340(2)
H215 H 0.6009 0.1421 0.1183
C273 C 0.5799(4) 0.1905(3) 0.1278(2)
H216 H 0.5714 0.1975 0.1077
C274 C 0.5749(4) 0.2133(2) 0.1508(3)
C275 C 0.5875(3) 0.20311(18) 0.1801(2)
C276 C 0.6050(3) 0.17022(18) 0.1864(2)
C277 C 0.6176(4) 0.1601(2) 0.2157(2)
H217 H 0.6296 0.1376 0.2200
C278 C 0.6126(4) 0.1828(3) 0.2387(2)
H218 H 0.6211 0.1758 0.2587
C279 C 0.5950(4) 0.2157(3) 0.2324(3)
H219 H 0.5916 0.2312 0.2482
C280 C 0.5824(4) 0.2258(2) 0.2031(3)
H220 H 0.5704 0.2483 0.1988
N61 N 0.6710(5) 0.2549(5) 0.1411(3)
C281 C 0.6838(5) 0.2213(4) 0.1494(3)
H221 H 0.6839 0.2038 0.1348
C282 C 0.6966(5) 0.2134(3) 0.1792(4)
H222 H 0.7054 0.1905 0.1849
C283 C 0.6965(5) 0.2390(5) 0.2007(3)
H223 H 0.7053 0.2336 0.2210
C284 C 0.6837(5) 0.2725(4) 0.1923(4)
H224 H 0.6836 0.2900 0.2070
C285 C 0.6709(5) 0.2805(3) 0.1625(4)
N62 N 0.6395(5) 0.3550(4) 0.1218(3)
N63 N 0.6501(5) 0.3194(4) 0.1260(4)
C286 C 0.6622(6) 0.3136(4) 0.1569(4)
C287 C 0.6591(6) 0.3455(5) 0.1718(3)
H225 H 0.6653 0.3492 0.1927
C288 C 0.6450(6) 0.3712(3) 0.1501(4)
H226 H 0.6401 0.3949 0.1539
C289 C 0.6223(8) 0.3701(6) 0.0936(5)
H227 H 0.6251 0.3956 0.0949
H228 H 0.6404 0.3619 0.0783
N64 N 0.3737(5) 0.3802(4) 0.1539(3)
C290 C 0.3620(5) 0.3948(3) 0.1798(4)
H229 H 0.3699 0.4181 0.1846
C291 C 0.3387(6) 0.3754(4) 0.1985(3)
H230 H 0.3307 0.3854 0.2162
C292 C 0.3271(5) 0.3413(4) 0.1914(3)
H231 H 0.3112 0.3280 0.2042
C293 C 0.3388(6) 0.3267(3) 0.1655(4)
H232 H 0.3309 0.3034 0.1607
C294 C 0.3621(6) 0.3461(4) 0.1468(3)
N65 N 0.4118(5) 0.3344(4) 0.0807(3)
N66 N 0.3996(6) 0.3550(3) 0.1042(4)
C295 C 0.3745(6) 0.3340(5) 0.1218(3)
C296 C 0.3713(6) 0.3004(4) 0.1091(4)
H233 H 0.3563 0.2811 0.1164
C297 C 0.3943(6) 0.3006(4) 0.0837(4)
H234 H 0.3975 0.2815 0.0710
C298 C 0.4341(6) 0.3488(6) 0.0585(5)
H235 H 0.4219 0.3723 0.0537
H236 H 0.4278 0.3346 0.0403
C299 C 0.5762(4) 0.3609(3) 0.0855(3)
C300 C 0.5487(6) 0.3478(3) 0.1053(2)
H237 H 0.5614 0.3422 0.1250
C301 C 0.5027(6) 0.3429(3) 0.0962(3)
H238 H 0.4839 0.3340 0.1097
C302 C 0.4841(4) 0.3511(3) 0.0673(3)
C303 C 0.5115(3) 0.3642(2) 0.0475(2)
C304 C 0.5576(3) 0.3691(2) 0.0566(2)
C305 C 0.5850(4) 0.3822(3) 0.0368(3)
H239 H 0.6165 0.3855 0.0431
C306 C 0.5665(6) 0.3904(3) 0.0080(3)
H240 H 0.5852 0.3993 -0.0056
C307 C 0.5204(6) 0.3855(3) -0.0011(2)
H241 H 0.5077 0.3911 -0.0209
C308 C 0.4930(4) 0.3724(3) 0.0186(3)
H242 H 0.4615 0.3691 0.0124
N67 N 0.4354(6) 0.4271(3) 0.0923(3)
C309 C 0.4134(4) 0.4378(3) 0.0649(4)
H243 H 0.3819 0.4337 0.0598
C310 C 0.4376(6) 0.4544(3) 0.0449(2)
H244 H 0.4225 0.4617 0.0262
C311 C 0.4838(5) 0.4604(3) 0.0524(3)
H245 H 0.5003 0.4718 0.0388
C312 C 0.5058(4) 0.4497(4) 0.0798(4)
H246 H 0.5373 0.4538 0.0849
C313 C 0.4816(6) 0.4330(3) 0.0998(2)
N68 N 0.5047(6) 0.3906(3) 0.1688(3)
N69 N 0.4766(4) 0.4013(3) 0.1426(3)
C314 C 0.5030(6) 0.4221(4) 0.1258(3)
C315 C 0.5475(5) 0.4243(3) 0.1415(4)
H247 H 0.5722 0.4366 0.1354
C316 C 0.5486(5) 0.4048(4) 0.1681(3)
H248 H 0.5741 0.4018 0.1828
C317 C 0.4872(8) 0.3692(5) 0.1907(4)
H249 H 0.5114 0.3538 0.2004
H250 H 0.4621 0.3547 0.1810
N70 N 0.5062(6) 0.5649(3) 0.2933(3)
C318 C 0.5383(4) 0.5905(4) 0.3015(3)
H251 H 0.5663 0.5847 0.3130
C319 C 0.5294(5) 0.6245(3) 0.2926(3)
H252 H 0.5514 0.6419 0.2982
C320 C 0.4885(6) 0.6329(3) 0.2756(3)
H253 H 0.4825 0.6562 0.2696
C321 C 0.4564(4) 0.6073(4) 0.2675(3)
H254 H 0.4284 0.6131 0.2559
C322 C 0.4652(5) 0.5733(3) 0.2764(3)
N71 N 0.4098(6) 0.4904(3) 0.2748(3)
N72 N 0.4471(4) 0.5127(4) 0.2834(3)
C323 C 0.4361(5) 0.5458(3) 0.2709(4)
C324 C 0.3920(5) 0.5439(3) 0.2546(3)
H255 H 0.3762 0.5623 0.2439
C325 C 0.3757(4) 0.5097(4) 0.2570(3)
H256 H 0.3470 0.5012 0.2483
C326 C 0.4122(7) 0.4541(4) 0.2793(4)
H257 H 0.3810 0.4449 0.2783
H258 H 0.4279 0.4495 0.2995
C327 C 0.4697(4) 0.3936(3) 0.2145(2)
C328 C 0.4606(4) 0.4284(3) 0.2088(2)
H259 H 0.4656 0.4383 0.1904
C329 C 0.4440(4) 0.4488(2) 0.2301(3)
H260 H 0.4377 0.4726 0.2263
C330 C 0.4365(4) 0.4343(2) 0.2571(3)
C331 C 0.4457(3) 0.3995(2) 0.26271(19)
C332 C 0.4623(3) 0.3792(2) 0.24140(19)
C333 C 0.4715(4) 0.3444(2) 0.2470(3)
H261 H 0.4828 0.3305 0.2325
C334 C 0.4640(4) 0.3300(2) 0.2740(3)
H262 H 0.4703 0.3062 0.2778
C335 C 0.4474(4) 0.3503(3) 0.2953(2)
H263 H 0.4424 0.3404 0.3137
C336 C 0.4383(4) 0.3851(3) 0.2896(2)
H264 H 0.4269 0.3990 0.3042
N73 N 0.8124(4) 0.4221(3) 0.3097(3)
C337 C 0.8136(4) 0.4179(2) 0.2794(3)
H265 H 0.8237 0.3966 0.2721
C338 C 0.8002(4) 0.4448(3) 0.2599(2)
H266 H 0.8011 0.4419 0.2392
C339 C 0.7856(4) 0.4759(3) 0.2706(3)
H267 H 0.7764 0.4942 0.2572
C340 C 0.7843(4) 0.4801(3) 0.3008(3)
H268 H 0.7743 0.5014 0.3081
C341 C 0.7978(4) 0.4533(3) 0.3204(2)
N74 N 0.8146(4) 0.4399(3) 0.3992(2)
N75 N 0.8133(4) 0.4285(2) 0.3694(3)
C342 C 0.7985(4) 0.4566(4) 0.3503(2)
C343 C 0.7907(4) 0.4853(3) 0.3684(3)
H269 H 0.7806 0.5076 0.3615
C344 C 0.8007(4) 0.4750(3) 0.3986(3)
H270 H 0.7984 0.4892 0.4154
C345 C 0.8257(6) 0.4166(4) 0.4230(4)
H271 H 0.8360 0.4302 0.4412
H272 H 0.8516 0.4023 0.4188
N76 N 0.5637(3) 0.3986(3) 0.4966(3)
C346 C 0.5379(4) 0.4125(3) 0.5170(2)
H273 H 0.5520 0.4191 0.5362
C347 C 0.4914(4) 0.4167(3) 0.5094(3)
H274 H 0.4738 0.4262 0.5233
C348 C 0.4708(3) 0.4070(3) 0.4813(3)
H275 H 0.4390 0.4099 0.4761
C349 C 0.4966(5) 0.3931(3) 0.4609(2)
H276 H 0.4824 0.3865 0.4417
C350 C 0.5430(4) 0.3889(3) 0.4686(3)
N77 N 0.6344(3) 0.3462(3) 0.4434(3)
N78 N 0.6122(5) 0.3648(3) 0.4642(2)
C351 C 0.5674(4) 0.3722(3) 0.4506(3)
C352 C 0.5620(4) 0.3581(3) 0.4214(3)
H277 H 0.5354 0.3592 0.4074
C353 C 0.6035(5) 0.3420(3) 0.4170(2)
H278 H 0.6094 0.3305 0.3995
C354 C 0.6773(5) 0.3285(4) 0.4514(4)
H279 H 0.6762 0.3055 0.4418
H280 H 0.6831 0.3252 0.4732
C355 C 0.7880(3) 0.3925(2) 0.4297(2)
C356 C 0.7439(4) 0.4016(2) 0.4185(2)
H281 H 0.7383 0.4221 0.4071
C357 C 0.7079(3) 0.3808(3) 0.4240(2)
H282 H 0.6777 0.3871 0.4164
C358 C 0.7160(2) 0.3509(3) 0.4408(2)
C359 C 0.7601(3) 0.34168(18) 0.45201(16)
C360 C 0.7961(3) 0.36248(18) 0.44649(16)
C361 C 0.8403(2) 0.3533(3) 0.4577(2)
H283 H 0.8649 0.3675 0.4539
C362 C 0.8484(3) 0.3233(3) 0.4745(2)
H284 H 0.8786 0.3170 0.4821
C363 C 0.8124(4) 0.3025(2) 0.4800(2)
H285 H 0.8180 0.2820 0.4914
C364 C 0.7683(4) 0.3117(2) 0.4687(2)
H286 H 0.7437 0.2975 0.4725
N79 N 0.6977(3) 0.3809(3) 0.5088(2)
C365 C 0.7178(4) 0.3523(3) 0.5237(2)
H287 H 0.6994 0.3341 0.5295
C366 C 0.7647(4) 0.3504(3) 0.5303(2)
H288 H 0.7784 0.3308 0.5405
C367 C 0.7915(3) 0.3770(3) 0.5219(3)
H289 H 0.8236 0.3757 0.5263
C368 C 0.7715(4) 0.4057(3) 0.5069(3)
H290 H 0.7898 0.4239 0.5012
C369 C 0.7246(4) 0.4076(2) 0.5004(2)
N80 N 0.6446(3) 0.4718(3) 0.4709(2)
N81 N 0.6576(4) 0.4399(3) 0.4850(2)
C370 C 0.7052(4) 0.4363(3) 0.4858(3)
C371 C 0.7216(3) 0.4660(3) 0.4722(3)
H291 H 0.7522 0.4703 0.4697
C372 C 0.6841(5) 0.4879(2) 0.4630(2)
H292 H 0.6852 0.5096 0.4533
C373 C 0.5987(6) 0.4817(5) 0.4660(4)
H293 H 0.5969 0.5070 0.4689
H294 H 0.5828 0.4705 0.4813
N82 N 0.5423(4) 0.5035(3) 0.2656(2)
C374 C 0.5440(4) 0.5270(2) 0.2426(3)
H295 H 0.5358 0.5504 0.2450
C375 C 0.5578(4) 0.5161(3) 0.2161(2)
H296 H 0.5590 0.5322 0.2004
C376 C 0.5699(4) 0.4818(3) 0.2126(2)
H297 H 0.5793 0.4744 0.1944
C377 C 0.5682(4) 0.4583(2) 0.2356(3)
H298 H 0.5765 0.4349 0.2331
C378 C 0.5544(4) 0.4692(3) 0.2621(2)
N83 N 0.5262(4) 0.4353(3) 0.3292(2)
N84 N 0.5294(4) 0.4619(2) 0.3080(3)
C379 C 0.5510(5) 0.4478(3) 0.2847(2)
C380 C 0.5611(4) 0.4126(3) 0.2915(3)
H299 H 0.5755 0.3969 0.2797
C381 C 0.5457(4) 0.4049(2) 0.3190(3)
H300 H 0.5481 0.3831 0.3288
C382 C 0.5005(6) 0.4372(5) 0.3537(4)
H301 H 0.4867 0.4142 0.3558
H302 H 0.4754 0.4538 0.3483
C383 C 0.5732(3) 0.4725(2) 0.4350(2)
C384 C 0.5959(3) 0.4598(2) 0.4125(2)
H303 H 0.6281 0.4598 0.4149
C385 C 0.5714(4) 0.4472(2) 0.3864(2)
H304 H 0.5869 0.4385 0.3710
C386 C 0.5243(3) 0.4473(2) 0.38295(16)
C387 C 0.5017(3) 0.46003(15) 0.40548(15)
C388 C 0.5261(3) 0.47264(15) 0.43150(15)
C389 C 0.5035(4) 0.4853(2) 0.45403(16)
H305 H 0.5202 0.4940 0.4718
C390 C 0.4564(4) 0.4854(2) 0.4505(2)
H306 H 0.4409 0.4941 0.4659
C391 C 0.4319(3) 0.4728(2) 0.4245(2)
H307 H 0.3997 0.4729 0.4221
C392 C 0.4546(3) 0.4601(2) 0.4020(2)
H308 H 0.4379 0.4515 0.3842
N85 N 0.8456(5) 0.3470(2) 0.3708(2)
C393 C 0.8887(4) 0.3395(3) 0.3853(3)
H309 H 0.9139 0.3531 0.3815
C394 C 0.8949(4) 0.3122(3) 0.4053(3)
H310 H 0.9243 0.3070 0.4151
C395 C 0.8580(5) 0.2923(3) 0.4108(2)
H311 H 0.8622 0.2737 0.4244
C396 C 0.8149(4) 0.2999(3) 0.3963(3)
H312 H 0.7897 0.2863 0.4001
C397 C 0.8087(4) 0.3272(3) 0.3763(3)
N86 N 0.7259(5) 0.3596(3) 0.3195(2)
N87 N 0.7704(4) 0.3581(3) 0.3354(3)
C398 C 0.7695(4) 0.3354(3) 0.3598(3)
C399 C 0.7246(5) 0.3229(3) 0.3591(3)
H313 H 0.7143 0.3072 0.3728
C400 C 0.6976(3) 0.3378(3) 0.3341(3)
H314 H 0.6662 0.3339 0.3283
C401 C 0.7145(7) 0.3766(4) 0.2925(4)
H315 H 0.6920 0.3624 0.2798
H316 H 0.7419 0.3783 0.2825
N88 N 0.5099(5) 0.5247(3) 0.3473(2)
C402 C 0.4656(4) 0.5253(3) 0.3537(3)
H317 H 0.4417 0.5167 0.3396
C403 C 0.4562(4) 0.5384(3) 0.3806(3)
H318 H 0.4259 0.5388 0.3850
C404 C 0.4912(5) 0.5510(3) 0.4012(2)
H319 H 0.4848 0.5600 0.4197
C405 C 0.5355(4) 0.5504(3) 0.3948(3)
H320 H 0.5594 0.5590 0.4089
C406 C 0.5449(3) 0.5373(3) 0.3679(3)
N89 N 0.6394(5) 0.5299(3) 0.3271(3)
N90 N 0.5929(4) 0.5268(3) 0.3306(3)
C407 C 0.5885(4) 0.5352(3) 0.3605(3)
C408 C 0.6322(5) 0.5435(3) 0.3754(2)
H321 H 0.6392 0.5500 0.3957
C409 C 0.6637(3) 0.5402(3) 0.3547(3)
H322 H 0.6954 0.5441 0.3587
C410 C 0.6560(7) 0.5213(4) 0.2996(4)
H323 H 0.6822 0.5361 0.2970
H324 H 0.6319 0.5255 0.2827
C411 C 0.6945(3) 0.41365(19) 0.2950(2)
C412 C 0.6879(4) 0.4270(3) 0.32249(19)
H325 H 0.6916 0.4126 0.3396
C413 C 0.6758(4) 0.4615(3) 0.32495(19)
H326 H 0.6712 0.4707 0.3437
C414 C 0.6703(3) 0.4826(2) 0.3000(2)
C415 C 0.6770(2) 0.46922(17) 0.27249(19)
C416 C 0.6891(2) 0.43474(17) 0.27003(19)
C417 C 0.6958(3) 0.4213(2) 0.2426(2)
H327 H 0.7041 0.3978 0.2409
C418 C 0.6904(4) 0.4424(3) 0.21757(19)
H328 H 0.6949 0.4333 0.1988
C419 C 0.6783(4) 0.4769(3) 0.22003(19)
H329 H 0.6745 0.4913 0.2029
C420 C 0.6716(3) 0.4903(2) 0.2475(2)
H330 H 0.6633 0.5139 0.2492
Cl1 Cl 0.7561(4) 0.2834(3) 0.1162(3)
O1 O 0.7190(7) 0.2761(6) 0.0942(5)
O2 O 0.7704(8) 0.3196(4) 0.1118(5)
O3 O 0.7948(7) 0.2624(5) 0.1100(5)
O4 O 0.7484(8) 0.2788(6) 0.1447(4)
Cl2 Cl 0.6641(5) 0.0211(3) 0.5013(3)
O5 O 0.6165(6) 0.0076(6) 0.4937(6)
O6 O 0.6720(9) 0.0221(6) 0.5338(4)
O7 O 0.6670(9) 0.0547(5) 0.4897(6)
O8 O 0.6925(8) -0.0036(6) 0.4901(6)
O9 O 0.9202(6) 0.1867(5) 0.3196(4)
O10 O 0.3798(7) 0.2610(5) 0.5427(4)
Cl3 Cl 0.0751(2) 0.86095(16) 0.12457(15)
O11 O 0.0924(4) 0.8896(3) 0.1437(3)
O12 O 0.0797(4) 0.8695(3) 0.0943(3)
O13 O 0.0295(4) 0.8538(3) 0.1285(3)
O14 O 0.1024(4) 0.8304(3) 0.1327(3)
Cl4 Cl 0.1606(2) 0.99064(14) 0.16329(13)
O15 O 0.1217(4) 0.9678(3) 0.1561(3)
O16 O 0.1902(4) 0.9772(3) 0.1883(2)
O17 O 0.1455(4) 1.0247(3) 0.1703(3)
O18 O 0.1843(4) 0.9922(3) 0.1375(2)
Cl5 Cl 0.9879(4) 0.3970(3) 0.0067(2)
O19 O 1.0026(6) 0.3692(4) 0.0266(4)
O20 O 0.9565(6) 0.4186(4) 0.0200(4)
O21 O 1.0265(6) 0.4180(4) 0.0018(4)
O22 O 0.9671(6) 0.3833(5) -0.0211(4)
Cl6 Cl 0.9813(5) 0.3861(4) 0.4408(3)
O23 O 1.0193(7) 0.4086(6) 0.4424(6)
O24 O 0.9406(7) 0.4019(6) 0.4337(6)
O25 O 0.9877(9) 0.3605(6) 0.4190(5)
O26 O 0.9841(9) 0.3693(6) 0.4690(4)
Cl7 Cl 0.9157(3) 0.2248(2) 0.4941(2)
O27 O 0.8891(6) 0.2415(4) 0.4701(4)
O28 O 0.9083(6) 0.1875(4) 0.4924(4)
O29 O 0.9052(6) 0.2378(4) 0.5211(3)
O30 O 0.9634(5) 0.2284(4) 0.4918(4)
Cl8 Cl 0.2175(3) 0.2452(2) 0.03577(19)
O31 O 0.1976(5) 0.2342(4) 0.0077(3)
O32 O 0.2104(5) 0.2224(4) 0.0590(3)
O33 O 0.2657(4) 0.2508(4) 0.0364(3)
O34 O 0.1989(5) 0.2801(3) 0.0415(3)
Cl9 Cl 0.0497(4) 0.3877(3) 0.2711(3)
O35 O 0.0521(8) 0.3583(5) 0.2909(4)
O36 O 0.0695(7) 0.3813(5) 0.2450(4)
O37 O 0.0694(7) 0.4172(5) 0.2876(5)
O38 O 0.0008(6) 0.3947(5) 0.2613(5)
Cl10 Cl 0.2778(3) 0.4519(2) 0.2248(2)
O39 O 0.2430(5) 0.4280(4) 0.2219(4)
O40 O 0.3162(5) 0.4397(4) 0.2435(4)
O41 O 0.2645(6) 0.4851(4) 0.2337(4)
O42 O 0.2913(6) 0.4564(4) 0.1952(3)
Cl11 Cl 0.1226(3) 0.45240(18) 0.40898(17)
O43 O 0.1251(5) 0.4897(3) 0.4143(3)
O44 O 0.1286(5) 0.4346(3) 0.4367(3)
O45 O 0.1573(4) 0.4433(3) 0.3910(3)
O46 O 0.0780(4) 0.4447(3) 0.3924(3)
Cl12 Cl 0.8352(4) 0.2651(3) 0.1956(3)
O47 O 0.7961(7) 0.2802(6) 0.2056(5)
O48 O 0.8662(7) 0.2549(6) 0.2208(4)
O49 O 0.8548(8) 0.2875(5) 0.1774(5)
O50 O 0.8211(8) 0.2339(5) 0.1796(5)
Cl13 Cl 0.7307(3) 0.07514(19) 0.20949(18)
O51 O 0.7620(5) 0.0629(4) 0.2338(3)
O52 O 0.7312(5) 0.1114(3) 0.2073(3)
O53 O 0.6868(4) 0.0620(4) 0.2133(3)
O54 O 0.7420(5) 0.0607(4) 0.1819(3)
Cl14 Cl 0.6439(3) 0.11557(19) 0.30726(17)
O55 O 0.6696(5) 0.1425(3) 0.3228(3)
O56 O 0.6519(5) 0.0837(3) 0.3225(3)
O57 O 0.6576(5) 0.1124(4) 0.2781(3)
O58 O 0.5967(4) 0.1231(4) 0.3041(3)
Cl15 Cl 0.8412(2) 0.04963(15) 0.97757(14)
O59 O 0.8578(4) 0.0686(3) 0.9538(3)
O60 O 0.8695(4) 0.0578(3) 1.0051(2)
O61 O 0.7959(4) 0.0582(3) 0.9791(3)
O62 O 0.8451(4) 0.0130(3) 0.9714(3)
Cl16 Cl 0.0705(4) 0.0934(3) 0.3157(2)
O63 O 0.1073(6) 0.0890(5) 0.3012(5)
O64 O 0.0570(7) 0.1276(4) 0.3125(5)
O65 O 0.0359(6) 0.0725(5) 0.3065(5)
O66 O 0.0844(7) 0.0874(5) 0.3463(4)
Cl17 Cl 0.6058(2) 0.33744(16) 0.24212(15)
O67 O 0.5796(4) 0.3108(3) 0.2274(3)
O68 O 0.6025(4) 0.3352(3) 0.2736(2)
O69 O 0.6524(4) 0.3330(3) 0.2389(3)
O70 O 0.5904(4) 0.3703(3) 0.2319(3)
Cl18 Cl 0.4373(3) 0.25655(19) 0.17684(18)
O71 O 0.4605(5) 0.2875(3) 0.1805(3)
O72 O 0.4509(5) 0.2340(3) 0.2008(3)
O73 O 0.4454(5) 0.2410(4) 0.1498(3)
O74 O 0.3897(4) 0.2619(4) 0.1759(3)
Cl19 Cl 0.3743(2) 0.19478(17) 0.35895(16)
O75 O 0.3874(4) 0.1695(3) 0.3813(3)
O76 O 0.3878(4) 0.2276(3) 0.3707(3)
O77 O 0.3264(4) 0.1942(3) 0.3520(3)
O78 O 0.3944(4) 0.1882(3) 0.3336(3)
Cl20 Cl 0.6875(3) 0.23736(18) 0.40645(17)
O79 O 0.7345(4) 0.2467(3) 0.4060(3)
O80 O 0.6608(5) 0.2572(3) 0.3853(3)
O81 O 0.6779(5) 0.2452(3) 0.4356(3)
O82 O 0.6824(5) 0.2019(3) 0.4009(3)
loop_
_geom_bond_atom_site_label_1
_geom_bond_atom_site_label_2
_geom_bond_site_symmetry_1
_geom_bond_site_symmetry_2
Cu1 N1 1_555 1_555
Cu2 N4 1_555 1_555
Cu3 N10 1_555 1_555
Cu4 N22 1_555 1_555
Cu5 N28 1_555 1_555
Cu6 N34 1_555 1_555
Cu7 N40 1_555 1_555
Cu8 N46 1_555 1_555
Cu9 N52 1_555 1_555
Cu10 N58 1_555 1_555
Cu11 N64 1_555 1_555
Cu12 N70 1_555 1_555
N1 C1 1_555 1_555
C1 H1 1_555 1_555
C2 C1 1_555 1_555
H2 C2 1_555 1_555
C3 C2 1_555 1_555
H3 C3 1_555 1_555
C4 C3 1_555 1_555
H4 C4 1_555 1_555
C5 N1 1_555 1_555
N2 N3 1_555 1_555
N3 Cu1 1_555 1_555
C6 C5 1_555 1_555
C7 C6 1_555 1_555
H5 C7 1_555 1_555
C8 N2 1_555 1_555
H6 C8 1_555 1_555
C9 N2 1_555 1_555
H7 C9 1_555 1_555
H8 C9 1_555 1_555
N4 C10 1_555 1_555
C10 H9 1_555 1_555
C11 C10 1_555 1_555
H10 C11 1_555 1_555
C12 C11 1_555 1_555
H11 C12 1_555 1_555
C13 C12 1_555 1_555
H12 C13 1_555 1_555
C14 N4 1_555 1_555
N5 N6 1_555 1_555
N6 Cu2 1_555 1_555
C15 C14 1_555 1_555
C16 C15 1_555 1_555
H13 C16 1_555 1_555
C17 N5 1_555 1_555
H14 C17 1_555 1_555
C18 N5 1_555 1_555
H15 C18 1_555 1_555
H16 C18 1_555 1_555
C19 C9 1_555 1_555
C20 C19 1_555 1_555
H17 C20 1_555 1_555
C21 C20 1_555 1_555
H18 C21 1_555 1_555
C22 C18 1_555 1_555
C23 C22 1_555 1_555
C24 C19 1_555 1_555
C25 C24 1_555 1_555
H19 C25 1_555 1_555
C26 C25 1_555 1_555
H20 C26 1_555 1_555
C27 C26 1_555 1_555
H21 C27 1_555 1_555
C28 C23 1_555 1_555
H22 C28 1_555 1_555
N7 Cu2 1_555 1_555
C29 N7 1_555 1_555
H23 C29 1_555 1_555
C30 C29 1_555 1_555
H24 C30 1_555 1_555
C31 C30 1_555 1_555
H25 C31 1_555 1_555
C32 C31 1_555 1_555
H26 C32 1_555 1_555
C33 N7 1_555 1_555
N8 N9 1_555 1_555
N9 Cu2 1_555 1_555
C34 C33 1_555 1_555
C35 C34 1_555 1_555
H27 C35 1_555 1_555
C36 N8 1_555 1_555
H28 C36 1_555 1_555
C37 N8 1_555 1_555
H29 C37 1_555 1_555
H30 C37 1_555 1_555
N10 C38 1_555 1_555
C38 H31 1_555 1_555
C39 C38 1_555 1_555
H32 C39 1_555 1_555
C40 C39 1_555 1_555
H33 C40 1_555 1_555
C41 C40 1_555 1_555
H34 C41 1_555 1_555
C42 N10 1_555 1_555
N11 N12 1_555 1_555
N12 Cu3 1_555 1_555
C43 C42 1_555 1_555
C44 C43 1_555 1_555
H35 C44 1_555 1_555
C45 N11 1_555 1_555
H36 C45 1_555 1_555
C46 N11 1_555 1_555
H37 C46 1_555 1_555
H38 C46 1_555 1_555
C47 C37 1_555 1_555
C48 C47 1_555 1_555
H39 C48 1_555 1_555
C49 C48 1_555 1_555
H40 C49 1_555 1_555
C50 C46 1_555 1_555
C51 C50 1_555 1_555
C52 C47 1_555 1_555
C53 C52 1_555 1_555
H41 C53 1_555 1_555
C54 C53 1_555 1_555
H42 C54 1_555 1_555
C55 C54 1_555 1_555
H43 C55 1_555 1_555
C56 C51 1_555 1_555
H44 C56 1_555 1_555
N13 Cu1 1_555 1_555
C57 N13 1_555 1_555
H45 C57 1_555 1_555
C58 C57 1_555 1_555
H46 C58 1_555 1_555
C59 C58 1_555 1_555
H47 C59 1_555 1_555
C60 C59 1_555 1_555
H48 C60 1_555 1_555
C61 N13 1_555 1_555
N14 N15 1_555 1_555
N15 Cu1 1_555 1_555
C62 C61 1_555 1_555
C63 C62 1_555 1_555
H49 C63 1_555 1_555
C64 N14 1_555 1_555
H50 C64 1_555 1_555
C65 N14 1_555 1_555
H51 C65 1_555 1_555
H52 C65 1_555 1_555
N16 Cu3 1_555 1_555
C66 N16 1_555 1_555
H53 C66 1_555 1_555
C67 C66 1_555 1_555
H54 C67 1_555 1_555
C68 C67 1_555 1_555
H55 C68 1_555 1_555
C69 C68 1_555 1_555
H56 C69 1_555 1_555
C70 N16 1_555 1_555
N17 N18 1_555 1_555
N18 Cu3 1_555 1_555
C71 C70 1_555 1_555
C72 C71 1_555 1_555
H57 C72 1_555 1_555
C73 N17 1_555 1_555
H58 C73 1_555 1_555
C74 N17 1_555 1_555
H59 C74 1_555 1_555
H60 C74 1_555 1_555
C75 C65 1_555 1_555
C76 C75 1_555 1_555
H61 C76 1_555 1_555
C77 C76 1_555 1_555
H62 C77 1_555 1_555
C78 C74 1_555 1_555
C79 C78 1_555 1_555
C80 C75 1_555 1_555
C81 C80 1_555 1_555
H63 C81 1_555 1_555
C82 C81 1_555 1_555
H64 C82 1_555 1_555
C83 C82 1_555 1_555
H65 C83 1_555 1_555
C84 C79 1_555 1_555
H66 C84 1_555 1_555
N19 Cu1 1_555 1_555
C85 N19 1_555 1_555
H67 C85 1_555 1_555
C86 C85 1_555 1_555
H68 C86 1_555 1_555
C87 C86 1_555 1_555
H69 C87 1_555 1_555
C88 C87 1_555 1_555
H70 C88 1_555 1_555
C89 N19 1_555 1_555
N20 N21 1_555 1_555
N21 Cu1 1_555 1_555
C90 C89 1_555 1_555
C91 C90 1_555 1_555
H71 C91 1_555 1_555
C92 N20 1_555 1_555
H72 C92 1_555 1_555
C93 N20 1_555 1_555
H73 C93 1_555 1_555
H74 C93 1_555 1_555
N22 C94 1_555 1_555
C94 H75 1_555 1_555
C95 C94 1_555 1_555
H76 C95 1_555 1_555
C96 C95 1_555 1_555
H77 C96 1_555 1_555
C97 C96 1_555 1_555
H78 C97 1_555 1_555
C98 N22 1_555 1_555
N23 N24 1_555 1_555
N24 Cu4 1_555 1_555
C99 C98 1_555 1_555
C100 C99 1_555 1_555
H79 C100 1_555 1_555
C101 N23 1_555 1_555
H80 C101 1_555 1_555
C102 N23 1_555 1_555
H81 C102 1_555 1_555
H82 C102 1_555 1_555
C103 C93 1_555 1_555
C104 C103 1_555 1_555
H83 C104 1_555 1_555
C105 C104 1_555 1_555
H84 C105 1_555 1_555
C106 C102 1_555 1_555
C107 C106 1_555 1_555
C108 C103 1_555 1_555
C109 C108 1_555 1_555
H85 C109 1_555 1_555
C110 C109 1_555 1_555
H86 C110 1_555 1_555
C111 C110 1_555 1_555
H87 C111 1_555 1_555
C112 C107 1_555 1_555
H88 C112 1_555 1_555
N25 Cu4 1_555 1_555
C113 N25 1_555 1_555
H89 C113 1_555 1_555
C114 C113 1_555 1_555
H90 C114 1_555 1_555
C115 C114 1_555 1_555
H91 C115 1_555 1_555
C116 C115 1_555 1_555
H92 C116 1_555 1_555
C117 N25 1_555 1_555
N26 N27 1_555 1_555
N27 Cu4 1_555 1_555
C118 C117 1_555 1_555
C119 C118 1_555 1_555
H93 C119 1_555 1_555
C120 N26 1_555 1_555
H94 C120 1_555 1_555
C121 N26 1_555 1_555
H95 C121 1_555 1_555
H96 C121 1_555 1_555
N28 C122 1_555 1_555
C122 H97 1_555 1_555
C123 C122 1_555 1_555
H98 C123 1_555 1_555
C124 C123 1_555 1_555
H99 C124 1_555 1_555
C125 C124 1_555 1_555
H100 C125 1_555 1_555
C126 N28 1_555 1_555
N29 N30 1_555 1_555
N30 Cu5 1_555 1_555
C127 C126 1_555 1_555
C128 C127 1_555 1_555
H101 C128 1_555 1_555
C129 N29 1_555 1_555
H102 C129 1_555 1_555
C130 N29 1_555 1_555
H103 C130 1_555 1_555
H104 C130 1_555 1_555
C131 C121 1_555 1_555
C132 C131 1_555 1_555
H105 C132 1_555 1_555
C133 C132 1_555 1_555
H106 C133 1_555 1_555
C134 C130 1_555 1_555
C135 C134 1_555 1_555
C136 C131 1_555 1_555
C137 C136 1_555 1_555
H107 C137 1_555 1_555
C138 C137 1_555 1_555
H108 C138 1_555 1_555
C139 C138 1_555 1_555
H109 C139 1_555 1_555
C140 C135 1_555 1_555
H110 C140 1_555 1_555
N31 Cu5 1_555 1_555
C141 N31 1_555 1_555
H111 C141 1_555 1_555
C142 C141 1_555 1_555
H112 C142 1_555 1_555
C143 C142 1_555 1_555
H113 C143 1_555 1_555
C144 C143 1_555 1_555
H114 C144 1_555 1_555
C145 N31 1_555 1_555
N32 N33 1_555 1_555
N33 Cu5 1_555 1_555
C146 C145 1_555 1_555
C147 C146 1_555 1_555
H115 C147 1_555 1_555
C148 N32 1_555 1_555
H116 C148 1_555 1_555
C149 N32 1_555 1_555
H117 C149 1_555 1_555
H118 C149 1_555 1_555
N34 C150 1_555 1_555
C150 H119 1_555 1_555
C151 C150 1_555 1_555
H120 C151 1_555 1_555
C152 C151 1_555 1_555
H121 C152 1_555 1_555
C153 C152 1_555 1_555
H122 C153 1_555 1_555
C154 N34 1_555 1_555
N35 N36 1_555 1_555
N36 Cu6 1_555 1_555
C155 C154 1_555 1_555
C156 C155 1_555 1_555
H123 C156 1_555 1_555
C157 N35 1_555 1_555
H124 C157 1_555 1_555
C158 N35 1_555 1_555
H125 C158 1_555 1_555
H126 C158 1_555 1_555
C159 C149 1_555 1_555
C160 C159 1_555 1_555
H127 C160 1_555 1_555
C161 C160 1_555 1_555
H128 C161 1_555 1_555
C162 C158 1_555 1_555
C163 C162 1_555 1_555
C164 C159 1_555 1_555
C165 C164 1_555 1_555
H129 C165 1_555 1_555
C166 C165 1_555 1_555
H130 C166 1_555 1_555
C167 C166 1_555 1_555
H131 C167 1_555 1_555
C168 C163 1_555 1_555
H132 C168 1_555 1_555
N37 Cu2 1_555 1_555
C169 N37 1_555 1_555
H133 C169 1_555 1_555
C170 C169 1_555 1_555
H134 C170 1_555 1_555
C171 C170 1_555 1_555
H135 C171 1_555 1_555
C172 C171 1_555 1_555
H136 C172 1_555 1_555
C173 N37 1_555 1_555
N38 N39 1_555 1_555
N39 Cu2 1_555 1_555
C174 C173 1_555 1_555
C175 C174 1_555 1_555
H137 C175 1_555 1_555
C176 N38 1_555 1_555
H138 C176 1_555 1_555
C177 N38 1_555 1_555
H139 C177 1_555 1_555
H140 C177 1_555 1_555
N40 C178 1_555 1_555
C178 H141 1_555 1_555
C179 C178 1_555 1_555
H142 C179 1_555 1_555
C180 C179 1_555 1_555
H143 C180 1_555 1_555
C181 C180 1_555 1_555
H144 C181 1_555 1_555
C182 N40 1_555 1_555
N41 N42 1_555 1_555
N42 Cu7 1_555 1_555
C183 C182 1_555 1_555
C184 C183 1_555 1_555
H145 C184 1_555 1_555
C185 N41 1_555 1_555
H146 C185 1_555 1_555
C186 N41 1_555 1_555
H147 C186 1_555 1_555
H148 C186 1_555 1_555
C187 C177 1_555 1_555
C188 C187 1_555 1_555
H149 C188 1_555 1_555
C189 C188 1_555 1_555
H150 C189 1_555 1_555
C190 C186 1_555 1_555
C191 C190 1_555 1_555
C192 C187 1_555 1_555
C193 C192 1_555 1_555
H151 C193 1_555 1_555
C194 C193 1_555 1_555
H152 C194 1_555 1_555
C195 C194 1_555 1_555
H153 C195 1_555 1_555
C196 C191 1_555 1_555
H154 C196 1_555 1_555
N43 Cu7 1_555 1_555
C197 N43 1_555 1_555
H155 C197 1_555 1_555
C198 C197 1_555 1_555
H156 C198 1_555 1_555
C199 C198 1_555 1_555
H157 C199 1_555 1_555
C200 C199 1_555 1_555
H158 C200 1_555 1_555
C201 N43 1_555 1_555
N44 N45 1_555 1_555
N45 Cu7 1_555 1_555
C202 C201 1_555 1_555
C203 C202 1_555 1_555
H159 C203 1_555 1_555
C204 N44 1_555 1_555
H160 C204 1_555 1_555
C205 N44 1_555 1_555
H161 C205 1_555 1_555
H162 C205 1_555 1_555
N46 C206 1_555 1_555
C206 H163 1_555 1_555
C207 C206 1_555 1_555
H164 C207 1_555 1_555
C208 C207 1_555 1_555
H165 C208 1_555 1_555
C209 C208 1_555 1_555
H166 C209 1_555 1_555
C210 N46 1_555 1_555
N47 N48 1_555 1_555
N48 Cu8 1_555 1_555
C211 C210 1_555 1_555
C212 C211 1_555 1_555
H167 C212 1_555 1_555
C213 N47 1_555 1_555
H168 C213 1_555 1_555
C214 N47 1_555 1_555
H169 C214 1_555 1_555
H170 C214 1_555 1_555
C215 C205 1_555 1_555
C216 C215 1_555 1_555
H171 C216 1_555 1_555
C217 C216 1_555 1_555
H172 C217 1_555 1_555
C218 C214 1_555 1_555
C219 C218 1_555 1_555
C220 C215 1_555 1_555
C221 C220 1_555 1_555
H173 C221 1_555 1_555
C222 C221 1_555 1_555
H174 C222 1_555 1_555
C223 C222 1_555 1_555
H175 C223 1_555 1_555
C224 C219 1_555 1_555
H176 C224 1_555 1_555
N49 Cu8 1_555 1_555
C225 N49 1_555 1_555
H177 C225 1_555 1_555
C226 C225 1_555 1_555
H178 C226 1_555 1_555
C227 C226 1_555 1_555
H179 C227 1_555 1_555
C228 C227 1_555 1_555
H180 C228 1_555 1_555
C229 N49 1_555 1_555
N50 N51 1_555 1_555
N51 Cu8 1_555 1_555
C230 C229 1_555 1_555
C231 C230 1_555 1_555
H181 C231 1_555 1_555
C232 N50 1_555 1_555
H182 C232 1_555 1_555
C233 N50 1_555 1_555
H183 C233 1_555 1_555
H184 C233 1_555 1_555
N52 C234 1_555 1_555
C234 H185 1_555 1_555
C235 C234 1_555 1_555
H186 C235 1_555 1_555
C236 C235 1_555 1_555
H187 C236 1_555 1_555
C237 C236 1_555 1_555
H188 C237 1_555 1_555
C238 N52 1_555 1_555
N53 N54 1_555 1_555
N54 Cu9 1_555 1_555
C239 C238 1_555 1_555
C240 C239 1_555 1_555
H189 C240 1_555 1_555
C241 N53 1_555 1_555
H190 C241 1_555 1_555
C242 N53 1_555 1_555
H191 C242 1_555 1_555
H192 C242 1_555 1_555
C243 C233 1_555 1_555
C244 C243 1_555 1_555
H193 C244 1_555 1_555
C245 C244 1_555 1_555
H194 C245 1_555 1_555
C246 C242 1_555 1_555
C247 C246 1_555 1_555
C248 C243 1_555 1_555
C249 C248 1_555 1_555
H195 C249 1_555 1_555
C250 C249 1_555 1_555
H196 C250 1_555 1_555
C251 C250 1_555 1_555
H197 C251 1_555 1_555
C252 C247 1_555 1_555
H198 C252 1_555 1_555
N55 Cu3 1_555 1_555
C253 N55 1_555 1_555
H199 C253 1_555 1_555
C254 C253 1_555 1_555
H200 C254 1_555 1_555
C255 C254 1_555 1_555
H201 C255 1_555 1_555
C256 C255 1_555 1_555
H202 C256 1_555 1_555
C257 N55 1_555 1_555
N56 N57 1_555 1_555
N57 Cu3 1_555 1_555
C258 C257 1_555 1_555
C259 C258 1_555 1_555
H203 C259 1_555 1_555
C260 N56 1_555 1_555
H204 C260 1_555 1_555
C261 N56 1_555 1_555
H205 C261 1_555 1_555
H206 C261 1_555 1_555
N58 C262 1_555 1_555
C262 H207 1_555 1_555
C263 C262 1_555 1_555
H208 C263 1_555 1_555
C264 C263 1_555 1_555
H209 C264 1_555 1_555
C265 C264 1_555 1_555
H210 C265 1_555 1_555
C266 N58 1_555 1_555
N59 N60 1_555 1_555
N60 Cu10 1_555 1_555
C267 C266 1_555 1_555
C268 C267 1_555 1_555
H211 C268 1_555 1_555
C269 N59 1_555 1_555
H212 C269 1_555 1_555
C270 N59 1_555 1_555
H213 C270 1_555 1_555
H214 C270 1_555 1_555
C271 C261 1_555 1_555
C272 C271 1_555 1_555
H215 C272 1_555 1_555
C273 C272 1_555 1_555
H216 C273 1_555 1_555
C274 C270 1_555 1_555
C275 C274 1_555 1_555
C276 C271 1_555 1_555
C277 C276 1_555 1_555
H217 C277 1_555 1_555
C278 C277 1_555 1_555
H218 C278 1_555 1_555
C279 C278 1_555 1_555
H219 C279 1_555 1_555
C280 C275 1_555 1_555
H220 C280 1_555 1_555
N61 Cu10 1_555 1_555
C281 N61 1_555 1_555
H221 C281 1_555 1_555
C282 C281 1_555 1_555
H222 C282 1_555 1_555
C283 C282 1_555 1_555
H223 C283 1_555 1_555
C284 C283 1_555 1_555
H224 C284 1_555 1_555
C285 N61 1_555 1_555
N62 N63 1_555 1_555
N63 Cu10 1_555 1_555
C286 C285 1_555 1_555
C287 C286 1_555 1_555
H225 C287 1_555 1_555
C288 N62 1_555 1_555
H226 C288 1_555 1_555
C289 N62 1_555 1_555
H227 C289 1_555 1_555
H228 C289 1_555 1_555
N64 C290 1_555 1_555
C290 H229 1_555 1_555
C291 C290 1_555 1_555
H230 C291 1_555 1_555
C292 C291 1_555 1_555
H231 C292 1_555 1_555
C293 C292 1_555 1_555
H232 C293 1_555 1_555
C294 N64 1_555 1_555
N65 N66 1_555 1_555
N66 Cu11 1_555 1_555
C295 C294 1_555 1_555
C296 C295 1_555 1_555
H233 C296 1_555 1_555
C297 N65 1_555 1_555
H234 C297 1_555 1_555
C298 N65 1_555 1_555
H235 C298 1_555 1_555
H236 C298 1_555 1_555
C299 C289 1_555 1_555
C300 C299 1_555 1_555
H237 C300 1_555 1_555
C301 C300 1_555 1_555
H238 C301 1_555 1_555
C302 C298 1_555 1_555
C303 C302 1_555 1_555
C304 C299 1_555 1_555
C305 C304 1_555 1_555
H239 C305 1_555 1_555
C306 C305 1_555 1_555
H240 C306 1_555 1_555
C307 C306 1_555 1_555
H241 C307 1_555 1_555
C308 C303 1_555 1_555
H242 C308 1_555 1_555
N67 Cu11 1_555 1_555
C309 N67 1_555 1_555
H243 C309 1_555 1_555
C310 C309 1_555 1_555
H244 C310 1_555 1_555
C311 C310 1_555 1_555
H245 C311 1_555 1_555
C312 C311 1_555 1_555
H246 C312 1_555 1_555
C313 N67 1_555 1_555
N68 N69 1_555 1_555
N69 Cu11 1_555 1_555
C314 C313 1_555 1_555
C315 C314 1_555 1_555
H247 C315 1_555 1_555
C316 N68 1_555 1_555
H248 C316 1_555 1_555
C317 N68 1_555 1_555
H249 C317 1_555 1_555
H250 C317 1_555 1_555
N70 C318 1_555 1_555
C318 H251 1_555 1_555
C319 C318 1_555 1_555
H252 C319 1_555 1_555
C320 C319 1_555 1_555
H253 C320 1_555 1_555
C321 C320 1_555 1_555
H254 C321 1_555 1_555
C322 N70 1_555 1_555
N71 N72 1_555 1_555
N72 Cu12 1_555 1_555
C323 C322 1_555 1_555
C324 C323 1_555 1_555
H255 C324 1_555 1_555
C325 N71 1_555 1_555
H256 C325 1_555 1_555
C326 N71 1_555 1_555
H257 C326 1_555 1_555
H258 C326 1_555 1_555
C327 C317 1_555 1_555
C328 C327 1_555 1_555
H259 C328 1_555 1_555
C329 C328 1_555 1_555
H260 C329 1_555 1_555
C330 C326 1_555 1_555
C331 C330 1_555 1_555
C332 C327 1_555 1_555
C333 C332 1_555 1_555
H261 C333 1_555 1_555
C334 C333 1_555 1_555
H262 C334 1_555 1_555
C335 C334 1_555 1_555
H263 C335 1_555 1_555
C336 C331 1_555 1_555
H264 C336 1_555 1_555
N73 Cu6 1_555 1_555
C337 N73 1_555 1_555
H265 C337 1_555 1_555
C338 C337 1_555 1_555
H266 C338 1_555 1_555
C339 C338 1_555 1_555
H267 C339 1_555 1_555
C340 C339 1_555 1_555
H268 C340 1_555 1_555
C341 N73 1_555 1_555
N74 N75 1_555 1_555
N75 Cu6 1_555 1_555
C342 C341 1_555 1_555
C343 C342 1_555 1_555
H269 C343 1_555 1_555
C344 N74 1_555 1_555
H270 C344 1_555 1_555
C345 N74 1_555 1_555
H271 C345 1_555 1_555
H272 C345 1_555 1_555
N76 Cu9 1_555 1_555
C346 N76 1_555 1_555
H273 C346 1_555 1_555
C347 C346 1_555 1_555
H274 C347 1_555 1_555
C348 C347 1_555 1_555
H275 C348 1_555 1_555
C349 C348 1_555 1_555
H276 C349 1_555 1_555
C350 N76 1_555 1_555
N77 N78 1_555 1_555
N78 Cu9 1_555 1_555
C351 C350 1_555 1_555
C352 C351 1_555 1_555
H277 C352 1_555 1_555
C353 N77 1_555 1_555
H278 C353 1_555 1_555
C354 N77 1_555 1_555
H279 C354 1_555 1_555
H280 C354 1_555 1_555
C355 C345 1_555 1_555
C356 C355 1_555 1_555
H281 C356 1_555 1_555
C357 C356 1_555 1_555
H282 C357 1_555 1_555
C358 C354 1_555 1_555
C359 C358 1_555 1_555
C360 C355 1_555 1_555
C361 C360 1_555 1_555
H283 C361 1_555 1_555
C362 C361 1_555 1_555
H284 C362 1_555 1_555
C363 C362 1_555 1_555
H285 C363 1_555 1_555
C364 C359 1_555 1_555
H286 C364 1_555 1_555
N79 Cu9 1_555 1_555
C365 N79 1_555 1_555
H287 C365 1_555 1_555
C366 C365 1_555 1_555
H288 C366 1_555 1_555
C367 C366 1_555 1_555
H289 C367 1_555 1_555
C368 C367 1_555 1_555
H290 C368 1_555 1_555
C369 N79 1_555 1_555
N80 N81 1_555 1_555
N81 Cu9 1_555 1_555
C370 C369 1_555 1_555
C371 C370 1_555 1_555
H291 C371 1_555 1_555
C372 N80 1_555 1_555
H292 C372 1_555 1_555
C373 N80 1_555 1_555
H293 C373 1_555 1_555
H294 C373 1_555 1_555
N82 Cu12 1_555 1_555
C374 N82 1_555 1_555
H295 C374 1_555 1_555
C375 C374 1_555 1_555
H296 C375 1_555 1_555
C376 C375 1_555 1_555
H297 C376 1_555 1_555
C377 C376 1_555 1_555
H298 C377 1_555 1_555
C378 N82 1_555 1_555
N83 N84 1_555 1_555
N84 Cu12 1_555 1_555
C379 C378 1_555 1_555
C380 C379 1_555 1_555
H299 C380 1_555 1_555
C381 N83 1_555 1_555
H300 C381 1_555 1_555
C382 N83 1_555 1_555
H301 C382 1_555 1_555
H302 C382 1_555 1_555
C383 C373 1_555 1_555
C384 C383 1_555 1_555
H303 C384 1_555 1_555
C385 C384 1_555 1_555
H304 C385 1_555 1_555
C386 C382 1_555 1_555
C387 C386 1_555 1_555
C388 C383 1_555 1_555
C389 C388 1_555 1_555
H305 C389 1_555 1_555
C390 C389 1_555 1_555
H306 C390 1_555 1_555
C391 C390 1_555 1_555
H307 C391 1_555 1_555
C392 C387 1_555 1_555
H308 C392 1_555 1_555
N85 Cu6 1_555 1_555
C393 N85 1_555 1_555
H309 C393 1_555 1_555
C394 C393 1_555 1_555
H310 C394 1_555 1_555
C395 C394 1_555 1_555
H311 C395 1_555 1_555
C396 C395 1_555 1_555
H312 C396 1_555 1_555
C397 N85 1_555 1_555
N86 N87 1_555 1_555
N87 Cu6 1_555 1_555
C398 C397 1_555 1_555
C399 C398 1_555 1_555
H313 C399 1_555 1_555
C400 N86 1_555 1_555
H314 C400 1_555 1_555
C401 N86 1_555 1_555
H315 C401 1_555 1_555
H316 C401 1_555 1_555
N88 Cu12 1_555 1_555
C402 N88 1_555 1_555
H317 C402 1_555 1_555
C403 C402 1_555 1_555
H318 C403 1_555 1_555
C404 C403 1_555 1_555
H319 C404 1_555 1_555
C405 C404 1_555 1_555
H320 C405 1_555 1_555
C406 N88 1_555 1_555
N89 N90 1_555 1_555
N90 Cu12 1_555 1_555
C407 C406 1_555 1_555
C408 C407 1_555 1_555
H321 C408 1_555 1_555
C409 N89 1_555 1_555
H322 C409 1_555 1_555
C410 N89 1_555 1_555
H323 C410 1_555 1_555
H324 C410 1_555 1_555
C411 C401 1_555 1_555
C412 C411 1_555 1_555
H325 C412 1_555 1_555
C413 C412 1_555 1_555
H326 C413 1_555 1_555
C414 C410 1_555 1_555
C415 C414 1_555 1_555
C416 C411 1_555 1_555
C417 C416 1_555 1_555
H327 C417 1_555 1_555
C418 C417 1_555 1_555
H328 C418 1_555 1_555
C419 C418 1_555 1_555
H329 C419 1_555 1_555
C420 C415 1_555 1_555
H330 C420 1_555 1_555
Cl1 O1 1_555 1_555
O1 Cu10 1_555 1_555
O2 Cl1 1_555 1_555
O3 Cl1 1_555 1_555
O4 Cl1 1_555 1_555
Cl2 O5 1_555 1_555
O6 Cl2 1_555 1_555
O7 Cu4 1_555 1_555
O8 Cl2 1_555 1_555
O9 Cu5 1_555 1_555
O10 Cu8 1_555 1_555
Cl3 O11 1_555 1_555
O12 Cl3 1_555 1_555
O13 Cl3 1_555 1_555
O14 Cl3 1_555 1_555
Cl4 O15 1_555 1_555
O16 Cl4 1_555 1_555
O17 Cl4 1_555 1_555
O18 Cl4 1_555 1_555
Cl5 O19 1_555 1_555
O20 Cl5 1_555 1_555
O21 Cl5 1_555 1_555
O22 Cl5 1_555 1_555
Cl6 O23 1_555 1_555
O24 Cl6 1_555 1_555
O25 Cl6 1_555 1_555
O26 Cl6 1_555 1_555
Cl7 O27 1_555 1_555
O28 Cl7 1_555 1_555
O29 Cl7 1_555 1_555
O30 Cl7 1_555 1_555
Cl8 O31 1_555 1_555
O32 Cl8 1_555 1_555
O33 Cl8 1_555 1_555
O34 Cl8 1_555 1_555
Cl9 O35 1_555 1_555
O36 Cl9 1_555 1_555
O37 Cl9 1_555 1_555
O38 Cl9 1_555 1_555
Cl10 O39 1_555 1_555
O40 Cl10 1_555 1_555
O41 Cl10 1_555 1_555
O42 Cl10 1_555 1_555
Cl11 O43 1_555 1_555
O44 Cl11 1_555 1_555
O45 Cl11 1_555 1_555
O46 Cl11 1_555 1_555
Cl12 O47 1_555 1_555
O48 Cl12 1_555 1_555
O49 Cl12 1_555 1_555
O50 Cl12 1_555 1_555
Cl13 O51 1_555 1_555
O52 Cl13 1_555 1_555
O53 Cl13 1_555 1_555
O54 Cl13 1_555 1_555
Cl14 O55 1_555 1_555
O56 Cl14 1_555 1_555
O57 Cl14 1_555 1_555
O58 Cl14 1_555 1_555
Cl15 O59 1_555 1_555
O60 Cl15 1_555 1_555
O61 Cl15 1_555 1_555
O62 Cl15 1_555 1_555
Cl16 O63 1_555 1_555
O64 Cl16 1_555 1_555
O65 Cl16 1_555 1_555
O66 Cl16 1_555 1_555
Cl17 O67 1_555 1_555
O68 Cl17 1_555 1_555
O69 Cl17 1_555 1_555
O70 Cl17 1_555 1_555
Cl18 O71 1_555 1_555
O72 Cl18 1_555 1_555
O73 Cl18 1_555 1_555
O74 Cl18 1_555 1_555
Cl19 O75 1_555 1_555
O76 Cl19 1_555 1_555
O77 Cl19 1_555 1_555
O78 Cl19 1_555 1_555
Cl20 O79 1_555 1_555
O80 Cl20 1_555 1_555
O81 Cl20 1_555 1_555
O82 Cl20 1_555 1_555
C4 C5 1_555 1_555
N3 C6 1_555 1_555
C7 C8 1_555 1_555
C13 C14 1_555 1_555
N6 C15 1_555 1_555
C16 C17 1_555 1_555
C21 C22 1_555 1_555
C23 C24 1_555 1_555
C27 C28 1_555 1_555
C32 C33 1_555 1_555
N9 C34 1_555 1_555
C35 C36 1_555 1_555
C41 C42 1_555 1_555
N12 C43 1_555 1_555
C44 C45 1_555 1_555
C49 C50 1_555 1_555
C51 C52 1_555 1_555
C55 C56 1_555 1_555
C60 C61 1_555 1_555
N15 C62 1_555 1_555
C63 C64 1_555 1_555
C69 C70 1_555 1_555
N18 C71 1_555 1_555
C72 C73 1_555 1_555
C77 C78 1_555 1_555
C79 C80 1_555 1_555
C83 C84 1_555 1_555
C88 C89 1_555 1_555
N21 C90 1_555 1_555
C91 C92 1_555 1_555
C97 C98 1_555 1_555
N24 C99 1_555 1_555
C100 C101 1_555 1_555
C105 C106 1_555 1_555
C107 C108 1_555 1_555
C111 C112 1_555 1_555
C116 C117 1_555 1_555
N27 C118 1_555 1_555
C119 C120 1_555 1_555
C125 C126 1_555 1_555
N30 C127 1_555 1_555
C128 C129 1_555 1_555
C133 C134 1_555 1_555
C135 C136 1_555 1_555
C139 C140 1_555 1_555
C144 C145 1_555 1_555
N33 C146 1_555 1_555
C147 C148 1_555 1_555
C153 C154 1_555 1_555
N36 C155 1_555 1_555
C156 C157 1_555 1_555
C161 C162 1_555 1_555
C163 C164 1_555 1_555
C167 C168 1_555 1_555
C172 C173 1_555 1_555
N39 C174 1_555 1_555
C175 C176 1_555 1_555
C181 C182 1_555 1_555
N42 C183 1_555 1_555
C184 C185 1_555 1_555
C189 C190 1_555 1_555
C191 C192 1_555 1_555
C195 C196 1_555 1_555
C200 C201 1_555 1_555
N45 C202 1_555 1_555
C203 C204 1_555 1_555
C209 C210 1_555 1_555
N48 C211 1_555 1_555
C212 C213 1_555 1_555
C217 C218 1_555 1_555
C219 C220 1_555 1_555
C223 C224 1_555 1_555
C228 C229 1_555 1_555
N51 C230 1_555 1_555
C231 C232 1_555 1_555
C237 C238 1_555 1_555
N54 C239 1_555 1_555
C240 C241 1_555 1_555
C245 C246 1_555 1_555
C247 C248 1_555 1_555
C251 C252 1_555 1_555
C256 C257 1_555 1_555
N57 C258 1_555 1_555
C259 C260 1_555 1_555
C265 C266 1_555 1_555
N60 C267 1_555 1_555
C268 C269 1_555 1_555
C273 C274 1_555 1_555
C275 C276 1_555 1_555
C279 C280 1_555 1_555
C284 C285 1_555 1_555
N63 C286 1_555 1_555
C287 C288 1_555 1_555
C293 C294 1_555 1_555
N66 C295 1_555 1_555
C296 C297 1_555 1_555
C301 C302 1_555 1_555
C303 C304 1_555 1_555
C307 C308 1_555 1_555
C312 C313 1_555 1_555
N69 C314 1_555 1_555
C315 C316 1_555 1_555
C321 C322 1_555 1_555
N72 C323 1_555 1_555
C324 C325 1_555 1_555
C329 C330 1_555 1_555
C331 C332 1_555 1_555
C335 C336 1_555 1_555
C340 C341 1_555 1_555
N75 C342 1_555 1_555
C343 C344 1_555 1_555
C349 C350 1_555 1_555
N78 C351 1_555 1_555
C352 C353 1_555 1_555
C357 C358 1_555 1_555
C359 C360 1_555 1_555
C363 C364 1_555 1_555
C368 C369 1_555 1_555
N81 C370 1_555 1_555
C371 C372 1_555 1_555
C377 C378 1_555 1_555
N84 C379 1_555 1_555
C380 C381 1_555 1_555
C385 C386 1_555 1_555
C387 C388 1_555 1_555
C391 C392 1_555 1_555
C396 C397 1_555 1_555
N87 C398 1_555 1_555
C399 C400 1_555 1_555
C405 C406 1_555 1_555
N90 C407 1_555 1_555
C408 C409 1_555 1_555
C413 C414 1_555 1_555
C415 C416 1_555 1_555
C419 C420 1_555 1_555
Cl2 O7 1_555 1_555

#END
