# generated using pymatgen
data_Cd16B22H561C694N155F88
_symmetry_space_group_name_H-M   'P 1'
_cell_length_a   34.45000000
_cell_length_b   36.50800000
_cell_length_c   44.27800000
_cell_angle_alpha   75.08000000
_cell_angle_beta   73.81900000
_cell_angle_gamma   64.52200000
_symmetry_Int_Tables_number   1
_chemical_formula_structural   Cd16B22H561C694N155F88
_chemical_formula_sum   'Cd32 B44 H1122 C1388 N310 F176'
_cell_volume   47669.38334865
_cell_formula_units_Z   2
loop_
 _symmetry_equiv_pos_site_id
 _symmetry_equiv_pos_as_xyz
  1  'x, y, z'
loop_
 _atom_site_type_symbol
 _atom_site_label
 _atom_site_symmetry_multiplicity
 _atom_site_fract_x
 _atom_site_fract_y
 _atom_site_fract_z
 _atom_site_occupancy
  Cd  Cd1  1  0.861230  0.486575  0.001893  1.0
  Cd  Cd2  1  0.138770  0.513425  0.998107  1.0
  Cd  Cd3  1  0.023360  0.189471  0.979649  1.0
  Cd  Cd4  1  0.976640  0.810529  0.020351  1.0
  Cd  Cd5  1  0.700400  0.328690  0.960078  1.0
  Cd  Cd6  1  0.299600  0.671310  0.039922  1.0
  Cd  Cd7  1  0.396750  0.586520  0.232733  1.0
  Cd  Cd8  1  0.603250  0.413480  0.767267  1.0
  Cd  Cd9  1  0.389300  0.399990  0.453360  1.0
  Cd  Cd10  1  0.610700  0.600010  0.546640  1.0
  Cd  Cd11  1  0.334180  0.319890  0.273625  1.0
  Cd  Cd12  1  0.665820  0.680110  0.726375  1.0
  Cd  Cd13  1  0.703730  0.911740  0.430196  1.0
  Cd  Cd14  1  0.296270  0.088260  0.569804  1.0
  Cd  Cd15  1  0.762280  0.904820  0.194523  1.0
  Cd  Cd16  1  0.237720  0.095180  0.805477  1.0
  Cd  Cd17  1  0.015250  0.868870  0.300217  1.0
  Cd  Cd18  1  0.984750  0.131130  0.699783  1.0
  Cd  Cd19  1  0.812220  0.505710  0.368588  1.0
  Cd  Cd20  1  0.187780  0.494290  0.631412  1.0
  Cd  Cd21  1  0.885430  0.216780  0.502089  1.0
  Cd  Cd22  1  0.114570  0.783220  0.497911  1.0
  Cd  Cd23  1  0.097750  0.272350  0.299633  1.0
  Cd  Cd24  1  0.902250  0.727650  0.700367  1.0
  Cd  Cd25  1  0.684800  0.568250  0.195796  1.0
  Cd  Cd26  1  0.315200  0.431750  0.804204  1.0
  Cd  Cd27  1  0.640230  0.163140  0.494174  1.0
  Cd  Cd28  1  0.359770  0.836860  0.505826  1.0
  Cd  Cd29  1  0.569050  0.170670  0.129422  1.0
  Cd  Cd30  1  0.430950  0.829330  0.870578  1.0
  Cd  Cd31  1  0.098580  0.086810  0.183488  1.0
  Cd  Cd32  1  0.901420  0.913190  0.816512  1.0
  B  B33  1  0.033500  0.925500  0.408000  1.0
  B  B34  1  0.966500  0.074500  0.592000  1.0
  B  B35  1  0.485900  0.009200  0.576200  1.0
  B  B36  1  0.514100  0.990800  0.423800  1.0
  B  B37  1  0.094800  0.378600  0.174000  1.0
  B  B38  1  0.905200  0.621400  0.826000  1.0
  B  B39  1  0.866700  0.064600  0.198600  1.0
  B  B40  1  0.133300  0.935400  0.801400  1.0
  B  B41  1  0.931200  0.541300  0.137600  1.0
  B  B42  1  0.068800  0.458700  0.862400  1.0
  B  B43  1  0.579300  0.252900  0.327000  1.0
  B  B44  1  0.420700  0.747100  0.673000  1.0
  B  B45  1  0.705600  0.210200  0.335600  1.0
  B  B46  1  0.294400  0.789800  0.664400  1.0
  B  B47  1  0.449800  0.562300  0.096900  1.0
  B  B48  1  0.550200  0.437700  0.903100  1.0
  B  B49  1  0.872400  0.195800  0.228900  1.0
  B  B50  1  0.127600  0.804200  0.771100  1.0
  B  B51  1  0.873700  0.960700  0.079800  1.0
  B  B52  1  0.126300  0.039300  0.920200  1.0
  B  B53  1  0.932100  0.034700  0.929700  1.0
  B  B54  1  0.067900  0.965300  0.070300  1.0
  B  B55  1  0.373100  0.153400  0.357300  1.0
  B  B56  1  0.626900  0.846600  0.642700  1.0
  B  B57  1  0.632100  0.525100  0.441300  1.0
  B  B58  1  0.367900  0.474900  0.558700  1.0
  B  B59  1  0.552500  0.356900  0.200400  1.0
  B  B60  1  0.447500  0.643100  0.799600  1.0
  B  B61  1  0.329000  0.246400  0.544600  1.0
  B  B62  1  0.671000  0.753600  0.455400  1.0
  B  B63  1  0.730300  0.356800  0.233600  1.0
  B  B64  1  0.269700  0.643200  0.766400  1.0
  B  B65  1  0.902400  0.201600  0.313600  1.0
  B  B66  1  0.097600  0.798400  0.686400  1.0
  B  B67  1  0.298700  0.186600  0.155500  1.0
  B  B68  1  0.701300  0.813400  0.844500  1.0
  B  B69  1  0.725400  0.372200  0.133900  1.0
  B  B70  1  0.274600  0.627800  0.866100  1.0
  B  B71  1  0.793800  0.089400  0.332200  1.0
  B  B72  1  0.206200  0.910600  0.667800  1.0
  B  B73  1  0.573300  0.384400  0.537300  1.0
  B  B74  1  0.426700  0.615600  0.462700  1.0
  B  B75  1  0.890100  0.715800  0.337000  1.0
  B  B76  1  0.109900  0.284200  0.663000  1.0
  H  H77  1  0.729100  0.452300  0.072900  1.0
  H  H78  1  0.270900  0.547700  0.927100  1.0
  H  H79  1  0.673100  0.515300  0.059600  1.0
  H  H80  1  0.326900  0.484700  0.940400  1.0
  H  H81  1  0.690400  0.568100  0.023600  1.0
  H  H82  1  0.309600  0.431900  0.976400  1.0
  H  H83  1  0.763600  0.557700  0.000800  1.0
  H  H84  1  0.236400  0.442300  0.999200  1.0
  H  H85  1  0.790100  0.390500  0.087100  1.0
  H  H86  1  0.209900  0.609500  0.912900  1.0
  H  H87  1  0.869600  0.345900  0.090100  1.0
  H  H88  1  0.130400  0.654100  0.909900  1.0
  H  H89  1  0.942200  0.364000  0.068300  1.0
  H  H90  1  0.057800  0.636000  0.931700  1.0
  H  H91  1  0.936600  0.406500  0.044700  1.0
  H  H92  1  0.063400  0.593500  0.955300  1.0
  H  H93  1  0.935500  0.206700  0.894900  1.0
  H  H94  1  0.064500  0.793300  0.105100  1.0
  H  H95  1  0.939200  0.139400  0.904300  1.0
  H  H96  1  0.060800  0.860600  0.095700  1.0
  H  H97  1  0.975800  0.090700  0.943500  1.0
  H  H98  1  0.024200  0.909300  0.056500  1.0
  H  H99  1  0.008700  0.109400  0.973400  1.0
  H  H100  1  0.991300  0.890600  0.026600  1.0
  H  H101  1  0.936700  0.274100  0.886600  1.0
  H  H102  1  0.063300  0.725900  0.113400  1.0
  H  H103  1  0.961000  0.328100  0.892300  1.0
  H  H104  1  0.039000  0.671900  0.107700  1.0
  H  H105  1  0.023200  0.321300  0.921100  1.0
  H  H106  1  0.976800  0.678700  0.078900  1.0
  H  H107  1  0.044500  0.278400  0.942800  1.0
  H  H108  1  0.955500  0.721600  0.057200  1.0
  H  H109  1  0.899100  0.354800  0.014100  1.0
  H  H110  1  0.100900  0.645200  0.985900  1.0
  H  H111  1  0.934100  0.322900  0.968800  1.0
  H  H112  1  0.065900  0.677100  0.031200  1.0
  H  H113  1  0.006900  0.372200  0.043400  1.0
  H  H114  1  0.993100  0.627800  0.956600  1.0
  H  H115  1  0.081700  0.357000  0.023700  1.0
  H  H116  1  0.918300  0.643000  0.976300  1.0
  H  H117  1  0.116800  0.325100  0.978500  1.0
  H  H118  1  0.883200  0.674900  0.021500  1.0
  H  H119  1  0.077000  0.308500  0.952800  1.0
  H  H120  1  0.923000  0.691500  0.047200  1.0
  H  H121  1  0.993700  0.263200  0.075400  1.0
  H  H122  1  0.006300  0.736800  0.924600  1.0
  H  H123  1  0.062500  0.266300  0.066600  1.0
  H  H124  1  0.937500  0.733700  0.933400  1.0
  H  H125  1  0.116400  0.240600  0.023100  1.0
  H  H126  1  0.883600  0.759400  0.976900  1.0
  H  H127  1  0.101500  0.211700  0.988400  1.0
  H  H128  1  0.898500  0.788300  0.011600  1.0
  H  H129  1  0.924600  0.258300  0.081700  1.0
  H  H130  1  0.075400  0.741700  0.918300  1.0
  H  H131  1  0.873500  0.228300  0.075600  1.0
  H  H132  1  0.126500  0.771700  0.924400  1.0
  H  H133  1  0.887200  0.171800  0.040100  1.0
  H  H134  1  0.112800  0.828200  0.959900  1.0
  H  H135  1  0.932100  0.159200  0.014800  1.0
  H  H136  1  0.067900  0.840800  0.985200  1.0
  H  H137  1  0.725900  0.462400  0.905200  1.0
  H  H138  1  0.274100  0.537600  0.094800  1.0
  H  H139  1  0.654700  0.510100  0.919400  1.0
  H  H140  1  0.345300  0.489900  0.080600  1.0
  H  H141  1  0.599500  0.487500  0.950100  1.0
  H  H142  1  0.400500  0.512500  0.049900  1.0
  H  H143  1  0.615500  0.417100  0.966500  1.0
  H  H144  1  0.384500  0.582900  0.033500  1.0
  H  H145  1  0.797100  0.410400  0.888900  1.0
  H  H146  1  0.202900  0.589600  0.111100  1.0
  H  H147  1  0.853100  0.338100  0.883500  1.0
  H  H148  1  0.146900  0.661900  0.116500  1.0
  H  H149  1  0.842300  0.266100  0.896100  1.0
  H  H150  1  0.157700  0.733900  0.103900  1.0
  H  H151  1  0.795800  0.266400  0.916300  1.0
  H  H152  1  0.204200  0.733600  0.083700  1.0
  H  H153  1  0.880200  0.263400  0.998300  1.0
  H  H154  1  0.119800  0.736600  0.001700  1.0
  H  H155  1  0.845700  0.300000  0.954900  1.0
  H  H156  1  0.154300  0.700000  0.045100  1.0
  H  H157  1  0.893500  0.131000  0.005600  1.0
  H  H158  1  0.106500  0.869000  0.994400  1.0
  H  H159  1  0.874500  0.097200  0.977400  1.0
  H  H160  1  0.125500  0.902800  0.022600  1.0
  H  H161  1  0.840000  0.133800  0.934000  1.0
  H  H162  1  0.160000  0.866200  0.066000  1.0
  H  H163  1  0.824500  0.204200  0.918800  1.0
  H  H164  1  0.175500  0.795800  0.081200  1.0
  H  H165  1  0.997700  0.411600  0.920300  1.0
  H  H166  1  0.002300  0.588400  0.079700  1.0
  H  H167  1  0.051700  0.417800  0.938900  1.0
  H  H168  1  0.948300  0.582200  0.061100  1.0
  H  H169  1  0.032400  0.449100  0.983700  1.0
  H  H170  1  0.967600  0.550900  0.016300  1.0
  H  H171  1  0.959300  0.474300  0.010000  1.0
  H  H172  1  0.040700  0.525700  0.990000  1.0
  H  H173  1  0.939300  0.403400  0.905200  1.0
  H  H174  1  0.060700  0.596600  0.094800  1.0
  H  H175  1  0.860200  0.426300  0.900400  1.0
  H  H176  1  0.139800  0.573700  0.099600  1.0
  H  H177  1  0.789400  0.490500  0.923100  1.0
  H  H178  1  0.210600  0.509500  0.076900  1.0
  H  H179  1  0.792400  0.505000  0.953100  1.0
  H  H180  1  0.207600  0.495000  0.046900  1.0
  H  H181  1  0.769100  0.206100  0.044200  1.0
  H  H182  1  0.230900  0.793900  0.955800  1.0
  H  H183  1  0.772900  0.153200  0.021300  1.0
  H  H184  1  0.227100  0.846800  0.978700  1.0
  H  H185  1  0.748700  0.168600  0.973400  1.0
  H  H186  1  0.251300  0.831400  0.026600  1.0
  H  H187  1  0.720700  0.236900  0.948400  1.0
  H  H188  1  0.279300  0.763100  0.051600  1.0
  H  H189  1  0.767800  0.259000  0.064300  1.0
  H  H190  1  0.232200  0.741000  0.935700  1.0
  H  H191  1  0.737900  0.332700  0.073900  1.0
  H  H192  1  0.262100  0.667300  0.926100  1.0
  H  H193  1  0.676800  0.404300  0.044400  1.0
  H  H194  1  0.323200  0.595700  0.955600  1.0
  H  H195  1  0.668000  0.399300  0.012400  1.0
  H  H196  1  0.332000  0.600700  0.987600  1.0
  H  H197  1  0.820100  0.400800  0.969200  1.0
  H  H198  1  0.179900  0.599200  0.030800  1.0
  H  H199  1  0.777500  0.365000  0.002200  1.0
  H  H200  1  0.222500  0.635000  0.997800  1.0
  H  H201  1  0.723200  0.534700  0.953100  1.0
  H  H202  1  0.276800  0.465300  0.046900  1.0
  H  H203  1  0.647900  0.569700  0.969700  1.0
  H  H204  1  0.352100  0.430300  0.030300  1.0
  H  H205  1  0.605300  0.533900  0.002600  1.0
  H  H206  1  0.394700  0.466100  0.997400  1.0
  H  H207  1  0.638000  0.463000  0.019000  1.0
  H  H208  1  0.362000  0.537000  0.981000  1.0
  H  H209  1  0.271000  0.558100  0.212400  1.0
  H  H210  1  0.729000  0.441900  0.787600  1.0
  H  H211  1  0.286300  0.569600  0.156700  1.0
  H  H212  1  0.713700  0.430400  0.843300  1.0
  H  H213  1  0.346300  0.586800  0.129200  1.0
  H  H214  1  0.653700  0.413200  0.870800  1.0
  H  H215  1  0.391100  0.592600  0.157500  1.0
  H  H216  1  0.608900  0.407400  0.842500  1.0
  H  H217  1  0.261400  0.544100  0.270100  1.0
  H  H218  1  0.738600  0.455900  0.729900  1.0
  H  H219  1  0.268700  0.549300  0.324100  1.0
  H  H220  1  0.731300  0.450700  0.675900  1.0
  H  H221  1  0.312200  0.592000  0.336300  1.0
  H  H222  1  0.687800  0.408000  0.663700  1.0
  H  H223  1  0.349800  0.598900  0.307700  1.0
  H  H224  1  0.650200  0.401100  0.692300  1.0
  H  H225  1  0.478100  0.271000  0.396800  1.0
  H  H226  1  0.521900  0.729000  0.603200  1.0
  H  H227  1  0.450400  0.225200  0.433600  1.0
  H  H228  1  0.549600  0.774800  0.566400  1.0
  H  H229  1  0.397500  0.247300  0.478600  1.0
  H  H230  1  0.602500  0.752700  0.521400  1.0
  H  H231  1  0.372300  0.315300  0.486700  1.0
  H  H232  1  0.627700  0.684700  0.513300  1.0
  H  H233  1  0.507000  0.318300  0.362400  1.0
  H  H234  1  0.493000  0.681700  0.637600  1.0
  H  H235  1  0.521100  0.384100  0.344900  1.0
  H  H236  1  0.478900  0.615900  0.655100  1.0
  H  H237  1  0.499200  0.447000  0.375700  1.0
  H  H238  1  0.500800  0.553000  0.624300  1.0
  H  H239  1  0.462000  0.451000  0.407200  1.0
  H  H240  1  0.538000  0.549000  0.592800  1.0
  H  H241  1  0.367000  0.496300  0.322400  1.0
  H  H242  1  0.633000  0.503700  0.677600  1.0
  H  H243  1  0.421900  0.443100  0.347400  1.0
  H  H244  1  0.578100  0.556900  0.652600  1.0
  H  H245  1  0.360600  0.614100  0.346100  1.0
  H  H246  1  0.639400  0.385900  0.653900  1.0
  H  H247  1  0.397800  0.629200  0.375100  1.0
  H  H248  1  0.602200  0.370800  0.624900  1.0
  H  H249  1  0.452700  0.576000  0.400000  1.0
  H  H250  1  0.547300  0.424000  0.600000  1.0
  H  H251  1  0.470500  0.507700  0.396000  1.0
  H  H252  1  0.529500  0.492300  0.604000  1.0
  H  H253  1  0.311100  0.555100  0.411000  1.0
  H  H254  1  0.688900  0.444900  0.589000  1.0
  H  H255  1  0.347300  0.581100  0.432200  1.0
  H  H256  1  0.652700  0.418900  0.567800  1.0
  H  H257  1  0.400100  0.536400  0.462700  1.0
  H  H258  1  0.599900  0.463600  0.537300  1.0
  H  H259  1  0.416700  0.465700  0.471900  1.0
  H  H260  1  0.583300  0.534300  0.528100  1.0
  H  H261  1  0.277200  0.523300  0.389400  1.0
  H  H262  1  0.722800  0.476700  0.610600  1.0
  H  H263  1  0.255900  0.466100  0.386400  1.0
  H  H264  1  0.744100  0.533900  0.613600  1.0
  H  H265  1  0.269700  0.392800  0.423000  1.0
  H  H266  1  0.730300  0.607200  0.577000  1.0
  H  H267  1  0.306200  0.376400  0.444100  1.0
  H  H268  1  0.693800  0.623600  0.555900  1.0
  H  H269  1  0.467900  0.351300  0.203200  1.0
  H  H270  1  0.532100  0.648700  0.796800  1.0
  H  H271  1  0.442900  0.377000  0.155000  1.0
  H  H272  1  0.557100  0.623000  0.845000  1.0
  H  H273  1  0.374900  0.379700  0.152100  1.0
  H  H274  1  0.625100  0.620300  0.847900  1.0
  H  H275  1  0.331900  0.356700  0.197500  1.0
  H  H276  1  0.668100  0.643300  0.802500  1.0
  H  H277  1  0.494600  0.317500  0.250400  1.0
  H  H278  1  0.505400  0.682500  0.749600  1.0
  H  H279  1  0.493200  0.280000  0.307300  1.0
  H  H280  1  0.506800  0.720000  0.692700  1.0
  H  H281  1  0.437000  0.247500  0.346400  1.0
  H  H282  1  0.563000  0.752500  0.653600  1.0
  H  H283  1  0.393800  0.256500  0.334000  1.0
  H  H284  1  0.606200  0.743500  0.666000  1.0
  H  H285  1  0.348200  0.398000  0.365000  1.0
  H  H286  1  0.651800  0.602000  0.635000  1.0
  H  H287  1  0.394400  0.350400  0.330800  1.0
  H  H288  1  0.605600  0.649600  0.669200  1.0
  H  H289  1  0.294900  0.322700  0.453200  1.0
  H  H290  1  0.705100  0.677300  0.546800  1.0
  H  H291  1  0.304200  0.253600  0.468700  1.0
  H  H292  1  0.695800  0.746400  0.531300  1.0
  H  H293  1  0.350300  0.206000  0.434500  1.0
  H  H294  1  0.649700  0.794000  0.565500  1.0
  H  H295  1  0.387200  0.227500  0.384900  1.0
  H  H296  1  0.612800  0.772500  0.615100  1.0
  H  H297  1  0.517100  0.516400  0.301700  1.0
  H  H298  1  0.482900  0.483600  0.698300  1.0
  H  H299  1  0.508600  0.574400  0.320300  1.0
  H  H300  1  0.491400  0.425600  0.679700  1.0
  H  H301  1  0.454600  0.638300  0.305800  1.0
  H  H302  1  0.545400  0.361700  0.694200  1.0
  H  H303  1  0.409100  0.644200  0.272700  1.0
  H  H304  1  0.590900  0.355800  0.727300  1.0
  H  H305  1  0.522300  0.459500  0.281900  1.0
  H  H306  1  0.477700  0.540500  0.718100  1.0
  H  H307  1  0.511900  0.423500  0.244600  1.0
  H  H308  1  0.488100  0.576500  0.755400  1.0
  H  H309  1  0.468700  0.456200  0.193700  1.0
  H  H310  1  0.531300  0.543800  0.806300  1.0
  H  H311  1  0.438100  0.504000  0.191200  1.0
  H  H312  1  0.561900  0.496000  0.808800  1.0
  H  H313  1  0.239300  0.354100  0.385500  1.0
  H  H314  1  0.760700  0.645900  0.614500  1.0
  H  H315  1  0.244200  0.287500  0.409300  1.0
  H  H316  1  0.755800  0.712500  0.590700  1.0
  H  H317  1  0.285000  0.232900  0.380600  1.0
  H  H318  1  0.715000  0.767100  0.619400  1.0
  H  H319  1  0.320900  0.244800  0.328000  1.0
  H  H320  1  0.679100  0.755200  0.672000  1.0
  H  H321  1  0.237600  0.420600  0.357200  1.0
  H  H322  1  0.762400  0.579400  0.642800  1.0
  H  H323  1  0.247200  0.473900  0.309200  1.0
  H  H324  1  0.752800  0.526100  0.690800  1.0
  H  H325  1  0.266800  0.465900  0.247300  1.0
  H  H326  1  0.733200  0.534100  0.752700  1.0
  H  H327  1  0.294100  0.420600  0.238900  1.0
  H  H328  1  0.705900  0.579400  0.761100  1.0
  H  H329  1  0.408500  0.456600  0.265600  1.0
  H  H330  1  0.591500  0.543400  0.734400  1.0
  H  H331  1  0.345600  0.441400  0.283700  1.0
  H  H332  1  0.654400  0.558600  0.716300  1.0
  H  H333  1  0.423900  0.484700  0.156800  1.0
  H  H334  1  0.576100  0.515300  0.843200  1.0
  H  H335  1  0.385100  0.486500  0.120300  1.0
  H  H336  1  0.614900  0.513500  0.879700  1.0
  H  H337  1  0.322300  0.471300  0.138400  1.0
  H  H338  1  0.677700  0.528700  0.861600  1.0
  H  H339  1  0.298200  0.454300  0.193000  1.0
  H  H340  1  0.701800  0.545700  0.807000  1.0
  H  H341  1  0.790600  0.006600  0.401100  1.0
  H  H342  1  0.209400  0.993400  0.598900  1.0
  H  H343  1  0.824800  0.982500  0.445200  1.0
  H  H344  1  0.175200  0.017500  0.554800  1.0
  H  H345  1  0.812300  0.929800  0.484400  1.0
  H  H346  1  0.187700  0.070200  0.515600  1.0
  H  H347  1  0.765500  0.901300  0.479500  1.0
  H  H348  1  0.234500  0.098700  0.520500  1.0
  H  H349  1  0.754600  0.029700  0.357800  1.0
  H  H350  1  0.245400  0.970300  0.642200  1.0
  H  H351  1  0.698500  0.037400  0.327300  1.0
  H  H352  1  0.301500  0.962600  0.672700  1.0
  H  H353  1  0.634800  0.005300  0.342900  1.0
  H  H354  1  0.365200  0.994700  0.657100  1.0
  H  H355  1  0.637000  0.971000  0.374000  1.0
  H  H356  1  0.363000  0.029000  0.626000  1.0
  H  H357  1  0.919500  0.795500  0.202100  1.0
  H  H358  1  0.080500  0.204500  0.797900  1.0
  H  H359  1  0.954800  0.808700  0.149600  1.0
  H  H360  1  0.045200  0.191300  0.850400  1.0
  H  H361  1  0.915700  0.861000  0.113200  1.0
  H  H362  1  0.084300  0.139000  0.886800  1.0
  H  H363  1  0.841300  0.900100  0.129300  1.0
  H  H364  1  0.158700  0.099900  0.870700  1.0
  H  H365  1  0.881300  0.783200  0.255100  1.0
  H  H366  1  0.118700  0.216800  0.744900  1.0
  H  H367  1  0.813800  0.787000  0.298000  1.0
  H  H368  1  0.186200  0.213000  0.702000  1.0
  H  H369  1  0.725500  0.824300  0.291000  1.0
  H  H370  1  0.274500  0.175700  0.709000  1.0
  H  H371  1  0.716600  0.857300  0.259600  1.0
  H  H372  1  0.283400  0.142700  0.740400  1.0
  H  H373  1  0.739500  0.939300  0.327100  1.0
  H  H374  1  0.260500  0.060700  0.672900  1.0
  H  H375  1  0.769000  0.885700  0.297200  1.0
  H  H376  1  0.231000  0.114300  0.702800  1.0
  H  H377  1  0.591300  0.971400  0.349500  1.0
  H  H378  1  0.408700  0.028600  0.650500  1.0
  H  H379  1  0.545200  0.947100  0.338000  1.0
  H  H380  1  0.454800  0.052900  0.662000  1.0
  H  H381  1  0.574800  0.893500  0.308100  1.0
  H  H382  1  0.425200  0.106500  0.691900  1.0
  H  H383  1  0.650500  0.864300  0.289800  1.0
  H  H384  1  0.349500  0.135700  0.710200  1.0
  H  H385  1  0.647400  0.020000  0.261800  1.0
  H  H386  1  0.352600  0.980000  0.738200  1.0
  H  H387  1  0.585400  0.006900  0.265300  1.0
  H  H388  1  0.414600  0.993100  0.734700  1.0
  H  H389  1  0.591500  0.953700  0.241800  1.0
  H  H390  1  0.408500  0.046300  0.758200  1.0
  H  H391  1  0.659700  0.913500  0.214700  1.0
  H  H392  1  0.340300  0.086500  0.785300  1.0
  H  H393  1  0.712900  0.029900  0.254600  1.0
  H  H394  1  0.287100  0.970100  0.745400  1.0
  H  H395  1  0.791500  0.023200  0.231900  1.0
  H  H396  1  0.208500  0.976800  0.768100  1.0
  H  H397  1  0.851800  0.981600  0.185800  1.0
  H  H398  1  0.148200  0.018400  0.814200  1.0
  H  H399  1  0.840600  0.949800  0.174500  1.0
  H  H400  1  0.159400  0.050200  0.825500  1.0
  H  H401  1  0.962700  0.781300  0.405100  1.0
  H  H402  1  0.037300  0.218700  0.594900  1.0
  H  H403  1  0.995000  0.793200  0.439700  1.0
  H  H404  1  0.005000  0.206800  0.560300  1.0
  H  H405  1  0.032800  0.837200  0.421200  1.0
  H  H406  1  0.967200  0.162800  0.578800  1.0
  H  H407  1  0.038300  0.869400  0.368000  1.0
  H  H408  1  0.961700  0.130600  0.632000  1.0
  H  H409  1  0.923800  0.777800  0.366300  1.0
  H  H410  1  0.076200  0.222200  0.633700  1.0
  H  H411  1  0.916800  0.779100  0.310500  1.0
  H  H412  1  0.083200  0.220900  0.689500  1.0
  H  H413  1  0.974000  0.795400  0.251900  1.0
  H  H414  1  0.026000  0.204600  0.748100  1.0
  H  H415  1  0.996300  0.825100  0.253500  1.0
  H  H416  1  0.003700  0.174900  0.746500  1.0
  H  H417  1  0.833500  0.925500  0.254400  1.0
  H  H418  1  0.166500  0.074500  0.745600  1.0
  H  H419  1  0.883700  0.869400  0.281600  1.0
  H  H420  1  0.116300  0.130600  0.718400  1.0
  H  H421  1  0.907600  0.938600  0.151300  1.0
  H  H422  1  0.092400  0.061400  0.848700  1.0
  H  H423  1  0.978100  0.903600  0.123900  1.0
  H  H424  1  0.021900  0.096400  0.876100  1.0
  H  H425  1  0.028300  0.847500  0.151100  1.0
  H  H426  1  0.971700  0.152500  0.848900  1.0
  H  H427  1  0.008000  0.826400  0.205600  1.0
  H  H428  1  0.992000  0.173600  0.794400  1.0
  H  H429  1  0.678300  0.820800  0.369500  1.0
  H  H430  1  0.321700  0.179200  0.630500  1.0
  H  H431  1  0.601800  0.845600  0.383200  1.0
  H  H432  1  0.398200  0.154400  0.616800  1.0
  H  H433  1  0.563700  0.898000  0.414400  1.0
  H  H434  1  0.436300  0.102000  0.585600  1.0
  H  H435  1  0.602100  0.925500  0.431900  1.0
  H  H436  1  0.397900  0.074500  0.568100  1.0
  H  H437  1  0.757000  0.799900  0.356400  1.0
  H  H438  1  0.243000  0.200100  0.643600  1.0
  H  H439  1  0.831700  0.789300  0.363800  1.0
  H  H440  1  0.168300  0.210700  0.636200  1.0
  H  H441  1  0.849300  0.807200  0.414500  1.0
  H  H442  1  0.150700  0.192800  0.585500  1.0
  H  H443  1  0.809500  0.842300  0.432500  1.0
  H  H444  1  0.190500  0.157700  0.567500  1.0
  H  H445  1  0.959500  0.977300  0.203300  1.0
  H  H446  1  0.040500  0.022700  0.796700  1.0
  H  H447  1  0.017200  0.948100  0.162800  1.0
  H  H448  1  0.982800  0.051900  0.837200  1.0
  H  H449  1  0.075400  0.886500  0.175300  1.0
  H  H450  1  0.924600  0.113500  0.824700  1.0
  H  H451  1  0.075800  0.854200  0.228300  1.0
  H  H452  1  0.924200  0.145800  0.771700  1.0
  H  H453  1  0.901300  0.004600  0.247300  1.0
  H  H454  1  0.098700  0.995400  0.752700  1.0
  H  H455  1  0.868400  0.012300  0.305400  1.0
  H  H456  1  0.131600  0.987700  0.694600  1.0
  H  H457  1  0.900900  0.973200  0.359200  1.0
  H  H458  1  0.099100  0.026800  0.640800  1.0
  H  H459  1  0.946100  0.933900  0.355800  1.0
  H  H460  1  0.053900  0.066100  0.644200  1.0
  H  H461  1  0.830600  0.879300  0.351100  1.0
  H  H462  1  0.169400  0.120700  0.648900  1.0
  H  H463  1  0.867200  0.923600  0.326200  1.0
  H  H464  1  0.132800  0.076400  0.673800  1.0
  H  H465  1  0.858700  0.837900  0.452400  1.0
  H  H466  1  0.141300  0.162100  0.547600  1.0
  H  H467  1  0.898100  0.851300  0.480700  1.0
  H  H468  1  0.101900  0.148700  0.519300  1.0
  H  H469  1  0.934700  0.895600  0.455800  1.0
  H  H470  1  0.065300  0.104400  0.544200  1.0
  H  H471  1  0.931800  0.926500  0.402700  1.0
  H  H472  1  0.068200  0.073500  0.597300  1.0
  H  H473  1  0.867300  0.437900  0.266000  1.0
  H  H474  1  0.132700  0.562100  0.734000  1.0
  H  H475  1  0.891600  0.487300  0.231000  1.0
  H  H476  1  0.108400  0.512700  0.769000  1.0
  H  H477  1  0.885100  0.544700  0.249400  1.0
  H  H478  1  0.114900  0.455300  0.750600  1.0
  H  H479  1  0.854400  0.552700  0.302700  1.0
  H  H480  1  0.145600  0.447300  0.697300  1.0
  H  H481  1  0.838300  0.391600  0.301700  1.0
  H  H482  1  0.161700  0.608400  0.698300  1.0
  H  H483  1  0.795500  0.366500  0.353300  1.0
  H  H484  1  0.204500  0.633500  0.646700  1.0
  H  H485  1  0.757300  0.440700  0.409000  1.0
  H  H486  1  0.242700  0.559300  0.591000  1.0
  H  H487  1  0.750800  0.401300  0.406200  1.0
  H  H488  1  0.249200  0.598700  0.593800  1.0
  H  H489  1  0.053600  0.186800  0.474500  1.0
  H  H490  1  0.946400  0.813200  0.525500  1.0
  H  H491  1  0.081000  0.115000  0.481700  1.0
  H  H492  1  0.919000  0.885000  0.518300  1.0
  H  H493  1  0.032600  0.081100  0.497700  1.0
  H  H494  1  0.967400  0.918900  0.502300  1.0
  H  H495  1  0.956900  0.119000  0.506500  1.0
  H  H496  1  0.043100  0.881000  0.493500  1.0
  H  H497  1  0.024400  0.255500  0.470200  1.0
  H  H498  1  0.975600  0.744500  0.529800  1.0
  H  H499  1  0.966400  0.327200  0.474600  1.0
  H  H500  1  0.033600  0.672800  0.525400  1.0
  H  H501  1  0.878200  0.346900  0.506500  1.0
  H  H502  1  0.121800  0.653100  0.493500  1.0
  H  H503  1  0.861600  0.310700  0.512200  1.0
  H  H504  1  0.138400  0.689300  0.487800  1.0
  H  H505  1  0.854100  0.368000  0.395100  1.0
  H  H506  1  0.145900  0.632000  0.604900  1.0
  H  H507  1  0.899500  0.333500  0.432600  1.0
  H  H508  1  0.100500  0.666500  0.567400  1.0
  H  H509  1  0.716700  0.425600  0.454000  1.0
  H  H510  1  0.283300  0.574400  0.546000  1.0
  H  H511  1  0.687000  0.426900  0.508400  1.0
  H  H512  1  0.313000  0.573100  0.491600  1.0
  H  H513  1  0.732400  0.392400  0.545900  1.0
  H  H514  1  0.267600  0.607600  0.454100  1.0
  H  H515  1  0.807600  0.356700  0.529100  1.0
  H  H516  1  0.192400  0.643300  0.470900  1.0
  H  H517  1  0.752900  0.300500  0.446000  1.0
  H  H518  1  0.247100  0.699500  0.554000  1.0
  H  H519  1  0.701000  0.328500  0.489500  1.0
  H  H520  1  0.299000  0.671500  0.510500  1.0
  H  H521  1  0.721400  0.314200  0.538800  1.0
  H  H522  1  0.278600  0.685800  0.461200  1.0
  H  H523  1  0.793600  0.271900  0.544500  1.0
  H  H524  1  0.206400  0.728100  0.455500  1.0
  H  H525  1  0.809300  0.272800  0.401300  1.0
  H  H526  1  0.190700  0.727200  0.598700  1.0
  H  H527  1  0.881600  0.221800  0.376300  1.0
  H  H528  1  0.118400  0.778200  0.623700  1.0
  H  H529  1  0.948400  0.155100  0.405800  1.0
  H  H530  1  0.051600  0.844900  0.594200  1.0
  H  H531  1  0.946000  0.157200  0.442100  1.0
  H  H532  1  0.054000  0.842800  0.557900  1.0
  H  H533  1  0.059300  0.415200  0.328600  1.0
  H  H534  1  0.940700  0.584800  0.671400  1.0
  H  H535  1  0.077300  0.449100  0.277500  1.0
  H  H536  1  0.922700  0.550900  0.722500  1.0
  H  H537  1  0.102100  0.414800  0.233600  1.0
  H  H538  1  0.897900  0.585200  0.766400  1.0
  H  H539  1  0.109000  0.346600  0.240900  1.0
  H  H540  1  0.891000  0.653400  0.759100  1.0
  H  H541  1  0.040900  0.376900  0.380700  1.0
  H  H542  1  0.959100  0.623100  0.619300  1.0
  H  H543  1  0.044200  0.312000  0.420300  1.0
  H  H544  1  0.955800  0.688000  0.579700  1.0
  H  H545  1  0.091000  0.230000  0.410700  1.0
  H  H546  1  0.909000  0.770000  0.589300  1.0
  H  H547  1  0.102800  0.222800  0.374600  1.0
  H  H548  1  0.897200  0.777200  0.625400  1.0
  H  H549  1  0.937400  0.254500  0.401700  1.0
  H  H550  1  0.062600  0.745500  0.598300  1.0
  H  H551  1  0.992100  0.280300  0.391600  1.0
  H  H552  1  0.007900  0.719700  0.608400  1.0
  H  H553  1  0.009200  0.114500  0.421100  1.0
  H  H554  1  0.990800  0.885500  0.578900  1.0
  H  H555  1  0.081900  0.069300  0.422700  1.0
  H  H556  1  0.918100  0.930700  0.577300  1.0
  H  H557  1  0.136500  0.095000  0.412700  1.0
  H  H558  1  0.863500  0.905000  0.587300  1.0
  H  H559  1  0.118600  0.166000  0.401100  1.0
  H  H560  1  0.881400  0.834000  0.598900  1.0
  H  H561  1  0.829300  0.449300  0.486000  1.0
  H  H562  1  0.170700  0.550700  0.514000  1.0
  H  H563  1  0.755400  0.474500  0.510900  1.0
  H  H564  1  0.244600  0.525500  0.489100  1.0
  H  H565  1  0.701200  0.512500  0.480200  1.0
  H  H566  1  0.298800  0.487500  0.519800  1.0
  H  H567  1  0.720900  0.525500  0.424600  1.0
  H  H568  1  0.279100  0.474500  0.575400  1.0
  H  H569  1  0.904100  0.422600  0.458700  1.0
  H  H570  1  0.095900  0.577400  0.541300  1.0
  H  H571  1  0.967200  0.418500  0.411700  1.0
  H  H572  1  0.032800  0.581500  0.588300  1.0
  H  H573  1  0.964000  0.471900  0.354500  1.0
  H  H574  1  0.036000  0.528100  0.645500  1.0
  H  H575  1  0.916900  0.494500  0.344700  1.0
  H  H576  1  0.083100  0.505500  0.655300  1.0
  H  H577  1  0.011400  0.177600  0.324400  1.0
  H  H578  1  0.988600  0.822400  0.675600  1.0
  H  H579  1  0.067000  0.115000  0.339100  1.0
  H  H580  1  0.933000  0.885000  0.660900  1.0
  H  H581  1  0.136000  0.112800  0.338600  1.0
  H  H582  1  0.864000  0.887200  0.661400  1.0
  H  H583  1  0.149500  0.173300  0.323400  1.0
  H  H584  1  0.850500  0.826700  0.676600  1.0
  H  H585  1  0.959800  0.240400  0.305700  1.0
  H  H586  1  0.040200  0.759600  0.694300  1.0
  H  H587  1  0.931900  0.313900  0.277000  1.0
  H  H588  1  0.068100  0.686100  0.723000  1.0
  H  H589  1  0.973000  0.366300  0.248700  1.0
  H  H590  1  0.027000  0.633700  0.751300  1.0
  H  H591  1  0.022100  0.351400  0.253300  1.0
  H  H592  1  0.977900  0.648600  0.746700  1.0
  H  H593  1  0.939400  0.391800  0.363300  1.0
  H  H594  1  0.060600  0.608200  0.636700  1.0
  H  H595  1  0.960400  0.346200  0.327600  1.0
  H  H596  1  0.039600  0.653800  0.672400  1.0
  H  H597  1  0.960400  0.506200  0.301700  1.0
  H  H598  1  0.039600  0.493800  0.698300  1.0
  H  H599  1  0.985300  0.525200  0.247500  1.0
  H  H600  1  0.014700  0.474800  0.752500  1.0
  H  H601  1  0.006200  0.479600  0.211900  1.0
  H  H602  1  0.993800  0.520400  0.788100  1.0
  H  H603  1  0.002300  0.415000  0.230300  1.0
  H  H604  1  0.997700  0.585000  0.769700  1.0
  H  H605  1  0.846500  0.639700  0.978800  1.0
  H  H606  1  0.153500  0.360300  0.021200  1.0
  H  H607  1  0.834200  0.657400  0.926600  1.0
  H  H608  1  0.165800  0.342600  0.073400  1.0
  H  H609  1  0.831700  0.608900  0.902300  1.0
  H  H610  1  0.168300  0.391100  0.097700  1.0
  H  H611  1  0.841500  0.542700  0.930100  1.0
  H  H612  1  0.158500  0.457300  0.069900  1.0
  H  H613  1  0.860200  0.617700  0.033000  1.0
  H  H614  1  0.139800  0.382300  0.967000  1.0
  H  H615  1  0.879300  0.566600  0.083000  1.0
  H  H616  1  0.120700  0.433400  0.917000  1.0
  H  H617  1  0.900500  0.486200  0.097100  1.0
  H  H618  1  0.099500  0.513800  0.902900  1.0
  H  H619  1  0.901100  0.463500  0.070500  1.0
  H  H620  1  0.098900  0.536500  0.929500  1.0
  H  H621  1  0.572400  0.625600  0.120700  1.0
  H  H622  1  0.427600  0.374400  0.879300  1.0
  H  H623  1  0.537000  0.693200  0.131100  1.0
  H  H624  1  0.463000  0.306800  0.868900  1.0
  H  H625  1  0.557000  0.713000  0.168800  1.0
  H  H626  1  0.443000  0.287000  0.831200  1.0
  H  H627  1  0.612400  0.665300  0.196000  1.0
  H  H628  1  0.387600  0.334700  0.804000  1.0
  H  H629  1  0.607000  0.552700  0.115300  1.0
  H  H630  1  0.393000  0.447300  0.884700  1.0
  H  H631  1  0.665000  0.480300  0.120900  1.0
  H  H632  1  0.335000  0.519700  0.879100  1.0
  H  H633  1  0.725900  0.441900  0.157100  1.0
  H  H634  1  0.274100  0.558100  0.842900  1.0
  H  H635  1  0.726300  0.467000  0.181600  1.0
  H  H636  1  0.273700  0.533000  0.818400  1.0
  H  H637  1  0.800100  0.536900  0.082000  1.0
  H  H638  1  0.199900  0.463100  0.918000  1.0
  H  H639  1  0.736100  0.529700  0.113600  1.0
  H  H640  1  0.263900  0.470300  0.886400  1.0
  H  H641  1  0.911700  0.418700  0.114000  1.0
  H  H642  1  0.088300  0.581300  0.886000  1.0
  H  H643  1  0.916100  0.359400  0.151500  1.0
  H  H644  1  0.083900  0.640600  0.848500  1.0
  H  H645  1  0.852100  0.352300  0.183100  1.0
  H  H646  1  0.147900  0.647700  0.816900  1.0
  H  H647  1  0.783700  0.404400  0.177000  1.0
  H  H648  1  0.216300  0.595600  0.823000  1.0
  H  H649  1  0.366300  0.742500  0.193400  1.0
  H  H650  1  0.633700  0.257500  0.806600  1.0
  H  H651  1  0.302900  0.770600  0.230700  1.0
  H  H652  1  0.697100  0.229400  0.769300  1.0
  H  H653  1  0.273300  0.727600  0.269400  1.0
  H  H654  1  0.726700  0.272400  0.730600  1.0
  H  H655  1  0.306900  0.656300  0.270900  1.0
  H  H656  1  0.693100  0.343700  0.729100  1.0
  H  H657  1  0.429500  0.710700  0.153000  1.0
  H  H658  1  0.570500  0.289300  0.847000  1.0
  H  H659  1  0.489700  0.650800  0.127400  1.0
  H  H660  1  0.510300  0.349200  0.872600  1.0
  H  H661  1  0.510400  0.569700  0.140600  1.0
  H  H662  1  0.489600  0.430300  0.859400  1.0
  H  H663  1  0.476900  0.554100  0.167700  1.0
  H  H664  1  0.523100  0.445900  0.832300  1.0
  H  H665  1  0.625800  0.625800  0.303600  1.0
  H  H666  1  0.374200  0.374200  0.696400  1.0
  H  H667  1  0.651900  0.678600  0.289700  1.0
  H  H668  1  0.348100  0.321400  0.710300  1.0
  H  H669  1  0.693700  0.688800  0.239100  1.0
  H  H670  1  0.306300  0.311200  0.760900  1.0
  H  H671  1  0.709400  0.646100  0.202200  1.0
  H  H672  1  0.290600  0.353900  0.797800  1.0
  H  H673  1  0.605700  0.568100  0.316300  1.0
  H  H674  1  0.394300  0.431900  0.683700  1.0
  H  H675  1  0.593000  0.509500  0.305600  1.0
  H  H676  1  0.407000  0.490500  0.694400  1.0
  H  H677  1  0.621800  0.469000  0.256100  1.0
  H  H678  1  0.378200  0.531000  0.743900  1.0
  H  H679  1  0.656100  0.481900  0.227000  1.0
  H  H680  1  0.343900  0.518100  0.773000  1.0
  H  H681  1  0.512300  0.603700  0.201800  1.0
  H  H682  1  0.487700  0.396300  0.798200  1.0
  H  H683  1  0.565600  0.574100  0.233700  1.0
  H  H684  1  0.434400  0.425900  0.766300  1.0
  H  H685  1  0.529800  0.499000  0.153600  1.0
  H  H686  1  0.470200  0.501000  0.846400  1.0
  H  H687  1  0.576500  0.429700  0.154700  1.0
  H  H688  1  0.423500  0.570300  0.845300  1.0
  H  H689  1  0.629700  0.400100  0.186600  1.0
  H  H690  1  0.370300  0.599900  0.813400  1.0
  H  H691  1  0.636200  0.439900  0.217300  1.0
  H  H692  1  0.363800  0.560100  0.782700  1.0
  H  H693  1  0.756600  0.664000  0.347500  1.0
  H  H694  1  0.243400  0.336000  0.652500  1.0
  H  H695  1  0.817300  0.672400  0.354000  1.0
  H  H696  1  0.182700  0.327600  0.646000  1.0
  H  H697  1  0.877800  0.614900  0.368900  1.0
  H  H698  1  0.122200  0.385100  0.631100  1.0
  H  H699  1  0.877600  0.549000  0.377300  1.0
  H  H700  1  0.122400  0.451000  0.622700  1.0
  H  H701  1  0.697100  0.656600  0.348800  1.0
  H  H702  1  0.302900  0.343400  0.651200  1.0
  H  H703  1  0.648900  0.618900  0.351300  1.0
  H  H704  1  0.351100  0.381100  0.648700  1.0
  H  H705  1  0.663400  0.535500  0.364900  1.0
  H  H706  1  0.336600  0.464500  0.635100  1.0
  H  H707  1  0.708900  0.505900  0.375800  1.0
  H  H708  1  0.291100  0.494100  0.624200  1.0
  H  H709  1  0.838100  0.572400  0.137700  1.0
  H  H710  1  0.161900  0.427600  0.862300  1.0
  H  H711  1  0.815000  0.635400  0.103900  1.0
  H  H712  1  0.185000  0.364600  0.896100  1.0
  H  H713  1  0.740300  0.672600  0.103300  1.0
  H  H714  1  0.259700  0.327400  0.896700  1.0
  H  H715  1  0.688700  0.646800  0.136500  1.0
  H  H716  1  0.311300  0.353200  0.863500  1.0
  H  H717  1  0.857800  0.506100  0.170600  1.0
  H  H718  1  0.142200  0.493900  0.829400  1.0
  H  H719  1  0.845800  0.447800  0.212500  1.0
  H  H720  1  0.154200  0.552200  0.787500  1.0
  H  H721  1  0.774700  0.433900  0.245100  1.0
  H  H722  1  0.225300  0.566100  0.754900  1.0
  H  H723  1  0.729300  0.465100  0.234600  1.0
  H  H724  1  0.270700  0.534900  0.765400  1.0
  H  H725  1  0.738200  0.554600  0.302600  1.0
  H  H726  1  0.261800  0.445400  0.697400  1.0
  H  H727  1  0.762300  0.528000  0.254900  1.0
  H  H728  1  0.237700  0.472000  0.745100  1.0
  H  H729  1  0.673900  0.471000  0.373200  1.0
  H  H730  1  0.326100  0.529000  0.626800  1.0
  H  H731  1  0.662100  0.413400  0.370700  1.0
  H  H732  1  0.337900  0.586600  0.629300  1.0
  H  H733  1  0.686300  0.386800  0.323000  1.0
  H  H734  1  0.313700  0.613200  0.677000  1.0
  H  H735  1  0.722200  0.417700  0.277800  1.0
  H  H736  1  0.277800  0.582300  0.722200  1.0
  H  H737  1  0.349500  0.363900  0.577500  1.0
  H  H738  1  0.650500  0.636100  0.422500  1.0
  H  H739  1  0.276200  0.374100  0.582800  1.0
  H  H740  1  0.723800  0.625900  0.417200  1.0
  H  H741  1  0.244200  0.397100  0.537700  1.0
  H  H742  1  0.755800  0.602900  0.462300  1.0
  H  H743  1  0.285400  0.409700  0.487400  1.0
  H  H744  1  0.714600  0.590300  0.512600  1.0
  H  H745  1  0.423300  0.359900  0.569800  1.0
  H  H746  1  0.576700  0.640100  0.430200  1.0
  H  H747  1  0.496500  0.360800  0.537700  1.0
  H  H748  1  0.503500  0.639200  0.462300  1.0
  H  H749  1  0.525600  0.378900  0.475000  1.0
  H  H750  1  0.474400  0.621100  0.525000  1.0
  H  H751  1  0.490600  0.395600  0.452500  1.0
  H  H752  1  0.509400  0.604400  0.547500  1.0
  H  H753  1  0.542100  0.085600  0.501500  1.0
  H  H754  1  0.457900  0.914400  0.498500  1.0
  H  H755  1  0.556000  0.040200  0.549000  1.0
  H  H756  1  0.444000  0.959800  0.451000  1.0
  H  H757  1  0.604900  0.041200  0.576100  1.0
  H  H758  1  0.395100  0.958800  0.423900  1.0
  H  H759  1  0.639800  0.087500  0.555700  1.0
  H  H760  1  0.360200  0.912500  0.444300  1.0
  H  H761  1  0.528800  0.133500  0.452800  1.0
  H  H762  1  0.471200  0.866500  0.547200  1.0
  H  H763  1  0.537900  0.191000  0.408700  1.0
  H  H764  1  0.462100  0.809000  0.591300  1.0
  H  H765  1  0.592800  0.229700  0.394900  1.0
  H  H766  1  0.407200  0.770300  0.605100  1.0
  H  H767  1  0.626500  0.215500  0.418100  1.0
  H  H768  1  0.373500  0.784500  0.581900  1.0
  H  H769  1  0.491200  0.303700  0.489000  1.0
  H  H770  1  0.508800  0.696300  0.511000  1.0
  H  H771  1  0.529300  0.242700  0.467500  1.0
  H  H772  1  0.470700  0.757300  0.532500  1.0
  H  H773  1  0.552200  0.393300  0.424300  1.0
  H  H774  1  0.447800  0.606700  0.575700  1.0
  H  H775  1  0.607800  0.389700  0.379100  1.0
  H  H776  1  0.392200  0.610300  0.620900  1.0
  H  H777  1  0.645900  0.328600  0.357600  1.0
  H  H778  1  0.354100  0.671400  0.642400  1.0
  H  H779  1  0.628400  0.271100  0.381400  1.0
  H  H780  1  0.371600  0.728900  0.618600  1.0
  H  H781  1  0.667600  0.865400  0.554500  1.0
  H  H782  1  0.332400  0.134600  0.445500  1.0
  H  H783  1  0.725300  0.801100  0.559300  1.0
  H  H784  1  0.274700  0.198900  0.440700  1.0
  H  H785  1  0.774400  0.776100  0.513700  1.0
  H  H786  1  0.225600  0.223900  0.486300  1.0
  H  H787  1  0.765800  0.815500  0.463400  1.0
  H  H788  1  0.234200  0.184500  0.536600  1.0
  H  H789  1  0.602500  0.927500  0.542400  1.0
  H  H790  1  0.397500  0.072500  0.457600  1.0
  H  H791  1  0.559400  0.994400  0.510500  1.0
  H  H792  1  0.440600  0.005600  0.489500  1.0
  H  H793  1  0.569700  0.029600  0.447500  1.0
  H  H794  1  0.430300  0.970400  0.552500  1.0
  H  H795  1  0.606300  0.999600  0.423600  1.0
  H  H796  1  0.393700  0.000400  0.576400  1.0
  H  H797  1  0.788600  0.071300  0.533700  1.0
  H  H798  1  0.211400  0.928700  0.466300  1.0
  H  H799  1  0.767500  0.086700  0.585400  1.0
  H  H800  1  0.232500  0.913300  0.414600  1.0
  H  H801  1  0.696800  0.133400  0.602400  1.0
  H  H802  1  0.303200  0.866600  0.397600  1.0
  H  H803  1  0.647200  0.164800  0.567600  1.0
  H  H804  1  0.352800  0.835200  0.432400  1.0
  H  H805  1  0.806800  0.061800  0.477800  1.0
  H  H806  1  0.193200  0.938200  0.522200  1.0
  H  H807  1  0.791700  0.066900  0.423700  1.0
  H  H808  1  0.208300  0.933100  0.576300  1.0
  H  H809  1  0.721100  0.110600  0.397200  1.0
  H  H810  1  0.278900  0.889400  0.602800  1.0
  H  H811  1  0.680300  0.142700  0.417100  1.0
  H  H812  1  0.319700  0.857300  0.582900  1.0
  H  H813  1  0.658900  0.010600  0.476200  1.0
  H  H814  1  0.341100  0.989400  0.523800  1.0
  H  H815  1  0.697800  0.052900  0.465700  1.0
  H  H816  1  0.302200  0.947100  0.534300  1.0
  H  H817  1  0.584700  0.054100  0.393900  1.0
  H  H818  1  0.415300  0.945900  0.606100  1.0
  H  H819  1  0.579200  0.104900  0.348700  1.0
  H  H820  1  0.420800  0.895100  0.651300  1.0
  H  H821  1  0.618200  0.147300  0.338300  1.0
  H  H822  1  0.381800  0.852700  0.661700  1.0
  H  H823  1  0.662600  0.138800  0.373000  1.0
  H  H824  1  0.337400  0.861200  0.627000  1.0
  H  H825  1  0.843700  0.160800  0.622100  1.0
  H  H826  1  0.156300  0.839200  0.377900  1.0
  H  H827  1  0.849100  0.209100  0.645000  1.0
  H  H828  1  0.150900  0.790900  0.355000  1.0
  H  H829  1  0.871100  0.261100  0.612500  1.0
  H  H830  1  0.128900  0.738900  0.387500  1.0
  H  H831  1  0.887700  0.264900  0.557100  1.0
  H  H832  1  0.112300  0.735100  0.442900  1.0
  H  H833  1  0.842300  0.110600  0.597100  1.0
  H  H834  1  0.157700  0.889400  0.402900  1.0
  H  H835  1  0.847600  0.079600  0.550300  1.0
  H  H836  1  0.152400  0.920400  0.449700  1.0
  H  H837  1  0.875000  0.097400  0.487500  1.0
  H  H838  1  0.125000  0.902600  0.512500  1.0
  H  H839  1  0.891200  0.134600  0.475900  1.0
  H  H840  1  0.108800  0.865400  0.524100  1.0
  H  H841  1  0.563600  0.301900  0.539500  1.0
  H  H842  1  0.436400  0.698100  0.460500  1.0
  H  H843  1  0.512500  0.285100  0.581700  1.0
  H  H844  1  0.487500  0.714900  0.418300  1.0
  H  H845  1  0.508400  0.220800  0.589800  1.0
  H  H846  1  0.491600  0.779200  0.410200  1.0
  H  H847  1  0.555400  0.173400  0.555600  1.0
  H  H848  1  0.444600  0.826600  0.444400  1.0
  H  H849  1  0.612100  0.317700  0.491500  1.0
  H  H850  1  0.387900  0.682300  0.508500  1.0
  H  H851  1  0.674800  0.302500  0.444000  1.0
  H  H852  1  0.325200  0.697500  0.556000  1.0
  H  H853  1  0.719400  0.236900  0.414600  1.0
  H  H854  1  0.280600  0.763100  0.585400  1.0
  H  H855  1  0.705200  0.198500  0.427900  1.0
  H  H856  1  0.294800  0.801500  0.572100  1.0
  H  H857  1  0.786100  0.177200  0.514500  1.0
  H  H858  1  0.213900  0.822800  0.485500  1.0
  H  H859  1  0.723500  0.213800  0.491800  1.0
  H  H860  1  0.276500  0.786200  0.508200  1.0
  H  H861  1  0.892500  0.112400  0.435100  1.0
  H  H862  1  0.107500  0.887600  0.564900  1.0
  H  H863  1  0.895500  0.109500  0.382300  1.0
  H  H864  1  0.104500  0.890500  0.617700  1.0
  H  H865  1  0.833000  0.146000  0.359600  1.0
  H  H866  1  0.167000  0.854000  0.640400  1.0
  H  H867  1  0.767400  0.185600  0.389700  1.0
  H  H868  1  0.232600  0.814400  0.610300  1.0
  H  H869  1  0.601200  0.306500  0.901100  1.0
  H  H870  1  0.398800  0.693500  0.098900  1.0
  H  H871  1  0.650900  0.289500  0.853700  1.0
  H  H872  1  0.349100  0.710500  0.146300  1.0
  H  H873  1  0.720800  0.290200  0.845100  1.0
  H  H874  1  0.279200  0.709800  0.154900  1.0
  H  H875  1  0.741000  0.307800  0.883900  1.0
  H  H876  1  0.259000  0.692200  0.116100  1.0
  H  H877  1  0.549600  0.334100  0.947900  1.0
  H  H878  1  0.450400  0.665900  0.052100  1.0
  H  H879  1  0.528200  0.351400  0.003700  1.0
  H  H880  1  0.471800  0.648600  0.996300  1.0
  H  H881  1  0.572400  0.363200  0.039300  1.0
  H  H882  1  0.427600  0.636800  0.960700  1.0
  H  H883  1  0.619900  0.362200  0.022400  1.0
  H  H884  1  0.380100  0.637800  0.977600  1.0
  H  H885  1  0.681400  0.054800  0.064700  1.0
  H  H886  1  0.318600  0.945200  0.935300  1.0
  H  H887  1  0.636200  0.022000  0.064400  1.0
  H  H888  1  0.363800  0.978000  0.935600  1.0
  H  H889  1  0.563300  0.045000  0.091500  1.0
  H  H890  1  0.436700  0.955000  0.908500  1.0
  H  H891  1  0.535500  0.100900  0.118700  1.0
  H  H892  1  0.464500  0.899100  0.881300  1.0
  H  H893  1  0.725900  0.086000  0.068000  1.0
  H  H894  1  0.274100  0.914000  0.932000  1.0
  H  H895  1  0.743900  0.138200  0.083700  1.0
  H  H896  1  0.256100  0.861800  0.916300  1.0
  H  H897  1  0.694100  0.198200  0.121300  1.0
  H  H898  1  0.305900  0.801800  0.878700  1.0
  H  H899  1  0.644400  0.202900  0.135000  1.0
  H  H900  1  0.355600  0.797100  0.865000  1.0
  H  H901  1  0.623200  0.271800  0.021600  1.0
  H  H902  1  0.376800  0.728200  0.978400  1.0
  H  H903  1  0.650700  0.210300  0.056000  1.0
  H  H904  1  0.349300  0.789700  0.944000  1.0
  H  H905  1  0.608800  0.372400  0.073000  1.0
  H  H906  1  0.391200  0.627600  0.927000  1.0
  H  H907  1  0.622300  0.373500  0.121700  1.0
  H  H908  1  0.377700  0.626500  0.878300  1.0
  H  H909  1  0.649800  0.312100  0.156200  1.0
  H  H910  1  0.350200  0.687900  0.843800  1.0
  H  H911  1  0.663800  0.249400  0.142000  1.0
  H  H912  1  0.336200  0.750600  0.858000  1.0
  H  H913  1  0.246400  0.283100  0.213700  1.0
  H  H914  1  0.753600  0.716900  0.786300  1.0
  H  H915  1  0.186600  0.345900  0.209500  1.0
  H  H916  1  0.813400  0.654100  0.790500  1.0
  H  H917  1  0.182000  0.400600  0.230400  1.0
  H  H918  1  0.818000  0.599400  0.769600  1.0
  H  H919  1  0.237400  0.392500  0.255500  1.0
  H  H920  1  0.762600  0.607500  0.744500  1.0
  H  H921  1  0.310200  0.218900  0.219800  1.0
  H  H922  1  0.689800  0.781100  0.780200  1.0
  H  H923  1  0.378300  0.169500  0.241800  1.0
  H  H924  1  0.621700  0.830500  0.758200  1.0
  H  H925  1  0.420700  0.175700  0.280600  1.0
  H  H926  1  0.579300  0.824300  0.719400  1.0
  H  H927  1  0.402800  0.218700  0.292900  1.0
  H  H928  1  0.597200  0.781300  0.707100  1.0
  H  H929  1  0.507500  0.310600  0.054000  1.0
  H  H930  1  0.492500  0.689400  0.946000  1.0
  H  H931  1  0.507200  0.285600  0.010500  1.0
  H  H932  1  0.492800  0.714400  0.989500  1.0
  H  H933  1  0.532800  0.214800  0.011400  1.0
  H  H934  1  0.467200  0.785200  0.988600  1.0
  H  H935  1  0.558700  0.168900  0.055900  1.0
  H  H936  1  0.441300  0.831100  0.944100  1.0
  H  H937  1  0.513800  0.332000  0.099200  1.0
  H  H938  1  0.486200  0.668000  0.900800  1.0
  H  H939  1  0.529500  0.324400  0.153700  1.0
  H  H940  1  0.470500  0.675600  0.846300  1.0
  H  H941  1  0.561500  0.260600  0.196200  1.0
  H  H942  1  0.438500  0.739400  0.803800  1.0
  H  H943  1  0.582400  0.216300  0.185600  1.0
  H  H944  1  0.417600  0.783700  0.814400  1.0
  H  H945  1  0.417700  0.241200  0.212100  1.0
  H  H946  1  0.582300  0.758800  0.787900  1.0
  H  H947  1  0.476500  0.254800  0.177000  1.0
  H  H948  1  0.523500  0.745200  0.823000  1.0
  H  H949  1  0.465400  0.181700  0.306600  1.0
  H  H950  1  0.534600  0.818300  0.693400  1.0
  H  H951  1  0.530100  0.164300  0.324300  1.0
  H  H952  1  0.469900  0.835700  0.675700  1.0
  H  H953  1  0.588900  0.177900  0.289200  1.0
  H  H954  1  0.411100  0.822100  0.710800  1.0
  H  H955  1  0.583100  0.208700  0.236500  1.0
  H  H956  1  0.416900  0.791300  0.763500  1.0
  H  H957  1  0.695000  0.869100  0.120200  1.0
  H  H958  1  0.305000  0.130900  0.879800  1.0
  H  H959  1  0.696100  0.804700  0.147300  1.0
  H  H960  1  0.303900  0.195300  0.852700  1.0
  H  H961  1  0.722200  0.777200  0.195100  1.0
  H  H962  1  0.277800  0.222800  0.804900  1.0
  H  H963  1  0.747100  0.814100  0.215700  1.0
  H  H964  1  0.252900  0.185900  0.784300  1.0
  H  H965  1  0.706200  0.926800  0.089400  1.0
  H  H966  1  0.293800  0.073200  0.910600  1.0
  H  H967  1  0.730800  0.986400  0.076200  1.0
  H  H968  1  0.269200  0.013600  0.923800  1.0
  H  H969  1  0.776200  0.007700  0.106900  1.0
  H  H970  1  0.223800  0.992300  0.893100  1.0
  H  H971  1  0.787900  0.978600  0.139700  1.0
  H  H972  1  0.212100  0.021400  0.860300  1.0
  H  H973  1  0.448200  0.129100  0.212000  1.0
  H  H974  1  0.551800  0.870900  0.788000  1.0
  H  H975  1  0.393800  0.155700  0.181300  1.0
  H  H976  1  0.606200  0.844300  0.818700  1.0
  H  H977  1  0.405500  0.191600  0.129900  1.0
  H  H978  1  0.594500  0.808400  0.870100  1.0
  H  H979  1  0.471600  0.200900  0.109100  1.0
  H  H980  1  0.528400  0.799100  0.890900  1.0
  H  H981  1  0.504600  0.106400  0.243200  1.0
  H  H982  1  0.495400  0.893600  0.756800  1.0
  H  H983  1  0.578800  0.094300  0.252800  1.0
  H  H984  1  0.421200  0.905700  0.747200  1.0
  H  H985  1  0.643300  0.115400  0.218000  1.0
  H  H986  1  0.356700  0.884600  0.782000  1.0
  H  H987  1  0.635100  0.145700  0.185400  1.0
  H  H988  1  0.364900  0.854300  0.814600  1.0
  H  H989  1  0.677000  0.010300  0.150400  1.0
  H  H990  1  0.323000  0.989700  0.849600  1.0
  H  H991  1  0.625400  0.061800  0.179700  1.0
  H  H992  1  0.374600  0.938200  0.820300  1.0
  H  H993  1  0.805100  0.029900  0.131100  1.0
  H  H994  1  0.194900  0.970100  0.868900  1.0
  H  H995  1  0.826100  0.076300  0.143600  1.0
  H  H996  1  0.173900  0.923700  0.856400  1.0
  H  H997  1  0.774600  0.127800  0.173000  1.0
  H  H998  1  0.225400  0.872200  0.827000  1.0
  H  H999  1  0.702000  0.132800  0.189800  1.0
  H  H1000  1  0.298000  0.867200  0.810200  1.0
  H  H1001  1  0.190300  0.096100  0.949700  1.0
  H  H1002  1  0.809700  0.903900  0.050300  1.0
  H  H1003  1  0.211100  0.140300  0.905900  1.0
  H  H1004  1  0.788900  0.859700  0.094100  1.0
  H  H1005  1  0.158400  0.203200  0.888000  1.0
  H  H1006  1  0.841600  0.796800  0.112000  1.0
  H  H1007  1  0.085000  0.221900  0.913800  1.0
  H  H1008  1  0.915000  0.778100  0.086200  1.0
  H  H1009  1  0.161000  0.049900  0.990900  1.0
  H  H1010  1  0.839000  0.950100  0.009100  1.0
  H  H1011  1  0.105200  0.032000  0.036500  1.0
  H  H1012  1  0.894800  0.968000  0.963500  1.0
  H  H1013  1  0.022100  0.070700  0.057400  1.0
  H  H1014  1  0.977900  0.929300  0.942600  1.0
  H  H1015  1  0.996900  0.112900  0.036600  1.0
  H  H1016  1  0.003100  0.887100  0.963400  1.0
  H  H1017  1  0.173900  0.192700  0.151000  1.0
  H  H1018  1  0.826100  0.807300  0.849000  1.0
  H  H1019  1  0.241500  0.150500  0.165800  1.0
  H  H1020  1  0.758500  0.849500  0.834200  1.0
  H  H1021  1  0.254900  0.082100  0.189700  1.0
  H  H1022  1  0.745100  0.917900  0.810300  1.0
  H  H1023  1  0.200700  0.056000  0.198700  1.0
  H  H1024  1  0.799300  0.944000  0.801300  1.0
  H  H1025  1  0.107000  0.232400  0.137000  1.0
  H  H1026  1  0.893000  0.767600  0.863000  1.0
  H  H1027  1  0.029200  0.250100  0.132000  1.0
  H  H1028  1  0.970800  0.749900  0.868000  1.0
  H  H1029  1  0.977300  0.205500  0.151300  1.0
  H  H1030  1  0.022700  0.794500  0.848700  1.0
  H  H1031  1  0.998000  0.161100  0.171600  1.0
  H  H1032  1  0.002000  0.838900  0.828400  1.0
  H  H1033  1  0.076200  0.125700  0.058100  1.0
  H  H1034  1  0.923800  0.874300  0.941900  1.0
  H  H1035  1  0.069800  0.157400  0.099900  1.0
  H  H1036  1  0.930200  0.842600  0.900100  1.0
  H  H1037  1  0.948000  0.106100  0.078200  1.0
  H  H1038  1  0.052000  0.893900  0.921800  1.0
  H  H1039  1  0.884700  0.120200  0.117900  1.0
  H  H1040  1  0.115300  0.879800  0.882100  1.0
  H  H1041  1  0.878200  0.151900  0.159800  1.0
  H  H1042  1  0.121800  0.848100  0.840200  1.0
  H  H1043  1  0.935100  0.169500  0.161900  1.0
  H  H1044  1  0.064900  0.830500  0.838100  1.0
  H  H1045  1  0.186400  0.788200  0.282800  1.0
  H  H1046  1  0.813600  0.211800  0.717200  1.0
  H  H1047  1  0.190600  0.727100  0.271800  1.0
  H  H1048  1  0.809400  0.272900  0.728200  1.0
  H  H1049  1  0.126500  0.719100  0.272500  1.0
  H  H1050  1  0.873500  0.280900  0.727500  1.0
  H  H1051  1  0.058200  0.772300  0.284200  1.0
  H  H1052  1  0.941800  0.227700  0.715800  1.0
  H  H1053  1  0.176300  0.847000  0.302400  1.0
  H  H1054  1  0.823700  0.153000  0.697600  1.0
  H  H1055  1  0.134900  0.916500  0.320700  1.0
  H  H1056  1  0.865100  0.083500  0.679300  1.0
  H  H1057  1  0.048300  0.961500  0.335500  1.0
  H  H1058  1  0.951700  0.038500  0.664500  1.0
  H  H1059  1  0.016700  0.940500  0.334000  1.0
  H  H1060  1  0.983300  0.059500  0.666000  1.0
  H  H1061  1  0.108800  0.016500  0.092000  1.0
  H  H1062  1  0.891200  0.983500  0.908000  1.0
  H  H1063  1  0.177600  0.013400  0.062300  1.0
  H  H1064  1  0.822400  0.986600  0.937700  1.0
  H  H1065  1  0.216900  0.041200  0.078500  1.0
  H  H1066  1  0.783100  0.958800  0.921500  1.0
  H  H1067  1  0.187500  0.072000  0.124400  1.0
  H  H1068  1  0.812500  0.928000  0.875600  1.0
  H  H1069  1  0.039700  0.022800  0.120900  1.0
  H  H1070  1  0.960300  0.977200  0.879100  1.0
  H  H1071  1  0.974500  0.040900  0.166500  1.0
  H  H1072  1  0.025500  0.959100  0.833500  1.0
  H  H1073  1  0.955500  0.081300  0.214400  1.0
  H  H1074  1  0.044500  0.918700  0.785600  1.0
  H  H1075  1  0.990600  0.097700  0.216500  1.0
  H  H1076  1  0.009400  0.902300  0.783500  1.0
  H  H1077  1  0.075100  0.948800  0.258300  1.0
  H  H1078  1  0.924900  0.051200  0.741700  1.0
  H  H1079  1  0.052500  0.999400  0.214900  1.0
  H  H1080  1  0.947500  0.000600  0.785100  1.0
  H  H1081  1  0.977600  0.001400  0.345900  1.0
  H  H1082  1  0.022400  0.998600  0.654100  1.0
  H  H1083  1  0.916500  0.062300  0.354300  1.0
  H  H1084  1  0.083500  0.937700  0.645700  1.0
  H  H1085  1  0.893900  0.112900  0.311000  1.0
  H  H1086  1  0.106100  0.887100  0.689000  1.0
  H  H1087  1  0.932300  0.102600  0.259200  1.0
  H  H1088  1  0.067700  0.897400  0.740800  1.0
  H  H1089  1  0.268800  0.188600  0.272800  1.0
  H  H1090  1  0.731200  0.811400  0.727200  1.0
  H  H1091  1  0.286700  0.185400  0.320900  1.0
  H  H1092  1  0.713300  0.814600  0.679100  1.0
  H  H1093  1  0.232300  0.218000  0.361500  1.0
  H  H1094  1  0.767700  0.782000  0.638500  1.0
  H  H1095  1  0.159900  0.254000  0.354000  1.0
  H  H1096  1  0.840100  0.746000  0.646000  1.0
  H  H1097  1  0.247200  0.196800  0.224900  1.0
  H  H1098  1  0.752800  0.803200  0.775100  1.0
  H  H1099  1  0.196400  0.222800  0.185500  1.0
  H  H1100  1  0.803600  0.777200  0.814500  1.0
  H  H1101  1  0.111000  0.274200  0.189600  1.0
  H  H1102  1  0.889000  0.725800  0.810400  1.0
  H  H1103  1  0.087000  0.291400  0.222500  1.0
  H  H1104  1  0.913000  0.708600  0.777500  1.0
  H  H1105  1  0.141400  0.981300  0.285800  1.0
  H  H1106  1  0.858600  0.018700  0.714200  1.0
  H  H1107  1  0.198800  0.927500  0.261600  1.0
  H  H1108  1  0.801200  0.072500  0.738400  1.0
  H  H1109  1  0.217300  0.933700  0.206000  1.0
  H  H1110  1  0.782700  0.066300  0.794000  1.0
  H  H1111  1  0.178400  0.993800  0.174600  1.0
  H  H1112  1  0.821600  0.006200  0.825400  1.0
  H  H1113  1  0.075500  0.038500  0.307500  1.0
  H  H1114  1  0.924500  0.961500  0.692500  1.0
  H  H1115  1  0.014800  0.109600  0.306100  1.0
  H  H1116  1  0.985200  0.890400  0.693900  1.0
  H  H1117  1  0.984800  0.168300  0.258800  1.0
  H  H1118  1  0.015200  0.831700  0.741200  1.0
  H  H1119  1  0.004200  0.157000  0.223700  1.0
  H  H1120  1  0.995800  0.843000  0.776300  1.0
  H  H1121  1  0.129800  0.187400  0.239200  1.0
  H  H1122  1  0.870200  0.812600  0.760800  1.0
  H  H1123  1  0.093200  0.142700  0.251100  1.0
  H  H1124  1  0.906800  0.857300  0.748900  1.0
  H  H1125  1  0.033500  0.311200  0.197700  1.0
  H  H1126  1  0.966500  0.688800  0.802300  1.0
  H  H1127  1  0.962800  0.335200  0.187500  1.0
  H  H1128  1  0.037200  0.664800  0.812500  1.0
  H  H1129  1  0.926300  0.290600  0.199300  1.0
  H  H1130  1  0.073700  0.709400  0.800700  1.0
  H  H1131  1  0.960400  0.221900  0.221500  1.0
  H  H1132  1  0.039600  0.778100  0.778500  1.0
  H  H1133  1  0.023000  0.486100  0.098300  1.0
  H  H1134  1  0.977000  0.513900  0.901700  1.0
  H  H1135  1  0.064200  0.469200  0.070700  1.0
  H  H1136  1  0.935800  0.530800  0.929300  1.0
  H  H1137  1  0.056800  0.439300  0.103300  1.0
  H  H1138  1  0.943200  0.560700  0.896700  1.0
  H  H1139  1  0.095400  0.315800  0.093100  1.0
  H  H1140  1  0.904600  0.684200  0.906900  1.0
  H  H1141  1  0.078100  0.331000  0.127000  1.0
  H  H1142  1  0.921900  0.669000  0.873000  1.0
  H  H1143  1  0.069500  0.363700  0.095200  1.0
  H  H1144  1  0.930500  0.636300  0.904800  1.0
  H  H1145  1  0.230000  0.309400  0.110700  1.0
  H  H1146  1  0.770000  0.690600  0.889300  1.0
  H  H1147  1  0.237700  0.282100  0.144800  1.0
  H  H1148  1  0.762300  0.717900  0.855200  1.0
  H  H1149  1  0.198700  0.326600  0.142500  1.0
  H  H1150  1  0.801300  0.673400  0.857500  1.0
  H  H1151  1  0.062700  0.386700  0.803800  1.0
  H  H1152  1  0.937300  0.613300  0.196200  1.0
  H  H1153  1  0.043700  0.430000  0.815900  1.0
  H  H1154  1  0.956300  0.570000  0.184100  1.0
  H  H1155  1  0.012900  0.417300  0.803100  1.0
  H  H1156  1  0.987100  0.582700  0.196900  1.0
  H  H1157  1  0.979500  0.405800  0.143100  1.0
  H  H1158  1  0.020500  0.594200  0.856900  1.0
  H  H1159  1  0.007700  0.414600  0.161600  1.0
  H  H1160  1  0.992300  0.585400  0.838400  1.0
  H  H1161  1  0.968900  0.451900  0.146300  1.0
  H  H1162  1  0.031100  0.548100  0.853700  1.0
  H  H1163  1  0.440900  0.118700  0.405000  1.0
  H  H1164  1  0.559100  0.881300  0.595000  1.0
  H  H1165  1  0.485000  0.098200  0.419000  1.0
  H  H1166  1  0.515000  0.901800  0.581000  1.0
  H  H1167  1  0.487200  0.099700  0.382100  1.0
  H  H1168  1  0.512800  0.900300  0.617900  1.0
  H  H1169  1  0.932900  0.030000  0.445100  1.0
  H  H1170  1  0.067100  0.970000  0.554900  1.0
  H  H1171  1  0.963100  0.989800  0.428900  1.0
  H  H1172  1  0.036900  0.010200  0.571100  1.0
  H  H1173  1  0.928000  0.987200  0.461000  1.0
  H  H1174  1  0.072000  0.012800  0.539000  1.0
  H  H1175  1  0.596300  0.415500  0.481900  1.0
  H  H1176  1  0.403700  0.584500  0.518100  1.0
  H  H1177  1  0.589100  0.446500  0.449200  1.0
  H  H1178  1  0.410900  0.553500  0.550800  1.0
  H  H1179  1  0.619500  0.447700  0.470100  1.0
  H  H1180  1  0.380500  0.552300  0.529900  1.0
  H  H1181  1  0.494100  0.031200  0.357300  1.0
  H  H1182  1  0.505900  0.968800  0.642700  1.0
  H  H1183  1  0.491200  0.028600  0.322500  1.0
  H  H1184  1  0.508800  0.971400  0.677500  1.0
  H  H1185  1  0.465800  0.071300  0.336000  1.0
  H  H1186  1  0.534200  0.928700  0.664000  1.0
  H  H1187  1  0.159000  0.123300  0.017900  1.0
  H  H1188  1  0.841000  0.876700  0.982100  1.0
  H  H1189  1  0.206600  0.102500  0.026800  1.0
  H  H1190  1  0.793400  0.897500  0.973200  1.0
  H  H1191  1  0.189800  0.148800  0.008500  1.0
  H  H1192  1  0.810200  0.851200  0.991500  1.0
  H  H1193  1  0.142300  0.452400  0.112000  1.0
  H  H1194  1  0.857700  0.547600  0.888000  1.0
  H  H1195  1  0.165800  0.455400  0.137200  1.0
  H  H1196  1  0.834200  0.544600  0.862800  1.0
  H  H1197  1  0.154500  0.491400  0.107500  1.0
  H  H1198  1  0.845500  0.508600  0.892500  1.0
  C  C1199  1  0.779560  0.467580  0.044730  1.0
  C  C1200  1  0.220440  0.532420  0.955270  1.0
  C  C1201  1  0.736100  0.473700  0.058250  1.0
  C  C1202  1  0.263900  0.526300  0.941750  1.0
  C  C1203  1  0.702850  0.511200  0.050360  1.0
  C  C1204  1  0.297150  0.488800  0.949640  1.0
  C  C1205  1  0.713090  0.542470  0.028960  1.0
  C  C1206  1  0.286910  0.457530  0.971040  1.0
  C  C1207  1  0.756600  0.536340  0.015450  1.0
  C  C1208  1  0.243400  0.463660  0.984550  1.0
  C  C1209  1  0.813360  0.433280  0.053480  1.0
  C  C1210  1  0.186640  0.566720  0.946520  1.0
  C  C1211  1  0.814700  0.397000  0.075510  1.0
  C  C1212  1  0.185300  0.603000  0.924490  1.0
  C  C1213  1  0.859200  0.372000  0.077220  1.0
  C  C1214  1  0.140800  0.628000  0.922780  1.0
  C  C1215  1  0.930100  0.381500  0.049300  1.0
  C  C1216  1  0.069900  0.618500  0.950700  1.0
  C  C1217  1  0.969930  0.198100  0.928570  1.0
  C  C1218  1  0.030070  0.801900  0.071430  1.0
  C  C1219  1  0.950360  0.186990  0.910820  1.0
  C  C1220  1  0.049640  0.813010  0.089180  1.0
  C  C1221  1  0.952500  0.147000  0.916390  1.0
  C  C1222  1  0.047500  0.853000  0.083610  1.0
  C  C1223  1  0.974300  0.118050  0.939720  1.0
  C  C1224  1  0.025700  0.881950  0.060280  1.0
  C  C1225  1  0.993860  0.129160  0.957470  1.0
  C  C1226  1  0.006140  0.870840  0.042530  1.0
  C  C1227  1  0.971500  0.235160  0.923130  1.0
  C  C1228  1  0.028500  0.764840  0.076870  1.0
  C  C1229  1  0.954300  0.270950  0.901020  1.0
  C  C1230  1  0.045700  0.729050  0.098980  1.0
  C  C1231  1  0.967800  0.301160  0.904220  1.0
  C  C1232  1  0.032200  0.698840  0.095780  1.0
  C  C1233  1  0.016300  0.300700  0.938800  1.0
  C  C1234  1  0.983700  0.699300  0.061200  1.0
  C  C1235  1  0.953060  0.358460  0.021370  1.0
  C  C1236  1  0.046940  0.641540  0.978630  1.0
  C  C1237  1  0.929440  0.348570  0.006120  1.0
  C  C1238  1  0.070560  0.651430  0.993880  1.0
  C  C1239  1  0.950280  0.329640  0.979220  1.0
  C  C1240  1  0.049720  0.670360  0.020780  1.0
  C  C1241  1  0.994730  0.320590  0.967570  1.0
  C  C1242  1  0.005270  0.679410  0.032430  1.0
  C  C1243  1  0.018340  0.330480  0.982820  1.0
  C  C1244  1  0.981660  0.669520  0.017180  1.0
  C  C1245  1  0.997500  0.349420  0.009720  1.0
  C  C1246  1  0.002500  0.650580  0.990280  1.0
  C  C1247  1  0.021110  0.359310  0.024970  1.0
  C  C1248  1  0.978890  0.640690  0.975030  1.0
  C  C1249  1  0.065560  0.350260  0.013320  1.0
  C  C1250  1  0.934440  0.649740  0.986680  1.0
  C  C1251  1  0.086390  0.331330  0.986420  1.0
  C  C1252  1  0.913610  0.668670  0.013580  1.0
  C  C1253  1  0.062780  0.321440  0.971170  1.0
  C  C1254  1  0.937220  0.678560  0.028830  1.0
  C  C1255  1  0.006710  0.235630  0.037090  1.0
  C  C1256  1  0.993290  0.764370  0.962910  1.0
  C  C1257  1  0.015600  0.252780  0.057720  1.0
  C  C1258  1  0.984400  0.747220  0.942280  1.0
  C  C1259  1  0.056400  0.254630  0.052510  1.0
  C  C1260  1  0.943600  0.745370  0.947490  1.0
  C  C1261  1  0.088400  0.239300  0.026680  1.0
  C  C1262  1  0.911600  0.760700  0.973320  1.0
  C  C1263  1  0.079600  0.222200  0.006060  1.0
  C  C1264  1  0.920400  0.777800  0.993940  1.0
  C  C1265  1  0.967900  0.231200  0.041630  1.0
  C  C1266  1  0.032100  0.768800  0.958370  1.0
  C  C1267  1  0.929900  0.242400  0.065920  1.0
  C  C1268  1  0.070100  0.757600  0.934080  1.0
  C  C1269  1  0.901310  0.225600  0.062530  1.0
  C  C1270  1  0.098690  0.774400  0.937470  1.0
  C  C1271  1  0.906600  0.182900  0.022900  1.0
  C  C1272  1  0.093400  0.817100  0.977100  1.0
  C  C1273  1  0.712970  0.411410  0.927410  1.0
  C  C1274  1  0.287030  0.588590  0.072590  1.0
  C  C1275  1  0.703500  0.453200  0.917650  1.0
  C  C1276  1  0.296500  0.546800  0.082350  1.0
  C  C1277  1  0.661200  0.481560  0.926090  1.0
  C  C1278  1  0.338800  0.518440  0.073910  1.0
  C  C1279  1  0.628400  0.468120  0.944310  1.0
  C  C1280  1  0.371600  0.531880  0.055690  1.0
  C  C1281  1  0.637900  0.426300  0.954080  1.0
  C  C1282  1  0.362100  0.573700  0.045920  1.0
  C  C1283  1  0.753140  0.382770  0.917580  1.0
  C  C1284  1  0.246860  0.617230  0.082420  1.0
  C  C1285  1  0.792500  0.385690  0.898220  1.0
  C  C1286  1  0.207500  0.614310  0.101780  1.0
  C  C1287  1  0.823870  0.345200  0.895210  1.0
  C  C1288  1  0.176130  0.654800  0.104790  1.0
  C  C1289  1  0.820100  0.274500  0.915500  1.0
  C  C1290  1  0.179900  0.725500  0.084500  1.0
  C  C1291  1  0.881620  0.207820  0.995830  1.0
  C  C1292  1  0.118380  0.792180  0.004170  1.0
  C  C1293  1  0.872430  0.249650  0.986840  1.0
  C  C1294  1  0.127570  0.750350  0.013160  1.0
  C  C1295  1  0.851930  0.271380  0.961060  1.0
  C  C1296  1  0.148070  0.728620  0.038940  1.0
  C  C1297  1  0.840620  0.251270  0.944270  1.0
  C  C1298  1  0.159380  0.748730  0.055730  1.0
  C  C1299  1  0.849810  0.209440  0.953250  1.0
  C  C1300  1  0.150190  0.790560  0.046750  1.0
  C  C1301  1  0.870310  0.187720  0.979030  1.0
  C  C1302  1  0.129690  0.812280  0.020970  1.0
  C  C1303  1  0.879500  0.145890  0.988020  1.0
  C  C1304  1  0.120500  0.854110  0.011980  1.0
  C  C1305  1  0.868200  0.125780  0.971230  1.0
  C  C1306  1  0.131800  0.874220  0.028770  1.0
  C  C1307  1  0.847700  0.147500  0.945450  1.0
  C  C1308  1  0.152300  0.852500  0.054550  1.0
  C  C1309  1  0.838500  0.189330  0.936460  1.0
  C  C1310  1  0.161500  0.810670  0.063540  1.0
  C  C1311  1  0.946480  0.439340  0.954170  1.0
  C  C1312  1  0.053520  0.560660  0.045830  1.0
  C  C1313  1  0.989930  0.424370  0.938530  1.0
  C  C1314  1  0.010070  0.575630  0.061470  1.0
  C  C1315  1  0.021960  0.428020  0.949540  1.0
  C  C1316  1  0.978040  0.571980  0.050460  1.0
  C  C1317  1  0.010540  0.446630  0.976180  1.0
  C  C1318  1  0.989460  0.553370  0.023820  1.0
  C  C1319  1  0.967090  0.461600  0.991810  1.0
  C  C1320  1  0.032910  0.538400  0.008190  1.0
  C  C1321  1  0.914530  0.437930  0.943180  1.0
  C  C1322  1  0.085470  0.562070  0.056820  1.0
  C  C1323  1  0.914250  0.420590  0.918010  1.0
  C  C1324  1  0.085750  0.579410  0.081990  1.0
  C  C1325  1  0.869990  0.433400  0.915340  1.0
  C  C1326  1  0.130010  0.566600  0.084660  1.0
  C  C1327  1  0.798700  0.480600  0.944000  1.0
  C  C1328  1  0.201300  0.519400  0.056000  1.0
  C  C1329  1  0.742700  0.252900  0.009830  1.0
  C  C1330  1  0.257300  0.747100  0.990170  1.0
  C  C1331  1  0.759300  0.212300  0.024710  1.0
  C  C1332  1  0.240700  0.787700  0.975290  1.0
  C  C1333  1  0.761500  0.180920  0.011160  1.0
  C  C1334  1  0.238500  0.819080  0.988840  1.0
  C  C1335  1  0.747200  0.190060  0.982700  1.0
  C  C1336  1  0.252800  0.809940  0.017300  1.0
  C  C1337  1  0.730500  0.230600  0.967820  1.0
  C  C1338  1  0.269500  0.769400  0.032180  1.0
  C  C1339  1  0.739900  0.283000  0.022730  1.0
  C  C1340  1  0.260100  0.717000  0.977270  1.0
  C  C1341  1  0.751600  0.282700  0.051150  1.0
  C  C1342  1  0.248400  0.717300  0.948850  1.0
  C  C1343  1  0.734900  0.323900  0.056530  1.0
  C  C1344  1  0.265100  0.676100  0.943470  1.0
  C  C1345  1  0.691200  0.393200  0.024100  1.0
  C  C1346  1  0.308800  0.606800  0.975900  1.0
  C  C1347  1  0.770100  0.457190  0.966270  1.0
  C  C1348  1  0.229900  0.542810  0.033730  1.0
  C  C1349  1  0.789530  0.415060  0.975980  1.0
  C  C1350  1  0.210470  0.584940  0.024020  1.0
  C  C1351  1  0.764210  0.393760  0.995560  1.0
  C  C1352  1  0.235790  0.606240  0.004440  1.0
  C  C1353  1  0.719470  0.414570  0.005430  1.0
  C  C1354  1  0.280530  0.585430  0.994570  1.0
  C  C1355  1  0.700050  0.456700  0.995720  1.0
  C  C1356  1  0.299950  0.543300  0.004280  1.0
  C  C1357  1  0.725360  0.478000  0.976140  1.0
  C  C1358  1  0.274640  0.522000  0.023860  1.0
  C  C1359  1  0.705940  0.520130  0.966440  1.0
  C  C1360  1  0.294060  0.479870  0.033560  1.0
  C  C1361  1  0.661200  0.540950  0.976310  1.0
  C  C1362  1  0.338800  0.459050  0.023690  1.0
  C  C1363  1  0.635880  0.519600  0.995880  1.0
  C  C1364  1  0.364120  0.480400  0.004120  1.0
  C  C1365  1  0.655310  0.477500  0.005590  1.0
  C  C1366  1  0.344690  0.522500  0.994410  1.0
  C  C1367  1  0.321900  0.568500  0.218080  1.0
  C  C1368  1  0.678100  0.431500  0.781920  1.0
  C  C1369  1  0.295400  0.565100  0.201300  1.0
  C  C1370  1  0.704600  0.434900  0.798700  1.0
  C  C1371  1  0.304500  0.571900  0.168200  1.0
  C  C1372  1  0.695500  0.428100  0.831800  1.0
  C  C1373  1  0.340100  0.582200  0.151870  1.0
  C  C1374  1  0.659900  0.417800  0.848130  1.0
  C  C1375  1  0.366700  0.585600  0.168670  1.0
  C  C1376  1  0.633300  0.414400  0.831330  1.0
  C  C1377  1  0.314700  0.563200  0.250570  1.0
  C  C1378  1  0.685300  0.436800  0.749430  1.0
  C  C1379  1  0.282200  0.552100  0.274000  1.0
  C  C1380  1  0.717800  0.447900  0.726000  1.0
  C  C1381  1  0.286300  0.555000  0.304220  1.0
  C  C1382  1  0.713700  0.445000  0.695780  1.0
  C  C1383  1  0.337100  0.578500  0.319900  1.0
  C  C1384  1  0.662900  0.421500  0.680100  1.0
  C  C1385  1  0.441700  0.320400  0.419930  1.0
  C  C1386  1  0.558300  0.679600  0.580070  1.0
  C  C1387  1  0.456630  0.280000  0.415090  1.0
  C  C1388  1  0.543370  0.720000  0.584910  1.0
  C  C1389  1  0.440200  0.252760  0.437000  1.0
  C  C1390  1  0.559800  0.747240  0.563000  1.0
  C  C1391  1  0.408700  0.265900  0.463660  1.0
  C  C1392  1  0.591300  0.734100  0.536340  1.0
  C  C1393  1  0.393770  0.306300  0.468490  1.0
  C  C1394  1  0.606230  0.693700  0.531510  1.0
  C  C1395  1  0.459700  0.346300  0.400800  1.0
  C  C1396  1  0.540300  0.653700  0.599200  1.0
  C  C1397  1  0.492700  0.341800  0.372800  1.0
  C  C1398  1  0.507300  0.658200  0.627200  1.0
  C  C1399  1  0.500600  0.378600  0.362990  1.0
  C  C1400  1  0.499400  0.621400  0.637010  1.0
  C  C1401  1  0.469900  0.445900  0.384900  1.0
  C  C1402  1  0.530100  0.554100  0.615100  1.0
  C  C1403  1  0.371460  0.542970  0.336600  1.0
  C  C1404  1  0.628540  0.457030  0.663400  1.0
  C  C1405  1  0.382000  0.502400  0.334210  1.0
  C  C1406  1  0.618000  0.497600  0.665790  1.0
  C  C1407  1  0.414700  0.470800  0.349050  1.0
  C  C1408  1  0.585300  0.529200  0.650950  1.0
  C  C1409  1  0.436740  0.479770  0.366270  1.0
  C  C1410  1  0.563260  0.520230  0.633730  1.0
  C  C1411  1  0.426170  0.520340  0.368660  1.0
  C  C1412  1  0.573830  0.479660  0.631340  1.0
  C  C1413  1  0.393530  0.551930  0.353820  1.0
  C  C1414  1  0.606470  0.448070  0.646180  1.0
  C  C1415  1  0.383000  0.592500  0.356200  1.0
  C  C1416  1  0.617000  0.407500  0.643800  1.0
  C  C1417  1  0.405000  0.601500  0.373430  1.0
  C  C1418  1  0.595000  0.398500  0.626570  1.0
  C  C1419  1  0.437700  0.569900  0.388260  1.0
  C  C1420  1  0.562300  0.430100  0.611740  1.0
  C  C1421  1  0.448200  0.529300  0.385880  1.0
  C  C1422  1  0.551800  0.470700  0.614120  1.0
  C  C1423  1  0.342400  0.494900  0.428830  1.0
  C  C1424  1  0.657600  0.505100  0.571170  1.0
  C  C1425  1  0.332500  0.536900  0.423350  1.0
  C  C1426  1  0.667500  0.463100  0.576650  1.0
  C  C1427  1  0.354000  0.552390  0.435970  1.0
  C  C1428  1  0.646000  0.447610  0.564030  1.0
  C  C1429  1  0.385400  0.525800  0.454080  1.0
  C  C1430  1  0.614600  0.474200  0.545920  1.0
  C  C1431  1  0.395300  0.483800  0.459560  1.0
  C  C1432  1  0.604700  0.516200  0.540440  1.0
  C  C1433  1  0.322000  0.478430  0.417940  1.0
  C  C1434  1  0.678000  0.521570  0.582060  1.0
  C  C1435  1  0.289100  0.495400  0.399150  1.0
  C  C1436  1  0.710900  0.504600  0.600850  1.0
  C  C1437  1  0.277200  0.463400  0.397440  1.0
  C  C1438  1  0.722800  0.536600  0.602560  1.0
  C  C1439  1  0.300300  0.388500  0.422400  1.0
  C  C1440  1  0.699700  0.611500  0.577600  1.0
  C  C1441  1  0.414700  0.338750  0.229000  1.0
  C  C1442  1  0.585300  0.661250  0.771000  1.0
  C  C1443  1  0.440280  0.352400  0.202070  1.0
  C  C1444  1  0.559720  0.647600  0.797930  1.0
  C  C1445  1  0.425500  0.367700  0.173430  1.0
  C  C1446  1  0.574500  0.632300  0.826570  1.0
  C  C1447  1  0.385100  0.369300  0.171710  1.0
  C  C1448  1  0.614900  0.630700  0.828290  1.0
  C  C1449  1  0.359500  0.355600  0.198640  1.0
  C  C1450  1  0.640500  0.644400  0.801360  1.0
  C  C1451  1  0.429900  0.321100  0.256150  1.0
  C  C1452  1  0.570100  0.678900  0.743850  1.0
  C  C1453  1  0.470820  0.311200  0.264050  1.0
  C  C1454  1  0.529180  0.688800  0.735950  1.0
  C  C1455  1  0.470060  0.290200  0.295890  1.0
  C  C1456  1  0.529940  0.709800  0.704110  1.0
  C  C1457  1  0.412300  0.269400  0.336900  1.0
  C  C1458  1  0.587700  0.730600  0.663100  1.0
  C  C1459  1  0.330070  0.357170  0.400710  1.0
  C  C1460  1  0.669930  0.642830  0.599290  1.0
  C  C1461  1  0.352010  0.369940  0.371230  1.0
  C  C1462  1  0.647990  0.630060  0.628770  1.0
  C  C1463  1  0.379440  0.341670  0.350920  1.0
  C  C1464  1  0.620560  0.658330  0.649080  1.0
  C  C1465  1  0.384930  0.300620  0.360090  1.0
  C  C1466  1  0.615070  0.699380  0.639910  1.0
  C  C1467  1  0.363000  0.287840  0.389570  1.0
  C  C1468  1  0.637000  0.712160  0.610430  1.0
  C  C1469  1  0.335570  0.316110  0.409880  1.0
  C  C1470  1  0.664430  0.683890  0.590120  1.0
  C  C1471  1  0.313640  0.303330  0.439350  1.0
  C  C1472  1  0.686360  0.696670  0.560650  1.0
  C  C1473  1  0.319140  0.262280  0.448520  1.0
  C  C1474  1  0.680860  0.737720  0.551480  1.0
  C  C1475  1  0.346570  0.234010  0.428220  1.0
  C  C1476  1  0.653430  0.765990  0.571780  1.0
  C  C1477  1  0.368500  0.246790  0.398740  1.0
  C  C1478  1  0.631500  0.753210  0.601260  1.0
  C  C1479  1  0.468100  0.545800  0.276200  1.0
  C  C1480  1  0.531900  0.454200  0.723800  1.0
  C  C1481  1  0.495200  0.542300  0.295830  1.0
  C  C1482  1  0.504800  0.457700  0.704170  1.0
  C  C1483  1  0.490100  0.576800  0.306860  1.0
  C  C1484  1  0.509900  0.423200  0.693140  1.0
  C  C1485  1  0.458000  0.614800  0.298300  1.0
  C  C1486  1  0.542000  0.385200  0.701700  1.0
  C  C1487  1  0.431000  0.618300  0.278600  1.0
  C  C1488  1  0.569000  0.381700  0.721400  1.0
  C  C1489  1  0.473900  0.513900  0.262950  1.0
  C  C1490  1  0.526100  0.486100  0.737050  1.0
  C  C1491  1  0.502600  0.471900  0.267470  1.0
  C  C1492  1  0.497400  0.528100  0.732530  1.0
  C  C1493  1  0.496800  0.451700  0.246600  1.0
  C  C1494  1  0.503200  0.548300  0.753400  1.0
  C  C1495  1  0.446100  0.477700  0.206000  1.0
  C  C1496  1  0.553900  0.522300  0.794000  1.0
  C  C1497  1  0.277200  0.339000  0.342600  1.0
  C  C1498  1  0.722800  0.661000  0.657400  1.0
  C  C1499  1  0.255840  0.331930  0.373830  1.0
  C  C1500  1  0.744160  0.668070  0.626170  1.0
  C  C1501  1  0.258760  0.292400  0.388000  1.0
  C  C1502  1  0.741240  0.707600  0.612000  1.0
  C  C1503  1  0.283000  0.259900  0.370940  1.0
  C  C1504  1  0.717000  0.740100  0.629060  1.0
  C  C1505  1  0.304350  0.266970  0.339710  1.0
  C  C1506  1  0.695650  0.733030  0.660290  1.0
  C  C1507  1  0.275300  0.375960  0.326670  1.0
  C  C1508  1  0.724700  0.624040  0.673330  1.0
  C  C1509  1  0.253200  0.415300  0.336360  1.0
  C  C1510  1  0.746800  0.584700  0.663640  1.0
  C  C1511  1  0.258600  0.445060  0.309500  1.0
  C  C1512  1  0.741400  0.554940  0.690500  1.0
  C  C1513  1  0.292300  0.440200  0.251600  1.0
  C  C1514  1  0.707700  0.559800  0.748400  1.0
  C  C1515  1  0.407040  0.467410  0.218290  1.0
  C  C1516  1  0.592960  0.532590  0.781710  1.0
  C  C1517  1  0.392700  0.457310  0.250740  1.0
  C  C1518  1  0.607300  0.542690  0.749260  1.0
  C  C1519  1  0.355400  0.448260  0.261490  1.0
  C  C1520  1  0.644600  0.551740  0.738510  1.0
  C  C1521  1  0.332400  0.449300  0.239790  1.0
  C  C1522  1  0.667600  0.550700  0.760210  1.0
  C  C1523  1  0.346720  0.459400  0.207340  1.0
  C  C1524  1  0.653280  0.540600  0.792660  1.0
  C  C1525  1  0.384040  0.468460  0.196590  1.0
  C  C1526  1  0.615960  0.531540  0.803410  1.0
  C  C1527  1  0.398400  0.478600  0.164150  1.0
  C  C1528  1  0.601600  0.521400  0.835850  1.0
  C  C1529  1  0.375400  0.479600  0.142450  1.0
  C  C1530  1  0.624600  0.520400  0.857550  1.0
  C  C1531  1  0.338000  0.470500  0.153190  1.0
  C  C1532  1  0.662000  0.529500  0.846810  1.0
  C  C1533  1  0.323700  0.460400  0.185640  1.0
  C  C1534  1  0.676300  0.539600  0.814360  1.0
  C  C1535  1  0.757700  0.968300  0.414170  1.0
  C  C1536  1  0.242300  0.031700  0.585830  1.0
  C  C1537  1  0.785500  0.985200  0.417060  1.0
  C  C1538  1  0.214500  0.014800  0.582940  1.0
  C  C1539  1  0.805800  0.970900  0.443200  1.0
  C  C1540  1  0.194200  0.029100  0.556800  1.0
  C  C1541  1  0.798400  0.939600  0.466520  1.0
  C  C1542  1  0.201600  0.060400  0.533480  1.0
  C  C1543  1  0.770600  0.922700  0.463630  1.0
  C  C1544  1  0.229400  0.077300  0.536370  1.0
  C  C1545  1  0.737400  0.982200  0.389610  1.0
  C  C1546  1  0.262600  0.017800  0.610390  1.0
  C  C1547  1  0.737000  0.014000  0.363170  1.0
  C  C1548  1  0.263000  0.986000  0.636830  1.0
  C  C1549  1  0.705600  0.018300  0.346090  1.0
  C  C1550  1  0.294400  0.981700  0.653910  1.0
  C  C1551  1  0.654700  0.980100  0.354200  1.0
  C  C1552  1  0.345300  0.019900  0.645800  1.0
  C  C1553  1  0.859400  0.839900  0.196900  1.0
  C  C1554  1  0.140600  0.160100  0.803100  1.0
  C  C1555  1  0.903600  0.816690  0.187340  1.0
  C  C1556  1  0.096400  0.183310  0.812660  1.0
  C  C1557  1  0.924580  0.824600  0.156100  1.0
  C  C1558  1  0.075420  0.175400  0.843900  1.0
  C  C1559  1  0.901400  0.855600  0.134490  1.0
  C  C1560  1  0.098600  0.144400  0.865510  1.0
  C  C1561  1  0.857100  0.878820  0.144050  1.0
  C  C1562  1  0.142900  0.121180  0.855950  1.0
  C  C1563  1  0.838400  0.831200  0.226730  1.0
  C  C1564  1  0.161600  0.168800  0.773270  1.0
  C  C1565  1  0.852000  0.801400  0.253500  1.0
  C  C1566  1  0.148000  0.198600  0.746500  1.0
  C  C1567  1  0.814200  0.803500  0.277500  1.0
  C  C1568  1  0.185800  0.196500  0.722500  1.0
  C  C1569  1  0.731700  0.848200  0.277800  1.0
  C  C1570  1  0.268300  0.151800  0.722200  1.0
  C  C1571  1  0.675800  0.946750  0.333333  1.0
  C  C1572  1  0.324200  0.053250  0.666667  1.0
  C  C1573  1  0.720700  0.929390  0.322410  1.0
  C  C1574  1  0.279300  0.070610  0.677590  1.0
  C  C1575  1  0.738300  0.897590  0.304660  1.0
  C  C1576  1  0.261700  0.102410  0.695340  1.0
  C  C1577  1  0.710880  0.883150  0.297820  1.0
  C  C1578  1  0.289120  0.116850  0.702180  1.0
  C  C1579  1  0.665900  0.900500  0.308730  1.0
  C  C1580  1  0.334100  0.099500  0.691270  1.0
  C  C1581  1  0.648330  0.932310  0.326480  1.0
  C  C1582  1  0.351670  0.067690  0.673520  1.0
  C  C1583  1  0.603350  0.949660  0.337390  1.0
  C  C1584  1  0.396650  0.050340  0.662610  1.0
  C  C1585  1  0.575930  0.935200  0.330550  1.0
  C  C1586  1  0.424070  0.064800  0.669450  1.0
  C  C1587  1  0.593500  0.903400  0.312810  1.0
  C  C1588  1  0.406500  0.096600  0.687190  1.0
  C  C1589  1  0.638500  0.886060  0.301890  1.0
  C  C1590  1  0.361500  0.113940  0.698110  1.0
  C  C1591  1  0.690400  0.974500  0.236140  1.0
  C  C1592  1  0.309600  0.025500  0.763860  1.0
  C  C1593  1  0.649900  0.998400  0.252220  1.0
  C  C1594  1  0.350100  0.001600  0.747780  1.0
  C  C1595  1  0.613100  0.990600  0.254330  1.0
  C  C1596  1  0.386900  0.009400  0.745670  1.0
  C  C1597  1  0.616700  0.959000  0.240300  1.0
  C  C1598  1  0.383300  0.041000  0.759700  1.0
  C  C1599  1  0.657200  0.935100  0.224260  1.0
  C  C1600  1  0.342800  0.064900  0.775740  1.0
  C  C1601  1  0.727600  0.980400  0.230960  1.0
  C  C1602  1  0.272400  0.019600  0.769040  1.0
  C  C1603  1  0.734200  0.010600  0.241410  1.0
  C  C1604  1  0.265800  0.989400  0.758590  1.0
  C  C1605  1  0.778200  0.006900  0.228700  1.0
  C  C1606  1  0.221800  0.993100  0.771300  1.0
  C  C1607  1  0.841300  0.958900  0.193500  1.0
  C  C1608  1  0.158700  0.041100  0.806500  1.0
  C  C1609  1  0.981400  0.818300  0.366000  1.0
  C  C1610  1  0.018600  0.181700  0.634000  1.0
  C  C1611  1  0.978100  0.799200  0.397500  1.0
  C  C1612  1  0.021900  0.200800  0.602500  1.0
  C  C1613  1  0.997200  0.806300  0.418110  1.0
  C  C1614  1  0.002800  0.193700  0.581890  1.0
  C  C1615  1  0.019700  0.832400  0.407100  1.0
  C  C1616  1  0.980300  0.167600  0.592900  1.0
  C  C1617  1  0.023000  0.851500  0.375500  1.0
  C  C1618  1  0.977000  0.148500  0.624500  1.0
  C  C1619  1  0.962900  0.812900  0.344690  1.0
  C  C1620  1  0.037100  0.187100  0.655310  1.0
  C  C1621  1  0.936600  0.790800  0.347100  1.0
  C  C1622  1  0.063400  0.209200  0.652900  1.0
  C  C1623  1  0.932600  0.791500  0.315900  1.0
  C  C1624  1  0.067400  0.208500  0.684100  1.0
  C  C1625  1  0.968600  0.820600  0.259700  1.0
  C  C1626  1  0.031400  0.179400  0.740300  1.0
  C  C1627  1  0.874150  0.923950  0.210920  1.0
  C  C1628  1  0.125850  0.076050  0.789080  1.0
  C  C1629  1  0.862120  0.911400  0.243300  1.0
  C  C1630  1  0.137880  0.088600  0.756700  1.0
  C  C1631  1  0.891900  0.878000  0.259440  1.0
  C  C1632  1  0.108100  0.122000  0.740560  1.0
  C  C1633  1  0.933800  0.857300  0.243190  1.0
  C  C1634  1  0.066200  0.142700  0.756810  1.0
  C  C1635  1  0.945800  0.869880  0.210810  1.0
  C  C1636  1  0.054200  0.130120  0.789190  1.0
  C  C1637  1  0.915990  0.903200  0.194670  1.0
  C  C1638  1  0.084010  0.096800  0.805330  1.0
  C  C1639  1  0.928000  0.915800  0.162290  1.0
  C  C1640  1  0.072000  0.084200  0.837710  1.0
  C  C1641  1  0.969800  0.895000  0.146040  1.0
  C  C1642  1  0.030200  0.105000  0.853960  1.0
  C  C1643  1  0.999700  0.861700  0.162170  1.0
  C  C1644  1  0.000300  0.138300  0.837830  1.0
  C  C1645  1  0.987640  0.849100  0.194560  1.0
  C  C1646  1  0.012360  0.150900  0.805440  1.0
  C  C1647  1  0.685600  0.858500  0.392510  1.0
  C  C1648  1  0.314400  0.141500  0.607490  1.0
  C  C1649  1  0.662800  0.842100  0.382150  1.0
  C  C1650  1  0.337200  0.157900  0.617850  1.0
  C  C1651  1  0.617400  0.856800  0.390320  1.0
  C  C1652  1  0.382600  0.143200  0.609680  1.0
  C  C1653  1  0.594700  0.887900  0.408860  1.0
  C  C1654  1  0.405300  0.112100  0.591140  1.0
  C  C1655  1  0.617500  0.904280  0.419220  1.0
  C  C1656  1  0.382500  0.095720  0.580780  1.0
  C  C1657  1  0.730400  0.844400  0.387200  1.0
  C  C1658  1  0.269600  0.155600  0.612800  1.0
  C  C1659  1  0.762500  0.813900  0.369060  1.0
  C  C1660  1  0.237500  0.186100  0.630940  1.0
  C  C1661  1  0.804400  0.807900  0.373200  1.0
  C  C1662  1  0.195600  0.192100  0.626800  1.0
  C  C1663  1  0.826300  0.835100  0.411200  1.0
  C  C1664  1  0.173700  0.164900  0.588800  1.0
  C  C1665  1  0.983400  0.933100  0.239900  1.0
  C  C1666  1  0.016600  0.066900  0.760100  1.0
  C  C1667  1  0.983100  0.952300  0.208400  1.0
  C  C1668  1  0.016900  0.047700  0.791600  1.0
  C  C1669  1  0.017400  0.934900  0.184340  1.0
  C  C1670  1  0.982600  0.065100  0.815660  1.0
  C  C1671  1  0.052000  0.898400  0.191800  1.0
  C  C1672  1  0.948000  0.101600  0.808200  1.0
  C  C1673  1  0.052200  0.879200  0.223200  1.0
  C  C1674  1  0.947800  0.120800  0.776800  1.0
  C  C1675  1  0.951300  0.949800  0.264040  1.0
  C  C1676  1  0.048700  0.050200  0.735960  1.0
  C  C1677  1  0.912700  0.986300  0.265200  1.0
  C  C1678  1  0.087300  0.013700  0.734800  1.0
  C  C1679  1  0.894400  0.990600  0.297700  1.0
  C  C1680  1  0.105600  0.009400  0.702300  1.0
  C  C1681  1  0.916800  0.947300  0.350000  1.0
  C  C1682  1  0.083200  0.052700  0.650000  1.0
  C  C1683  1  0.848400  0.866400  0.394060  1.0
  C  C1684  1  0.151600  0.133600  0.605940  1.0
  C  C1685  1  0.846700  0.884700  0.362530  1.0
  C  C1686  1  0.153300  0.115300  0.637470  1.0
  C  C1687  1  0.868400  0.911000  0.347760  1.0
  C  C1688  1  0.131600  0.089000  0.652240  1.0
  C  C1689  1  0.891800  0.918960  0.364510  1.0
  C  C1690  1  0.108200  0.081040  0.635490  1.0
  C  C1691  1  0.893520  0.900600  0.396050  1.0
  C  C1692  1  0.106480  0.099400  0.603950  1.0
  C  C1693  1  0.871800  0.874290  0.410820  1.0
  C  C1694  1  0.128200  0.125710  0.589180  1.0
  C  C1695  1  0.873500  0.855900  0.442350  1.0
  C  C1696  1  0.126500  0.144100  0.557650  1.0
  C  C1697  1  0.896900  0.863900  0.459110  1.0
  C  C1698  1  0.103100  0.136100  0.540890  1.0
  C  C1699  1  0.918700  0.890200  0.444340  1.0
  C  C1700  1  0.081300  0.109800  0.555660  1.0
  C  C1701  1  0.916900  0.908500  0.412800  1.0
  C  C1702  1  0.083100  0.091500  0.587200  1.0
  C  C1703  1  0.846400  0.466000  0.305100  1.0
  C  C1704  1  0.153600  0.534000  0.694900  1.0
  C  C1705  1  0.864700  0.461200  0.273430  1.0
  C  C1706  1  0.135300  0.538800  0.726570  1.0
  C  C1707  1  0.879100  0.490500  0.252670  1.0
  C  C1708  1  0.120900  0.509500  0.747330  1.0
  C  C1709  1  0.875200  0.524600  0.263570  1.0
  C  C1710  1  0.124800  0.475400  0.736430  1.0
  C  C1711  1  0.857000  0.529400  0.295200  1.0
  C  C1712  1  0.143000  0.470600  0.704800  1.0
  C  C1713  1  0.829400  0.440100  0.324200  1.0
  C  C1714  1  0.170600  0.559900  0.675800  1.0
  C  C1715  1  0.826400  0.404100  0.320340  1.0
  C  C1716  1  0.173600  0.595900  0.679660  1.0
  C  C1717  1  0.802500  0.390000  0.349200  1.0
  C  C1718  1  0.197500  0.610000  0.650800  1.0
  C  C1719  1  0.773300  0.412600  0.403500  1.0
  C  C1720  1  0.226700  0.587400  0.596500  1.0
  C  C1721  1  0.989000  0.195600  0.486210  1.0
  C  C1722  1  0.011000  0.804400  0.513790  1.0
  C  C1723  1  0.034000  0.173000  0.480990  1.0
  C  C1724  1  0.966000  0.827000  0.519010  1.0
  C  C1725  1  0.050200  0.130400  0.485300  1.0
  C  C1726  1  0.949800  0.869600  0.514700  1.0
  C  C1727  1  0.021500  0.110200  0.494800  1.0
  C  C1728  1  0.978500  0.889800  0.505200  1.0
  C  C1729  1  0.976500  0.132800  0.499970  1.0
  C  C1730  1  0.023500  0.867200  0.500030  1.0
  C  C1731  1  0.972100  0.234900  0.483490  1.0
  C  C1732  1  0.027900  0.765100  0.516510  1.0
  C  C1733  1  0.993700  0.262600  0.475900  1.0
  C  C1734  1  0.006300  0.737400  0.524100  1.0
  C  C1735  1  0.961200  0.302700  0.478350  1.0
  C  C1736  1  0.038800  0.697300  0.521650  1.0
  C  C1737  1  0.877300  0.326500  0.496000  1.0
  C  C1738  1  0.122700  0.673500  0.504000  1.0
  C  C1739  1  0.797400  0.389680  0.427070  1.0
  C  C1740  1  0.202600  0.610320  0.572930  1.0
  C  C1741  1  0.842000  0.368500  0.417110  1.0
  C  C1742  1  0.158000  0.631500  0.582890  1.0
  C  C1743  1  0.869030  0.347990  0.439410  1.0
  C  C1744  1  0.130970  0.652010  0.560590  1.0
  C  C1745  1  0.851390  0.348740  0.471670  1.0
  C  C1746  1  0.148610  0.651260  0.528330  1.0
  C  C1747  1  0.806760  0.369950  0.481630  1.0
  C  C1748  1  0.193240  0.630050  0.518370  1.0
  C  C1749  1  0.779760  0.390420  0.459330  1.0
  C  C1750  1  0.220240  0.609580  0.540670  1.0
  C  C1751  1  0.735130  0.411600  0.469290  1.0
  C  C1752  1  0.264870  0.588400  0.530710  1.0
  C  C1753  1  0.717500  0.412400  0.501500  1.0
  C  C1754  1  0.282500  0.587600  0.498500  1.0
  C  C1755  1  0.744500  0.391900  0.523840  1.0
  C  C1756  1  0.255500  0.608100  0.476160  1.0
  C  C1757  1  0.789100  0.370700  0.513890  1.0
  C  C1758  1  0.210900  0.629300  0.486110  1.0
  C  C1759  1  0.804000  0.269600  0.469370  1.0
  C  C1760  1  0.196000  0.730400  0.530630  1.0
  C  C1761  1  0.761100  0.294700  0.466000  1.0
  C  C1762  1  0.238900  0.705300  0.534000  1.0
  C  C1763  1  0.730300  0.311300  0.491800  1.0
  C  C1764  1  0.269700  0.688700  0.508200  1.0
  C  C1765  1  0.742400  0.302800  0.521100  1.0
  C  C1766  1  0.257600  0.697200  0.478900  1.0
  C  C1767  1  0.785300  0.277700  0.524510  1.0
  C  C1768  1  0.214700  0.722300  0.475490  1.0
  C  C1769  1  0.834000  0.252100  0.444100  1.0
  C  C1770  1  0.166000  0.747900  0.555900  1.0
  C  C1771  1  0.832900  0.254900  0.411800  1.0
  C  C1772  1  0.167100  0.745100  0.588200  1.0
  C  C1773  1  0.873400  0.226400  0.397790  1.0
  C  C1774  1  0.126600  0.773600  0.602210  1.0
  C  C1775  1  0.943300  0.173700  0.420600  1.0
  C  C1776  1  0.056700  0.826300  0.579400  1.0
  C  C1777  1  0.073500  0.360800  0.315110  1.0
  C  C1778  1  0.926500  0.639200  0.684890  1.0
  C  C1779  1  0.069400  0.401300  0.310790  1.0
  C  C1780  1  0.930600  0.598700  0.689210  1.0
  C  C1781  1  0.080100  0.421390  0.280400  1.0
  C  C1782  1  0.919900  0.578610  0.719600  1.0
  C  C1783  1  0.094800  0.401000  0.254360  1.0
  C  C1784  1  0.905200  0.599000  0.745640  1.0
  C  C1785  1  0.098900  0.360500  0.258680  1.0
  C  C1786  1  0.901100  0.639500  0.741320  1.0
  C  C1787  1  0.064900  0.339700  0.344510  1.0
  C  C1788  1  0.935100  0.660300  0.655490  1.0
  C  C1789  1  0.050300  0.350200  0.375600  1.0
  C  C1790  1  0.949700  0.649800  0.624400  1.0
  C  C1791  1  0.052100  0.313900  0.397780  1.0
  C  C1792  1  0.947900  0.686100  0.602220  1.0
  C  C1793  1  0.079200  0.237800  0.391000  1.0
  C  C1794  1  0.920800  0.762200  0.609000  1.0
  C  C1795  1  0.977600  0.193900  0.409200  1.0
  C  C1796  1  0.022400  0.806100  0.590800  1.0
  C  C1797  1  0.966940  0.236100  0.402300  1.0
  C  C1798  1  0.033060  0.763900  0.597700  1.0
  C  C1799  1  0.999400  0.251430  0.396340  1.0
  C  C1800  1  0.000600  0.748570  0.603660  1.0
  C  C1801  1  0.042600  0.224600  0.397290  1.0
  C  C1802  1  0.957400  0.775400  0.602710  1.0
  C  C1803  1  0.053230  0.182410  0.404190  1.0
  C  C1804  1  0.946770  0.817590  0.595810  1.0
  C  C1805  1  0.020800  0.167090  0.410150  1.0
  C  C1806  1  0.979200  0.832910  0.589850  1.0
  C  C1807  1  0.031400  0.124930  0.417050  1.0
  C  C1808  1  0.968600  0.875070  0.582950  1.0
  C  C1809  1  0.074600  0.098070  0.417990  1.0
  C  C1810  1  0.925400  0.901930  0.582010  1.0
  C  C1811  1  0.107000  0.113400  0.412030  1.0
  C  C1812  1  0.893000  0.886600  0.587970  1.0
  C  C1813  1  0.096380  0.155600  0.405130  1.0
  C  C1814  1  0.903620  0.844400  0.594870  1.0
  C  C1815  1  0.818950  0.472470  0.440590  1.0
  C  C1816  1  0.181050  0.527530  0.559410  1.0
  C  C1817  1  0.807300  0.464800  0.473570  1.0
  C  C1818  1  0.192700  0.535200  0.526430  1.0
  C  C1819  1  0.763400  0.479700  0.488320  1.0
  C  C1820  1  0.236600  0.520300  0.511680  1.0
  C  C1821  1  0.731200  0.502300  0.470090  1.0
  C  C1822  1  0.268800  0.497700  0.529910  1.0
  C  C1823  1  0.742900  0.510010  0.437100  1.0
  C  C1824  1  0.257100  0.489990  0.562900  1.0
  C  C1825  1  0.861860  0.458100  0.425830  1.0
  C  C1826  1  0.138140  0.541900  0.574170  1.0
  C  C1827  1  0.901600  0.434600  0.437250  1.0
  C  C1828  1  0.098400  0.565400  0.562750  1.0
  C  C1829  1  0.936890  0.432300  0.410940  1.0
  C  C1830  1  0.063110  0.567700  0.589060  1.0
  C  C1831  1  0.938000  0.467700  0.353100  1.0
  C  C1832  1  0.062000  0.532300  0.646900  1.0
  C  C1833  1  0.047400  0.212600  0.315200  1.0
  C  C1834  1  0.952600  0.787400  0.684800  1.0
  C  C1835  1  0.039400  0.176700  0.324220  1.0
  C  C1836  1  0.960600  0.823300  0.675780  1.0
  C  C1837  1  0.072400  0.139600  0.332930  1.0
  C  C1838  1  0.927600  0.860400  0.667070  1.0
  C  C1839  1  0.113500  0.138260  0.332620  1.0
  C  C1840  1  0.886500  0.861740  0.667380  1.0
  C  C1841  1  0.121500  0.174200  0.323600  1.0
  C  C1842  1  0.878500  0.825800  0.676400  1.0
  C  C1843  1  0.018100  0.248250  0.303710  1.0
  C  C1844  1  0.981900  0.751750  0.696290  1.0
  C  C1845  1  0.975200  0.258200  0.299160  1.0
  C  C1846  1  0.024800  0.741800  0.700840  1.0
  C  C1847  1  0.959620  0.299300  0.283110  1.0
  C  C1848  1  0.040380  0.700700  0.716890  1.0
  C  C1849  1  0.992100  0.354100  0.264700  1.0
  C  C1850  1  0.007900  0.645900  0.735300  1.0
  C  C1851  1  0.951830  0.437970  0.330340  1.0
  C  C1852  1  0.048170  0.562030  0.669660  1.0
  C  C1853  1  0.949510  0.399600  0.341310  1.0
  C  C1854  1  0.050490  0.600400  0.658690  1.0
  C  C1855  1  0.961950  0.372480  0.320110  1.0
  C  C1856  1  0.038050  0.627520  0.679890  1.0
  C  C1857  1  0.976720  0.383790  0.287940  1.0
  C  C1858  1  0.023280  0.616210  0.712060  1.0
  C  C1859  1  0.979040  0.422200  0.276970  1.0
  C  C1860  1  0.020960  0.577800  0.723030  1.0
  C  C1861  1  0.966600  0.449290  0.298170  1.0
  C  C1862  1  0.033400  0.550710  0.701830  1.0
  C  C1863  1  0.968920  0.487690  0.287210  1.0
  C  C1864  1  0.031080  0.512310  0.712790  1.0
  C  C1865  1  0.983700  0.499000  0.255040  1.0
  C  C1866  1  0.016300  0.501000  0.744960  1.0
  C  C1867  1  0.996100  0.471900  0.233840  1.0
  C  C1868  1  0.003900  0.528100  0.766160  1.0
  C  C1869  1  0.993810  0.433500  0.244800  1.0
  C  C1870  1  0.006190  0.566500  0.755200  1.0
  C  C1871  1  0.851360  0.580640  0.985430  1.0
  C  C1872  1  0.148640  0.419360  0.014570  1.0
  C  C1873  1  0.845510  0.620000  0.968910  1.0
  C  C1874  1  0.154490  0.380000  0.031090  1.0
  C  C1875  1  0.838200  0.630540  0.937930  1.0
  C  C1876  1  0.161800  0.369460  0.062070  1.0
  C  C1877  1  0.836700  0.601710  0.923460  1.0
  C  C1878  1  0.163300  0.398290  0.076540  1.0
  C  C1879  1  0.842530  0.562350  0.939970  1.0
  C  C1880  1  0.157470  0.437650  0.060030  1.0
  C  C1881  1  0.861090  0.568680  0.015110  1.0
  C  C1882  1  0.138910  0.431320  0.984890  1.0
  C  C1883  1  0.864400  0.589550  0.036690  1.0
  C  C1884  1  0.135600  0.410450  0.963310  1.0
  C  C1885  1  0.875100  0.560960  0.064650  1.0
  C  C1886  1  0.124900  0.439040  0.935350  1.0
  C  C1887  1  0.883400  0.487300  0.082000  1.0
  C  C1888  1  0.116600  0.512700  0.918000  1.0
  C  C1889  1  0.613500  0.605200  0.152140  1.0
  C  C1890  1  0.386500  0.394800  0.847860  1.0
  C  C1891  1  0.580500  0.633600  0.135950  1.0
  C  C1892  1  0.419500  0.366400  0.864050  1.0
  C  C1893  1  0.559500  0.673800  0.142140  1.0
  C  C1894  1  0.440500  0.326200  0.857860  1.0
  C  C1895  1  0.571400  0.685570  0.164520  1.0
  C  C1896  1  0.428600  0.314430  0.835480  1.0
  C  C1897  1  0.604300  0.657200  0.180710  1.0
  C  C1898  1  0.395700  0.342800  0.819290  1.0
  C  C1899  1  0.634600  0.564790  0.147030  1.0
  C  C1900  1  0.365400  0.435210  0.852970  1.0
  C  C1901  1  0.628800  0.542400  0.127930  1.0
  C  C1902  1  0.371200  0.457600  0.872070  1.0
  C  C1903  1  0.661200  0.501800  0.131100  1.0
  C  C1904  1  0.338800  0.498200  0.868900  1.0
  C  C1905  1  0.725600  0.468400  0.159100  1.0
  C  C1906  1  0.274400  0.531600  0.840900  1.0
  C  C1907  1  0.842500  0.481900  0.100860  1.0
  C  C1908  1  0.157500  0.518100  0.899140  1.0
  C  C1909  1  0.801870  0.512850  0.097270  1.0
  C  C1910  1  0.198130  0.487150  0.902730  1.0
  C  C1911  1  0.763830  0.508600  0.116010  1.0
  C  C1912  1  0.236170  0.491400  0.883990  1.0
  C  C1913  1  0.766430  0.473400  0.138330  1.0
  C  C1914  1  0.233570  0.526600  0.861670  1.0
  C  C1915  1  0.807060  0.442460  0.141910  1.0
  C  C1916  1  0.192940  0.557540  0.858090  1.0
  C  C1917  1  0.845100  0.446710  0.123180  1.0
  C  C1918  1  0.154900  0.553290  0.876820  1.0
  C  C1919  1  0.885740  0.415760  0.126770  1.0
  C  C1920  1  0.114260  0.584240  0.873230  1.0
  C  C1921  1  0.888340  0.380570  0.149090  1.0
  C  C1922  1  0.111660  0.619430  0.850910  1.0
  C  C1923  1  0.850300  0.376320  0.167820  1.0
  C  C1924  1  0.149700  0.623680  0.832180  1.0
  C  C1925  1  0.809660  0.407260  0.164230  1.0
  C  C1926  1  0.190340  0.592740  0.835770  1.0
  C  C1927  1  0.374200  0.682600  0.210020  1.0
  C  C1928  1  0.625800  0.317400  0.789980  1.0
  C  C1929  1  0.354200  0.725000  0.209140  1.0
  C  C1930  1  0.645800  0.275000  0.790860  1.0
  C  C1931  1  0.316600  0.741710  0.231300  1.0
  C  C1932  1  0.683400  0.258290  0.768700  1.0
  C  C1933  1  0.299000  0.716100  0.254300  1.0
  C  C1934  1  0.701000  0.283900  0.745700  1.0
  C  C1935  1  0.319000  0.673800  0.255140  1.0
  C  C1936  1  0.681000  0.326200  0.744860  1.0
  C  C1937  1  0.410800  0.666300  0.188220  1.0
  C  C1938  1  0.589200  0.333700  0.811780  1.0
  C  C1939  1  0.434900  0.682450  0.160600  1.0
  C  C1940  1  0.565100  0.317550  0.839400  1.0
  C  C1941  1  0.468600  0.648900  0.146250  1.0
  C  C1942  1  0.531400  0.351100  0.853750  1.0
  C  C1943  1  0.494500  0.571000  0.162900  1.0
  C  C1944  1  0.505500  0.429000  0.837100  1.0
  C  C1945  1  0.652100  0.604600  0.261100  1.0
  C  C1946  1  0.347900  0.395400  0.738900  1.0
  C  C1947  1  0.642800  0.629900  0.283000  1.0
  C  C1948  1  0.357200  0.370100  0.717000  1.0
  C  C1949  1  0.658300  0.661300  0.274800  1.0
  C  C1950  1  0.341700  0.338700  0.725200  1.0
  C  C1951  1  0.683100  0.667300  0.244700  1.0
  C  C1952  1  0.316900  0.332700  0.755300  1.0
  C  C1953  1  0.692500  0.642000  0.222790  1.0
  C  C1954  1  0.307500  0.358000  0.777210  1.0
  C  C1955  1  0.637800  0.573800  0.267900  1.0
  C  C1956  1  0.362200  0.426200  0.732100  1.0
  C  C1957  1  0.614800  0.558300  0.296570  1.0
  C  C1958  1  0.385200  0.441700  0.703430  1.0
  C  C1959  1  0.607700  0.525500  0.290600  1.0
  C  C1960  1  0.392300  0.474500  0.709400  1.0
  C  C1961  1  0.627300  0.492500  0.241300  1.0
  C  C1962  1  0.372700  0.507500  0.758700  1.0
  C  C1963  1  0.527460  0.551900  0.184040  1.0
  C  C1964  1  0.472540  0.448100  0.815960  1.0
  C  C1965  1  0.531310  0.575500  0.202280  1.0
  C  C1966  1  0.468690  0.424500  0.797720  1.0
  C  C1967  1  0.562900  0.558000  0.221230  1.0
  C  C1968  1  0.437100  0.442000  0.778770  1.0
  C  C1969  1  0.590680  0.516800  0.221930  1.0
  C  C1970  1  0.409320  0.483200  0.778070  1.0
  C  C1971  1  0.586830  0.493100  0.203690  1.0
  C  C1972  1  0.413170  0.506900  0.796310  1.0
  C  C1973  1  0.555220  0.510700  0.184740  1.0
  C  C1974  1  0.444780  0.489300  0.815260  1.0
  C  C1975  1  0.551400  0.487000  0.166500  1.0
  C  C1976  1  0.448600  0.513000  0.833500  1.0
  C  C1977  1  0.579100  0.445800  0.167210  1.0
  C  C1978  1  0.420900  0.554200  0.832790  1.0
  C  C1979  1  0.610700  0.428300  0.186200  1.0
  C  C1980  1  0.389300  0.571700  0.813800  1.0
  C  C1981  1  0.614580  0.451900  0.204400  1.0
  C  C1982  1  0.385420  0.548100  0.795600  1.0
  C  C1983  1  0.781100  0.601600  0.358500  1.0
  C  C1984  1  0.218900  0.398400  0.641500  1.0
  C  C1985  1  0.781200  0.640700  0.353600  1.0
  C  C1986  1  0.218800  0.359300  0.646400  1.0
  C  C1987  1  0.817200  0.645700  0.357400  1.0
  C  C1988  1  0.182800  0.354300  0.642600  1.0
  C  C1989  1  0.853200  0.611500  0.366300  1.0
  C  C1990  1  0.146800  0.388500  0.633700  1.0
  C  C1991  1  0.853100  0.572400  0.371200  1.0
  C  C1992  1  0.146900  0.427600  0.628800  1.0
  C  C1993  1  0.747700  0.597800  0.356740  1.0
  C  C1994  1  0.252300  0.402200  0.643260  1.0
  C  C1995  1  0.705700  0.627600  0.352180  1.0
  C  C1996  1  0.294300  0.372400  0.647820  1.0
  C  C1997  1  0.678700  0.606500  0.353620  1.0
  C  C1998  1  0.321300  0.393500  0.646380  1.0
  C  C1999  1  0.695400  0.528200  0.359100  1.0
  C  C2000  1  0.304600  0.471800  0.640900  1.0
  C  C2001  1  0.777100  0.572210  0.157150  1.0
  C  C2002  1  0.222900  0.427790  0.842850  1.0
  C  C2003  1  0.807740  0.587500  0.137460  1.0
  C  C2004  1  0.192260  0.412500  0.862540  1.0
  C  C2005  1  0.794000  0.625000  0.117390  1.0
  C  C2006  1  0.206000  0.375000  0.882610  1.0
  C  C2007  1  0.749700  0.647040  0.117020  1.0
  C  C2008  1  0.250300  0.352960  0.882980  1.0
  C  C2009  1  0.719040  0.631700  0.136710  1.0
  C  C2010  1  0.280960  0.368300  0.863290  1.0
  C  C2011  1  0.788500  0.536690  0.178350  1.0
  C  C2012  1  0.211500  0.463310  0.821650  1.0
  C  C2013  1  0.830230  0.505400  0.181890  1.0
  C  C2014  1  0.169770  0.494600  0.818110  1.0
  C  C2015  1  0.823500  0.472730  0.205350  1.0
  C  C2016  1  0.176500  0.527270  0.794650  1.0
  C  C2017  1  0.755300  0.463300  0.241100  1.0
  C  C2018  1  0.244700  0.536700  0.758900  1.0
  C  C2019  1  0.712030  0.512800  0.328450  1.0
  C  C2020  1  0.287970  0.487200  0.671550  1.0
  C  C2021  1  0.733380  0.531200  0.301600  1.0
  C  C2022  1  0.266620  0.468800  0.698400  1.0
  C  C2023  1  0.747740  0.515380  0.273280  1.0
  C  C2024  1  0.252260  0.484620  0.726720  1.0
  C  C2025  1  0.740750  0.481200  0.271810  1.0
  C  C2026  1  0.259250  0.518800  0.728190  1.0
  C  C2027  1  0.719400  0.462770  0.298660  1.0
  C  C2028  1  0.280600  0.537230  0.701340  1.0
  C  C2029  1  0.705040  0.478580  0.326980  1.0
  C  C2030  1  0.294960  0.521420  0.673020  1.0
  C  C2031  1  0.683700  0.460200  0.353830  1.0
  C  C2032  1  0.316300  0.539800  0.646170  1.0
  C  C2033  1  0.676700  0.426000  0.352350  1.0
  C  C2034  1  0.323300  0.574000  0.647650  1.0
  C  C2035  1  0.691100  0.410200  0.324030  1.0
  C  C2036  1  0.308900  0.589800  0.675970  1.0
  C  C2037  1  0.712400  0.428550  0.297180  1.0
  C  C2038  1  0.287600  0.571450  0.702820  1.0
  C  C2039  1  0.361030  0.380700  0.529270  1.0
  C  C2040  1  0.638970  0.619300  0.470730  1.0
  C  C2041  1  0.336500  0.373200  0.559190  1.0
  C  C2042  1  0.663500  0.626800  0.440810  1.0
  C  C2043  1  0.293000  0.379300  0.562350  1.0
  C  C2044  1  0.707000  0.620700  0.437650  1.0
  C  C2045  1  0.273930  0.392900  0.535580  1.0
  C  C2046  1  0.726070  0.607100  0.464420  1.0
  C  C2047  1  0.298400  0.400400  0.505660  1.0
  C  C2048  1  0.701600  0.599600  0.494340  1.0
  C  C2049  1  0.403040  0.374500  0.525640  1.0
  C  C2050  1  0.596960  0.625500  0.474360  1.0
  C  C2051  1  0.430800  0.365400  0.547280  1.0
  C  C2052  1  0.569200  0.634600  0.452720  1.0
  C  C2053  1  0.471800  0.365900  0.529280  1.0
  C  C2054  1  0.528200  0.634100  0.470720  1.0
  C  C2055  1  0.503000  0.373100  0.469500  1.0
  C  C2056  1  0.497000  0.626900  0.530500  1.0
  C  C2057  1  0.582600  0.113500  0.500420  1.0
  C  C2058  1  0.417400  0.886500  0.499580  1.0
  C  C2059  1  0.561900  0.086000  0.512500  1.0
  C  C2060  1  0.438100  0.914000  0.487500  1.0
  C  C2061  1  0.570200  0.059100  0.540700  1.0
  C  C2062  1  0.429800  0.940900  0.459300  1.0
  C  C2063  1  0.599200  0.059600  0.556800  1.0
  C  C2064  1  0.400800  0.940400  0.443200  1.0
  C  C2065  1  0.620000  0.087100  0.544710  1.0
  C  C2066  1  0.380000  0.912900  0.455290  1.0
  C  C2067  1  0.573900  0.140500  0.472910  1.0
  C  C2068  1  0.426100  0.859500  0.527090  1.0
  C  C2069  1  0.547000  0.147700  0.451100  1.0
  C  C2070  1  0.453000  0.852300  0.548900  1.0
  C  C2071  1  0.552100  0.179900  0.426420  1.0
  C  C2072  1  0.447900  0.820100  0.573580  1.0
  C  C2073  1  0.595200  0.224300  0.417500  1.0
  C  C2074  1  0.404800  0.775700  0.582500  1.0
  C  C2075  1  0.524200  0.336440  0.456530  1.0
  C  C2076  1  0.475800  0.663560  0.543470  1.0
  C  C2077  1  0.513800  0.302300  0.470640  1.0
  C  C2078  1  0.486200  0.697700  0.529360  1.0
  C  C2079  1  0.536400  0.266010  0.457900  1.0
  C  C2080  1  0.463600  0.733990  0.542100  1.0
  C  C2081  1  0.569460  0.263880  0.431040  1.0
  C  C2082  1  0.430540  0.736120  0.568960  1.0
  C  C2083  1  0.579860  0.298030  0.416930  1.0
  C  C2084  1  0.420140  0.701970  0.583070  1.0
  C  C2085  1  0.557230  0.334320  0.429680  1.0
  C  C2086  1  0.442770  0.665680  0.570320  1.0
  C  C2087  1  0.567600  0.368500  0.415570  1.0
  C  C2088  1  0.432400  0.631500  0.584430  1.0
  C  C2089  1  0.600700  0.366300  0.388720  1.0
  C  C2090  1  0.399300  0.633700  0.611280  1.0
  C  C2091  1  0.623300  0.330100  0.375970  1.0
  C  C2092  1  0.376700  0.669900  0.624030  1.0
  C  C2093  1  0.612900  0.295900  0.390080  1.0
  C  C2094  1  0.387100  0.704100  0.609920  1.0
  C  C2095  1  0.682400  0.878600  0.506100  1.0
  C  C2096  1  0.317600  0.121400  0.493900  1.0
  C  C2097  1  0.687500  0.855300  0.535970  1.0
  C  C2098  1  0.312500  0.144700  0.464030  1.0
  C  C2099  1  0.721800  0.817000  0.538820  1.0
  C  C2100  1  0.278200  0.183000  0.461180  1.0
  C  C2101  1  0.751000  0.802200  0.511800  1.0
  C  C2102  1  0.249000  0.197800  0.488200  1.0
  C  C2103  1  0.745800  0.825600  0.481870  1.0
  C  C2104  1  0.254200  0.174400  0.518130  1.0
  C  C2105  1  0.649700  0.915800  0.499700  1.0
  C  C2106  1  0.350300  0.084200  0.500300  1.0
  C  C2107  1  0.610900  0.936800  0.520460  1.0
  C  C2108  1  0.389100  0.063200  0.479540  1.0
  C  C2109  1  0.586800  0.974300  0.502600  1.0
  C  C2110  1  0.413200  0.025700  0.497400  1.0
  C  C2111  1  0.601000  0.011100  0.443100  1.0
  C  C2112  1  0.399000  0.988900  0.556900  1.0
  C  C2113  1  0.730400  0.108900  0.519900  1.0
  C  C2114  1  0.269600  0.891100  0.480100  1.0
  C  C2115  1  0.759880  0.090300  0.540550  1.0
  C  C2116  1  0.240120  0.909700  0.459450  1.0
  C  C2117  1  0.747300  0.099400  0.571290  1.0
  C  C2118  1  0.252700  0.900600  0.428710  1.0
  C  C2119  1  0.705300  0.127200  0.581390  1.0
  C  C2120  1  0.294700  0.872800  0.418610  1.0
  C  C2121  1  0.675870  0.145830  0.560730  1.0
  C  C2122  1  0.324130  0.854170  0.439270  1.0
  C  C2123  1  0.740100  0.101500  0.489550  1.0
  C  C2124  1  0.259900  0.898500  0.510450  1.0
  C  C2125  1  0.779570  0.077240  0.471080  1.0
  C  C2126  1  0.220430  0.922760  0.528920  1.0
  C  C2127  1  0.771080  0.080100  0.440780  1.0
  C  C2128  1  0.228920  0.919900  0.559220  1.0
  C  C2129  1  0.701500  0.113800  0.418300  1.0
  C  C2130  1  0.298500  0.886200  0.581700  1.0
  C  C2131  1  0.630200  0.036170  0.437150  1.0
  C  C2132  1  0.369800  0.963830  0.562850  1.0
  C  C2133  1  0.656600  0.031170  0.457800  1.0
  C  C2134  1  0.343400  0.968830  0.542200  1.0
  C  C2135  1  0.679780  0.056320  0.451610  1.0
  C  C2136  1  0.320220  0.943680  0.548390  1.0
  C  C2137  1  0.676510  0.086480  0.424760  1.0
  C  C2138  1  0.323490  0.913520  0.575240  1.0
  C  C2139  1  0.650100  0.091480  0.404110  1.0
  C  C2140  1  0.349900  0.908520  0.595890  1.0
  C  C2141  1  0.626960  0.066330  0.410300  1.0
  C  C2142  1  0.373040  0.933670  0.589700  1.0
  C  C2143  1  0.600550  0.071330  0.389650  1.0
  C  C2144  1  0.399450  0.928670  0.610350  1.0
  C  C2145  1  0.597270  0.101500  0.362800  1.0
  C  C2146  1  0.402730  0.898500  0.637200  1.0
  C  C2147  1  0.620400  0.126650  0.356610  1.0
  C  C2148  1  0.379600  0.873350  0.643390  1.0
  C  C2149  1  0.646820  0.121640  0.377260  1.0
  C  C2150  1  0.353180  0.878360  0.622740  1.0
  C  C2151  1  0.862500  0.184200  0.576010  1.0
  C  C2152  1  0.137500  0.815800  0.423990  1.0
  C  C2153  1  0.852600  0.181900  0.608920  1.0
  C  C2154  1  0.147400  0.818100  0.391080  1.0
  C  C2155  1  0.855800  0.210600  0.622530  1.0
  C  C2156  1  0.144200  0.789400  0.377470  1.0
  C  C2157  1  0.868900  0.241500  0.603240  1.0
  C  C2158  1  0.131100  0.758500  0.396760  1.0
  C  C2159  1  0.878800  0.243800  0.570330  1.0
  C  C2160  1  0.121200  0.756200  0.429670  1.0
  C  C2161  1  0.858600  0.157100  0.563020  1.0
  C  C2162  1  0.141400  0.842900  0.436980  1.0
  C  C2163  1  0.849300  0.121200  0.575250  1.0
  C  C2164  1  0.150700  0.878800  0.424750  1.0
  C  C2165  1  0.852300  0.103790  0.549040  1.0
  C  C2166  1  0.147700  0.896210  0.450960  1.0
  C  C2167  1  0.866900  0.126500  0.489100  1.0
  C  C2168  1  0.133100  0.873500  0.510900  1.0
  C  C2169  1  0.589850  0.247700  0.522460  1.0
  C  C2170  1  0.410150  0.752300  0.477540  1.0
  C  C2171  1  0.562000  0.275810  0.542760  1.0
  C  C2172  1  0.438000  0.724190  0.457240  1.0
  C  C2173  1  0.531600  0.265800  0.567840  1.0
  C  C2174  1  0.468400  0.734200  0.432160  1.0
  C  C2175  1  0.529200  0.227700  0.572630  1.0
  C  C2176  1  0.470800  0.772300  0.427370  1.0
  C  C2177  1  0.557100  0.199490  0.552330  1.0
  C  C2178  1  0.442900  0.800510  0.447670  1.0
  C  C2179  1  0.618970  0.255800  0.496820  1.0
  C  C2180  1  0.381030  0.744200  0.503180  1.0
  C  C2181  1  0.627300  0.292180  0.483800  1.0
  C  C2182  1  0.372700  0.707820  0.516200  1.0
  C  C2183  1  0.662400  0.283700  0.457230  1.0
  C  C2184  1  0.337600  0.716300  0.542770  1.0
  C  C2185  1  0.712500  0.218600  0.434200  1.0
  C  C2186  1  0.287500  0.781400  0.565800  1.0
  C  C2187  1  0.826280  0.152530  0.475170  1.0
  C  C2188  1  0.173720  0.847470  0.524830  1.0
  C  C2189  1  0.787310  0.176020  0.493060  1.0
  C  C2190  1  0.212690  0.823980  0.506940  1.0
  C  C2191  1  0.750160  0.197740  0.479580  1.0
  C  C2192  1  0.249840  0.802260  0.520420  1.0
  C  C2193  1  0.751980  0.195970  0.448200  1.0
  C  C2194  1  0.248020  0.804030  0.551800  1.0
  C  C2195  1  0.790950  0.172480  0.430310  1.0
  C  C2196  1  0.209050  0.827520  0.569690  1.0
  C  C2197  1  0.828100  0.150760  0.443790  1.0
  C  C2198  1  0.171900  0.849240  0.556210  1.0
  C  C2199  1  0.867070  0.127270  0.425900  1.0
  C  C2200  1  0.132930  0.872730  0.574100  1.0
  C  C2201  1  0.868900  0.125500  0.394530  1.0
  C  C2202  1  0.131100  0.874500  0.605470  1.0
  C  C2203  1  0.831700  0.147200  0.381040  1.0
  C  C2204  1  0.168300  0.852800  0.618960  1.0
  C  C2205  1  0.792800  0.170720  0.398940  1.0
  C  C2206  1  0.207200  0.829280  0.601060  1.0
  C  C2207  1  0.641600  0.317200  0.920680  1.0
  C  C2208  1  0.358400  0.682800  0.079320  1.0
  C  C2209  1  0.629600  0.306700  0.897600  1.0
  C  C2210  1  0.370400  0.693300  0.102400  1.0
  C  C2211  1  0.659100  0.296700  0.869440  1.0
  C  C2212  1  0.340900  0.703300  0.130560  1.0
  C  C2213  1  0.700600  0.297000  0.864340  1.0
  C  C2214  1  0.299400  0.703000  0.135660  1.0
  C  C2215  1  0.712630  0.307500  0.887420  1.0
  C  C2216  1  0.287370  0.692500  0.112580  1.0
  C  C2217  1  0.613900  0.327300  0.948420  1.0
  C  C2218  1  0.386100  0.672700  0.051580  1.0
  C  C2219  1  0.568600  0.335100  0.959440  1.0
  C  C2220  1  0.431400  0.664900  0.040560  1.0
  C  C2221  1  0.556560  0.344800  0.990680  1.0
  C  C2222  1  0.443440  0.655200  0.009320  1.0
  C  C2223  1  0.601100  0.346300  0.027700  1.0
  C  C2224  1  0.398900  0.653700  0.972300  1.0
  C  C2225  1  0.635300  0.097300  0.091800  1.0
  C  C2226  1  0.364700  0.902700  0.908200  1.0
  C  C2227  1  0.651800  0.064100  0.075650  1.0
  C  C2228  1  0.348200  0.935900  0.924350  1.0
  C  C2229  1  0.625000  0.044600  0.075500  1.0
  C  C2230  1  0.375000  0.955400  0.924500  1.0
  C  C2231  1  0.581600  0.058300  0.091600  1.0
  C  C2232  1  0.418400  0.941700  0.908400  1.0
  C  C2233  1  0.565100  0.091500  0.107750  1.0
  C  C2234  1  0.434900  0.908500  0.892250  1.0
  C  C2235  1  0.660700  0.115600  0.091800  1.0
  C  C2236  1  0.339300  0.884400  0.908200  1.0
  C  C2237  1  0.705900  0.107300  0.079850  1.0
  C  C2238  1  0.294100  0.892700  0.920150  1.0
  C  C2239  1  0.716000  0.136600  0.088600  1.0
  C  C2240  1  0.284000  0.863400  0.911400  1.0
  C  C2241  1  0.667600  0.199600  0.115600  1.0
  C  C2242  1  0.332400  0.800400  0.884400  1.0
  C  C2243  1  0.620340  0.309490  0.049730  1.0
  C  C2244  1  0.379660  0.690510  0.950270  1.0
  C  C2245  1  0.628680  0.272300  0.041320  1.0
  C  C2246  1  0.371320  0.727700  0.958680  1.0
  C  C2247  1  0.645010  0.235770  0.061790  1.0
  C  C2248  1  0.354990  0.764230  0.938210  1.0
  C  C2249  1  0.653000  0.236470  0.090680  1.0
  C  C2250  1  0.347000  0.763530  0.909320  1.0
  C  C2251  1  0.644660  0.273700  0.099100  1.0
  C  C2252  1  0.355340  0.726300  0.900900  1.0
  C  C2253  1  0.628330  0.310190  0.078630  1.0
  C  C2254  1  0.371670  0.689810  0.921370  1.0
  C  C2255  1  0.620000  0.347400  0.087040  1.0
  C  C2256  1  0.380000  0.652600  0.912960  1.0
  C  C2257  1  0.628000  0.348100  0.115930  1.0
  C  C2258  1  0.372000  0.651900  0.884070  1.0
  C  C2259  1  0.644300  0.311600  0.136410  1.0
  C  C2260  1  0.355700  0.688400  0.863590  1.0
  C  C2261  1  0.652700  0.274400  0.127990  1.0
  C  C2262  1  0.347300  0.725600  0.872010  1.0
  C  C2263  1  0.277470  0.300460  0.237050  1.0
  C  C2264  1  0.722530  0.699540  0.762950  1.0
  C  C2265  1  0.244600  0.305300  0.222180  1.0
  C  C2266  1  0.755400  0.694700  0.777820  1.0
  C  C2267  1  0.209000  0.342600  0.219710  1.0
  C  C2268  1  0.791000  0.657400  0.780290  1.0
  C  C2269  1  0.206300  0.375100  0.232100  1.0
  C  C2270  1  0.793700  0.624900  0.767900  1.0
  C  C2271  1  0.239200  0.370300  0.247000  1.0
  C  C2272  1  0.760800  0.629700  0.753000  1.0
  C  C2273  1  0.311940  0.263990  0.241040  1.0
  C  C2274  1  0.688060  0.736010  0.758960  1.0
  C  C2275  1  0.324700  0.225200  0.231970  1.0
  C  C2276  1  0.675300  0.774800  0.768030  1.0
  C  C2277  1  0.362800  0.197540  0.244260  1.0
  C  C2278  1  0.637200  0.802460  0.755740  1.0
  C  C2279  1  0.410500  0.205800  0.273800  1.0
  C  C2280  1  0.589500  0.794200  0.726200  1.0
  C  C2281  1  0.533300  0.254600  0.080840  1.0
  C  C2282  1  0.466700  0.745400  0.919160  1.0
  C  C2283  1  0.517900  0.281850  0.054420  1.0
  C  C2284  1  0.482100  0.718150  0.945580  1.0
  C  C2285  1  0.517700  0.267000  0.028560  1.0
  C  C2286  1  0.482300  0.733000  0.971440  1.0
  C  C2287  1  0.532900  0.224900  0.029110  1.0
  C  C2288  1  0.467100  0.775100  0.970890  1.0
  C  C2289  1  0.548300  0.197650  0.055530  1.0
  C  C2290  1  0.451700  0.802350  0.944470  1.0
  C  C2291  1  0.535100  0.267100  0.107090  1.0
  C  C2292  1  0.464900  0.732900  0.892910  1.0
  C  C2293  1  0.524700  0.306940  0.113140  1.0
  C  C2294  1  0.475300  0.693060  0.886860  1.0
  C  C2295  1  0.533500  0.302670  0.143610  1.0
  C  C2296  1  0.466500  0.697330  0.856390  1.0
  C  C2297  1  0.555900  0.242100  0.186700  1.0
  C  C2298  1  0.444100  0.757900  0.813300  1.0
  C  C2299  1  0.447410  0.215840  0.250590  1.0
  C  C2300  1  0.552590  0.784160  0.749410  1.0
  C  C2301  1  0.443930  0.234190  0.219270  1.0
  C  C2302  1  0.556070  0.765810  0.780730  1.0
  C  C2303  1  0.478870  0.242220  0.198420  1.0
  C  C2304  1  0.521130  0.757780  0.801580  1.0
  C  C2305  1  0.517290  0.231910  0.208900  1.0
  C  C2306  1  0.482710  0.768090  0.791100  1.0
  C  C2307  1  0.520760  0.213570  0.240230  1.0
  C  C2308  1  0.479240  0.786430  0.759770  1.0
  C  C2309  1  0.485820  0.205530  0.261070  1.0
  C  C2310  1  0.514180  0.794470  0.738930  1.0
  C  C2311  1  0.489290  0.187190  0.292400  1.0
  C  C2312  1  0.510710  0.812810  0.707600  1.0
  C  C2313  1  0.527700  0.176880  0.302880  1.0
  C  C2314  1  0.472300  0.823120  0.697120  1.0
  C  C2315  1  0.562650  0.184910  0.282040  1.0
  C  C2316  1  0.437350  0.815090  0.717960  1.0
  C  C2317  1  0.559170  0.203250  0.250710  1.0
  C  C2318  1  0.440830  0.796750  0.749290  1.0
  C  C2319  1  0.720400  0.879900  0.151900  1.0
  C  C2320  1  0.279600  0.120100  0.848100  1.0
  C  C2321  1  0.705600  0.858000  0.139600  1.0
  C  C2322  1  0.294400  0.142000  0.860400  1.0
  C  C2323  1  0.706200  0.819700  0.155700  1.0
  C  C2324  1  0.293800  0.180300  0.844300  1.0
  C  C2325  1  0.721700  0.803300  0.184100  1.0
  C  C2326  1  0.278300  0.196700  0.815900  1.0
  C  C2327  1  0.736500  0.825300  0.196300  1.0
  C  C2328  1  0.263500  0.174700  0.803700  1.0
  C  C2329  1  0.726400  0.912600  0.133600  1.0
  C  C2330  1  0.273600  0.087400  0.866400  1.0
  C  C2331  1  0.718500  0.933800  0.102700  1.0
  C  C2332  1  0.281500  0.066200  0.897300  1.0
  C  C2333  1  0.732200  0.967100  0.095360  1.0
  C  C2334  1  0.267800  0.032900  0.904640  1.0
  C  C2335  1  0.764000  0.994300  0.127500  1.0
  C  C2336  1  0.236000  0.005700  0.872500  1.0
  C  C2337  1  0.492200  0.149150  0.178800  1.0
  C  C2338  1  0.507800  0.850850  0.821200  1.0
  C  C2339  1  0.453000  0.143650  0.191140  1.0
  C  C2340  1  0.547000  0.856350  0.808860  1.0
  C  C2341  1  0.420700  0.159500  0.172910  1.0
  C  C2342  1  0.579300  0.840500  0.827090  1.0
  C  C2343  1  0.427600  0.180800  0.142340  1.0
  C  C2344  1  0.572400  0.819200  0.857660  1.0
  C  C2345  1  0.466800  0.186290  0.130000  1.0
  C  C2346  1  0.533200  0.813710  0.870000  1.0
  C  C2347  1  0.523900  0.134300  0.196360  1.0
  C  C2348  1  0.476100  0.865700  0.803640  1.0
  C  C2349  1  0.526700  0.114100  0.228160  1.0
  C  C2350  1  0.473300  0.885900  0.771840  1.0
  C  C2351  1  0.568200  0.107300  0.233560  1.0
  C  C2352  1  0.431800  0.892700  0.766440  1.0
  C  C2353  1  0.634200  0.119200  0.197700  1.0
  C  C2354  1  0.365800  0.880800  0.802300  1.0
  C  C2355  1  0.728600  0.026200  0.145490  1.0
  C  C2356  1  0.271400  0.973800  0.854510  1.0
  C  C2357  1  0.685500  0.029190  0.155470  1.0
  C  C2358  1  0.314500  0.970810  0.844530  1.0
  C  C2359  1  0.654880  0.059800  0.172920  1.0
  C  C2360  1  0.345120  0.940200  0.827080  1.0
  C  C2361  1  0.667360  0.087350  0.180390  1.0
  C  C2362  1  0.332640  0.912650  0.819610  1.0
  C  C2363  1  0.710470  0.084360  0.170410  1.0
  C  C2364  1  0.289530  0.915640  0.829590  1.0
  C  C2365  1  0.741090  0.053790  0.152960  1.0
  C  C2366  1  0.258910  0.946210  0.847040  1.0
  C  C2367  1  0.784190  0.050800  0.142980  1.0
  C  C2368  1  0.215810  0.949200  0.857020  1.0
  C  C2369  1  0.796700  0.078400  0.150450  1.0
  C  C2370  1  0.203300  0.921600  0.849550  1.0
  C  C2371  1  0.766100  0.109000  0.167900  1.0
  C  C2372  1  0.233900  0.891000  0.832100  1.0
  C  C2373  1  0.723000  0.111940  0.177880  1.0
  C  C2374  1  0.277000  0.888060  0.822120  1.0
  C  C2375  1  0.125300  0.132810  0.957780  1.0
  C  C2376  1  0.874700  0.867190  0.042220  1.0
  C  C2377  1  0.168960  0.121680  0.942430  1.0
  C  C2378  1  0.831040  0.878320  0.057570  1.0
  C  C2379  1  0.181280  0.147900  0.916430  1.0
  C  C2380  1  0.818720  0.852100  0.083570  1.0
  C  C2381  1  0.150000  0.185260  0.905770  1.0
  C  C2382  1  0.850000  0.814740  0.094230  1.0
  C  C2383  1  0.106370  0.196390  0.921120  1.0
  C  C2384  1  0.893630  0.803610  0.078880  1.0
  C  C2385  1  0.110700  0.108870  0.982860  1.0
  C  C2386  1  0.889300  0.891130  0.017140  1.0
  C  C2387  1  0.131390  0.067640  0.997250  1.0
  C  C2388  1  0.868610  0.932360  0.002750  1.0
  C  C2389  1  0.100200  0.057620  0.022770  1.0
  C  C2390  1  0.899800  0.942380  0.977230  1.0
  C  C2391  1  0.022400  0.098100  0.047200  1.0
  C  C2392  1  0.977600  0.901900  0.952800  1.0
  C  C2393  1  0.147100  0.149400  0.166070  1.0
  C  C2394  1  0.852900  0.850600  0.833930  1.0
  C  C2395  1  0.179300  0.164900  0.160690  1.0
  C  C2396  1  0.820700  0.835100  0.839310  1.0
  C  C2397  1  0.219500  0.139900  0.169500  1.0
  C  C2398  1  0.780500  0.860100  0.830500  1.0
  C  C2399  1  0.227500  0.099300  0.183700  1.0
  C  C2400  1  0.772500  0.900700  0.816300  1.0
  C  C2401  1  0.195300  0.083800  0.189050  1.0
  C  C2402  1  0.804700  0.916200  0.810950  1.0
  C  C2403  1  0.110300  0.171700  0.155950  1.0
  C  C2404  1  0.889700  0.828300  0.844050  1.0
  C  C2405  1  0.092400  0.214000  0.142850  1.0
  C  C2406  1  0.907600  0.786000  0.857150  1.0
  C  C2407  1  0.048800  0.223870  0.140020  1.0
  C  C2408  1  0.951200  0.776130  0.859980  1.0
  C  C2409  1  0.003500  0.179400  0.151500  1.0
  C  C2410  1  0.996500  0.820600  0.848500  1.0
  C  C2411  1  0.016770  0.121000  0.072900  1.0
  C  C2412  1  0.983230  0.879000  0.927100  1.0
  C  C2413  1  0.050540  0.131460  0.074170  1.0
  C  C2414  1  0.949460  0.868540  0.925830  1.0
  C  C2415  1  0.046700  0.150300  0.099020  1.0
  C  C2416  1  0.953300  0.849700  0.900980  1.0
  C  C2417  1  0.009100  0.158680  0.122610  1.0
  C  C2418  1  0.990900  0.841320  0.877390  1.0
  C  C2419  1  0.975320  0.148230  0.121340  1.0
  C  C2420  1  0.024680  0.851770  0.878660  1.0
  C  C2421  1  0.979160  0.129390  0.096480  1.0
  C  C2422  1  0.020840  0.870610  0.903520  1.0
  C  C2423  1  0.945390  0.118930  0.095210  1.0
  C  C2424  1  0.054610  0.881070  0.904790  1.0
  C  C2425  1  0.907780  0.127300  0.118800  1.0
  C  C2426  1  0.092220  0.872700  0.881200  1.0
  C  C2427  1  0.903940  0.146100  0.143650  1.0
  C  C2428  1  0.096060  0.853900  0.856350  1.0
  C  C2429  1  0.937700  0.156610  0.144920  1.0
  C  C2430  1  0.062300  0.843390  0.855080  1.0
  C  C2431  1  0.119900  0.816600  0.289900  1.0
  C  C2432  1  0.880100  0.183400  0.710100  1.0
  C  C2433  1  0.160400  0.785000  0.283000  1.0
  C  C2434  1  0.839600  0.215000  0.717000  1.0
  C  C2435  1  0.162900  0.748700  0.276500  1.0
  C  C2436  1  0.837100  0.251300  0.723500  1.0
  C  C2437  1  0.124800  0.743900  0.277000  1.0
  C  C2438  1  0.875200  0.256100  0.723000  1.0
  C  C2439  1  0.084200  0.775500  0.283900  1.0
  C  C2440  1  0.915800  0.224500  0.716100  1.0
  C  C2441  1  0.114900  0.850580  0.297950  1.0
  C  C2442  1  0.885100  0.149420  0.702050  1.0
  C  C2443  1  0.145630  0.862400  0.304490  1.0
  C  C2444  1  0.854370  0.137600  0.695510  1.0
  C  C2445  1  0.122400  0.901300  0.314720  1.0
  C  C2446  1  0.877600  0.098700  0.685280  1.0
  C  C2447  1  0.041500  0.948400  0.321700  1.0
  C  C2448  1  0.958500  0.051600  0.678300  1.0
  C  C2449  1  0.107240  0.046100  0.125840  1.0
  C  C2450  1  0.892760  0.953900  0.874160  1.0
  C  C2451  1  0.124800  0.027800  0.098560  1.0
  C  C2452  1  0.875200  0.972200  0.901440  1.0
  C  C2453  1  0.165600  0.025900  0.080900  1.0
  C  C2454  1  0.834400  0.974100  0.919100  1.0
  C  C2455  1  0.189000  0.042400  0.090520  1.0
  C  C2456  1  0.811000  0.957600  0.909480  1.0
  C  C2457  1  0.171500  0.060700  0.117800  1.0
  C  C2458  1  0.828500  0.939300  0.882200  1.0
  C  C2459  1  0.068700  0.047500  0.142770  1.0
  C  C2460  1  0.931300  0.952500  0.857230  1.0
  C  C2461  1  0.037000  0.035430  0.138100  1.0
  C  C2462  1  0.963000  0.964570  0.861900  1.0
  C  C2463  1  0.000500  0.045600  0.163580  1.0
  C  C2464  1  0.999500  0.954400  0.836420  1.0
  C  C2465  1  0.987000  0.073400  0.213600  1.0
  C  C2466  1  0.013000  0.926600  0.786400  1.0
  C  C2467  1  0.027520  0.979630  0.292480  1.0
  C  C2468  1  0.972480  0.020370  0.707520  1.0
  C  C2469  1  0.050340  0.973520  0.261710  1.0
  C  C2470  1  0.949660  0.026480  0.738290  1.0
  C  C2471  1  0.036870  0.003580  0.235960  1.0
  C  C2472  1  0.963130  0.996420  0.764040  1.0
  C  C2473  1  0.000590  0.039760  0.240980  1.0
  C  C2474  1  0.999410  0.960240  0.759020  1.0
  C  C2475  1  0.977760  0.045870  0.271740  1.0
  C  C2476  1  0.022240  0.954130  0.728260  1.0
  C  C2477  1  0.991230  0.015800  0.297490  1.0
  C  C2478  1  0.008770  0.984200  0.702510  1.0
  C  C2479  1  0.968410  0.021910  0.328260  1.0
  C  C2480  1  0.031590  0.978090  0.671740  1.0
  C  C2481  1  0.932130  0.058090  0.333270  1.0
  C  C2482  1  0.067870  0.941910  0.666730  1.0
  C  C2483  1  0.918660  0.088150  0.307520  1.0
  C  C2484  1  0.081340  0.911850  0.692480  1.0
  C  C2485  1  0.941480  0.082040  0.276760  1.0
  C  C2486  1  0.058520  0.917960  0.723240  1.0
  C  C2487  1  0.203700  0.223300  0.284830  1.0
  C  C2488  1  0.796300  0.776700  0.715170  1.0
  C  C2489  1  0.246700  0.201900  0.289290  1.0
  C  C2490  1  0.753300  0.798100  0.710710  1.0
  C  C2491  1  0.257340  0.200000  0.317870  1.0
  C  C2492  1  0.742660  0.800000  0.682130  1.0
  C  C2493  1  0.225000  0.219400  0.342000  1.0
  C  C2494  1  0.775000  0.780600  0.658000  1.0
  C  C2495  1  0.182000  0.240700  0.337540  1.0
  C  C2496  1  0.818000  0.759300  0.662460  1.0
  C  C2497  1  0.191400  0.226600  0.258210  1.0
  C  C2498  1  0.808600  0.773400  0.741790  1.0
  C  C2499  1  0.216660  0.212900  0.228950  1.0
  C  C2500  1  0.783340  0.787100  0.771050  1.0
  C  C2501  1  0.188200  0.227400  0.206900  1.0
  C  C2502  1  0.811800  0.772600  0.793100  1.0
  C  C2503  1  0.105900  0.266100  0.213100  1.0
  C  C2504  1  0.894100  0.733900  0.786900  1.0
  C  C2505  1  0.125900  0.019540  0.244550  1.0
  C  C2506  1  0.874100  0.980460  0.755450  1.0
  C  C2507  1  0.148900  0.983900  0.263210  1.0
  C  C2508  1  0.851100  0.016100  0.736790  1.0
  C  C2509  1  0.183000  0.951890  0.248850  1.0
  C  C2510  1  0.817000  0.048110  0.751150  1.0
  C  C2511  1  0.194000  0.955580  0.215840  1.0
  C  C2512  1  0.806000  0.044420  0.784160  1.0
  C  C2513  1  0.170900  0.991300  0.197190  1.0
  C  C2514  1  0.829100  0.008700  0.802810  1.0
  C  C2515  1  0.090500  0.052670  0.257140  1.0
  C  C2516  1  0.909500  0.947330  0.742860  1.0
  C  C2517  1  0.068600  0.058100  0.288970  1.0
  C  C2518  1  0.931400  0.941900  0.711030  1.0
  C  C2519  1  0.034600  0.097900  0.288180  1.0
  C  C2520  1  0.965400  0.902100  0.711820  1.0
  C  C2521  1  0.012300  0.157000  0.243400  1.0
  C  C2522  1  0.987700  0.843000  0.756600  1.0
  C  C2523  1  0.080860  0.237950  0.221820  1.0
  C  C2524  1  0.919140  0.762050  0.778180  1.0
  C  C2525  1  0.101110  0.197140  0.234990  1.0
  C  C2526  1  0.898890  0.802860  0.765010  1.0
  C  C2527  1  0.079400  0.170610  0.242060  1.0
  C  C2528  1  0.920600  0.829390  0.757940  1.0
  C  C2529  1  0.037430  0.184900  0.235960  1.0
  C  C2530  1  0.962570  0.815100  0.764040  1.0
  C  C2531  1  0.017170  0.225710  0.222790  1.0
  C  C2532  1  0.982830  0.774290  0.777210  1.0
  C  C2533  1  0.038880  0.252240  0.215720  1.0
  C  C2534  1  0.961120  0.747760  0.784280  1.0
  C  C2535  1  0.018600  0.293060  0.202560  1.0
  C  C2536  1  0.981400  0.706940  0.797440  1.0
  C  C2537  1  0.976700  0.307350  0.196450  1.0
  C  C2538  1  0.023300  0.692650  0.803550  1.0
  C  C2539  1  0.954940  0.280820  0.203520  1.0
  C  C2540  1  0.045060  0.719180  0.796480  1.0
  C  C2541  1  0.975200  0.240000  0.216690  1.0
  C  C2542  1  0.024800  0.760000  0.783310  1.0
  C  C2543  1  0.042200  0.462200  0.087700  1.0
  C  C2544  1  0.957800  0.537800  0.912300  1.0
  C  C2545  1  0.015800  0.450100  0.074100  1.0
  C  C2546  1  0.984200  0.549900  0.925900  1.0
  C  C2547  1  0.071800  0.336000  0.105800  1.0
  C  C2548  1  0.928200  0.664000  0.894200  1.0
  C  C2549  1  0.030400  0.332100  0.108600  1.0
  C  C2550  1  0.969600  0.667900  0.891400  1.0
  C  C2551  1  0.215500  0.301900  0.132400  1.0
  C  C2552  1  0.784500  0.698100  0.867600  1.0
  C  C2553  1  0.185500  0.283100  0.131200  1.0
  C  C2554  1  0.814500  0.716900  0.868800  1.0
  C  C2555  1  0.036800  0.407100  0.814800  1.0
  C  C2556  1  0.963200  0.592900  0.185200  1.0
  C  C2557  1  0.023600  0.388200  0.846500  1.0
  C  C2558  1  0.976400  0.611800  0.153500  1.0
  C  C2559  1  0.978500  0.423300  0.157000  1.0
  C  C2560  1  0.021500  0.576700  0.843000  1.0
  C  C2561  1  0.948100  0.419900  0.186300  1.0
  C  C2562  1  0.051900  0.580100  0.813700  1.0
  C  C2563  1  0.471900  0.114400  0.400300  1.0
  C  C2564  1  0.528100  0.885600  0.599700  1.0
  C  C2565  1  0.475900  0.153800  0.392900  1.0
  C  C2566  1  0.524100  0.846200  0.607100  1.0
  C  C2567  1  0.933900  0.004500  0.440800  1.0
  C  C2568  1  0.066100  0.995500  0.559200  1.0
  C  C2569  1  0.901200  0.014400  0.422200  1.0
  C  C2570  1  0.098800  0.985600  0.577800  1.0
  C  C2571  1  0.610200  0.429800  0.463200  1.0
  C  C2572  1  0.389800  0.570200  0.536800  1.0
  C  C2573  1  0.649000  0.399200  0.445800  1.0
  C  C2574  1  0.351000  0.600800  0.554200  1.0
  C  C2575  1  0.492300  0.046000  0.335600  1.0
  C  C2576  1  0.507700  0.954000  0.664400  1.0
  C  C2577  1  0.530500  0.056400  0.322100  1.0
  C  C2578  1  0.469500  0.943600  0.677900  1.0
  C  C2579  1  0.181000  0.128200  0.024500  1.0
  C  C2580  1  0.819000  0.871800  0.975500  1.0
  C  C2581  1  0.162400  0.143300  0.054900  1.0
  C  C2582  1  0.837600  0.856700  0.945100  1.0
  C  C2583  1  0.144600  0.471100  0.123100  1.0
  C  C2584  1  0.855400  0.528900  0.876900  1.0
  C  C2585  1  0.102600  0.492000  0.141600  1.0
  C  C2586  1  0.897400  0.508000  0.858400  1.0
  N  N2587  1  0.789790  0.498900  0.023330  1.0
  N  N2588  1  0.210210  0.501100  0.976670  1.0
  N  N2589  1  0.885410  0.392850  0.056250  1.0
  N  N2590  1  0.114590  0.607150  0.943750  1.0
  N  N2591  1  0.857080  0.430720  0.041570  1.0
  N  N2592  1  0.142920  0.569280  0.958430  1.0
  N  N2593  1  0.991680  0.169190  0.951890  1.0
  N  N2594  1  0.008320  0.830810  0.048110  1.0
  N  N2595  1  0.993510  0.284050  0.928300  1.0
  N  N2596  1  0.006490  0.715950  0.071700  1.0
  N  N2597  1  0.995800  0.243260  0.939990  1.0
  N  N2598  1  0.004200  0.756740  0.060010  1.0
  N  N2599  1  0.038700  0.220340  0.011260  1.0
  N  N2600  1  0.961300  0.779660  0.988740  1.0
  N  N2601  1  0.921600  0.204100  0.036150  1.0
  N  N2602  1  0.078400  0.795900  0.963850  1.0
  N  N2603  1  0.962740  0.207530  0.023230  1.0
  N  N2604  1  0.037260  0.792470  0.976770  1.0
  N  N2605  1  0.680200  0.397960  0.945630  1.0
  N  N2606  1  0.319800  0.602040  0.054370  1.0
  N  N2607  1  0.803850  0.317270  0.912720  1.0
  N  N2608  1  0.196150  0.682730  0.087280  1.0
  N  N2609  1  0.760140  0.340490  0.926550  1.0
  N  N2610  1  0.239860  0.659510  0.073450  1.0
  N  N2611  1  0.935060  0.457950  0.980810  1.0
  N  N2612  1  0.064940  0.542050  0.019190  1.0
  N  N2613  1  0.842920  0.458650  0.938840  1.0
  N  N2614  1  0.157080  0.541350  0.061160  1.0
  N  N2615  1  0.870450  0.461450  0.956050  1.0
  N  N2616  1  0.129550  0.538550  0.043950  1.0
  N  N2617  1  0.728280  0.262010  0.981380  1.0
  N  N2618  1  0.271720  0.737990  0.018620  1.0
  N  N2619  1  0.712800  0.349700  0.031440  1.0
  N  N2620  1  0.287200  0.650300  0.968560  1.0
  N  N2621  1  0.715900  0.324500  0.010550  1.0
  N  N2622  1  0.284100  0.675500  0.989450  1.0
  N  N2623  1  0.357600  0.578740  0.201780  1.0
  N  N2624  1  0.642400  0.421260  0.798220  1.0
  N  N2625  1  0.321300  0.567900  0.299510  1.0
  N  N2626  1  0.678700  0.432100  0.700490  1.0
  N  N2627  1  0.338820  0.572980  0.266360  1.0
  N  N2628  1  0.661180  0.427020  0.733640  1.0
  N  N2629  1  0.410200  0.333520  0.446630  1.0
  N  N2630  1  0.589800  0.666480  0.553370  1.0
  N  N2631  1  0.472500  0.405900  0.385000  1.0
  N  N2632  1  0.527500  0.594100  0.615000  1.0
  N  N2633  1  0.447210  0.385900  0.408320  1.0
  N  N2634  1  0.552790  0.614100  0.591680  1.0
  N  N2635  1  0.373800  0.468380  0.446940  1.0
  N  N2636  1  0.626200  0.531620  0.553060  1.0
  N  N2637  1  0.302700  0.426660  0.415180  1.0
  N  N2638  1  0.697300  0.573340  0.584820  1.0
  N  N2639  1  0.330400  0.435950  0.427850  1.0
  N  N2640  1  0.669600  0.564050  0.572150  1.0
  N  N2641  1  0.374300  0.340360  0.227280  1.0
  N  N2642  1  0.625700  0.659640  0.772720  1.0
  N  N2643  1  0.428630  0.287110  0.307670  1.0
  N  N2644  1  0.571370  0.712890  0.692330  1.0
  N  N2645  1  0.403780  0.306190  0.283110  1.0
  N  N2646  1  0.596220  0.693810  0.716890  1.0
  N  N2647  1  0.436000  0.583800  0.267590  1.0
  N  N2648  1  0.564000  0.416200  0.732410  1.0
  N  N2649  1  0.464500  0.481200  0.229170  1.0
  N  N2650  1  0.535500  0.518800  0.770830  1.0
  N  N2651  1  0.450290  0.519600  0.239270  1.0
  N  N2652  1  0.549710  0.480400  0.760730  1.0
  N  N2653  1  0.301430  0.306520  0.325540  1.0
  N  N2654  1  0.698570  0.693480  0.674460  1.0
  N  N2655  1  0.284000  0.424200  0.283210  1.0
  N  N2656  1  0.716000  0.575800  0.716790  1.0
  N  N2657  1  0.294310  0.381490  0.293820  1.0
  N  N2658  1  0.705690  0.618510  0.706180  1.0
  N  N2659  1  0.750300  0.937000  0.437460  1.0
  N  N2660  1  0.249700  0.063000  0.562540  1.0
  N  N2661  1  0.686500  0.989200  0.361980  1.0
  N  N2662  1  0.313500  0.010800  0.638020  1.0
  N  N2663  1  0.706200  0.966820  0.388880  1.0
  N  N2664  1  0.293800  0.033180  0.611120  1.0
  N  N2665  1  0.836150  0.870950  0.175250  1.0
  N  N2666  1  0.163850  0.129050  0.824750  1.0
  N  N2667  1  0.777200  0.834600  0.265560  1.0
  N  N2668  1  0.222800  0.165400  0.734440  1.0
  N  N2669  1  0.792100  0.851720  0.234190  1.0
  N  N2670  1  0.207900  0.148280  0.765810  1.0
  N  N2671  1  0.694100  0.942900  0.222160  1.0
  N  N2672  1  0.305900  0.057100  0.777840  1.0
  N  N2673  1  0.798700  0.974400  0.210400  1.0
  N  N2674  1  0.201300  0.025600  0.789600  1.0
  N  N2675  1  0.767500  0.958030  0.211800  1.0
  N  N2676  1  0.232500  0.041970  0.788200  1.0
  N  N2677  1  0.003800  0.844500  0.354950  1.0
  N  N2678  1  0.996200  0.155500  0.645050  1.0
  N  N2679  1  0.956500  0.814100  0.294140  1.0
  N  N2680  1  0.043500  0.185900  0.705860  1.0
  N  N2681  1  0.975200  0.827300  0.311900  1.0
  N  N2682  1  0.024800  0.172700  0.688100  1.0
  N  N2683  1  0.663000  0.889600  0.411050  1.0
  N  N2684  1  0.337000  0.110400  0.588950  1.0
  N  N2685  1  0.798100  0.834800  0.393870  1.0
  N  N2686  1  0.201900  0.165200  0.606130  1.0
  N  N2687  1  0.752300  0.857400  0.402510  1.0
  N  N2688  1  0.247700  0.142600  0.597490  1.0
  N  N2689  1  0.018000  0.896500  0.247280  1.0
  N  N2690  1  0.982000  0.103500  0.752720  1.0
  N  N2691  1  0.921600  0.956700  0.316590  1.0
  N  N2692  1  0.078400  0.043300  0.683410  1.0
  N  N2693  1  0.956800  0.931530  0.295810  1.0
  N  N2694  1  0.043200  0.068470  0.704190  1.0
  N  N2695  1  0.842600  0.500100  0.316000  1.0
  N  N2696  1  0.157400  0.499900  0.684000  1.0
  N  N2697  1  0.790700  0.417400  0.370940  1.0
  N  N2698  1  0.209300  0.582600  0.629060  1.0
  N  N2699  1  0.807400  0.448370  0.355480  1.0
  N  N2700  1  0.192600  0.551630  0.644520  1.0
  N  N2701  1  0.960300  0.175400  0.495700  1.0
  N  N2702  1  0.039700  0.824600  0.504300  1.0
  N  N2703  1  0.919500  0.299900  0.487460  1.0
  N  N2704  1  0.080500  0.700100  0.512540  1.0
  N  N2705  1  0.926300  0.258000  0.490640  1.0
  N  N2706  1  0.073700  0.742000  0.509360  1.0
  N  N2707  1  0.816100  0.261100  0.498600  1.0
  N  N2708  1  0.183900  0.738900  0.501400  1.0
  N  N2709  1  0.899500  0.205900  0.421510  1.0
  N  N2710  1  0.100500  0.794100  0.578490  1.0
  N  N2711  1  0.875200  0.221800  0.450150  1.0
  N  N2712  1  0.124800  0.778200  0.549850  1.0
  N  N2713  1  0.088250  0.340410  0.289060  1.0
  N  N2714  1  0.911750  0.659590  0.710940  1.0
  N  N2715  1  0.067800  0.281000  0.380380  1.0
  N  N2716  1  0.932200  0.719000  0.619620  1.0
  N  N2717  1  0.075730  0.297000  0.347450  1.0
  N  N2718  1  0.924270  0.703000  0.652550  1.0
  N  N2719  1  0.786800  0.495070  0.422350  1.0
  N  N2720  1  0.213200  0.504930  0.577650  1.0
  N  N2721  1  0.919000  0.454400  0.383260  1.0
  N  N2722  1  0.081000  0.545600  0.616740  1.0
  N  N2723  1  0.872620  0.470320  0.392470  1.0
  N  N2724  1  0.127380  0.529680  0.607530  1.0
  N  N2725  1  0.088400  0.211300  0.314890  1.0
  N  N2726  1  0.911600  0.788700  0.685110  1.0
  N  N2727  1  0.992800  0.314770  0.277740  1.0
  N  N2728  1  0.007200  0.685230  0.722260  1.0
  N  N2729  1  0.028910  0.283200  0.290470  1.0
  N  N2730  1  0.971090  0.716800  0.709530  1.0
  N  N2731  1  0.849880  0.551820  0.970960  1.0
  N  N2732  1  0.150120  0.448180  0.029040  1.0
  N  N2733  1  0.878390  0.522430  0.060370  1.0
  N  N2734  1  0.121610  0.477570  0.939630  1.0
  N  N2735  1  0.869740  0.527200  0.029750  1.0
  N  N2736  1  0.130260  0.472800  0.970250  1.0
  N  N2737  1  0.625340  0.617000  0.174520  1.0
  N  N2738  1  0.374660  0.383000  0.825480  1.0
  N  N2739  1  0.687090  0.499200  0.152160  1.0
  N  N2740  1  0.312910  0.500800  0.847840  1.0
  N  N2741  1  0.670600  0.538100  0.162000  1.0
  N  N2742  1  0.329400  0.461900  0.838000  1.0
  N  N2743  1  0.356600  0.657050  0.233020  1.0
  N  N2744  1  0.643400  0.342950  0.766980  1.0
  N  N2745  1  0.465400  0.612100  0.165010  1.0
  N  N2746  1  0.534600  0.387900  0.834990  1.0
  N  N2747  1  0.429700  0.622800  0.190940  1.0
  N  N2748  1  0.570300  0.377200  0.809060  1.0
  N  N2749  1  0.676900  0.610600  0.231010  1.0
  N  N2750  1  0.323100  0.389400  0.768990  1.0
  N  N2751  1  0.626300  0.520700  0.258200  1.0
  N  N2752  1  0.373700  0.479300  0.741800  1.0
  N  N2753  1  0.644900  0.550500  0.244200  1.0
  N  N2754  1  0.355100  0.449500  0.755800  1.0
  N  N2755  1  0.817000  0.567400  0.367400  1.0
  N  N2756  1  0.183000  0.432600  0.632600  1.0
  N  N2757  1  0.704100  0.563700  0.359080  1.0
  N  N2758  1  0.295900  0.436300  0.640920  1.0
  N  N2759  1  0.746700  0.558300  0.361010  1.0
  N  N2760  1  0.253300  0.441700  0.638990  1.0
  N  N2761  1  0.732700  0.594300  0.156780  1.0
  N  N2762  1  0.267300  0.405700  0.843220  1.0
  N  N2763  1  0.777700  0.483900  0.216310  1.0
  N  N2764  1  0.222300  0.516100  0.783690  1.0
  N  N2765  1  0.756060  0.523400  0.199620  1.0
  N  N2766  1  0.243940  0.476600  0.800380  1.0
  N  N2767  1  0.342000  0.394300  0.502500  1.0
  N  N2768  1  0.658000  0.605700  0.497500  1.0
  N  N2769  1  0.469330  0.375400  0.496520  1.0
  N  N2770  1  0.530670  0.624600  0.503480  1.0
  N  N2771  1  0.426800  0.380730  0.494260  1.0
  N  N2772  1  0.573200  0.619270  0.505740  1.0
  N  N2773  1  0.611600  0.114100  0.516520  1.0
  N  N2774  1  0.388400  0.885900  0.483480  1.0
  N  N2775  1  0.582200  0.192500  0.432950  1.0
  N  N2776  1  0.417800  0.807500  0.567050  1.0
  N  N2777  1  0.595700  0.168200  0.461680  1.0
  N  N2778  1  0.404300  0.831800  0.538320  1.0
  N  N2779  1  0.711500  0.863800  0.479010  1.0
  N  N2780  1  0.288500  0.136200  0.520990  1.0
  N  N2781  1  0.610700  0.976300  0.470810  1.0
  N  N2782  1  0.389300  0.023700  0.529190  1.0
  N  N2783  1  0.649600  0.940200  0.469060  1.0
  N  N2784  1  0.350400  0.059800  0.530940  1.0
  N  N2785  1  0.688410  0.136700  0.529990  1.0
  N  N2786  1  0.311590  0.863300  0.470010  1.0
  N  N2787  1  0.726400  0.106100  0.440530  1.0
  N  N2788  1  0.273600  0.893900  0.559470  1.0
  N  N2789  1  0.707300  0.119330  0.470670  1.0
  N  N2790  1  0.292700  0.880670  0.529330  1.0
  N  N2791  1  0.875500  0.215100  0.556710  1.0
  N  N2792  1  0.124500  0.784900  0.443290  1.0
  N  N2793  1  0.863500  0.129000  0.520610  1.0
  N  N2794  1  0.136500  0.871000  0.479390  1.0
  N  N2795  1  0.867400  0.161930  0.529250  1.0
  N  N2796  1  0.132600  0.838070  0.470750  1.0
  N  N2797  1  0.587400  0.209500  0.527250  1.0
  N  N2798  1  0.412600  0.790500  0.472750  1.0
  N  N2799  1  0.675820  0.242100  0.453840  1.0
  N  N2800  1  0.324180  0.757900  0.546160  1.0
  N  N2801  1  0.648900  0.224900  0.478300  1.0
  N  N2802  1  0.351100  0.775100  0.521700  1.0
  N  N2803  1  0.683100  0.317600  0.915580  1.0
  N  N2804  1  0.316900  0.682400  0.084420  1.0
  N  N2805  1  0.594400  0.342900  0.998970  1.0
  N  N2806  1  0.405600  0.657100  0.001030  1.0
  N  N2807  1  0.629840  0.332050  0.972850  1.0
  N  N2808  1  0.370160  0.667950  0.027150  1.0
  N  N2809  1  0.592000  0.111000  0.107890  1.0
  N  N2810  1  0.408000  0.889000  0.892110  1.0
  N  N2811  1  0.677000  0.162900  0.105990  1.0
  N  N2812  1  0.323000  0.837100  0.894010  1.0
  N  N2813  1  0.642800  0.150000  0.108000  1.0
  N  N2814  1  0.357200  0.850000  0.892000  1.0
  N  N2815  1  0.274780  0.333000  0.249470  1.0
  N  N2816  1  0.725220  0.667000  0.750530  1.0
  N  N2817  1  0.373650  0.219190  0.260910  1.0
  N  N2818  1  0.626350  0.780810  0.739090  1.0
  N  N2819  1  0.342220  0.260260  0.258920  1.0
  N  N2820  1  0.657780  0.739740  0.741080  1.0
  N  N2821  1  0.548470  0.212500  0.081400  1.0
  N  N2822  1  0.451530  0.787500  0.918600  1.0
  N  N2823  1  0.549330  0.260200  0.156400  1.0
  N  N2824  1  0.450670  0.739800  0.843600  1.0
  N  N2825  1  0.550290  0.238180  0.133830  1.0
  N  N2826  1  0.449710  0.761820  0.866170  1.0
  N  N2827  1  0.735900  0.863600  0.180300  1.0
  N  N2828  1  0.264100  0.136400  0.819700  1.0
  N  N2829  1  0.748600  0.966600  0.121600  1.0
  N  N2830  1  0.251400  0.033400  0.878400  1.0
  N  N2831  1  0.745000  0.932900  0.145240  1.0
  N  N2832  1  0.255000  0.067100  0.854760  1.0
  N  N2833  1  0.499150  0.170470  0.148230  1.0
  N  N2834  1  0.500850  0.829530  0.851770  1.0
  N  N2835  1  0.591050  0.123300  0.205080  1.0
  N  N2836  1  0.408950  0.876700  0.794920  1.0
  N  N2837  1  0.563700  0.140010  0.182090  1.0
  N  N2838  1  0.436300  0.859990  0.817910  1.0
  N  N2839  1  0.094050  0.170160  0.947120  1.0
  N  N2840  1  0.905950  0.829840  0.052880  1.0
  N  N2841  1  0.060140  0.092650  0.024140  1.0
  N  N2842  1  0.939860  0.907350  0.975860  1.0
  N  N2843  1  0.066650  0.124330  0.999480  1.0
  N  N2844  1  0.933350  0.875670  0.000520  1.0
  N  N2845  1  0.155100  0.108800  0.180250  1.0
  N  N2846  1  0.844900  0.891200  0.819750  1.0
  N  N2847  1  0.039800  0.187700  0.151370  1.0
  N  N2848  1  0.960200  0.812300  0.848630  1.0
  N  N2849  1  0.077800  0.155500  0.161210  1.0
  N  N2850  1  0.922200  0.844500  0.838790  1.0
  N  N2851  1  0.081800  0.811800  0.290400  1.0
  N  N2852  1  0.918200  0.188200  0.709600  1.0
  N  N2853  1  0.077400  0.913570  0.314510  1.0
  N  N2854  1  0.922600  0.086430  0.685490  1.0
  N  N2855  1  0.072760  0.882200  0.304140  1.0
  N  N2856  1  0.927240  0.117800  0.695860  1.0
  N  N2857  1  0.130600  0.062540  0.135460  1.0
  N  N2858  1  0.869400  0.937460  0.864540  1.0
  N  N2859  1  0.009600  0.063920  0.184010  1.0
  N  N2860  1  0.990400  0.936080  0.815990  1.0
  N  N2861  1  0.051700  0.065110  0.171140  1.0
  N  N2862  1  0.948300  0.934890  0.828860  1.0
  N  N2863  1  0.171330  0.242700  0.308950  1.0
  N  N2864  1  0.828670  0.757300  0.691050  1.0
  N  N2865  1  0.145400  0.250100  0.222520  1.0
  N  N2866  1  0.854600  0.749900  0.777480  1.0
  N  N2867  1  0.147400  0.249600  0.254230  1.0
  N  N2868  1  0.852600  0.750400  0.745770  1.0
  N  N2869  1  0.136800  0.023230  0.211540  1.0
  N  N2870  1  0.863200  0.976770  0.788460  1.0
  N  N2871  1  0.035500  0.117070  0.255870  1.0
  N  N2872  1  0.964500  0.882930  0.744130  1.0
  N  N2873  1  0.070100  0.089130  0.236690  1.0
  N  N2874  1  0.929900  0.910870  0.763310  1.0
  N  N2875  1  0.992000  0.441200  0.066500  1.0
  N  N2876  1  0.008000  0.558800  0.933500  1.0
  N  N2877  1  0.998100  0.330400  0.109200  1.0
  N  N2878  1  0.001900  0.669600  0.890800  1.0
  N  N2879  1  0.164500  0.266100  0.129500  1.0
  N  N2880  1  0.835500  0.733900  0.870500  1.0
  N  N2881  1  0.012700  0.373700  0.871500  1.0
  N  N2882  1  0.987300  0.626300  0.128500  1.0
  N  N2883  1  0.924300  0.416400  0.209900  1.0
  N  N2884  1  0.075700  0.583600  0.790100  1.0
  N  N2885  1  0.480700  0.184600  0.387400  1.0
  N  N2886  1  0.519300  0.815400  0.612600  1.0
  N  N2887  1  0.877200  0.017300  0.407000  1.0
  N  N2888  1  0.122800  0.982700  0.593000  1.0
  N  N2889  1  0.681100  0.375100  0.433200  1.0
  N  N2890  1  0.318900  0.624900  0.566800  1.0
  N  N2891  1  0.561700  0.062800  0.312100  1.0
  N  N2892  1  0.438300  0.937200  0.687900  1.0
  N  N2893  1  0.153600  0.160400  0.076600  1.0
  N  N2894  1  0.846400  0.839600  0.923400  1.0
  N  N2895  1  0.071600  0.507500  0.161100  1.0
  N  N2896  1  0.928400  0.492500  0.838900  1.0
  F  F2897  1  0.997600  0.941400  0.394700  1.0
  F  F2898  1  0.002400  0.058600  0.605300  1.0
  F  F2899  1  0.069700  0.909300  0.386200  1.0
  F  F2900  1  0.930300  0.090700  0.613800  1.0
  F  F2901  1  0.031500  0.893900  0.432000  1.0
  F  F2902  1  0.968500  0.106100  0.568000  1.0
  F  F2903  1  0.038200  0.954100  0.419500  1.0
  F  F2904  1  0.961800  0.045900  0.580500  1.0
  F  F2905  1  0.519900  0.975200  0.567200  1.0
  F  F2906  1  0.480100  0.024800  0.432800  1.0
  F  F2907  1  0.455400  0.995100  0.599900  1.0
  F  F2908  1  0.544600  0.004900  0.400100  1.0
  F  F2909  1  0.500500  0.026000  0.595100  1.0
  F  F2910  1  0.499500  0.974000  0.404900  1.0
  F  F2911  1  0.469900  0.034700  0.553100  1.0
  F  F2912  1  0.530100  0.965300  0.446900  1.0
  F  F2913  1  0.098500  0.380000  0.142980  1.0
  F  F2914  1  0.901500  0.620000  0.857020  1.0
  F  F2915  1  0.062500  0.365300  0.191490  1.0
  F  F2916  1  0.937500  0.634700  0.808510  1.0
  F  F2917  1  0.083500  0.416600  0.180300  1.0
  F  F2918  1  0.916500  0.583400  0.819700  1.0
  F  F2919  1  0.132600  0.352200  0.183100  1.0
  F  F2920  1  0.867400  0.647800  0.816900  1.0
  F  F2921  1  0.896800  0.067100  0.211800  1.0
  F  F2922  1  0.103200  0.932900  0.788200  1.0
  F  F2923  1  0.839100  0.104500  0.187000  1.0
  F  F2924  1  0.160900  0.895500  0.813000  1.0
  F  F2925  1  0.840200  0.047600  0.221700  1.0
  F  F2926  1  0.159800  0.952400  0.778300  1.0
  F  F2927  1  0.889200  0.041600  0.172900  1.0
  F  F2928  1  0.110800  0.958400  0.827100  1.0
  F  F2929  1  0.913100  0.579910  0.121230  1.0
  F  F2930  1  0.086900  0.420090  0.878770  1.0
  F  F2931  1  0.974860  0.530090  0.135780  1.0
  F  F2932  1  0.025140  0.469910  0.864220  1.0
  F  F2933  1  0.923500  0.514850  0.125530  1.0
  F  F2934  1  0.076500  0.485150  0.874470  1.0
  F  F2935  1  0.910200  0.541100  0.169390  1.0
  F  F2936  1  0.089800  0.458900  0.830610  1.0
  F  F2937  1  0.547800  0.244800  0.347600  1.0
  F  F2938  1  0.452200  0.755200  0.652400  1.0
  F  F2939  1  0.593400  0.277200  0.337300  1.0
  F  F2940  1  0.406600  0.722800  0.662700  1.0
  F  F2941  1  0.566600  0.275600  0.298400  1.0
  F  F2942  1  0.433400  0.724400  0.701600  1.0
  F  F2943  1  0.614200  0.219600  0.319300  1.0
  F  F2944  1  0.385800  0.780400  0.680700  1.0
  F  F2945  1  0.682100  0.252800  0.326100  1.0
  F  F2946  1  0.317900  0.747200  0.673900  1.0
  F  F2947  1  0.698300  0.189900  0.316200  1.0
  F  F2948  1  0.301700  0.810100  0.683800  1.0
  F  F2949  1  0.694200  0.198700  0.366500  1.0
  F  F2950  1  0.305800  0.801300  0.633500  1.0
  F  F2951  1  0.750300  0.202200  0.327100  1.0
  F  F2952  1  0.249700  0.797800  0.672900  1.0
  F  F2953  1  0.405100  0.575400  0.095100  1.0
  F  F2954  1  0.594900  0.424600  0.904900  1.0
  F  F2955  1  0.450200  0.595700  0.103200  1.0
  F  F2956  1  0.549800  0.404300  0.896800  1.0
  F  F2957  1  0.458200  0.531900  0.121200  1.0
  F  F2958  1  0.541800  0.468100  0.878800  1.0
  F  F2959  1  0.473700  0.553200  0.069100  1.0
  F  F2960  1  0.526300  0.446800  0.930900  1.0
  F  F2961  1  0.860900  0.234700  0.235000  1.0
  F  F2962  1  0.139100  0.765300  0.765000  1.0
  F  F2963  1  0.850000  0.201700  0.204600  1.0
  F  F2964  1  0.150000  0.798300  0.795400  1.0
  F  F2965  1  0.913600  0.178200  0.221000  1.0
  F  F2966  1  0.086400  0.821800  0.779000  1.0
  F  F2967  1  0.853100  0.175800  0.254600  1.0
  F  F2968  1  0.146900  0.824200  0.745400  1.0
  F  F2969  1  0.913700  0.934400  0.072000  1.0
  F  F2970  1  0.086300  0.065600  0.928000  1.0
  F  F2971  1  0.844200  0.946700  0.079100  1.0
  F  F2972  1  0.155800  0.053300  0.920900  1.0
  F  F2973  1  0.867700  0.969400  0.109100  1.0
  F  F2974  1  0.132300  0.030600  0.890900  1.0
  F  F2975  1  0.866700  0.996100  0.059500  1.0
  F  F2976  1  0.133300  0.003900  0.940500  1.0
  F  F2977  1  0.890300  0.039200  0.939600  1.0
  F  F2978  1  0.109700  0.960800  0.060400  1.0
  F  F2979  1  0.938100  0.062900  0.903700  1.0
  F  F2980  1  0.061900  0.937100  0.096300  1.0
  F  F2981  1  0.947300  0.039500  0.952800  1.0
  F  F2982  1  0.052700  0.960500  0.047200  1.0
  F  F2983  1  0.955000  0.996600  0.924100  1.0
  F  F2984  1  0.045000  0.003400  0.075900  1.0
  F  F2985  1  0.354700  0.154300  0.387900  1.0
  F  F2986  1  0.645300  0.845700  0.612100  1.0
  F  F2987  1  0.399300  0.114200  0.355200  1.0
  F  F2988  1  0.600700  0.885800  0.644800  1.0
  F  F2989  1  0.394300  0.179300  0.349530  1.0
  F  F2990  1  0.605700  0.820700  0.650470  1.0
  F  F2991  1  0.347700  0.166300  0.336600  1.0
  F  F2992  1  0.652300  0.833700  0.663400  1.0
  F  F2993  1  0.662500  0.489800  0.430000  1.0
  F  F2994  1  0.337500  0.510200  0.570000  1.0
  F  F2995  1  0.592500  0.528000  0.444600  1.0
  F  F2996  1  0.407500  0.472000  0.555400  1.0
  F  F2997  1  0.640100  0.556300  0.423100  1.0
  F  F2998  1  0.359900  0.443700  0.576900  1.0
  F  F2999  1  0.639600  0.522700  0.470700  1.0
  F  F3000  1  0.360400  0.477300  0.529300  1.0
  F  F3001  1  0.555100  0.317900  0.205200  1.0
  F  F3002  1  0.444900  0.682100  0.794800  1.0
  F  F3003  1  0.525900  0.376900  0.223900  1.0
  F  F3004  1  0.474100  0.623100  0.776100  1.0
  F  F3005  1  0.538600  0.378100  0.171700  1.0
  F  F3006  1  0.461400  0.621900  0.828300  1.0
  F  F3007  1  0.596100  0.353700  0.197600  1.0
  F  F3008  1  0.403900  0.646300  0.802400  1.0
  F  F3009  1  0.371600  0.243200  0.542600  1.0
  F  F3010  1  0.628400  0.756800  0.457400  1.0
  F  F3011  1  0.303000  0.285400  0.529400  1.0
  F  F3012  1  0.697000  0.714600  0.470600  1.0
  F  F3013  1  0.329300  0.213900  0.532400  1.0
  F  F3014  1  0.670700  0.786100  0.467600  1.0
  F  F3015  1  0.307700  0.244300  0.577800  1.0
  F  F3016  1  0.692300  0.755700  0.422200  1.0
  F  F3017  1  0.739000  0.339000  0.264100  1.0
  F  F3018  1  0.261000  0.661000  0.735900  1.0
  F  F3019  1  0.767200  0.335500  0.212100  1.0
  F  F3020  1  0.232800  0.664500  0.787900  1.0
  F  F3021  1  0.718100  0.397800  0.228000  1.0
  F  F3022  1  0.281900  0.602200  0.772000  1.0
  F  F3023  1  0.694600  0.347100  0.230900  1.0
  F  F3024  1  0.305400  0.652900  0.769100  1.0
  F  F3025  1  0.871000  0.189500  0.313700  1.0
  F  F3026  1  0.129000  0.810500  0.686300  1.0
  F  F3027  1  0.881300  0.238600  0.325900  1.0
  F  F3028  1  0.118700  0.761400  0.674100  1.0
  F  F3029  1  0.923100  0.210200  0.282800  1.0
  F  F3030  1  0.076900  0.789800  0.717200  1.0
  F  F3031  1  0.932700  0.175100  0.329700  1.0
  F  F3032  1  0.067300  0.824900  0.670300  1.0
  F  F3033  1  0.340700  0.169200  0.138300  1.0
  F  F3034  1  0.659300  0.830800  0.861700  1.0
  F  F3035  1  0.291200  0.153700  0.178000  1.0
  F  F3036  1  0.708800  0.846300  0.822000  1.0
  F  F3037  1  0.295000  0.216100  0.170200  1.0
  F  F3038  1  0.705000  0.783900  0.829800  1.0
  F  F3039  1  0.269000  0.201200  0.135500  1.0
  F  F3040  1  0.731000  0.798800  0.864500  1.0
  F  F3041  1  0.742700  0.391200  0.147400  1.0
  F  F3042  1  0.257300  0.608800  0.852600  1.0
  F  F3043  1  0.704200  0.352200  0.157200  1.0
  F  F3044  1  0.295800  0.647800  0.842800  1.0
  F  F3045  1  0.761600  0.343600  0.117400  1.0
  F  F3046  1  0.238400  0.656400  0.882600  1.0
  F  F3047  1  0.702000  0.400900  0.113700  1.0
  F  F3048  1  0.298000  0.599100  0.886300  1.0
  F  F3049  1  0.813400  0.118400  0.319400  1.0
  F  F3050  1  0.186600  0.881600  0.680600  1.0
  F  F3051  1  0.802800  0.065500  0.307500  1.0
  F  F3052  1  0.197200  0.934500  0.692500  1.0
  F  F3053  1  0.808700  0.062900  0.358400  1.0
  F  F3054  1  0.191300  0.937100  0.641600  1.0
  F  F3055  1  0.747200  0.111500  0.338800  1.0
  F  F3056  1  0.252800  0.888500  0.661200  1.0
  F  F3057  1  0.565400  0.376800  0.512500  1.0
  F  F3058  1  0.434600  0.623200  0.487500  1.0
  F  F3059  1  0.553800  0.425500  0.539600  1.0
  F  F3060  1  0.446200  0.574500  0.460400  1.0
  F  F3061  1  0.618500  0.372800  0.533200  1.0
  F  F3062  1  0.381500  0.627200  0.466800  1.0
  F  F3063  1  0.558400  0.363200  0.564900  1.0
  F  F3064  1  0.441600  0.636800  0.435100  1.0
  F  F3065  1  0.907900  0.673200  0.343800  1.0
  F  F3066  1  0.092100  0.326800  0.656200  1.0
  F  F3067  1  0.849000  0.729100  0.334100  1.0
  F  F3068  1  0.151000  0.270900  0.665900  1.0
  F  F3069  1  0.913400  0.726400  0.308500  1.0
  F  F3070  1  0.086600  0.273600  0.691500  1.0
  F  F3071  1  0.893200  0.731100  0.360100  1.0
  F  F3072  1  0.106800  0.268900  0.639900  1.0
