
#######################################################################
#
#                 Cambridge Crystallographic Data Centre
#                                CCDC 
#
#######################################################################
#
# If this CIF has been generated from an entry in the Cambridge 
# Structural Database, then it will include bibliographic, chemical, 
# crystal, experimental, refinement or atomic coordinate data resulting 
# from the CCDC's data processing and validation procedures.
#
#######################################################################

data_SEZFOU
_chemical_formula_moiety         
'C92 H82 B4 Cd3 F16 N18 O4 2+,2(C1 H3 N1 O2),2(B1 F4 1-)'
_chemical_name_systematic        
'tris(\m~2~-1,4-bis(3-(2-Pyridyl)-1H-pyrazolylmethyl)naphthalene)-bis(ethyl acetate-O)-tetrakis(tetrafluoroborato-F)-tri-cadmium bis(tetrafluoroborate) nitromethane solvate'
_symmetry_cell_setting           monoclinic
_symmetry_space_group_name_H-M   'C 2/c'
_symmetry_Int_Tables_number      15
_space_group_name_Hall           '-C 2yn'
loop_
_symmetry_equiv_pos_site_id
_symmetry_equiv_pos_as_xyz
1 x,y,z
2 -x,y,1/2-z
3 1/2+x,1/2+y,z
4 1/2-x,1/2+y,1/2-z
5 -x,-y,-z
6 x,-y,1/2+z
7 1/2-x,1/2-y,-z
8 1/2+x,1/2-y,1/2+z
_cell_length_a                   28.1552(15)
_cell_length_b                   25.0616(15)
_cell_length_c                   16.5885(9)
_cell_angle_alpha                90
_cell_angle_beta                 110.493(5)
_cell_angle_gamma                90
_cell_volume                     10964.3
_exptl_crystal_colour            colorless
_exptl_crystal_description       block
_cell_formula_units_Z            4
loop_
_atom_site_label
_atom_site_type_symbol
_atom_site_fract_x
_atom_site_fract_y
_atom_site_fract_z
Cd1 Cd 1.0000 1.02933(4) 0.7500
Cd2 Cd 0.81865(3) 0.67760(3) 0.74288(5)
N1 N 1.05852(18) 1.0212(2) 0.6821(3)
C1 C 1.04901(17) 0.9809(2) 0.6208(3)
C2 C 1.0836(2) 0.9708(2) 0.5800(3)
H1 H 1.0771 0.9433 0.5382
C3 C 1.12768(19) 1.0010(2) 0.6004(4)
H2 H 1.1513 0.9940 0.5725
C4 C 1.13719(17) 1.0412(2) 0.6617(4)
H3 H 1.1673 1.0619 0.6756
C5 C 1.1026(2) 1.0514(2) 0.7025(3)
H4 H 1.1091 1.0789 0.7443
N2 N 0.92303(16) 0.9398(2) 0.5997(3)
N3 N 0.96754(19) 0.97099(18) 0.6362(3)
C6 C 1.00337(16) 0.9545(2) 0.5987(4)
C7 C 0.9810(2) 0.9131(2) 0.5390(3)
H5 H 0.9965 0.8947 0.5047
C8 C 0.9313(2) 0.90403(19) 0.5396(3)
H6 H 0.9078 0.8785 0.5058
C9 C 0.8807(3) 0.9476(4) 0.6198(6)
H7 H 0.8506 0.9435 0.5668
H8 H 0.8809 0.9848 0.6401
N4 N 0.8708(3) 0.6088(2) 0.8038(5)
C10 C 0.9142(3) 0.6217(2) 0.8728(5)
C11 C 0.9481(3) 0.5819(3) 0.9153(6)
H9 H 0.9778 0.5907 0.9625
C12 C 0.9384(4) 0.5291(3) 0.8889(7)
H10 H 0.9615 0.5019 0.9180
C13 C 0.8950(4) 0.5162(2) 0.8199(7)
H11 H 0.8884 0.4801 0.8019
C14 C 0.8611(3) 0.5560(3) 0.7773(5)
H12 H 0.8314 0.5472 0.7302
N5 N 0.8967(2) 0.75985(19) 0.9040(4)
N6 N 0.8826(2) 0.7105(2) 0.8600(3)
C15 C 0.9225(3) 0.67353(19) 0.8973(4)
C16 C 0.9612(2) 0.7000(3) 0.9644(4)
H13 H 0.9923 0.6847 1.0003
C17 C 0.9452(2) 0.7533(2) 0.9686(4)
H14 H 0.9637 0.7800 1.0077
C18 C 0.8626(4) 0.8029(4) 0.8845(6)
H15 H 0.8673 0.8229 0.9383
H16 H 0.8277 0.7886 0.8636
C19 C 0.87527(16) 0.90929(18) 0.6895(3)
C20 C 0.91173(14) 0.8701(2) 0.7236(3)
H17 H 0.9391 0.8664 0.7031
C21 C 0.90814(15) 0.83634(18) 0.7877(3)
H18 H 0.9331 0.8096 0.8110
C22 C 0.86808(17) 0.84178(17) 0.8177(3)
C23 C 0.83162(13) 0.88097(14) 0.7836(2)
C24 C 0.83521(13) 0.91473(13) 0.7195(2)
C25 C 0.79875(17) 0.95392(17) 0.6854(3)
H19 H 0.8012 0.9770 0.6416
C26 C 0.75869(16) 0.9594(2) 0.7155(4)
H20 H 0.7338 0.9862 0.6922
C27 C 0.75509(16) 0.9256(2) 0.7796(4)
H21 H 0.7277 0.9293 0.8001
C28 C 0.79155(17) 0.8864(2) 0.8137(3)
H22 H 0.7891 0.8633 0.8575
N7 N 0.7684(2) 0.7478(2) 0.6834(4)
C29 C 0.78098(19) 0.7770(2) 0.6225(4)
C30 C 0.7532(2) 0.8222(2) 0.5858(3)
H23 H 0.7618 0.8422 0.5442
C31 C 0.7129(2) 0.8383(2) 0.6101(4)
H24 H 0.6939 0.8692 0.5850
C32 C 0.7003(2) 0.8091(3) 0.6710(4)
H25 H 0.6728 0.8200 0.6876
C33 C 0.7281(2) 0.7639(3) 0.7077(4)
H26 H 0.7195 0.7439 0.7494
N8 N 0.8779(2) 0.6965(2) 0.5924(4)
N9 N 0.8423(2) 0.7091(2) 0.6325(3)
C34 C 0.8190(2) 0.7584(2) 0.5983(4)
C35 C 0.8402(3) 0.7762(2) 0.5370(4)
H27 H 0.8316 0.8081 0.5042
C36 C 0.8766(2) 0.7379(3) 0.5333(4)
H28 H 0.8966 0.7397 0.4977
C37 C 0.9020(4) 0.6479(4) 0.6067(8)
H29 H 0.9082 0.6367 0.5540
H30 H 0.8795 0.6210 0.6186
C38 C 0.9532(4) 0.6494(4) 0.6832(8)
C39 C 0.9770(4) 0.6964(4) 0.7180(7)
H31 H 0.9609 0.7294 0.6967
C40 C 0.9781(4) 0.6016(5) 0.7174(9)
C41 C 0.9539(6) 0.5505(6) 0.6820(12)
H32 H 0.9219 0.5503 0.6367
C42 C 0.9770(6) 0.5043(7) 0.7137(14)
H33 H 0.9627 0.4715 0.6877
B1 B 1.0785(4) 1.1225(4) 0.8886(6)
F1 F 1.0438(5) 1.1064(4) 0.8120(6)
F2 F 1.1100(4) 1.0778(3) 0.9165(7)
F3 F 1.1055(5) 1.1667(5) 0.8828(11)
F4 F 1.0551(3) 1.1321(3) 0.9474(5)
B2 B 0.7460(3) 0.5889(3) 0.6046(6)
F5 F 0.7527(3) 0.6150(3) 0.6811(5)
F6 F 0.7872(2) 0.6017(3) 0.5836(5)
F7 F 0.7017(2) 0.6066(3) 0.5461(4)
F8 F 0.7434(3) 0.5355(3) 0.6151(6)
O1 O 0.7782(4) 0.6790(4) 0.8500(6)
C43 C 0.7147(6) 0.6192(6) 0.8602(11)
H34 H 0.7039 0.6098 0.9085
H35 H 0.7264 0.5871 0.8392
H36 H 0.6861 0.6348 0.8138
C44 C 0.7585(6) 0.6602(6) 0.8906(12)
O2 O 0.7695(5) 0.6700(4) 0.9812(8)
C45 C 0.8131(6) 0.7111(6) 1.0162(12)
H37 H 0.8451 0.6980 1.0110
H38 H 0.8042 0.7462 0.9874
C46 C 0.8159(7) 0.7131(7) 1.1081(12)
H39 H 0.7966 0.6834 1.1194
H40 H 0.8017 0.7470 1.1188
H41 H 0.8514 0.7104 1.1463
N7A N 1.2316(2) 0.7478(2) 0.8166(4)
C29A C 1.21902(19) 0.7770(2) 0.8775(4)
C30A C 1.2468(2) 0.8222(2) 0.9142(3)
H23A H 1.2382 0.8422 0.9558
C31A C 1.2871(2) 0.8383(2) 0.8899(4)
H24A H 1.3061 0.8692 0.9150
C32A C 1.2997(2) 0.8091(3) 0.8290(4)
H25A H 1.3272 0.8200 0.8124
C33A C 1.2719(2) 0.7639(3) 0.7923(4)
H26A H 1.2805 0.7439 0.7506
N8A N 1.1221(2) 0.6965(2) 0.9076(4)
N9A N 1.1577(2) 0.7091(2) 0.8675(3)
C34A C 1.1810(2) 0.7584(2) 0.9017(4)
C35A C 1.1598(3) 0.7762(2) 0.9630(4)
H27A H 1.1684 0.8081 0.9958
C36A C 1.1234(2) 0.7379(3) 0.9667(4)
H28A H 1.1034 0.7397 1.0023
C37A C 1.0980(4) 0.6479(4) 0.8933(8)
H29A H 1.0918 0.6367 0.9460
H30A H 1.1205 0.6210 0.8814
C38A C 1.0468(4) 0.6494(4) 0.8168(8)
C39A C 1.0230(4) 0.6964(4) 0.7820(7)
H31A H 1.0391 0.7294 0.8033
C40A C 1.0219(4) 0.6016(5) 0.7826(9)
C41A C 1.0461(6) 0.5505(6) 0.8180(12)
H32A H 1.0781 0.5503 0.8633
C42A C 1.0230(6) 0.5043(7) 0.7863(14)
H33A H 1.0373 0.4715 0.8123
Cd2A Cd 1.18135(3) 0.67760(3) 0.75712(5)
N1A N 0.94148(18) 1.0212(2) 0.8179(3)
C1A C 0.95099(17) 0.9809(2) 0.8792(3)
C2A C 0.9164(2) 0.9708(2) 0.9200(3)
H1A H 0.9229 0.9433 0.9618
C3A C 0.87232(19) 1.0010(2) 0.8996(4)
H2A H 0.8487 0.9940 0.9275
C4A C 0.86281(17) 1.0412(2) 0.8383(4)
H3A H 0.8327 1.0619 0.8244
C5A C 0.8974(2) 1.0514(2) 0.7975(3)
H4A H 0.8909 1.0789 0.7557
N2A N 1.07697(16) 0.9398(2) 0.9003(3)
N3A N 1.03246(19) 0.97099(18) 0.8638(3)
C6A C 0.99663(16) 0.9545(2) 0.9013(4)
C7A C 1.0190(2) 0.9131(2) 0.9610(3)
H5A H 1.0035 0.8947 0.9953
C8A C 1.0687(2) 0.90403(19) 0.9604(3)
H6A H 1.0922 0.8785 0.9942
C9A C 1.1193(3) 0.9476(4) 0.8802(6)
H7A H 1.1494 0.9435 0.9332
H8A H 1.1191 0.9848 0.8599
N4A N 1.1292(3) 0.6088(2) 0.6962(5)
C10A C 1.0858(3) 0.6217(2) 0.6272(5)
C11A C 1.0519(3) 0.5819(3) 0.5847(6)
H9A H 1.0222 0.5907 0.5375
C12A C 1.0616(4) 0.5291(3) 0.6111(7)
H10A H 1.0385 0.5019 0.5820
C13A C 1.1050(4) 0.5162(2) 0.6801(7)
H11A H 1.1116 0.4801 0.6981
C14A C 1.1389(3) 0.5560(3) 0.7227(5)
H12A H 1.1686 0.5472 0.7698
N5A N 1.1033(2) 0.75985(19) 0.5960(4)
N6A N 1.1174(2) 0.7105(2) 0.6400(3)
C15A C 1.0775(3) 0.67353(19) 0.6027(4)
C16A C 1.0388(2) 0.7000(3) 0.5356(4)
H13A H 1.0077 0.6847 0.4997
C17A C 1.0548(2) 0.7533(2) 0.5314(4)
H14A H 1.0363 0.7800 0.4923
C18A C 1.1374(4) 0.8029(4) 0.6155(6)
H15A H 1.1327 0.8229 0.5617
H16A H 1.1723 0.7886 0.6364
C19A C 1.12473(16) 0.90929(18) 0.8105(3)
C20A C 1.08827(14) 0.8701(2) 0.7764(3)
H17A H 1.0609 0.8664 0.7969
C21A C 1.09186(15) 0.83634(18) 0.7123(3)
H18A H 1.0669 0.8096 0.6890
C22A C 1.13192(17) 0.84178(17) 0.6823(3)
C23A C 1.16838(13) 0.88097(14) 0.7164(2)
C24A C 1.16479(13) 0.91473(13) 0.7805(2)
C25A C 1.20125(17) 0.95392(17) 0.8146(3)
H19A H 1.1988 0.9770 0.8584
C26A C 1.24131(16) 0.9594(2) 0.7845(4)
H20A H 1.2662 0.9862 0.8078
C27A C 1.24491(16) 0.9256(2) 0.7204(4)
H21A H 1.2723 0.9293 0.6999
C28A C 1.20845(17) 0.8864(2) 0.6863(3)
H22A H 1.2109 0.8633 0.6425
B1A B 0.9215(4) 1.1225(4) 0.6114(6)
F1A F 0.9562(5) 1.1064(4) 0.6880(6)
F2A F 0.8900(4) 1.0778(3) 0.5835(7)
F3A F 0.8945(5) 1.1667(5) 0.6172(11)
F4A F 0.9449(3) 1.1321(3) 0.5526(5)
B2A B 1.2540(3) 0.5889(3) 0.8954(6)
F5A F 1.2473(3) 0.6150(3) 0.8189(5)
F6A F 1.2128(2) 0.6017(3) 0.9164(5)
F7A F 1.2983(2) 0.6066(3) 0.9539(4)
F8A F 1.2566(3) 0.5355(3) 0.8849(6)
O1A O 1.2218(4) 0.6790(4) 0.6500(6)
C43A C 1.2853(6) 0.6192(6) 0.6398(11)
H34A H 1.2961 0.6098 0.5915
H35A H 1.2736 0.5871 0.6608
H36A H 1.3139 0.6348 0.6862
C44A C 1.2415(6) 0.6602(6) 0.6094(12)
O2A O 1.2305(5) 0.6700(4) 0.5188(8)
C45A C 1.1869(6) 0.7111(6) 0.4838(12)
H37A H 1.1549 0.6980 0.4890
H38A H 1.1958 0.7462 0.5126
C46A C 1.1841(7) 0.7131(7) 0.3919(12)
H39A H 1.2034 0.6834 0.3806
H40A H 1.1983 0.7470 0.3812
H41A H 1.1486 0.7104 0.3537
B3 B 0.0841(4) 0.6197(4) 0.1203(6)
F12 F 0.1078(3) 0.6186(3) 0.2083(4)
F13 F 0.0377(3) 0.5964(3) 0.1025(5)
F14 F 0.0769(3) 0.6723(3) 0.0925(6)
F15 F 0.1120(4) 0.5928(4) 0.0789(7)
C47 C 0.0496(8) 0.2221(9) 0.6914(13)
H42 H 0.0521 0.1990 0.7404
H43 H 0.0145 0.2228 0.6514
H44 H 0.0604 0.2583 0.7120
N10 N 0.0828(5) 0.2011(5) 0.6466(10)
O3 O 0.1268(4) 0.1905(5) 0.6805(10)
O4 O 0.0620(5) 0.1946(4) 0.5688(8)
loop_
_geom_bond_atom_site_label_1
_geom_bond_atom_site_label_2
_geom_bond_site_symmetry_1
_geom_bond_site_symmetry_2
Cd1 N1 1_555 1_555
Cd2 N4 1_555 1_555
N1 C1 1_555 1_555
C1 C2 1_555 1_555
C2 H1 1_555 1_555
C3 C2 1_555 1_555
H2 C3 1_555 1_555
C4 C3 1_555 1_555
H3 C4 1_555 1_555
C5 N1 1_555 1_555
H4 C5 1_555 1_555
N2 N3 1_555 1_555
N3 Cd1 1_555 1_555
C6 C1 1_555 1_555
C7 C6 1_555 1_555
H5 C7 1_555 1_555
C8 N2 1_555 1_555
H6 C8 1_555 1_555
C9 N2 1_555 1_555
H7 C9 1_555 1_555
H8 C9 1_555 1_555
N4 C10 1_555 1_555
C10 C11 1_555 1_555
C11 H9 1_555 1_555
C12 C11 1_555 1_555
H10 C12 1_555 1_555
C13 C12 1_555 1_555
H11 C13 1_555 1_555
C14 N4 1_555 1_555
H12 C14 1_555 1_555
N5 N6 1_555 1_555
N6 Cd2 1_555 1_555
C15 C10 1_555 1_555
C16 C15 1_555 1_555
H13 C16 1_555 1_555
C17 N5 1_555 1_555
H14 C17 1_555 1_555
C18 N5 1_555 1_555
H15 C18 1_555 1_555
H16 C18 1_555 1_555
C19 C9 1_555 1_555
C20 C19 1_555 1_555
H17 C20 1_555 1_555
C21 C20 1_555 1_555
H18 C21 1_555 1_555
C22 C18 1_555 1_555
C23 C22 1_555 1_555
C24 C19 1_555 1_555
C25 C24 1_555 1_555
H19 C25 1_555 1_555
C26 C25 1_555 1_555
H20 C26 1_555 1_555
C27 C26 1_555 1_555
H21 C27 1_555 1_555
C28 C23 1_555 1_555
H22 C28 1_555 1_555
N7 Cd2 1_555 1_555
C29 N7 1_555 1_555
C30 C29 1_555 1_555
H23 C30 1_555 1_555
C31 C30 1_555 1_555
H24 C31 1_555 1_555
C32 C31 1_555 1_555
H25 C32 1_555 1_555
C33 N7 1_555 1_555
H26 C33 1_555 1_555
N8 N9 1_555 1_555
N9 Cd2 1_555 1_555
C34 C29 1_555 1_555
C35 C34 1_555 1_555
H27 C35 1_555 1_555
C36 N8 1_555 1_555
H28 C36 1_555 1_555
C37 N8 1_555 1_555
H29 C37 1_555 1_555
H30 C37 1_555 1_555
C38 C37 1_555 1_555
C39 C38 1_555 1_555
H31 C39 1_555 1_555
C40 C38 1_555 1_555
C41 C40 1_555 1_555
H32 C41 1_555 1_555
C42 C41 1_555 1_555
H33 C42 1_555 1_555
B1 F1 1_555 1_555
F1 Cd1 1_555 1_555
F2 B1 1_555 1_555
F3 B1 1_555 1_555
F4 B1 1_555 1_555
B2 F5 1_555 1_555
F5 Cd2 1_555 1_555
F6 B2 1_555 1_555
F7 B2 1_555 1_555
F8 B2 1_555 1_555
O1 Cd2 1_555 1_555
C43 H34 1_555 1_555
H35 C43 1_555 1_555
H36 C43 1_555 1_555
C44 O1 1_555 1_555
O2 C44 1_555 1_555
C45 O2 1_555 1_555
H37 C45 1_555 1_555
H38 C45 1_555 1_555
C46 C45 1_555 1_555
H39 C46 1_555 1_555
H40 C46 1_555 1_555
H41 C46 1_555 1_555
B3 F12 1_555 1_555
F13 B3 1_555 1_555
F14 B3 1_555 1_555
F15 B3 1_555 1_555
C47 H42 1_555 1_555
H43 C47 1_555 1_555
H44 C47 1_555 1_555
N10 C47 1_555 1_555
O3 N10 1_555 1_555
O4 N10 1_555 1_555
N7A C29A 1_555 1_555
C29A C30A 1_555 1_555
C30A H23A 1_555 1_555
C31A C30A 1_555 1_555
H24A C31A 1_555 1_555
C32A C31A 1_555 1_555
H25A C32A 1_555 1_555
C33A N7A 1_555 1_555
H26A C33A 1_555 1_555
N8A N9A 1_555 1_555
N9A C34A 1_555 1_555
C34A C29A 1_555 1_555
C35A C34A 1_555 1_555
H27A C35A 1_555 1_555
C36A N8A 1_555 1_555
H28A C36A 1_555 1_555
C37A N8A 1_555 1_555
H29A C37A 1_555 1_555
H30A C37A 1_555 1_555
C38A C37A 1_555 1_555
C39A C39 1_555 1_555
H31A C39A 1_555 1_555
C40A C40 1_555 1_555
C41A C40A 1_555 1_555
H32A C41A 1_555 1_555
C42A C42 1_555 1_555
H33A C42A 1_555 1_555
Cd2A N7A 1_555 1_555
N1A Cd1 1_555 1_555
C1A N1A 1_555 1_555
C2A C1A 1_555 1_555
H1A C2A 1_555 1_555
C3A C2A 1_555 1_555
H2A C3A 1_555 1_555
C4A C3A 1_555 1_555
H3A C4A 1_555 1_555
C5A N1A 1_555 1_555
H4A C5A 1_555 1_555
N2A N3A 1_555 1_555
N3A Cd1 1_555 1_555
C6A C1A 1_555 1_555
C7A C6A 1_555 1_555
H5A C7A 1_555 1_555
C8A N2A 1_555 1_555
H6A C8A 1_555 1_555
C9A N2A 1_555 1_555
H7A C9A 1_555 1_555
H8A C9A 1_555 1_555
N4A Cd2A 1_555 1_555
C10A N4A 1_555 1_555
C11A C10A 1_555 1_555
H9A C11A 1_555 1_555
C12A C11A 1_555 1_555
H10A C12A 1_555 1_555
C13A C12A 1_555 1_555
H11A C13A 1_555 1_555
C14A N4A 1_555 1_555
H12A C14A 1_555 1_555
N5A N6A 1_555 1_555
N6A Cd2A 1_555 1_555
C15A C10A 1_555 1_555
C16A C15A 1_555 1_555
H13A C16A 1_555 1_555
C17A N5A 1_555 1_555
H14A C17A 1_555 1_555
C18A N5A 1_555 1_555
H15A C18A 1_555 1_555
H16A C18A 1_555 1_555
C19A C9A 1_555 1_555
C20A C19A 1_555 1_555
H17A C20A 1_555 1_555
C21A C20A 1_555 1_555
H18A C21A 1_555 1_555
C22A C18A 1_555 1_555
C23A C22A 1_555 1_555
C24A C19A 1_555 1_555
C25A C24A 1_555 1_555
H19A C25A 1_555 1_555
C26A C25A 1_555 1_555
H20A C26A 1_555 1_555
C27A C26A 1_555 1_555
H21A C27A 1_555 1_555
C28A C23A 1_555 1_555
H22A C28A 1_555 1_555
B1A F1A 1_555 1_555
F1A Cd1 1_555 1_555
F2A B1A 1_555 1_555
F3A B1A 1_555 1_555
F4A B1A 1_555 1_555
B2A F5A 1_555 1_555
F5A Cd2A 1_555 1_555
F6A B2A 1_555 1_555
F7A B2A 1_555 1_555
F8A B2A 1_555 1_555
O1A Cd2A 1_555 1_555
C43A H34A 1_555 1_555
H35A C43A 1_555 1_555
H36A C43A 1_555 1_555
C44A O1A 1_555 1_555
O2A C44A 1_555 1_555
C45A O2A 1_555 1_555
H37A C45A 1_555 1_555
H38A C45A 1_555 1_555
C46A C45A 1_555 1_555
H39A C46A 1_555 1_555
H40A C46A 1_555 1_555
H41A C46A 1_555 1_555
C4 C5 1_555 1_555
N3 C6 1_555 1_555
C7 C8 1_555 1_555
C13 C14 1_555 1_555
N6 C15 1_555 1_555
C16 C17 1_555 1_555
C21 C22 1_555 1_555
C23 C24 1_555 1_555
C27 C28 1_555 1_555
C32 C33 1_555 1_555
N9 C34 1_555 1_555
C35 C36 1_555 1_555
C43 C44 1_555 1_555
C32A C33A 1_555 1_555
N9A Cd2A 1_555 1_555
C35A C36A 1_555 1_555
C38A C39A 1_555 1_555
C38A C40A 1_555 1_555
C41A C42A 1_555 1_555
C4A C5A 1_555 1_555
N3A C6A 1_555 1_555
C7A C8A 1_555 1_555
C13A C14A 1_555 1_555
N6A C15A 1_555 1_555
C16A C17A 1_555 1_555
C21A C22A 1_555 1_555
C23A C24A 1_555 1_555
C27A C28A 1_555 1_555
C43A C44A 1_555 1_555

#END
