# generated using pymatgen
data_Cu6H165C210N45Cl10O41
_symmetry_space_group_name_H-M   'P 1'
_cell_length_a   29.77900000
_cell_length_b   38.67700000
_cell_length_c   45.44000000
_cell_angle_alpha   90.00000000
_cell_angle_beta   97.79800000
_cell_angle_gamma   90.00000000
_symmetry_Int_Tables_number   1
_chemical_formula_structural   Cu6H165C210N45Cl10O41
_chemical_formula_sum   'Cu48 H1320 C1680 N360 Cl80 O328'
_cell_volume   51852.10880108
_cell_formula_units_Z   8
loop_
 _symmetry_equiv_pos_site_id
 _symmetry_equiv_pos_as_xyz
  1  'x, y, z'
loop_
 _atom_site_type_symbol
 _atom_site_label
 _atom_site_symmetry_multiplicity
 _atom_site_fract_x
 _atom_site_fract_y
 _atom_site_fract_z
 _atom_site_occupancy
  Cu  Cu1  1  0.443020  0.005180  0.358720  1
  Cu  Cu2  1  0.056980  0.505180  0.141280  1
  Cu  Cu3  1  0.556980  0.994820  0.641280  1
  Cu  Cu4  1  0.943020  0.494820  0.858720  1
  Cu  Cu5  1  0.221490  0.155760  0.204760  1
  Cu  Cu6  1  0.278510  0.655760  0.295240  1
  Cu  Cu7  1  0.778510  0.844240  0.795240  1
  Cu  Cu8  1  0.721490  0.344240  0.704760  1
  Cu  Cu9  1  0.521760  0.062590  0.148240  1
  Cu  Cu10  1  0.978240  0.562590  0.351760  1
  Cu  Cu11  1  0.478240  0.937410  0.851760  1
  Cu  Cu12  1  0.021760  0.437410  0.648240  1
  Cu  Cu13  1  0.710790  0.089630  0.478640  1
  Cu  Cu14  1  0.789210  0.589630  0.021360  1
  Cu  Cu15  1  0.289210  0.910370  0.521360  1
  Cu  Cu16  1  0.210790  0.410370  0.978640  1
  Cu  Cu17  1  0.874940  0.143560  0.328320  1
  Cu  Cu18  1  0.625060  0.643560  0.171680  1
  Cu  Cu19  1  0.125060  0.856440  0.671680  1
  Cu  Cu20  1  0.374940  0.356440  0.828320  1
  Cu  Cu21  1  0.831480  0.382980  0.338300  1
  Cu  Cu22  1  0.668520  0.882980  0.161700  1
  Cu  Cu23  1  0.168520  0.617020  0.661700  1
  Cu  Cu24  1  0.331480  0.117020  0.838300  1
  Cu  Cu25  1  0.191080  0.346340  0.338230  1
  Cu  Cu26  1  0.308920  0.846340  0.161770  1
  Cu  Cu27  1  0.808920  0.653660  0.661770  1
  Cu  Cu28  1  0.691080  0.153660  0.838230  1
  Cu  Cu29  1  0.346710  0.250070  0.502510  1
  Cu  Cu30  1  0.153290  0.750070  0.997490  1
  Cu  Cu31  1  0.653290  0.749930  0.497490  1
  Cu  Cu32  1  0.846710  0.249930  0.002510  1
  Cu  Cu33  1  0.629920  0.387260  0.504730  1
  Cu  Cu34  1  0.870080  0.887260  0.995270  1
  Cu  Cu35  1  0.370080  0.612740  0.495270  1
  Cu  Cu36  1  0.129920  0.112740  0.004730  1
  Cu  Cu37  1  0.651110  0.272220  0.100020  1
  Cu  Cu38  1  0.848890  0.772220  0.399980  1
  Cu  Cu39  1  0.348890  0.727780  0.899980  1
  Cu  Cu40  1  0.151110  0.227780  0.600020  1
  Cu  Cu41  1  0.405090  0.402950  0.122590  1
  Cu  Cu42  1  0.094910  0.902950  0.377410  1
  Cu  Cu43  1  0.594910  0.597050  0.877410  1
  Cu  Cu44  1  0.905090  0.097050  0.622590  1
  Cu  Cu45  1  0.521750  0.513580  0.305360  1
  Cu  Cu46  1  0.978250  0.013580  0.194640  1
  Cu  Cu47  1  0.478250  0.486420  0.694640  1
  Cu  Cu48  1  0.021750  0.986420  0.805360  1
  H  H49  1  0.526000  0.956800  0.371000  1
  H  H50  1  0.974000  0.456800  0.129000  1
  H  H51  1  0.474000  0.043200  0.629000  1
  H  H52  1  0.026000  0.543200  0.871000  1
  H  H53  1  0.603600  0.960900  0.368000  1
  H  H54  1  0.896400  0.460900  0.132000  1
  H  H55  1  0.396400  0.039100  0.632000  1
  H  H56  1  0.103600  0.539100  0.868000  1
  H  H57  1  0.633100  0.011000  0.349000  1
  H  H58  1  0.866900  0.511000  0.151000  1
  H  H59  1  0.366900  0.989000  0.651000  1
  H  H60  1  0.133100  0.489000  0.849000  1
  H  H61  1  0.584900  0.057100  0.333100  1
  H  H62  1  0.915100  0.557100  0.166900  1
  H  H63  1  0.415100  0.942900  0.666900  1
  H  H64  1  0.084900  0.442900  0.833100  1
  H  H65  1  0.526100  0.103500  0.316900  1
  H  H66  1  0.973900  0.603500  0.183100  1
  H  H67  1  0.473900  0.896500  0.683100  1
  H  H68  1  0.026100  0.396500  0.816900  1
  H  H69  1  0.451500  0.134200  0.319800  1
  H  H70  1  0.048500  0.634200  0.180200  1
  H  H71  1  0.548500  0.865800  0.680200  1
  H  H72  1  0.951500  0.365800  0.819800  1
  H  H73  1  0.385800  0.120400  0.353000  1
  H  H74  1  0.114200  0.620400  0.147000  1
  H  H75  1  0.614200  0.879600  0.647000  1
  H  H76  1  0.885800  0.379600  0.853000  1
  H  H77  1  0.380700  0.081500  0.363800  1
  H  H78  1  0.119300  0.581500  0.136200  1
  H  H79  1  0.619300  0.918500  0.636200  1
  H  H80  1  0.880700  0.418500  0.863800  1
  H  H81  1  0.220400  0.192800  0.145200  1
  H  H82  1  0.279600  0.692800  0.354800  1
  H  H83  1  0.779600  0.807200  0.854800  1
  H  H84  1  0.720400  0.307200  0.645200  1
  H  H85  1  0.235100  0.178700  0.097400  1
  H  H86  1  0.264900  0.678700  0.402600  1
  H  H87  1  0.764900  0.821300  0.902600  1
  H  H88  1  0.735100  0.321300  0.597400  1
  H  H89  1  0.260600  0.123200  0.087400  1
  H  H90  1  0.239400  0.623200  0.412600  1
  H  H91  1  0.739400  0.876800  0.912600  1
  H  H92  1  0.760600  0.376800  0.587400  1
  H  H93  1  0.271500  0.081900  0.125400  1
  H  H94  1  0.228500  0.581900  0.374600  1
  H  H95  1  0.728500  0.918100  0.874600  1
  H  H96  1  0.771500  0.418100  0.625400  1
  H  H97  1  0.273100  0.038300  0.164200  1
  H  H98  1  0.226900  0.538300  0.335800  1
  H  H99  1  0.726900  0.961700  0.835800  1
  H  H100  1  0.773100  0.461700  0.664200  1
  H  H101  1  0.258700  0.015300  0.214300  1
  H  H102  1  0.241300  0.515300  0.285700  1
  H  H103  1  0.741300  0.984700  0.785700  1
  H  H104  1  0.758700  0.484700  0.714300  1
  H  H105  1  0.220300  0.043000  0.259300  1
  H  H106  1  0.279700  0.543000  0.240700  1
  H  H107  1  0.779700  0.957000  0.740700  1
  H  H108  1  0.720300  0.457000  0.759300  1
  H  H109  1  0.208600  0.083400  0.257300  1
  H  H110  1  0.291400  0.583400  0.242700  1
  H  H111  1  0.791400  0.916600  0.742700  1
  H  H112  1  0.708600  0.416600  0.757300  1
  H  H113  1  0.384500  0.081200  0.288600  1
  H  H114  1  0.115500  0.581200  0.211400  1
  H  H115  1  0.615500  0.918800  0.711400  1
  H  H116  1  0.884500  0.418800  0.788600  1
  H  H117  1  0.323800  0.067100  0.252400  1
  H  H118  1  0.176200  0.567100  0.247600  1
  H  H119  1  0.676200  0.932900  0.747600  1
  H  H120  1  0.823800  0.432900  0.752400  1
  H  H121  1  0.318900  0.105700  0.371900  1
  H  H122  1  0.181100  0.605700  0.128100  1
  H  H123  1  0.681100  0.894300  0.628100  1
  H  H124  1  0.818900  0.394300  0.871900  1
  H  H125  1  0.244700  0.106600  0.383500  1
  H  H126  1  0.255300  0.606600  0.116500  1
  H  H127  1  0.755300  0.893400  0.616500  1
  H  H128  1  0.744700  0.393400  0.883500  1
  H  H129  1  0.184000  0.092400  0.347300  1
  H  H130  1  0.316000  0.592400  0.152700  1
  H  H131  1  0.816000  0.907600  0.652700  1
  H  H132  1  0.684000  0.407600  0.847300  1
  H  H133  1  0.197500  0.077400  0.299300  1
  H  H134  1  0.302500  0.577400  0.200700  1
  H  H135  1  0.802500  0.922600  0.700700  1
  H  H136  1  0.697500  0.422600  0.799300  1
  H  H137  1  0.143900  0.153500  0.241700  1
  H  H138  1  0.356100  0.653500  0.258300  1
  H  H139  1  0.856100  0.846500  0.758300  1
  H  H140  1  0.643900  0.346500  0.741700  1
  H  H141  1  0.134800  0.158400  0.291900  1
  H  H142  1  0.365200  0.658400  0.208100  1
  H  H143  1  0.865200  0.841600  0.708100  1
  H  H144  1  0.634800  0.341600  0.791900  1
  H  H145  1  0.197900  0.168300  0.327500  1
  H  H146  1  0.302100  0.668300  0.172500  1
  H  H147  1  0.802100  0.831700  0.672500  1
  H  H148  1  0.697900  0.331700  0.827500  1
  H  H149  1  0.270100  0.173300  0.313000  1
  H  H150  1  0.229900  0.673300  0.187000  1
  H  H151  1  0.729900  0.826700  0.687000  1
  H  H152  1  0.770100  0.326700  0.813000  1
  H  H153  1  0.342000  0.175300  0.289300  1
  H  H154  1  0.158000  0.675300  0.210700  1
  H  H155  1  0.658000  0.824700  0.710700  1
  H  H156  1  0.842000  0.324700  0.789300  1
  H  H157  1  0.388300  0.187200  0.247500  1
  H  H158  1  0.111700  0.687200  0.252500  1
  H  H159  1  0.611700  0.812800  0.752500  1
  H  H160  1  0.888300  0.312800  0.747500  1
  H  H161  1  0.359500  0.207900  0.190600  1
  H  H162  1  0.140500  0.707900  0.309400  1
  H  H163  1  0.640500  0.792100  0.809400  1
  H  H164  1  0.859500  0.292100  0.690600  1
  H  H165  1  0.308500  0.198500  0.177400  1
  H  H166  1  0.191500  0.698500  0.322600  1
  H  H167  1  0.691500  0.801500  0.822600  1
  H  H168  1  0.808500  0.301500  0.677400  1
  H  H169  1  0.609100  0.027400  0.177400  1
  H  H170  1  0.890900  0.527400  0.322600  1
  H  H171  1  0.390900  0.972600  0.822600  1
  H  H172  1  0.109100  0.472600  0.677400  1
  H  H173  1  0.627000  0.978900  0.207400  1
  H  H174  1  0.873000  0.478900  0.292600  1
  H  H175  1  0.373000  0.021100  0.792600  1
  H  H176  1  0.127000  0.521100  0.707400  1
  H  H177  1  0.569100  0.945000  0.222400  1
  H  H178  1  0.930900  0.445000  0.277600  1
  H  H179  1  0.430900  0.055000  0.777600  1
  H  H180  1  0.069100  0.555000  0.722400  1
  H  H181  1  0.493300  0.959700  0.207400  1
  H  H182  1  0.006700  0.459700  0.292600  1
  H  H183  1  0.506700  0.040300  0.792600  1
  H  H184  1  0.993300  0.540300  0.707400  1
  H  H185  1  0.414900  0.974700  0.182900  1
  H  H186  1  0.085100  0.474700  0.317100  1
  H  H187  1  0.585100  0.025300  0.817100  1
  H  H188  1  0.914900  0.525300  0.682900  1
  H  H189  1  0.356200  0.009000  0.149300  1
  H  H190  1  0.143800  0.509000  0.350700  1
  H  H191  1  0.643800  0.991000  0.850700  1
  H  H192  1  0.856200  0.491000  0.649300  1
  H  H193  1  0.366300  0.062800  0.109400  1
  H  H194  1  0.133700  0.562800  0.390600  1
  H  H195  1  0.633700  0.937200  0.890600  1
  H  H196  1  0.866300  0.437200  0.609400  1
  H  H197  1  0.416100  0.078800  0.111600  1
  H  H198  1  0.083900  0.578800  0.388400  1
  H  H199  1  0.583900  0.921200  0.888400  1
  H  H200  1  0.916100  0.421200  0.611600  1
  H  H201  1  0.362400  0.124800  0.206800  1
  H  H202  1  0.137600  0.624800  0.293200  1
  H  H203  1  0.637600  0.875200  0.793200  1
  H  H204  1  0.862400  0.375200  0.706800  1
  H  H205  1  0.382400  0.076600  0.180300  1
  H  H206  1  0.117600  0.576600  0.319700  1
  H  H207  1  0.617600  0.923400  0.819700  1
  H  H208  1  0.882400  0.423400  0.680300  1
  H  H209  1  0.338300  0.211400  0.137600  1
  H  H210  1  0.161700  0.711400  0.362400  1
  H  H211  1  0.661700  0.788600  0.862400  1
  H  H212  1  0.838300  0.288600  0.637600  1
  H  H213  1  0.341900  0.215900  0.086600  1
  H  H214  1  0.158100  0.715900  0.413400  1
  H  H215  1  0.658100  0.784100  0.913400  1
  H  H216  1  0.841900  0.284100  0.586600  1
  H  H217  1  0.361900  0.167700  0.060100  1
  H  H218  1  0.138100  0.667700  0.439900  1
  H  H219  1  0.638100  0.832300  0.939900  1
  H  H220  1  0.861900  0.332300  0.560100  1
  H  H221  1  0.378300  0.115000  0.084500  1
  H  H222  1  0.121700  0.615000  0.415500  1
  H  H223  1  0.621700  0.885000  0.915500  1
  H  H224  1  0.878300  0.385000  0.584500  1
  H  H225  1  0.375700  0.024500  0.403500  1
  H  H226  1  0.124300  0.524500  0.096500  1
  H  H227  1  0.624300  0.975500  0.596500  1
  H  H228  1  0.875700  0.475500  0.903500  1
  H  H229  1  0.297100  0.025900  0.403100  1
  H  H230  1  0.202900  0.525900  0.096900  1
  H  H231  1  0.702900  0.974100  0.596900  1
  H  H232  1  0.797100  0.474100  0.903100  1
  H  H233  1  0.248900  0.012200  0.359600  1
  H  H234  1  0.251100  0.512200  0.140400  1
  H  H235  1  0.751100  0.987800  0.640400  1
  H  H236  1  0.748900  0.487800  0.859600  1
  H  H237  1  0.279400  0.997200  0.316500  1
  H  H238  1  0.220600  0.497200  0.183500  1
  H  H239  1  0.720600  0.002800  0.683500  1
  H  H240  1  0.779400  0.502800  0.816500  1
  H  H241  1  0.317400  0.979700  0.273200  1
  H  H242  1  0.182600  0.479700  0.226800  1
  H  H243  1  0.682600  0.020300  0.726800  1
  H  H244  1  0.817400  0.520300  0.773200  1
  H  H245  1  0.382800  0.959700  0.247100  1
  H  H246  1  0.117200  0.459700  0.252900  1
  H  H247  1  0.617200  0.040300  0.752900  1
  H  H248  1  0.882800  0.540300  0.747100  1
  H  H249  1  0.472200  0.947700  0.268400  1
  H  H250  1  0.027800  0.447700  0.231600  1
  H  H251  1  0.527800  0.052300  0.731600  1
  H  H252  1  0.972200  0.552300  0.768400  1
  H  H253  1  0.488900  0.961000  0.301300  1
  H  H254  1  0.011100  0.461000  0.198700  1
  H  H255  1  0.511100  0.039000  0.698700  1
  H  H256  1  0.988900  0.539000  0.801300  1
  H  H257  1  0.506200  0.088500  0.082600  1
  H  H258  1  0.993800  0.588500  0.417400  1
  H  H259  1  0.493800  0.911500  0.917400  1
  H  H260  1  0.006200  0.411500  0.582600  1
  H  H261  1  0.481300  0.139600  0.058100  1
  H  H262  1  0.018700  0.639600  0.441900  1
  H  H263  1  0.518700  0.860400  0.941900  1
  H  H264  1  0.981300  0.360400  0.558100  1
  H  H265  1  0.459100  0.186600  0.085100  1
  H  H266  1  0.040900  0.686600  0.414900  1
  H  H267  1  0.540900  0.813400  0.914900  1
  H  H268  1  0.959100  0.313400  0.585100  1
  H  H269  1  0.461700  0.182500  0.136700  1
  H  H270  1  0.038300  0.682500  0.363300  1
  H  H271  1  0.538300  0.817500  0.863300  1
  H  H272  1  0.961700  0.317500  0.636700  1
  H  H273  1  0.469900  0.174000  0.193600  1
  H  H274  1  0.030100  0.674000  0.306400  1
  H  H275  1  0.530100  0.826000  0.806400  1
  H  H276  1  0.969900  0.326000  0.693600  1
  H  H277  1  0.510900  0.148600  0.241300  1
  H  H278  1  0.989100  0.648600  0.258700  1
  H  H279  1  0.489100  0.851400  0.758700  1
  H  H280  1  0.010900  0.351400  0.741300  1
  H  H281  1  0.574400  0.099700  0.251100  1
  H  H282  1  0.925600  0.599700  0.248900  1
  H  H283  1  0.425600  0.900300  0.748900  1
  H  H284  1  0.074400  0.400300  0.751100  1
  H  H285  1  0.583400  0.076300  0.223600  1
  H  H286  1  0.916600  0.576300  0.276400  1
  H  H287  1  0.416600  0.923700  0.776400  1
  H  H288  1  0.083400  0.423700  0.723600  1
  H  H289  1  0.436100  0.024700  0.254200  1
  H  H290  1  0.063900  0.524700  0.245800  1
  H  H291  1  0.563900  0.975300  0.745800  1
  H  H292  1  0.936100  0.475300  0.754200  1
  H  H293  1  0.472400  0.072200  0.236000  1
  H  H294  1  0.027600  0.572200  0.264000  1
  H  H295  1  0.527600  0.927800  0.764000  1
  H  H296  1  0.972400  0.427800  0.736000  1
  H  H297  1  0.551500  0.952800  0.293300  1
  H  H298  1  0.948500  0.452800  0.206700  1
  H  H299  1  0.448500  0.047200  0.706700  1
  H  H300  1  0.051500  0.547200  0.793300  1
  H  H301  1  0.630700  0.954600  0.297900  1
  H  H302  1  0.869300  0.454600  0.202100  1
  H  H303  1  0.369300  0.045400  0.702100  1
  H  H304  1  0.130700  0.545400  0.797900  1
  H  H305  1  0.667000  0.002100  0.279600  1
  H  H306  1  0.833000  0.502100  0.220400  1
  H  H307  1  0.333000  0.997900  0.720400  1
  H  H308  1  0.167000  0.497900  0.779600  1
  H  H309  1  0.624100  0.047800  0.256800  1
  H  H310  1  0.875900  0.547800  0.243200  1
  H  H311  1  0.375900  0.952200  0.743200  1
  H  H312  1  0.124100  0.452200  0.756800  1
  H  H313  1  0.427400  0.928000  0.335300  1
  H  H314  1  0.072600  0.428000  0.164700  1
  H  H315  1  0.572600  0.072000  0.664700  1
  H  H316  1  0.927400  0.572000  0.835300  1
  H  H317  1  0.431400  0.872600  0.356200  1
  H  H318  1  0.068600  0.372600  0.143800  1
  H  H319  1  0.568600  0.127400  0.643800  1
  H  H320  1  0.931400  0.627400  0.856200  1
  H  H321  1  0.448300  0.865900  0.407700  1
  H  H322  1  0.051700  0.365900  0.092300  1
  H  H323  1  0.551700  0.134100  0.592300  1
  H  H324  1  0.948300  0.634100  0.907700  1
  H  H325  1  0.461200  0.914500  0.438300  1
  H  H326  1  0.038800  0.414500  0.061700  1
  H  H327  1  0.538800  0.085500  0.561700  1
  H  H328  1  0.961200  0.585500  0.938300  1
  H  H329  1  0.473300  0.966900  0.467000  1
  H  H330  1  0.026700  0.466900  0.033000  1
  H  H331  1  0.526700  0.033100  0.533000  1
  H  H332  1  0.973300  0.533100  0.967000  1
  H  H333  1  0.481700  0.031500  0.475700  1
  H  H334  1  0.018300  0.531500  0.024300  1
  H  H335  1  0.518300  0.968500  0.524300  1
  H  H336  1  0.981700  0.468500  0.975700  1
  H  H337  1  0.473500  0.087800  0.440700  1
  H  H338  1  0.026500  0.587800  0.059300  1
  H  H339  1  0.526500  0.912200  0.559300  1
  H  H340  1  0.973500  0.412200  0.940700  1
  H  H341  1  0.453300  0.082000  0.406600  1
  H  H342  1  0.046700  0.582000  0.093400  1
  H  H343  1  0.546700  0.918000  0.593400  1
  H  H344  1  0.953300  0.418000  0.906600  1
  H  H345  1  0.782600  0.056400  0.527600  1
  H  H346  1  0.717400  0.556400  0.972400  1
  H  H347  1  0.217400  0.943600  0.472400  1
  H  H348  1  0.282600  0.443600  0.027600  1
  H  H349  1  0.837900  0.013200  0.528500  1
  H  H350  1  0.662100  0.513200  0.971500  1
  H  H351  1  0.162100  0.986800  0.471500  1
  H  H352  1  0.337900  0.486800  0.028500  1
  H  H353  1  0.848200  0.984200  0.484800  1
  H  H354  1  0.651800  0.484200  0.015200  1
  H  H355  1  0.151800  0.015800  0.515200  1
  H  H356  1  0.348200  0.515800  0.984800  1
  H  H357  1  0.803200  0.998300  0.440100  1
  H  H358  1  0.696800  0.498300  0.059900  1
  H  H359  1  0.196800  0.001700  0.559900  1
  H  H360  1  0.303200  0.501700  0.940100  1
  H  H361  1  0.750800  0.016100  0.394000  1
  H  H362  1  0.749200  0.516100  0.106000  1
  H  H363  1  0.249200  0.983900  0.606000  1
  H  H364  1  0.250800  0.483900  0.894000  1
  H  H365  1  0.695800  0.056600  0.363500  1
  H  H366  1  0.804200  0.556600  0.136500  1
  H  H367  1  0.304200  0.943400  0.636500  1
  H  H368  1  0.195800  0.443400  0.863500  1
  H  H369  1  0.655700  0.115100  0.374200  1
  H  H370  1  0.844300  0.615100  0.125800  1
  H  H371  1  0.344300  0.884900  0.625800  1
  H  H372  1  0.155700  0.384900  0.874200  1
  H  H373  1  0.665000  0.130600  0.407200  1
  H  H374  1  0.835000  0.630600  0.092800  1
  H  H375  1  0.335000  0.869400  0.592800  1
  H  H376  1  0.165000  0.369400  0.907200  1
  H  H377  1  0.554200  0.034600  0.427100  1
  H  H378  1  0.945800  0.534600  0.072900  1
  H  H379  1  0.445800  0.965400  0.572900  1
  H  H380  1  0.054200  0.465400  0.927100  1
  H  H381  1  0.626500  0.049300  0.416500  1
  H  H382  1  0.873500  0.549300  0.083500  1
  H  H383  1  0.373500  0.950700  0.583500  1
  H  H384  1  0.126500  0.450700  0.916500  1
  H  H385  1  0.467000  0.130300  0.400900  1
  H  H386  1  0.033000  0.630300  0.099100  1
  H  H387  1  0.533000  0.869700  0.599100  1
  H  H388  1  0.967000  0.369700  0.900900  1
  H  H389  1  0.479800  0.184800  0.381200  1
  H  H390  1  0.020200  0.684800  0.118800  1
  H  H391  1  0.520200  0.815200  0.618800  1
  H  H392  1  0.979800  0.315200  0.881200  1
  H  H393  1  0.552100  0.199500  0.370500  1
  H  H394  1  0.947900  0.699500  0.129500  1
  H  H395  1  0.447900  0.800500  0.629500  1
  H  H396  1  0.052100  0.300500  0.870500  1
  H  H397  1  0.611600  0.159700  0.379600  1
  H  H398  1  0.888400  0.659700  0.120400  1
  H  H399  1  0.388400  0.840300  0.620400  1
  H  H400  1  0.111600  0.340300  0.879600  1
  H  H401  1  0.606000  0.093800  0.476000  1
  H  H402  1  0.894000  0.593800  0.024000  1
  H  H403  1  0.394000  0.906200  0.524000  1
  H  H404  1  0.106000  0.406200  0.976000  1
  H  H405  1  0.552800  0.138700  0.470900  1
  H  H406  1  0.947200  0.638700  0.029100  1
  H  H407  1  0.447200  0.861300  0.529100  1
  H  H408  1  0.052800  0.361300  0.970900  1
  H  H409  1  0.576800  0.195900  0.466800  1
  H  H410  1  0.923200  0.695900  0.033200  1
  H  H411  1  0.423200  0.804100  0.533200  1
  H  H412  1  0.076800  0.304100  0.966800  1
  H  H413  1  0.653900  0.208200  0.467900  1
  H  H414  1  0.846100  0.708200  0.032100  1
  H  H415  1  0.346100  0.791800  0.532100  1
  H  H416  1  0.153900  0.291800  0.967900  1
  H  H417  1  0.739700  0.215700  0.472000  1
  H  H418  1  0.760300  0.715700  0.028000  1
  H  H419  1  0.260300  0.784300  0.528000  1
  H  H420  1  0.239700  0.284300  0.972000  1
  H  H421  1  0.820800  0.194700  0.474200  1
  H  H422  1  0.679200  0.694700  0.025800  1
  H  H423  1  0.179200  0.805300  0.525800  1
  H  H424  1  0.320800  0.305300  0.974200  1
  H  H425  1  0.833400  0.104300  0.491200  1
  H  H426  1  0.666600  0.604300  0.008800  1
  H  H427  1  0.166600  0.895700  0.508800  1
  H  H428  1  0.333400  0.395700  0.991200  1
  H  H429  1  0.861000  0.136600  0.481300  1
  H  H430  1  0.639000  0.636600  0.018700  1
  H  H431  1  0.139000  0.863400  0.518700  1
  H  H432  1  0.361000  0.363400  0.981300  1
  H  H433  1  0.855900  0.206500  0.282000  1
  H  H434  1  0.644100  0.706500  0.218000  1
  H  H435  1  0.144100  0.793500  0.718000  1
  H  H436  1  0.355900  0.293500  0.782000  1
  H  H437  1  0.793300  0.220800  0.247300  1
  H  H438  1  0.706700  0.720800  0.252700  1
  H  H439  1  0.206700  0.779200  0.752700  1
  H  H440  1  0.293300  0.279200  0.747300  1
  H  H441  1  0.730200  0.184200  0.240300  1
  H  H442  1  0.769800  0.684200  0.259700  1
  H  H443  1  0.269800  0.815800  0.759700  1
  H  H444  1  0.230200  0.315800  0.740300  1
  H  H445  1  0.729800  0.133200  0.267900  1
  H  H446  1  0.770200  0.633200  0.232100  1
  H  H447  1  0.270200  0.866800  0.732100  1
  H  H448  1  0.229800  0.366800  0.767900  1
  H  H449  1  0.733000  0.074100  0.294200  1
  H  H450  1  0.767000  0.574100  0.205800  1
  H  H451  1  0.267000  0.925900  0.705800  1
  H  H452  1  0.233000  0.425900  0.794200  1
  H  H453  1  0.773000  0.033000  0.332600  1
  H  H454  1  0.727000  0.533000  0.167400  1
  H  H455  1  0.227000  0.967000  0.667400  1
  H  H456  1  0.273000  0.467000  0.832600  1
  H  H457  1  0.859900  0.034700  0.369600  1
  H  H458  1  0.640100  0.534700  0.130400  1
  H  H459  1  0.140100  0.965300  0.630400  1
  H  H460  1  0.359900  0.465300  0.869600  1
  H  H461  1  0.891500  0.066600  0.362800  1
  H  H462  1  0.608500  0.566600  0.137200  1
  H  H463  1  0.108500  0.933400  0.637200  1
  H  H464  1  0.391500  0.433400  0.862800  1
  H  H465  1  0.780800  0.126200  0.423800  1
  H  H466  1  0.719200  0.626200  0.076200  1
  H  H467  1  0.219200  0.873800  0.576200  1
  H  H468  1  0.280800  0.373800  0.923800  1
  H  H469  1  0.790700  0.103100  0.377500  1
  H  H470  1  0.709300  0.603100  0.122500  1
  H  H471  1  0.209300  0.896900  0.622500  1
  H  H472  1  0.290700  0.396900  0.877500  1
  H  H473  1  0.902200  0.086100  0.487600  1
  H  H474  1  0.597800  0.586100  0.012400  1
  H  H475  1  0.097800  0.913900  0.512400  1
  H  H476  1  0.402200  0.413900  0.987600  1
  H  H477  1  0.964900  0.051000  0.483100  1
  H  H478  1  0.535100  0.551000  0.016900  1
  H  H479  1  0.035100  0.949000  0.516900  1
  H  H480  1  0.464900  0.449000  0.983100  1
  H  H481  1  0.974700  0.027900  0.436800  1
  H  H482  1  0.525300  0.527900  0.063200  1
  H  H483  1  0.025300  0.972100  0.563200  1
  H  H484  1  0.474700  0.472100  0.936800  1
  H  H485  1  0.921900  0.039900  0.395000  1
  H  H486  1  0.578100  0.539900  0.105000  1
  H  H487  1  0.078100  0.960100  0.605000  1
  H  H488  1  0.421900  0.460100  0.895000  1
  H  H489  1  0.961000  0.095800  0.338800  1
  H  H490  1  0.539000  0.595800  0.161200  1
  H  H491  1  0.039000  0.904200  0.661200  1
  H  H492  1  0.461000  0.404200  0.838800  1
  H  H493  1  0.018200  0.085600  0.378500  1
  H  H494  1  0.481800  0.585600  0.121500  1
  H  H495  1  0.981800  0.914400  0.621500  1
  H  H496  1  0.518200  0.414400  0.878500  1
  H  H497  1  0.015500  0.112600  0.424300  1
  H  H498  1  0.484500  0.612600  0.075700  1
  H  H499  1  0.984500  0.887400  0.575700  1
  H  H500  1  0.515500  0.387400  0.924300  1
  H  H501  1  0.955600  0.149900  0.430400  1
  H  H502  1  0.544400  0.649900  0.069600  1
  H  H503  1  0.044400  0.850100  0.569600  1
  H  H504  1  0.455600  0.350100  0.930400  1
  H  H505  1  0.891800  0.186100  0.436700  1
  H  H506  1  0.608200  0.686100  0.063300  1
  H  H507  1  0.108200  0.813900  0.563300  1
  H  H508  1  0.391800  0.313900  0.936700  1
  H  H509  1  0.814500  0.212100  0.419400  1
  H  H510  1  0.685500  0.712100  0.080600  1
  H  H511  1  0.185500  0.787900  0.580600  1
  H  H512  1  0.314500  0.287900  0.919400  1
  H  H513  1  0.754100  0.203000  0.369800  1
  H  H514  1  0.745900  0.703000  0.130200  1
  H  H515  1  0.245900  0.797000  0.630200  1
  H  H516  1  0.254100  0.297000  0.869800  1
  H  H517  1  0.768700  0.176900  0.345500  1
  H  H518  1  0.731300  0.676900  0.154500  1
  H  H519  1  0.231300  0.823100  0.654500  1
  H  H520  1  0.268700  0.323100  0.845500  1
  H  H521  1  0.897100  0.437200  0.374500  1
  H  H522  1  0.602900  0.937200  0.125500  1
  H  H523  1  0.102900  0.562800  0.625500  1
  H  H524  1  0.397100  0.062800  0.874500  1
  H  H525  1  0.974800  0.449400  0.381200  1
  H  H526  1  0.525200  0.949400  0.118800  1
  H  H527  1  0.025200  0.550600  0.618800  1
  H  H528  1  0.474800  0.050600  0.881200  1
  H  H529  1  0.023100  0.419900  0.353300  1
  H  H530  1  0.476900  0.919900  0.146700  1
  H  H531  1  0.976900  0.580100  0.646700  1
  H  H532  1  0.523100  0.080100  0.853300  1
  H  H533  1  0.993700  0.378100  0.318600  1
  H  H534  1  0.506300  0.878100  0.181400  1
  H  H535  1  0.006300  0.621900  0.681400  1
  H  H536  1  0.493700  0.121900  0.818600  1
  H  H537  1  0.958400  0.335900  0.278900  1
  H  H538  1  0.541600  0.835900  0.221100  1
  H  H539  1  0.041600  0.664100  0.721100  1
  H  H540  1  0.458400  0.164100  0.778900  1
  H  H541  1  0.892800  0.300200  0.253700  1
  H  H542  1  0.607200  0.800200  0.246300  1
  H  H543  1  0.107200  0.699800  0.746300  1
  H  H544  1  0.392800  0.199800  0.753700  1
  H  H545  1  0.803000  0.298900  0.257300  1
  H  H546  1  0.697000  0.798900  0.242700  1
  H  H547  1  0.197000  0.701100  0.742700  1
  H  H548  1  0.303000  0.201100  0.757300  1
  H  H549  1  0.784500  0.327400  0.278100  1
  H  H550  1  0.715500  0.827400  0.221900  1
  H  H551  1  0.215500  0.672600  0.721900  1
  H  H552  1  0.284500  0.172600  0.778100  1
  H  H553  1  0.853700  0.234600  0.354000  1
  H  H554  1  0.646300  0.734600  0.146000  1
  H  H555  1  0.146300  0.765400  0.646000  1
  H  H556  1  0.353700  0.265400  0.854000  1
  H  H557  1  0.865500  0.280000  0.321800  1
  H  H558  1  0.634500  0.780000  0.178200  1
  H  H559  1  0.134500  0.720000  0.678200  1
  H  H560  1  0.365500  0.220000  0.821800  1
  H  H561  1  0.704100  0.205500  0.329300  1
  H  H562  1  0.795900  0.705500  0.170700  1
  H  H563  1  0.295900  0.794500  0.670700  1
  H  H564  1  0.204100  0.294500  0.829300  1
  H  H565  1  0.644300  0.225300  0.294700  1
  H  H566  1  0.855700  0.725300  0.205300  1
  H  H567  1  0.355700  0.774700  0.705300  1
  H  H568  1  0.144300  0.274700  0.794700  1
  H  H569  1  0.656100  0.270600  0.262500  1
  H  H570  1  0.843900  0.770600  0.237500  1
  H  H571  1  0.343900  0.729400  0.737500  1
  H  H572  1  0.156100  0.229400  0.762500  1
  H  H573  1  0.727700  0.296300  0.265100  1
  H  H574  1  0.772300  0.796300  0.234900  1
  H  H575  1  0.272300  0.703700  0.734900  1
  H  H576  1  0.227700  0.203700  0.765100  1
  H  H577  1  0.162100  0.089300  0.191400  1
  H  H578  1  0.337900  0.589300  0.308600  1
  H  H579  1  0.837900  0.910700  0.808600  1
  H  H580  1  0.662100  0.410700  0.691400  1
  H  H581  1  0.089300  0.074600  0.168800  1
  H  H582  1  0.410700  0.574600  0.331200  1
  H  H583  1  0.910700  0.925400  0.831200  1
  H  H584  1  0.589300  0.425400  0.668800  1
  H  H585  1  0.037800  0.118000  0.151400  1
  H  H586  1  0.462200  0.618000  0.348600  1
  H  H587  1  0.962200  0.882000  0.848600  1
  H  H588  1  0.537800  0.382000  0.651400  1
  H  H589  1  0.059100  0.176200  0.156500  1
  H  H590  1  0.440900  0.676200  0.343500  1
  H  H591  1  0.940900  0.823800  0.843500  1
  H  H592  1  0.559100  0.323800  0.656500  1
  H  H593  1  0.086200  0.238100  0.169800  1
  H  H594  1  0.413800  0.738100  0.330200  1
  H  H595  1  0.913800  0.761900  0.830200  1
  H  H596  1  0.586200  0.261900  0.669800  1
  H  H597  1  0.146200  0.283900  0.184300  1
  H  H598  1  0.353800  0.783900  0.315700  1
  H  H599  1  0.853800  0.716100  0.815700  1
  H  H600  1  0.646200  0.216100  0.684300  1
  H  H601  1  0.238400  0.279700  0.197300  1
  H  H602  1  0.261600  0.779700  0.302700  1
  H  H603  1  0.761600  0.720300  0.802700  1
  H  H604  1  0.738400  0.220300  0.697300  1
  H  H605  1  0.259400  0.241500  0.198100  1
  H  H606  1  0.240600  0.741500  0.301900  1
  H  H607  1  0.740600  0.758500  0.801900  1
  H  H608  1  0.759400  0.258500  0.698100  1
  H  H609  1  0.113000  0.386500  0.362300  1
  H  H610  1  0.387000  0.886500  0.137700  1
  H  H611  1  0.887000  0.613500  0.637700  1
  H  H612  1  0.613000  0.113500  0.862300  1
  H  H613  1  0.056200  0.373200  0.391400  1
  H  H614  1  0.443800  0.873200  0.108600  1
  H  H615  1  0.943800  0.626800  0.608600  1
  H  H616  1  0.556200  0.126800  0.891400  1
  H  H617  1  0.050600  0.317100  0.410000  1
  H  H618  1  0.449400  0.817100  0.090000  1
  H  H619  1  0.949400  0.682900  0.590000  1
  H  H620  1  0.550600  0.182900  0.910000  1
  H  H621  1  0.101800  0.274400  0.399500  1
  H  H622  1  0.398200  0.774400  0.100500  1
  H  H623  1  0.898200  0.725600  0.600500  1
  H  H624  1  0.601800  0.225600  0.899500  1
  H  H625  1  0.164000  0.229600  0.387500  1
  H  H626  1  0.336000  0.729600  0.112500  1
  H  H627  1  0.836000  0.770400  0.612500  1
  H  H628  1  0.664000  0.270400  0.887500  1
  H  H629  1  0.234800  0.213500  0.365100  1
  H  H630  1  0.265200  0.713500  0.134900  1
  H  H631  1  0.765200  0.786500  0.634900  1
  H  H632  1  0.734800  0.286500  0.865100  1
  H  H633  1  0.292000  0.248000  0.343600  1
  H  H634  1  0.208000  0.748000  0.156400  1
  H  H635  1  0.708000  0.752000  0.656400  1
  H  H636  1  0.792000  0.252000  0.843600  1
  H  H637  1  0.285700  0.288800  0.339600  1
  H  H638  1  0.214300  0.788800  0.160400  1
  H  H639  1  0.714300  0.711200  0.660400  1
  H  H640  1  0.785700  0.211200  0.839600  1
  H  H641  1  0.179800  0.249800  0.246400  1
  H  H642  1  0.320200  0.749800  0.253600  1
  H  H643  1  0.820200  0.750200  0.753600  1
  H  H644  1  0.679800  0.250200  0.746400  1
  H  H645  1  0.193600  0.252900  0.298300  1
  H  H646  1  0.306400  0.752900  0.201700  1
  H  H647  1  0.806400  0.747100  0.701700  1
  H  H648  1  0.693600  0.247100  0.798300  1
  H  H649  1  0.318700  0.266500  0.215800  1
  H  H650  1  0.181300  0.766500  0.284200  1
  H  H651  1  0.681300  0.733500  0.784200  1
  H  H652  1  0.818700  0.233500  0.715800  1
  H  H653  1  0.392300  0.276400  0.239600  1
  H  H654  1  0.107700  0.776400  0.260400  1
  H  H655  1  0.607700  0.723600  0.760400  1
  H  H656  1  0.892300  0.223600  0.739600  1
  H  H657  1  0.406100  0.279500  0.291400  1
  H  H658  1  0.093900  0.779500  0.208600  1
  H  H659  1  0.593900  0.720500  0.708600  1
  H  H660  1  0.906100  0.220500  0.791400  1
  H  H661  1  0.346400  0.272800  0.319500  1
  H  H662  1  0.153600  0.772800  0.180500  1
  H  H663  1  0.653600  0.727200  0.680500  1
  H  H664  1  0.846400  0.227200  0.819500  1
  H  H665  1  0.208300  0.333200  0.273600  1
  H  H666  1  0.291700  0.833200  0.226400  1
  H  H667  1  0.791700  0.666800  0.726400  1
  H  H668  1  0.708300  0.166800  0.773600  1
  H  H669  1  0.267700  0.343600  0.246000  1
  H  H670  1  0.232300  0.843600  0.254000  1
  H  H671  1  0.732300  0.656400  0.754000  1
  H  H672  1  0.767700  0.156400  0.746000  1
  H  H673  1  0.334100  0.370600  0.268300  1
  H  H674  1  0.165900  0.870600  0.231700  1
  H  H675  1  0.665900  0.629400  0.731700  1
  H  H676  1  0.834100  0.129400  0.768300  1
  H  H677  1  0.341000  0.387100  0.318200  1
  H  H678  1  0.159000  0.887100  0.181800  1
  H  H679  1  0.659000  0.612900  0.681800  1
  H  H680  1  0.841000  0.112900  0.818200  1
  H  H681  1  0.336400  0.408700  0.372800  1
  H  H682  1  0.163600  0.908700  0.127200  1
  H  H683  1  0.663600  0.591300  0.627200  1
  H  H684  1  0.836400  0.091300  0.872800  1
  H  H685  1  0.300900  0.412200  0.420400  1
  H  H686  1  0.199100  0.912200  0.079600  1
  H  H687  1  0.699100  0.587800  0.579600  1
  H  H688  1  0.800900  0.087800  0.920400  1
  H  H689  1  0.182900  0.379600  0.408600  1
  H  H690  1  0.317100  0.879600  0.091400  1
  H  H691  1  0.817100  0.620400  0.591400  1
  H  H692  1  0.682900  0.120400  0.908600  1
  H  H693  1  0.219600  0.392900  0.435400  1
  H  H694  1  0.280400  0.892900  0.064600  1
  H  H695  1  0.780400  0.607100  0.564600  1
  H  H696  1  0.719600  0.107100  0.935400  1
  H  H697  1  0.450700  0.240200  0.520500  1
  H  H698  1  0.049300  0.740200  0.979500  1
  H  H699  1  0.549300  0.759800  0.479500  1
  H  H700  1  0.950700  0.259800  0.020500  1
  H  H701  1  0.509100  0.214100  0.498900  1
  H  H702  1  0.990900  0.714100  0.001100  1
  H  H703  1  0.490900  0.785900  0.501100  1
  H  H704  1  0.009100  0.285900  0.998900  1
  H  H705  1  0.492500  0.182700  0.454700  1
  H  H706  1  0.007500  0.682700  0.045300  1
  H  H707  1  0.507500  0.817300  0.545300  1
  H  H708  1  0.992500  0.317300  0.954700  1
  H  H709  1  0.417400  0.177500  0.432100  1
  H  H710  1  0.082600  0.677500  0.067900  1
  H  H711  1  0.582600  0.822500  0.567900  1
  H  H712  1  0.917400  0.322500  0.932100  1
  H  H713  1  0.331500  0.171500  0.415700  1
  H  H714  1  0.168500  0.671500  0.084300  1
  H  H715  1  0.668500  0.828500  0.584300  1
  H  H716  1  0.831500  0.328500  0.915700  1
  H  H717  1  0.248100  0.184300  0.416400  1
  H  H718  1  0.251900  0.684300  0.083600  1
  H  H719  1  0.751900  0.815700  0.583600  1
  H  H720  1  0.748100  0.315700  0.916400  1
  H  H721  1  0.235200  0.235900  0.482600  1
  H  H722  1  0.264800  0.735900  0.017400  1
  H  H723  1  0.764800  0.764100  0.517400  1
  H  H724  1  0.735200  0.264100  0.982600  1
  H  H725  1  0.205000  0.220900  0.453800  1
  H  H726  1  0.295000  0.720900  0.046200  1
  H  H727  1  0.795000  0.779100  0.546200  1
  H  H728  1  0.705000  0.279100  0.953800  1
  H  H729  1  0.277000  0.326600  0.410200  1
  H  H730  1  0.223000  0.826600  0.089800  1
  H  H731  1  0.723000  0.673400  0.589800  1
  H  H732  1  0.777000  0.173400  0.910200  1
  H  H733  1  0.281700  0.268800  0.425400  1
  H  H734  1  0.218300  0.768800  0.074600  1
  H  H735  1  0.718300  0.731200  0.574600  1
  H  H736  1  0.781700  0.231200  0.925400  1
  H  H737  1  0.154200  0.370000  0.448900  1
  H  H738  1  0.345800  0.870000  0.051100  1
  H  H739  1  0.845800  0.630000  0.551100  1
  H  H740  1  0.654200  0.130000  0.948900  1
  H  H741  1  0.101500  0.347700  0.477700  1
  H  H742  1  0.398500  0.847700  0.022300  1
  H  H743  1  0.898500  0.652300  0.522300  1
  H  H744  1  0.601500  0.152300  0.977700  1
  H  H745  1  0.106300  0.289900  0.493000  1
  H  H746  1  0.393700  0.789900  0.007000  1
  H  H747  1  0.893700  0.710100  0.507000  1
  H  H748  1  0.606300  0.210100  0.993000  1
  H  H749  1  0.163700  0.254400  0.479400  1
  H  H750  1  0.336300  0.754400  0.020600  1
  H  H751  1  0.836300  0.745600  0.520600  1
  H  H752  1  0.663700  0.245600  0.979400  1
  H  H753  1  0.267700  0.240500  0.538800  1
  H  H754  1  0.232300  0.740500  0.961200  1
  H  H755  1  0.732300  0.759500  0.461200  1
  H  H756  1  0.767700  0.259500  0.038800  1
  H  H757  1  0.212100  0.276100  0.554600  1
  H  H758  1  0.287900  0.776100  0.945400  1
  H  H759  1  0.787900  0.723900  0.445400  1
  H  H760  1  0.712100  0.223900  0.054600  1
  H  H761  1  0.207800  0.334400  0.540800  1
  H  H762  1  0.292200  0.834400  0.959200  1
  H  H763  1  0.792200  0.665600  0.459200  1
  H  H764  1  0.707800  0.165600  0.040800  1
  H  H765  1  0.259100  0.357200  0.511300  1
  H  H766  1  0.240900  0.857200  0.988700  1
  H  H767  1  0.740900  0.642800  0.488700  1
  H  H768  1  0.759100  0.142800  0.011300  1
  H  H769  1  0.313200  0.377000  0.478400  1
  H  H770  1  0.186800  0.877000  0.021600  1
  H  H771  1  0.686800  0.623000  0.521600  1
  H  H772  1  0.813200  0.123000  0.978400  1
  H  H773  1  0.376200  0.368700  0.446700  1
  H  H774  1  0.123800  0.868700  0.053300  1
  H  H775  1  0.623800  0.631300  0.553300  1
  H  H776  1  0.876200  0.131300  0.946700  1
  H  H777  1  0.409600  0.313200  0.426600  1
  H  H778  1  0.090400  0.813200  0.073400  1
  H  H779  1  0.590400  0.686800  0.573400  1
  H  H780  1  0.909600  0.186800  0.926600  1
  H  H781  1  0.400100  0.277000  0.441300  1
  H  H782  1  0.099900  0.777000  0.058700  1
  H  H783  1  0.599900  0.723000  0.558700  1
  H  H784  1  0.900100  0.223000  0.941300  1
  H  H785  1  0.652800  0.455400  0.536800  1
  H  H786  1  0.847200  0.955400  0.963200  1
  H  H787  1  0.347200  0.544600  0.463200  1
  H  H788  1  0.152800  0.044600  0.036800  1
  H  H789  1  0.666100  0.476100  0.585600  1
  H  H790  1  0.833900  0.976100  0.914400  1
  H  H791  1  0.333900  0.523900  0.414400  1
  H  H792  1  0.166100  0.023900  0.085600  1
  H  H793  1  0.658700  0.439000  0.625400  1
  H  H794  1  0.841300  0.939000  0.874600  1
  H  H795  1  0.341300  0.561000  0.374600  1
  H  H796  1  0.158700  0.061000  0.125400  1
  H  H797  1  0.637800  0.381300  0.616300  1
  H  H798  1  0.862200  0.881300  0.883700  1
  H  H799  1  0.362200  0.618700  0.383700  1
  H  H800  1  0.137800  0.118700  0.116300  1
  H  H801  1  0.611000  0.323700  0.603400  1
  H  H802  1  0.889000  0.823700  0.896600  1
  H  H803  1  0.389000  0.676300  0.396600  1
  H  H804  1  0.111000  0.176300  0.103400  1
  H  H805  1  0.590700  0.272200  0.569700  1
  H  H806  1  0.909300  0.772200  0.930300  1
  H  H807  1  0.409300  0.727800  0.430300  1
  H  H808  1  0.090700  0.227800  0.069700  1
  H  H809  1  0.599900  0.262300  0.508800  1
  H  H810  1  0.900100  0.762300  0.991200  1
  H  H811  1  0.400100  0.737700  0.491200  1
  H  H812  1  0.099900  0.237700  0.008800  1
  H  H813  1  0.616700  0.295900  0.492800  1
  H  H814  1  0.883300  0.795900  0.007200  1
  H  H815  1  0.383300  0.704100  0.507200  1
  H  H816  1  0.116700  0.204100  0.992800  1
  H  H817  1  0.445700  0.321500  0.499500  1
  H  H818  1  0.054300  0.821500  0.000500  1
  H  H819  1  0.554300  0.678500  0.500500  1
  H  H820  1  0.945700  0.178500  0.999500  1
  H  H821  1  0.519600  0.315900  0.524100  1
  H  H822  1  0.980400  0.815900  0.975900  1
  H  H823  1  0.480400  0.684100  0.475900  1
  H  H824  1  0.019600  0.184100  0.024100  1
  H  H825  1  0.451300  0.275800  0.406900  1
  H  H826  1  0.048700  0.775800  0.093100  1
  H  H827  1  0.548700  0.724200  0.593100  1
  H  H828  1  0.951300  0.224200  0.906900  1
  H  H829  1  0.507700  0.250900  0.382600  1
  H  H830  1  0.992300  0.750900  0.117400  1
  H  H831  1  0.492300  0.749100  0.617400  1
  H  H832  1  0.007700  0.249100  0.882600  1
  H  H833  1  0.581600  0.245400  0.407200  1
  H  H834  1  0.918400  0.745400  0.092800  1
  H  H835  1  0.418400  0.754600  0.592800  1
  H  H836  1  0.081600  0.254600  0.907200  1
  H  H837  1  0.599100  0.264700  0.456200  1
  H  H838  1  0.900900  0.764700  0.043800  1
  H  H839  1  0.400900  0.735300  0.543800  1
  H  H840  1  0.099100  0.235300  0.956200  1
  H  H841  1  0.460000  0.011600  0.099400  1
  H  H842  1  0.040000  0.511600  0.400600  1
  H  H843  1  0.540000  0.988400  0.900600  1
  H  H844  1  0.960000  0.488400  0.599400  1
  H  H845  1  0.471700  0.977100  0.058800  1
  H  H846  1  0.028300  0.477100  0.441200  1
  H  H847  1  0.528300  0.022900  0.941200  1
  H  H848  1  0.971700  0.522900  0.558800  1
  H  H849  1  0.543100  0.975100  0.043000  1
  H  H850  1  0.956900  0.475100  0.457000  1
  H  H851  1  0.456900  0.024900  0.957000  1
  H  H852  1  0.043100  0.524900  0.543000  1
  H  H853  1  0.603000  0.007600  0.067600  1
  H  H854  1  0.897000  0.507600  0.432400  1
  H  H855  1  0.397000  0.992400  0.932400  1
  H  H856  1  0.103000  0.492400  0.567600  1
  H  H857  1  0.657200  0.049400  0.089400  1
  H  H858  1  0.842800  0.549400  0.410600  1
  H  H859  1  0.342800  0.950600  0.910600  1
  H  H860  1  0.157200  0.450600  0.589400  1
  H  H861  1  0.689700  0.091900  0.129200  1
  H  H862  1  0.810300  0.591900  0.370800  1
  H  H863  1  0.310300  0.908100  0.870800  1
  H  H864  1  0.189700  0.408100  0.629200  1
  H  H865  1  0.664500  0.115200  0.178600  1
  H  H866  1  0.835500  0.615200  0.321400  1
  H  H867  1  0.335500  0.884800  0.821400  1
  H  H868  1  0.164500  0.384800  0.678600  1
  H  H869  1  0.617600  0.101700  0.187900  1
  H  H870  1  0.882400  0.601700  0.312100  1
  H  H871  1  0.382400  0.898300  0.812100  1
  H  H872  1  0.117600  0.398300  0.687900  1
  H  H873  1  0.695200  0.301700  0.049400  1
  H  H874  1  0.804800  0.801700  0.450600  1
  H  H875  1  0.304800  0.698300  0.950600  1
  H  H876  1  0.195200  0.198300  0.549400  1
  H  H877  1  0.671000  0.318900  0.000400  1
  H  H878  1  0.829000  0.818900  0.499600  1
  H  H879  1  0.329000  0.681100  0.999600  1
  H  H880  1  0.171000  0.181100  0.500400  1
  H  H881  1  0.595000  0.312300  0.980100  1
  H  H882  1  0.905000  0.812300  0.519900  1
  H  H883  1  0.405000  0.687700  0.019900  1
  H  H884  1  0.095000  0.187700  0.480100  1
  H  H885  1  0.543100  0.288500  0.008700  1
  H  H886  1  0.956900  0.788500  0.491300  1
  H  H887  1  0.456900  0.711500  0.991300  1
  H  H888  1  0.043100  0.211500  0.508700  1
  H  H889  1  0.486500  0.264300  0.050300  1
  H  H890  1  0.013500  0.764300  0.449700  1
  H  H891  1  0.513500  0.735700  0.949700  1
  H  H892  1  0.986500  0.235700  0.550300  1
  H  H893  1  0.477500  0.249700  0.103700  1
  H  H894  1  0.022500  0.749700  0.396300  1
  H  H895  1  0.522500  0.750300  0.896300  1
  H  H896  1  0.977500  0.250300  0.603700  1
  H  H897  1  0.527100  0.252600  0.153700  1
  H  H898  1  0.972900  0.752600  0.346300  1
  H  H899  1  0.472900  0.747400  0.846300  1
  H  H900  1  0.027100  0.247400  0.653700  1
  H  H901  1  0.577800  0.267300  0.155300  1
  H  H902  1  0.922200  0.767300  0.344700  1
  H  H903  1  0.422200  0.732700  0.844700  1
  H  H904  1  0.077800  0.232700  0.655300  1
  H  H905  1  0.600900  0.142100  0.118300  1
  H  H906  1  0.899100  0.642100  0.381700  1
  H  H907  1  0.399100  0.857900  0.881700  1
  H  H908  1  0.100900  0.357900  0.618300  1
  H  H909  1  0.571400  0.197500  0.107700  1
  H  H910  1  0.928600  0.697500  0.392300  1
  H  H911  1  0.428600  0.802500  0.892300  1
  H  H912  1  0.071400  0.302500  0.607700  1
  H  H913  1  0.629600  0.137600  0.220000  1
  H  H914  1  0.870400  0.637600  0.280000  1
  H  H915  1  0.370400  0.862400  0.780000  1
  H  H916  1  0.129600  0.362400  0.720000  1
  H  H917  1  0.621100  0.175800  0.258700  1
  H  H918  1  0.878900  0.675800  0.241300  1
  H  H919  1  0.378900  0.824200  0.741300  1
  H  H920  1  0.121100  0.324200  0.758700  1
  H  H921  1  0.591600  0.231200  0.248200  1
  H  H922  1  0.908400  0.731200  0.251800  1
  H  H923  1  0.408400  0.768800  0.751800  1
  H  H924  1  0.091600  0.268800  0.748200  1
  H  H925  1  0.570400  0.248300  0.198800  1
  H  H926  1  0.929600  0.748300  0.301200  1
  H  H927  1  0.429600  0.751700  0.801200  1
  H  H928  1  0.070400  0.251700  0.698800  1
  H  H929  1  0.683900  0.203800  0.134800  1
  H  H930  1  0.816100  0.703800  0.365200  1
  H  H931  1  0.316100  0.796200  0.865200  1
  H  H932  1  0.183900  0.296200  0.634800  1
  H  H933  1  0.705400  0.190500  0.184900  1
  H  H934  1  0.794600  0.690500  0.315100  1
  H  H935  1  0.294600  0.809500  0.815100  1
  H  H936  1  0.205400  0.309500  0.684900  1
  H  H937  1  0.705300  0.233600  0.221000  1
  H  H938  1  0.794700  0.733600  0.279000  1
  H  H939  1  0.294700  0.766400  0.779000  1
  H  H940  1  0.205300  0.266400  0.721000  1
  H  H941  1  0.683600  0.290000  0.207000  1
  H  H942  1  0.816400  0.790000  0.293000  1
  H  H943  1  0.316400  0.710000  0.793000  1
  H  H944  1  0.183600  0.210000  0.707000  1
  H  H945  1  0.665300  0.349200  0.192700  1
  H  H946  1  0.834700  0.849200  0.307300  1
  H  H947  1  0.334700  0.650800  0.807300  1
  H  H948  1  0.165300  0.150800  0.692700  1
  H  H949  1  0.640100  0.394900  0.153900  1
  H  H950  1  0.859900  0.894900  0.346100  1
  H  H951  1  0.359900  0.605100  0.846100  1
  H  H952  1  0.140100  0.105100  0.653900  1
  H  H953  1  0.625100  0.395600  0.094900  1
  H  H954  1  0.874900  0.895600  0.405100  1
  H  H955  1  0.374900  0.604400  0.905100  1
  H  H956  1  0.125100  0.104400  0.594900  1
  H  H957  1  0.640400  0.361900  0.078300  1
  H  H958  1  0.859600  0.861900  0.421700  1
  H  H959  1  0.359600  0.638100  0.921700  1
  H  H960  1  0.140400  0.138100  0.578300  1
  H  H961  1  0.369900  0.418100  0.184600  1
  H  H962  1  0.130100  0.918100  0.315400  1
  H  H963  1  0.630100  0.581900  0.815400  1
  H  H964  1  0.869900  0.081900  0.684600  1
  H  H965  1  0.330700  0.385400  0.216200  1
  H  H966  1  0.169300  0.885400  0.283800  1
  H  H967  1  0.669300  0.614600  0.783800  1
  H  H968  1  0.830700  0.114600  0.716200  1
  H  H969  1  0.311200  0.328000  0.204200  1
  H  H970  1  0.188800  0.828000  0.295800  1
  H  H971  1  0.688800  0.672000  0.795800  1
  H  H972  1  0.811200  0.172000  0.704200  1
  H  H973  1  0.330900  0.303400  0.160700  1
  H  H974  1  0.169100  0.803400  0.339300  1
  H  H975  1  0.669100  0.696600  0.839300  1
  H  H976  1  0.830900  0.196600  0.660700  1
  H  H977  1  0.356300  0.281100  0.116400  1
  H  H978  1  0.143700  0.781100  0.383600  1
  H  H979  1  0.643700  0.718900  0.883600  1
  H  H980  1  0.856300  0.218900  0.616400  1
  H  H981  1  0.397500  0.281500  0.071000  1
  H  H982  1  0.102500  0.781500  0.429000  1
  H  H983  1  0.602500  0.718500  0.929000  1
  H  H984  1  0.897500  0.218500  0.571000  1
  H  H985  1  0.421900  0.372300  0.053700  1
  H  H986  1  0.078100  0.872300  0.446300  1
  H  H987  1  0.578100  0.627700  0.946300  1
  H  H988  1  0.921900  0.127700  0.553700  1
  H  H989  1  0.427800  0.334600  0.040300  1
  H  H990  1  0.072200  0.834600  0.459700  1
  H  H991  1  0.572200  0.665400  0.959700  1
  H  H992  1  0.927800  0.165400  0.540300  1
  H  H993  1  0.561400  0.342200  0.125000  1
  H  H994  1  0.938600  0.842200  0.375000  1
  H  H995  1  0.438600  0.657800  0.875000  1
  H  H996  1  0.061400  0.157800  0.625000  1
  H  H997  1  0.483900  0.334000  0.109700  1
  H  H998  1  0.016100  0.834000  0.390300  1
  H  H999  1  0.516100  0.666000  0.890300  1
  H  H1000  1  0.983900  0.166000  0.609700  1
  H  H1001  1  0.616500  0.385500  0.043100  1
  H  H1002  1  0.883500  0.885500  0.456900  1
  H  H1003  1  0.383500  0.614500  0.956900  1
  H  H1004  1  0.116500  0.114500  0.543100  1
  H  H1005  1  0.585200  0.399300  0.994400  1
  H  H1006  1  0.914800  0.899300  0.505600  1
  H  H1007  1  0.414800  0.600700  0.005600  1
  H  H1008  1  0.085200  0.100700  0.494400  1
  H  H1009  1  0.507700  0.391100  0.979100  1
  H  H1010  1  0.992300  0.891100  0.520900  1
  H  H1011  1  0.492300  0.608900  0.020900  1
  H  H1012  1  0.007700  0.108900  0.479100  1
  H  H1013  1  0.461500  0.369100  0.012400  1
  H  H1014  1  0.038500  0.869100  0.487600  1
  H  H1015  1  0.538500  0.630900  0.987600  1
  H  H1016  1  0.961500  0.130900  0.512400  1
  H  H1017  1  0.381900  0.433700  0.059800  1
  H  H1018  1  0.118100  0.933700  0.440200  1
  H  H1019  1  0.618100  0.566300  0.940200  1
  H  H1020  1  0.881900  0.066300  0.559800  1
  H  H1021  1  0.422500  0.461700  0.026200  1
  H  H1022  1  0.077500  0.961700  0.473800  1
  H  H1023  1  0.577500  0.538300  0.973800  1
  H  H1024  1  0.922500  0.038300  0.526200  1
  H  H1025  1  0.500300  0.471800  0.038800  1
  H  H1026  1  0.999700  0.971800  0.461200  1
  H  H1027  1  0.499700  0.528200  0.961200  1
  H  H1028  1  0.000300  0.028200  0.538800  1
  H  H1029  1  0.537300  0.453800  0.084900  1
  H  H1030  1  0.962700  0.953800  0.415100  1
  H  H1031  1  0.462700  0.546200  0.915100  1
  H  H1032  1  0.037300  0.046200  0.584900  1
  H  H1033  1  0.572200  0.436600  0.135400  1
  H  H1034  1  0.927800  0.936600  0.364600  1
  H  H1035  1  0.427800  0.563400  0.864600  1
  H  H1036  1  0.072200  0.063400  0.635400  1
  H  H1037  1  0.574100  0.401800  0.182800  1
  H  H1038  1  0.925900  0.901800  0.317200  1
  H  H1039  1  0.425900  0.598200  0.817200  1
  H  H1040  1  0.074100  0.098200  0.682800  1
  H  H1041  1  0.511400  0.353800  0.200400  1
  H  H1042  1  0.988600  0.853800  0.299600  1
  H  H1043  1  0.488600  0.646200  0.799600  1
  H  H1044  1  0.011400  0.146200  0.700400  1
  H  H1045  1  0.462100  0.354700  0.181000  1
  H  H1046  1  0.037900  0.854700  0.319000  1
  H  H1047  1  0.537900  0.645300  0.819000  1
  H  H1048  1  0.962100  0.145300  0.681000  1
  H  H1049  1  0.566300  0.584700  0.313000  1
  H  H1050  1  0.933700  0.084700  0.187000  1
  H  H1051  1  0.433700  0.415300  0.687000  1
  H  H1052  1  0.066300  0.915300  0.813000  1
  H  H1053  1  0.551400  0.641900  0.298200  1
  H  H1054  1  0.948600  0.141900  0.201800  1
  H  H1055  1  0.448600  0.358100  0.701800  1
  H  H1056  1  0.051400  0.858100  0.798200  1
  H  H1057  1  0.482500  0.656200  0.269600  1
  H  H1058  1  0.017500  0.156200  0.230400  1
  H  H1059  1  0.517500  0.343800  0.730400  1
  H  H1060  1  0.982500  0.843800  0.769600  1
  H  H1061  1  0.428400  0.613100  0.255900  1
  H  H1062  1  0.071600  0.113100  0.244100  1
  H  H1063  1  0.571600  0.386900  0.744100  1
  H  H1064  1  0.928400  0.886900  0.755900  1
  H  H1065  1  0.376200  0.562300  0.243900  1
  H  H1066  1  0.123800  0.062300  0.256100  1
  H  H1067  1  0.623800  0.437700  0.756100  1
  H  H1068  1  0.876200  0.937700  0.743900  1
  H  H1069  1  0.347000  0.501200  0.248300  1
  H  H1070  1  0.153000  0.001200  0.251700  1
  H  H1071  1  0.653000  0.498800  0.751700  1
  H  H1072  1  0.847000  0.998800  0.748300  1
  H  H1073  1  0.381000  0.444900  0.278300  1
  H  H1074  1  0.119000  0.944900  0.221700  1
  H  H1075  1  0.619000  0.555100  0.721700  1
  H  H1076  1  0.881000  0.055100  0.778300  1
  H  H1077  1  0.427900  0.449500  0.299500  1
  H  H1078  1  0.072100  0.949500  0.200500  1
  H  H1079  1  0.572100  0.550500  0.700500  1
  H  H1080  1  0.927900  0.050500  0.799500  1
  H  H1081  1  0.465600  0.438300  0.190400  1
  H  H1082  1  0.034400  0.938300  0.309600  1
  H  H1083  1  0.534400  0.561700  0.809600  1
  H  H1084  1  0.965600  0.061700  0.690400  1
  H  H1085  1  0.437700  0.472600  0.226300  1
  H  H1086  1  0.062300  0.972600  0.273700  1
  H  H1087  1  0.562300  0.527400  0.773700  1
  H  H1088  1  0.937700  0.027400  0.726300  1
  H  H1089  1  0.482800  0.330500  0.232500  1
  H  H1090  1  0.017200  0.830500  0.267500  1
  H  H1091  1  0.517200  0.669500  0.767500  1
  H  H1092  1  0.982800  0.169500  0.732500  1
  H  H1093  1  0.470300  0.306200  0.277800  1
  H  H1094  1  0.029700  0.806200  0.222200  1
  H  H1095  1  0.529700  0.693800  0.722200  1
  H  H1096  1  0.970300  0.193800  0.777800  1
  H  H1097  1  0.442400  0.340400  0.313700  1
  H  H1098  1  0.057600  0.840400  0.186300  1
  H  H1099  1  0.557600  0.659600  0.686300  1
  H  H1100  1  0.942400  0.159600  0.813700  1
  H  H1101  1  0.426900  0.399000  0.304200  1
  H  H1102  1  0.073100  0.899000  0.195800  1
  H  H1103  1  0.573100  0.601000  0.695800  1
  H  H1104  1  0.926900  0.101000  0.804200  1
  H  H1105  1  0.823700  0.396600  0.272100  1
  H  H1106  1  0.676300  0.896600  0.227900  1
  H  H1107  1  0.176300  0.603400  0.727900  1
  H  H1108  1  0.323700  0.103400  0.772100  1
  H  H1109  1  0.801100  0.441900  0.239200  1
  H  H1110  1  0.698900  0.941900  0.260800  1
  H  H1111  1  0.198900  0.558100  0.760800  1
  H  H1112  1  0.301100  0.058100  0.739200  1
  H  H1113  1  0.776400  0.494200  0.257200  1
  H  H1114  1  0.723600  0.994200  0.242800  1
  H  H1115  1  0.223600  0.505800  0.742800  1
  H  H1116  1  0.276400  0.005800  0.757200  1
  H  H1117  1  0.774300  0.501400  0.308100  1
  H  H1118  1  0.725700  0.001400  0.191900  1
  H  H1119  1  0.225700  0.498600  0.691900  1
  H  H1120  1  0.274300  0.998600  0.808100  1
  H  H1121  1  0.780600  0.507600  0.361500  1
  H  H1122  1  0.719400  0.007600  0.138500  1
  H  H1123  1  0.219400  0.492400  0.638500  1
  H  H1124  1  0.280600  0.992400  0.861500  1
  H  H1125  1  0.798400  0.489200  0.415400  1
  H  H1126  1  0.701600  0.989200  0.084600  1
  H  H1127  1  0.201600  0.510800  0.584600  1
  H  H1128  1  0.298400  0.010800  0.915400  1
  H  H1129  1  0.836000  0.430200  0.441200  1
  H  H1130  1  0.664000  0.930200  0.058800  1
  H  H1131  1  0.164000  0.569800  0.558800  1
  H  H1132  1  0.336000  0.069800  0.941200  1
  H  H1133  1  0.851600  0.402300  0.418800  1
  H  H1134  1  0.648400  0.902300  0.081200  1
  H  H1135  1  0.148400  0.597700  0.581200  1
  H  H1136  1  0.351600  0.097700  0.918800  1
  H  H1137  1  0.552000  0.419100  0.536200  1
  H  H1138  1  0.948000  0.919100  0.963800  1
  H  H1139  1  0.448000  0.580900  0.463800  1
  H  H1140  1  0.052000  0.080900  0.036200  1
  H  H1141  1  0.473800  0.426200  0.523300  1
  H  H1142  1  0.026200  0.926200  0.976700  1
  H  H1143  1  0.526200  0.573800  0.476700  1
  H  H1144  1  0.973800  0.073800  0.023300  1
  H  H1145  1  0.439000  0.409900  0.476100  1
  H  H1146  1  0.061000  0.909900  0.023900  1
  H  H1147  1  0.561000  0.590100  0.523900  1
  H  H1148  1  0.939000  0.090100  0.976100  1
  H  H1149  1  0.482400  0.386500  0.441700  1
  H  H1150  1  0.017600  0.886500  0.058300  1
  H  H1151  1  0.517600  0.613500  0.558300  1
  H  H1152  1  0.982400  0.113500  0.941700  1
  H  H1153  1  0.535400  0.359200  0.407400  1
  H  H1154  1  0.964600  0.859200  0.092600  1
  H  H1155  1  0.464600  0.640800  0.592600  1
  H  H1156  1  0.035400  0.140800  0.907400  1
  H  H1157  1  0.609400  0.330500  0.399500  1
  H  H1158  1  0.890600  0.830500  0.100500  1
  H  H1159  1  0.390600  0.669500  0.600500  1
  H  H1160  1  0.109400  0.169500  0.899500  1
  H  H1161  1  0.676200  0.305500  0.441800  1
  H  H1162  1  0.823800  0.805500  0.058200  1
  H  H1163  1  0.323800  0.694500  0.558200  1
  H  H1164  1  0.176200  0.194500  0.941800  1
  H  H1165  1  0.683100  0.325200  0.473200  1
  H  H1166  1  0.816900  0.825200  0.026800  1
  H  H1167  1  0.316900  0.674800  0.526800  1
  H  H1168  1  0.183100  0.174800  0.973200  1
  H  H1169  1  0.738300  0.422100  0.407100  1
  H  H1170  1  0.761700  0.922100  0.092900  1
  H  H1171  1  0.261700  0.577900  0.592900  1
  H  H1172  1  0.238300  0.077900  0.907100  1
  H  H1173  1  0.677700  0.387100  0.416400  1
  H  H1174  1  0.822300  0.887100  0.083600  1
  H  H1175  1  0.322300  0.612900  0.583600  1
  H  H1176  1  0.177700  0.112900  0.916400  1
  H  H1177  1  0.864900  0.367500  0.453900  1
  H  H1178  1  0.635100  0.867500  0.046100  1
  H  H1179  1  0.135100  0.632500  0.546100  1
  H  H1180  1  0.364900  0.132500  0.953900  1
  H  H1181  1  0.878600  0.317000  0.482100  1
  H  H1182  1  0.621400  0.817000  0.017900  1
  H  H1183  1  0.121400  0.683000  0.517900  1
  H  H1184  1  0.378600  0.183000  0.982100  1
  H  H1185  1  0.818000  0.282000  0.491400  1
  H  H1186  1  0.682000  0.782000  0.008600  1
  H  H1187  1  0.182000  0.718000  0.508600  1
  H  H1188  1  0.318000  0.218000  0.991400  1
  H  H1189  1  0.743700  0.297500  0.472500  1
  H  H1190  1  0.756300  0.797500  0.027500  1
  H  H1191  1  0.256300  0.702500  0.527500  1
  H  H1192  1  0.243700  0.202500  0.972500  1
  H  H1193  1  0.699400  0.334100  0.529500  1
  H  H1194  1  0.800600  0.834100  0.970500  1
  H  H1195  1  0.300600  0.665900  0.470500  1
  H  H1196  1  0.199400  0.165900  0.029500  1
  H  H1197  1  0.778400  0.330800  0.540500  1
  H  H1198  1  0.721600  0.830800  0.959500  1
  H  H1199  1  0.221600  0.669200  0.459500  1
  H  H1200  1  0.278400  0.169200  0.040500  1
  H  H1201  1  0.823600  0.375700  0.526300  1
  H  H1202  1  0.676400  0.875700  0.973700  1
  H  H1203  1  0.176400  0.624300  0.473700  1
  H  H1204  1  0.323600  0.124300  0.026300  1
  H  H1205  1  0.789800  0.423900  0.501200  1
  H  H1206  1  0.710200  0.923900  0.998800  1
  H  H1207  1  0.210200  0.576100  0.498800  1
  H  H1208  1  0.289800  0.076100  0.001200  1
  H  H1209  1  0.752200  0.470300  0.469700  1
  H  H1210  1  0.747800  0.970300  0.030300  1
  H  H1211  1  0.247800  0.529700  0.530300  1
  H  H1212  1  0.252200  0.029700  0.969700  1
  H  H1213  1  0.685200  0.509600  0.453300  1
  H  H1214  1  0.814800  0.009600  0.046700  1
  H  H1215  1  0.314800  0.490400  0.546700  1
  H  H1216  1  0.185200  0.990400  0.953300  1
  H  H1217  1  0.596900  0.507000  0.468900  1
  H  H1218  1  0.903100  0.007000  0.031100  1
  H  H1219  1  0.403100  0.493000  0.531100  1
  H  H1220  1  0.096900  0.993000  0.968900  1
  H  H1221  1  0.582800  0.470500  0.481300  1
  H  H1222  1  0.917200  0.970500  0.018700  1
  H  H1223  1  0.417200  0.529500  0.518700  1
  H  H1224  1  0.082800  0.029500  0.981300  1
  H  H1225  1  0.535800  0.550400  0.245000  1
  H  H1226  1  0.964200  0.050400  0.255000  1
  H  H1227  1  0.464200  0.449600  0.755000  1
  H  H1228  1  0.035800  0.949600  0.745000  1
  H  H1229  1  0.559000  0.532200  0.200400  1
  H  H1230  1  0.941000  0.032200  0.299600  1
  H  H1231  1  0.441000  0.467800  0.799600  1
  H  H1232  1  0.059000  0.967800  0.700400  1
  H  H1233  1  0.579300  0.474400  0.194400  1
  H  H1234  1  0.920700  0.974400  0.305600  1
  H  H1235  1  0.420700  0.525600  0.805600  1
  H  H1236  1  0.079300  0.025600  0.694400  1
  H  H1237  1  0.576500  0.434900  0.233100  1
  H  H1238  1  0.923500  0.934900  0.266900  1
  H  H1239  1  0.423500  0.565100  0.766900  1
  H  H1240  1  0.076500  0.065100  0.733100  1
  H  H1241  1  0.575500  0.396900  0.279700  1
  H  H1242  1  0.924500  0.896900  0.220300  1
  H  H1243  1  0.424500  0.603100  0.720300  1
  H  H1244  1  0.075500  0.103100  0.779700  1
  H  H1245  1  0.548100  0.383100  0.328800  1
  H  H1246  1  0.951900  0.883100  0.171200  1
  H  H1247  1  0.451900  0.616900  0.671200  1
  H  H1248  1  0.048100  0.116900  0.828800  1
  H  H1249  1  0.486700  0.414200  0.355800  1
  H  H1250  1  0.013300  0.914200  0.144200  1
  H  H1251  1  0.513300  0.585800  0.644200  1
  H  H1252  1  0.986700  0.085800  0.855800  1
  H  H1253  1  0.475400  0.453800  0.348300  1
  H  H1254  1  0.024600  0.953800  0.151700  1
  H  H1255  1  0.524600  0.546200  0.651700  1
  H  H1256  1  0.975400  0.046200  0.848300  1
  H  H1257  1  0.628100  0.459800  0.414900  1
  H  H1258  1  0.871900  0.959800  0.085100  1
  H  H1259  1  0.371900  0.540200  0.585100  1
  H  H1260  1  0.128100  0.040200  0.914900  1
  H  H1261  1  0.586900  0.438500  0.371000  1
  H  H1262  1  0.913100  0.938500  0.129000  1
  H  H1263  1  0.413100  0.561500  0.629000  1
  H  H1264  1  0.086900  0.061500  0.871000  1
  H  H1265  1  0.520200  0.494000  0.471800  1
  H  H1266  1  0.979800  0.994000  0.028200  1
  H  H1267  1  0.479800  0.506000  0.528200  1
  H  H1268  1  0.020200  0.006000  0.971800  1
  H  H1269  1  0.440900  0.494100  0.465900  1
  H  H1270  1  0.059100  0.994100  0.034100  1
  H  H1271  1  0.559100  0.505900  0.534100  1
  H  H1272  1  0.940900  0.005900  0.965900  1
  H  H1273  1  0.399700  0.472900  0.422100  1
  H  H1274  1  0.100300  0.972900  0.077900  1
  H  H1275  1  0.600300  0.527100  0.577900  1
  H  H1276  1  0.899700  0.027100  0.922100  1
  H  H1277  1  0.437900  0.451500  0.384200  1
  H  H1278  1  0.062100  0.951500  0.115800  1
  H  H1279  1  0.562100  0.548500  0.615800  1
  H  H1280  1  0.937900  0.048500  0.884200  1
  H  H1281  1  0.913900  0.353100  0.381500  1
  H  H1282  1  0.586100  0.853100  0.118500  1
  H  H1283  1  0.086100  0.646900  0.618500  1
  H  H1284  1  0.413900  0.146900  0.881500  1
  H  H1285  1  0.924300  0.307000  0.415100  1
  H  H1286  1  0.575700  0.807000  0.084900  1
  H  H1287  1  0.075700  0.693000  0.584900  1
  H  H1288  1  0.424300  0.193000  0.915100  1
  H  H1289  1  0.862200  0.273700  0.424400  1
  H  H1290  1  0.637800  0.773700  0.075600  1
  H  H1291  1  0.137800  0.726300  0.575600  1
  H  H1292  1  0.362200  0.226300  0.924400  1
  H  H1293  1  0.789700  0.286300  0.400100  1
  H  H1294  1  0.710300  0.786300  0.099900  1
  H  H1295  1  0.210300  0.713700  0.599900  1
  H  H1296  1  0.289700  0.213700  0.900100  1
  H  H1297  1  0.714300  0.307200  0.372800  1
  H  H1298  1  0.785700  0.807200  0.127200  1
  H  H1299  1  0.285700  0.692800  0.627200  1
  H  H1300  1  0.214300  0.192800  0.872800  1
  H  H1301  1  0.666200  0.333900  0.328300  1
  H  H1302  1  0.833800  0.833900  0.171700  1
  H  H1303  1  0.333800  0.666100  0.671700  1
  H  H1304  1  0.166200  0.166100  0.828300  1
  H  H1305  1  0.692000  0.362400  0.279800  1
  H  H1306  1  0.808000  0.862400  0.220200  1
  H  H1307  1  0.308000  0.637600  0.720200  1
  H  H1308  1  0.192000  0.137600  0.779800  1
  H  H1309  1  0.741900  0.378300  0.282500  1
  H  H1310  1  0.758100  0.878300  0.217500  1
  H  H1311  1  0.258100  0.621700  0.717500  1
  H  H1312  1  0.241900  0.121700  0.782500  1
  H  H1313  1  0.441700  0.516700  0.339600  1
  H  H1314  1  0.058300  0.016700  0.160400  1
  H  H1315  1  0.558300  0.483300  0.660400  1
  H  H1316  1  0.941700  0.983300  0.839600  1
  H  H1317  1  0.425900  0.538800  0.385000  1
  H  H1318  1  0.074100  0.038800  0.115000  1
  H  H1319  1  0.574100  0.461200  0.615000  1
  H  H1320  1  0.925900  0.961200  0.885000  1
  H  H1321  1  0.484800  0.560000  0.419700  1
  H  H1322  1  0.015200  0.060000  0.080300  1
  H  H1323  1  0.515200  0.440000  0.580300  1
  H  H1324  1  0.984800  0.940000  0.919700  1
  H  H1325  1  0.559400  0.559000  0.408900  1
  H  H1326  1  0.940600  0.059000  0.091100  1
  H  H1327  1  0.440600  0.441000  0.591100  1
  H  H1328  1  0.059400  0.941000  0.908900  1
  H  H1329  1  0.639200  0.550000  0.395700  1
  H  H1330  1  0.860800  0.050000  0.104300  1
  H  H1331  1  0.360800  0.450000  0.604300  1
  H  H1332  1  0.139200  0.950000  0.895700  1
  H  H1333  1  0.695400  0.544100  0.358700  1
  H  H1334  1  0.804600  0.044100  0.141300  1
  H  H1335  1  0.304600  0.455900  0.641300  1
  H  H1336  1  0.195400  0.955900  0.858700  1
  H  H1337  1  0.682200  0.536100  0.297000  1
  H  H1338  1  0.817800  0.036100  0.203000  1
  H  H1339  1  0.317800  0.463900  0.703000  1
  H  H1340  1  0.182200  0.963900  0.797000  1
  H  H1341  1  0.631900  0.525500  0.282700  1
  H  H1342  1  0.868100  0.025500  0.217300  1
  H  H1343  1  0.368100  0.474500  0.717300  1
  H  H1344  1  0.131900  0.974500  0.782700  1
  H  H1345  1  0.691600  0.412600  0.339600  1
  H  H1346  1  0.808400  0.912600  0.160400  1
  H  H1347  1  0.308400  0.587400  0.660400  1
  H  H1348  1  0.191600  0.087400  0.839600  1
  H  H1349  1  0.671200  0.470700  0.343700  1
  H  H1350  1  0.828800  0.970700  0.156300  1
  H  H1351  1  0.328800  0.529300  0.656300  1
  H  H1352  1  0.171200  0.029300  0.843700  1
  H  H1353  1  0.704100  0.397800  0.240900  1
  H  H1354  1  0.795900  0.897800  0.259100  1
  H  H1355  1  0.295900  0.602200  0.759100  1
  H  H1356  1  0.204100  0.102200  0.740900  1
  H  H1357  1  0.694900  0.433300  0.198800  1
  H  H1358  1  0.805100  0.933300  0.301200  1
  H  H1359  1  0.305100  0.566700  0.801200  1
  H  H1360  1  0.194900  0.066700  0.698800  1
  H  H1361  1  0.674500  0.491300  0.202900  1
  H  H1362  1  0.825500  0.991300  0.297100  1
  H  H1363  1  0.325500  0.508700  0.797100  1
  H  H1364  1  0.174500  0.008700  0.702900  1
  H  H1365  1  0.663300  0.513900  0.249200  1
  H  H1366  1  0.836700  0.013900  0.250800  1
  H  H1367  1  0.336700  0.486100  0.750800  1
  H  H1368  1  0.163300  0.986100  0.749200  1
  C  C1369  1  0.537900  0.977200  0.363300  1
  C  C1370  1  0.962100  0.477200  0.136700  1
  C  C1371  1  0.462100  0.022800  0.636700  1
  C  C1372  1  0.037900  0.522800  0.863300  1
  C  C1373  1  0.584000  0.979600  0.361500  1
  C  C1374  1  0.916000  0.479600  0.138500  1
  C  C1375  1  0.416000  0.020400  0.638500  1
  C  C1376  1  0.084000  0.520400  0.861500  1
  C  C1377  1  0.601500  0.009400  0.350200  1
  C  C1378  1  0.898500  0.509400  0.149800  1
  C  C1379  1  0.398500  0.990600  0.649800  1
  C  C1380  1  0.101500  0.490600  0.850200  1
  C  C1381  1  0.572900  0.036700  0.340800  1
  C  C1382  1  0.927100  0.536700  0.159200  1
  C  C1383  1  0.427100  0.963300  0.659200  1
  C  C1384  1  0.072900  0.463300  0.840800  1
  C  C1385  1  0.526800  0.034300  0.342600  1
  C  C1386  1  0.973200  0.534300  0.157400  1
  C  C1387  1  0.473200  0.965700  0.657400  1
  C  C1388  1  0.026800  0.465700  0.842600  1
  C  C1389  1  0.497500  0.060200  0.336200  1
  C  C1390  1  0.002500  0.560200  0.163800  1
  C  C1391  1  0.502500  0.939800  0.663800  1
  C  C1392  1  0.997500  0.439800  0.836200  1
  C  C1393  1  0.500600  0.094000  0.324500  1
  C  C1394  1  0.999400  0.594000  0.175500  1
  C  C1395  1  0.499400  0.906000  0.675500  1
  C  C1396  1  0.000600  0.406000  0.824500  1
  C  C1397  1  0.458800  0.111200  0.326100  1
  C  C1398  1  0.041200  0.611200  0.173900  1
  C  C1399  1  0.541200  0.888800  0.673900  1
  C  C1400  1  0.958800  0.388800  0.826100  1
  C  C1401  1  0.385900  0.096000  0.346600  1
  C  C1402  1  0.114100  0.596000  0.153400  1
  C  C1403  1  0.614100  0.904000  0.653400  1
  C  C1404  1  0.885900  0.404000  0.846600  1
  C  C1405  1  0.230800  0.170300  0.141200  1
  C  C1406  1  0.269200  0.670300  0.358800  1
  C  C1407  1  0.769200  0.829700  0.858800  1
  C  C1408  1  0.730800  0.329700  0.641200  1
  C  C1409  1  0.239500  0.161900  0.112800  1
  C  C1410  1  0.260500  0.661900  0.387200  1
  C  C1411  1  0.760500  0.838100  0.887200  1
  C  C1412  1  0.739500  0.338100  0.612800  1
  C  C1413  1  0.254700  0.129000  0.106900  1
  C  C1414  1  0.245300  0.629000  0.393100  1
  C  C1415  1  0.745300  0.871000  0.893100  1
  C  C1416  1  0.754700  0.371000  0.606900  1
  C  C1417  1  0.261100  0.104400  0.129400  1
  C  C1418  1  0.238900  0.604400  0.370600  1
  C  C1419  1  0.738900  0.895600  0.870600  1
  C  C1420  1  0.761100  0.395600  0.629400  1
  C  C1421  1  0.252400  0.112800  0.157800  1
  C  C1422  1  0.247600  0.612800  0.342200  1
  C  C1423  1  0.747600  0.887200  0.842200  1
  C  C1424  1  0.752400  0.387200  0.657800  1
  C  C1425  1  0.257400  0.088000  0.179900  1
  C  C1426  1  0.242600  0.588000  0.320100  1
  C  C1427  1  0.742600  0.912000  0.820100  1
  C  C1428  1  0.757400  0.412000  0.679900  1
  C  C1429  1  0.264500  0.051600  0.180100  1
  C  C1430  1  0.235500  0.551600  0.319900  1
  C  C1431  1  0.735500  0.948400  0.819900  1
  C  C1432  1  0.764500  0.448400  0.680100  1
  C  C1433  1  0.256400  0.038700  0.208200  1
  C  C1434  1  0.243600  0.538700  0.291800  1
  C  C1435  1  0.743600  0.961300  0.791800  1
  C  C1436  1  0.756400  0.461300  0.708200  1
  C  C1437  1  0.232500  0.066100  0.255400  1
  C  C1438  1  0.267500  0.566100  0.244600  1
  C  C1439  1  0.767500  0.933900  0.744600  1
  C  C1440  1  0.732500  0.433900  0.755400  1
  C  C1441  1  0.346300  0.090500  0.321800  1
  C  C1442  1  0.153700  0.590500  0.178200  1
  C  C1443  1  0.653700  0.909500  0.678200  1
  C  C1444  1  0.846300  0.409500  0.821800  1
  C  C1445  1  0.354400  0.081600  0.293400  1
  C  C1446  1  0.145600  0.581600  0.206600  1
  C  C1447  1  0.645600  0.918400  0.706600  1
  C  C1448  1  0.854400  0.418400  0.793400  1
  C  C1449  1  0.318300  0.073200  0.271800  1
  C  C1450  1  0.181700  0.573200  0.228200  1
  C  C1451  1  0.681700  0.926800  0.728200  1
  C  C1452  1  0.818300  0.426800  0.771800  1
  C  C1453  1  0.274200  0.073700  0.278710  1
  C  C1454  1  0.225800  0.573700  0.221290  1
  C  C1455  1  0.725800  0.926300  0.721290  1
  C  C1456  1  0.774200  0.426300  0.778710  1
  C  C1457  1  0.266200  0.082620  0.307170  1
  C  C1458  1  0.233800  0.582620  0.192830  1
  C  C1459  1  0.733800  0.917380  0.692830  1
  C  C1460  1  0.766200  0.417380  0.807170  1
  C  C1461  1  0.302300  0.091030  0.328720  1
  C  C1462  1  0.197700  0.591030  0.171280  1
  C  C1463  1  0.697700  0.908970  0.671280  1
  C  C1464  1  0.802300  0.408970  0.828720  1
  C  C1465  1  0.294300  0.100000  0.357180  1
  C  C1466  1  0.205700  0.600000  0.142820  1
  C  C1467  1  0.705700  0.900000  0.642820  1
  C  C1468  1  0.794300  0.400000  0.857180  1
  C  C1469  1  0.250200  0.100500  0.364100  1
  C  C1470  1  0.249800  0.600500  0.135900  1
  C  C1471  1  0.749800  0.899500  0.635900  1
  C  C1472  1  0.750200  0.399500  0.864100  1
  C  C1473  1  0.214200  0.092100  0.342500  1
  C  C1474  1  0.285800  0.592100  0.157500  1
  C  C1475  1  0.785800  0.907900  0.657500  1
  C  C1476  1  0.714200  0.407900  0.842500  1
  C  C1477  1  0.222200  0.083100  0.314100  1
  C  C1478  1  0.277800  0.583100  0.185900  1
  C  C1479  1  0.777800  0.916900  0.685900  1
  C  C1480  1  0.722200  0.416900  0.814100  1
  C  C1481  1  0.169500  0.157500  0.256100  1
  C  C1482  1  0.330500  0.657500  0.243900  1
  C  C1483  1  0.830500  0.842500  0.743900  1
  C  C1484  1  0.669500  0.342500  0.756100  1
  C  C1485  1  0.164100  0.160400  0.286000  1
  C  C1486  1  0.335900  0.660400  0.214000  1
  C  C1487  1  0.835900  0.839600  0.714000  1
  C  C1488  1  0.664100  0.339600  0.786000  1
  C  C1489  1  0.201600  0.166300  0.307100  1
  C  C1490  1  0.298400  0.666300  0.192900  1
  C  C1491  1  0.798400  0.833700  0.692900  1
  C  C1492  1  0.701600  0.333700  0.807100  1
  C  C1493  1  0.244500  0.169300  0.298500  1
  C  C1494  1  0.255500  0.669300  0.201500  1
  C  C1495  1  0.755500  0.830700  0.701500  1
  C  C1496  1  0.744500  0.330700  0.798500  1
  C  C1497  1  0.249900  0.166400  0.268700  1
  C  C1498  1  0.250100  0.666400  0.231300  1
  C  C1499  1  0.750100  0.833600  0.731300  1
  C  C1500  1  0.749900  0.333600  0.768700  1
  C  C1501  1  0.285100  0.170600  0.256000  1
  C  C1502  1  0.214900  0.670600  0.244000  1
  C  C1503  1  0.714900  0.829400  0.744000  1
  C  C1504  1  0.785100  0.329400  0.756000  1
  C  C1505  1  0.330800  0.176000  0.268700  1
  C  C1506  1  0.169200  0.676000  0.231300  1
  C  C1507  1  0.669200  0.824000  0.731300  1
  C  C1508  1  0.830800  0.324000  0.768700  1
  C  C1509  1  0.356700  0.182700  0.245300  1
  C  C1510  1  0.143300  0.682700  0.254700  1
  C  C1511  1  0.643300  0.817300  0.754700  1
  C  C1512  1  0.856700  0.317300  0.745300  1
  C  C1513  1  0.336400  0.189300  0.189100  1
  C  C1514  1  0.163600  0.689300  0.310900  1
  C  C1515  1  0.663600  0.810700  0.810900  1
  C  C1516  1  0.836400  0.310700  0.689100  1
  C  C1517  1  0.585500  0.013700  0.183500  1
  C  C1518  1  0.914500  0.513700  0.316500  1
  C  C1519  1  0.414500  0.986300  0.816500  1
  C  C1520  1  0.085500  0.486300  0.683500  1
  C  C1521  1  0.596200  0.984800  0.201300  1
  C  C1522  1  0.903800  0.484800  0.298700  1
  C  C1523  1  0.403800  0.015200  0.798700  1
  C  C1524  1  0.096200  0.515200  0.701300  1
  C  C1525  1  0.561800  0.964700  0.210200  1
  C  C1526  1  0.938200  0.464700  0.289800  1
  C  C1527  1  0.438200  0.035300  0.789800  1
  C  C1528  1  0.061800  0.535300  0.710200  1
  C  C1529  1  0.516800  0.973400  0.201300  1
  C  C1530  1  0.983200  0.473400  0.298700  1
  C  C1531  1  0.483200  0.026600  0.798700  1
  C  C1532  1  0.016800  0.526600  0.701300  1
  C  C1533  1  0.506100  0.002300  0.183500  1
  C  C1534  1  0.993900  0.502300  0.316500  1
  C  C1535  1  0.493900  0.997700  0.816500  1
  C  C1536  1  0.006100  0.497700  0.683500  1
  C  C1537  1  0.463100  0.011400  0.172200  1
  C  C1538  1  0.036900  0.511400  0.327800  1
  C  C1539  1  0.536900  0.988600  0.827800  1
  C  C1540  1  0.963100  0.488600  0.672200  1
  C  C1541  1  0.420500  0.994900  0.172200  1
  C  C1542  1  0.079500  0.494900  0.327800  1
  C  C1543  1  0.579500  0.005100  0.827800  1
  C  C1544  1  0.920500  0.505100  0.672200  1
  C  C1545  1  0.387600  0.014200  0.153400  1
  C  C1546  1  0.112400  0.514200  0.346600  1
  C  C1547  1  0.612400  0.985800  0.846600  1
  C  C1548  1  0.887600  0.485800  0.653400  1
  C  C1549  1  0.392500  0.071000  0.123400  1
  C  C1550  1  0.107500  0.571000  0.376600  1
  C  C1551  1  0.607500  0.929000  0.876600  1
  C  C1552  1  0.892500  0.429000  0.623400  1
  C  C1553  1  0.354100  0.157900  0.171620  1
  C  C1554  1  0.145900  0.657900  0.328380  1
  C  C1555  1  0.645900  0.842100  0.828380  1
  C  C1556  1  0.854100  0.342100  0.671620  1
  C  C1557  1  0.363800  0.126600  0.186140  1
  C  C1558  1  0.136200  0.626600  0.313860  1
  C  C1559  1  0.636200  0.873400  0.813860  1
  C  C1560  1  0.863800  0.373400  0.686140  1
  C  C1561  1  0.375700  0.098000  0.170400  1
  C  C1562  1  0.124300  0.598000  0.329600  1
  C  C1563  1  0.624300  0.902000  0.829600  1
  C  C1564  1  0.875700  0.402000  0.670400  1
  C  C1565  1  0.377900  0.100650  0.140100  1
  C  C1566  1  0.122100  0.600650  0.359900  1
  C  C1567  1  0.622100  0.899350  0.859900  1
  C  C1568  1  0.877900  0.399350  0.640100  1
  C  C1569  1  0.368100  0.131930  0.125570  1
  C  C1570  1  0.131900  0.631930  0.374430  1
  C  C1571  1  0.631900  0.868070  0.874430  1
  C  C1572  1  0.868100  0.368070  0.625570  1
  C  C1573  1  0.356200  0.160540  0.141330  1
  C  C1574  1  0.143800  0.660540  0.358670  1
  C  C1575  1  0.643800  0.839460  0.858670  1
  C  C1576  1  0.856200  0.339460  0.641330  1
  C  C1577  1  0.346400  0.191830  0.126800  1
  C  C1578  1  0.153600  0.691830  0.373200  1
  C  C1579  1  0.653600  0.808170  0.873200  1
  C  C1580  1  0.846400  0.308170  0.626800  1
  C  C1581  1  0.348500  0.194500  0.096500  1
  C  C1582  1  0.151500  0.694500  0.403500  1
  C  C1583  1  0.651500  0.805500  0.903500  1
  C  C1584  1  0.848500  0.305500  0.596500  1
  C  C1585  1  0.360400  0.165900  0.080760  1
  C  C1586  1  0.139600  0.665900  0.419240  1
  C  C1587  1  0.639600  0.834100  0.919240  1
  C  C1588  1  0.860400  0.334100  0.580760  1
  C  C1589  1  0.370200  0.134600  0.095280  1
  C  C1590  1  0.129800  0.634600  0.404720  1
  C  C1591  1  0.629800  0.865400  0.904720  1
  C  C1592  1  0.870200  0.365400  0.595280  1
  C  C1593  1  0.356200  0.019000  0.385800  1
  C  C1594  1  0.143800  0.519000  0.114200  1
  C  C1595  1  0.643800  0.981000  0.614200  1
  C  C1596  1  0.856200  0.481000  0.885800  1
  C  C1597  1  0.309500  0.019800  0.385600  1
  C  C1598  1  0.190500  0.519800  0.114400  1
  C  C1599  1  0.690500  0.980200  0.614400  1
  C  C1600  1  0.809500  0.480200  0.885600  1
  C  C1601  1  0.280900  0.011600  0.359700  1
  C  C1602  1  0.219100  0.511600  0.140300  1
  C  C1603  1  0.719100  0.988400  0.640300  1
  C  C1604  1  0.780900  0.488400  0.859700  1
  C  C1605  1  0.299000  0.002700  0.334200  1
  C  C1606  1  0.201000  0.502700  0.165800  1
  C  C1607  1  0.701000  0.997300  0.665800  1
  C  C1608  1  0.799000  0.497300  0.834200  1
  C  C1609  1  0.345700  0.001900  0.334400  1
  C  C1610  1  0.154300  0.501900  0.165600  1
  C  C1611  1  0.654300  0.998100  0.665600  1
  C  C1612  1  0.845700  0.498100  0.834400  1
  C  C1613  1  0.366400  0.990500  0.310400  1
  C  C1614  1  0.133600  0.490500  0.189600  1
  C  C1615  1  0.633600  0.009500  0.689600  1
  C  C1616  1  0.866400  0.509500  0.810400  1
  C  C1617  1  0.348400  0.979500  0.281400  1
  C  C1618  1  0.151600  0.479500  0.218600  1
  C  C1619  1  0.651600  0.020500  0.718600  1
  C  C1620  1  0.848400  0.520500  0.781400  1
  C  C1621  1  0.385100  0.968300  0.266800  1
  C  C1622  1  0.114900  0.468300  0.233200  1
  C  C1623  1  0.614900  0.031700  0.733200  1
  C  C1624  1  0.885100  0.531700  0.766800  1
  C  C1625  1  0.471000  0.967500  0.282200  1
  C  C1626  1  0.029000  0.467500  0.217800  1
  C  C1627  1  0.529000  0.032500  0.717800  1
  C  C1628  1  0.971000  0.532500  0.782200  1
  C  C1629  1  0.497100  0.107500  0.093600  1
  C  C1630  1  0.002900  0.607500  0.406400  1
  C  C1631  1  0.502900  0.892500  0.906400  1
  C  C1632  1  0.997100  0.392500  0.593600  1
  C  C1633  1  0.482400  0.137900  0.079000  1
  C  C1634  1  0.017600  0.637900  0.421000  1
  C  C1635  1  0.517600  0.862100  0.921000  1
  C  C1636  1  0.982400  0.362100  0.579000  1
  C  C1637  1  0.469200  0.165800  0.095100  1
  C  C1638  1  0.030800  0.665800  0.404900  1
  C  C1639  1  0.530800  0.834200  0.904900  1
  C  C1640  1  0.969200  0.334200  0.595100  1
  C  C1641  1  0.470700  0.163400  0.125700  1
  C  C1642  1  0.029300  0.663400  0.374300  1
  C  C1643  1  0.529300  0.836600  0.874300  1
  C  C1644  1  0.970700  0.336600  0.625700  1
  C  C1645  1  0.485400  0.133000  0.140300  1
  C  C1646  1  0.014600  0.633000  0.359700  1
  C  C1647  1  0.514600  0.867000  0.859700  1
  C  C1648  1  0.985400  0.367000  0.640300  1
  C  C1649  1  0.493400  0.130500  0.171700  1
  C  C1650  1  0.006600  0.630500  0.328300  1
  C  C1651  1  0.506600  0.869500  0.828300  1
  C  C1652  1  0.993400  0.369500  0.671700  1
  C  C1653  1  0.486700  0.153100  0.195300  1
  C  C1654  1  0.013300  0.653100  0.304700  1
  C  C1655  1  0.513300  0.846900  0.804700  1
  C  C1656  1  0.986700  0.346900  0.695300  1
  C  C1657  1  0.509700  0.138900  0.222000  1
  C  C1658  1  0.990300  0.638900  0.278000  1
  C  C1659  1  0.490300  0.861100  0.778000  1
  C  C1660  1  0.009700  0.361100  0.722000  1
  C  C1661  1  0.559400  0.085400  0.234500  1
  C  C1662  1  0.940600  0.585400  0.265500  1
  C  C1663  1  0.440600  0.914600  0.765500  1
  C  C1664  1  0.059400  0.414600  0.734500  1
  C  C1665  1  0.493700  0.998200  0.269600  1
  C  C1666  1  0.006300  0.498200  0.230400  1
  C  C1667  1  0.506300  0.001800  0.730400  1
  C  C1668  1  0.993700  0.501800  0.769600  1
  C  C1669  1  0.468200  0.025400  0.256100  1
  C  C1670  1  0.031800  0.525400  0.243900  1
  C  C1671  1  0.531800  0.974600  0.743900  1
  C  C1672  1  0.968200  0.474600  0.756100  1
  C  C1673  1  0.489800  0.053600  0.245200  1
  C  C1674  1  0.010200  0.553600  0.254800  1
  C  C1675  1  0.510200  0.946400  0.754800  1
  C  C1676  1  0.989800  0.446400  0.745200  1
  C  C1677  1  0.536800  0.054700  0.247900  1
  C  C1678  1  0.963200  0.554700  0.252100  1
  C  C1679  1  0.463200  0.945300  0.752100  1
  C  C1680  1  0.036800  0.445300  0.747900  1
  C  C1681  1  0.562300  0.027510  0.261510  1
  C  C1682  1  0.937700  0.527510  0.238490  1
  C  C1683  1  0.437700  0.972490  0.738490  1
  C  C1684  1  0.062300  0.472490  0.761510  1
  C  C1685  1  0.540800  0.999290  0.272360  1
  C  C1686  1  0.959200  0.499290  0.227640  1
  C  C1687  1  0.459200  0.000710  0.727640  1
  C  C1688  1  0.040800  0.500710  0.772360  1
  C  C1689  1  0.566200  0.972100  0.285900  1
  C  C1690  1  0.933800  0.472100  0.214100  1
  C  C1691  1  0.433800  0.027900  0.714100  1
  C  C1692  1  0.066200  0.527900  0.785900  1
  C  C1693  1  0.613300  0.973200  0.288600  1
  C  C1694  1  0.886700  0.473200  0.211400  1
  C  C1695  1  0.386700  0.026800  0.711400  1
  C  C1696  1  0.113300  0.526800  0.788600  1
  C  C1697  1  0.634800  0.001400  0.277800  1
  C  C1698  1  0.865200  0.501400  0.222200  1
  C  C1699  1  0.365200  0.998600  0.722200  1
  C  C1700  1  0.134800  0.498600  0.777800  1
  C  C1701  1  0.609300  0.028600  0.264200  1
  C  C1702  1  0.890700  0.528600  0.235800  1
  C  C1703  1  0.390700  0.971400  0.735800  1
  C  C1704  1  0.109300  0.471400  0.764200  1
  C  C1705  1  0.434300  0.925300  0.356200  1
  C  C1706  1  0.065700  0.425300  0.143800  1
  C  C1707  1  0.565700  0.074700  0.643800  1
  C  C1708  1  0.934300  0.574700  0.856200  1
  C  C1709  1  0.436600  0.892400  0.368600  1
  C  C1710  1  0.063400  0.392400  0.131400  1
  C  C1711  1  0.563400  0.107600  0.631400  1
  C  C1712  1  0.936600  0.607600  0.868600  1
  C  C1713  1  0.446700  0.888400  0.399200  1
  C  C1714  1  0.053300  0.388400  0.100800  1
  C  C1715  1  0.553300  0.111600  0.600800  1
  C  C1716  1  0.946700  0.611600  0.899200  1
  C  C1717  1  0.454300  0.917300  0.417400  1
  C  C1718  1  0.045700  0.417300  0.082600  1
  C  C1719  1  0.545700  0.082700  0.582600  1
  C  C1720  1  0.954300  0.582700  0.917400  1
  C  C1721  1  0.452000  0.950200  0.405000  1
  C  C1722  1  0.048000  0.450200  0.095000  1
  C  C1723  1  0.548000  0.049800  0.595000  1
  C  C1724  1  0.952000  0.549800  0.905000  1
  C  C1725  1  0.461800  0.978600  0.420900  1
  C  C1726  1  0.038200  0.478600  0.079100  1
  C  C1727  1  0.538200  0.021400  0.579100  1
  C  C1728  1  0.961800  0.521400  0.920900  1
  C  C1729  1  0.470800  0.984300  0.452000  1
  C  C1730  1  0.029200  0.484300  0.048000  1
  C  C1731  1  0.529200  0.015700  0.548000  1
  C  C1732  1  0.970800  0.515700  0.952000  1
  C  C1733  1  0.475500  0.020400  0.456900  1
  C  C1734  1  0.024500  0.520400  0.043100  1
  C  C1735  1  0.524500  0.979600  0.543100  1
  C  C1736  1  0.975500  0.479600  0.956900  1
  C  C1737  1  0.476700  0.074100  0.422700  1
  C  C1738  1  0.023300  0.574100  0.077300  1
  C  C1739  1  0.523300  0.925900  0.577300  1
  C  C1740  1  0.976700  0.425900  0.922700  1
  C  C1741  1  0.786800  0.044600  0.509800  1
  C  C1742  1  0.713200  0.544600  0.990200  1
  C  C1743  1  0.213200  0.955400  0.490200  1
  C  C1744  1  0.286800  0.455400  0.009800  1
  C  C1745  1  0.819600  0.019000  0.510400  1
  C  C1746  1  0.680400  0.519000  0.989600  1
  C  C1747  1  0.180400  0.981000  0.489600  1
  C  C1748  1  0.319600  0.481000  0.010400  1
  C  C1749  1  0.825700  0.001700  0.484400  1
  C  C1750  1  0.674300  0.501700  0.015600  1
  C  C1751  1  0.174300  0.998300  0.515600  1
  C  C1752  1  0.325700  0.498300  0.984400  1
  C  C1753  1  0.799000  0.010100  0.457800  1
  C  C1754  1  0.701000  0.510100  0.042200  1
  C  C1755  1  0.201000  0.989900  0.542200  1
  C  C1756  1  0.299000  0.489900  0.957800  1
  C  C1757  1  0.766200  0.035700  0.457300  1
  C  C1758  1  0.733800  0.535700  0.042700  1
  C  C1759  1  0.233800  0.964300  0.542700  1
  C  C1760  1  0.266200  0.464300  0.957300  1
  C  C1761  1  0.738500  0.045200  0.431700  1
  C  C1762  1  0.761500  0.545200  0.068300  1
  C  C1763  1  0.261500  0.954800  0.568300  1
  C  C1764  1  0.238500  0.454800  0.931700  1
  C  C1765  1  0.735200  0.034900  0.401500  1
  C  C1766  1  0.764800  0.534900  0.098500  1
  C  C1767  1  0.264800  0.965100  0.598500  1
  C  C1768  1  0.235200  0.465100  0.901500  1
  C  C1769  1  0.704400  0.057500  0.384400  1
  C  C1770  1  0.795600  0.557500  0.115600  1
  C  C1771  1  0.295600  0.942500  0.615600  1
  C  C1772  1  0.204400  0.442500  0.884400  1
  C  C1773  1  0.656100  0.109600  0.395500  1
  C  C1774  1  0.843900  0.609600  0.104500  1
  C  C1775  1  0.343900  0.890400  0.604500  1
  C  C1776  1  0.156100  0.390400  0.895500  1
  C  C1777  1  0.524000  0.080300  0.413700  1
  C  C1778  1  0.976000  0.580300  0.086300  1
  C  C1779  1  0.476000  0.919700  0.586300  1
  C  C1780  1  0.024000  0.419700  0.913700  1
  C  C1781  1  0.559400  0.056700  0.419100  1
  C  C1782  1  0.940600  0.556700  0.080900  1
  C  C1783  1  0.440600  0.943300  0.580900  1
  C  C1784  1  0.059400  0.443300  0.919100  1
  C  C1785  1  0.602300  0.065400  0.412800  1
  C  C1786  1  0.897700  0.565400  0.087200  1
  C  C1787  1  0.397700  0.934600  0.587200  1
  C  C1788  1  0.102300  0.434600  0.912800  1
  C  C1789  1  0.610000  0.097800  0.401100  1
  C  C1790  1  0.890000  0.597800  0.098900  1
  C  C1791  1  0.390000  0.902200  0.598900  1
  C  C1792  1  0.110000  0.402200  0.901100  1
  C  C1793  1  0.574600  0.121400  0.395660  1
  C  C1794  1  0.925400  0.621400  0.104340  1
  C  C1795  1  0.425400  0.878600  0.604340  1
  C  C1796  1  0.074600  0.378600  0.895660  1
  C  C1797  1  0.531700  0.112700  0.401980  1
  C  C1798  1  0.968300  0.612700  0.098020  1
  C  C1799  1  0.468300  0.887300  0.598020  1
  C  C1800  1  0.031700  0.387300  0.901980  1
  C  C1801  1  0.496300  0.136300  0.396600  1
  C  C1802  1  0.003700  0.636300  0.103400  1
  C  C1803  1  0.503700  0.863700  0.603400  1
  C  C1804  1  0.996300  0.363700  0.896600  1
  C  C1805  1  0.503900  0.168600  0.384900  1
  C  C1806  1  0.996100  0.668600  0.115100  1
  C  C1807  1  0.496100  0.831400  0.615100  1
  C  C1808  1  0.003900  0.331400  0.884900  1
  C  C1809  1  0.546900  0.177400  0.378600  1
  C  C1810  1  0.953100  0.677400  0.121400  1
  C  C1811  1  0.453100  0.822600  0.621400  1
  C  C1812  1  0.046900  0.322600  0.878600  1
  C  C1813  1  0.582200  0.153700  0.384000  1
  C  C1814  1  0.917800  0.653700  0.116000  1
  C  C1815  1  0.417800  0.846300  0.616000  1
  C  C1816  1  0.082200  0.346300  0.884000  1
  C  C1817  1  0.615700  0.117000  0.474400  1
  C  C1818  1  0.884300  0.617000  0.025600  1
  C  C1819  1  0.384300  0.883000  0.525600  1
  C  C1820  1  0.115700  0.383000  0.974400  1
  C  C1821  1  0.584100  0.143700  0.471300  1
  C  C1822  1  0.915900  0.643700  0.028700  1
  C  C1823  1  0.415900  0.856300  0.528700  1
  C  C1824  1  0.084100  0.356300  0.971300  1
  C  C1825  1  0.598400  0.177600  0.468900  1
  C  C1826  1  0.901600  0.677600  0.031100  1
  C  C1827  1  0.401600  0.822400  0.531100  1
  C  C1828  1  0.098400  0.322400  0.968900  1
  C  C1829  1  0.644200  0.184900  0.469500  1
  C  C1830  1  0.855800  0.684900  0.030500  1
  C  C1831  1  0.355800  0.815100  0.530500  1
  C  C1832  1  0.144200  0.315100  0.969500  1
  C  C1833  1  0.675800  0.158300  0.472600  1
  C  C1834  1  0.824200  0.658300  0.027400  1
  C  C1835  1  0.324200  0.841700  0.527400  1
  C  C1836  1  0.175800  0.341700  0.972600  1
  C  C1837  1  0.721100  0.163000  0.474500  1
  C  C1838  1  0.778900  0.663000  0.025500  1
  C  C1839  1  0.278900  0.837000  0.525500  1
  C  C1840  1  0.221100  0.337000  0.974500  1
  C  C1841  1  0.749400  0.192300  0.473400  1
  C  C1842  1  0.750600  0.692300  0.026600  1
  C  C1843  1  0.250600  0.807700  0.526600  1
  C  C1844  1  0.249400  0.307700  0.973400  1
  C  C1845  1  0.794800  0.180600  0.474600  1
  C  C1846  1  0.705200  0.680600  0.025400  1
  C  C1847  1  0.205200  0.819400  0.525400  1
  C  C1848  1  0.294800  0.319400  0.974600  1
  C  C1849  1  0.833500  0.122300  0.475800  1
  C  C1850  1  0.666500  0.622300  0.024200  1
  C  C1851  1  0.166500  0.877700  0.524200  1
  C  C1852  1  0.333500  0.377700  0.975800  1
  C  C1853  1  0.830300  0.191600  0.279200  1
  C  C1854  1  0.669700  0.691600  0.220800  1
  C  C1855  1  0.169700  0.808400  0.720800  1
  C  C1856  1  0.330300  0.308400  0.779200  1
  C  C1857  1  0.793100  0.200100  0.258500  1
  C  C1858  1  0.706900  0.700100  0.241500  1
  C  C1859  1  0.206900  0.799900  0.741500  1
  C  C1860  1  0.293100  0.299900  0.758500  1
  C  C1861  1  0.755600  0.178400  0.254400  1
  C  C1862  1  0.744400  0.678400  0.245600  1
  C  C1863  1  0.244400  0.821600  0.745600  1
  C  C1864  1  0.255600  0.321600  0.754400  1
  C  C1865  1  0.755400  0.148100  0.270800  1
  C  C1866  1  0.744600  0.648100  0.229200  1
  C  C1867  1  0.244600  0.851900  0.729200  1
  C  C1868  1  0.255400  0.351900  0.770800  1
  C  C1869  1  0.792600  0.139600  0.291400  1
  C  C1870  1  0.707400  0.639600  0.208600  1
  C  C1871  1  0.207400  0.860400  0.708600  1
  C  C1872  1  0.292600  0.360400  0.791400  1
  C  C1873  1  0.789100  0.107800  0.305000  1
  C  C1874  1  0.710900  0.607800  0.195000  1
  C  C1875  1  0.210900  0.892200  0.695000  1
  C  C1876  1  0.289100  0.392200  0.805000  1
  C  C1877  1  0.761500  0.078000  0.305900  1
  C  C1878  1  0.738500  0.578000  0.194100  1
  C  C1879  1  0.238500  0.922000  0.694100  1
  C  C1880  1  0.261500  0.422000  0.805900  1
  C  C1881  1  0.783900  0.055000  0.327400  1
  C  C1882  1  0.716100  0.555000  0.172600  1
  C  C1883  1  0.216100  0.945000  0.672600  1
  C  C1884  1  0.283900  0.445000  0.827400  1
  C  C1885  1  0.860600  0.060000  0.366500  1
  C  C1886  1  0.639400  0.560000  0.133500  1
  C  C1887  1  0.139400  0.940000  0.633500  1
  C  C1888  1  0.360600  0.440000  0.866500  1
  C  C1889  1  0.837600  0.104700  0.446800  1
  C  C1890  1  0.662400  0.604700  0.053200  1
  C  C1891  1  0.162400  0.895300  0.553200  1
  C  C1892  1  0.337600  0.395300  0.946800  1
  C  C1893  1  0.806300  0.111900  0.422000  1
  C  C1894  1  0.693700  0.611900  0.078000  1
  C  C1895  1  0.193700  0.888100  0.578000  1
  C  C1896  1  0.306300  0.388100  0.922000  1
  C  C1897  1  0.812100  0.098200  0.394500  1
  C  C1898  1  0.687900  0.598200  0.105500  1
  C  C1899  1  0.187900  0.901800  0.605500  1
  C  C1900  1  0.312100  0.401800  0.894500  1
  C  C1901  1  0.849400  0.077300  0.391800  1
  C  C1902  1  0.650600  0.577300  0.108200  1
  C  C1903  1  0.150600  0.922700  0.608200  1
  C  C1904  1  0.349400  0.422700  0.891800  1
  C  C1905  1  0.880700  0.070200  0.416500  1
  C  C1906  1  0.619300  0.570200  0.083500  1
  C  C1907  1  0.119300  0.929800  0.583500  1
  C  C1908  1  0.380700  0.429800  0.916500  1
  C  C1909  1  0.874900  0.083900  0.444040  1
  C  C1910  1  0.625100  0.583900  0.055960  1
  C  C1911  1  0.125100  0.916100  0.555960  1
  C  C1912  1  0.374900  0.416100  0.944040  1
  C  C1913  1  0.906200  0.076700  0.468800  1
  C  C1914  1  0.593800  0.576700  0.031200  1
  C  C1915  1  0.093800  0.923300  0.531200  1
  C  C1916  1  0.406200  0.423300  0.968800  1
  C  C1917  1  0.943400  0.055800  0.466100  1
  C  C1918  1  0.556600  0.555800  0.033900  1
  C  C1919  1  0.056600  0.944200  0.533900  1
  C  C1920  1  0.443400  0.444200  0.966100  1
  C  C1921  1  0.949300  0.042100  0.438600  1
  C  C1922  1  0.550700  0.542100  0.061400  1
  C  C1923  1  0.050700  0.957900  0.561400  1
  C  C1924  1  0.449300  0.457900  0.938600  1
  C  C1925  1  0.917900  0.049300  0.413800  1
  C  C1926  1  0.582100  0.549300  0.086200  1
  C  C1927  1  0.082100  0.950700  0.586200  1
  C  C1928  1  0.417900  0.450700  0.913800  1
  C  C1929  1  0.959900  0.106800  0.357400  1
  C  C1930  1  0.540100  0.606800  0.142600  1
  C  C1931  1  0.040100  0.893200  0.642600  1
  C  C1932  1  0.459900  0.393200  0.857400  1
  C  C1933  1  0.993900  0.100700  0.381000  1
  C  C1934  1  0.506100  0.600700  0.119000  1
  C  C1935  1  0.006100  0.899300  0.619000  1
  C  C1936  1  0.493900  0.399300  0.881000  1
  C  C1937  1  0.992200  0.116700  0.408200  1
  C  C1938  1  0.507800  0.616700  0.091800  1
  C  C1939  1  0.007800  0.883300  0.591800  1
  C  C1940  1  0.492200  0.383300  0.908200  1
  C  C1941  1  0.956700  0.138900  0.411900  1
  C  C1942  1  0.543300  0.638900  0.088100  1
  C  C1943  1  0.043300  0.861100  0.588100  1
  C  C1944  1  0.456700  0.361100  0.911900  1
  C  C1945  1  0.922700  0.145000  0.388300  1
  C  C1946  1  0.577300  0.645000  0.111700  1
  C  C1947  1  0.077300  0.855000  0.611700  1
  C  C1948  1  0.422700  0.355000  0.888300  1
  C  C1949  1  0.888300  0.164300  0.393600  1
  C  C1950  1  0.611700  0.664300  0.106400  1
  C  C1951  1  0.111700  0.835700  0.606400  1
  C  C1952  1  0.388300  0.335700  0.893600  1
  C  C1953  1  0.874900  0.183500  0.417500  1
  C  C1954  1  0.625100  0.683500  0.082500  1
  C  C1955  1  0.125100  0.816500  0.582500  1
  C  C1956  1  0.374900  0.316500  0.917500  1
  C  C1957  1  0.831600  0.198000  0.407900  1
  C  C1958  1  0.668400  0.698000  0.092100  1
  C  C1959  1  0.168400  0.802000  0.592100  1
  C  C1960  1  0.331600  0.302000  0.907900  1
  C  C1961  1  0.778700  0.197100  0.358100  1
  C  C1962  1  0.721300  0.697100  0.141900  1
  C  C1963  1  0.221300  0.802900  0.641900  1
  C  C1964  1  0.278700  0.302900  0.858100  1
  C  C1965  1  0.916700  0.425200  0.363100  1
  C  C1966  1  0.583300  0.925200  0.136900  1
  C  C1967  1  0.083300  0.574800  0.636900  1
  C  C1968  1  0.416700  0.074800  0.863100  1
  C  C1969  1  0.962900  0.432400  0.367100  1
  C  C1970  1  0.537100  0.932400  0.132900  1
  C  C1971  1  0.037100  0.567600  0.632900  1
  C  C1972  1  0.462900  0.067600  0.867100  1
  C  C1973  1  0.991600  0.414900  0.350500  1
  C  C1974  1  0.508400  0.914900  0.149500  1
  C  C1975  1  0.008400  0.585100  0.649500  1
  C  C1976  1  0.491600  0.085100  0.850500  1
  C  C1977  1  0.974100  0.390100  0.330000  1
  C  C1978  1  0.525900  0.890100  0.170000  1
  C  C1979  1  0.025900  0.609900  0.670000  1
  C  C1980  1  0.474100  0.109900  0.830000  1
  C  C1981  1  0.927900  0.382900  0.325900  1
  C  C1982  1  0.572100  0.882900  0.174100  1
  C  C1983  1  0.072100  0.617100  0.674100  1
  C  C1984  1  0.427900  0.117100  0.825900  1
  C  C1985  1  0.911800  0.357100  0.305400  1
  C  C1986  1  0.588200  0.857100  0.194600  1
  C  C1987  1  0.088200  0.642900  0.694600  1
  C  C1988  1  0.411800  0.142900  0.805400  1
  C  C1989  1  0.928200  0.336400  0.283400  1
  C  C1990  1  0.571800  0.836400  0.216600  1
  C  C1991  1  0.071800  0.663600  0.716600  1
  C  C1992  1  0.428200  0.163600  0.783400  1
  C  C1993  1  0.891500  0.316400  0.269300  1
  C  C1994  1  0.608500  0.816400  0.230700  1
  C  C1995  1  0.108500  0.683600  0.730700  1
  C  C1996  1  0.391500  0.183600  0.769300  1
  C  C1997  1  0.807700  0.309200  0.277400  1
  C  C1998  1  0.692300  0.809200  0.222600  1
  C  C1999  1  0.192300  0.690800  0.722600  1
  C  C2000  1  0.307700  0.190800  0.777400  1
  C  C2001  1  0.786900  0.227400  0.338400  1
  C  C2002  1  0.713100  0.727400  0.161600  1
  C  C2003  1  0.213100  0.772600  0.661600  1
  C  C2004  1  0.286900  0.272600  0.838400  1
  C  C2005  1  0.829500  0.242700  0.339900  1
  C  C2006  1  0.670500  0.742700  0.160100  1
  C  C2007  1  0.170500  0.757300  0.660100  1
  C  C2008  1  0.329500  0.257300  0.839900  1
  C  C2009  1  0.836500  0.269600  0.320800  1
  C  C2010  1  0.663500  0.769600  0.179200  1
  C  C2011  1  0.163500  0.730400  0.679200  1
  C  C2012  1  0.336500  0.230400  0.820800  1
  C  C2013  1  0.800900  0.281300  0.300200  1
  C  C2014  1  0.699100  0.781300  0.199800  1
  C  C2015  1  0.199100  0.718700  0.699800  1
  C  C2016  1  0.300900  0.218700  0.800200  1
  C  C2017  1  0.758400  0.266120  0.298710  1
  C  C2018  1  0.741600  0.766120  0.201290  1
  C  C2019  1  0.241600  0.733880  0.701290  1
  C  C2020  1  0.258400  0.233880  0.798710  1
  C  C2021  1  0.751400  0.239170  0.317800  1
  C  C2022  1  0.748600  0.739170  0.182200  1
  C  C2023  1  0.248600  0.760830  0.682200  1
  C  C2024  1  0.251400  0.260830  0.817800  1
  C  C2025  1  0.708900  0.223900  0.316300  1
  C  C2026  1  0.791100  0.723900  0.183700  1
  C  C2027  1  0.291100  0.776100  0.683700  1
  C  C2028  1  0.208900  0.276100  0.816300  1
  C  C2029  1  0.673300  0.235700  0.295700  1
  C  C2030  1  0.826700  0.735700  0.204300  1
  C  C2031  1  0.326700  0.764300  0.704300  1
  C  C2032  1  0.173300  0.264300  0.795700  1
  C  C2033  1  0.680300  0.262600  0.276600  1
  C  C2034  1  0.819700  0.762600  0.223400  1
  C  C2035  1  0.319700  0.737400  0.723400  1
  C  C2036  1  0.180300  0.237400  0.776600  1
  C  C2037  1  0.722900  0.277900  0.278100  1
  C  C2038  1  0.777100  0.777900  0.221900  1
  C  C2039  1  0.277100  0.722100  0.721900  1
  C  C2040  1  0.222900  0.222100  0.778100  1
  C  C2041  1  0.141200  0.106900  0.184300  1
  C  C2042  1  0.358800  0.606900  0.315700  1
  C  C2043  1  0.858800  0.893100  0.815700  1
  C  C2044  1  0.641200  0.393100  0.684300  1
  C  C2045  1  0.098000  0.098200  0.170900  1
  C  C2046  1  0.402000  0.598200  0.329100  1
  C  C2047  1  0.902000  0.901800  0.829100  1
  C  C2048  1  0.598000  0.401800  0.670900  1
  C  C2049  1  0.067400  0.124000  0.160500  1
  C  C2050  1  0.432600  0.624000  0.339500  1
  C  C2051  1  0.932600  0.876000  0.839500  1
  C  C2052  1  0.567400  0.376000  0.660500  1
  C  C2053  1  0.080100  0.158500  0.163600  1
  C  C2054  1  0.419900  0.658500  0.336400  1
  C  C2055  1  0.919900  0.841500  0.836400  1
  C  C2056  1  0.580100  0.341500  0.663600  1
  C  C2057  1  0.123300  0.167300  0.177000  1
  C  C2058  1  0.376700  0.667300  0.323000  1
  C  C2059  1  0.876700  0.832700  0.823000  1
  C  C2060  1  0.623300  0.332700  0.677000  1
  C  C2061  1  0.137800  0.201000  0.182100  1
  C  C2062  1  0.362200  0.701000  0.317900  1
  C  C2063  1  0.862200  0.799000  0.817900  1
  C  C2064  1  0.637800  0.299000  0.682100  1
  C  C2065  1  0.117100  0.234000  0.177200  1
  C  C2066  1  0.382900  0.734000  0.322800  1
  C  C2067  1  0.882900  0.766000  0.822800  1
  C  C2068  1  0.617100  0.266000  0.677200  1
  C  C2069  1  0.150700  0.259600  0.185300  1
  C  C2070  1  0.349300  0.759600  0.314700  1
  C  C2071  1  0.849300  0.740400  0.814700  1
  C  C2072  1  0.650700  0.240400  0.685300  1
  C  C2073  1  0.236000  0.256200  0.205500  1
  C  C2074  1  0.264000  0.756200  0.294500  1
  C  C2075  1  0.764000  0.743800  0.794500  1
  C  C2076  1  0.736000  0.243800  0.705500  1
  C  C2077  1  0.110700  0.363700  0.369900  1
  C  C2078  1  0.389300  0.863700  0.130100  1
  C  C2079  1  0.889300  0.636300  0.630100  1
  C  C2080  1  0.610700  0.136300  0.869900  1
  C  C2081  1  0.077000  0.355800  0.387100  1
  C  C2082  1  0.423000  0.855800  0.112900  1
  C  C2083  1  0.923000  0.644200  0.612900  1
  C  C2084  1  0.577000  0.144200  0.887100  1
  C  C2085  1  0.073700  0.322500  0.398200  1
  C  C2086  1  0.426300  0.822500  0.101800  1
  C  C2087  1  0.926300  0.677500  0.601800  1
  C  C2088  1  0.573700  0.177500  0.898200  1
  C  C2089  1  0.104100  0.297200  0.392000  1
  C  C2090  1  0.395900  0.797200  0.108000  1
  C  C2091  1  0.895900  0.702800  0.608000  1
  C  C2092  1  0.604100  0.202800  0.892000  1
  C  C2093  1  0.137800  0.305100  0.374700  1
  C  C2094  1  0.362200  0.805100  0.125300  1
  C  C2095  1  0.862200  0.694900  0.625300  1
  C  C2096  1  0.637800  0.194900  0.874700  1
  C  C2097  1  0.170900  0.279700  0.369600  1
  C  C2098  1  0.329100  0.779700  0.130400  1
  C  C2099  1  0.829100  0.720300  0.630400  1
  C  C2100  1  0.670900  0.220300  0.869600  1
  C  C2101  1  0.180900  0.244500  0.376500  1
  C  C2102  1  0.319100  0.744500  0.123500  1
  C  C2103  1  0.819100  0.755500  0.623500  1
  C  C2104  1  0.680900  0.255500  0.876500  1
  C  C2105  1  0.220500  0.235500  0.364000  1
  C  C2106  1  0.279500  0.735500  0.136000  1
  C  C2107  1  0.779500  0.764500  0.636000  1
  C  C2108  1  0.720500  0.264500  0.864000  1
  C  C2109  1  0.270500  0.266300  0.335300  1
  C  C2110  1  0.229500  0.766300  0.164700  1
  C  C2111  1  0.729500  0.733700  0.664700  1
  C  C2112  1  0.770500  0.233700  0.835300  1
  C  C2113  1  0.245100  0.257800  0.239400  1
  C  C2114  1  0.254900  0.757800  0.260600  1
  C  C2115  1  0.754900  0.742200  0.760600  1
  C  C2116  1  0.745100  0.242200  0.739400  1
  C  C2117  1  0.209600  0.253800  0.256100  1
  C  C2118  1  0.290400  0.753800  0.243900  1
  C  C2119  1  0.790400  0.746200  0.743900  1
  C  C2120  1  0.709600  0.246200  0.756100  1
  C  C2121  1  0.217900  0.255700  0.286900  1
  C  C2122  1  0.282100  0.755700  0.213100  1
  C  C2123  1  0.782100  0.744300  0.713100  1
  C  C2124  1  0.717900  0.244300  0.786900  1
  C  C2125  1  0.261600  0.261600  0.301000  1
  C  C2126  1  0.238400  0.761600  0.199000  1
  C  C2127  1  0.738400  0.738400  0.699000  1
  C  C2128  1  0.761600  0.238400  0.801000  1
  C  C2129  1  0.297100  0.265590  0.284350  1
  C  C2130  1  0.202900  0.765590  0.215650  1
  C  C2131  1  0.702900  0.734410  0.715650  1
  C  C2132  1  0.797100  0.234410  0.784350  1
  C  C2133  1  0.288800  0.263720  0.253540  1
  C  C2134  1  0.211200  0.763720  0.246460  1
  C  C2135  1  0.711200  0.736280  0.746460  1
  C  C2136  1  0.788800  0.236280  0.753540  1
  C  C2137  1  0.324300  0.267700  0.236900  1
  C  C2138  1  0.175700  0.767700  0.263100  1
  C  C2139  1  0.675700  0.732300  0.763100  1
  C  C2140  1  0.824300  0.232300  0.736900  1
  C  C2141  1  0.368000  0.273600  0.251000  1
  C  C2142  1  0.132000  0.773600  0.249000  1
  C  C2143  1  0.632000  0.726400  0.749000  1
  C  C2144  1  0.868000  0.226400  0.751000  1
  C  C2145  1  0.376300  0.275500  0.281800  1
  C  C2146  1  0.123700  0.775500  0.218200  1
  C  C2147  1  0.623700  0.724500  0.718200  1
  C  C2148  1  0.876300  0.224500  0.781800  1
  C  C2149  1  0.340800  0.271500  0.298500  1
  C  C2150  1  0.159200  0.771500  0.201500  1
  C  C2151  1  0.659200  0.728500  0.701500  1
  C  C2152  1  0.840800  0.228500  0.798500  1
  C  C2153  1  0.235300  0.344100  0.282700  1
  C  C2154  1  0.264700  0.844100  0.217300  1
  C  C2155  1  0.764700  0.655900  0.717300  1
  C  C2156  1  0.735300  0.155900  0.782700  1
  C  C2157  1  0.270600  0.350300  0.266200  1
  C  C2158  1  0.229400  0.850300  0.233800  1
  C  C2159  1  0.729400  0.649700  0.733800  1
  C  C2160  1  0.770600  0.149700  0.766200  1
  C  C2161  1  0.310000  0.366300  0.279500  1
  C  C2162  1  0.190000  0.866300  0.220500  1
  C  C2163  1  0.690000  0.633700  0.720500  1
  C  C2164  1  0.810000  0.133700  0.779500  1
  C  C2165  1  0.314100  0.376100  0.309200  1
  C  C2166  1  0.185900  0.876100  0.190800  1
  C  C2167  1  0.685900  0.623900  0.690800  1
  C  C2168  1  0.814100  0.123900  0.809200  1
  C  C2169  1  0.278800  0.369900  0.325600  1
  C  C2170  1  0.221200  0.869900  0.174400  1
  C  C2171  1  0.721200  0.630100  0.674400  1
  C  C2172  1  0.778800  0.130100  0.825600  1
  C  C2173  1  0.277600  0.381000  0.354600  1
  C  C2174  1  0.222400  0.881000  0.145400  1
  C  C2175  1  0.722400  0.619000  0.645400  1
  C  C2176  1  0.777600  0.119000  0.854600  1
  C  C2177  1  0.307900  0.399400  0.375900  1
  C  C2178  1  0.192100  0.899400  0.124100  1
  C  C2179  1  0.692100  0.600600  0.624100  1
  C  C2180  1  0.807900  0.100600  0.875900  1
  C  C2181  1  0.288000  0.401300  0.402500  1
  C  C2182  1  0.212000  0.901300  0.097500  1
  C  C2183  1  0.712000  0.598700  0.597500  1
  C  C2184  1  0.788000  0.098700  0.902500  1
  C  C2185  1  0.214500  0.376600  0.418400  1
  C  C2186  1  0.285500  0.876600  0.081600  1
  C  C2187  1  0.785500  0.623400  0.581600  1
  C  C2188  1  0.714500  0.123400  0.918400  1
  C  C2189  1  0.443900  0.227500  0.502600  1
  C  C2190  1  0.056100  0.727500  0.997400  1
  C  C2191  1  0.556100  0.772500  0.497400  1
  C  C2192  1  0.943900  0.272500  0.002600  1
  C  C2193  1  0.478600  0.212000  0.489700  1
  C  C2194  1  0.021400  0.712000  0.010300  1
  C  C2195  1  0.521400  0.788000  0.510300  1
  C  C2196  1  0.978600  0.288000  0.989700  1
  C  C2197  1  0.468700  0.193300  0.463500  1
  C  C2198  1  0.031300  0.693300  0.036500  1
  C  C2199  1  0.531300  0.806700  0.536500  1
  C  C2200  1  0.968700  0.306700  0.963500  1
  C  C2201  1  0.424100  0.190200  0.450100  1
  C  C2202  1  0.075900  0.690200  0.049900  1
  C  C2203  1  0.575900  0.809800  0.549900  1
  C  C2204  1  0.924100  0.309800  0.950100  1
  C  C2205  1  0.389400  0.205800  0.462900  1
  C  C2206  1  0.110600  0.705800  0.037100  1
  C  C2207  1  0.610600  0.794200  0.537100  1
  C  C2208  1  0.889400  0.294200  0.962900  1
  C  C2209  1  0.344400  0.204100  0.453500  1
  C  C2210  1  0.155600  0.704100  0.046500  1
  C  C2211  1  0.655600  0.795900  0.546500  1
  C  C2212  1  0.844400  0.295900  0.953500  1
  C  C2213  1  0.319200  0.185900  0.429500  1
  C  C2214  1  0.180800  0.685900  0.070500  1
  C  C2215  1  0.680800  0.814100  0.570500  1
  C  C2216  1  0.819200  0.314100  0.929500  1
  C  C2217  1  0.272500  0.193100  0.429900  1
  C  C2218  1  0.227500  0.693100  0.070100  1
  C  C2219  1  0.727500  0.806900  0.570100  1
  C  C2220  1  0.772500  0.306900  0.929900  1
  C  C2221  1  0.232900  0.234100  0.460700  1
  C  C2222  1  0.267100  0.734100  0.039300  1
  C  C2223  1  0.767100  0.765900  0.539300  1
  C  C2224  1  0.732900  0.265900  0.960700  1
  C  C2225  1  0.221500  0.338700  0.429900  1
  C  C2226  1  0.278500  0.838700  0.070100  1
  C  C2227  1  0.778500  0.661300  0.570100  1
  C  C2228  1  0.721500  0.161300  0.929900  1
  C  C2229  1  0.255600  0.317500  0.421900  1
  C  C2230  1  0.244400  0.817500  0.078100  1
  C  C2231  1  0.744400  0.682500  0.578100  1
  C  C2232  1  0.755600  0.182500  0.921900  1
  C  C2233  1  0.258400  0.283200  0.430900  1
  C  C2234  1  0.241600  0.783200  0.069100  1
  C  C2235  1  0.741600  0.716800  0.569100  1
  C  C2236  1  0.758400  0.216800  0.930900  1
  C  C2237  1  0.227100  0.270000  0.448100  1
  C  C2238  1  0.272900  0.770000  0.051900  1
  C  C2239  1  0.772900  0.730000  0.551900  1
  C  C2240  1  0.727100  0.230000  0.948100  1
  C  C2241  1  0.193000  0.291070  0.456100  1
  C  C2242  1  0.307000  0.791070  0.043900  1
  C  C2243  1  0.807000  0.708930  0.543900  1
  C  C2244  1  0.693000  0.208930  0.956100  1
  C  C2245  1  0.190200  0.325420  0.447030  1
  C  C2246  1  0.309800  0.825420  0.052970  1
  C  C2247  1  0.809800  0.674580  0.552970  1
  C  C2248  1  0.690200  0.174580  0.947030  1
  C  C2249  1  0.156100  0.346500  0.455100  1
  C  C2250  1  0.343900  0.846500  0.044900  1
  C  C2251  1  0.843900  0.653500  0.544900  1
  C  C2252  1  0.656100  0.153500  0.955100  1
  C  C2253  1  0.124800  0.333333  0.472200  1
  C  C2254  1  0.375200  0.833333  0.027800  1
  C  C2255  1  0.875200  0.666667  0.527800  1
  C  C2256  1  0.624800  0.166667  0.972200  1
  C  C2257  1  0.127600  0.298900  0.481300  1
  C  C2258  1  0.372400  0.798900  0.018700  1
  C  C2259  1  0.872400  0.701100  0.518700  1
  C  C2260  1  0.627600  0.201100  0.981300  1
  C  C2261  1  0.161700  0.277800  0.473200  1
  C  C2262  1  0.338300  0.777800  0.026800  1
  C  C2263  1  0.838300  0.722200  0.526800  1
  C  C2264  1  0.661700  0.222200  0.973200  1
  C  C2265  1  0.266000  0.264200  0.533200  1
  C  C2266  1  0.234000  0.764200  0.966800  1
  C  C2267  1  0.734000  0.735800  0.466800  1
  C  C2268  1  0.766000  0.235800  0.033200  1
  C  C2269  1  0.232900  0.285300  0.542600  1
  C  C2270  1  0.267100  0.785300  0.957400  1
  C  C2271  1  0.767100  0.714700  0.457400  1
  C  C2272  1  0.732900  0.214700  0.042600  1
  C  C2273  1  0.230400  0.320000  0.534400  1
  C  C2274  1  0.269600  0.820000  0.965600  1
  C  C2275  1  0.769600  0.680000  0.465600  1
  C  C2276  1  0.730400  0.180000  0.034400  1
  C  C2277  1  0.260900  0.333500  0.516900  1
  C  C2278  1  0.239100  0.833500  0.983100  1
  C  C2279  1  0.739100  0.666500  0.483100  1
  C  C2280  1  0.760900  0.166500  0.016900  1
  C  C2281  1  0.293900  0.312400  0.507500  1
  C  C2282  1  0.206100  0.812400  0.992500  1
  C  C2283  1  0.706100  0.687600  0.492500  1
  C  C2284  1  0.793900  0.187600  0.007500  1
  C  C2285  1  0.322300  0.324200  0.490300  1
  C  C2286  1  0.177700  0.824200  0.009700  1
  C  C2287  1  0.677700  0.675800  0.509700  1
  C  C2288  1  0.822300  0.175800  0.990300  1
  C  C2289  1  0.329300  0.356200  0.476300  1
  C  C2290  1  0.170700  0.856200  0.023700  1
  C  C2291  1  0.670700  0.643800  0.523700  1
  C  C2292  1  0.829300  0.143800  0.976300  1
  C  C2293  1  0.364600  0.351500  0.458500  1
  C  C2294  1  0.135400  0.851500  0.041500  1
  C  C2295  1  0.635400  0.648500  0.541500  1
  C  C2296  1  0.864600  0.148500  0.958500  1
  C  C2297  1  0.410300  0.301000  0.445800  1
  C  C2298  1  0.089700  0.801000  0.054200  1
  C  C2299  1  0.589700  0.699000  0.554200  1
  C  C2300  1  0.910300  0.199000  0.945800  1
  C  C2301  1  0.649700  0.440400  0.553000  1
  C  C2302  1  0.850300  0.940400  0.947000  1
  C  C2303  1  0.350300  0.559600  0.447000  1
  C  C2304  1  0.149700  0.059600  0.053000  1
  C  C2305  1  0.657700  0.452600  0.582000  1
  C  C2306  1  0.842300  0.952600  0.918000  1
  C  C2307  1  0.342300  0.547400  0.418000  1
  C  C2308  1  0.157700  0.047400  0.082000  1
  C  C2309  1  0.653200  0.430600  0.605600  1
  C  C2310  1  0.846800  0.930600  0.894400  1
  C  C2311  1  0.346800  0.569400  0.394400  1
  C  C2312  1  0.153200  0.069400  0.105600  1
  C  C2313  1  0.640800  0.396300  0.600200  1
  C  C2314  1  0.859200  0.896300  0.899800  1
  C  C2315  1  0.359200  0.603700  0.399800  1
  C  C2316  1  0.140800  0.103700  0.100200  1
  C  C2317  1  0.632900  0.384000  0.571200  1
  C  C2318  1  0.867100  0.884000  0.928800  1
  C  C2319  1  0.367100  0.616000  0.428800  1
  C  C2320  1  0.132900  0.116000  0.071200  1
  C  C2321  1  0.621800  0.351300  0.564600  1
  C  C2322  1  0.878200  0.851300  0.935400  1
  C  C2323  1  0.378200  0.648700  0.435400  1
  C  C2324  1  0.121800  0.148700  0.064600  1
  C  C2325  1  0.610800  0.323300  0.582500  1
  C  C2326  1  0.889200  0.823300  0.917500  1
  C  C2327  1  0.389200  0.676700  0.417500  1
  C  C2328  1  0.110800  0.176700  0.082500  1
  C  C2329  1  0.599400  0.294500  0.563600  1
  C  C2330  1  0.900600  0.794500  0.936400  1
  C  C2331  1  0.400600  0.705500  0.436400  1
  C  C2332  1  0.099400  0.205500  0.063600  1
  C  C2333  1  0.594800  0.287400  0.505700  1
  C  C2334  1  0.905200  0.787400  0.994300  1
  C  C2335  1  0.405200  0.712600  0.494300  1
  C  C2336  1  0.094800  0.212600  0.005700  1
  C  C2337  1  0.458200  0.299900  0.460500  1
  C  C2338  1  0.041800  0.799900  0.039500  1
  C  C2339  1  0.541800  0.700100  0.539500  1
  C  C2340  1  0.958200  0.200100  0.960500  1
  C  C2341  1  0.468600  0.311400  0.489600  1
  C  C2342  1  0.031400  0.811400  0.010400  1
  C  C2343  1  0.531400  0.688600  0.510400  1
  C  C2344  1  0.968600  0.188600  0.989600  1
  C  C2345  1  0.512500  0.308100  0.504250  1
  C  C2346  1  0.987500  0.808100  0.995750  1
  C  C2347  1  0.487500  0.691900  0.495750  1
  C  C2348  1  0.012500  0.191900  0.004250  1
  C  C2349  1  0.546000  0.293300  0.489790  1
  C  C2350  1  0.954000  0.793300  0.010210  1
  C  C2351  1  0.454000  0.706700  0.510210  1
  C  C2352  1  0.046000  0.206700  0.989790  1
  C  C2353  1  0.535600  0.281780  0.460680  1
  C  C2354  1  0.964400  0.781780  0.039320  1
  C  C2355  1  0.464400  0.718220  0.539320  1
  C  C2356  1  0.035600  0.218220  0.960680  1
  C  C2357  1  0.491700  0.285070  0.446030  1
  C  C2358  1  0.008300  0.785070  0.053970  1
  C  C2359  1  0.508300  0.714930  0.553970  1
  C  C2360  1  0.991700  0.214930  0.946030  1
  C  C2361  1  0.481300  0.273600  0.416920  1
  C  C2362  1  0.018700  0.773600  0.083080  1
  C  C2363  1  0.518700  0.726400  0.583080  1
  C  C2364  1  0.981300  0.226400  0.916920  1
  C  C2365  1  0.514800  0.258800  0.402460  1
  C  C2366  1  0.985200  0.758800  0.097540  1
  C  C2367  1  0.485200  0.741200  0.597540  1
  C  C2368  1  0.014800  0.241200  0.902460  1
  C  C2369  1  0.558700  0.255500  0.417100  1
  C  C2370  1  0.941300  0.755500  0.082900  1
  C  C2371  1  0.441300  0.744500  0.582900  1
  C  C2372  1  0.058700  0.244500  0.917100  1
  C  C2373  1  0.569100  0.267000  0.446200  1
  C  C2374  1  0.930900  0.767000  0.053800  1
  C  C2375  1  0.430900  0.733000  0.553800  1
  C  C2376  1  0.069100  0.233000  0.946200  1
  C  C2377  1  0.489000  0.010800  0.093000  1
  C  C2378  1  0.011000  0.510800  0.407000  1
  C  C2379  1  0.511000  0.989200  0.907000  1
  C  C2380  1  0.989000  0.489200  0.593000  1
  C  C2381  1  0.495900  0.990300  0.068900  1
  C  C2382  1  0.004100  0.490300  0.431100  1
  C  C2383  1  0.504100  0.009700  0.931100  1
  C  C2384  1  0.995900  0.509700  0.568900  1
  C  C2385  1  0.538400  0.989100  0.059400  1
  C  C2386  1  0.961600  0.489100  0.440600  1
  C  C2387  1  0.461600  0.010900  0.940600  1
  C  C2388  1  0.038400  0.510900  0.559400  1
  C  C2389  1  0.574000  0.008400  0.074100  1
  C  C2390  1  0.926000  0.508400  0.425900  1
  C  C2391  1  0.426000  0.991600  0.925900  1
  C  C2392  1  0.074000  0.491600  0.574100  1
  C  C2393  1  0.567000  0.029000  0.098200  1
  C  C2394  1  0.933000  0.529000  0.401800  1
  C  C2395  1  0.433000  0.971000  0.901800  1
  C  C2396  1  0.067000  0.471000  0.598200  1
  C  C2397  1  0.597500  0.049500  0.110100  1
  C  C2398  1  0.902500  0.549500  0.389900  1
  C  C2399  1  0.402500  0.950500  0.889900  1
  C  C2400  1  0.097500  0.450500  0.610100  1
  C  C2401  1  0.642200  0.058000  0.105000  1
  C  C2402  1  0.857800  0.558000  0.395000  1
  C  C2403  1  0.357800  0.942000  0.895000  1
  C  C2404  1  0.142200  0.442000  0.605000  1
  C  C2405  1  0.660400  0.081800  0.127300  1
  C  C2406  1  0.839600  0.581800  0.372700  1
  C  C2407  1  0.339600  0.918200  0.872700  1
  C  C2408  1  0.160400  0.418200  0.627300  1
  C  C2409  1  0.631900  0.112000  0.171500  1
  C  C2410  1  0.868100  0.612000  0.328500  1
  C  C2411  1  0.368100  0.888000  0.828500  1
  C  C2412  1  0.131900  0.388000  0.671500  1
  C  C2413  1  0.664300  0.299000  0.041100  1
  C  C2414  1  0.835700  0.799000  0.458900  1
  C  C2415  1  0.335700  0.701000  0.958900  1
  C  C2416  1  0.164300  0.201000  0.541100  1
  C  C2417  1  0.650000  0.309200  0.012000  1
  C  C2418  1  0.850000  0.809200  0.488000  1
  C  C2419  1  0.350000  0.690800  0.988000  1
  C  C2420  1  0.150000  0.190800  0.512000  1
  C  C2421  1  0.604800  0.305300  0.000000  1
  C  C2422  1  0.895200  0.805300  0.500000  1
  C  C2423  1  0.395200  0.694700  0.000000  1
  C  C2424  1  0.104800  0.194700  0.500000  1
  C  C2425  1  0.574000  0.291200  0.017000  1
  C  C2426  1  0.926000  0.791200  0.483000  1
  C  C2427  1  0.426000  0.708800  0.983000  1
  C  C2428  1  0.074000  0.208800  0.517000  1
  C  C2429  1  0.588300  0.280900  0.046000  1
  C  C2430  1  0.911700  0.780900  0.454000  1
  C  C2431  1  0.411700  0.719100  0.954000  1
  C  C2432  1  0.088300  0.219100  0.546000  1
  C  C2433  1  0.556900  0.269300  0.065200  1
  C  C2434  1  0.943100  0.769300  0.434800  1
  C  C2435  1  0.443100  0.730700  0.934800  1
  C  C2436  1  0.056900  0.230700  0.565200  1
  C  C2437  1  0.510200  0.263100  0.066500  1
  C  C2438  1  0.989800  0.763100  0.433500  1
  C  C2439  1  0.489800  0.736900  0.933500  1
  C  C2440  1  0.010200  0.236900  0.566500  1
  C  C2441  1  0.505200  0.255000  0.096400  1
  C  C2442  1  0.994800  0.755000  0.403600  1
  C  C2443  1  0.494800  0.745000  0.903600  1
  C  C2444  1  0.005200  0.245000  0.596400  1
  C  C2445  1  0.556000  0.250200  0.145500  1
  C  C2446  1  0.944000  0.750200  0.354500  1
  C  C2447  1  0.444000  0.749800  0.854500  1
  C  C2448  1  0.056000  0.249800  0.645500  1
  C  C2449  1  0.610100  0.147500  0.163300  1
  C  C2450  1  0.889900  0.647500  0.336700  1
  C  C2451  1  0.389900  0.852500  0.836700  1
  C  C2452  1  0.110100  0.352500  0.663300  1
  C  C2453  1  0.597500  0.157700  0.134000  1
  C  C2454  1  0.902500  0.657700  0.366000  1
  C  C2455  1  0.402500  0.842300  0.866000  1
  C  C2456  1  0.097500  0.342300  0.634000  1
  C  C2457  1  0.579900  0.190500  0.127800  1
  C  C2458  1  0.920100  0.690500  0.372200  1
  C  C2459  1  0.420100  0.809500  0.872200  1
  C  C2460  1  0.079900  0.309500  0.627800  1
  C  C2461  1  0.574900  0.213300  0.150800  1
  C  C2462  1  0.925100  0.713300  0.349200  1
  C  C2463  1  0.425100  0.786700  0.849200  1
  C  C2464  1  0.074900  0.286700  0.650800  1
  C  C2465  1  0.587500  0.203110  0.180100  1
  C  C2466  1  0.912500  0.703110  0.319900  1
  C  C2467  1  0.412500  0.796890  0.819900  1
  C  C2468  1  0.087500  0.296890  0.680100  1
  C  C2469  1  0.605000  0.170220  0.186400  1
  C  C2470  1  0.895000  0.670220  0.313600  1
  C  C2471  1  0.395000  0.829780  0.813600  1
  C  C2472  1  0.105000  0.329780  0.686400  1
  C  C2473  1  0.617600  0.160100  0.215700  1
  C  C2474  1  0.882400  0.660100  0.284300  1
  C  C2475  1  0.382400  0.839900  0.784300  1
  C  C2476  1  0.117600  0.339900  0.715700  1
  C  C2477  1  0.612600  0.182800  0.238700  1
  C  C2478  1  0.887400  0.682800  0.261300  1
  C  C2479  1  0.387400  0.817200  0.761300  1
  C  C2480  1  0.112600  0.317200  0.738700  1
  C  C2481  1  0.595000  0.215700  0.232400  1
  C  C2482  1  0.905000  0.715700  0.267600  1
  C  C2483  1  0.405000  0.784300  0.767600  1
  C  C2484  1  0.095000  0.284300  0.732400  1
  C  C2485  1  0.582400  0.225800  0.203100  1
  C  C2486  1  0.917600  0.725800  0.296900  1
  C  C2487  1  0.417600  0.774200  0.796900  1
  C  C2488  1  0.082400  0.274200  0.703100  1
  C  C2489  1  0.683800  0.221300  0.149400  1
  C  C2490  1  0.816200  0.721300  0.350600  1
  C  C2491  1  0.316200  0.778700  0.850600  1
  C  C2492  1  0.183800  0.278700  0.649400  1
  C  C2493  1  0.696600  0.213400  0.179200  1
  C  C2494  1  0.803400  0.713400  0.320800  1
  C  C2495  1  0.303400  0.786600  0.820800  1
  C  C2496  1  0.196600  0.286600  0.679200  1
  C  C2497  1  0.696500  0.239000  0.200700  1
  C  C2498  1  0.803500  0.739000  0.299300  1
  C  C2499  1  0.303500  0.761000  0.799300  1
  C  C2500  1  0.196500  0.261000  0.700700  1
  C  C2501  1  0.683700  0.272500  0.192300  1
  C  C2502  1  0.816300  0.772500  0.307700  1
  C  C2503  1  0.316300  0.727500  0.807700  1
  C  C2504  1  0.183700  0.227500  0.692300  1
  C  C2505  1  0.670900  0.280500  0.162500  1
  C  C2506  1  0.829100  0.780500  0.337500  1
  C  C2507  1  0.329100  0.719500  0.837500  1
  C  C2508  1  0.170900  0.219500  0.662500  1
  C  C2509  1  0.662200  0.313600  0.156900  1
  C  C2510  1  0.837800  0.813600  0.343100  1
  C  C2511  1  0.337800  0.686400  0.843100  1
  C  C2512  1  0.162200  0.186400  0.656900  1
  C  C2513  1  0.659100  0.345500  0.171800  1
  C  C2514  1  0.840900  0.845500  0.328200  1
  C  C2515  1  0.340900  0.654500  0.828200  1
  C  C2516  1  0.159100  0.154500  0.671800  1
  C  C2517  1  0.645000  0.371200  0.150100  1
  C  C2518  1  0.855000  0.871200  0.349900  1
  C  C2519  1  0.355000  0.628800  0.849900  1
  C  C2520  1  0.145000  0.128800  0.650100  1
  C  C2521  1  0.622300  0.370100  0.093600  1
  C  C2522  1  0.877700  0.870100  0.406400  1
  C  C2523  1  0.377700  0.629900  0.906400  1
  C  C2524  1  0.122300  0.129900  0.593600  1
  C  C2525  1  0.362000  0.394800  0.179800  1
  C  C2526  1  0.138000  0.894800  0.320200  1
  C  C2527  1  0.638000  0.605200  0.820200  1
  C  C2528  1  0.862000  0.105200  0.679800  1
  C  C2529  1  0.338700  0.375400  0.198500  1
  C  C2530  1  0.161300  0.875400  0.301500  1
  C  C2531  1  0.661300  0.624600  0.801500  1
  C  C2532  1  0.838700  0.124600  0.698500  1
  C  C2533  1  0.327100  0.341300  0.191400  1
  C  C2534  1  0.172900  0.841300  0.308600  1
  C  C2535  1  0.672900  0.658700  0.808600  1
  C  C2536  1  0.827100  0.158700  0.691400  1
  C  C2537  1  0.338800  0.326700  0.165500  1
  C  C2538  1  0.161200  0.826700  0.334500  1
  C  C2539  1  0.661200  0.673300  0.834500  1
  C  C2540  1  0.838800  0.173300  0.665500  1
  C  C2541  1  0.362100  0.346100  0.146800  1
  C  C2542  1  0.137900  0.846100  0.353200  1
  C  C2543  1  0.637900  0.653900  0.853200  1
  C  C2544  1  0.862100  0.153900  0.646800  1
  C  C2545  1  0.374500  0.334000  0.121800  1
  C  C2546  1  0.125500  0.834000  0.378200  1
  C  C2547  1  0.625500  0.666000  0.878200  1
  C  C2548  1  0.874500  0.166000  0.621800  1
  C  C2549  1  0.371300  0.300400  0.109100  1
  C  C2550  1  0.128700  0.800400  0.390900  1
  C  C2551  1  0.628700  0.699600  0.890900  1
  C  C2552  1  0.871300  0.199600  0.609100  1
  C  C2553  1  0.394300  0.300600  0.083700  1
  C  C2554  1  0.105700  0.800600  0.416300  1
  C  C2555  1  0.605700  0.699400  0.916300  1
  C  C2556  1  0.894300  0.199400  0.583700  1
  C  C2557  1  0.434100  0.348800  0.058500  1
  C  C2558  1  0.065900  0.848800  0.441500  1
  C  C2559  1  0.565900  0.651200  0.941500  1
  C  C2560  1  0.934100  0.151200  0.558500  1
  C  C2561  1  0.576200  0.360900  0.085500  1
  C  C2562  1  0.923800  0.860900  0.414500  1
  C  C2563  1  0.423800  0.639100  0.914500  1
  C  C2564  1  0.076200  0.139100  0.585500  1
  C  C2565  1  0.548700  0.347800  0.105300  1
  C  C2566  1  0.951300  0.847800  0.394700  1
  C  C2567  1  0.451300  0.652200  0.894700  1
  C  C2568  1  0.048700  0.152200  0.605300  1
  C  C2569  1  0.502700  0.342900  0.096200  1
  C  C2570  1  0.997300  0.842900  0.403800  1
  C  C2571  1  0.497300  0.657100  0.903800  1
  C  C2572  1  0.002700  0.157100  0.596200  1
  C  C2573  1  0.484100  0.351100  0.067300  1
  C  C2574  1  0.015900  0.851100  0.432700  1
  C  C2575  1  0.515900  0.648900  0.932700  1
  C  C2576  1  0.984100  0.148900  0.567300  1
  C  C2577  1  0.511500  0.364200  0.047500  1
  C  C2578  1  0.988500  0.864200  0.452500  1
  C  C2579  1  0.488500  0.635800  0.952500  1
  C  C2580  1  0.011500  0.135800  0.547500  1
  C  C2581  1  0.557600  0.369100  0.056600  1
  C  C2582  1  0.942400  0.869100  0.443400  1
  C  C2583  1  0.442400  0.630900  0.943400  1
  C  C2584  1  0.057600  0.130900  0.556600  1
  C  C2585  1  0.585000  0.382200  0.036800  1
  C  C2586  1  0.915000  0.882200  0.463200  1
  C  C2587  1  0.415000  0.617800  0.963200  1
  C  C2588  1  0.085000  0.117800  0.536800  1
  C  C2589  1  0.566500  0.390400  0.008000  1
  C  C2590  1  0.933500  0.890400  0.492000  1
  C  C2591  1  0.433500  0.609600  0.992000  1
  C  C2592  1  0.066500  0.109600  0.508000  1
  C  C2593  1  0.520400  0.385500  0.998900  1
  C  C2594  1  0.979600  0.885500  0.501100  1
  C  C2595  1  0.479600  0.614500  0.001100  1
  C  C2596  1  0.020400  0.114500  0.498900  1
  C  C2597  1  0.493000  0.372400  0.018600  1
  C  C2598  1  0.007000  0.872400  0.481400  1
  C  C2599  1  0.507000  0.627600  0.981400  1
  C  C2600  1  0.993000  0.127600  0.518600  1
  C  C2601  1  0.413400  0.437800  0.064900  1
  C  C2602  1  0.086600  0.937800  0.435100  1
  C  C2603  1  0.586600  0.562200  0.935100  1
  C  C2604  1  0.913400  0.062200  0.564900  1
  C  C2605  1  0.437600  0.454400  0.044900  1
  C  C2606  1  0.062400  0.954400  0.455100  1
  C  C2607  1  0.562400  0.545600  0.955100  1
  C  C2608  1  0.937600  0.045600  0.544900  1
  C  C2609  1  0.483800  0.460400  0.052400  1
  C  C2610  1  0.016200  0.960400  0.447600  1
  C  C2611  1  0.516200  0.539600  0.947600  1
  C  C2612  1  0.983800  0.039600  0.552400  1
  C  C2613  1  0.505800  0.449700  0.079800  1
  C  C2614  1  0.994200  0.949700  0.420200  1
  C  C2615  1  0.494200  0.550300  0.920200  1
  C  C2616  1  0.005800  0.050300  0.579800  1
  C  C2617  1  0.481600  0.433000  0.099800  1
  C  C2618  1  0.018400  0.933000  0.400200  1
  C  C2619  1  0.518400  0.567000  0.900200  1
  C  C2620  1  0.981600  0.067000  0.599800  1
  C  C2621  1  0.503000  0.422100  0.125800  1
  C  C2622  1  0.997000  0.922100  0.374200  1
  C  C2623  1  0.497000  0.577900  0.874200  1
  C  C2624  1  0.003000  0.077900  0.625800  1
  C  C2625  1  0.547500  0.424300  0.141500  1
  C  C2626  1  0.952500  0.924300  0.358500  1
  C  C2627  1  0.452500  0.575700  0.858500  1
  C  C2628  1  0.047500  0.075700  0.641500  1
  C  C2629  1  0.548600  0.404800  0.168100  1
  C  C2630  1  0.951400  0.904800  0.331900  1
  C  C2631  1  0.451400  0.595200  0.831900  1
  C  C2632  1  0.048600  0.095200  0.668100  1
  C  C2633  1  0.487200  0.369200  0.190700  1
  C  C2634  1  0.012800  0.869200  0.309300  1
  C  C2635  1  0.512800  0.630800  0.809300  1
  C  C2636  1  0.987200  0.130800  0.690700  1
  C  C2637  1  0.538300  0.590500  0.301500  1
  C  C2638  1  0.961700  0.090500  0.198500  1
  C  C2639  1  0.461700  0.409500  0.698500  1
  C  C2640  1  0.038300  0.909500  0.801500  1
  C  C2641  1  0.529400  0.624500  0.292600  1
  C  C2642  1  0.970600  0.124500  0.207400  1
  C  C2643  1  0.470600  0.375500  0.707400  1
  C  C2644  1  0.029400  0.875500  0.792600  1
  C  C2645  1  0.488500  0.632900  0.275600  1
  C  C2646  1  0.011500  0.132900  0.224400  1
  C  C2647  1  0.511500  0.367100  0.724400  1
  C  C2648  1  0.988500  0.867100  0.775600  1
  C  C2649  1  0.456400  0.607300  0.267500  1
  C  C2650  1  0.043600  0.107300  0.232500  1
  C  C2651  1  0.543600  0.392700  0.732500  1
  C  C2652  1  0.956400  0.892700  0.767500  1
  C  C2653  1  0.465200  0.573300  0.276400  1
  C  C2654  1  0.034800  0.073300  0.223600  1
  C  C2655  1  0.534800  0.426700  0.723600  1
  C  C2656  1  0.965200  0.926700  0.776400  1
  C  C2657  1  0.436100  0.545800  0.270900  1
  C  C2658  1  0.063900  0.045800  0.229100  1
  C  C2659  1  0.563900  0.454200  0.729100  1
  C  C2660  1  0.936100  0.954200  0.770900  1
  C  C2661  1  0.392000  0.543900  0.254600  1
  C  C2662  1  0.108000  0.043900  0.245400  1
  C  C2663  1  0.608000  0.456100  0.745400  1
  C  C2664  1  0.892000  0.956100  0.754600  1
  C  C2665  1  0.375700  0.509700  0.257000  1
  C  C2666  1  0.124300  0.009700  0.243000  1
  C  C2667  1  0.624300  0.490300  0.743000  1
  C  C2668  1  0.875700  0.990300  0.757000  1
  C  C2669  1  0.412200  0.454100  0.279300  1
  C  C2670  1  0.087800  0.954100  0.220700  1
  C  C2671  1  0.587800  0.545900  0.720700  1
  C  C2672  1  0.912200  0.045900  0.779300  1
  C  C2673  1  0.469700  0.393600  0.214500  1
  C  C2674  1  0.030300  0.893600  0.285500  1
  C  C2675  1  0.530300  0.606400  0.785500  1
  C  C2676  1  0.969700  0.106400  0.714500  1
  C  C2677  1  0.460600  0.428400  0.208800  1
  C  C2678  1  0.039400  0.928400  0.291200  1
  C  C2679  1  0.539400  0.571600  0.791200  1
  C  C2680  1  0.960600  0.071600  0.708800  1
  C  C2681  1  0.444000  0.448800  0.230100  1
  C  C2682  1  0.056000  0.948800  0.269900  1
  C  C2683  1  0.556000  0.551200  0.769900  1
  C  C2684  1  0.944000  0.051200  0.730100  1
  C  C2685  1  0.436500  0.434300  0.257100  1
  C  C2686  1  0.063500  0.934300  0.242900  1
  C  C2687  1  0.563500  0.565700  0.742900  1
  C  C2688  1  0.936500  0.065700  0.757100  1
  C  C2689  1  0.445700  0.399500  0.262710  1
  C  C2690  1  0.054300  0.899500  0.237290  1
  C  C2691  1  0.554300  0.600500  0.737290  1
  C  C2692  1  0.945700  0.100500  0.762710  1
  C  C2693  1  0.462300  0.379200  0.241400  1
  C  C2694  1  0.037700  0.879200  0.258600  1
  C  C2695  1  0.537700  0.620800  0.758600  1
  C  C2696  1  0.962300  0.120800  0.741400  1
  C  C2697  1  0.471500  0.344400  0.247000  1
  C  C2698  1  0.028500  0.844400  0.253000  1
  C  C2699  1  0.528500  0.655600  0.753000  1
  C  C2700  1  0.971500  0.155600  0.747000  1
  C  C2701  1  0.464000  0.330000  0.274000  1
  C  C2702  1  0.036000  0.830000  0.226000  1
  C  C2703  1  0.536000  0.670000  0.726000  1
  C  C2704  1  0.964000  0.170000  0.774000  1
  C  C2705  1  0.447400  0.350300  0.295300  1
  C  C2706  1  0.052600  0.850300  0.204700  1
  C  C2707  1  0.552600  0.649700  0.704700  1
  C  C2708  1  0.947400  0.149700  0.795300  1
  C  C2709  1  0.438300  0.385100  0.289600  1
  C  C2710  1  0.061700  0.885100  0.210400  1
  C  C2711  1  0.561700  0.614900  0.710400  1
  C  C2712  1  0.938300  0.114900  0.789600  1
  C  C2713  1  0.813600  0.417900  0.279400  1
  C  C2714  1  0.686400  0.917900  0.220600  1
  C  C2715  1  0.186400  0.582100  0.720600  1
  C  C2716  1  0.313600  0.082100  0.779400  1
  C  C2717  1  0.800200  0.444800  0.259900  1
  C  C2718  1  0.699800  0.944800  0.240100  1
  C  C2719  1  0.199800  0.555200  0.740100  1
  C  C2720  1  0.300200  0.055200  0.759900  1
  C  C2721  1  0.785600  0.475900  0.270600  1
  C  C2722  1  0.714400  0.975900  0.229400  1
  C  C2723  1  0.214400  0.524100  0.729400  1
  C  C2724  1  0.285600  0.024100  0.770600  1
  C  C2725  1  0.784300  0.480100  0.300800  1
  C  C2726  1  0.715700  0.980100  0.199200  1
  C  C2727  1  0.215700  0.519900  0.699200  1
  C  C2728  1  0.284300  0.019900  0.800800  1
  C  C2729  1  0.797800  0.453300  0.320400  1
  C  C2730  1  0.702200  0.953300  0.179600  1
  C  C2731  1  0.202200  0.546700  0.679600  1
  C  C2732  1  0.297800  0.046700  0.820400  1
  C  C2733  1  0.798500  0.456600  0.350300  1
  C  C2734  1  0.701500  0.956600  0.149700  1
  C  C2735  1  0.201500  0.543400  0.649700  1
  C  C2736  1  0.298500  0.043400  0.850300  1
  C  C2737  1  0.790700  0.485300  0.368400  1
  C  C2738  1  0.709300  0.985300  0.131600  1
  C  C2739  1  0.209300  0.514700  0.631600  1
  C  C2740  1  0.290700  0.014700  0.868400  1
  C  C2741  1  0.800700  0.475000  0.398600  1
  C  C2742  1  0.699300  0.975000  0.101400  1
  C  C2743  1  0.199300  0.525000  0.601400  1
  C  C2744  1  0.300700  0.025000  0.898600  1
  C  C2745  1  0.825700  0.416600  0.423000  1
  C  C2746  1  0.674300  0.916600  0.077000  1
  C  C2747  1  0.174300  0.583400  0.577000  1
  C  C2748  1  0.325700  0.083400  0.923000  1
  C  C2749  1  0.537900  0.412500  0.517000  1
  C  C2750  1  0.962100  0.912500  0.983000  1
  C  C2751  1  0.462100  0.587500  0.483000  1
  C  C2752  1  0.037900  0.087500  0.017000  1
  C  C2753  1  0.491400  0.416700  0.509400  1
  C  C2754  1  0.008600  0.916700  0.990600  1
  C  C2755  1  0.508600  0.583300  0.490600  1
  C  C2756  1  0.991400  0.083300  0.009400  1
  C  C2757  1  0.470800  0.407000  0.481300  1
  C  C2758  1  0.029200  0.907000  0.018700  1
  C  C2759  1  0.529200  0.593000  0.518700  1
  C  C2760  1  0.970800  0.093000  0.981300  1
  C  C2761  1  0.496600  0.393100  0.460900  1
  C  C2762  1  0.003400  0.893100  0.039100  1
  C  C2763  1  0.503400  0.606900  0.539100  1
  C  C2764  1  0.996600  0.106900  0.960900  1
  C  C2765  1  0.543000  0.388900  0.468600  1
  C  C2766  1  0.957000  0.888900  0.031400  1
  C  C2767  1  0.457000  0.611100  0.531400  1
  C  C2768  1  0.043000  0.111100  0.968600  1
  C  C2769  1  0.567400  0.372200  0.450600  1
  C  C2770  1  0.932600  0.872200  0.049400  1
  C  C2771  1  0.432600  0.627800  0.549400  1
  C  C2772  1  0.067400  0.127800  0.950600  1
  C  C2773  1  0.562000  0.358100  0.421400  1
  C  C2774  1  0.938000  0.858100  0.078600  1
  C  C2775  1  0.438000  0.641900  0.578600  1
  C  C2776  1  0.062000  0.141900  0.921400  1
  C  C2777  1  0.603500  0.342000  0.417000  1
  C  C2778  1  0.896500  0.842000  0.083000  1
  C  C2779  1  0.396500  0.658000  0.583000  1
  C  C2780  1  0.103500  0.158000  0.917000  1
  C  C2781  1  0.677300  0.328500  0.451400  1
  C  C2782  1  0.822700  0.828500  0.048600  1
  C  C2783  1  0.322700  0.671500  0.548600  1
  C  C2784  1  0.177300  0.171500  0.951400  1
  C  C2785  1  0.788000  0.392500  0.429700  1
  C  C2786  1  0.712000  0.892500  0.070300  1
  C  C2787  1  0.212000  0.607500  0.570300  1
  C  C2788  1  0.288000  0.107500  0.929700  1
  C  C2789  1  0.743900  0.401600  0.418500  1
  C  C2790  1  0.756100  0.901600  0.081500  1
  C  C2791  1  0.256100  0.598400  0.581500  1
  C  C2792  1  0.243900  0.098400  0.918500  1
  C  C2793  1  0.707900  0.380800  0.424000  1
  C  C2794  1  0.792100  0.880800  0.076000  1
  C  C2795  1  0.292100  0.619200  0.576000  1
  C  C2796  1  0.207900  0.119200  0.924000  1
  C  C2797  1  0.716000  0.350900  0.440800  1
  C  C2798  1  0.784000  0.850900  0.059200  1
  C  C2799  1  0.284000  0.649100  0.559200  1
  C  C2800  1  0.216000  0.149100  0.940800  1
  C  C2801  1  0.760100  0.341680  0.452010  1
  C  C2802  1  0.739900  0.841680  0.047990  1
  C  C2803  1  0.239900  0.658320  0.547990  1
  C  C2804  1  0.260100  0.158320  0.952010  1
  C  C2805  1  0.796100  0.362480  0.446490  1
  C  C2806  1  0.703900  0.862480  0.053510  1
  C  C2807  1  0.203900  0.637520  0.553510  1
  C  C2808  1  0.296100  0.137520  0.946490  1
  C  C2809  1  0.840300  0.353300  0.457700  1
  C  C2810  1  0.659700  0.853300  0.042300  1
  C  C2811  1  0.159700  0.646700  0.542300  1
  C  C2812  1  0.340300  0.146700  0.957700  1
  C  C2813  1  0.848400  0.323300  0.474500  1
  C  C2814  1  0.651600  0.823300  0.025500  1
  C  C2815  1  0.151600  0.676700  0.525500  1
  C  C2816  1  0.348400  0.176700  0.974500  1
  C  C2817  1  0.812400  0.302500  0.480000  1
  C  C2818  1  0.687600  0.802500  0.020000  1
  C  C2819  1  0.187600  0.697500  0.520000  1
  C  C2820  1  0.312400  0.197500  0.980000  1
  C  C2821  1  0.768300  0.311700  0.468700  1
  C  C2822  1  0.731700  0.811700  0.031300  1
  C  C2823  1  0.231700  0.688300  0.531300  1
  C  C2824  1  0.268300  0.188300  0.968700  1
  C  C2825  1  0.717800  0.352300  0.523700  1
  C  C2826  1  0.782200  0.852300  0.976300  1
  C  C2827  1  0.282200  0.647700  0.476300  1
  C  C2828  1  0.217800  0.147700  0.023700  1
  C  C2829  1  0.764700  0.350400  0.530300  1
  C  C2830  1  0.735300  0.850400  0.969700  1
  C  C2831  1  0.235300  0.649600  0.469700  1
  C  C2832  1  0.264700  0.149600  0.030300  1
  C  C2833  1  0.791500  0.377000  0.521900  1
  C  C2834  1  0.708500  0.877000  0.978100  1
  C  C2835  1  0.208500  0.623000  0.478100  1
  C  C2836  1  0.291500  0.123000  0.021900  1
  C  C2837  1  0.771500  0.405700  0.506900  1
  C  C2838  1  0.728500  0.905700  0.993100  1
  C  C2839  1  0.228500  0.594300  0.493100  1
  C  C2840  1  0.271500  0.094300  0.006900  1
  C  C2841  1  0.724600  0.407600  0.500400  1
  C  C2842  1  0.775400  0.907600  0.999600  1
  C  C2843  1  0.275400  0.592400  0.499600  1
  C  C2844  1  0.224600  0.092400  0.000400  1
  C  C2845  1  0.705200  0.436300  0.485800  1
  C  C2846  1  0.794800  0.936300  0.014200  1
  C  C2847  1  0.294800  0.563700  0.514200  1
  C  C2848  1  0.205200  0.063700  0.985800  1
  C  C2849  1  0.721600  0.466000  0.472200  1
  C  C2850  1  0.778400  0.966000  0.027800  1
  C  C2851  1  0.278400  0.534000  0.527800  1
  C  C2852  1  0.221600  0.034000  0.972200  1
  C  C2853  1  0.684100  0.487900  0.463000  1
  C  C2854  1  0.815900  0.987900  0.037000  1
  C  C2855  1  0.315900  0.512100  0.537000  1
  C  C2856  1  0.184100  0.012100  0.963000  1
  C  C2857  1  0.598700  0.481700  0.466000  1
  C  C2858  1  0.901300  0.981700  0.034000  1
  C  C2859  1  0.401300  0.518300  0.534000  1
  C  C2860  1  0.098700  0.018300  0.966000  1
  C  C2861  1  0.544000  0.527000  0.242600  1
  C  C2862  1  0.956000  0.027000  0.257400  1
  C  C2863  1  0.456000  0.473000  0.757400  1
  C  C2864  1  0.044000  0.973000  0.742600  1
  C  C2865  1  0.557800  0.516100  0.216100  1
  C  C2866  1  0.942200  0.016100  0.283900  1
  C  C2867  1  0.442200  0.483900  0.783900  1
  C  C2868  1  0.057800  0.983900  0.716100  1
  C  C2869  1  0.569900  0.481800  0.212600  1
  C  C2870  1  0.930100  0.981800  0.287400  1
  C  C2871  1  0.430100  0.518200  0.787400  1
  C  C2872  1  0.069900  0.018200  0.712600  1
  C  C2873  1  0.568200  0.458300  0.235600  1
  C  C2874  1  0.931800  0.958300  0.264400  1
  C  C2875  1  0.431800  0.541700  0.764400  1
  C  C2876  1  0.068200  0.041700  0.735600  1
  C  C2877  1  0.554400  0.469200  0.262100  1
  C  C2878  1  0.945600  0.969200  0.237900  1
  C  C2879  1  0.445600  0.530800  0.737900  1
  C  C2880  1  0.054400  0.030800  0.762100  1
  C  C2881  1  0.551000  0.447800  0.284700  1
  C  C2882  1  0.949000  0.947800  0.215300  1
  C  C2883  1  0.449000  0.552200  0.715300  1
  C  C2884  1  0.051000  0.052200  0.784700  1
  C  C2885  1  0.561100  0.412600  0.291500  1
  C  C2886  1  0.938900  0.912600  0.208500  1
  C  C2887  1  0.438900  0.587400  0.708500  1
  C  C2888  1  0.061100  0.087400  0.791500  1
  C  C2889  1  0.545700  0.404900  0.319000  1
  C  C2890  1  0.954300  0.904900  0.181000  1
  C  C2891  1  0.454300  0.595100  0.681000  1
  C  C2892  1  0.045700  0.095100  0.819000  1
  C  C2893  1  0.500500  0.437200  0.353700  1
  C  C2894  1  0.999500  0.937200  0.146300  1
  C  C2895  1  0.499500  0.562800  0.646300  1
  C  C2896  1  0.000500  0.062800  0.853700  1
  C  C2897  1  0.573200  0.472500  0.435000  1
  C  C2898  1  0.926800  0.972500  0.065000  1
  C  C2899  1  0.426800  0.527500  0.565000  1
  C  C2900  1  0.073200  0.027500  0.935000  1
  C  C2901  1  0.595900  0.459800  0.412500  1
  C  C2902  1  0.904100  0.959800  0.087500  1
  C  C2903  1  0.404100  0.540200  0.587500  1
  C  C2904  1  0.095900  0.040200  0.912500  1
  C  C2905  1  0.571400  0.447200  0.386400  1
  C  C2906  1  0.928600  0.947200  0.113600  1
  C  C2907  1  0.428600  0.552800  0.613600  1
  C  C2908  1  0.071400  0.052800  0.886400  1
  C  C2909  1  0.524300  0.447300  0.382950  1
  C  C2910  1  0.975700  0.947300  0.117050  1
  C  C2911  1  0.475700  0.552700  0.617050  1
  C  C2912  1  0.024300  0.052700  0.882950  1
  C  C2913  1  0.501700  0.460030  0.405480  1
  C  C2914  1  0.998300  0.960030  0.094520  1
  C  C2915  1  0.498300  0.539970  0.594520  1
  C  C2916  1  0.001700  0.039970  0.905480  1
  C  C2917  1  0.526100  0.472640  0.431500  1
  C  C2918  1  0.973900  0.972640  0.068500  1
  C  C2919  1  0.473900  0.527360  0.568500  1
  C  C2920  1  0.026100  0.027360  0.931500  1
  C  C2921  1  0.503500  0.485300  0.454030  1
  C  C2922  1  0.996500  0.985300  0.045970  1
  C  C2923  1  0.496500  0.514700  0.545970  1
  C  C2924  1  0.003500  0.014700  0.954030  1
  C  C2925  1  0.456400  0.485400  0.450500  1
  C  C2926  1  0.043600  0.985400  0.049500  1
  C  C2927  1  0.543600  0.514600  0.549500  1
  C  C2928  1  0.956400  0.014600  0.950500  1
  C  C2929  1  0.431900  0.472800  0.424500  1
  C  C2930  1  0.068100  0.972800  0.075500  1
  C  C2931  1  0.568100  0.527200  0.575500  1
  C  C2932  1  0.931900  0.027200  0.924500  1
  C  C2933  1  0.454600  0.460100  0.402000  1
  C  C2934  1  0.045400  0.960100  0.098000  1
  C  C2935  1  0.545400  0.539900  0.598000  1
  C  C2936  1  0.954600  0.039900  0.902000  1
  C  C2937  1  0.888700  0.339500  0.385300  1
  C  C2938  1  0.611300  0.839500  0.114700  1
  C  C2939  1  0.111300  0.660500  0.614700  1
  C  C2940  1  0.388700  0.160500  0.885300  1
  C  C2941  1  0.894900  0.312200  0.405300  1
  C  C2942  1  0.605100  0.812200  0.094700  1
  C  C2943  1  0.105100  0.687800  0.594700  1
  C  C2944  1  0.394900  0.187800  0.905300  1
  C  C2945  1  0.858000  0.292300  0.410800  1
  C  C2946  1  0.642000  0.792300  0.089200  1
  C  C2947  1  0.142000  0.707700  0.589200  1
  C  C2948  1  0.358000  0.207700  0.910800  1
  C  C2949  1  0.814900  0.299900  0.396300  1
  C  C2950  1  0.685100  0.799900  0.103700  1
  C  C2951  1  0.185100  0.700100  0.603700  1
  C  C2952  1  0.314900  0.200100  0.896300  1
  C  C2953  1  0.808700  0.327200  0.376300  1
  C  C2954  1  0.691300  0.827200  0.123700  1
  C  C2955  1  0.191300  0.672800  0.623700  1
  C  C2956  1  0.308700  0.172800  0.876300  1
  C  C2957  1  0.769500  0.335400  0.359800  1
  C  C2958  1  0.730500  0.835400  0.140200  1
  C  C2959  1  0.230500  0.664600  0.640200  1
  C  C2960  1  0.269500  0.164600  0.859800  1
  C  C2961  1  0.724600  0.322900  0.359100  1
  C  C2962  1  0.775400  0.822900  0.140900  1
  C  C2963  1  0.275400  0.677100  0.640900  1
  C  C2964  1  0.224600  0.177100  0.859100  1
  C  C2965  1  0.697600  0.337800  0.334100  1
  C  C2966  1  0.802400  0.837800  0.165900  1
  C  C2967  1  0.302400  0.662200  0.665900  1
  C  C2968  1  0.197600  0.162200  0.834100  1
  C  C2969  1  0.714500  0.376600  0.292500  1
  C  C2970  1  0.785500  0.876600  0.207500  1
  C  C2971  1  0.285500  0.623400  0.707500  1
  C  C2972  1  0.214500  0.123400  0.792500  1
  C  C2973  1  0.465600  0.525300  0.353700  1
  C  C2974  1  0.034400  0.025300  0.146300  1
  C  C2975  1  0.534400  0.474700  0.646300  1
  C  C2976  1  0.965600  0.974700  0.853700  1
  C  C2977  1  0.456200  0.538400  0.380600  1
  C  C2978  1  0.043800  0.038400  0.119400  1
  C  C2979  1  0.543800  0.461600  0.619400  1
  C  C2980  1  0.956200  0.961600  0.880600  1
  C  C2981  1  0.491200  0.551000  0.401200  1
  C  C2982  1  0.008800  0.051000  0.098800  1
  C  C2983  1  0.508800  0.449000  0.598800  1
  C  C2984  1  0.991200  0.949000  0.901200  1
  C  C2985  1  0.535500  0.550400  0.394800  1
  C  C2986  1  0.964500  0.050400  0.105200  1
  C  C2987  1  0.464500  0.449600  0.605200  1
  C  C2988  1  0.035500  0.949600  0.894800  1
  C  C2989  1  0.544900  0.537300  0.367900  1
  C  C2990  1  0.955100  0.037300  0.132100  1
  C  C2991  1  0.455100  0.462700  0.632100  1
  C  C2992  1  0.044900  0.962700  0.867900  1
  C  C2993  1  0.588500  0.535200  0.360500  1
  C  C2994  1  0.911500  0.035200  0.139500  1
  C  C2995  1  0.411500  0.464800  0.639500  1
  C  C2996  1  0.088500  0.964800  0.860500  1
  C  C2997  1  0.632200  0.543500  0.375400  1
  C  C2998  1  0.867800  0.043500  0.124600  1
  C  C2999  1  0.367800  0.456500  0.624600  1
  C  C3000  1  0.132200  0.956500  0.875400  1
  C  C3001  1  0.663700  0.540200  0.354700  1
  C  C3002  1  0.836300  0.040200  0.145300  1
  C  C3003  1  0.336300  0.459800  0.645300  1
  C  C3004  1  0.163700  0.959800  0.854700  1
  C  C3005  1  0.656000  0.521300  0.299600  1
  C  C3006  1  0.844000  0.021300  0.200400  1
  C  C3007  1  0.344000  0.478700  0.700400  1
  C  C3008  1  0.156000  0.978700  0.799600  1
  C  C3009  1  0.694500  0.413650  0.295000  1
  C  C3010  1  0.805500  0.913650  0.205000  1
  C  C3011  1  0.305500  0.586350  0.705000  1
  C  C3012  1  0.194500  0.086350  0.795000  1
  C  C3013  1  0.687900  0.427000  0.322490  1
  C  C3014  1  0.812100  0.927000  0.177510  1
  C  C3015  1  0.312100  0.573000  0.677510  1
  C  C3016  1  0.187900  0.073000  0.822490  1
  C  C3017  1  0.675800  0.461500  0.324950  1
  C  C3018  1  0.824200  0.961500  0.175050  1
  C  C3019  1  0.324200  0.538500  0.675050  1
  C  C3020  1  0.175800  0.038500  0.824950  1
  C  C3021  1  0.670300  0.482600  0.300000  1
  C  C3022  1  0.829700  0.982600  0.200000  1
  C  C3023  1  0.329700  0.517400  0.700000  1
  C  C3024  1  0.170300  0.017400  0.800000  1
  C  C3025  1  0.677000  0.469220  0.272490  1
  C  C3026  1  0.823000  0.969220  0.227510  1
  C  C3027  1  0.323000  0.530780  0.727510  1
  C  C3028  1  0.177000  0.030780  0.772490  1
  C  C3029  1  0.689100  0.434740  0.270030  1
  C  C3030  1  0.810900  0.934740  0.229970  1
  C  C3031  1  0.310900  0.565260  0.729970  1
  C  C3032  1  0.189100  0.065260  0.770030  1
  C  C3033  1  0.695800  0.421300  0.242600  1
  C  C3034  1  0.804200  0.921300  0.257400  1
  C  C3035  1  0.304200  0.578700  0.757400  1
  C  C3036  1  0.195800  0.078700  0.742600  1
  C  C3037  1  0.690400  0.442400  0.217570  1
  C  C3038  1  0.809600  0.942400  0.282430  1
  C  C3039  1  0.309600  0.557600  0.782430  1
  C  C3040  1  0.190400  0.057600  0.717570  1
  C  C3041  1  0.678300  0.476900  0.220030  1
  C  C3042  1  0.821700  0.976900  0.279970  1
  C  C3043  1  0.321700  0.523100  0.779970  1
  C  C3044  1  0.178300  0.023100  0.720030  1
  C  C3045  1  0.671600  0.490300  0.247500  1
  C  C3046  1  0.828400  0.990300  0.252500  1
  C  C3047  1  0.328400  0.509700  0.752500  1
  C  C3048  1  0.171600  0.009700  0.747500  1
  N  N3049  1  0.509300  0.004500  0.353800  1
  N  N3050  1  0.990700  0.504500  0.146200  1
  N  N3051  1  0.490700  0.995500  0.646200  1
  N  N3052  1  0.009300  0.495500  0.853800  1
  N  N3053  1  0.429900  0.088000  0.338800  1
  N  N3054  1  0.070100  0.588000  0.161200  1
  N  N3055  1  0.570100  0.912000  0.661200  1
  N  N3056  1  0.929900  0.412000  0.838800  1
  N  N3057  1  0.453800  0.056400  0.345000  1
  N  N3058  1  0.046200  0.556400  0.155000  1
  N  N3059  1  0.546200  0.943600  0.655000  1
  N  N3060  1  0.953800  0.443600  0.845000  1
  N  N3061  1  0.237300  0.145800  0.163700  1
  N  N3062  1  0.262700  0.645800  0.336300  1
  N  N3063  1  0.762700  0.854200  0.836300  1
  N  N3064  1  0.737300  0.354200  0.663700  1
  N  N3065  1  0.244400  0.067100  0.225400  1
  N  N3066  1  0.255600  0.567100  0.274600  1
  N  N3067  1  0.755600  0.932900  0.774600  1
  N  N3068  1  0.744400  0.432900  0.725400  1
  N  N3069  1  0.245000  0.097500  0.207900  1
  N  N3070  1  0.255000  0.597500  0.292100  1
  N  N3071  1  0.755000  0.902500  0.792100  1
  N  N3072  1  0.745000  0.402500  0.707900  1
  N  N3073  1  0.212400  0.160500  0.247500  1
  N  N3074  1  0.287600  0.660500  0.252500  1
  N  N3075  1  0.787600  0.839500  0.752500  1
  N  N3076  1  0.712400  0.339500  0.747500  1
  N  N3077  1  0.327000  0.181400  0.218100  1
  N  N3078  1  0.173000  0.681400  0.281900  1
  N  N3079  1  0.673000  0.818600  0.781900  1
  N  N3080  1  0.827000  0.318600  0.718100  1
  N  N3081  1  0.282700  0.173900  0.224700  1
  N  N3082  1  0.217300  0.673900  0.275300  1
  N  N3083  1  0.717300  0.826100  0.775300  1
  N  N3084  1  0.782700  0.326100  0.724700  1
  N  N3085  1  0.540500  0.022400  0.174600  1
  N  N3086  1  0.959500  0.522400  0.325400  1
  N  N3087  1  0.459500  0.977600  0.825400  1
  N  N3088  1  0.040500  0.477600  0.674600  1
  N  N3089  1  0.410000  0.042500  0.141700  1
  N  N3090  1  0.090000  0.542500  0.358300  1
  N  N3091  1  0.590000  0.957500  0.858300  1
  N  N3092  1  0.910000  0.457500  0.641700  1
  N  N3093  1  0.456600  0.040800  0.153400  1
  N  N3094  1  0.043400  0.540800  0.346600  1
  N  N3095  1  0.543400  0.959200  0.846600  1
  N  N3096  1  0.956600  0.459200  0.653400  1
  N  N3097  1  0.374300  0.010000  0.360300  1
  N  N3098  1  0.125700  0.510000  0.139700  1
  N  N3099  1  0.625700  0.990000  0.639700  1
  N  N3100  1  0.874300  0.490000  0.860300  1
  N  N3101  1  0.425700  0.972400  0.286800  1
  N  N3102  1  0.074300  0.472400  0.213200  1
  N  N3103  1  0.574300  0.027600  0.713200  1
  N  N3104  1  0.925700  0.527600  0.786800  1
  N  N3105  1  0.414200  0.986100  0.313800  1
  N  N3106  1  0.085800  0.486100  0.186200  1
  N  N3107  1  0.585800  0.013900  0.686200  1
  N  N3108  1  0.914200  0.513900  0.813800  1
  N  N3109  1  0.498700  0.105100  0.124200  1
  N  N3110  1  0.001300  0.605100  0.375800  1
  N  N3111  1  0.501300  0.894900  0.875800  1
  N  N3112  1  0.998700  0.394900  0.624200  1
  N  N3113  1  0.530500  0.107500  0.214900  1
  N  N3114  1  0.969500  0.607500  0.285100  1
  N  N3115  1  0.469500  0.892500  0.785100  1
  N  N3116  1  0.030500  0.392500  0.714900  1
  N  N3117  1  0.520400  0.102300  0.183700  1
  N  N3118  1  0.979600  0.602300  0.316300  1
  N  N3119  1  0.479600  0.897700  0.816300  1
  N  N3120  1  0.020400  0.397700  0.683700  1
  N  N3121  1  0.441900  0.954200  0.374400  1
  N  N3122  1  0.058100  0.454200  0.125600  1
  N  N3123  1  0.558100  0.045800  0.625600  1
  N  N3124  1  0.941900  0.545800  0.874400  1
  N  N3125  1  0.469400  0.037100  0.428800  1
  N  N3126  1  0.030600  0.537100  0.071200  1
  N  N3127  1  0.530600  0.962900  0.571200  1
  N  N3128  1  0.969400  0.462900  0.928800  1
  N  N3129  1  0.460900  0.011200  0.406600  1
  N  N3130  1  0.039100  0.511200  0.093400  1
  N  N3131  1  0.539100  0.988800  0.593400  1
  N  N3132  1  0.960900  0.488800  0.906600  1
  N  N3133  1  0.760100  0.053000  0.483300  1
  N  N3134  1  0.739900  0.553000  0.016700  1
  N  N3135  1  0.239900  0.947000  0.516700  1
  N  N3136  1  0.260100  0.447000  0.983300  1
  N  N3137  1  0.688700  0.081900  0.404100  1
  N  N3138  1  0.811300  0.581900  0.095900  1
  N  N3139  1  0.311300  0.918100  0.595900  1
  N  N3140  1  0.188700  0.418100  0.904100  1
  N  N3141  1  0.709700  0.074300  0.433300  1
  N  N3142  1  0.790300  0.574300  0.066700  1
  N  N3143  1  0.290300  0.925700  0.566700  1
  N  N3144  1  0.209700  0.425700  0.933300  1
  N  N3145  1  0.661500  0.124300  0.475000  1
  N  N3146  1  0.838500  0.624300  0.025000  1
  N  N3147  1  0.338500  0.875700  0.525000  1
  N  N3148  1  0.161500  0.375700  0.975000  1
  N  N3149  1  0.794500  0.143900  0.476500  1
  N  N3150  1  0.705500  0.643900  0.023500  1
  N  N3151  1  0.205500  0.856100  0.523500  1
  N  N3152  1  0.294500  0.356100  0.976500  1
  N  N3153  1  0.748900  0.133000  0.476400  1
  N  N3154  1  0.751100  0.633000  0.023600  1
  N  N3155  1  0.251100  0.867000  0.523600  1
  N  N3156  1  0.248900  0.367000  0.976400  1
  N  N3157  1  0.830000  0.161300  0.295600  1
  N  N3158  1  0.670000  0.661300  0.204400  1
  N  N3159  1  0.170000  0.838700  0.704400  1
  N  N3160  1  0.330000  0.338700  0.795600  1
  N  N3161  1  0.825300  0.070600  0.339800  1
  N  N3162  1  0.674700  0.570600  0.160200  1
  N  N3163  1  0.174700  0.929400  0.660200  1
  N  N3164  1  0.325300  0.429400  0.839800  1
  N  N3165  1  0.828600  0.103200  0.326000  1
  N  N3166  1  0.671400  0.603200  0.174000  1
  N  N3167  1  0.171400  0.896800  0.674000  1
  N  N3168  1  0.328600  0.396800  0.826000  1
  N  N3169  1  0.924300  0.128900  0.361100  1
  N  N3170  1  0.575700  0.628900  0.138900  1
  N  N3171  1  0.075700  0.871100  0.638900  1
  N  N3172  1  0.424300  0.371100  0.861100  1
  N  N3173  1  0.818300  0.187800  0.377900  1
  N  N3174  1  0.681700  0.687800  0.122100  1
  N  N3175  1  0.181700  0.812200  0.622100  1
  N  N3176  1  0.318300  0.312200  0.877900  1
  N  N3177  1  0.853400  0.167000  0.369100  1
  N  N3178  1  0.646600  0.667000  0.130900  1
  N  N3179  1  0.146600  0.833000  0.630900  1
  N  N3180  1  0.353400  0.333000  0.869100  1
  N  N3181  1  0.899300  0.400400  0.342500  1
  N  N3182  1  0.600700  0.900400  0.157500  1
  N  N3183  1  0.100700  0.599600  0.657500  1
  N  N3184  1  0.399300  0.099600  0.842500  1
  N  N3185  1  0.852400  0.324800  0.282500  1
  N  N3186  1  0.647600  0.824800  0.217500  1
  N  N3187  1  0.147600  0.675200  0.717500  1
  N  N3188  1  0.352400  0.175200  0.782500  1
  N  N3189  1  0.864900  0.350000  0.304900  1
  N  N3190  1  0.635100  0.850000  0.195100  1
  N  N3191  1  0.135100  0.650000  0.695100  1
  N  N3192  1  0.364900  0.150000  0.804900  1
  N  N3193  1  0.153900  0.141500  0.187400  1
  N  N3194  1  0.346100  0.641500  0.312600  1
  N  N3195  1  0.846100  0.858500  0.812600  1
  N  N3196  1  0.653900  0.358500  0.687400  1
  N  N3197  1  0.192200  0.242400  0.195300  1
  N  N3198  1  0.307800  0.742400  0.304700  1
  N  N3199  1  0.807800  0.757600  0.804700  1
  N  N3200  1  0.692200  0.257600  0.695300  1
  N  N3201  1  0.184200  0.206300  0.193300  1
  N  N3202  1  0.315800  0.706300  0.306700  1
  N  N3203  1  0.815800  0.793700  0.806700  1
  N  N3204  1  0.684200  0.293700  0.693300  1
  N  N3205  1  0.141100  0.338400  0.363600  1
  N  N3206  1  0.358900  0.838400  0.136400  1
  N  N3207  1  0.858900  0.661600  0.636400  1
  N  N3208  1  0.641100  0.161600  0.863600  1
  N  N3209  1  0.234900  0.265100  0.349400  1
  N  N3210  1  0.265100  0.765100  0.150600  1
  N  N3211  1  0.765100  0.734900  0.650600  1
  N  N3212  1  0.734900  0.234900  0.849400  1
  N  N3213  1  0.204300  0.292400  0.352900  1
  N  N3214  1  0.295700  0.792400  0.147100  1
  N  N3215  1  0.795700  0.707600  0.647100  1
  N  N3216  1  0.704300  0.207600  0.852900  1
  N  N3217  1  0.239400  0.353900  0.312300  1
  N  N3218  1  0.260600  0.853900  0.187700  1
  N  N3219  1  0.760600  0.646100  0.687700  1
  N  N3220  1  0.739400  0.146100  0.812300  1
  N  N3221  1  0.245500  0.384200  0.397700  1
  N  N3222  1  0.254500  0.884200  0.102300  1
  N  N3223  1  0.754500  0.615800  0.602300  1
  N  N3224  1  0.745500  0.115800  0.897700  1
  N  N3225  1  0.239100  0.371600  0.368000  1
  N  N3226  1  0.260900  0.871600  0.132000  1
  N  N3227  1  0.760900  0.628400  0.632000  1
  N  N3228  1  0.739100  0.128400  0.868000  1
  N  N3229  1  0.399300  0.224400  0.489100  1
  N  N3230  1  0.100700  0.724400  0.010900  1
  N  N3231  1  0.600700  0.775600  0.510900  1
  N  N3232  1  0.899300  0.275600  0.989100  1
  N  N3233  1  0.268900  0.215700  0.454100  1
  N  N3234  1  0.231100  0.715700  0.045900  1
  N  N3235  1  0.731100  0.784300  0.545900  1
  N  N3236  1  0.768900  0.284300  0.954100  1
  N  N3237  1  0.313300  0.222500  0.468700  1
  N  N3238  1  0.186700  0.722500  0.031300  1
  N  N3239  1  0.686700  0.777500  0.531300  1
  N  N3240  1  0.813300  0.277500  0.968700  1
  N  N3241  1  0.296500  0.277700  0.515700  1
  N  N3242  1  0.203500  0.777700  0.984300  1
  N  N3243  1  0.703500  0.722300  0.484300  1
  N  N3244  1  0.796500  0.222300  0.015700  1
  N  N3245  1  0.379300  0.316600  0.461600  1
  N  N3246  1  0.120700  0.816600  0.038400  1
  N  N3247  1  0.620700  0.683400  0.538400  1
  N  N3248  1  0.879300  0.183400  0.961600  1
  N  N3249  1  0.353200  0.299700  0.481200  1
  N  N3250  1  0.146800  0.799700  0.018800  1
  N  N3251  1  0.646800  0.700300  0.518800  1
  N  N3252  1  0.853200  0.200300  0.981200  1
  N  N3253  1  0.637300  0.406100  0.547600  1
  N  N3254  1  0.862700  0.906100  0.952400  1
  N  N3255  1  0.362700  0.593900  0.452400  1
  N  N3256  1  0.137300  0.093900  0.047600  1
  N  N3257  1  0.603400  0.304700  0.534100  1
  N  N3258  1  0.896600  0.804700  0.965900  1
  N  N3259  1  0.396600  0.695300  0.465900  1
  N  N3260  1  0.103400  0.195300  0.034100  1
  N  N3261  1  0.617200  0.339800  0.534700  1
  N  N3262  1  0.882800  0.839800  0.965300  1
  N  N3263  1  0.382800  0.660200  0.465300  1
  N  N3264  1  0.117200  0.160200  0.034700  1
  N  N3265  1  0.524600  0.030100  0.107600  1
  N  N3266  1  0.975400  0.530100  0.392400  1
  N  N3267  1  0.475400  0.969900  0.892400  1
  N  N3268  1  0.024600  0.469900  0.607600  1
  N  N3269  1  0.626900  0.088000  0.146200  1
  N  N3270  1  0.873100  0.588000  0.353800  1
  N  N3271  1  0.373100  0.912000  0.853800  1
  N  N3272  1  0.126900  0.412000  0.646200  1
  N  N3273  1  0.588100  0.067900  0.135600  1
  N  N3274  1  0.911900  0.567900  0.364400  1
  N  N3275  1  0.411900  0.932100  0.864400  1
  N  N3276  1  0.088100  0.432100  0.635600  1
  N  N3277  1  0.633500  0.284800  0.058100  1
  N  N3278  1  0.866500  0.784800  0.441900  1
  N  N3279  1  0.366500  0.715200  0.941900  1
  N  N3280  1  0.133500  0.215200  0.558100  1
  N  N3281  1  0.548800  0.256000  0.113500  1
  N  N3282  1  0.951200  0.756000  0.386500  1
  N  N3283  1  0.451200  0.744000  0.886500  1
  N  N3284  1  0.048800  0.244000  0.613500  1
  N  N3285  1  0.580700  0.264900  0.094200  1
  N  N3286  1  0.919300  0.764900  0.405800  1
  N  N3287  1  0.419300  0.735100  0.905800  1
  N  N3288  1  0.080700  0.235100  0.594200  1
  N  N3289  1  0.671000  0.254900  0.141100  1
  N  N3290  1  0.829000  0.754900  0.358900  1
  N  N3291  1  0.329000  0.745100  0.858900  1
  N  N3292  1  0.171000  0.245100  0.641100  1
  N  N3293  1  0.639500  0.355000  0.121800  1
  N  N3294  1  0.860500  0.855000  0.378200  1
  N  N3295  1  0.360500  0.645000  0.878200  1
  N  N3296  1  0.139500  0.145000  0.621800  1
  N  N3297  1  0.650100  0.319400  0.126000  1
  N  N3298  1  0.849900  0.819400  0.374000  1
  N  N3299  1  0.349900  0.680600  0.874000  1
  N  N3300  1  0.150100  0.180600  0.626000  1
  N  N3301  1  0.373700  0.380200  0.153900  1
  N  N3302  1  0.126300  0.880200  0.346100  1
  N  N3303  1  0.626300  0.619800  0.846100  1
  N  N3304  1  0.873700  0.119800  0.653900  1
  N  N3305  1  0.411800  0.334400  0.080700  1
  N  N3306  1  0.088200  0.834400  0.419300  1
  N  N3307  1  0.588200  0.665600  0.919300  1
  N  N3308  1  0.911800  0.165600  0.580700  1
  N  N3309  1  0.399600  0.355000  0.104200  1
  N  N3310  1  0.100400  0.855000  0.395800  1
  N  N3311  1  0.600400  0.645000  0.895800  1
  N  N3312  1  0.899600  0.145000  0.604200  1
  N  N3313  1  0.435400  0.427100  0.092300  1
  N  N3314  1  0.064600  0.927100  0.407700  1
  N  N3315  1  0.564600  0.572900  0.907700  1
  N  N3316  1  0.935400  0.072900  0.592300  1
  N  N3317  1  0.504700  0.390600  0.168800  1
  N  N3318  1  0.995300  0.890600  0.331200  1
  N  N3319  1  0.495300  0.609400  0.831200  1
  N  N3320  1  0.004700  0.109400  0.668800  1
  N  N3321  1  0.476600  0.401300  0.142600  1
  N  N3322  1  0.023400  0.901300  0.357400  1
  N  N3323  1  0.523400  0.598700  0.857400  1
  N  N3324  1  0.976600  0.098700  0.642600  1
  N  N3325  1  0.506200  0.564900  0.293300  1
  N  N3326  1  0.993800  0.064900  0.206700  1
  N  N3327  1  0.493800  0.435100  0.706700  1
  N  N3328  1  0.006200  0.935100  0.793300  1
  N  N3329  1  0.409800  0.490400  0.274800  1
  N  N3330  1  0.090200  0.990400  0.225200  1
  N  N3331  1  0.590200  0.509600  0.725200  1
  N  N3332  1  0.909800  0.009600  0.774800  1
  N  N3333  1  0.447100  0.512700  0.283400  1
  N  N3334  1  0.052900  0.012700  0.216600  1
  N  N3335  1  0.552900  0.487300  0.716600  1
  N  N3336  1  0.947100  0.987300  0.783400  1
  N  N3337  1  0.812400  0.422100  0.309700  1
  N  N3338  1  0.687600  0.922100  0.190300  1
  N  N3339  1  0.187600  0.577900  0.690300  1
  N  N3340  1  0.312400  0.077900  0.809700  1
  N  N3341  1  0.814600  0.439900  0.399200  1
  N  N3342  1  0.685400  0.939900  0.100800  1
  N  N3343  1  0.185400  0.560100  0.600800  1
  N  N3344  1  0.314600  0.060100  0.899200  1
  N  N3345  1  0.813300  0.428500  0.369400  1
  N  N3346  1  0.686700  0.928500  0.130600  1
  N  N3347  1  0.186700  0.571500  0.630600  1
  N  N3348  1  0.313300  0.071500  0.869400  1
  N  N3349  1  0.563700  0.398600  0.496600  1
  N  N3350  1  0.936300  0.898600  0.003400  1
  N  N3351  1  0.436300  0.601400  0.503400  1
  N  N3352  1  0.063700  0.101400  0.996600  1
  N  N3353  1  0.634400  0.346200  0.443400  1
  N  N3354  1  0.865600  0.846200  0.056600  1
  N  N3355  1  0.365600  0.653800  0.556600  1
  N  N3356  1  0.134400  0.153800  0.943400  1
  N  N3357  1  0.612200  0.364800  0.464200  1
  N  N3358  1  0.887800  0.864800  0.035800  1
  N  N3359  1  0.387800  0.635200  0.535800  1
  N  N3360  1  0.112200  0.135200  0.964200  1
  N  N3361  1  0.697700  0.380900  0.508800  1
  N  N3362  1  0.802300  0.880900  0.991200  1
  N  N3363  1  0.302300  0.619100  0.491200  1
  N  N3364  1  0.197700  0.119100  0.008800  1
  N  N3365  1  0.644600  0.471800  0.470900  1
  N  N3366  1  0.855400  0.971800  0.029100  1
  N  N3367  1  0.355400  0.528200  0.529100  1
  N  N3368  1  0.144600  0.028200  0.970900  1
  N  N3369  1  0.657600  0.439900  0.485000  1
  N  N3370  1  0.842400  0.939900  0.015000  1
  N  N3371  1  0.342400  0.560100  0.515000  1
  N  N3372  1  0.157600  0.060100  0.985000  1
  N  N3373  1  0.542300  0.503500  0.265600  1
  N  N3374  1  0.957700  0.003500  0.234400  1
  N  N3375  1  0.457700  0.496500  0.734400  1
  N  N3376  1  0.042300  0.996500  0.765600  1
  N  N3377  1  0.526200  0.435300  0.329200  1
  N  N3378  1  0.973800  0.935300  0.170800  1
  N  N3379  1  0.473800  0.564700  0.670800  1
  N  N3380  1  0.026200  0.064700  0.829200  1
  N  N3381  1  0.529400  0.461900  0.308000  1
  N  N3382  1  0.970600  0.961900  0.192000  1
  N  N3383  1  0.470600  0.538100  0.692000  1
  N  N3384  1  0.029400  0.038100  0.808000  1
  N  N3385  1  0.845600  0.347000  0.370800  1
  N  N3386  1  0.654400  0.847000  0.129200  1
  N  N3387  1  0.154400  0.653000  0.629200  1
  N  N3388  1  0.345600  0.153000  0.870800  1
  N  N3389  1  0.725900  0.359600  0.319500  1
  N  N3390  1  0.774100  0.859600  0.180500  1
  N  N3391  1  0.274100  0.640400  0.680500  1
  N  N3392  1  0.225900  0.140400  0.819500  1
  N  N3393  1  0.770400  0.358100  0.335400  1
  N  N3394  1  0.729600  0.858100  0.164600  1
  N  N3395  1  0.229600  0.641900  0.664600  1
  N  N3396  1  0.270400  0.141900  0.835400  1
  N  N3397  1  0.509900  0.524700  0.347300  1
  N  N3398  1  0.990100  0.024700  0.152700  1
  N  N3399  1  0.490100  0.475300  0.652700  1
  N  N3400  1  0.009900  0.975300  0.847300  1
  N  N3401  1  0.639400  0.529900  0.327100  1
  N  N3402  1  0.860600  0.029900  0.172900  1
  N  N3403  1  0.360600  0.470100  0.672900  1
  N  N3404  1  0.139400  0.970100  0.827100  1
  N  N3405  1  0.592900  0.526800  0.330600  1
  N  N3406  1  0.907100  0.026800  0.169400  1
  N  N3407  1  0.407100  0.473200  0.669400  1
  N  N3408  1  0.092900  0.973200  0.830600  1
  Cl  Cl3409  1  0.756100  0.283400  0.116200  1
  Cl  Cl3410  1  0.743900  0.783400  0.383800  1
  Cl  Cl3411  1  0.243900  0.716600  0.883800  1
  Cl  Cl3412  1  0.256100  0.216600  0.616200  1
  Cl  Cl3413  1  0.664100  0.021100  0.501300  1
  Cl  Cl3414  1  0.835900  0.521100  0.998700  1
  Cl  Cl3415  1  0.335900  0.978900  0.498700  1
  Cl  Cl3416  1  0.164100  0.478900  0.001300  1
  Cl  Cl3417  1  0.075100  0.860950  0.124570  1
  Cl  Cl3418  1  0.424900  0.360950  0.375430  1
  Cl  Cl3419  1  0.924900  0.139050  0.875430  1
  Cl  Cl3420  1  0.575100  0.639050  0.624570  1
  Cl  Cl3421  1  0.160600  0.990640  0.163290  1
  Cl  Cl3422  1  0.339400  0.490640  0.336710  1
  Cl  Cl3423  1  0.839400  0.009360  0.836710  1
  Cl  Cl3424  1  0.660600  0.509360  0.663290  1
  Cl  Cl3425  1  0.987900  0.397000  0.006700  1
  Cl  Cl3426  1  0.512100  0.897000  0.493300  1
  Cl  Cl3427  1  0.012100  0.603000  0.993300  1
  Cl  Cl3428  1  0.487900  0.103000  0.506700  1
  Cl  Cl3429  1  0.981300  0.386100  0.440800  1
  Cl  Cl3430  1  0.518700  0.886100  0.059200  1
  Cl  Cl3431  1  0.018700  0.613900  0.559200  1
  Cl  Cl3432  1  0.481300  0.113900  0.940800  1
  Cl  Cl3433  1  0.915700  0.224800  0.494100  1
  Cl  Cl3434  1  0.584300  0.724800  0.005900  1
  Cl  Cl3435  1  0.084300  0.775200  0.505900  1
  Cl  Cl3436  1  0.415700  0.275200  0.994100  1
  Cl  Cl3437  1  0.217500  0.245200  0.035770  1
  Cl  Cl3438  1  0.282500  0.745200  0.464230  1
  Cl  Cl3439  1  0.782500  0.754800  0.964230  1
  Cl  Cl3440  1  0.717500  0.254800  0.535770  1
  Cl  Cl3441  1  0.049700  0.387700  0.271100  1
  Cl  Cl3442  1  0.450300  0.887700  0.228900  1
  Cl  Cl3443  1  0.950300  0.612300  0.728900  1
  Cl  Cl3444  1  0.549700  0.112300  0.771100  1
  Cl  Cl3445  1  0.277800  0.451900  0.224800  1
  Cl  Cl3446  1  0.222200  0.951900  0.275200  1
  Cl  Cl3447  1  0.722200  0.548100  0.775200  1
  Cl  Cl3448  1  0.777800  0.048100  0.724800  1
  Cl  Cl3449  1  0.122600  0.452400  0.408980  1
  Cl  Cl3450  1  0.377400  0.952400  0.091020  1
  Cl  Cl3451  1  0.877400  0.547600  0.591020  1
  Cl  Cl3452  1  0.622600  0.047600  0.908980  1
  Cl  Cl3453  1  0.835200  0.265100  0.195600  1
  Cl  Cl3454  1  0.664800  0.765100  0.304400  1
  Cl  Cl3455  1  0.164800  0.734900  0.804400  1
  Cl  Cl3456  1  0.335200  0.234900  0.695600  1
  Cl  Cl3457  1  0.730700  0.075140  0.209490  1
  Cl  Cl3458  1  0.769300  0.575140  0.290510  1
  Cl  Cl3459  1  0.269300  0.924860  0.790510  1
  Cl  Cl3460  1  0.230700  0.424860  0.709490  1
  Cl  Cl3461  1  0.643900  0.115570  0.307260  1
  Cl  Cl3462  1  0.856100  0.615570  0.192740  1
  Cl  Cl3463  1  0.356100  0.884430  0.692740  1
  Cl  Cl3464  1  0.143900  0.384430  0.807260  1
  Cl  Cl3465  1  0.841200  0.049630  0.977570  1
  Cl  Cl3466  1  0.658800  0.549630  0.522430  1
  Cl  Cl3467  1  0.158800  0.950370  0.022430  1
  Cl  Cl3468  1  0.341200  0.450370  0.477570  1
  Cl  Cl3469  1  0.070500  0.093400  0.315700  1
  Cl  Cl3470  1  0.429500  0.593400  0.184300  1
  Cl  Cl3471  1  0.929500  0.906600  0.684300  1
  Cl  Cl3472  1  0.570500  0.406600  0.815700  1
  Cl  Cl3473  1  0.605800  0.337440  0.242120  1
  Cl  Cl3474  1  0.894200  0.837440  0.257880  1
  Cl  Cl3475  1  0.394200  0.662560  0.757880  1
  Cl  Cl3476  1  0.105800  0.162560  0.742120  1
  Cl  Cl3477  1  0.437300  0.256550  0.176840  1
  Cl  Cl3478  1  0.062700  0.756550  0.323160  1
  Cl  Cl3479  1  0.562700  0.743450  0.823160  1
  Cl  Cl3480  1  0.937300  0.243450  0.676840  1
  Cl  Cl3481  1  0.374300  0.194780  0.358950  1
  Cl  Cl3482  1  0.125700  0.694780  0.141050  1
  Cl  Cl3483  1  0.625700  0.805220  0.641050  1
  Cl  Cl3484  1  0.874300  0.305220  0.858950  1
  Cl  Cl3485  1  0.687500  0.237360  0.406450  1
  Cl  Cl3486  1  0.812500  0.737360  0.093550  1
  Cl  Cl3487  1  0.312500  0.762640  0.593550  1
  Cl  Cl3488  1  0.187500  0.262640  0.906450  1
  O  O3489  1  0.719000  0.276100  0.094200  1
  O  O3490  1  0.781000  0.776100  0.405800  1
  O  O3491  1  0.281000  0.723900  0.905800  1
  O  O3492  1  0.219000  0.223900  0.594200  1
  O  O3493  1  0.770400  0.319600  0.111800  1
  O  O3494  1  0.729600  0.819600  0.388200  1
  O  O3495  1  0.229600  0.680400  0.888200  1
  O  O3496  1  0.270400  0.180400  0.611800  1
  O  O3497  1  0.794800  0.262400  0.110000  1
  O  O3498  1  0.705200  0.762400  0.390000  1
  O  O3499  1  0.205200  0.737600  0.890000  1
  O  O3500  1  0.294800  0.237600  0.610000  1
  O  O3501  1  0.748400  0.278800  0.144700  1
  O  O3502  1  0.751600  0.778800  0.355300  1
  O  O3503  1  0.251600  0.721200  0.855300  1
  O  O3504  1  0.248400  0.221200  0.644700  1
  O  O3505  1  0.616500  0.007600  0.493700  1
  O  O3506  1  0.883500  0.507600  0.006300  1
  O  O3507  1  0.383500  0.992400  0.506300  1
  O  O3508  1  0.116500  0.492400  0.993700  1
  O  O3509  1  0.672000  0.022100  0.533800  1
  O  O3510  1  0.828000  0.522100  0.966200  1
  O  O3511  1  0.328000  0.977900  0.466200  1
  O  O3512  1  0.172000  0.477900  0.033800  1
  O  O3513  1  0.667000  0.054700  0.489700  1
  O  O3514  1  0.833000  0.554700  0.010300  1
  O  O3515  1  0.333000  0.945300  0.510300  1
  O  O3516  1  0.167000  0.445300  0.989700  1
  O  O3517  1  0.692500  0.996400  0.490100  1
  O  O3518  1  0.807500  0.496400  0.009900  1
  O  O3519  1  0.307500  0.003600  0.509900  1
  O  O3520  1  0.192500  0.503600  0.990100  1
  O  O3521  1  0.920200  0.186700  0.319600  1
  O  O3522  1  0.579800  0.686700  0.180400  1
  O  O3523  1  0.079800  0.813300  0.680400  1
  O  O3524  1  0.420200  0.313300  0.819600  1
  O  O3525  1  0.379800  0.261000  0.542700  1
  O  O3526  1  0.120200  0.761000  0.957300  1
  O  O3527  1  0.620200  0.739000  0.457300  1
  O  O3528  1  0.879800  0.239000  0.042700  1
  O  O3529  1  0.092400  0.889600  0.143700  1
  O  O3530  1  0.407600  0.389600  0.356300  1
  O  O3531  1  0.907600  0.110400  0.856300  1
  O  O3532  1  0.592400  0.610400  0.643700  1
  O  O3533  1  0.079700  0.869500  0.094300  1
  O  O3534  1  0.420300  0.369500  0.405700  1
  O  O3535  1  0.920300  0.130500  0.905700  1
  O  O3536  1  0.579700  0.630500  0.594300  1
  O  O3537  1  0.029500  0.853800  0.128500  1
  O  O3538  1  0.470500  0.353800  0.371500  1
  O  O3539  1  0.970500  0.146200  0.871500  1
  O  O3540  1  0.529500  0.646200  0.628500  1
  O  O3541  1  0.102400  0.830400  0.132700  1
  O  O3542  1  0.397600  0.330400  0.367300  1
  O  O3543  1  0.897600  0.169600  0.867300  1
  O  O3544  1  0.602400  0.669600  0.632700  1
  O  O3545  1  0.121700  0.967800  0.156100  1
  O  O3546  1  0.378300  0.467800  0.343900  1
  O  O3547  1  0.878300  0.032200  0.843900  1
  O  O3548  1  0.621700  0.532200  0.656100  1
  O  O3549  1  0.190200  0.977200  0.188300  1
  O  O3550  1  0.309800  0.477200  0.311700  1
  O  O3551  1  0.809800  0.022800  0.811700  1
  O  O3552  1  0.690200  0.522800  0.688300  1
  O  O3553  1  0.145500  0.024700  0.170300  1
  O  O3554  1  0.354500  0.524700  0.329700  1
  O  O3555  1  0.854500  0.975300  0.829700  1
  O  O3556  1  0.645500  0.475300  0.670300  1
  O  O3557  1  0.184300  0.992200  0.137500  1
  O  O3558  1  0.315700  0.492200  0.362500  1
  O  O3559  1  0.815700  0.007800  0.862500  1
  O  O3560  1  0.684300  0.507800  0.637500  1
  O  O3561  1  0.002600  0.369200  0.026600  1
  O  O3562  1  0.497400  0.869200  0.473400  1
  O  O3563  1  0.997400  0.630800  0.973400  1
  O  O3564  1  0.502600  0.130800  0.526600  1
  O  O3565  1  0.956500  0.418600  0.020000  1
  O  O3566  1  0.543500  0.918600  0.480000  1
  O  O3567  1  0.043500  0.581400  0.980000  1
  O  O3568  1  0.456500  0.081400  0.520000  1
  O  O3569  1  0.026500  0.418000  0.001800  1
  O  O3570  1  0.473500  0.918000  0.498200  1
  O  O3571  1  0.973500  0.582000  0.998200  1
  O  O3572  1  0.526500  0.082000  0.501800  1
  O  O3573  1  0.967100  0.383300  0.978900  1
  O  O3574  1  0.532900  0.883300  0.521100  1
  O  O3575  1  0.032900  0.616700  0.021100  1
  O  O3576  1  0.467100  0.116700  0.478900  1
  O  O3577  1  0.019300  0.408600  0.442400  1
  O  O3578  1  0.480700  0.908600  0.057600  1
  O  O3579  1  0.980700  0.591400  0.557600  1
  O  O3580  1  0.519300  0.091400  0.942400  1
  O  O3581  1  0.940600  0.401900  0.433700  1
  O  O3582  1  0.559400  0.901900  0.066300  1
  O  O3583  1  0.059400  0.598100  0.566300  1
  O  O3584  1  0.440600  0.098100  0.933700  1
  O  O3585  1  0.987700  0.360500  0.419000  1
  O  O3586  1  0.512300  0.860500  0.081000  1
  O  O3587  1  0.012300  0.639500  0.581000  1
  O  O3588  1  0.487700  0.139500  0.919000  1
  O  O3589  1  0.984100  0.369300  0.469000  1
  O  O3590  1  0.515900  0.869300  0.031000  1
  O  O3591  1  0.015900  0.630700  0.531000  1
  O  O3592  1  0.484100  0.130700  0.969000  1
  O  O3593  1  0.889100  0.241500  0.470100  1
  O  O3594  1  0.610900  0.741500  0.029900  1
  O  O3595  1  0.110900  0.758500  0.529900  1
  O  O3596  1  0.389100  0.258500  0.970100  1
  O  O3597  1  0.908300  0.187500  0.492400  1
  O  O3598  1  0.591700  0.687500  0.007600  1
  O  O3599  1  0.091700  0.812500  0.507600  1
  O  O3600  1  0.408300  0.312500  0.992400  1
  O  O3601  1  0.905200  0.237800  0.521100  1
  O  O3602  1  0.594800  0.737800  0.978900  1
  O  O3603  1  0.094800  0.762200  0.478900  1
  O  O3604  1  0.405200  0.262200  0.021100  1
  O  O3605  1  0.963400  0.228400  0.491800  1
  O  O3606  1  0.536600  0.728400  0.008200  1
  O  O3607  1  0.036600  0.771600  0.508200  1
  O  O3608  1  0.463400  0.271600  0.991800  1
  O  O3609  1  0.197600  0.234200  0.007700  1
  O  O3610  1  0.302400  0.734200  0.492300  1
  O  O3611  1  0.802400  0.765800  0.992300  1
  O  O3612  1  0.697600  0.265800  0.507700  1
  O  O3613  1  0.210400  0.222400  0.059000  1
  O  O3614  1  0.289600  0.722400  0.441000  1
  O  O3615  1  0.789600  0.777600  0.941000  1
  O  O3616  1  0.710400  0.277600  0.559000  1
  O  O3617  1  0.265700  0.250800  0.036400  1
  O  O3618  1  0.234300  0.750800  0.463600  1
  O  O3619  1  0.734300  0.749200  0.963600  1
  O  O3620  1  0.765700  0.249200  0.536400  1
  O  O3621  1  0.198900  0.280100  0.041500  1
  O  O3622  1  0.301100  0.780100  0.458500  1
  O  O3623  1  0.801100  0.719900  0.958500  1
  O  O3624  1  0.698900  0.219900  0.541500  1
  O  O3625  1  0.052100  0.358300  0.290900  1
  O  O3626  1  0.447900  0.858300  0.209100  1
  O  O3627  1  0.947900  0.641700  0.709100  1
  O  O3628  1  0.552100  0.141700  0.790900  1
  O  O3629  1  0.069500  0.381300  0.245000  1
  O  O3630  1  0.430500  0.881300  0.255000  1
  O  O3631  1  0.930500  0.618700  0.755000  1
  O  O3632  1  0.569500  0.118700  0.745000  1
  O  O3633  1  0.069400  0.417200  0.287600  1
  O  O3634  1  0.430600  0.917200  0.212400  1
  O  O3635  1  0.930600  0.582800  0.712400  1
  O  O3636  1  0.569400  0.082800  0.787600  1
  O  O3637  1  0.000800  0.394700  0.261300  1
  O  O3638  1  0.499200  0.894700  0.238700  1
  O  O3639  1  0.999200  0.605300  0.738700  1
  O  O3640  1  0.500800  0.105300  0.761300  1
  O  O3641  1  0.243000  0.428000  0.221900  1
  O  O3642  1  0.257000  0.928000  0.278100  1
  O  O3643  1  0.757000  0.572000  0.778100  1
  O  O3644  1  0.743000  0.072000  0.721900  1
  O  O3645  1  0.316200  0.439700  0.243500  1
  O  O3646  1  0.183800  0.939700  0.256500  1
  O  O3647  1  0.683800  0.560300  0.756500  1
  O  O3648  1  0.816200  0.060300  0.743500  1
  O  O3649  1  0.264500  0.485100  0.233700  1
  O  O3650  1  0.235500  0.985100  0.266300  1
  O  O3651  1  0.735500  0.514900  0.766300  1
  O  O3652  1  0.764500  0.014900  0.733700  1
  O  O3653  1  0.291300  0.456400  0.195200  1
  O  O3654  1  0.208700  0.956400  0.304800  1
  O  O3655  1  0.708700  0.543600  0.804800  1
  O  O3656  1  0.791300  0.043600  0.695200  1
  O  O3657  1  0.125100  0.489700  0.414300  1
  O  O3658  1  0.374900  0.989700  0.085700  1
  O  O3659  1  0.874900  0.510300  0.585700  1
  O  O3660  1  0.625100  0.010300  0.914300  1
  O  O3661  1  0.128600  0.434600  0.436700  1
  O  O3662  1  0.371400  0.934600  0.063300  1
  O  O3663  1  0.871400  0.565400  0.563300  1
  O  O3664  1  0.628600  0.065400  0.936700  1
  O  O3665  1  0.157300  0.443300  0.391000  1
  O  O3666  1  0.342700  0.943300  0.109000  1
  O  O3667  1  0.842700  0.556700  0.609000  1
  O  O3668  1  0.657300  0.056700  0.891000  1
  O  O3669  1  0.078000  0.444700  0.392400  1
  O  O3670  1  0.422000  0.944700  0.107600  1
  O  O3671  1  0.922000  0.555300  0.607600  1
  O  O3672  1  0.578000  0.055300  0.892400  1
  O  O3673  1  0.796100  0.280200  0.205600  1
  O  O3674  1  0.703900  0.780200  0.294400  1
  O  O3675  1  0.203900  0.719800  0.794400  1
  O  O3676  1  0.296100  0.219800  0.705600  1
  O  O3677  1  0.866200  0.254900  0.220800  1
  O  O3678  1  0.633800  0.754900  0.279200  1
  O  O3679  1  0.133800  0.745100  0.779200  1
  O  O3680  1  0.366200  0.245100  0.720800  1
  O  O3681  1  0.854800  0.287500  0.177400  1
  O  O3682  1  0.645200  0.787500  0.322600  1
  O  O3683  1  0.145200  0.712500  0.822600  1
  O  O3684  1  0.354800  0.212500  0.677400  1
  O  O3685  1  0.821100  0.233900  0.179600  1
  O  O3686  1  0.678900  0.733900  0.320400  1
  O  O3687  1  0.178900  0.766100  0.820400  1
  O  O3688  1  0.321100  0.266100  0.679600  1
  O  O3689  1  0.762000  0.062900  0.233800  1
  O  O3690  1  0.738000  0.562900  0.266200  1
  O  O3691  1  0.238000  0.937100  0.766200  1
  O  O3692  1  0.262000  0.437100  0.733800  1
  O  O3693  1  0.731200  0.111400  0.207300  1
  O  O3694  1  0.768800  0.611400  0.292700  1
  O  O3695  1  0.268800  0.888600  0.792700  1
  O  O3696  1  0.231200  0.388600  0.707300  1
  O  O3697  1  0.686800  0.062000  0.213300  1
  O  O3698  1  0.813200  0.562000  0.286700  1
  O  O3699  1  0.313200  0.938000  0.786700  1
  O  O3700  1  0.186800  0.438000  0.713300  1
  O  O3701  1  0.742000  0.060700  0.181900  1
  O  O3702  1  0.758000  0.560700  0.318100  1
  O  O3703  1  0.258000  0.939300  0.818100  1
  O  O3704  1  0.242000  0.439300  0.681900  1
  O  O3705  1  0.669600  0.142500  0.322800  1
  O  O3706  1  0.830400  0.642500  0.177200  1
  O  O3707  1  0.330400  0.857500  0.677200  1
  O  O3708  1  0.169600  0.357500  0.822800  1
  O  O3709  1  0.651900  0.083700  0.322500  1
  O  O3710  1  0.848100  0.583700  0.177500  1
  O  O3711  1  0.348100  0.916300  0.677500  1
  O  O3712  1  0.151900  0.416300  0.822500  1
  O  O3713  1  0.657600  0.112400  0.278100  1
  O  O3714  1  0.842400  0.612400  0.221900  1
  O  O3715  1  0.342400  0.887600  0.721900  1
  O  O3716  1  0.157600  0.387600  0.778100  1
  O  O3717  1  0.596700  0.123100  0.304100  1
  O  O3718  1  0.903300  0.623100  0.195900  1
  O  O3719  1  0.403300  0.876900  0.695900  1
  O  O3720  1  0.096700  0.376900  0.804100  1
  O  O3721  1  0.857800  0.068600  0.953800  1
  O  O3722  1  0.642200  0.568600  0.546200  1
  O  O3723  1  0.142200  0.931400  0.046200  1
  O  O3724  1  0.357800  0.431400  0.453800  1
  O  O3725  1  0.869500  0.057800  0.005100  1
  O  O3726  1  0.630500  0.557800  0.494900  1
  O  O3727  1  0.130500  0.942200  0.994900  1
  O  O3728  1  0.369500  0.442200  0.505100  1
  O  O3729  1  0.795900  0.058200  0.979100  1
  O  O3730  1  0.704100  0.558200  0.520900  1
  O  O3731  1  0.204100  0.941800  0.020900  1
  O  O3732  1  0.295900  0.441800  0.479100  1
  O  O3733  1  0.845100  0.013000  0.971400  1
  O  O3734  1  0.654900  0.513000  0.528600  1
  O  O3735  1  0.154900  0.987000  0.028600  1
  O  O3736  1  0.345100  0.487000  0.471400  1
  O  O3737  1  0.107300  0.089000  0.301200  1
  O  O3738  1  0.392700  0.589000  0.198800  1
  O  O3739  1  0.892700  0.911000  0.698800  1
  O  O3740  1  0.607300  0.411000  0.801200  1
  O  O3741  1  0.057000  0.127600  0.312500  1
  O  O3742  1  0.443000  0.627600  0.187500  1
  O  O3743  1  0.943000  0.872400  0.687500  1
  O  O3744  1  0.557000  0.372400  0.812500  1
  O  O3745  1  0.035900  0.072500  0.306500  1
  O  O3746  1  0.464100  0.572500  0.193500  1
  O  O3747  1  0.964100  0.927500  0.693500  1
  O  O3748  1  0.535900  0.427500  0.806500  1
  O  O3749  1  0.084400  0.087400  0.346300  1
  O  O3750  1  0.415600  0.587400  0.153700  1
  O  O3751  1  0.915600  0.912600  0.653700  1
  O  O3752  1  0.584400  0.412600  0.846300  1
  O  O3753  1  0.579600  0.310800  0.227400  1
  O  O3754  1  0.920400  0.810800  0.272600  1
  O  O3755  1  0.420400  0.689200  0.772600  1
  O  O3756  1  0.079600  0.189200  0.727400  1
  O  O3757  1  0.602500  0.335200  0.273600  1
  O  O3758  1  0.897500  0.835200  0.226400  1
  O  O3759  1  0.397500  0.664800  0.726400  1
  O  O3760  1  0.102500  0.164800  0.773600  1
  O  O3761  1  0.652400  0.333000  0.238900  1
  O  O3762  1  0.847600  0.833000  0.261100  1
  O  O3763  1  0.347600  0.667000  0.761100  1
  O  O3764  1  0.152400  0.167000  0.738900  1
  O  O3765  1  0.590400  0.370300  0.231900  1
  O  O3766  1  0.909600  0.870300  0.268100  1
  O  O3767  1  0.409600  0.629700  0.768100  1
  O  O3768  1  0.090400  0.129700  0.731900  1
  O  O3769  1  0.460500  0.287500  0.180500  1
  O  O3770  1  0.039500  0.787500  0.319500  1
  O  O3771  1  0.539500  0.712500  0.819500  1
  O  O3772  1  0.960500  0.212500  0.680500  1
  O  O3773  1  0.450900  0.234000  0.200800  1
  O  O3774  1  0.049100  0.734000  0.299200  1
  O  O3775  1  0.549100  0.766000  0.799200  1
  O  O3776  1  0.950900  0.266000  0.700800  1
  O  O3777  1  0.445400  0.241000  0.149800  1
  O  O3778  1  0.054600  0.741000  0.350200  1
  O  O3779  1  0.554600  0.759000  0.850200  1
  O  O3780  1  0.945400  0.259000  0.649800  1
  O  O3781  1  0.389700  0.261900  0.175900  1
  O  O3782  1  0.110300  0.761900  0.324100  1
  O  O3783  1  0.610300  0.738100  0.824100  1
  O  O3784  1  0.889700  0.238100  0.675900  1
  O  O3785  1  0.387400  0.169500  0.381300  1
  O  O3786  1  0.112600  0.669500  0.118700  1
  O  O3787  1  0.612600  0.830500  0.618700  1
  O  O3788  1  0.887400  0.330500  0.881300  1
  O  O3789  1  0.387800  0.227600  0.370700  1
  O  O3790  1  0.112200  0.727600  0.129300  1
  O  O3791  1  0.612200  0.772400  0.629300  1
  O  O3792  1  0.887800  0.272400  0.870700  1
  O  O3793  1  0.326400  0.194200  0.352000  1
  O  O3794  1  0.173600  0.694200  0.148000  1
  O  O3795  1  0.673600  0.805800  0.648000  1
  O  O3796  1  0.826400  0.305800  0.852000  1
  O  O3797  1  0.394400  0.188200  0.333600  1
  O  O3798  1  0.105600  0.688200  0.166400  1
  O  O3799  1  0.605600  0.811800  0.666400  1
  O  O3800  1  0.894400  0.311800  0.833600  1
  O  O3801  1  0.734500  0.246700  0.406000  1
  O  O3802  1  0.765500  0.746700  0.094000  1
  O  O3803  1  0.265500  0.753300  0.594000  1
  O  O3804  1  0.234500  0.253300  0.906000  1
  O  O3805  1  0.660800  0.257200  0.385300  1
  O  O3806  1  0.839200  0.757200  0.114700  1
  O  O3807  1  0.339200  0.742800  0.614700  1
  O  O3808  1  0.160800  0.242800  0.885300  1
  O  O3809  1  0.677900  0.245200  0.435600  1
  O  O3810  1  0.822100  0.745200  0.064400  1
  O  O3811  1  0.322100  0.754800  0.564400  1
  O  O3812  1  0.177900  0.254800  0.935600  1
  O  O3813  1  0.682400  0.201900  0.400900  1
  O  O3814  1  0.817600  0.701900  0.099100  1
  O  O3815  1  0.317600  0.798100  0.599100  1
  O  O3816  1  0.182400  0.298100  0.900900  1
