
#######################################################################
#
#                 Cambridge Crystallographic Data Centre
#                                CCDC 
#
#######################################################################
#
# If this CIF has been generated from an entry in the Cambridge 
# Structural Database, then it will include bibliographic, chemical, 
# crystal, experimental, refinement or atomic coordinate data resulting 
# from the CCDC's data processing and validation procedures.
#
#######################################################################

data_SEZFEK
_chemical_formula_moiety         
'C88 H72 B1 Cu3 F4 N20 5+,2(C2 H3 N1),5(B1 F4 1-)'
_chemical_name_systematic        
'tris(\m~2~-1,4-bis(3-(2-Pyridyl)-1H-pyrazolylmethyl)naphthalene)-bis(acetonitrile)-(tetrafluoroborato-F)-tri-copper pentakis(tetrafluoroborate) acetonitrile solvate'
_symmetry_cell_setting           monoclinic
_symmetry_space_group_name_H-M   'C c'
_symmetry_Int_Tables_number      9
_space_group_name_Hall           'C -2yc'
loop_
_symmetry_equiv_pos_site_id
_symmetry_equiv_pos_as_xyz
1 x,y,z
2 x,-y,1/2+z
3 1/2+x,1/2+y,z
4 1/2+x,1/2-y,1/2+z
_cell_length_a                   33.9274(10)
_cell_length_b                   19.5014(5)
_cell_length_c                   33.3186(10)
_cell_angle_alpha                90
_cell_angle_beta                 94.534(2)
_cell_angle_gamma                90
_cell_volume                     21975.7
_exptl_crystal_colour            green
_exptl_crystal_description       block
_cell_formula_units_Z            8
loop_
_atom_site_label
_atom_site_type_symbol
_atom_site_fract_x
_atom_site_fract_y
_atom_site_fract_z
Cu1 Cu 0.39912(9) 0.35063(9) 0.95953(9)
Cu2 Cu 0.67683(9) 0.23364(8) 0.99341(9)
Cu3 Cu 0.59909(9) 0.70444(7) 0.98746(9)
N1 N 0.3843(2) 0.4456(3) 0.9422(2)
C1 C 0.4074(2) 0.4735(4) 0.9137(2)
C2 C 0.3993(2) 0.5389(4) 0.8986(2)
H1 H 0.4148 0.5575 0.8795
C3 C 0.3680(2) 0.5763(3) 0.9119(3)
H2 H 0.3626 0.6200 0.9018
C4 C 0.3449(2) 0.5484(4) 0.9404(3)
H3 H 0.3239 0.5734 0.9493
C5 C 0.3530(2) 0.4830(4) 0.9555(2)
H4 H 0.3375 0.4644 0.9745
N2 N 0.4671(2) 0.3280(3) 0.8968(2)
N3 N 0.4370(2) 0.3632(4) 0.9157(2)
C6 C 0.4361(2) 0.4321(4) 0.9018(3)
C7 C 0.4657(3) 0.4394(3) 0.8742(3)
H5 H 0.4715 0.4793 0.8606
C8 C 0.4848(2) 0.3751(4) 0.8711(2)
H6 H 0.5054 0.3655 0.8551
C9 C 0.4745(4) 0.2594(6) 0.9000(4)
H7 H 0.4858 0.2441 0.8757
H8 H 0.4496 0.2356 0.9016
N4 N 0.7096(2) 0.3032(4) 1.0257(2)
C10 C 0.69318(18) 0.3341(4) 1.0581(2)
C11 C 0.7156(2) 0.3794(4) 1.0827(2)
H9 H 0.7046 0.4000 1.1044
C12 C 0.7543(2) 0.3939(4) 1.0749(2)
H10 H 0.7693 0.4242 1.0914
C13 C 0.77074(19) 0.3630(4) 1.0425(2)
H11 H 0.7967 0.3727 1.0373
C14 C 0.7484(2) 0.3177(4) 1.0179(2)
H12 H 0.7593 0.2970 0.9962
N5 N 0.6037(2) 0.2369(4) 1.0560(2)
N6 N 0.6400(2) 0.2562(4) 1.0409(2)
C15 C 0.6561(2) 0.3115(4) 1.0646(3)
C16 C 0.6296(3) 0.3265(4) 1.0944(2)
H13 H 0.6329 0.3605 1.1139
C17 C 0.5972(2) 0.2804(4) 1.0891(2)
H14 H 0.5756 0.2789 1.1045
C18 C 0.5799(4) 0.1817(7) 1.0405(4)
H15 H 0.5647 0.1639 1.0616
H16 H 0.5969 0.1452 1.0323
C19 C 0.5028(2) 0.2387(3) 0.9367(2)
C20 C 0.5233(2) 0.2893(2) 0.9592(2)
H17 H 0.5207 0.3350 0.9515
C21 C 0.5477(2) 0.2714(3) 0.9930(2)
H18 H 0.5614 0.3053 1.0080
C22 C 0.5516(2) 0.2031(3) 1.00447(19)
C23 C 0.53108(16) 0.1525(2) 0.98205(16)
C24 C 0.50668(16) 0.1703(2) 0.94818(16)
C25 C 0.4862(2) 0.1198(3) 0.92576(19)
H19 H 0.4698 0.1317 0.9031
C26 C 0.4901(2) 0.0514(3) 0.9372(2)
H20 H 0.4763 0.0176 0.9222
C27 C 0.5145(2) 0.0336(2) 0.9711(2)
H21 H 0.5171 -0.0121 0.9787
C28 C 0.5350(2) 0.0842(3) 0.9935(2)
H22 H 0.5513 0.0723 1.0162
N7 N 0.6444(2) 0.1654(4) 0.9637(2)
C29 C 0.6191(3) 0.1886(3) 0.9316(3)
C30 C 0.5939(2) 0.1429(4) 0.9104(2)
H23 H 0.5770 0.1584 0.8890
C31 C 0.5938(2) 0.0741(4) 0.9212(2)
H24 H 0.5769 0.0435 0.9070
C32 C 0.6191(3) 0.0509(3) 0.9533(3)
H25 H 0.6190 0.0048 0.9605
C33 C 0.6443(2) 0.0966(4) 0.9745(2)
H26 H 0.6612 0.0811 0.9959
N8 N 0.6589(2) 0.3543(3) 0.9251(2)
N9 N 0.6561(2) 0.2883(4) 0.9426(2)
C34 C 0.6235(3) 0.2538(3) 0.9224(3)
C35 C 0.6061(2) 0.2985(4) 0.8924(3)
H27 H 0.5842 0.2888 0.8747
C36 C 0.6280(3) 0.3606(4) 0.8940(2)
H28 H 0.6229 0.3987 0.8777
C37 C 0.6882(4) 0.3992(7) 0.9372(4)
H29 H 0.6946 0.4258 0.9140
H30 H 0.7115 0.3731 0.9463
N10 N 0.5440(2) 0.7326(4) 1.0009(3)
C38 C 0.5284(3) 0.6998(4) 1.0332(3)
C39 C 0.4932(3) 0.7226(4) 1.0470(2)
H31 H 0.4827 0.7007 1.0686
C40 C 0.4735(2) 0.7782(4) 1.0287(3)
H32 H 0.4498 0.7935 1.0380
C41 C 0.4890(3) 0.8110(4) 0.9964(3)
H33 H 0.4759 0.8482 0.9841
C42 C 0.5243(3) 0.7882(4) 0.9826(2)
H34 H 0.5347 0.8101 0.9610
N11 N 0.6076(2) 0.5911(4) 1.0683(3)
N12 N 0.5903(3) 0.6415(4) 1.0416(2)
C43 C 0.5502(2) 0.6495(4) 1.0500(3)
C44 C 0.5427(2) 0.6041(5) 1.0819(3)
H35 H 0.5187 0.5989 1.0933
C45 C 0.5782(3) 0.5680(4) 1.0931(2)
H36 H 0.5816 0.5350 1.1133
C46 C 0.6489(4) 0.5784(7) 1.0692(4)
H37 H 0.6578 0.5585 1.0951
H38 H 0.6626 0.6217 1.0668
C47 C 0.6788(2) 0.4490(3) 0.9707(2)
C48 C 0.64038(19) 0.4504(4) 0.9823(2)
H39 H 0.6208 0.4243 0.9684
C49 C 0.63119(17) 0.4907(4) 1.0147(2)
H40 H 0.6055 0.4917 1.0224
C50 C 0.66045(19) 0.5297(4) 1.0354(2)
C51 C 0.69890(17) 0.5283(3) 1.02380(17)
C52 C 0.70810(17) 0.4879(2) 0.99144(17)
C53 C 0.74655(19) 0.4865(4) 0.9798(2)
H41 H 0.7527 0.4595 0.9582
C54 C 0.77581(17) 0.5254(4) 1.0006(2)
H42 H 0.8015 0.5245 0.9928
C55 C 0.76662(19) 0.5658(4) 1.0329(2)
H43 H 0.7862 0.5919 1.0468
C56 C 0.7282(2) 0.5672(3) 1.0445(2)
H44 H 0.7220 0.5942 1.0662
N13 N 0.4147(2) 0.2580(4) 0.9795(3)
C57 C 0.4389(3) 0.2534(4) 1.0151(3)
C58 C 0.4487(2) 0.1896(5) 1.0315(2)
H45 H 0.4649 0.1865 1.0553
C59 C 0.4343(3) 0.1303(4) 1.0123(3)
H46 H 0.4409 0.0876 1.0233
C60 C 0.4101(3) 0.1349(4) 0.9768(3)
H47 H 0.4005 0.0952 0.9640
C61 C 0.4003(2) 0.1988(5) 0.9604(2)
H48 H 0.3842 0.2018 0.9366
N14 N 0.4461(2) 0.4290(4) 1.0439(3)
N15 N 0.4315(2) 0.3744(5) 1.0187(2)
C62 C 0.4507(3) 0.3132(4) 1.0325(3)
C63 C 0.4771(3) 0.3299(4) 1.0663(3)
H49 H 0.4935 0.2993 1.0812
C64 C 0.4743(3) 0.4015(5) 1.0733(2)
H50 H 0.4884 0.4260 1.0936
C65 C 0.4337(4) 0.4948(7) 1.0369(4)
H51 H 0.4350 0.5185 1.0626
H52 H 0.4061 0.4934 1.0269
N16 N 0.65390(17) 0.6810(4) 0.9731(2)
C66 C 0.65535(18) 0.6389(4) 0.9396(2)
C67 C 0.6915(2) 0.6236(4) 0.9248(2)
H53 H 0.6925 0.5954 0.9024
C68 C 0.72620(17) 0.6504(4) 0.9435(2)
H54 H 0.7504 0.6402 0.9336
C69 C 0.72475(17) 0.6926(4) 0.9770(2)
H55 H 0.7480 0.7105 0.9895
C70 C 0.6886(2) 0.7079(4) 0.9918(2)
H56 H 0.6876 0.7361 1.0142
N17 N 0.55288(17) 0.6241(4) 0.9132(2)
N18 N 0.5863(2) 0.6482(4) 0.9375(2)
C71 C 0.62062(17) 0.6187(5) 0.9228(3)
C72 C 0.6084(2) 0.5765(4) 0.8894(3)
H57 H 0.6249 0.5510 0.8740
C73 C 0.5665(2) 0.5798(4) 0.8834(2)
H58 H 0.5508 0.5570 0.8635
C74 C 0.5153(4) 0.6454(7) 0.9172(4)
H59 H 0.5004 0.6412 0.8913
H60 H 0.5161 0.6937 0.9242
C75 C 0.4556(2) 0.5375(3) 1.0080(2)
C76 C 0.4903(2) 0.5115(3) 0.9942(2)
H61 H 0.5010 0.4708 1.0048
C77 C 0.50884(18) 0.5462(4) 0.9646(2)
H62 H 0.5320 0.5288 0.9553
C78 C 0.49283(18) 0.6070(4) 0.9487(2)
C79 C 0.45822(16) 0.6330(3) 0.96251(17)
C80 C 0.43963(15) 0.5982(3) 0.99217(16)
C81 C 0.40503(17) 0.6242(4) 1.0060(2)
H63 H 0.3926 0.6010 1.0258
C82 C 0.38902(18) 0.6850(4) 0.9901(2)
H64 H 0.3659 0.7023 0.9994
C83 C 0.4076(2) 0.7197(3) 0.9605(2)
H65 H 0.3969 0.7603 0.9499
C84 C 0.4422(2) 0.6937(3) 0.9467(2)
H66 H 0.4546 0.7170 0.9268
B1 B 0.3180(4) 0.3031(8) 0.9397(5)
F1 F 0.3435(3) 0.3298(4) 0.9727(3)
F2 F 0.3395(3) 0.2998(4) 0.9064(3)
F3 F 0.3047(3) 0.2381(4) 0.9492(3)
F4 F 0.2855(3) 0.3451(5) 0.9326(3)
C85 C 0.7820(5) 0.0907(9) 1.0297(6)
H67 H 0.8001 0.0888 1.0091
H68 H 0.7723 0.0454 1.0346
H69 H 0.7952 0.1085 1.0540
C86 C 0.7485(5) 0.1358(9) 1.0166(6)
N19 N 0.7210(4) 0.1693(8) 1.0049(5)
C87 C 0.6439(5) 0.8899(7) 1.0645(5)
H70 H 0.6646 0.9112 1.0509
H71 H 0.6536 0.8780 1.0914
H72 H 0.6221 0.9211 1.0654
C88 C 0.6305(5) 0.8271(7) 1.0425(5)
N20 N 0.6187(4) 0.7812(6) 1.0226(4)
Cu4 Cu 0.59192(9) 1.14497(8) 0.78164(9)
Cu5 Cu 0.68035(9) 0.66274(7) 0.76013(9)
Cu6 Cu 0.86404(9) 1.03282(7) 0.75717(9)
N21 N 0.6323(2) 1.2163(3) 0.8011(2)
C89 C 0.6624(2) 1.1918(3) 0.8281(2)
C90 C 0.6916(2) 1.2361(4) 0.8442(2)
H73 H 0.7117 1.2197 0.8622
C91 C 0.6907(2) 1.3049(4) 0.8333(3)
H74 H 0.7102 1.3345 0.8441
C92 C 0.6606(2) 1.3294(3) 0.8064(3)
H75 H 0.6601 1.3755 0.7991
C93 C 0.6314(2) 1.2851(4) 0.7902(2)
H76 H 0.6113 1.3015 0.7722
N22 N 0.6282(2) 1.0209(3) 0.8390(2)
N23 N 0.6265(2) 1.0876(4) 0.8218(2)
C94 C 0.6598(2) 1.1251(3) 0.8383(3)
C95 C 0.6821(2) 1.0817(4) 0.8657(3)
H77 H 0.7054 1.0933 0.8808
C96 C 0.6626(2) 1.0173(3) 0.8662(2)
H78 H 0.6709 0.9793 0.8815
C97 C 0.5979(4) 0.9743(6) 0.8318(4)
H79 H 0.5735 0.9995 0.8258
H80 H 0.5951 0.9484 0.8562
N24 N 0.7309(2) 0.6397(4) 0.7363(2)
C98 C 0.7394(2) 0.6753(4) 0.7019(2)
C99 C 0.7721(2) 0.6572(4) 0.6816(2)
H81 H 0.7778 0.6810 0.6586
C100 C 0.7963(2) 0.6034(4) 0.6957(2)
H82 H 0.8182 0.5913 0.6821
C101 C 0.7878(2) 0.5678(4) 0.7301(3)
H83 H 0.8040 0.5318 0.7395
C102 C 0.7551(2) 0.5859(4) 0.7504(2)
H84 H 0.7494 0.5621 0.7734
N25 N 0.65299(19) 0.7802(4) 0.6854(2)
N26 N 0.6763(2) 0.7298(4) 0.7069(2)
C103 C 0.7129(2) 0.7247(4) 0.6891(3)
C104 C 0.7122(2) 0.7719(4) 0.6567(2)
H85 H 0.7324 0.7791 0.6399
C105 C 0.6752(3) 0.8062(4) 0.6544(2)
H86 H 0.6669 0.8399 0.6358
C106 C 0.6141(4) 0.7914(7) 0.6946(4)
H87 H 0.6024 0.7476 0.7008
H88 H 0.5992 0.8094 0.6708
C107 C 0.60298(18) 0.9230(3) 0.7969(2)
C108 C 0.63827(17) 0.9204(4) 0.7784(2)
H89 H 0.6598 0.9463 0.7886
C109 C 0.64132(16) 0.8792(4) 0.7448(2)
H90 H 0.6649 0.8775 0.7324
C110 C 0.60908(18) 0.8406(3) 0.7296(2)
C111 C 0.57379(16) 0.8432(2) 0.74808(16)
C112 C 0.57074(16) 0.8844(2) 0.78174(16)
C113 C 0.53545(18) 0.8869(3) 0.80023(19)
H91 H 0.5334 0.9145 0.8228
C114 C 0.50321(16) 0.8483(4) 0.7851(2)
H92 H 0.4796 0.8500 0.7974
C115 C 0.50626(17) 0.8071(4) 0.7514(2)
H93 H 0.4847 0.7813 0.7412
C116 C 0.54155(18) 0.8045(3) 0.7329(2)
H94 H 0.5436 0.7770 0.7104
N27 N 0.62922(18) 0.6818(4) 0.7826(2)
C117 C 0.63036(18) 0.7223(4) 0.8169(2)
C118 C 0.5957(2) 0.7361(4) 0.8351(2)
H95 H 0.5965 0.7632 0.8581
C119 C 0.55997(19) 0.7094(4) 0.8189(2)
H96 H 0.5368 0.7186 0.8311
C120 C 0.55883(18) 0.6688(4) 0.7845(2)
H97 H 0.5349 0.6509 0.7737
C121 C 0.5935(2) 0.6550(4) 0.7664(2)
H98 H 0.5927 0.6279 0.7434
N28 N 0.73440(17) 0.7401(4) 0.8324(2)
N29 N 0.6991(2) 0.7179(4) 0.8105(2)
C122 C 0.66657(17) 0.7430(4) 0.8304(3)
C123 C 0.6817(2) 0.7806(4) 0.8648(2)
H99 H 0.6668 0.8025 0.8832
C124 C 0.7236(2) 0.7788(4) 0.8660(2)
H100 H 0.7410 0.7993 0.8854
C125 C 0.7716(4) 0.7247(7) 0.8222(4)
H101 H 0.7724 0.6766 0.8150
H102 H 0.7900 0.7315 0.8457
N30 N 0.8458(2) 1.1266(3) 0.7396(2)
C126 C 0.8158(2) 1.1310(3) 0.7089(2)
C127 C 0.8052(2) 1.1944(4) 0.6923(2)
H103 H 0.7850 1.1973 0.6717
C128 C 0.8246(2) 1.2534(3) 0.7064(3)
H104 H 0.8175 1.2958 0.6953
C129 C 0.8547(2) 1.2490(3) 0.7372(3)
H105 H 0.8677 1.2885 0.7466
C130 C 0.8653(2) 1.1856(4) 0.7538(2)
H106 H 0.8854 1.1827 0.7744
N31 N 0.8011(2) 0.9550(3) 0.6855(2)
N32 N 0.8201(2) 1.0103(4) 0.7069(2)
C131 C 0.7997(2) 1.0716(3) 0.6952(3)
C132 C 0.7682(2) 1.0543(4) 0.6664(3)
H107 H 0.7501 1.0847 0.6538
C133 C 0.7690(2) 0.9822(4) 0.6604(2)
H108 H 0.7516 0.9572 0.6431
C134 C 0.8177(4) 0.8880(6) 0.6872(4)
H109 H 0.8463 0.8920 0.6891
H110 H 0.8098 0.8644 0.6622
C135 C 0.78587(19) 0.7682(3) 0.78649(19)
C136 C 0.76431(18) 0.8266(3) 0.7752(2)
H111 H 0.7431 0.8398 0.7895
C137 C 0.77444(19) 0.8653(3) 0.7425(2)
H112 H 0.7600 0.9044 0.7349
C138 C 0.8061(2) 0.8456(3) 0.7211(2)
C139 C 0.82769(16) 0.7871(2) 0.73245(16)
C140 C 0.81756(16) 0.7484(2) 0.76512(16)
C141 C 0.8391(2) 0.6900(3) 0.7764(2)
H113 H 0.8323 0.6641 0.7983
C142 C 0.8708(2) 0.6703(3) 0.7551(2)
H114 H 0.8852 0.6312 0.7626
C143 C 0.88095(18) 0.7090(3) 0.7224(2)
H115 H 0.9022 0.6957 0.7081
C144 C 0.85939(19) 0.7674(3) 0.71108(19)
H116 H 0.8662 0.7933 0.6892
N33 N 0.5501(2) 1.0749(4) 0.7660(2)
C145 C 0.5553(2) 1.0400(4) 0.7304(2)
C146 C 0.5255(2) 0.9977(4) 0.7135(2)
H117 H 0.5290 0.9744 0.6897
C147 C 0.4905(2) 0.9903(4) 0.7321(3)
H118 H 0.4706 0.9620 0.7207
C148 C 0.4853(2) 1.0251(4) 0.7677(3)
H119 H 0.4619 1.0201 0.7801
C149 C 0.5151(2) 1.0674(4) 0.7846(2)
H120 H 0.5116 1.0907 0.8084
N34 N 0.6418(2) 1.1224(4) 0.6989(3)
N35 N 0.6106(2) 1.1142(4) 0.7245(2)
C150 C 0.5882(2) 1.0558(4) 0.7113(3)
C151 C 0.6055(3) 1.0279(4) 0.6774(3)
H121 H 0.5967 0.9895 0.6628
C152 C 0.6386(2) 1.0691(4) 0.6698(2)
H122 H 0.6553 1.0623 0.6493
C153 C 0.6676(4) 1.1783(7) 0.7050(4)
H123 H 0.6534 1.2165 0.7157
H124 H 0.6765 1.1924 0.6793
N36 N 0.8835(2) 0.9398(3) 0.7744(2)
C154 C 0.8665(2) 0.9127(3) 0.8075(2)
C155 C 0.8790(2) 0.8497(4) 0.8232(2)
H125 H 0.8676 0.8316 0.8454
C156 C 0.9087(2) 0.8137(3) 0.8058(2)
H126 H 0.9171 0.7715 0.8163
C157 C 0.9257(2) 0.8408(3) 0.7727(2)
H127 H 0.9456 0.8167 0.7611
C158 C 0.9132(2) 0.9038(3) 0.7570(2)
H128 H 0.9246 0.9220 0.7349
N37 N 0.8065(2) 1.0556(3) 0.8293(2)
N38 N 0.8345(2) 1.0203(4) 0.8074(2)
C159 C 0.8385(2) 0.9527(3) 0.8231(2)
C160 C 0.8129(2) 0.9463(3) 0.8546(2)
H129 H 0.8097 0.9073 0.8701
C161 C 0.7932(2) 1.0099(4) 0.8585(2)
H130 H 0.7748 1.0198 0.8769
C162 C 0.7979(3) 1.1242(6) 0.8236(4)
H131 H 0.8211 1.1471 0.8148
H132 H 0.7924 1.1440 0.8493
C163 C 0.70301(18) 1.1622(3) 0.7333(2)
C164 C 0.7098(2) 1.0964(3) 0.7483(2)
H133 H 0.6942 1.0601 0.7382
C165 C 0.7399(2) 1.0848(2) 0.7783(2)
H134 H 0.7444 1.0407 0.7883
C166 C 0.76318(19) 1.1390(3) 0.79332(19)
C167 C 0.75640(15) 1.2049(2) 0.77834(16)
C168 C 0.72631(15) 1.2165(2) 0.74832(16)
C169 C 0.71952(19) 1.2823(3) 0.7333(2)
H135 H 0.6994 1.2900 0.7133
C170 C 0.7428(2) 1.3365(2) 0.7484(2)
H136 H 0.7383 1.3806 0.7383
C171 C 0.7729(2) 1.3249(3) 0.7784(2)
H137 H 0.7885 1.3612 0.7884
C172 C 0.77970(18) 1.2591(3) 0.7934(2)
H138 H 0.7998 1.2513 0.8135
B2 B 0.5292(5) 1.2392(8) 0.7980(5)
F5 F 0.5524(3) 1.2182(4) 0.7661(3)
F6 F 0.5409(3) 1.2038(4) 0.8322(3)
F7 F 0.5339(3) 1.3085(4) 0.8044(3)
F8 F 0.4898(3) 1.2275(5) 0.7874(3)
C173 C 0.6431(4) 0.4492(6) 0.7132(4)
H139 H 0.6555 0.4415 0.6886
H140 H 0.6150 0.4449 0.7082
H141 H 0.6525 0.4160 0.7329
C174 C 0.6528(4) 0.5183(6) 0.7282(4)
N39 N 0.6610(3) 0.5704(5) 0.7399(3)
C175 C 0.9704(4) 1.0859(7) 0.6855(4)
H142 H 0.9728 1.0595 0.6615
H143 H 0.9940 1.0809 0.7031
H144 H 0.9666 1.1333 0.6786
C176 C 0.9366(4) 1.0614(7) 0.7058(4)
N40 N 0.9091(3) 1.0470(5) 0.7224(3)
B3 B 0.9550(4) 0.1251(7) 0.8127(4)
F9 F 0.9539(2) 0.1799(4) 0.8388(2)
F10 F 0.9852(2) 0.0827(4) 0.8266(2)
F11 F 0.9198(2) 0.0897(4) 0.8105(3)
F12 F 0.9622(2) 0.1514(4) 0.7758(2)
B4 B 0.5988(4) 0.8706(8) 0.9298(5)
F13 F 0.6326(3) 0.8936(4) 0.9154(3)
F14 F 0.5669(3) 0.8917(4) 0.9070(3)
F15 F 0.5954(3) 0.8989(5) 0.9680(3)
F16 F 0.5999(3) 0.8014(4) 0.9320(3)
B5 B 0.6860(5) 0.9492(8) 0.5819(5)
F17 F 0.7139(3) 0.8997(5) 0.5936(3)
F18 F 0.6496(3) 0.9225(5) 0.5761(3)
F19 F 0.6967(3) 0.9822(5) 0.5484(3)
F20 F 0.6884(3) 0.9998(5) 0.6114(3)
B6 B 0.5165(4) 0.8726(7) 0.6225(4)
F21 F 0.5172(2) 0.8010(4) 0.6190(3)
F22 F 0.5046(2) 0.9012(4) 0.5858(3)
F23 F 0.4900(3) 0.8897(4) 0.6503(3)
F24 F 0.5534(2) 0.8959(4) 0.6354(3)
B7 B 0.5677(4) 0.5770(7) 0.6631(4)
F25 F 0.5401(2) 0.5576(4) 0.6339(2)
F26 F 0.5657(2) 0.6467(4) 0.6674(3)
F27 F 0.5619(2) 0.5457(4) 0.6991(2)
F28 F 0.6044(2) 0.5586(4) 0.6520(3)
B8 B 0.7856(5) 0.2249(9) 0.9227(5)
F29 F 0.8159(3) 0.2376(5) 0.8976(3)
F30 F 0.7589(3) 0.2778(5) 0.9196(3)
F31 F 0.8014(3) 0.2180(5) 0.9621(3)
F32 F 0.7675(3) 0.1638(5) 0.9125(4)
B9 B 0.8790(3) 0.4361(6) 0.7346(3)
F33 F 0.8796(4) 0.4194(8) 0.6944(3)
F34 F 0.9064(3) 0.3964(7) 0.7568(4)
F35 F 0.8889(5) 0.5043(5) 0.7398(5)
F36 F 0.8419(3) 0.4229(10) 0.7468(4)
B10 B 0.7176(3) 0.5057(5) 0.8405(2)
F37 F 0.6814(3) 0.4849(6) 0.8523(3)
F38 F 0.7213(3) 0.4691(6) 0.8055(3)
F39 F 0.7105(4) 0.5717(4) 0.8269(4)
F40 F 0.7442(3) 0.4739(8) 0.8680(3)
C177 C 0.7132(5) 0.4896(9) 0.6539(6)
H145 H 0.7098 0.5002 0.6816
H146 H 0.6924 0.4597 0.6436
H147 H 0.7125 0.5312 0.6384
C178 C 0.7483(5) 0.4583(9) 0.6513(6)
N41 N 0.7814(4) 0.4287(7) 0.6525(5)
C179 C 0.7164(6) 0.1065(10) 0.4817(7)
H148 H 0.7279 0.1462 0.4701
H149 H 0.7251 0.1038 0.5098
H150 H 0.6881 0.1101 0.4787
C180 C 0.7286(7) 0.0459(11) 0.4615(7)
N42 N 0.7394(5) 0.0030(9) 0.4413(6)
C181 C 0.8731(5) 0.2724(9) 0.0945(6)
H151 H 0.8755 0.3156 0.1083
H152 H 0.8774 0.2789 0.0666
H153 H 0.8923 0.2409 0.1064
C182 C 0.8332(5) 0.2447(10) 0.0978(6)
N43 N 0.8041(5) 0.2224(8) 0.1050(5)
C183 C 0.5212(6) 0.4561(12) 0.7633(7)
H154 H 0.5146 0.5033 0.7583
H155 H 0.4993 0.4332 0.7740
H156 H 0.5270 0.4345 0.7385
C184 C 0.5548(7) 0.4518(13) 0.7913(7)
N44 N 0.5814(6) 0.4594(10) 0.8144(6)
loop_
_geom_bond_atom_site_label_1
_geom_bond_atom_site_label_2
_geom_bond_site_symmetry_1
_geom_bond_site_symmetry_2
Cu1 N1 1_555 1_555
Cu2 N4 1_555 1_555
Cu3 N10 1_555 1_555
N1 C1 1_555 1_555
C1 C2 1_555 1_555
C2 H1 1_555 1_555
C3 C2 1_555 1_555
H2 C3 1_555 1_555
C4 C3 1_555 1_555
H3 C4 1_555 1_555
C5 N1 1_555 1_555
H4 C5 1_555 1_555
N2 N3 1_555 1_555
N3 Cu1 1_555 1_555
C6 C1 1_555 1_555
C7 C6 1_555 1_555
H5 C7 1_555 1_555
C8 N2 1_555 1_555
H6 C8 1_555 1_555
C9 N2 1_555 1_555
H7 C9 1_555 1_555
H8 C9 1_555 1_555
N4 C10 1_555 1_555
C10 C11 1_555 1_555
C11 H9 1_555 1_555
C12 C11 1_555 1_555
H10 C12 1_555 1_555
C13 C12 1_555 1_555
H11 C13 1_555 1_555
C14 N4 1_555 1_555
H12 C14 1_555 1_555
N5 N6 1_555 1_555
N6 Cu2 1_555 1_555
C15 C10 1_555 1_555
C16 C15 1_555 1_555
H13 C16 1_555 1_555
C17 N5 1_555 1_555
H14 C17 1_555 1_555
C18 N5 1_555 1_555
H15 C18 1_555 1_555
H16 C18 1_555 1_555
C19 C9 1_555 1_555
C20 C19 1_555 1_555
H17 C20 1_555 1_555
C21 C20 1_555 1_555
H18 C21 1_555 1_555
C22 C18 1_555 1_555
C23 C22 1_555 1_555
C24 C19 1_555 1_555
C25 C24 1_555 1_555
H19 C25 1_555 1_555
C26 C25 1_555 1_555
H20 C26 1_555 1_555
C27 C26 1_555 1_555
H21 C27 1_555 1_555
C28 C23 1_555 1_555
H22 C28 1_555 1_555
N7 Cu2 1_555 1_555
C29 N7 1_555 1_555
C30 C29 1_555 1_555
H23 C30 1_555 1_555
C31 C30 1_555 1_555
H24 C31 1_555 1_555
C32 C31 1_555 1_555
H25 C32 1_555 1_555
C33 N7 1_555 1_555
H26 C33 1_555 1_555
N8 N9 1_555 1_555
N9 Cu2 1_555 1_555
C34 C29 1_555 1_555
C35 C34 1_555 1_555
H27 C35 1_555 1_555
C36 N8 1_555 1_555
H28 C36 1_555 1_555
C37 N8 1_555 1_555
H29 C37 1_555 1_555
H30 C37 1_555 1_555
N10 C38 1_555 1_555
C38 C39 1_555 1_555
C39 H31 1_555 1_555
C40 C39 1_555 1_555
H32 C40 1_555 1_555
C41 C40 1_555 1_555
H33 C41 1_555 1_555
C42 N10 1_555 1_555
H34 C42 1_555 1_555
N11 N12 1_555 1_555
N12 Cu3 1_555 1_555
C43 C38 1_555 1_555
C44 C43 1_555 1_555
H35 C44 1_555 1_555
C45 N11 1_555 1_555
H36 C45 1_555 1_555
C46 N11 1_555 1_555
H37 C46 1_555 1_555
H38 C46 1_555 1_555
C47 C37 1_555 1_555
C48 C47 1_555 1_555
H39 C48 1_555 1_555
C49 C48 1_555 1_555
H40 C49 1_555 1_555
C50 C46 1_555 1_555
C51 C50 1_555 1_555
C52 C47 1_555 1_555
C53 C52 1_555 1_555
H41 C53 1_555 1_555
C54 C53 1_555 1_555
H42 C54 1_555 1_555
C55 C54 1_555 1_555
H43 C55 1_555 1_555
C56 C51 1_555 1_555
H44 C56 1_555 1_555
N13 Cu1 1_555 1_555
C57 N13 1_555 1_555
C58 C57 1_555 1_555
H45 C58 1_555 1_555
C59 C58 1_555 1_555
H46 C59 1_555 1_555
C60 C59 1_555 1_555
H47 C60 1_555 1_555
C61 N13 1_555 1_555
H48 C61 1_555 1_555
N14 N15 1_555 1_555
N15 Cu1 1_555 1_555
C62 C57 1_555 1_555
C63 C62 1_555 1_555
H49 C63 1_555 1_555
C64 N14 1_555 1_555
H50 C64 1_555 1_555
C65 N14 1_555 1_555
H51 C65 1_555 1_555
H52 C65 1_555 1_555
N16 Cu3 1_555 1_555
C66 N16 1_555 1_555
C67 C66 1_555 1_555
H53 C67 1_555 1_555
C68 C67 1_555 1_555
H54 C68 1_555 1_555
C69 C68 1_555 1_555
H55 C69 1_555 1_555
C70 N16 1_555 1_555
H56 C70 1_555 1_555
N17 N18 1_555 1_555
N18 Cu3 1_555 1_555
C71 C66 1_555 1_555
C72 C71 1_555 1_555
H57 C72 1_555 1_555
C73 N17 1_555 1_555
H58 C73 1_555 1_555
C74 N17 1_555 1_555
H59 C74 1_555 1_555
H60 C74 1_555 1_555
C75 C65 1_555 1_555
C76 C75 1_555 1_555
H61 C76 1_555 1_555
C77 C76 1_555 1_555
H62 C77 1_555 1_555
C78 C74 1_555 1_555
C79 C78 1_555 1_555
C80 C75 1_555 1_555
C81 C80 1_555 1_555
H63 C81 1_555 1_555
C82 C81 1_555 1_555
H64 C82 1_555 1_555
C83 C82 1_555 1_555
H65 C83 1_555 1_555
C84 C79 1_555 1_555
H66 C84 1_555 1_555
B1 F1 1_555 1_555
F1 Cu1 1_555 1_555
F2 B1 1_555 1_555
F3 B1 1_555 1_555
F4 B1 1_555 1_555
C85 H67 1_555 1_555
H68 C85 1_555 1_555
H69 C85 1_555 1_555
C86 C85 1_555 1_555
N19 Cu2 1_555 1_555
C87 H70 1_555 1_555
H71 C87 1_555 1_555
H72 C87 1_555 1_555
C88 C87 1_555 1_555
N20 Cu3 1_555 1_555
Cu4 N21 1_555 1_555
Cu5 N24 1_555 1_555
Cu6 N30 1_555 1_555
N21 C89 1_555 1_555
C89 C90 1_555 1_555
C90 H73 1_555 1_555
C91 C90 1_555 1_555
H74 C91 1_555 1_555
C92 C91 1_555 1_555
H75 C92 1_555 1_555
C93 N21 1_555 1_555
H76 C93 1_555 1_555
N22 N23 1_555 1_555
N23 Cu4 1_555 1_555
C94 C89 1_555 1_555
C95 C94 1_555 1_555
H77 C95 1_555 1_555
C96 N22 1_555 1_555
H78 C96 1_555 1_555
C97 N22 1_555 1_555
H79 C97 1_555 1_555
H80 C97 1_555 1_555
N24 C98 1_555 1_555
C98 C99 1_555 1_555
C99 H81 1_555 1_555
C100 C99 1_555 1_555
H82 C100 1_555 1_555
C101 C100 1_555 1_555
H83 C101 1_555 1_555
C102 N24 1_555 1_555
H84 C102 1_555 1_555
N25 N26 1_555 1_555
N26 Cu5 1_555 1_555
C103 C98 1_555 1_555
C104 C103 1_555 1_555
H85 C104 1_555 1_555
C105 N25 1_555 1_555
H86 C105 1_555 1_555
C106 N25 1_555 1_555
H87 C106 1_555 1_555
H88 C106 1_555 1_555
C107 C97 1_555 1_555
C108 C107 1_555 1_555
H89 C108 1_555 1_555
C109 C108 1_555 1_555
H90 C109 1_555 1_555
C110 C106 1_555 1_555
C111 C110 1_555 1_555
C112 C107 1_555 1_555
C113 C112 1_555 1_555
H91 C113 1_555 1_555
C114 C113 1_555 1_555
H92 C114 1_555 1_555
C115 C114 1_555 1_555
H93 C115 1_555 1_555
C116 C111 1_555 1_555
H94 C116 1_555 1_555
N27 Cu5 1_555 1_555
C117 N27 1_555 1_555
C118 C117 1_555 1_555
H95 C118 1_555 1_555
C119 C118 1_555 1_555
H96 C119 1_555 1_555
C120 C119 1_555 1_555
H97 C120 1_555 1_555
C121 N27 1_555 1_555
H98 C121 1_555 1_555
N28 N29 1_555 1_555
N29 Cu5 1_555 1_555
C122 C117 1_555 1_555
C123 C122 1_555 1_555
H99 C123 1_555 1_555
C124 N28 1_555 1_555
H100 C124 1_555 1_555
C125 N28 1_555 1_555
H101 C125 1_555 1_555
H102 C125 1_555 1_555
N30 C126 1_555 1_555
C126 C127 1_555 1_555
C127 H103 1_555 1_555
C128 C127 1_555 1_555
H104 C128 1_555 1_555
C129 C128 1_555 1_555
H105 C129 1_555 1_555
C130 N30 1_555 1_555
H106 C130 1_555 1_555
N31 N32 1_555 1_555
N32 Cu6 1_555 1_555
C131 C126 1_555 1_555
C132 C131 1_555 1_555
H107 C132 1_555 1_555
C133 N31 1_555 1_555
H108 C133 1_555 1_555
C134 N31 1_555 1_555
H109 C134 1_555 1_555
H110 C134 1_555 1_555
C135 C125 1_555 1_555
C136 C135 1_555 1_555
H111 C136 1_555 1_555
C137 C136 1_555 1_555
H112 C137 1_555 1_555
C138 C134 1_555 1_555
C139 C138 1_555 1_555
C140 C135 1_555 1_555
C141 C140 1_555 1_555
H113 C141 1_555 1_555
C142 C141 1_555 1_555
H114 C142 1_555 1_555
C143 C142 1_555 1_555
H115 C143 1_555 1_555
C144 C139 1_555 1_555
H116 C144 1_555 1_555
N33 Cu4 1_555 1_555
C145 N33 1_555 1_555
C146 C145 1_555 1_555
H117 C146 1_555 1_555
C147 C146 1_555 1_555
H118 C147 1_555 1_555
C148 C147 1_555 1_555
H119 C148 1_555 1_555
C149 N33 1_555 1_555
H120 C149 1_555 1_555
N34 N35 1_555 1_555
N35 Cu4 1_555 1_555
C150 C145 1_555 1_555
C151 C150 1_555 1_555
H121 C151 1_555 1_555
C152 N34 1_555 1_555
H122 C152 1_555 1_555
C153 N34 1_555 1_555
H123 C153 1_555 1_555
H124 C153 1_555 1_555
N36 Cu6 1_555 1_555
C154 N36 1_555 1_555
C155 C154 1_555 1_555
H125 C155 1_555 1_555
C156 C155 1_555 1_555
H126 C156 1_555 1_555
C157 C156 1_555 1_555
H127 C157 1_555 1_555
C158 N36 1_555 1_555
H128 C158 1_555 1_555
N37 N38 1_555 1_555
N38 Cu6 1_555 1_555
C159 C154 1_555 1_555
C160 C159 1_555 1_555
H129 C160 1_555 1_555
C161 N37 1_555 1_555
H130 C161 1_555 1_555
C162 N37 1_555 1_555
H131 C162 1_555 1_555
H132 C162 1_555 1_555
C163 C153 1_555 1_555
C164 C163 1_555 1_555
H133 C164 1_555 1_555
C165 C164 1_555 1_555
H134 C165 1_555 1_555
C166 C162 1_555 1_555
C167 C166 1_555 1_555
C168 C163 1_555 1_555
C169 C168 1_555 1_555
H135 C169 1_555 1_555
C170 C169 1_555 1_555
H136 C170 1_555 1_555
C171 C170 1_555 1_555
H137 C171 1_555 1_555
C172 C167 1_555 1_555
H138 C172 1_555 1_555
B2 F5 1_555 1_555
F5 Cu4 1_555 1_555
F6 B2 1_555 1_555
F7 B2 1_555 1_555
F8 B2 1_555 1_555
C173 H139 1_555 1_555
H140 C173 1_555 1_555
H141 C173 1_555 1_555
C174 C173 1_555 1_555
N39 Cu5 1_555 1_555
C175 H142 1_555 1_555
H143 C175 1_555 1_555
H144 C175 1_555 1_555
C176 C175 1_555 1_555
N40 Cu6 1_555 1_555
B3 F9 1_555 1_555
F10 B3 1_555 1_555
F11 B3 1_555 1_555
F12 B3 1_555 1_555
B4 F13 1_555 1_555
F14 B4 1_555 1_555
F15 B4 1_555 1_555
F16 B4 1_555 1_555
B5 F17 1_555 1_555
F18 B5 1_555 1_555
F19 B5 1_555 1_555
F20 B5 1_555 1_555
B6 F21 1_555 1_555
F22 B6 1_555 1_555
F23 B6 1_555 1_555
F24 B6 1_555 1_555
B7 F25 1_555 1_555
F26 B7 1_555 1_555
F27 B7 1_555 1_555
F28 B7 1_555 1_555
B8 F29 1_555 1_555
F30 B8 1_555 1_555
F31 B8 1_555 1_555
F32 B8 1_555 1_555
B9 F33 1_555 1_555
F34 B9 1_555 1_555
F35 B9 1_555 1_555
F36 B9 1_555 1_555
B10 F37 1_555 1_555
F38 B10 1_555 1_555
F39 B10 1_555 1_555
F40 B10 1_555 1_555
C177 H145 1_555 1_555
H146 C177 1_555 1_555
H147 C177 1_555 1_555
C178 C177 1_555 1_555
N41 C178 1_555 1_555
C179 H148 1_555 1_555
H149 C179 1_555 1_555
H150 C179 1_555 1_555
C180 C179 1_555 1_555
N42 C180 1_555 1_555
C181 H151 1_555 1_555
H152 C181 1_555 1_555
H153 C181 1_555 1_555
C182 C181 1_555 1_555
N43 C182 1_555 1_555
C183 H154 1_555 1_555
H155 C183 1_555 1_555
H156 C183 1_555 1_555
C184 C183 1_555 1_555
N44 C184 1_555 1_555
C4 C5 1_555 1_555
N3 C6 1_555 1_555
C7 C8 1_555 1_555
C13 C14 1_555 1_555
N6 C15 1_555 1_555
C16 C17 1_555 1_555
C21 C22 1_555 1_555
C23 C24 1_555 1_555
C27 C28 1_555 1_555
C32 C33 1_555 1_555
N9 C34 1_555 1_555
C35 C36 1_555 1_555
C41 C42 1_555 1_555
N12 C43 1_555 1_555
C44 C45 1_555 1_555
C49 C50 1_555 1_555
C51 C52 1_555 1_555
C55 C56 1_555 1_555
C60 C61 1_555 1_555
N15 C62 1_555 1_555
C63 C64 1_555 1_555
C69 C70 1_555 1_555
N18 C71 1_555 1_555
C72 C73 1_555 1_555
C77 C78 1_555 1_555
C79 C80 1_555 1_555
C83 C84 1_555 1_555
C86 N19 1_555 1_555
C88 N20 1_555 1_555
C92 C93 1_555 1_555
N23 C94 1_555 1_555
C95 C96 1_555 1_555
C101 C102 1_555 1_555
N26 C103 1_555 1_555
C104 C105 1_555 1_555
C109 C110 1_555 1_555
C111 C112 1_555 1_555
C115 C116 1_555 1_555
C120 C121 1_555 1_555
N29 C122 1_555 1_555
C123 C124 1_555 1_555
C129 C130 1_555 1_555
N32 C131 1_555 1_555
C132 C133 1_555 1_555
C137 C138 1_555 1_555
C139 C140 1_555 1_555
C143 C144 1_555 1_555
C148 C149 1_555 1_555
N35 C150 1_555 1_555
C151 C152 1_555 1_555
C157 C158 1_555 1_555
N38 C159 1_555 1_555
C160 C161 1_555 1_555
C165 C166 1_555 1_555
C167 C168 1_555 1_555
C171 C172 1_555 1_555
C174 N39 1_555 1_555
C176 N40 1_555 1_555

#END
