# generated using pymatgen
data_B2PdC32Se2N4(OF2)4
_symmetry_space_group_name_H-M   'P 1'
_cell_length_a   73.25640000
_cell_length_b   73.48330000
_cell_length_c   143.96100000
_cell_angle_alpha   90.00000000
_cell_angle_beta   90.00000000
_cell_angle_gamma   90.00000000
_symmetry_Int_Tables_number   1
_chemical_formula_structural   B2PdC32Se2N4(OF2)4
_chemical_formula_sum   'B480 Pd240 C7680 Se480 N960 O960 F1920'
_cell_volume   774959.62885057
_cell_formula_units_Z   240
loop_
 _symmetry_equiv_pos_site_id
 _symmetry_equiv_pos_as_xyz
  1  'x, y, z'
loop_
 _atom_site_type_symbol
 _atom_site_label
 _atom_site_symmetry_multiplicity
 _atom_site_fract_x
 _atom_site_fract_y
 _atom_site_fract_z
 _atom_site_occupancy
  B  B1  1  0.260000  0.133900  0.999000  1.0
  B  B2  1  0.240000  0.866100  0.499000  1.0
  B  B3  1  0.740000  0.633900  0.501000  1.0
  B  B4  1  0.760000  0.366100  0.001000  1.0
  B  B5  1  0.740000  0.866100  0.001000  1.0
  B  B6  1  0.760000  0.133900  0.501000  1.0
  B  B7  1  0.260000  0.366100  0.499000  1.0
  B  B8  1  0.240000  0.633900  0.999000  1.0
  B  B9  1  0.341500  0.163400  0.034400  1.0
  B  B10  1  0.158500  0.836600  0.534400  1.0
  B  B11  1  0.658500  0.663400  0.465600  1.0
  B  B12  1  0.841500  0.336600  0.965600  1.0
  B  B13  1  0.658500  0.836600  0.965600  1.0
  B  B14  1  0.841500  0.163400  0.465600  1.0
  B  B15  1  0.341500  0.336600  0.534400  1.0
  B  B16  1  0.158500  0.663400  0.034400  1.0
  B  B17  1  0.148300  0.194200  0.093900  1.0
  B  B18  1  0.351700  0.805800  0.593900  1.0
  B  B19  1  0.851700  0.694200  0.406100  1.0
  B  B20  1  0.648300  0.305800  0.906100  1.0
  B  B21  1  0.851700  0.805800  0.906100  1.0
  B  B22  1  0.648300  0.194200  0.406100  1.0
  B  B23  1  0.148300  0.305800  0.593900  1.0
  B  B24  1  0.351700  0.694200  0.093900  1.0
  B  B25  1  0.253600  0.210700  0.106700  1.0
  B  B26  1  0.246400  0.789300  0.606700  1.0
  B  B27  1  0.746400  0.710700  0.393300  1.0
  B  B28  1  0.753600  0.289300  0.893300  1.0
  B  B29  1  0.746400  0.789300  0.893300  1.0
  B  B30  1  0.753600  0.210700  0.393300  1.0
  B  B31  1  0.253600  0.289300  0.606700  1.0
  B  B32  1  0.246400  0.710700  0.106700  1.0
  B  B33  1  0.187100  0.239700  0.206900  1.0
  B  B34  1  0.312900  0.760300  0.706900  1.0
  B  B35  1  0.812900  0.739700  0.293100  1.0
  B  B36  1  0.687100  0.260300  0.793100  1.0
  B  B37  1  0.812900  0.760300  0.793100  1.0
  B  B38  1  0.687100  0.239700  0.293100  1.0
  B  B39  1  0.187100  0.260300  0.706900  1.0
  B  B40  1  0.312900  0.739700  0.206900  1.0
  B  B41  1  0.274200  0.241600  0.185200  1.0
  B  B42  1  0.225800  0.758400  0.685200  1.0
  B  B43  1  0.725800  0.741600  0.314800  1.0
  B  B44  1  0.774200  0.258400  0.814800  1.0
  B  B45  1  0.725800  0.758400  0.814800  1.0
  B  B46  1  0.774200  0.241600  0.314800  1.0
  B  B47  1  0.274200  0.258400  0.685200  1.0
  B  B48  1  0.225800  0.741600  0.185200  1.0
  B  B49  1  0.220300  0.037600  0.163200  1.0
  B  B50  1  0.279700  0.962400  0.663200  1.0
  B  B51  1  0.779700  0.537600  0.336800  1.0
  B  B52  1  0.720300  0.462400  0.836800  1.0
  B  B53  1  0.779700  0.962400  0.836800  1.0
  B  B54  1  0.720300  0.037600  0.336800  1.0
  B  B55  1  0.220300  0.462400  0.663200  1.0
  B  B56  1  0.279700  0.537600  0.163200  1.0
  B  B57  1  0.305200  0.081600  0.153800  1.0
  B  B58  1  0.194800  0.918400  0.653800  1.0
  B  B59  1  0.694800  0.581600  0.346200  1.0
  B  B60  1  0.805200  0.418400  0.846200  1.0
  B  B61  1  0.694800  0.918400  0.846200  1.0
  B  B62  1  0.805200  0.081600  0.346200  1.0
  B  B63  1  0.305200  0.418400  0.653800  1.0
  B  B64  1  0.194800  0.581600  0.153800  1.0
  B  B65  1  0.325400  0.943500  0.057900  1.0
  B  B66  1  0.174600  0.056500  0.557900  1.0
  B  B67  1  0.674600  0.443500  0.442100  1.0
  B  B68  1  0.825400  0.556500  0.942100  1.0
  B  B69  1  0.674600  0.056500  0.942100  1.0
  B  B70  1  0.825400  0.943500  0.442100  1.0
  B  B71  1  0.325400  0.556500  0.557900  1.0
  B  B72  1  0.174600  0.443500  0.057900  1.0
  B  B73  1  0.384500  0.027500  0.085900  1.0
  B  B74  1  0.115500  0.972500  0.585900  1.0
  B  B75  1  0.615500  0.527500  0.414100  1.0
  B  B76  1  0.884500  0.472500  0.914100  1.0
  B  B77  1  0.615500  0.972500  0.914100  1.0
  B  B78  1  0.884500  0.027500  0.414100  1.0
  B  B79  1  0.384500  0.472500  0.585900  1.0
  B  B80  1  0.115500  0.527500  0.085900  1.0
  B  B81  1  0.555800  0.935800  0.028700  1.0
  B  B82  1  0.944200  0.064200  0.528700  1.0
  B  B83  1  0.444200  0.435800  0.471300  1.0
  B  B84  1  0.055800  0.564200  0.971300  1.0
  B  B85  1  0.444200  0.064200  0.971300  1.0
  B  B86  1  0.055800  0.935800  0.471300  1.0
  B  B87  1  0.555800  0.564200  0.528700  1.0
  B  B88  1  0.944200  0.435800  0.028700  1.0
  B  B89  1  0.534100  0.015600  0.056400  1.0
  B  B90  1  0.965900  0.984400  0.556400  1.0
  B  B91  1  0.465900  0.515600  0.443600  1.0
  B  B92  1  0.034100  0.484400  0.943600  1.0
  B  B93  1  0.465900  0.984400  0.943600  1.0
  B  B94  1  0.034100  0.015600  0.443600  1.0
  B  B95  1  0.534100  0.484400  0.556400  1.0
  B  B96  1  0.965900  0.515600  0.056400  1.0
  B  B97  1  0.490900  0.104000  0.956000  1.0
  B  B98  1  0.009100  0.896000  0.456000  1.0
  B  B99  1  0.509100  0.604000  0.544000  1.0
  B  B100  1  0.990900  0.396000  0.044000  1.0
  B  B101  1  0.509100  0.896000  0.044000  1.0
  B  B102  1  0.990900  0.104000  0.544000  1.0
  B  B103  1  0.490900  0.396000  0.456000  1.0
  B  B104  1  0.009100  0.604000  0.956000  1.0
  B  B105  1  0.490000  0.140700  0.000200  1.0
  B  B106  1  0.010000  0.859300  0.500200  1.0
  B  B107  1  0.510000  0.640700  0.499800  1.0
  B  B108  1  0.990000  0.359300  0.999800  1.0
  B  B109  1  0.510000  0.859300  0.999800  1.0
  B  B110  1  0.990000  0.140700  0.499800  1.0
  B  B111  1  0.490000  0.359300  0.500200  1.0
  B  B112  1  0.010000  0.640700  0.000200  1.0
  B  B113  1  0.529400  0.329800  0.953500  1.0
  B  B114  1  0.970600  0.670200  0.453500  1.0
  B  B115  1  0.470600  0.829800  0.546500  1.0
  B  B116  1  0.029400  0.170200  0.046500  1.0
  B  B117  1  0.470600  0.670200  0.046500  1.0
  B  B118  1  0.029400  0.329800  0.546500  1.0
  B  B119  1  0.529400  0.170200  0.453500  1.0
  B  B120  1  0.970600  0.829800  0.953500  1.0
  B  B121  1  0.526900  0.306400  0.005000  1.0
  B  B122  1  0.973100  0.693600  0.505000  1.0
  B  B123  1  0.473100  0.806400  0.495000  1.0
  B  B124  1  0.026900  0.193600  0.995000  1.0
  B  B125  1  0.473100  0.693600  0.995000  1.0
  B  B126  1  0.026900  0.306400  0.495000  1.0
  B  B127  1  0.526900  0.193600  0.505000  1.0
  B  B128  1  0.973100  0.806400  0.005000  1.0
  B  B129  1  0.308000  0.357400  0.985300  1.0
  B  B130  1  0.192000  0.642600  0.485300  1.0
  B  B131  1  0.692000  0.857400  0.514700  1.0
  B  B132  1  0.808000  0.142600  0.014700  1.0
  B  B133  1  0.692000  0.642600  0.014700  1.0
  B  B134  1  0.808000  0.357400  0.514700  1.0
  B  B135  1  0.308000  0.142600  0.485300  1.0
  B  B136  1  0.192000  0.857400  0.985300  1.0
  B  B137  1  0.363200  0.326900  0.021500  1.0
  B  B138  1  0.136800  0.673100  0.521500  1.0
  B  B139  1  0.636800  0.826900  0.478500  1.0
  B  B140  1  0.863200  0.173100  0.978500  1.0
  B  B141  1  0.636800  0.673100  0.978500  1.0
  B  B142  1  0.863200  0.326900  0.478500  1.0
  B  B143  1  0.363200  0.173100  0.521500  1.0
  B  B144  1  0.136800  0.826900  0.021500  1.0
  B  B145  1  0.205700  0.429000  0.086200  1.0
  B  B146  1  0.294300  0.571000  0.586200  1.0
  B  B147  1  0.794300  0.929000  0.413800  1.0
  B  B148  1  0.705700  0.071000  0.913800  1.0
  B  B149  1  0.794300  0.571000  0.913800  1.0
  B  B150  1  0.705700  0.429000  0.413800  1.0
  B  B151  1  0.205700  0.071000  0.586200  1.0
  B  B152  1  0.294300  0.929000  0.086200  1.0
  B  B153  1  0.284800  0.374200  0.094600  1.0
  B  B154  1  0.215200  0.625800  0.594600  1.0
  B  B155  1  0.715200  0.874200  0.405400  1.0
  B  B156  1  0.784800  0.125800  0.905400  1.0
  B  B157  1  0.715200  0.625800  0.905400  1.0
  B  B158  1  0.784800  0.374200  0.405400  1.0
  B  B159  1  0.284800  0.125800  0.594600  1.0
  B  B160  1  0.215200  0.874200  0.094600  1.0
  B  B161  1  0.260900  0.461200  0.194800  1.0
  B  B162  1  0.239100  0.538800  0.694800  1.0
  B  B163  1  0.739100  0.961200  0.305200  1.0
  B  B164  1  0.760900  0.038800  0.805200  1.0
  B  B165  1  0.739100  0.538800  0.805200  1.0
  B  B166  1  0.760900  0.461200  0.305200  1.0
  B  B167  1  0.260900  0.038800  0.694800  1.0
  B  B168  1  0.239100  0.961200  0.194800  1.0
  B  B169  1  0.324900  0.400300  0.175400  1.0
  B  B170  1  0.175100  0.599700  0.675400  1.0
  B  B171  1  0.675100  0.900300  0.324600  1.0
  B  B172  1  0.824900  0.099700  0.824600  1.0
  B  B173  1  0.675100  0.599700  0.824600  1.0
  B  B174  1  0.824900  0.400300  0.324600  1.0
  B  B175  1  0.324900  0.099700  0.675400  1.0
  B  B176  1  0.175100  0.900300  0.175400  1.0
  B  B177  1  0.402300  0.420000  0.283500  1.0
  B  B178  1  0.097700  0.580000  0.783500  1.0
  B  B179  1  0.597700  0.920000  0.216500  1.0
  B  B180  1  0.902300  0.080000  0.716500  1.0
  B  B181  1  0.597700  0.580000  0.716500  1.0
  B  B182  1  0.902300  0.420000  0.216500  1.0
  B  B183  1  0.402300  0.080000  0.783500  1.0
  B  B184  1  0.097700  0.920000  0.283500  1.0
  B  B185  1  0.441000  0.364000  0.248600  1.0
  B  B186  1  0.059000  0.636000  0.748600  1.0
  B  B187  1  0.559000  0.864000  0.251400  1.0
  B  B188  1  0.941000  0.136000  0.751400  1.0
  B  B189  1  0.559000  0.636000  0.751400  1.0
  B  B190  1  0.941000  0.364000  0.251400  1.0
  B  B191  1  0.441000  0.136000  0.748600  1.0
  B  B192  1  0.059000  0.864000  0.248600  1.0
  B  B193  1  0.339900  0.197200  0.290800  1.0
  B  B194  1  0.160100  0.802800  0.790800  1.0
  B  B195  1  0.660100  0.697200  0.209200  1.0
  B  B196  1  0.839900  0.302800  0.709200  1.0
  B  B197  1  0.660100  0.802800  0.709200  1.0
  B  B198  1  0.839900  0.197200  0.209200  1.0
  B  B199  1  0.339900  0.302800  0.790800  1.0
  B  B200  1  0.160100  0.697200  0.290800  1.0
  B  B201  1  0.385300  0.212100  0.252700  1.0
  B  B202  1  0.114700  0.787900  0.752700  1.0
  B  B203  1  0.614700  0.712100  0.247300  1.0
  B  B204  1  0.885300  0.287900  0.747300  1.0
  B  B205  1  0.614700  0.787900  0.747300  1.0
  B  B206  1  0.885300  0.212100  0.247300  1.0
  B  B207  1  0.385300  0.287900  0.752700  1.0
  B  B208  1  0.114700  0.712100  0.252700  1.0
  B  B209  1  0.408900  0.985400  0.239700  1.0
  B  B210  1  0.091100  0.014600  0.739700  1.0
  B  B211  1  0.591100  0.485400  0.260300  1.0
  B  B212  1  0.908900  0.514600  0.760300  1.0
  B  B213  1  0.591100  0.014600  0.760300  1.0
  B  B214  1  0.908900  0.985400  0.260300  1.0
  B  B215  1  0.408900  0.514600  0.739700  1.0
  B  B216  1  0.091100  0.485400  0.239700  1.0
  B  B217  1  0.435400  0.063100  0.207600  1.0
  B  B218  1  0.064600  0.936900  0.707600  1.0
  B  B219  1  0.564600  0.563100  0.292400  1.0
  B  B220  1  0.935400  0.436900  0.792400  1.0
  B  B221  1  0.564600  0.936900  0.792400  1.0
  B  B222  1  0.935400  0.063100  0.292400  1.0
  B  B223  1  0.435400  0.436900  0.707600  1.0
  B  B224  1  0.064600  0.563100  0.207600  1.0
  B  B225  1  0.493100  0.888300  0.141500  1.0
  B  B226  1  0.006900  0.111700  0.641500  1.0
  B  B227  1  0.506900  0.388300  0.358500  1.0
  B  B228  1  0.993100  0.611700  0.858500  1.0
  B  B229  1  0.506900  0.111700  0.858500  1.0
  B  B230  1  0.993100  0.888300  0.358500  1.0
  B  B231  1  0.493100  0.611700  0.641500  1.0
  B  B232  1  0.006900  0.388300  0.141500  1.0
  B  B233  1  0.500000  0.989900  0.137900  1.0
  B  B234  1  0.000000  0.010100  0.637900  1.0
  B  B235  1  0.500000  0.489900  0.362100  1.0
  B  B236  1  0.000000  0.510100  0.862100  1.0
  B  B237  1  0.500000  0.010100  0.862100  1.0
  B  B238  1  0.000000  0.989900  0.362100  1.0
  B  B239  1  0.500000  0.510100  0.637900  1.0
  B  B240  1  0.000000  0.489900  0.137900  1.0
  B  B241  1  0.709200  0.956600  0.165000  1.0
  B  B242  1  0.790800  0.043400  0.665000  1.0
  B  B243  1  0.290800  0.456600  0.335000  1.0
  B  B244  1  0.209200  0.543400  0.835000  1.0
  B  B245  1  0.290800  0.043400  0.835000  1.0
  B  B246  1  0.209200  0.956600  0.335000  1.0
  B  B247  1  0.709200  0.543400  0.665000  1.0
  B  B248  1  0.790800  0.456600  0.165000  1.0
  B  B249  1  0.656400  0.032100  0.155800  1.0
  B  B250  1  0.843600  0.967900  0.655800  1.0
  B  B251  1  0.343600  0.532100  0.344200  1.0
  B  B252  1  0.156400  0.467900  0.844200  1.0
  B  B253  1  0.343600  0.967900  0.844200  1.0
  B  B254  1  0.156400  0.032100  0.344200  1.0
  B  B255  1  0.656400  0.467900  0.655800  1.0
  B  B256  1  0.843600  0.532100  0.155800  1.0
  B  B257  1  0.764400  0.024100  0.059500  1.0
  B  B258  1  0.735600  0.975900  0.559500  1.0
  B  B259  1  0.235600  0.524100  0.440500  1.0
  B  B260  1  0.264400  0.475900  0.940500  1.0
  B  B261  1  0.235600  0.975900  0.940500  1.0
  B  B262  1  0.264400  0.024100  0.440500  1.0
  B  B263  1  0.764400  0.475900  0.559500  1.0
  B  B264  1  0.735600  0.524100  0.059500  1.0
  B  B265  1  0.696600  0.088600  0.079100  1.0
  B  B266  1  0.803400  0.911400  0.579100  1.0
  B  B267  1  0.303400  0.588600  0.420900  1.0
  B  B268  1  0.196600  0.411400  0.920900  1.0
  B  B269  1  0.303400  0.911400  0.920900  1.0
  B  B270  1  0.196600  0.088600  0.420900  1.0
  B  B271  1  0.696600  0.411400  0.579100  1.0
  B  B272  1  0.803400  0.588600  0.079100  1.0
  B  B273  1  0.701400  0.175900  0.975600  1.0
  B  B274  1  0.798600  0.824100  0.475600  1.0
  B  B275  1  0.298600  0.675900  0.524400  1.0
  B  B276  1  0.201400  0.324100  0.024400  1.0
  B  B277  1  0.298600  0.824100  0.024400  1.0
  B  B278  1  0.201400  0.175900  0.524400  1.0
  B  B279  1  0.701400  0.324100  0.475600  1.0
  B  B280  1  0.798600  0.675900  0.975600  1.0
  B  B281  1  0.653700  0.191100  0.027000  1.0
  B  B282  1  0.846300  0.808900  0.527000  1.0
  B  B283  1  0.346300  0.691100  0.473000  1.0
  B  B284  1  0.153700  0.308900  0.973000  1.0
  B  B285  1  0.346300  0.808900  0.973000  1.0
  B  B286  1  0.153700  0.191100  0.473000  1.0
  B  B287  1  0.653700  0.308900  0.527000  1.0
  B  B288  1  0.846300  0.691100  0.027000  1.0
  B  B289  1  0.803600  0.352600  0.030400  1.0
  B  B290  1  0.696400  0.647400  0.530400  1.0
  B  B291  1  0.196400  0.852600  0.469600  1.0
  B  B292  1  0.303600  0.147400  0.969600  1.0
  B  B293  1  0.196400  0.647400  0.969600  1.0
  B  B294  1  0.303600  0.352600  0.469600  1.0
  B  B295  1  0.803600  0.147400  0.530400  1.0
  B  B296  1  0.696400  0.852600  0.030400  1.0
  B  B297  1  0.717000  0.316300  0.061200  1.0
  B  B298  1  0.783000  0.683700  0.561200  1.0
  B  B299  1  0.283000  0.816300  0.438800  1.0
  B  B300  1  0.217000  0.183700  0.938800  1.0
  B  B301  1  0.283000  0.683700  0.938800  1.0
  B  B302  1  0.217000  0.316300  0.438800  1.0
  B  B303  1  0.717000  0.183700  0.561200  1.0
  B  B304  1  0.783000  0.816300  0.061200  1.0
  B  B305  1  0.619300  0.494200  0.015200  1.0
  B  B306  1  0.880700  0.505800  0.515200  1.0
  B  B307  1  0.380700  0.994200  0.484800  1.0
  B  B308  1  0.119300  0.005800  0.984800  1.0
  B  B309  1  0.380700  0.505800  0.984800  1.0
  B  B310  1  0.119300  0.494200  0.484800  1.0
  B  B311  1  0.619300  0.005800  0.515200  1.0
  B  B312  1  0.880700  0.994200  0.015200  1.0
  B  B313  1  0.590500  0.429000  0.047600  1.0
  B  B314  1  0.909500  0.571000  0.547600  1.0
  B  B315  1  0.409500  0.929000  0.452400  1.0
  B  B316  1  0.090500  0.071000  0.952400  1.0
  B  B317  1  0.409500  0.571000  0.952400  1.0
  B  B318  1  0.090500  0.429000  0.452400  1.0
  B  B319  1  0.590500  0.071000  0.547600  1.0
  B  B320  1  0.909500  0.929000  0.047600  1.0
  B  B321  1  0.395200  0.538600  0.040100  1.0
  B  B322  1  0.104800  0.461400  0.540100  1.0
  B  B323  1  0.604800  0.038600  0.459900  1.0
  B  B324  1  0.895200  0.961400  0.959900  1.0
  B  B325  1  0.604800  0.461400  0.959900  1.0
  B  B326  1  0.895200  0.538600  0.459900  1.0
  B  B327  1  0.395200  0.961400  0.540100  1.0
  B  B328  1  0.104800  0.038600  0.040100  1.0
  B  B329  1  0.419100  0.466900  0.067200  1.0
  B  B330  1  0.080900  0.533100  0.567200  1.0
  B  B331  1  0.580900  0.966900  0.432800  1.0
  B  B332  1  0.919100  0.033100  0.932800  1.0
  B  B333  1  0.580900  0.533100  0.932800  1.0
  B  B334  1  0.919100  0.466900  0.432800  1.0
  B  B335  1  0.419100  0.033100  0.567200  1.0
  B  B336  1  0.080900  0.966900  0.067200  1.0
  B  B337  1  0.434100  0.584200  0.151000  1.0
  B  B338  1  0.065900  0.415800  0.651000  1.0
  B  B339  1  0.565900  0.084200  0.349000  1.0
  B  B340  1  0.934100  0.915800  0.849000  1.0
  B  B341  1  0.565900  0.415800  0.849000  1.0
  B  B342  1  0.934100  0.584200  0.349000  1.0
  B  B343  1  0.434100  0.915800  0.651000  1.0
  B  B344  1  0.065900  0.084200  0.151000  1.0
  B  B345  1  0.457800  0.493700  0.142500  1.0
  B  B346  1  0.042200  0.506300  0.642500  1.0
  B  B347  1  0.542200  0.993700  0.357500  1.0
  B  B348  1  0.957800  0.006300  0.857500  1.0
  B  B349  1  0.542200  0.506300  0.857500  1.0
  B  B350  1  0.957800  0.493700  0.357500  1.0
  B  B351  1  0.457800  0.006300  0.642500  1.0
  B  B352  1  0.042200  0.993700  0.142500  1.0
  B  B353  1  0.582000  0.526700  0.234800  1.0
  B  B354  1  0.918000  0.473300  0.734800  1.0
  B  B355  1  0.418000  0.026700  0.265200  1.0
  B  B356  1  0.082000  0.973300  0.765200  1.0
  B  B357  1  0.418000  0.473300  0.765200  1.0
  B  B358  1  0.082000  0.526700  0.265200  1.0
  B  B359  1  0.582000  0.973300  0.734800  1.0
  B  B360  1  0.918000  0.026700  0.234800  1.0
  B  B361  1  0.564800  0.450400  0.202400  1.0
  B  B362  1  0.935200  0.549600  0.702400  1.0
  B  B363  1  0.435200  0.950400  0.297600  1.0
  B  B364  1  0.064800  0.049600  0.797600  1.0
  B  B365  1  0.435200  0.549600  0.797600  1.0
  B  B366  1  0.064800  0.450400  0.297600  1.0
  B  B367  1  0.564800  0.049600  0.702400  1.0
  B  B368  1  0.935200  0.950400  0.202400  1.0
  B  B369  1  0.738800  0.352700  0.248300  1.0
  B  B370  1  0.761200  0.647300  0.748300  1.0
  B  B371  1  0.261200  0.852700  0.251700  1.0
  B  B372  1  0.238800  0.147300  0.751700  1.0
  B  B373  1  0.261200  0.647300  0.751700  1.0
  B  B374  1  0.238800  0.352700  0.251700  1.0
  B  B375  1  0.738800  0.147300  0.748300  1.0
  B  B376  1  0.761200  0.852700  0.248300  1.0
  B  B377  1  0.678400  0.322800  0.216500  1.0
  B  B378  1  0.821600  0.677200  0.716500  1.0
  B  B379  1  0.321600  0.822800  0.283500  1.0
  B  B380  1  0.178400  0.177200  0.783500  1.0
  B  B381  1  0.321600  0.677200  0.783500  1.0
  B  B382  1  0.178400  0.322800  0.283500  1.0
  B  B383  1  0.678400  0.177200  0.716500  1.0
  B  B384  1  0.821600  0.822800  0.216500  1.0
  B  B385  1  0.563400  0.251600  0.311100  1.0
  B  B386  1  0.936600  0.748400  0.811100  1.0
  B  B387  1  0.436600  0.751600  0.188900  1.0
  B  B388  1  0.063400  0.248400  0.688900  1.0
  B  B389  1  0.436600  0.748400  0.688900  1.0
  B  B390  1  0.063400  0.251600  0.188900  1.0
  B  B391  1  0.563400  0.248400  0.811100  1.0
  B  B392  1  0.936600  0.751600  0.311100  1.0
  B  B393  1  0.543200  0.248400  0.253500  1.0
  B  B394  1  0.956800  0.751600  0.753500  1.0
  B  B395  1  0.456800  0.748400  0.246500  1.0
  B  B396  1  0.043200  0.251600  0.746500  1.0
  B  B397  1  0.456800  0.751600  0.746500  1.0
  B  B398  1  0.043200  0.248400  0.246500  1.0
  B  B399  1  0.543200  0.251600  0.753500  1.0
  B  B400  1  0.956800  0.748400  0.253500  1.0
  B  B401  1  0.615600  0.045600  0.266500  1.0
  B  B402  1  0.884400  0.954400  0.766500  1.0
  B  B403  1  0.384400  0.545600  0.233500  1.0
  B  B404  1  0.115600  0.454400  0.733500  1.0
  B  B405  1  0.384400  0.954400  0.733500  1.0
  B  B406  1  0.115600  0.045600  0.233500  1.0
  B  B407  1  0.615600  0.454400  0.766500  1.0
  B  B408  1  0.884400  0.545600  0.266500  1.0
  B  B409  1  0.591100  0.102000  0.226700  1.0
  B  B410  1  0.908900  0.898000  0.726700  1.0
  B  B411  1  0.408900  0.602000  0.273300  1.0
  B  B412  1  0.091100  0.398000  0.773300  1.0
  B  B413  1  0.408900  0.898000  0.773300  1.0
  B  B414  1  0.091100  0.102000  0.273300  1.0
  B  B415  1  0.591100  0.398000  0.726700  1.0
  B  B416  1  0.908900  0.602000  0.226700  1.0
  B  B417  1  0.805600  0.137000  0.222600  1.0
  B  B418  1  0.694400  0.863000  0.722600  1.0
  B  B419  1  0.194400  0.637000  0.277400  1.0
  B  B420  1  0.305600  0.363000  0.777400  1.0
  B  B421  1  0.194400  0.863000  0.777400  1.0
  B  B422  1  0.305600  0.137000  0.277400  1.0
  B  B423  1  0.805600  0.363000  0.722600  1.0
  B  B424  1  0.694400  0.637000  0.222600  1.0
  B  B425  1  0.720100  0.166400  0.193800  1.0
  B  B426  1  0.779900  0.833600  0.693800  1.0
  B  B427  1  0.279900  0.666400  0.306200  1.0
  B  B428  1  0.220100  0.333600  0.806200  1.0
  B  B429  1  0.279900  0.833600  0.806200  1.0
  B  B430  1  0.220100  0.166400  0.306200  1.0
  B  B431  1  0.720100  0.333600  0.693800  1.0
  B  B432  1  0.779900  0.666400  0.193800  1.0
  B  B433  1  0.862900  0.205300  0.109900  1.0
  B  B434  1  0.637100  0.794700  0.609900  1.0
  B  B435  1  0.137100  0.705300  0.390100  1.0
  B  B436  1  0.362900  0.294700  0.890100  1.0
  B  B437  1  0.137100  0.794700  0.890100  1.0
  B  B438  1  0.362900  0.205300  0.390100  1.0
  B  B439  1  0.862900  0.294700  0.609900  1.0
  B  B440  1  0.637100  0.705300  0.109900  1.0
  B  B441  1  0.758100  0.213900  0.111000  1.0
  B  B442  1  0.741900  0.786100  0.611000  1.0
  B  B443  1  0.241900  0.713900  0.389000  1.0
  B  B444  1  0.258100  0.286100  0.889000  1.0
  B  B445  1  0.241900  0.786100  0.889000  1.0
  B  B446  1  0.258100  0.213900  0.389000  1.0
  B  B447  1  0.758100  0.286100  0.611000  1.0
  B  B448  1  0.741900  0.713900  0.111000  1.0
  B  B449  1  0.819800  0.420500  0.140900  1.0
  B  B450  1  0.680200  0.579500  0.640900  1.0
  B  B451  1  0.180200  0.920500  0.359100  1.0
  B  B452  1  0.319800  0.079500  0.859100  1.0
  B  B453  1  0.180200  0.579500  0.859100  1.0
  B  B454  1  0.319800  0.420500  0.359100  1.0
  B  B455  1  0.819800  0.079500  0.640900  1.0
  B  B456  1  0.680200  0.920500  0.140900  1.0
  B  B457  1  0.736800  0.356200  0.138400  1.0
  B  B458  1  0.763200  0.643800  0.638400  1.0
  B  B459  1  0.263200  0.856200  0.361600  1.0
  B  B460  1  0.236800  0.143800  0.861600  1.0
  B  B461  1  0.263200  0.643800  0.861600  1.0
  B  B462  1  0.236800  0.356200  0.361600  1.0
  B  B463  1  0.736800  0.143800  0.638400  1.0
  B  B464  1  0.763200  0.856200  0.138400  1.0
  B  B465  1  0.654900  0.574300  0.126000  1.0
  B  B466  1  0.845100  0.425700  0.626000  1.0
  B  B467  1  0.345100  0.074300  0.374000  1.0
  B  B468  1  0.154900  0.925700  0.874000  1.0
  B  B469  1  0.345100  0.425700  0.874000  1.0
  B  B470  1  0.154900  0.574300  0.374000  1.0
  B  B471  1  0.654900  0.925700  0.626000  1.0
  B  B472  1  0.845100  0.074300  0.126000  1.0
  B  B473  1  0.615100  0.482600  0.123500  1.0
  B  B474  1  0.884900  0.517400  0.623500  1.0
  B  B475  1  0.384900  0.982600  0.376500  1.0
  B  B476  1  0.115100  0.017400  0.876500  1.0
  B  B477  1  0.384900  0.517400  0.876500  1.0
  B  B478  1  0.115100  0.482600  0.376500  1.0
  B  B479  1  0.615100  0.017400  0.623500  1.0
  B  B480  1  0.884900  0.982600  0.123500  1.0
  Pd  Pd481  1  0.303440  0.145060  0.015470  1.0
  Pd  Pd482  1  0.196560  0.854940  0.515470  1.0
  Pd  Pd483  1  0.696560  0.645060  0.484530  1.0
  Pd  Pd484  1  0.803440  0.354940  0.984530  1.0
  Pd  Pd485  1  0.696560  0.854940  0.984530  1.0
  Pd  Pd486  1  0.803440  0.145060  0.484530  1.0
  Pd  Pd487  1  0.303440  0.354940  0.515470  1.0
  Pd  Pd488  1  0.196560  0.645060  0.015470  1.0
  Pd  Pd489  1  0.201760  0.207300  0.098000  1.0
  Pd  Pd490  1  0.298240  0.792700  0.598000  1.0
  Pd  Pd491  1  0.798240  0.707300  0.402000  1.0
  Pd  Pd492  1  0.701760  0.292700  0.902000  1.0
  Pd  Pd493  1  0.798240  0.792700  0.902000  1.0
  Pd  Pd494  1  0.701760  0.207300  0.402000  1.0
  Pd  Pd495  1  0.201760  0.292700  0.598000  1.0
  Pd  Pd496  1  0.298240  0.707300  0.098000  1.0
  Pd  Pd497  1  0.228950  0.239770  0.197440  1.0
  Pd  Pd498  1  0.271050  0.760230  0.697440  1.0
  Pd  Pd499  1  0.771050  0.739770  0.302560  1.0
  Pd  Pd500  1  0.728950  0.260230  0.802560  1.0
  Pd  Pd501  1  0.771050  0.760230  0.802560  1.0
  Pd  Pd502  1  0.728950  0.239770  0.302560  1.0
  Pd  Pd503  1  0.228950  0.260230  0.697440  1.0
  Pd  Pd504  1  0.271050  0.739770  0.197440  1.0
  Pd  Pd505  1  0.265310  0.060760  0.157540  1.0
  Pd  Pd506  1  0.234690  0.939240  0.657540  1.0
  Pd  Pd507  1  0.734690  0.560760  0.342460  1.0
  Pd  Pd508  1  0.765310  0.439240  0.842460  1.0
  Pd  Pd509  1  0.734690  0.939240  0.842460  1.0
  Pd  Pd510  1  0.765310  0.060760  0.342460  1.0
  Pd  Pd511  1  0.265310  0.439240  0.657540  1.0
  Pd  Pd512  1  0.234690  0.560760  0.157540  1.0
  Pd  Pd513  1  0.352410  0.987980  0.073980  1.0
  Pd  Pd514  1  0.147590  0.012020  0.573980  1.0
  Pd  Pd515  1  0.647590  0.487980  0.426020  1.0
  Pd  Pd516  1  0.852410  0.512020  0.926020  1.0
  Pd  Pd517  1  0.647590  0.012020  0.926020  1.0
  Pd  Pd518  1  0.852410  0.987980  0.426020  1.0
  Pd  Pd519  1  0.352410  0.512020  0.573980  1.0
  Pd  Pd520  1  0.147590  0.487980  0.073980  1.0
  Pd  Pd521  1  0.542570  0.977890  0.044850  1.0
  Pd  Pd522  1  0.957430  0.022110  0.544850  1.0
  Pd  Pd523  1  0.457430  0.477890  0.455150  1.0
  Pd  Pd524  1  0.042570  0.522110  0.955150  1.0
  Pd  Pd525  1  0.457430  0.022110  0.955150  1.0
  Pd  Pd526  1  0.042570  0.977890  0.455150  1.0
  Pd  Pd527  1  0.542570  0.522110  0.544850  1.0
  Pd  Pd528  1  0.957430  0.477890  0.044850  1.0
  Pd  Pd529  1  0.489820  0.120980  0.979560  1.0
  Pd  Pd530  1  0.010180  0.879020  0.479560  1.0
  Pd  Pd531  1  0.510180  0.620980  0.520440  1.0
  Pd  Pd532  1  0.989820  0.379020  0.020440  1.0
  Pd  Pd533  1  0.510180  0.879020  0.020440  1.0
  Pd  Pd534  1  0.989820  0.120980  0.520440  1.0
  Pd  Pd535  1  0.489820  0.379020  0.479560  1.0
  Pd  Pd536  1  0.010180  0.620980  0.979560  1.0
  Pd  Pd537  1  0.526770  0.314660  0.974170  1.0
  Pd  Pd538  1  0.973230  0.685340  0.474170  1.0
  Pd  Pd539  1  0.473230  0.814660  0.525830  1.0
  Pd  Pd540  1  0.026770  0.185340  0.025830  1.0
  Pd  Pd541  1  0.473230  0.685340  0.025830  1.0
  Pd  Pd542  1  0.026770  0.314660  0.525830  1.0
  Pd  Pd543  1  0.526770  0.185340  0.474170  1.0
  Pd  Pd544  1  0.973230  0.814660  0.974170  1.0
  Pd  Pd545  1  0.336260  0.340660  0.002890  1.0
  Pd  Pd546  1  0.163740  0.659340  0.502890  1.0
  Pd  Pd547  1  0.663740  0.840660  0.497110  1.0
  Pd  Pd548  1  0.836260  0.159340  0.997110  1.0
  Pd  Pd549  1  0.663740  0.659340  0.997110  1.0
  Pd  Pd550  1  0.836260  0.340660  0.497110  1.0
  Pd  Pd551  1  0.336260  0.159340  0.502890  1.0
  Pd  Pd552  1  0.163740  0.840660  0.002890  1.0
  Pd  Pd553  1  0.248190  0.400300  0.088450  1.0
  Pd  Pd554  1  0.251810  0.599700  0.588450  1.0
  Pd  Pd555  1  0.751810  0.900300  0.411550  1.0
  Pd  Pd556  1  0.748190  0.099700  0.911550  1.0
  Pd  Pd557  1  0.751810  0.599700  0.911550  1.0
  Pd  Pd558  1  0.748190  0.400300  0.411550  1.0
  Pd  Pd559  1  0.248190  0.099700  0.588450  1.0
  Pd  Pd560  1  0.251810  0.900300  0.088450  1.0
  Pd  Pd561  1  0.295250  0.428790  0.186930  1.0
  Pd  Pd562  1  0.204750  0.571210  0.686930  1.0
  Pd  Pd563  1  0.704750  0.928790  0.313070  1.0
  Pd  Pd564  1  0.795250  0.071210  0.813070  1.0
  Pd  Pd565  1  0.704750  0.571210  0.813070  1.0
  Pd  Pd566  1  0.795250  0.428790  0.313070  1.0
  Pd  Pd567  1  0.295250  0.071210  0.686930  1.0
  Pd  Pd568  1  0.204750  0.928790  0.186930  1.0
  Pd  Pd569  1  0.421750  0.390100  0.263710  1.0
  Pd  Pd570  1  0.078250  0.609900  0.763710  1.0
  Pd  Pd571  1  0.578250  0.890100  0.236290  1.0
  Pd  Pd572  1  0.921750  0.109900  0.736290  1.0
  Pd  Pd573  1  0.578250  0.609900  0.736290  1.0
  Pd  Pd574  1  0.921750  0.390100  0.236290  1.0
  Pd  Pd575  1  0.421750  0.109900  0.763710  1.0
  Pd  Pd576  1  0.078250  0.890100  0.263710  1.0
  Pd  Pd577  1  0.367510  0.199340  0.267460  1.0
  Pd  Pd578  1  0.132490  0.800660  0.767460  1.0
  Pd  Pd579  1  0.632490  0.699340  0.232540  1.0
  Pd  Pd580  1  0.867510  0.300660  0.732540  1.0
  Pd  Pd581  1  0.632490  0.800660  0.732540  1.0
  Pd  Pd582  1  0.867510  0.199340  0.232540  1.0
  Pd  Pd583  1  0.367510  0.300660  0.767460  1.0
  Pd  Pd584  1  0.132490  0.699340  0.267460  1.0
  Pd  Pd585  1  0.417170  0.025620  0.222470  1.0
  Pd  Pd586  1  0.082830  0.974380  0.722470  1.0
  Pd  Pd587  1  0.582830  0.525620  0.277530  1.0
  Pd  Pd588  1  0.917170  0.474380  0.777530  1.0
  Pd  Pd589  1  0.582830  0.974380  0.777530  1.0
  Pd  Pd590  1  0.917170  0.025620  0.277530  1.0
  Pd  Pd591  1  0.417170  0.474380  0.722470  1.0
  Pd  Pd592  1  0.082830  0.525620  0.222470  1.0
  Pd  Pd593  1  0.492760  0.934020  0.140000  1.0
  Pd  Pd594  1  0.007240  0.065980  0.640000  1.0
  Pd  Pd595  1  0.507240  0.434020  0.360000  1.0
  Pd  Pd596  1  0.992760  0.565980  0.860000  1.0
  Pd  Pd597  1  0.507240  0.065980  0.860000  1.0
  Pd  Pd598  1  0.992760  0.934020  0.360000  1.0
  Pd  Pd599  1  0.492760  0.565980  0.640000  1.0
  Pd  Pd600  1  0.007240  0.434020  0.140000  1.0
  Pd  Pd601  1  0.678210  0.994910  0.163150  1.0
  Pd  Pd602  1  0.821790  0.005090  0.663150  1.0
  Pd  Pd603  1  0.321790  0.494910  0.336850  1.0
  Pd  Pd604  1  0.178210  0.505090  0.836850  1.0
  Pd  Pd605  1  0.321790  0.005090  0.836850  1.0
  Pd  Pd606  1  0.178210  0.994910  0.336850  1.0
  Pd  Pd607  1  0.678210  0.505090  0.663150  1.0
  Pd  Pd608  1  0.821790  0.494910  0.163150  1.0
  Pd  Pd609  1  0.723380  0.053650  0.068090  1.0
  Pd  Pd610  1  0.776620  0.946350  0.568090  1.0
  Pd  Pd611  1  0.276620  0.553650  0.431910  1.0
  Pd  Pd612  1  0.223380  0.446350  0.931910  1.0
  Pd  Pd613  1  0.276620  0.946350  0.931910  1.0
  Pd  Pd614  1  0.223380  0.053650  0.431910  1.0
  Pd  Pd615  1  0.723380  0.446350  0.568090  1.0
  Pd  Pd616  1  0.776620  0.553650  0.068090  1.0
  Pd  Pd617  1  0.674850  0.187430  0.995650  1.0
  Pd  Pd618  1  0.825150  0.812570  0.495650  1.0
  Pd  Pd619  1  0.325150  0.687430  0.504350  1.0
  Pd  Pd620  1  0.174850  0.312570  0.004350  1.0
  Pd  Pd621  1  0.325150  0.812570  0.004350  1.0
  Pd  Pd622  1  0.174850  0.187430  0.504350  1.0
  Pd  Pd623  1  0.674850  0.312570  0.495650  1.0
  Pd  Pd624  1  0.825150  0.687430  0.995650  1.0
  Pd  Pd625  1  0.757260  0.341300  0.043880  1.0
  Pd  Pd626  1  0.742740  0.658700  0.543880  1.0
  Pd  Pd627  1  0.242740  0.841300  0.456120  1.0
  Pd  Pd628  1  0.257260  0.158700  0.956120  1.0
  Pd  Pd629  1  0.242740  0.658700  0.956120  1.0
  Pd  Pd630  1  0.257260  0.341300  0.456120  1.0
  Pd  Pd631  1  0.757260  0.158700  0.543880  1.0
  Pd  Pd632  1  0.742740  0.841300  0.043880  1.0
  Pd  Pd633  1  0.600330  0.463840  0.031470  1.0
  Pd  Pd634  1  0.899670  0.536160  0.531470  1.0
  Pd  Pd635  1  0.399670  0.963840  0.468530  1.0
  Pd  Pd636  1  0.100330  0.036160  0.968530  1.0
  Pd  Pd637  1  0.399670  0.536160  0.968530  1.0
  Pd  Pd638  1  0.100330  0.463840  0.468530  1.0
  Pd  Pd639  1  0.600330  0.036160  0.531470  1.0
  Pd  Pd640  1  0.899670  0.963840  0.031470  1.0
  Pd  Pd641  1  0.407040  0.497820  0.054370  1.0
  Pd  Pd642  1  0.092960  0.502180  0.554370  1.0
  Pd  Pd643  1  0.592960  0.997820  0.445630  1.0
  Pd  Pd644  1  0.907040  0.002180  0.945630  1.0
  Pd  Pd645  1  0.592960  0.502180  0.945630  1.0
  Pd  Pd646  1  0.907040  0.497820  0.445630  1.0
  Pd  Pd647  1  0.407040  0.002180  0.554370  1.0
  Pd  Pd648  1  0.092960  0.997820  0.054370  1.0
  Pd  Pd649  1  0.442690  0.546020  0.150760  1.0
  Pd  Pd650  1  0.057310  0.453980  0.650760  1.0
  Pd  Pd651  1  0.557310  0.046020  0.349240  1.0
  Pd  Pd652  1  0.942690  0.953980  0.849240  1.0
  Pd  Pd653  1  0.557310  0.453980  0.849240  1.0
  Pd  Pd654  1  0.942690  0.546020  0.349240  1.0
  Pd  Pd655  1  0.442690  0.953980  0.650760  1.0
  Pd  Pd656  1  0.057310  0.046020  0.150760  1.0
  Pd  Pd657  1  0.574680  0.484570  0.219450  1.0
  Pd  Pd658  1  0.925320  0.515430  0.719450  1.0
  Pd  Pd659  1  0.425320  0.984570  0.280550  1.0
  Pd  Pd660  1  0.074680  0.015430  0.780550  1.0
  Pd  Pd661  1  0.425320  0.515430  0.780550  1.0
  Pd  Pd662  1  0.074680  0.484570  0.280550  1.0
  Pd  Pd663  1  0.574680  0.015430  0.719450  1.0
  Pd  Pd664  1  0.925320  0.984570  0.219450  1.0
  Pd  Pd665  1  0.707910  0.336610  0.233720  1.0
  Pd  Pd666  1  0.792090  0.663390  0.733720  1.0
  Pd  Pd667  1  0.292090  0.836610  0.266280  1.0
  Pd  Pd668  1  0.207910  0.163390  0.766280  1.0
  Pd  Pd669  1  0.292090  0.663390  0.766280  1.0
  Pd  Pd670  1  0.207910  0.336610  0.266280  1.0
  Pd  Pd671  1  0.707910  0.163390  0.733720  1.0
  Pd  Pd672  1  0.792090  0.836610  0.233720  1.0
  Pd  Pd673  1  0.556360  0.250120  0.284640  1.0
  Pd  Pd674  1  0.943640  0.749880  0.784640  1.0
  Pd  Pd675  1  0.443640  0.750120  0.215360  1.0
  Pd  Pd676  1  0.056360  0.249880  0.715360  1.0
  Pd  Pd677  1  0.443640  0.749880  0.715360  1.0
  Pd  Pd678  1  0.056360  0.250120  0.215360  1.0
  Pd  Pd679  1  0.556360  0.249880  0.784640  1.0
  Pd  Pd680  1  0.943640  0.750120  0.284640  1.0
  Pd  Pd681  1  0.606170  0.069230  0.249230  1.0
  Pd  Pd682  1  0.893830  0.930770  0.749230  1.0
  Pd  Pd683  1  0.393830  0.569230  0.250770  1.0
  Pd  Pd684  1  0.106170  0.430770  0.750770  1.0
  Pd  Pd685  1  0.393830  0.930770  0.750770  1.0
  Pd  Pd686  1  0.106170  0.069230  0.250770  1.0
  Pd  Pd687  1  0.606170  0.430770  0.749230  1.0
  Pd  Pd688  1  0.893830  0.569230  0.249230  1.0
  Pd  Pd689  1  0.764530  0.153120  0.205490  1.0
  Pd  Pd690  1  0.735470  0.846880  0.705490  1.0
  Pd  Pd691  1  0.235470  0.653120  0.294510  1.0
  Pd  Pd692  1  0.264530  0.346880  0.794510  1.0
  Pd  Pd693  1  0.235470  0.846880  0.794510  1.0
  Pd  Pd694  1  0.264530  0.153120  0.294510  1.0
  Pd  Pd695  1  0.764530  0.346880  0.705490  1.0
  Pd  Pd696  1  0.735470  0.653120  0.205490  1.0
  Pd  Pd697  1  0.818920  0.207720  0.111580  1.0
  Pd  Pd698  1  0.681080  0.792280  0.611580  1.0
  Pd  Pd699  1  0.181080  0.707720  0.388420  1.0
  Pd  Pd700  1  0.318920  0.292280  0.888420  1.0
  Pd  Pd701  1  0.181080  0.792280  0.888420  1.0
  Pd  Pd702  1  0.318920  0.207720  0.388420  1.0
  Pd  Pd703  1  0.818920  0.292280  0.611580  1.0
  Pd  Pd704  1  0.681080  0.707720  0.111580  1.0
  Pd  Pd705  1  0.774890  0.392680  0.141260  1.0
  Pd  Pd706  1  0.725110  0.607320  0.641260  1.0
  Pd  Pd707  1  0.225110  0.892680  0.358740  1.0
  Pd  Pd708  1  0.274890  0.107320  0.858740  1.0
  Pd  Pd709  1  0.225110  0.607320  0.858740  1.0
  Pd  Pd710  1  0.274890  0.392680  0.358740  1.0
  Pd  Pd711  1  0.774890  0.107320  0.641260  1.0
  Pd  Pd712  1  0.725110  0.892680  0.141260  1.0
  Pd  Pd713  1  0.634790  0.531100  0.125970  1.0
  Pd  Pd714  1  0.865210  0.468900  0.625970  1.0
  Pd  Pd715  1  0.365210  0.031100  0.374030  1.0
  Pd  Pd716  1  0.134790  0.968900  0.874030  1.0
  Pd  Pd717  1  0.365210  0.468900  0.874030  1.0
  Pd  Pd718  1  0.134790  0.531100  0.374030  1.0
  Pd  Pd719  1  0.634790  0.968900  0.625970  1.0
  Pd  Pd720  1  0.865210  0.031100  0.125970  1.0
  C  C721  1  0.433400  0.115000  0.975000  1.0
  C  C722  1  0.066600  0.885000  0.475000  1.0
  C  C723  1  0.566600  0.615000  0.525000  1.0
  C  C724  1  0.933400  0.385000  0.025000  1.0
  C  C725  1  0.566600  0.885000  0.025000  1.0
  C  C726  1  0.933400  0.115000  0.525000  1.0
  C  C727  1  0.433400  0.385000  0.475000  1.0
  C  C728  1  0.066600  0.615000  0.975000  1.0
  C  C729  1  0.452400  0.114500  0.974200  1.0
  C  C730  1  0.047600  0.885500  0.474200  1.0
  C  C731  1  0.547600  0.614500  0.525800  1.0
  C  C732  1  0.952400  0.385500  0.025800  1.0
  C  C733  1  0.547600  0.885500  0.025800  1.0
  C  C734  1  0.952400  0.114500  0.525800  1.0
  C  C735  1  0.452400  0.385500  0.474200  1.0
  C  C736  1  0.047600  0.614500  0.974200  1.0
  C  C737  1  0.455300  0.123100  0.989900  1.0
  C  C738  1  0.044700  0.876900  0.489900  1.0
  C  C739  1  0.544700  0.623100  0.510100  1.0
  C  C740  1  0.955300  0.376900  0.010100  1.0
  C  C741  1  0.544700  0.876900  0.010100  1.0
  C  C742  1  0.955300  0.123100  0.510100  1.0
  C  C743  1  0.455300  0.376900  0.489900  1.0
  C  C744  1  0.044700  0.623100  0.989900  1.0
  C  C745  1  0.436300  0.123900  0.991000  1.0
  C  C746  1  0.063700  0.876100  0.491000  1.0
  C  C747  1  0.563700  0.623900  0.509000  1.0
  C  C748  1  0.936300  0.376100  0.009000  1.0
  C  C749  1  0.563700  0.876100  0.009000  1.0
  C  C750  1  0.936300  0.123900  0.509000  1.0
  C  C751  1  0.436300  0.376100  0.491000  1.0
  C  C752  1  0.063700  0.623900  0.991000  1.0
  C  C753  1  0.424700  0.119800  0.983500  1.0
  C  C754  1  0.075300  0.880200  0.483500  1.0
  C  C755  1  0.575300  0.619800  0.516500  1.0
  C  C756  1  0.924700  0.380200  0.016500  1.0
  C  C757  1  0.575300  0.880200  0.016500  1.0
  C  C758  1  0.924700  0.119800  0.516500  1.0
  C  C759  1  0.424700  0.380200  0.483500  1.0
  C  C760  1  0.075300  0.619800  0.983500  1.0
  C  C761  1  0.404200  0.119300  0.985000  1.0
  C  C762  1  0.095800  0.880700  0.485000  1.0
  C  C763  1  0.595800  0.619300  0.515000  1.0
  C  C764  1  0.904200  0.380700  0.015000  1.0
  C  C765  1  0.595800  0.880700  0.015000  1.0
  C  C766  1  0.904200  0.119300  0.515000  1.0
  C  C767  1  0.404200  0.380700  0.485000  1.0
  C  C768  1  0.095800  0.619300  0.985000  1.0
  C  C769  1  0.390400  0.113300  0.979100  1.0
  C  C770  1  0.109600  0.886700  0.479100  1.0
  C  C771  1  0.609600  0.613300  0.520900  1.0
  C  C772  1  0.890400  0.386700  0.020900  1.0
  C  C773  1  0.609600  0.886700  0.020900  1.0
  C  C774  1  0.890400  0.113300  0.520900  1.0
  C  C775  1  0.390400  0.386700  0.479100  1.0
  C  C776  1  0.109600  0.613300  0.979100  1.0
  C  C777  1  0.394400  0.085900  0.970300  1.0
  C  C778  1  0.105600  0.914100  0.470300  1.0
  C  C779  1  0.605600  0.585900  0.529700  1.0
  C  C780  1  0.894400  0.414100  0.029700  1.0
  C  C781  1  0.605600  0.914100  0.029700  1.0
  C  C782  1  0.894400  0.085900  0.529700  1.0
  C  C783  1  0.394400  0.414100  0.470300  1.0
  C  C784  1  0.105600  0.585900  0.970300  1.0
  C  C785  1  0.351000  0.119800  0.970400  1.0
  C  C786  1  0.149000  0.880200  0.470400  1.0
  C  C787  1  0.649000  0.619800  0.529600  1.0
  C  C788  1  0.851000  0.380200  0.029600  1.0
  C  C789  1  0.649000  0.880200  0.029600  1.0
  C  C790  1  0.851000  0.119800  0.529600  1.0
  C  C791  1  0.351000  0.380200  0.470400  1.0
  C  C792  1  0.149000  0.619800  0.970400  1.0
  C  C793  1  0.372600  0.115400  0.982700  1.0
  C  C794  1  0.127400  0.884600  0.482700  1.0
  C  C795  1  0.627400  0.615400  0.517300  1.0
  C  C796  1  0.872600  0.384600  0.017300  1.0
  C  C797  1  0.627400  0.884600  0.017300  1.0
  C  C798  1  0.872600  0.115400  0.517300  1.0
  C  C799  1  0.372600  0.384600  0.482700  1.0
  C  C800  1  0.127400  0.615400  0.982700  1.0
  C  C801  1  0.371800  0.123700  0.991300  1.0
  C  C802  1  0.128200  0.876300  0.491300  1.0
  C  C803  1  0.628200  0.623700  0.508700  1.0
  C  C804  1  0.871800  0.376300  0.008700  1.0
  C  C805  1  0.628200  0.876300  0.008700  1.0
  C  C806  1  0.871800  0.123700  0.508700  1.0
  C  C807  1  0.371800  0.376300  0.491300  1.0
  C  C808  1  0.128200  0.623700  0.991300  1.0
  C  C809  1  0.354800  0.129700  0.996600  1.0
  C  C810  1  0.145200  0.870300  0.496600  1.0
  C  C811  1  0.645200  0.629700  0.503400  1.0
  C  C812  1  0.854800  0.370300  0.003400  1.0
  C  C813  1  0.645200  0.870300  0.003400  1.0
  C  C814  1  0.854800  0.129700  0.503400  1.0
  C  C815  1  0.354800  0.370300  0.496600  1.0
  C  C816  1  0.145200  0.629700  0.996600  1.0
  C  C817  1  0.356300  0.136400  0.005800  1.0
  C  C818  1  0.143700  0.863600  0.505800  1.0
  C  C819  1  0.643700  0.636400  0.494200  1.0
  C  C820  1  0.856300  0.363600  0.994200  1.0
  C  C821  1  0.643700  0.863600  0.994200  1.0
  C  C822  1  0.856300  0.136400  0.494200  1.0
  C  C823  1  0.356300  0.363600  0.505800  1.0
  C  C824  1  0.143700  0.636400  0.005800  1.0
  C  C825  1  0.340500  0.140200  0.011000  1.0
  C  C826  1  0.159500  0.859800  0.511000  1.0
  C  C827  1  0.659500  0.640200  0.489000  1.0
  C  C828  1  0.840500  0.359800  0.989000  1.0
  C  C829  1  0.659500  0.859800  0.989000  1.0
  C  C830  1  0.840500  0.140200  0.489000  1.0
  C  C831  1  0.340500  0.359800  0.511000  1.0
  C  C832  1  0.159500  0.640200  0.011000  1.0
  C  C833  1  0.321500  0.131100  0.998800  1.0
  C  C834  1  0.178500  0.868900  0.498800  1.0
  C  C835  1  0.678500  0.631100  0.501200  1.0
  C  C836  1  0.821500  0.368900  0.001200  1.0
  C  C837  1  0.678500  0.868900  0.001200  1.0
  C  C838  1  0.821500  0.131100  0.501200  1.0
  C  C839  1  0.321500  0.368900  0.498800  1.0
  C  C840  1  0.178500  0.631100  0.998800  1.0
  C  C841  1  0.336800  0.127100  0.993200  1.0
  C  C842  1  0.163200  0.872900  0.493200  1.0
  C  C843  1  0.663200  0.627100  0.506800  1.0
  C  C844  1  0.836800  0.372900  0.006800  1.0
  C  C845  1  0.663200  0.872900  0.006800  1.0
  C  C846  1  0.836800  0.127100  0.506800  1.0
  C  C847  1  0.336800  0.372900  0.493200  1.0
  C  C848  1  0.163200  0.627100  0.993200  1.0
  C  C849  1  0.200000  0.188600  0.070700  1.0
  C  C850  1  0.300000  0.811400  0.570700  1.0
  C  C851  1  0.800000  0.688600  0.429300  1.0
  C  C852  1  0.700000  0.311400  0.929300  1.0
  C  C853  1  0.800000  0.811400  0.929300  1.0
  C  C854  1  0.700000  0.188600  0.429300  1.0
  C  C855  1  0.200000  0.311400  0.570700  1.0
  C  C856  1  0.300000  0.688600  0.070700  1.0
  C  C857  1  0.195700  0.195700  0.079500  1.0
  C  C858  1  0.304300  0.804300  0.579500  1.0
  C  C859  1  0.804300  0.695700  0.420500  1.0
  C  C860  1  0.695700  0.304300  0.920500  1.0
  C  C861  1  0.804300  0.804300  0.920500  1.0
  C  C862  1  0.695700  0.195700  0.420500  1.0
  C  C863  1  0.195700  0.304300  0.579500  1.0
  C  C864  1  0.304300  0.695700  0.079500  1.0
  C  C865  1  0.226700  0.199200  0.082600  1.0
  C  C866  1  0.273300  0.800800  0.582600  1.0
  C  C867  1  0.773300  0.699200  0.417400  1.0
  C  C868  1  0.726700  0.300800  0.917400  1.0
  C  C869  1  0.773300  0.800800  0.917400  1.0
  C  C870  1  0.726700  0.199200  0.417400  1.0
  C  C871  1  0.226700  0.300800  0.582600  1.0
  C  C872  1  0.273300  0.699200  0.082600  1.0
  C  C873  1  0.231800  0.192300  0.073900  1.0
  C  C874  1  0.268200  0.807700  0.573900  1.0
  C  C875  1  0.768200  0.692300  0.426100  1.0
  C  C876  1  0.731800  0.307700  0.926100  1.0
  C  C877  1  0.768200  0.807700  0.926100  1.0
  C  C878  1  0.731800  0.192300  0.426100  1.0
  C  C879  1  0.231800  0.307700  0.573900  1.0
  C  C880  1  0.268200  0.692300  0.073900  1.0
  C  C881  1  0.218200  0.186700  0.067600  1.0
  C  C882  1  0.281800  0.813300  0.567600  1.0
  C  C883  1  0.781800  0.686700  0.432400  1.0
  C  C884  1  0.718200  0.313300  0.932400  1.0
  C  C885  1  0.781800  0.813300  0.932400  1.0
  C  C886  1  0.718200  0.186700  0.432400  1.0
  C  C887  1  0.218200  0.313300  0.567600  1.0
  C  C888  1  0.281800  0.686700  0.067600  1.0
  C  C889  1  0.223800  0.179700  0.058100  1.0
  C  C890  1  0.276200  0.820300  0.558100  1.0
  C  C891  1  0.776200  0.679700  0.441900  1.0
  C  C892  1  0.723800  0.320300  0.941900  1.0
  C  C893  1  0.776200  0.820300  0.941900  1.0
  C  C894  1  0.723800  0.179700  0.441900  1.0
  C  C895  1  0.223800  0.320300  0.558100  1.0
  C  C896  1  0.276200  0.679700  0.058100  1.0
  C  C897  1  0.213100  0.175300  0.050400  1.0
  C  C898  1  0.286900  0.824700  0.550400  1.0
  C  C899  1  0.786900  0.675300  0.449600  1.0
  C  C900  1  0.713100  0.324700  0.949600  1.0
  C  C901  1  0.786900  0.824700  0.949600  1.0
  C  C902  1  0.713100  0.175300  0.449600  1.0
  C  C903  1  0.213100  0.324700  0.550400  1.0
  C  C904  1  0.286900  0.675300  0.050400  1.0
  C  C905  1  0.187100  0.192500  0.046300  1.0
  C  C906  1  0.312900  0.807500  0.546300  1.0
  C  C907  1  0.812900  0.692500  0.453700  1.0
  C  C908  1  0.687100  0.307500  0.953700  1.0
  C  C909  1  0.812900  0.807500  0.953700  1.0
  C  C910  1  0.687100  0.192500  0.453700  1.0
  C  C911  1  0.187100  0.307500  0.546300  1.0
  C  C912  1  0.312900  0.692500  0.046300  1.0
  C  C913  1  0.210000  0.147400  0.032200  1.0
  C  C914  1  0.290000  0.852600  0.532200  1.0
  C  C915  1  0.790000  0.647400  0.467800  1.0
  C  C916  1  0.710000  0.352600  0.967800  1.0
  C  C917  1  0.790000  0.852600  0.967800  1.0
  C  C918  1  0.710000  0.147400  0.467800  1.0
  C  C919  1  0.210000  0.352600  0.532200  1.0
  C  C920  1  0.290000  0.647400  0.032200  1.0
  C  C921  1  0.222800  0.170000  0.042400  1.0
  C  C922  1  0.277200  0.830000  0.542400  1.0
  C  C923  1  0.777200  0.670000  0.457600  1.0
  C  C924  1  0.722800  0.330000  0.957600  1.0
  C  C925  1  0.777200  0.830000  0.957600  1.0
  C  C926  1  0.722800  0.170000  0.457600  1.0
  C  C927  1  0.222800  0.330000  0.542400  1.0
  C  C928  1  0.277200  0.670000  0.042400  1.0
  C  C929  1  0.241600  0.169400  0.043660  1.0
  C  C930  1  0.258400  0.830600  0.543660  1.0
  C  C931  1  0.758400  0.669400  0.456340  1.0
  C  C932  1  0.741600  0.330600  0.956340  1.0
  C  C933  1  0.758400  0.830600  0.956340  1.0
  C  C934  1  0.741600  0.169400  0.456340  1.0
  C  C935  1  0.241600  0.330600  0.543660  1.0
  C  C936  1  0.258400  0.669400  0.043660  1.0
  C  C937  1  0.255900  0.163100  0.036700  1.0
  C  C938  1  0.244100  0.836900  0.536700  1.0
  C  C939  1  0.744100  0.663100  0.463300  1.0
  C  C940  1  0.755900  0.336900  0.963300  1.0
  C  C941  1  0.744100  0.836900  0.963300  1.0
  C  C942  1  0.755900  0.163100  0.463300  1.0
  C  C943  1  0.255900  0.336900  0.536700  1.0
  C  C944  1  0.244100  0.663100  0.036700  1.0
  C  C945  1  0.274700  0.164400  0.038900  1.0
  C  C946  1  0.225300  0.835600  0.538900  1.0
  C  C947  1  0.725300  0.664400  0.461100  1.0
  C  C948  1  0.774700  0.335600  0.961100  1.0
  C  C949  1  0.725300  0.835600  0.961100  1.0
  C  C950  1  0.774700  0.164400  0.461100  1.0
  C  C951  1  0.274700  0.335600  0.538900  1.0
  C  C952  1  0.225300  0.664400  0.038900  1.0
  C  C953  1  0.288100  0.159000  0.032500  1.0
  C  C954  1  0.211900  0.841000  0.532500  1.0
  C  C955  1  0.711900  0.659000  0.467500  1.0
  C  C956  1  0.788100  0.341000  0.967500  1.0
  C  C957  1  0.711900  0.841000  0.967500  1.0
  C  C958  1  0.788100  0.159000  0.467500  1.0
  C  C959  1  0.288100  0.341000  0.532500  1.0
  C  C960  1  0.211900  0.659000  0.032500  1.0
  C  C961  1  0.265700  0.151000  0.021600  1.0
  C  C962  1  0.234300  0.849000  0.521600  1.0
  C  C963  1  0.734300  0.651000  0.478400  1.0
  C  C964  1  0.765700  0.349000  0.978400  1.0
  C  C965  1  0.734300  0.849000  0.978400  1.0
  C  C966  1  0.765700  0.151000  0.478400  1.0
  C  C967  1  0.265700  0.349000  0.521600  1.0
  C  C968  1  0.234300  0.651000  0.021600  1.0
  C  C969  1  0.251800  0.156300  0.027700  1.0
  C  C970  1  0.248200  0.843700  0.527700  1.0
  C  C971  1  0.748200  0.656300  0.472300  1.0
  C  C972  1  0.751800  0.343700  0.972300  1.0
  C  C973  1  0.748200  0.843700  0.972300  1.0
  C  C974  1  0.751800  0.156300  0.472300  1.0
  C  C975  1  0.251800  0.343700  0.527700  1.0
  C  C976  1  0.248200  0.656300  0.027700  1.0
  C  C977  1  0.178000  0.221600  0.123500  1.0
  C  C978  1  0.322000  0.778400  0.623500  1.0
  C  C979  1  0.822000  0.721600  0.376500  1.0
  C  C980  1  0.678000  0.278400  0.876500  1.0
  C  C981  1  0.822000  0.778400  0.876500  1.0
  C  C982  1  0.678000  0.221600  0.376500  1.0
  C  C983  1  0.178000  0.278400  0.623500  1.0
  C  C984  1  0.322000  0.721600  0.123500  1.0
  C  C985  1  0.181100  0.216600  0.114300  1.0
  C  C986  1  0.318900  0.783400  0.614300  1.0
  C  C987  1  0.818900  0.716600  0.385700  1.0
  C  C988  1  0.681100  0.283400  0.885700  1.0
  C  C989  1  0.818900  0.783400  0.885700  1.0
  C  C990  1  0.681100  0.216600  0.385700  1.0
  C  C991  1  0.181100  0.283400  0.614300  1.0
  C  C992  1  0.318900  0.716600  0.114300  1.0
  C  C993  1  0.212800  0.218500  0.116500  1.0
  C  C994  1  0.287200  0.781500  0.616500  1.0
  C  C995  1  0.787200  0.718500  0.383500  1.0
  C  C996  1  0.712800  0.281500  0.883500  1.0
  C  C997  1  0.787200  0.781500  0.883500  1.0
  C  C998  1  0.712800  0.218500  0.383500  1.0
  C  C999  1  0.212800  0.281500  0.616500  1.0
  C  C1000  1  0.287200  0.718500  0.116500  1.0
  C  C1001  1  0.210400  0.223900  0.125700  1.0
  C  C1002  1  0.289600  0.776100  0.625700  1.0
  C  C1003  1  0.789600  0.723900  0.374300  1.0
  C  C1004  1  0.710400  0.276100  0.874300  1.0
  C  C1005  1  0.789600  0.776100  0.874300  1.0
  C  C1006  1  0.710400  0.223900  0.374300  1.0
  C  C1007  1  0.210400  0.276100  0.625700  1.0
  C  C1008  1  0.289600  0.723900  0.125700  1.0
  C  C1009  1  0.192700  0.225400  0.129700  1.0
  C  C1010  1  0.307300  0.774600  0.629700  1.0
  C  C1011  1  0.807300  0.725400  0.370300  1.0
  C  C1012  1  0.692700  0.274600  0.870300  1.0
  C  C1013  1  0.807300  0.774600  0.870300  1.0
  C  C1014  1  0.692700  0.225400  0.370300  1.0
  C  C1015  1  0.192700  0.274600  0.629700  1.0
  C  C1016  1  0.307300  0.725400  0.129700  1.0
  C  C1017  1  0.190400  0.231400  0.139700  1.0
  C  C1018  1  0.309600  0.768600  0.639700  1.0
  C  C1019  1  0.809600  0.731400  0.360300  1.0
  C  C1020  1  0.690400  0.268600  0.860300  1.0
  C  C1021  1  0.809600  0.768600  0.860300  1.0
  C  C1022  1  0.690400  0.231400  0.360300  1.0
  C  C1023  1  0.190400  0.268600  0.639700  1.0
  C  C1024  1  0.309600  0.731400  0.139700  1.0
  C  C1025  1  0.174500  0.235700  0.144600  1.0
  C  C1026  1  0.325500  0.764300  0.644600  1.0
  C  C1027  1  0.825500  0.735700  0.355400  1.0
  C  C1028  1  0.674500  0.264300  0.855400  1.0
  C  C1029  1  0.825500  0.764300  0.855400  1.0
  C  C1030  1  0.674500  0.235700  0.355400  1.0
  C  C1031  1  0.174500  0.264300  0.644600  1.0
  C  C1032  1  0.325500  0.735700  0.144600  1.0
  C  C1033  1  0.149200  0.253000  0.138600  1.0
  C  C1034  1  0.350800  0.747000  0.638600  1.0
  C  C1035  1  0.850800  0.753000  0.361400  1.0
  C  C1036  1  0.649200  0.247000  0.861400  1.0
  C  C1037  1  0.850800  0.747000  0.861400  1.0
  C  C1038  1  0.649200  0.253000  0.361400  1.0
  C  C1039  1  0.149200  0.247000  0.638600  1.0
  C  C1040  1  0.350800  0.753000  0.138600  1.0
  C  C1041  1  0.149400  0.232600  0.162500  1.0
  C  C1042  1  0.350600  0.767400  0.662500  1.0
  C  C1043  1  0.850600  0.732600  0.337500  1.0
  C  C1044  1  0.649400  0.267400  0.837500  1.0
  C  C1045  1  0.850600  0.767400  0.837500  1.0
  C  C1046  1  0.649400  0.232600  0.337500  1.0
  C  C1047  1  0.149400  0.267400  0.662500  1.0
  C  C1048  1  0.350600  0.732600  0.162500  1.0
  C  C1049  1  0.177100  0.239700  0.154000  1.0
  C  C1050  1  0.322900  0.760300  0.654000  1.0
  C  C1051  1  0.822900  0.739700  0.346000  1.0
  C  C1052  1  0.677100  0.260300  0.846000  1.0
  C  C1053  1  0.822900  0.760300  0.846000  1.0
  C  C1054  1  0.677100  0.239700  0.346000  1.0
  C  C1055  1  0.177100  0.260300  0.654000  1.0
  C  C1056  1  0.322900  0.739700  0.154000  1.0
  C  C1057  1  0.195200  0.238400  0.157000  1.0
  C  C1058  1  0.304800  0.761600  0.657000  1.0
  C  C1059  1  0.804800  0.738400  0.343000  1.0
  C  C1060  1  0.695200  0.261600  0.843000  1.0
  C  C1061  1  0.804800  0.761600  0.843000  1.0
  C  C1062  1  0.695200  0.238400  0.343000  1.0
  C  C1063  1  0.195200  0.261600  0.657000  1.0
  C  C1064  1  0.304800  0.738400  0.157000  1.0
  C  C1065  1  0.203100  0.239800  0.166700  1.0
  C  C1066  1  0.296900  0.760200  0.666700  1.0
  C  C1067  1  0.796900  0.739800  0.333300  1.0
  C  C1068  1  0.703100  0.260200  0.833300  1.0
  C  C1069  1  0.796900  0.760200  0.833300  1.0
  C  C1070  1  0.703100  0.239800  0.333300  1.0
  C  C1071  1  0.203100  0.260200  0.666700  1.0
  C  C1072  1  0.296900  0.739800  0.166700  1.0
  C  C1073  1  0.222300  0.239100  0.167800  1.0
  C  C1074  1  0.277700  0.760900  0.667800  1.0
  C  C1075  1  0.777700  0.739100  0.332200  1.0
  C  C1076  1  0.722300  0.260900  0.832200  1.0
  C  C1077  1  0.777700  0.760900  0.832200  1.0
  C  C1078  1  0.722300  0.239100  0.332200  1.0
  C  C1079  1  0.222300  0.260900  0.667800  1.0
  C  C1080  1  0.277700  0.739100  0.167800  1.0
  C  C1081  1  0.230000  0.240100  0.176700  1.0
  C  C1082  1  0.270000  0.759900  0.676700  1.0
  C  C1083  1  0.770000  0.740100  0.323300  1.0
  C  C1084  1  0.730000  0.259900  0.823300  1.0
  C  C1085  1  0.770000  0.759900  0.823300  1.0
  C  C1086  1  0.730000  0.240100  0.323300  1.0
  C  C1087  1  0.230000  0.259900  0.676700  1.0
  C  C1088  1  0.270000  0.740100  0.176700  1.0
  C  C1089  1  0.200900  0.241900  0.183600  1.0
  C  C1090  1  0.299100  0.758100  0.683600  1.0
  C  C1091  1  0.799100  0.741900  0.316400  1.0
  C  C1092  1  0.700900  0.258100  0.816400  1.0
  C  C1093  1  0.799100  0.758100  0.816400  1.0
  C  C1094  1  0.700900  0.241900  0.316400  1.0
  C  C1095  1  0.200900  0.258100  0.683600  1.0
  C  C1096  1  0.299100  0.741900  0.183600  1.0
  C  C1097  1  0.192400  0.241000  0.174900  1.0
  C  C1098  1  0.307600  0.759000  0.674900  1.0
  C  C1099  1  0.807600  0.741000  0.325100  1.0
  C  C1100  1  0.692400  0.259000  0.825100  1.0
  C  C1101  1  0.807600  0.759000  0.825100  1.0
  C  C1102  1  0.692400  0.241000  0.325100  1.0
  C  C1103  1  0.192400  0.259000  0.674900  1.0
  C  C1104  1  0.307600  0.741000  0.174900  1.0
  C  C1105  1  0.311600  0.197100  0.260300  1.0
  C  C1106  1  0.188400  0.802900  0.760300  1.0
  C  C1107  1  0.688400  0.697100  0.239700  1.0
  C  C1108  1  0.811600  0.302900  0.739700  1.0
  C  C1109  1  0.688400  0.802900  0.739700  1.0
  C  C1110  1  0.811600  0.197100  0.239700  1.0
  C  C1111  1  0.311600  0.302900  0.760300  1.0
  C  C1112  1  0.188400  0.697100  0.260300  1.0
  C  C1113  1  0.328500  0.195000  0.264700  1.0
  C  C1114  1  0.171500  0.805000  0.764700  1.0
  C  C1115  1  0.671500  0.695000  0.235300  1.0
  C  C1116  1  0.828500  0.305000  0.735300  1.0
  C  C1117  1  0.671500  0.805000  0.735300  1.0
  C  C1118  1  0.828500  0.195000  0.235300  1.0
  C  C1119  1  0.328500  0.305000  0.764700  1.0
  C  C1120  1  0.171500  0.695000  0.264700  1.0
  C  C1121  1  0.343700  0.209500  0.252400  1.0
  C  C1122  1  0.156300  0.790500  0.752400  1.0
  C  C1123  1  0.656300  0.709500  0.247600  1.0
  C  C1124  1  0.843700  0.290500  0.747600  1.0
  C  C1125  1  0.656300  0.790500  0.747600  1.0
  C  C1126  1  0.843700  0.209500  0.247600  1.0
  C  C1127  1  0.343700  0.290500  0.752400  1.0
  C  C1128  1  0.156300  0.709500  0.252400  1.0
  C  C1129  1  0.327200  0.212000  0.247600  1.0
  C  C1130  1  0.172800  0.788000  0.747600  1.0
  C  C1131  1  0.672800  0.712000  0.252400  1.0
  C  C1132  1  0.827200  0.288000  0.752400  1.0
  C  C1133  1  0.672800  0.788000  0.752400  1.0
  C  C1134  1  0.827200  0.212000  0.252400  1.0
  C  C1135  1  0.327200  0.288000  0.747600  1.0
  C  C1136  1  0.172800  0.712000  0.247600  1.0
  C  C1137  1  0.310600  0.206000  0.251600  1.0
  C  C1138  1  0.189400  0.794000  0.751600  1.0
  C  C1139  1  0.689400  0.706000  0.248400  1.0
  C  C1140  1  0.810600  0.294000  0.748400  1.0
  C  C1141  1  0.689400  0.794000  0.748400  1.0
  C  C1142  1  0.810600  0.206000  0.248400  1.0
  C  C1143  1  0.310600  0.294000  0.751600  1.0
  C  C1144  1  0.189400  0.706000  0.251600  1.0
  C  C1145  1  0.293000  0.209900  0.246440  1.0
  C  C1146  1  0.207000  0.790100  0.746440  1.0
  C  C1147  1  0.707000  0.709900  0.253560  1.0
  C  C1148  1  0.793000  0.290100  0.753560  1.0
  C  C1149  1  0.707000  0.790100  0.753560  1.0
  C  C1150  1  0.793000  0.209900  0.253560  1.0
  C  C1151  1  0.293000  0.290100  0.746440  1.0
  C  C1152  1  0.207000  0.709900  0.246440  1.0
  C  C1153  1  0.275300  0.207200  0.249500  1.0
  C  C1154  1  0.224700  0.792800  0.749500  1.0
  C  C1155  1  0.724700  0.707200  0.250500  1.0
  C  C1156  1  0.775300  0.292800  0.750500  1.0
  C  C1157  1  0.724700  0.792800  0.750500  1.0
  C  C1158  1  0.775300  0.207200  0.250500  1.0
  C  C1159  1  0.275300  0.292800  0.749500  1.0
  C  C1160  1  0.224700  0.707200  0.249500  1.0
  C  C1161  1  0.264600  0.181800  0.258500  1.0
  C  C1162  1  0.235400  0.818200  0.758500  1.0
  C  C1163  1  0.735400  0.681800  0.241500  1.0
  C  C1164  1  0.764600  0.318200  0.741500  1.0
  C  C1165  1  0.735400  0.818200  0.741500  1.0
  C  C1166  1  0.764600  0.181800  0.241500  1.0
  C  C1167  1  0.264600  0.318200  0.758500  1.0
  C  C1168  1  0.235400  0.681800  0.258500  1.0
  C  C1169  1  0.235600  0.221700  0.251600  1.0
  C  C1170  1  0.264400  0.778300  0.751600  1.0
  C  C1171  1  0.764400  0.721700  0.248400  1.0
  C  C1172  1  0.735600  0.278300  0.748400  1.0
  C  C1173  1  0.764400  0.778300  0.748400  1.0
  C  C1174  1  0.735600  0.221700  0.248400  1.0
  C  C1175  1  0.235600  0.278300  0.751600  1.0
  C  C1176  1  0.264400  0.721700  0.251600  1.0
  C  C1177  1  0.261900  0.212400  0.243000  1.0
  C  C1178  1  0.238100  0.787600  0.743000  1.0
  C  C1179  1  0.738100  0.712400  0.257000  1.0
  C  C1180  1  0.761900  0.287600  0.757000  1.0
  C  C1181  1  0.738100  0.787600  0.757000  1.0
  C  C1182  1  0.761900  0.212400  0.257000  1.0
  C  C1183  1  0.261900  0.287600  0.743000  1.0
  C  C1184  1  0.238100  0.712400  0.243000  1.0
  C  C1185  1  0.268800  0.219900  0.234800  1.0
  C  C1186  1  0.231200  0.780100  0.734800  1.0
  C  C1187  1  0.731200  0.719900  0.265200  1.0
  C  C1188  1  0.768800  0.280100  0.765200  1.0
  C  C1189  1  0.731200  0.780100  0.765200  1.0
  C  C1190  1  0.768800  0.219900  0.265200  1.0
  C  C1191  1  0.268800  0.280100  0.734800  1.0
  C  C1192  1  0.231200  0.719900  0.234800  1.0
  C  C1193  1  0.258600  0.225800  0.226200  1.0
  C  C1194  1  0.241400  0.774200  0.726200  1.0
  C  C1195  1  0.741400  0.725800  0.273800  1.0
  C  C1196  1  0.758600  0.274200  0.773800  1.0
  C  C1197  1  0.741400  0.774200  0.773800  1.0
  C  C1198  1  0.758600  0.225800  0.273800  1.0
  C  C1199  1  0.258600  0.274200  0.726200  1.0
  C  C1200  1  0.241400  0.725800  0.226200  1.0
  C  C1201  1  0.268600  0.231800  0.218400  1.0
  C  C1202  1  0.231400  0.768200  0.718400  1.0
  C  C1203  1  0.731400  0.731800  0.281600  1.0
  C  C1204  1  0.768600  0.268200  0.781600  1.0
  C  C1205  1  0.731400  0.768200  0.781600  1.0
  C  C1206  1  0.768600  0.231800  0.281600  1.0
  C  C1207  1  0.268600  0.268200  0.718400  1.0
  C  C1208  1  0.231400  0.731800  0.218400  1.0
  C  C1209  1  0.259400  0.237900  0.210400  1.0
  C  C1210  1  0.240600  0.762100  0.710400  1.0
  C  C1211  1  0.740600  0.737900  0.289600  1.0
  C  C1212  1  0.759400  0.262100  0.789600  1.0
  C  C1213  1  0.740600  0.762100  0.789600  1.0
  C  C1214  1  0.759400  0.237900  0.289600  1.0
  C  C1215  1  0.259400  0.262100  0.710400  1.0
  C  C1216  1  0.240600  0.737900  0.210400  1.0
  C  C1217  1  0.230800  0.231300  0.217200  1.0
  C  C1218  1  0.269200  0.768700  0.717200  1.0
  C  C1219  1  0.769200  0.731300  0.282800  1.0
  C  C1220  1  0.730800  0.268700  0.782800  1.0
  C  C1221  1  0.769200  0.768700  0.782800  1.0
  C  C1222  1  0.730800  0.231300  0.282800  1.0
  C  C1223  1  0.230800  0.268700  0.717200  1.0
  C  C1224  1  0.269200  0.731300  0.217200  1.0
  C  C1225  1  0.239300  0.225300  0.225400  1.0
  C  C1226  1  0.260700  0.774700  0.725400  1.0
  C  C1227  1  0.760700  0.725300  0.274600  1.0
  C  C1228  1  0.739300  0.274700  0.774600  1.0
  C  C1229  1  0.760700  0.774700  0.774600  1.0
  C  C1230  1  0.739300  0.225300  0.274600  1.0
  C  C1231  1  0.239300  0.274700  0.725400  1.0
  C  C1232  1  0.260700  0.725300  0.225400  1.0
  C  C1233  1  0.214400  0.184500  0.196400  1.0
  C  C1234  1  0.285600  0.815500  0.696400  1.0
  C  C1235  1  0.785600  0.684500  0.303600  1.0
  C  C1236  1  0.714400  0.315500  0.803600  1.0
  C  C1237  1  0.785600  0.815500  0.803600  1.0
  C  C1238  1  0.714400  0.184500  0.303600  1.0
  C  C1239  1  0.214400  0.315500  0.696400  1.0
  C  C1240  1  0.285600  0.684500  0.196400  1.0
  C  C1241  1  0.214400  0.203300  0.197800  1.0
  C  C1242  1  0.285600  0.796700  0.697800  1.0
  C  C1243  1  0.785600  0.703300  0.302200  1.0
  C  C1244  1  0.714400  0.296700  0.802200  1.0
  C  C1245  1  0.785600  0.796700  0.802200  1.0
  C  C1246  1  0.714400  0.203300  0.302200  1.0
  C  C1247  1  0.214400  0.296700  0.697800  1.0
  C  C1248  1  0.285600  0.703300  0.197800  1.0
  C  C1249  1  0.244100  0.204900  0.191500  1.0
  C  C1250  1  0.255900  0.795100  0.691500  1.0
  C  C1251  1  0.755900  0.704900  0.308500  1.0
  C  C1252  1  0.744100  0.295100  0.808500  1.0
  C  C1253  1  0.755900  0.795100  0.808500  1.0
  C  C1254  1  0.744100  0.204900  0.308500  1.0
  C  C1255  1  0.244100  0.295100  0.691500  1.0
  C  C1256  1  0.255900  0.704900  0.191500  1.0
  C  C1257  1  0.244700  0.186100  0.190000  1.0
  C  C1258  1  0.255300  0.813900  0.690000  1.0
  C  C1259  1  0.755300  0.686100  0.310000  1.0
  C  C1260  1  0.744700  0.313900  0.810000  1.0
  C  C1261  1  0.755300  0.813900  0.810000  1.0
  C  C1262  1  0.744700  0.186100  0.310000  1.0
  C  C1263  1  0.244700  0.313900  0.690000  1.0
  C  C1264  1  0.255300  0.686100  0.190000  1.0
  C  C1265  1  0.229600  0.175200  0.192600  1.0
  C  C1266  1  0.270400  0.824800  0.692600  1.0
  C  C1267  1  0.770400  0.675200  0.307400  1.0
  C  C1268  1  0.729600  0.324800  0.807400  1.0
  C  C1269  1  0.770400  0.824800  0.807400  1.0
  C  C1270  1  0.729600  0.175200  0.307400  1.0
  C  C1271  1  0.229600  0.324800  0.692600  1.0
  C  C1272  1  0.270400  0.675200  0.192600  1.0
  C  C1273  1  0.230400  0.154700  0.190900  1.0
  C  C1274  1  0.269600  0.845300  0.690900  1.0
  C  C1275  1  0.769600  0.654700  0.309100  1.0
  C  C1276  1  0.730400  0.345300  0.809100  1.0
  C  C1277  1  0.769600  0.845300  0.809100  1.0
  C  C1278  1  0.730400  0.154700  0.309100  1.0
  C  C1279  1  0.230400  0.345300  0.690900  1.0
  C  C1280  1  0.269600  0.654700  0.190900  1.0
  C  C1281  1  0.218200  0.141100  0.193500  1.0
  C  C1282  1  0.281800  0.858900  0.693500  1.0
  C  C1283  1  0.781800  0.641100  0.306500  1.0
  C  C1284  1  0.718200  0.358900  0.806500  1.0
  C  C1285  1  0.781800  0.858900  0.806500  1.0
  C  C1286  1  0.718200  0.141100  0.306500  1.0
  C  C1287  1  0.218200  0.358900  0.693500  1.0
  C  C1288  1  0.281800  0.641100  0.193500  1.0
  C  C1289  1  0.186000  0.141000  0.197200  1.0
  C  C1290  1  0.314000  0.859000  0.697200  1.0
  C  C1291  1  0.814000  0.641000  0.302800  1.0
  C  C1292  1  0.686000  0.359000  0.802800  1.0
  C  C1293  1  0.814000  0.859000  0.802800  1.0
  C  C1294  1  0.686000  0.141000  0.302800  1.0
  C  C1295  1  0.186000  0.359000  0.697200  1.0
  C  C1296  1  0.314000  0.641000  0.197200  1.0
  C  C1297  1  0.194500  0.106000  0.186400  1.0
  C  C1298  1  0.305500  0.894000  0.686400  1.0
  C  C1299  1  0.805500  0.606000  0.313600  1.0
  C  C1300  1  0.694500  0.394000  0.813600  1.0
  C  C1301  1  0.805500  0.894000  0.813600  1.0
  C  C1302  1  0.694500  0.106000  0.313600  1.0
  C  C1303  1  0.194500  0.394000  0.686400  1.0
  C  C1304  1  0.305500  0.606000  0.186400  1.0
  C  C1305  1  0.221300  0.124100  0.189300  1.0
  C  C1306  1  0.278700  0.875900  0.689300  1.0
  C  C1307  1  0.778700  0.624100  0.310700  1.0
  C  C1308  1  0.721300  0.375900  0.810700  1.0
  C  C1309  1  0.778700  0.875900  0.810700  1.0
  C  C1310  1  0.721300  0.124100  0.310700  1.0
  C  C1311  1  0.221300  0.375900  0.689300  1.0
  C  C1312  1  0.278700  0.624100  0.189300  1.0
  C  C1313  1  0.236300  0.123700  0.183300  1.0
  C  C1314  1  0.263700  0.876300  0.683300  1.0
  C  C1315  1  0.763700  0.623700  0.316700  1.0
  C  C1316  1  0.736300  0.376300  0.816700  1.0
  C  C1317  1  0.763700  0.876300  0.816700  1.0
  C  C1318  1  0.736300  0.123700  0.316700  1.0
  C  C1319  1  0.236300  0.376300  0.683300  1.0
  C  C1320  1  0.263700  0.623700  0.183300  1.0
  C  C1321  1  0.243600  0.107500  0.177900  1.0
  C  C1322  1  0.256400  0.892500  0.677900  1.0
  C  C1323  1  0.756400  0.607500  0.322100  1.0
  C  C1324  1  0.743600  0.392500  0.822100  1.0
  C  C1325  1  0.756400  0.892500  0.822100  1.0
  C  C1326  1  0.743600  0.107500  0.322100  1.0
  C  C1327  1  0.243600  0.392500  0.677900  1.0
  C  C1328  1  0.256400  0.607500  0.177900  1.0
  C  C1329  1  0.260000  0.108600  0.172800  1.0
  C  C1330  1  0.240000  0.891400  0.672800  1.0
  C  C1331  1  0.740000  0.608600  0.327200  1.0
  C  C1332  1  0.760000  0.391400  0.827200  1.0
  C  C1333  1  0.740000  0.891400  0.827200  1.0
  C  C1334  1  0.760000  0.108600  0.327200  1.0
  C  C1335  1  0.260000  0.391400  0.672800  1.0
  C  C1336  1  0.240000  0.608600  0.172800  1.0
  C  C1337  1  0.266600  0.094100  0.167400  1.0
  C  C1338  1  0.233400  0.905900  0.667400  1.0
  C  C1339  1  0.733400  0.594100  0.332600  1.0
  C  C1340  1  0.766600  0.405900  0.832600  1.0
  C  C1341  1  0.733400  0.905900  0.832600  1.0
  C  C1342  1  0.766600  0.094100  0.332600  1.0
  C  C1343  1  0.266600  0.405900  0.667400  1.0
  C  C1344  1  0.233400  0.594100  0.167400  1.0
  C  C1345  1  0.241200  0.076500  0.171700  1.0
  C  C1346  1  0.258800  0.923500  0.671700  1.0
  C  C1347  1  0.758800  0.576500  0.328300  1.0
  C  C1348  1  0.741200  0.423500  0.828300  1.0
  C  C1349  1  0.758800  0.923500  0.828300  1.0
  C  C1350  1  0.741200  0.076500  0.328300  1.0
  C  C1351  1  0.241200  0.423500  0.671700  1.0
  C  C1352  1  0.258800  0.576500  0.171700  1.0
  C  C1353  1  0.233900  0.090800  0.177000  1.0
  C  C1354  1  0.266100  0.909200  0.677000  1.0
  C  C1355  1  0.766100  0.590800  0.323000  1.0
  C  C1356  1  0.733900  0.409200  0.823000  1.0
  C  C1357  1  0.766100  0.909200  0.823000  1.0
  C  C1358  1  0.733900  0.090800  0.323000  1.0
  C  C1359  1  0.233900  0.409200  0.677000  1.0
  C  C1360  1  0.266100  0.590800  0.177000  1.0
  C  C1361  1  0.191000  0.155100  0.108000  1.0
  C  C1362  1  0.309000  0.844900  0.608000  1.0
  C  C1363  1  0.809000  0.655100  0.392000  1.0
  C  C1364  1  0.691000  0.344900  0.892000  1.0
  C  C1365  1  0.809000  0.844900  0.892000  1.0
  C  C1366  1  0.691000  0.155100  0.392000  1.0
  C  C1367  1  0.191000  0.344900  0.608000  1.0
  C  C1368  1  0.309000  0.655100  0.108000  1.0
  C  C1369  1  0.190900  0.172400  0.103900  1.0
  C  C1370  1  0.309100  0.827600  0.603900  1.0
  C  C1371  1  0.809100  0.672400  0.396100  1.0
  C  C1372  1  0.690900  0.327600  0.896100  1.0
  C  C1373  1  0.809100  0.827600  0.896100  1.0
  C  C1374  1  0.690900  0.172400  0.396100  1.0
  C  C1375  1  0.190900  0.327600  0.603900  1.0
  C  C1376  1  0.309100  0.672400  0.103900  1.0
  C  C1377  1  0.222300  0.175700  0.105900  1.0
  C  C1378  1  0.277700  0.824300  0.605900  1.0
  C  C1379  1  0.777700  0.675700  0.394100  1.0
  C  C1380  1  0.722300  0.324300  0.894100  1.0
  C  C1381  1  0.777700  0.824300  0.894100  1.0
  C  C1382  1  0.722300  0.175700  0.394100  1.0
  C  C1383  1  0.222300  0.324300  0.605900  1.0
  C  C1384  1  0.277700  0.675700  0.105900  1.0
  C  C1385  1  0.223300  0.158400  0.109900  1.0
  C  C1386  1  0.276700  0.841600  0.609900  1.0
  C  C1387  1  0.776700  0.658400  0.390100  1.0
  C  C1388  1  0.723300  0.341600  0.890100  1.0
  C  C1389  1  0.776700  0.841600  0.890100  1.0
  C  C1390  1  0.723300  0.158400  0.390100  1.0
  C  C1391  1  0.223300  0.341600  0.609900  1.0
  C  C1392  1  0.276700  0.658400  0.109900  1.0
  C  C1393  1  0.207700  0.147400  0.111100  1.0
  C  C1394  1  0.292300  0.852600  0.611100  1.0
  C  C1395  1  0.792300  0.647400  0.388900  1.0
  C  C1396  1  0.707700  0.352600  0.888900  1.0
  C  C1397  1  0.792300  0.852600  0.888900  1.0
  C  C1398  1  0.707700  0.147400  0.388900  1.0
  C  C1399  1  0.207700  0.352600  0.611100  1.0
  C  C1400  1  0.292300  0.647400  0.111100  1.0
  C  C1401  1  0.208800  0.131100  0.117600  1.0
  C  C1402  1  0.291200  0.868900  0.617600  1.0
  C  C1403  1  0.791200  0.631100  0.382400  1.0
  C  C1404  1  0.708800  0.368900  0.882400  1.0
  C  C1405  1  0.791200  0.868900  0.882400  1.0
  C  C1406  1  0.708800  0.131100  0.382400  1.0
  C  C1407  1  0.208800  0.368900  0.617600  1.0
  C  C1408  1  0.291200  0.631100  0.117600  1.0
  C  C1409  1  0.195900  0.117400  0.118900  1.0
  C  C1410  1  0.304100  0.882600  0.618900  1.0
  C  C1411  1  0.804100  0.617400  0.381100  1.0
  C  C1412  1  0.695900  0.382600  0.881100  1.0
  C  C1413  1  0.804100  0.882600  0.881100  1.0
  C  C1414  1  0.695900  0.117400  0.381100  1.0
  C  C1415  1  0.195900  0.382600  0.618900  1.0
  C  C1416  1  0.304100  0.617400  0.118900  1.0
  C  C1417  1  0.175300  0.116000  0.105600  1.0
  C  C1418  1  0.324700  0.884000  0.605600  1.0
  C  C1419  1  0.824700  0.616000  0.394400  1.0
  C  C1420  1  0.675300  0.384000  0.894400  1.0
  C  C1421  1  0.824700  0.884000  0.894400  1.0
  C  C1422  1  0.675300  0.116000  0.394400  1.0
  C  C1423  1  0.175300  0.384000  0.605600  1.0
  C  C1424  1  0.324700  0.616000  0.105600  1.0
  C  C1425  1  0.174300  0.090000  0.131000  1.0
  C  C1426  1  0.325700  0.910000  0.631000  1.0
  C  C1427  1  0.825700  0.590000  0.369000  1.0
  C  C1428  1  0.674300  0.410000  0.869000  1.0
  C  C1429  1  0.825700  0.910000  0.869000  1.0
  C  C1430  1  0.674300  0.090000  0.369000  1.0
  C  C1431  1  0.174300  0.410000  0.631000  1.0
  C  C1432  1  0.325700  0.590000  0.131000  1.0
  C  C1433  1  0.202000  0.102900  0.124600  1.0
  C  C1434  1  0.298000  0.897100  0.624600  1.0
  C  C1435  1  0.798000  0.602900  0.375400  1.0
  C  C1436  1  0.702000  0.397100  0.875400  1.0
  C  C1437  1  0.798000  0.897100  0.875400  1.0
  C  C1438  1  0.702000  0.102900  0.375400  1.0
  C  C1439  1  0.202000  0.397100  0.624600  1.0
  C  C1440  1  0.298000  0.602900  0.124600  1.0
  C  C1441  1  0.219700  0.104900  0.127900  1.0
  C  C1442  1  0.280300  0.895100  0.627900  1.0
  C  C1443  1  0.780300  0.604900  0.372100  1.0
  C  C1444  1  0.719700  0.395100  0.872100  1.0
  C  C1445  1  0.780300  0.895100  0.872100  1.0
  C  C1446  1  0.719700  0.104900  0.372100  1.0
  C  C1447  1  0.219700  0.395100  0.627900  1.0
  C  C1448  1  0.280300  0.604900  0.127900  1.0
  C  C1449  1  0.230400  0.093200  0.134700  1.0
  C  C1450  1  0.269600  0.906800  0.634700  1.0
  C  C1451  1  0.769600  0.593200  0.365300  1.0
  C  C1452  1  0.730400  0.406800  0.865300  1.0
  C  C1453  1  0.769600  0.906800  0.865300  1.0
  C  C1454  1  0.730400  0.093200  0.365300  1.0
  C  C1455  1  0.230400  0.406800  0.634700  1.0
  C  C1456  1  0.269600  0.593200  0.134700  1.0
  C  C1457  1  0.248800  0.097900  0.136600  1.0
  C  C1458  1  0.251200  0.902100  0.636600  1.0
  C  C1459  1  0.751200  0.597900  0.363400  1.0
  C  C1460  1  0.748800  0.402100  0.863400  1.0
  C  C1461  1  0.751200  0.902100  0.863400  1.0
  C  C1462  1  0.748800  0.097900  0.363400  1.0
  C  C1463  1  0.248800  0.402100  0.636600  1.0
  C  C1464  1  0.251200  0.597900  0.136600  1.0
  C  C1465  1  0.258600  0.087700  0.143100  1.0
  C  C1466  1  0.241400  0.912300  0.643100  1.0
  C  C1467  1  0.741400  0.587700  0.356900  1.0
  C  C1468  1  0.758600  0.412300  0.856900  1.0
  C  C1469  1  0.741400  0.912300  0.856900  1.0
  C  C1470  1  0.758600  0.087700  0.356900  1.0
  C  C1471  1  0.258600  0.412300  0.643100  1.0
  C  C1472  1  0.241400  0.587700  0.143100  1.0
  C  C1473  1  0.233200  0.069300  0.146500  1.0
  C  C1474  1  0.266800  0.930700  0.646500  1.0
  C  C1475  1  0.766800  0.569300  0.353500  1.0
  C  C1476  1  0.733200  0.430700  0.853500  1.0
  C  C1477  1  0.766800  0.930700  0.853500  1.0
  C  C1478  1  0.733200  0.069300  0.353500  1.0
  C  C1479  1  0.233200  0.430700  0.646500  1.0
  C  C1480  1  0.266800  0.569300  0.146500  1.0
  C  C1481  1  0.222800  0.078800  0.139900  1.0
  C  C1482  1  0.277200  0.921200  0.639900  1.0
  C  C1483  1  0.777200  0.578800  0.360100  1.0
  C  C1484  1  0.722800  0.421200  0.860100  1.0
  C  C1485  1  0.777200  0.921200  0.860100  1.0
  C  C1486  1  0.722800  0.078800  0.360100  1.0
  C  C1487  1  0.222800  0.421200  0.639900  1.0
  C  C1488  1  0.277200  0.578800  0.139900  1.0
  C  C1489  1  0.308300  0.983200  0.092900  1.0
  C  C1490  1  0.191700  0.016800  0.592900  1.0
  C  C1491  1  0.691700  0.483200  0.407100  1.0
  C  C1492  1  0.808300  0.516800  0.907100  1.0
  C  C1493  1  0.691700  0.016800  0.907100  1.0
  C  C1494  1  0.808300  0.983200  0.407100  1.0
  C  C1495  1  0.308300  0.516800  0.592900  1.0
  C  C1496  1  0.191700  0.483200  0.092900  1.0
  C  C1497  1  0.320000  0.980700  0.085300  1.0
  C  C1498  1  0.180000  0.019300  0.585300  1.0
  C  C1499  1  0.680000  0.480700  0.414700  1.0
  C  C1500  1  0.820000  0.519300  0.914700  1.0
  C  C1501  1  0.680000  0.019300  0.914700  1.0
  C  C1502  1  0.820000  0.980700  0.414700  1.0
  C  C1503  1  0.320000  0.519300  0.585300  1.0
  C  C1504  1  0.180000  0.480700  0.085300  1.0
  C  C1505  1  0.335000  0.008200  0.088900  1.0
  C  C1506  1  0.165000  0.991800  0.588900  1.0
  C  C1507  1  0.665000  0.508200  0.411100  1.0
  C  C1508  1  0.835000  0.491800  0.911100  1.0
  C  C1509  1  0.665000  0.991800  0.911100  1.0
  C  C1510  1  0.835000  0.008200  0.411100  1.0
  C  C1511  1  0.335000  0.491800  0.588900  1.0
  C  C1512  1  0.165000  0.508200  0.088900  1.0
  C  C1513  1  0.323500  0.011500  0.096500  1.0
  C  C1514  1  0.176500  0.988500  0.596500  1.0
  C  C1515  1  0.676500  0.511500  0.403500  1.0
  C  C1516  1  0.823500  0.488500  0.903500  1.0
  C  C1517  1  0.676500  0.988500  0.903500  1.0
  C  C1518  1  0.823500  0.011500  0.403500  1.0
  C  C1519  1  0.323500  0.488500  0.596500  1.0
  C  C1520  1  0.176500  0.511500  0.096500  1.0
  C  C1521  1  0.309700  0.998700  0.098700  1.0
  C  C1522  1  0.190300  0.001300  0.598700  1.0
  C  C1523  1  0.690300  0.498700  0.401300  1.0
  C  C1524  1  0.809700  0.501300  0.901300  1.0
  C  C1525  1  0.690300  0.001300  0.901300  1.0
  C  C1526  1  0.809700  0.998700  0.401300  1.0
  C  C1527  1  0.309700  0.501300  0.598700  1.0
  C  C1528  1  0.190300  0.498700  0.098700  1.0
  C  C1529  1  0.297500  0.002200  0.107100  1.0
  C  C1530  1  0.202500  0.997800  0.607100  1.0
  C  C1531  1  0.702500  0.502200  0.392900  1.0
  C  C1532  1  0.797500  0.497800  0.892900  1.0
  C  C1533  1  0.702500  0.997800  0.892900  1.0
  C  C1534  1  0.797500  0.002200  0.392900  1.0
  C  C1535  1  0.297500  0.497800  0.607100  1.0
  C  C1536  1  0.202500  0.502200  0.107100  1.0
  C  C1537  1  0.283400  0.991300  0.110500  1.0
  C  C1538  1  0.216600  0.008700  0.610500  1.0
  C  C1539  1  0.716600  0.491300  0.389500  1.0
  C  C1540  1  0.783400  0.508700  0.889500  1.0
  C  C1541  1  0.716600  0.008700  0.889500  1.0
  C  C1542  1  0.783400  0.991300  0.389500  1.0
  C  C1543  1  0.283400  0.508700  0.610500  1.0
  C  C1544  1  0.216600  0.491300  0.110500  1.0
  C  C1545  1  0.282000  0.959500  0.106000  1.0
  C  C1546  1  0.218000  0.040500  0.606000  1.0
  C  C1547  1  0.718000  0.459500  0.394000  1.0
  C  C1548  1  0.782000  0.540500  0.894000  1.0
  C  C1549  1  0.718000  0.040500  0.894000  1.0
  C  C1550  1  0.782000  0.959500  0.394000  1.0
  C  C1551  1  0.282000  0.540500  0.606000  1.0
  C  C1552  1  0.218000  0.459500  0.106000  1.0
  C  C1553  1  0.267800  0.971100  0.128900  1.0
  C  C1554  1  0.232200  0.028900  0.628900  1.0
  C  C1555  1  0.732200  0.471100  0.371100  1.0
  C  C1556  1  0.767800  0.528900  0.871100  1.0
  C  C1557  1  0.732200  0.028900  0.871100  1.0
  C  C1558  1  0.767800  0.971100  0.371100  1.0
  C  C1559  1  0.267800  0.528900  0.628900  1.0
  C  C1560  1  0.232200  0.471100  0.128900  1.0
  C  C1561  1  0.277500  0.996300  0.119400  1.0
  C  C1562  1  0.222500  0.003700  0.619400  1.0
  C  C1563  1  0.722500  0.496300  0.380600  1.0
  C  C1564  1  0.777500  0.503700  0.880600  1.0
  C  C1565  1  0.722500  0.003700  0.880600  1.0
  C  C1566  1  0.777500  0.996300  0.380600  1.0
  C  C1567  1  0.277500  0.503700  0.619400  1.0
  C  C1568  1  0.222500  0.496300  0.119400  1.0
  C  C1569  1  0.286900  0.011000  0.123300  1.0
  C  C1570  1  0.213100  0.989000  0.623300  1.0
  C  C1571  1  0.713100  0.511000  0.376700  1.0
  C  C1572  1  0.786900  0.489000  0.876700  1.0
  C  C1573  1  0.713100  0.989000  0.876700  1.0
  C  C1574  1  0.786900  0.011000  0.376700  1.0
  C  C1575  1  0.286900  0.489000  0.623300  1.0
  C  C1576  1  0.213100  0.511000  0.123300  1.0
  C  C1577  1  0.280800  0.022900  0.131400  1.0
  C  C1578  1  0.219200  0.977100  0.631400  1.0
  C  C1579  1  0.719200  0.522900  0.368600  1.0
  C  C1580  1  0.780800  0.477100  0.868600  1.0
  C  C1581  1  0.719200  0.977100  0.868600  1.0
  C  C1582  1  0.780800  0.022900  0.368600  1.0
  C  C1583  1  0.280800  0.477100  0.631400  1.0
  C  C1584  1  0.219200  0.522900  0.131400  1.0
  C  C1585  1  0.291900  0.037700  0.134100  1.0
  C  C1586  1  0.208100  0.962300  0.634100  1.0
  C  C1587  1  0.708100  0.537700  0.365900  1.0
  C  C1588  1  0.791900  0.462300  0.865900  1.0
  C  C1589  1  0.708100  0.962300  0.865900  1.0
  C  C1590  1  0.791900  0.037700  0.365900  1.0
  C  C1591  1  0.291900  0.462300  0.634100  1.0
  C  C1592  1  0.208100  0.537700  0.134100  1.0
  C  C1593  1  0.287800  0.047500  0.142200  1.0
  C  C1594  1  0.212200  0.952500  0.642200  1.0
  C  C1595  1  0.712200  0.547500  0.357800  1.0
  C  C1596  1  0.787800  0.452500  0.857800  1.0
  C  C1597  1  0.712200  0.952500  0.857800  1.0
  C  C1598  1  0.787800  0.047500  0.357800  1.0
  C  C1599  1  0.287800  0.452500  0.642200  1.0
  C  C1600  1  0.212200  0.547500  0.142200  1.0
  C  C1601  1  0.262300  0.028800  0.145300  1.0
  C  C1602  1  0.237700  0.971200  0.645300  1.0
  C  C1603  1  0.737700  0.528800  0.354700  1.0
  C  C1604  1  0.762300  0.471200  0.854700  1.0
  C  C1605  1  0.737700  0.971200  0.854700  1.0
  C  C1606  1  0.762300  0.028800  0.354700  1.0
  C  C1607  1  0.262300  0.471200  0.645300  1.0
  C  C1608  1  0.237700  0.528800  0.145300  1.0
  C  C1609  1  0.265800  0.018800  0.137200  1.0
  C  C1610  1  0.234200  0.981200  0.637200  1.0
  C  C1611  1  0.734200  0.518800  0.362800  1.0
  C  C1612  1  0.765800  0.481200  0.862800  1.0
  C  C1613  1  0.734200  0.981200  0.862800  1.0
  C  C1614  1  0.765800  0.018800  0.362800  1.0
  C  C1615  1  0.265800  0.481200  0.637200  1.0
  C  C1616  1  0.234200  0.518800  0.137200  1.0
  C  C1617  1  0.294400  0.089800  0.022000  1.0
  C  C1618  1  0.205600  0.910200  0.522000  1.0
  C  C1619  1  0.705600  0.589800  0.478000  1.0
  C  C1620  1  0.794400  0.410200  0.978000  1.0
  C  C1621  1  0.705600  0.910200  0.978000  1.0
  C  C1622  1  0.794400  0.089800  0.478000  1.0
  C  C1623  1  0.294400  0.410200  0.522000  1.0
  C  C1624  1  0.205600  0.589800  0.022000  1.0
  C  C1625  1  0.293500  0.107100  0.017900  1.0
  C  C1626  1  0.206500  0.892900  0.517900  1.0
  C  C1627  1  0.706500  0.607100  0.482100  1.0
  C  C1628  1  0.793500  0.392900  0.982100  1.0
  C  C1629  1  0.706500  0.892900  0.982100  1.0
  C  C1630  1  0.793500  0.107100  0.482100  1.0
  C  C1631  1  0.293500  0.392900  0.517900  1.0
  C  C1632  1  0.206500  0.607100  0.017900  1.0
  C  C1633  1  0.314800  0.118300  0.028600  1.0
  C  C1634  1  0.185200  0.881700  0.528600  1.0
  C  C1635  1  0.685200  0.618300  0.471400  1.0
  C  C1636  1  0.814800  0.381700  0.971400  1.0
  C  C1637  1  0.685200  0.881700  0.971400  1.0
  C  C1638  1  0.814800  0.118300  0.471400  1.0
  C  C1639  1  0.314800  0.381700  0.528600  1.0
  C  C1640  1  0.185200  0.618300  0.028600  1.0
  C  C1641  1  0.316100  0.101200  0.032800  1.0
  C  C1642  1  0.183900  0.898800  0.532800  1.0
  C  C1643  1  0.683900  0.601200  0.467200  1.0
  C  C1644  1  0.816100  0.398800  0.967200  1.0
  C  C1645  1  0.683900  0.898800  0.967200  1.0
  C  C1646  1  0.816100  0.101200  0.467200  1.0
  C  C1647  1  0.316100  0.398800  0.532800  1.0
  C  C1648  1  0.183900  0.601200  0.032800  1.0
  C  C1649  1  0.306300  0.085900  0.029500  1.0
  C  C1650  1  0.193700  0.914100  0.529500  1.0
  C  C1651  1  0.693700  0.585900  0.470500  1.0
  C  C1652  1  0.806300  0.414100  0.970500  1.0
  C  C1653  1  0.693700  0.914100  0.970500  1.0
  C  C1654  1  0.806300  0.085900  0.470500  1.0
  C  C1655  1  0.306300  0.414100  0.529500  1.0
  C  C1656  1  0.193700  0.585900  0.029500  1.0
  C  C1657  1  0.308200  0.067300  0.034000  1.0
  C  C1658  1  0.191800  0.932700  0.534000  1.0
  C  C1659  1  0.691800  0.567300  0.466000  1.0
  C  C1660  1  0.808200  0.432700  0.966000  1.0
  C  C1661  1  0.691800  0.932700  0.966000  1.0
  C  C1662  1  0.808200  0.067300  0.466000  1.0
  C  C1663  1  0.308200  0.432700  0.534000  1.0
  C  C1664  1  0.191800  0.567300  0.034000  1.0
  C  C1665  1  0.299200  0.051200  0.031700  1.0
  C  C1666  1  0.200800  0.948800  0.531700  1.0
  C  C1667  1  0.700800  0.551200  0.468300  1.0
  C  C1668  1  0.799200  0.448800  0.968300  1.0
  C  C1669  1  0.700800  0.948800  0.968300  1.0
  C  C1670  1  0.799200  0.051200  0.468300  1.0
  C  C1671  1  0.299200  0.448800  0.531700  1.0
  C  C1672  1  0.200800  0.551200  0.031700  1.0
  C  C1673  1  0.292700  0.040000  0.016400  1.0
  C  C1674  1  0.207300  0.960000  0.516400  1.0
  C  C1675  1  0.707300  0.540000  0.483600  1.0
  C  C1676  1  0.792700  0.460000  0.983600  1.0
  C  C1677  1  0.707300  0.960000  0.983600  1.0
  C  C1678  1  0.792700  0.040000  0.483600  1.0
  C  C1679  1  0.292700  0.460000  0.516400  1.0
  C  C1680  1  0.207300  0.540000  0.016400  1.0
  C  C1681  1  0.279400  0.015400  0.039200  1.0
  C  C1682  1  0.220600  0.984600  0.539200  1.0
  C  C1683  1  0.720600  0.515400  0.460800  1.0
  C  C1684  1  0.779400  0.484600  0.960800  1.0
  C  C1685  1  0.720600  0.984600  0.960800  1.0
  C  C1686  1  0.779400  0.015400  0.460800  1.0
  C  C1687  1  0.279400  0.484600  0.539200  1.0
  C  C1688  1  0.220600  0.515400  0.039200  1.0
  C  C1689  1  0.304100  0.036000  0.037100  1.0
  C  C1690  1  0.195900  0.964000  0.537100  1.0
  C  C1691  1  0.695900  0.536000  0.462900  1.0
  C  C1692  1  0.804100  0.464000  0.962900  1.0
  C  C1693  1  0.695900  0.964000  0.962900  1.0
  C  C1694  1  0.804100  0.036000  0.462900  1.0
  C  C1695  1  0.304100  0.464000  0.537100  1.0
  C  C1696  1  0.195900  0.536000  0.037100  1.0
  C  C1697  1  0.316500  0.039800  0.044100  1.0
  C  C1698  1  0.183500  0.960200  0.544100  1.0
  C  C1699  1  0.683500  0.539800  0.455900  1.0
  C  C1700  1  0.816500  0.460200  0.955900  1.0
  C  C1701  1  0.683500  0.960200  0.955900  1.0
  C  C1702  1  0.816500  0.039800  0.455900  1.0
  C  C1703  1  0.316500  0.460200  0.544100  1.0
  C  C1704  1  0.183500  0.539800  0.044100  1.0
  C  C1705  1  0.325200  0.026800  0.051000  1.0
  C  C1706  1  0.174800  0.973200  0.551000  1.0
  C  C1707  1  0.674800  0.526800  0.449000  1.0
  C  C1708  1  0.825200  0.473200  0.949000  1.0
  C  C1709  1  0.674800  0.973200  0.949000  1.0
  C  C1710  1  0.825200  0.026800  0.449000  1.0
  C  C1711  1  0.325200  0.473200  0.551000  1.0
  C  C1712  1  0.174800  0.526800  0.051000  1.0
  C  C1713  1  0.337800  0.034000  0.057400  1.0
  C  C1714  1  0.162200  0.966000  0.557400  1.0
  C  C1715  1  0.662200  0.534000  0.442600  1.0
  C  C1716  1  0.837800  0.466000  0.942600  1.0
  C  C1717  1  0.662200  0.966000  0.942600  1.0
  C  C1718  1  0.837800  0.034000  0.442600  1.0
  C  C1719  1  0.337800  0.466000  0.557400  1.0
  C  C1720  1  0.162200  0.534000  0.057400  1.0
  C  C1721  1  0.345300  0.022400  0.064200  1.0
  C  C1722  1  0.154700  0.977600  0.564200  1.0
  C  C1723  1  0.654700  0.522400  0.435800  1.0
  C  C1724  1  0.845300  0.477600  0.935800  1.0
  C  C1725  1  0.654700  0.977600  0.935800  1.0
  C  C1726  1  0.845300  0.022400  0.435800  1.0
  C  C1727  1  0.345300  0.477600  0.564200  1.0
  C  C1728  1  0.154700  0.522400  0.064200  1.0
  C  C1729  1  0.328400  0.997300  0.058800  1.0
  C  C1730  1  0.171600  0.002700  0.558800  1.0
  C  C1731  1  0.671600  0.497300  0.441200  1.0
  C  C1732  1  0.828400  0.502700  0.941200  1.0
  C  C1733  1  0.671600  0.002700  0.941200  1.0
  C  C1734  1  0.828400  0.997300  0.441200  1.0
  C  C1735  1  0.328400  0.502700  0.558800  1.0
  C  C1736  1  0.171600  0.497300  0.058800  1.0
  C  C1737  1  0.320800  0.008200  0.051800  1.0
  C  C1738  1  0.179200  0.991800  0.551800  1.0
  C  C1739  1  0.679200  0.508200  0.448200  1.0
  C  C1740  1  0.820800  0.491800  0.948200  1.0
  C  C1741  1  0.679200  0.991800  0.948200  1.0
  C  C1742  1  0.820800  0.008200  0.448200  1.0
  C  C1743  1  0.320800  0.491800  0.551800  1.0
  C  C1744  1  0.179200  0.508200  0.051800  1.0
  C  C1745  1  0.444000  0.919000  0.126900  1.0
  C  C1746  1  0.056000  0.081000  0.626900  1.0
  C  C1747  1  0.556000  0.419000  0.373100  1.0
  C  C1748  1  0.944000  0.581000  0.873100  1.0
  C  C1749  1  0.556000  0.081000  0.873100  1.0
  C  C1750  1  0.944000  0.919000  0.373100  1.0
  C  C1751  1  0.444000  0.581000  0.626900  1.0
  C  C1752  1  0.056000  0.419000  0.126900  1.0
  C  C1753  1  0.460200  0.919600  0.132000  1.0
  C  C1754  1  0.039800  0.080400  0.632000  1.0
  C  C1755  1  0.539800  0.419600  0.368000  1.0
  C  C1756  1  0.960200  0.580400  0.868000  1.0
  C  C1757  1  0.539800  0.080400  0.868000  1.0
  C  C1758  1  0.960200  0.919600  0.368000  1.0
  C  C1759  1  0.460200  0.580400  0.632000  1.0
  C  C1760  1  0.039800  0.419600  0.132000  1.0
  C  C1761  1  0.460900  0.951500  0.130800  1.0
  C  C1762  1  0.039100  0.048500  0.630800  1.0
  C  C1763  1  0.539100  0.451500  0.369200  1.0
  C  C1764  1  0.960900  0.548500  0.869200  1.0
  C  C1765  1  0.539100  0.048500  0.869200  1.0
  C  C1766  1  0.960900  0.951500  0.369200  1.0
  C  C1767  1  0.460900  0.548500  0.630800  1.0
  C  C1768  1  0.039100  0.451500  0.130800  1.0
  C  C1769  1  0.445000  0.951600  0.125400  1.0
  C  C1770  1  0.055000  0.048400  0.625400  1.0
  C  C1771  1  0.555000  0.451600  0.374600  1.0
  C  C1772  1  0.945000  0.548400  0.874600  1.0
  C  C1773  1  0.555000  0.048400  0.874600  1.0
  C  C1774  1  0.945000  0.951600  0.374600  1.0
  C  C1775  1  0.445000  0.548400  0.625400  1.0
  C  C1776  1  0.055000  0.451600  0.125400  1.0
  C  C1777  1  0.435900  0.935100  0.123400  1.0
  C  C1778  1  0.064100  0.064900  0.623400  1.0
  C  C1779  1  0.564100  0.435100  0.376600  1.0
  C  C1780  1  0.935900  0.564900  0.876600  1.0
  C  C1781  1  0.564100  0.064900  0.876600  1.0
  C  C1782  1  0.935900  0.935100  0.376600  1.0
  C  C1783  1  0.435900  0.564900  0.623400  1.0
  C  C1784  1  0.064100  0.435100  0.123400  1.0
  C  C1785  1  0.419900  0.935500  0.116700  1.0
  C  C1786  1  0.080100  0.064500  0.616700  1.0
  C  C1787  1  0.580100  0.435500  0.383300  1.0
  C  C1788  1  0.919900  0.564500  0.883300  1.0
  C  C1789  1  0.580100  0.064500  0.883300  1.0
  C  C1790  1  0.919900  0.935500  0.383300  1.0
  C  C1791  1  0.419900  0.564500  0.616700  1.0
  C  C1792  1  0.080100  0.435500  0.116700  1.0
  C  C1793  1  0.408600  0.921400  0.113700  1.0
  C  C1794  1  0.091400  0.078600  0.613700  1.0
  C  C1795  1  0.591400  0.421400  0.386300  1.0
  C  C1796  1  0.908600  0.578600  0.886300  1.0
  C  C1797  1  0.591400  0.078600  0.886300  1.0
  C  C1798  1  0.908600  0.921400  0.386300  1.0
  C  C1799  1  0.408600  0.578600  0.613700  1.0
  C  C1800  1  0.091400  0.421400  0.113700  1.0
  C  C1801  1  0.396000  0.897000  0.123000  1.0
  C  C1802  1  0.104000  0.103000  0.623000  1.0
  C  C1803  1  0.604000  0.397000  0.377000  1.0
  C  C1804  1  0.896000  0.603000  0.877000  1.0
  C  C1805  1  0.604000  0.103000  0.877000  1.0
  C  C1806  1  0.896000  0.897000  0.377000  1.0
  C  C1807  1  0.396000  0.603000  0.623000  1.0
  C  C1808  1  0.104000  0.397000  0.123000  1.0
  C  C1809  1  0.388000  0.904000  0.095000  1.0
  C  C1810  1  0.112000  0.096000  0.595000  1.0
  C  C1811  1  0.612000  0.404000  0.405000  1.0
  C  C1812  1  0.888000  0.596000  0.905000  1.0
  C  C1813  1  0.612000  0.096000  0.905000  1.0
  C  C1814  1  0.888000  0.904000  0.405000  1.0
  C  C1815  1  0.388000  0.596000  0.595000  1.0
  C  C1816  1  0.112000  0.404000  0.095000  1.0
  C  C1817  1  0.396100  0.926400  0.106800  1.0
  C  C1818  1  0.103900  0.073600  0.606800  1.0
  C  C1819  1  0.603900  0.426400  0.393200  1.0
  C  C1820  1  0.896100  0.573600  0.893200  1.0
  C  C1821  1  0.603900  0.073600  0.893200  1.0
  C  C1822  1  0.896100  0.926400  0.393200  1.0
  C  C1823  1  0.396100  0.573600  0.606800  1.0
  C  C1824  1  0.103900  0.426400  0.106800  1.0
  C  C1825  1  0.397200  0.944600  0.104000  1.0
  C  C1826  1  0.102800  0.055400  0.604000  1.0
  C  C1827  1  0.602800  0.444600  0.396000  1.0
  C  C1828  1  0.897200  0.555400  0.896000  1.0
  C  C1829  1  0.602800  0.055400  0.896000  1.0
  C  C1830  1  0.897200  0.944600  0.396000  1.0
  C  C1831  1  0.397200  0.555400  0.604000  1.0
  C  C1832  1  0.102800  0.444600  0.104000  1.0
  C  C1833  1  0.384900  0.954800  0.097300  1.0
  C  C1834  1  0.115100  0.045200  0.597300  1.0
  C  C1835  1  0.615100  0.454800  0.402700  1.0
  C  C1836  1  0.884900  0.545200  0.902700  1.0
  C  C1837  1  0.615100  0.045200  0.902700  1.0
  C  C1838  1  0.884900  0.954800  0.402700  1.0
  C  C1839  1  0.384900  0.545200  0.597300  1.0
  C  C1840  1  0.115100  0.454800  0.097300  1.0
  C  C1841  1  0.387600  0.973700  0.095800  1.0
  C  C1842  1  0.112400  0.026300  0.595800  1.0
  C  C1843  1  0.612400  0.473700  0.404200  1.0
  C  C1844  1  0.887600  0.526300  0.904200  1.0
  C  C1845  1  0.612400  0.026300  0.904200  1.0
  C  C1846  1  0.887600  0.973700  0.404200  1.0
  C  C1847  1  0.387600  0.526300  0.595800  1.0
  C  C1848  1  0.112400  0.473700  0.095800  1.0
  C  C1849  1  0.377700  0.982700  0.088800  1.0
  C  C1850  1  0.122300  0.017300  0.588800  1.0
  C  C1851  1  0.622300  0.482700  0.411200  1.0
  C  C1852  1  0.877700  0.517300  0.911200  1.0
  C  C1853  1  0.622300  0.017300  0.911200  1.0
  C  C1854  1  0.877700  0.982700  0.411200  1.0
  C  C1855  1  0.377700  0.517300  0.588800  1.0
  C  C1856  1  0.122300  0.482700  0.088800  1.0
  C  C1857  1  0.362400  0.955700  0.084600  1.0
  C  C1858  1  0.137600  0.044300  0.584600  1.0
  C  C1859  1  0.637600  0.455700  0.415400  1.0
  C  C1860  1  0.862400  0.544300  0.915400  1.0
  C  C1861  1  0.637600  0.044300  0.915400  1.0
  C  C1862  1  0.862400  0.955700  0.415400  1.0
  C  C1863  1  0.362400  0.544300  0.584600  1.0
  C  C1864  1  0.137600  0.455700  0.084600  1.0
  C  C1865  1  0.372100  0.946200  0.091300  1.0
  C  C1866  1  0.127900  0.053800  0.591300  1.0
  C  C1867  1  0.627900  0.446200  0.408700  1.0
  C  C1868  1  0.872100  0.553800  0.908700  1.0
  C  C1869  1  0.627900  0.053800  0.908700  1.0
  C  C1870  1  0.872100  0.946200  0.408700  1.0
  C  C1871  1  0.372100  0.553800  0.591300  1.0
  C  C1872  1  0.127900  0.446200  0.091300  1.0
  C  C1873  1  0.389800  0.963400  0.055600  1.0
  C  C1874  1  0.110200  0.036600  0.555600  1.0
  C  C1875  1  0.610200  0.463400  0.444400  1.0
  C  C1876  1  0.889800  0.536600  0.944400  1.0
  C  C1877  1  0.610200  0.036600  0.944400  1.0
  C  C1878  1  0.889800  0.963400  0.444400  1.0
  C  C1879  1  0.389800  0.536600  0.555600  1.0
  C  C1880  1  0.110200  0.463400  0.055600  1.0
  C  C1881  1  0.374200  0.967800  0.060800  1.0
  C  C1882  1  0.125800  0.032200  0.560800  1.0
  C  C1883  1  0.625800  0.467800  0.439200  1.0
  C  C1884  1  0.874200  0.532200  0.939200  1.0
  C  C1885  1  0.625800  0.032200  0.939200  1.0
  C  C1886  1  0.874200  0.967800  0.439200  1.0
  C  C1887  1  0.374200  0.532200  0.560800  1.0
  C  C1888  1  0.125800  0.467800  0.060800  1.0
  C  C1889  1  0.387300  0.995500  0.065400  1.0
  C  C1890  1  0.112700  0.004500  0.565400  1.0
  C  C1891  1  0.612700  0.495500  0.434600  1.0
  C  C1892  1  0.887300  0.504500  0.934600  1.0
  C  C1893  1  0.612700  0.004500  0.934600  1.0
  C  C1894  1  0.887300  0.995500  0.434600  1.0
  C  C1895  1  0.387300  0.504500  0.565400  1.0
  C  C1896  1  0.112700  0.495500  0.065400  1.0
  C  C1897  1  0.403300  0.991600  0.060500  1.0
  C  C1898  1  0.096700  0.008400  0.560500  1.0
  C  C1899  1  0.596700  0.491600  0.439500  1.0
  C  C1900  1  0.903300  0.508400  0.939500  1.0
  C  C1901  1  0.596700  0.008400  0.939500  1.0
  C  C1902  1  0.903300  0.991600  0.439500  1.0
  C  C1903  1  0.403300  0.508400  0.560500  1.0
  C  C1904  1  0.096700  0.491600  0.060500  1.0
  C  C1905  1  0.405000  0.975200  0.055400  1.0
  C  C1906  1  0.095000  0.024800  0.555400  1.0
  C  C1907  1  0.595000  0.475200  0.444600  1.0
  C  C1908  1  0.905000  0.524800  0.944600  1.0
  C  C1909  1  0.595000  0.024800  0.944600  1.0
  C  C1910  1  0.905000  0.975200  0.444600  1.0
  C  C1911  1  0.405000  0.524800  0.555400  1.0
  C  C1912  1  0.095000  0.475200  0.055400  1.0
  C  C1913  1  0.423500  0.969600  0.051700  1.0
  C  C1914  1  0.076500  0.030400  0.551700  1.0
  C  C1915  1  0.576500  0.469600  0.448300  1.0
  C  C1916  1  0.923500  0.530400  0.948300  1.0
  C  C1917  1  0.576500  0.030400  0.948300  1.0
  C  C1918  1  0.923500  0.969600  0.448300  1.0
  C  C1919  1  0.423500  0.530400  0.551700  1.0
  C  C1920  1  0.076500  0.469600  0.051700  1.0
  C  C1921  1  0.427600  0.954400  0.046200  1.0
  C  C1922  1  0.072400  0.045600  0.546200  1.0
  C  C1923  1  0.572400  0.454400  0.453800  1.0
  C  C1924  1  0.927600  0.545600  0.953800  1.0
  C  C1925  1  0.572400  0.045600  0.953800  1.0
  C  C1926  1  0.927600  0.954400  0.453800  1.0
  C  C1927  1  0.427600  0.545600  0.546200  1.0
  C  C1928  1  0.072400  0.454400  0.046200  1.0
  C  C1929  1  0.407200  0.944300  0.034400  1.0
  C  C1930  1  0.092800  0.055700  0.534400  1.0
  C  C1931  1  0.592800  0.444300  0.465600  1.0
  C  C1932  1  0.907200  0.555700  0.965600  1.0
  C  C1933  1  0.592800  0.055700  0.965600  1.0
  C  C1934  1  0.907200  0.944300  0.465600  1.0
  C  C1935  1  0.407200  0.555700  0.534400  1.0
  C  C1936  1  0.092800  0.444300  0.034400  1.0
  C  C1937  1  0.456400  0.923000  0.042900  1.0
  C  C1938  1  0.043600  0.077000  0.542900  1.0
  C  C1939  1  0.543600  0.423000  0.457100  1.0
  C  C1940  1  0.956400  0.577000  0.957100  1.0
  C  C1941  1  0.543600  0.077000  0.957100  1.0
  C  C1942  1  0.956400  0.923000  0.457100  1.0
  C  C1943  1  0.456400  0.577000  0.542900  1.0
  C  C1944  1  0.043600  0.423000  0.042900  1.0
  C  C1945  1  0.445900  0.953200  0.043400  1.0
  C  C1946  1  0.054100  0.046800  0.543400  1.0
  C  C1947  1  0.554100  0.453200  0.456600  1.0
  C  C1948  1  0.945900  0.546800  0.956600  1.0
  C  C1949  1  0.554100  0.046800  0.956600  1.0
  C  C1950  1  0.945900  0.953200  0.456600  1.0
  C  C1951  1  0.445900  0.546800  0.543400  1.0
  C  C1952  1  0.054100  0.453200  0.043400  1.0
  C  C1953  1  0.457200  0.966700  0.047000  1.0
  C  C1954  1  0.042800  0.033300  0.547000  1.0
  C  C1955  1  0.542800  0.466700  0.453000  1.0
  C  C1956  1  0.957200  0.533300  0.953000  1.0
  C  C1957  1  0.542800  0.033300  0.953000  1.0
  C  C1958  1  0.957200  0.966700  0.453000  1.0
  C  C1959  1  0.457200  0.533300  0.547000  1.0
  C  C1960  1  0.042800  0.466700  0.047000  1.0
  C  C1961  1  0.477700  0.968700  0.046100  1.0
  C  C1962  1  0.022300  0.031300  0.546100  1.0
  C  C1963  1  0.522300  0.468700  0.453900  1.0
  C  C1964  1  0.977700  0.531300  0.953900  1.0
  C  C1965  1  0.522300  0.031300  0.953900  1.0
  C  C1966  1  0.977700  0.968700  0.453900  1.0
  C  C1967  1  0.477700  0.531300  0.546100  1.0
  C  C1968  1  0.022300  0.468700  0.046100  1.0
  C  C1969  1  0.486400  0.985000  0.048900  1.0
  C  C1970  1  0.013600  0.015000  0.548900  1.0
  C  C1971  1  0.513600  0.485000  0.451100  1.0
  C  C1972  1  0.986400  0.515000  0.951100  1.0
  C  C1973  1  0.513600  0.015000  0.951100  1.0
  C  C1974  1  0.986400  0.985000  0.451100  1.0
  C  C1975  1  0.486400  0.515000  0.548900  1.0
  C  C1976  1  0.013600  0.485000  0.048900  1.0
  C  C1977  1  0.505200  0.987200  0.047900  1.0
  C  C1978  1  0.994800  0.012800  0.547900  1.0
  C  C1979  1  0.494800  0.487200  0.452100  1.0
  C  C1980  1  0.005200  0.512800  0.952100  1.0
  C  C1981  1  0.494800  0.012800  0.952100  1.0
  C  C1982  1  0.005200  0.987200  0.452100  1.0
  C  C1983  1  0.505200  0.512800  0.547900  1.0
  C  C1984  1  0.994800  0.487200  0.047900  1.0
  C  C1985  1  0.508100  0.957700  0.041900  1.0
  C  C1986  1  0.991900  0.042300  0.541900  1.0
  C  C1987  1  0.491900  0.457700  0.458100  1.0
  C  C1988  1  0.008100  0.542300  0.958100  1.0
  C  C1989  1  0.491900  0.042300  0.958100  1.0
  C  C1990  1  0.008100  0.957700  0.458100  1.0
  C  C1991  1  0.508100  0.542300  0.541900  1.0
  C  C1992  1  0.991900  0.457700  0.041900  1.0
  C  C1993  1  0.489200  0.954900  0.042500  1.0
  C  C1994  1  0.010800  0.045100  0.542500  1.0
  C  C1995  1  0.510800  0.454900  0.457500  1.0
  C  C1996  1  0.989200  0.545100  0.957500  1.0
  C  C1997  1  0.510800  0.045100  0.957500  1.0
  C  C1998  1  0.989200  0.954900  0.457500  1.0
  C  C1999  1  0.489200  0.545100  0.542500  1.0
  C  C2000  1  0.010800  0.454900  0.042500  1.0
  C  C2001  1  0.535400  0.993100  0.017000  1.0
  C  C2002  1  0.964600  0.006900  0.517000  1.0
  C  C2003  1  0.464600  0.493100  0.483000  1.0
  C  C2004  1  0.035400  0.506900  0.983000  1.0
  C  C2005  1  0.464600  0.006900  0.983000  1.0
  C  C2006  1  0.035400  0.993100  0.483000  1.0
  C  C2007  1  0.535400  0.506900  0.517000  1.0
  C  C2008  1  0.964600  0.493100  0.017000  1.0
  C  C2009  1  0.540100  0.983700  0.025100  1.0
  C  C2010  1  0.959900  0.016300  0.525100  1.0
  C  C2011  1  0.459900  0.483700  0.474900  1.0
  C  C2012  1  0.040100  0.516300  0.974900  1.0
  C  C2013  1  0.459900  0.016300  0.974900  1.0
  C  C2014  1  0.040100  0.983700  0.474900  1.0
  C  C2015  1  0.540100  0.516300  0.525100  1.0
  C  C2016  1  0.959900  0.483700  0.025100  1.0
  C  C2017  1  0.536800  0.010300  0.033900  1.0
  C  C2018  1  0.963200  0.989700  0.533900  1.0
  C  C2019  1  0.463200  0.510300  0.466100  1.0
  C  C2020  1  0.036800  0.489700  0.966100  1.0
  C  C2021  1  0.463200  0.989700  0.966100  1.0
  C  C2022  1  0.036800  0.010300  0.466100  1.0
  C  C2023  1  0.536800  0.489700  0.533900  1.0
  C  C2024  1  0.963200  0.510300  0.033900  1.0
  C  C2025  1  0.532000  0.020400  0.026000  1.0
  C  C2026  1  0.968000  0.979600  0.526000  1.0
  C  C2027  1  0.468000  0.520400  0.474000  1.0
  C  C2028  1  0.032000  0.479600  0.974000  1.0
  C  C2029  1  0.468000  0.979600  0.974000  1.0
  C  C2030  1  0.032000  0.020400  0.474000  1.0
  C  C2031  1  0.532000  0.479600  0.526000  1.0
  C  C2032  1  0.968000  0.520400  0.026000  1.0
  C  C2033  1  0.531500  0.011900  0.017200  1.0
  C  C2034  1  0.968500  0.988100  0.517200  1.0
  C  C2035  1  0.468500  0.511900  0.482800  1.0
  C  C2036  1  0.031500  0.488100  0.982800  1.0
  C  C2037  1  0.468500  0.988100  0.982800  1.0
  C  C2038  1  0.031500  0.011900  0.482800  1.0
  C  C2039  1  0.531500  0.488100  0.517200  1.0
  C  C2040  1  0.968500  0.511900  0.017200  1.0
  C  C2041  1  0.526400  0.023000  0.008600  1.0
  C  C2042  1  0.973600  0.977000  0.508600  1.0
  C  C2043  1  0.473600  0.523000  0.491400  1.0
  C  C2044  1  0.026400  0.477000  0.991400  1.0
  C  C2045  1  0.473600  0.977000  0.991400  1.0
  C  C2046  1  0.026400  0.023000  0.491400  1.0
  C  C2047  1  0.526400  0.477000  0.508600  1.0
  C  C2048  1  0.973600  0.523000  0.008600  1.0
  C  C2049  1  0.526500  0.017500  0.999400  1.0
  C  C2050  1  0.973500  0.982500  0.499400  1.0
  C  C2051  1  0.473500  0.517500  0.500600  1.0
  C  C2052  1  0.026500  0.482500  0.000600  1.0
  C  C2053  1  0.473500  0.982500  0.000600  1.0
  C  C2054  1  0.026500  0.017500  0.500600  1.0
  C  C2055  1  0.526500  0.482500  0.499400  1.0
  C  C2056  1  0.973500  0.517500  0.999400  1.0
  C  C2057  1  0.523600  0.986300  0.994300  1.0
  C  C2058  1  0.976400  0.013700  0.494300  1.0
  C  C2059  1  0.476400  0.486300  0.505700  1.0
  C  C2060  1  0.023600  0.513700  0.005700  1.0
  C  C2061  1  0.476400  0.013700  0.005700  1.0
  C  C2062  1  0.023600  0.986300  0.505700  1.0
  C  C2063  1  0.523600  0.513700  0.494300  1.0
  C  C2064  1  0.976400  0.486300  0.994300  1.0
  C  C2065  1  0.532500  0.022000  0.978500  1.0
  C  C2066  1  0.967500  0.978000  0.478500  1.0
  C  C2067  1  0.467500  0.522000  0.521500  1.0
  C  C2068  1  0.032500  0.478000  0.021500  1.0
  C  C2069  1  0.467500  0.978000  0.021500  1.0
  C  C2070  1  0.032500  0.022000  0.521500  1.0
  C  C2071  1  0.532500  0.478000  0.478500  1.0
  C  C2072  1  0.967500  0.522000  0.978500  1.0
  C  C2073  1  0.518800  0.030200  0.993200  1.0
  C  C2074  1  0.981200  0.969800  0.493200  1.0
  C  C2075  1  0.481200  0.530200  0.506800  1.0
  C  C2076  1  0.018800  0.469800  0.006800  1.0
  C  C2077  1  0.481200  0.969800  0.006800  1.0
  C  C2078  1  0.018800  0.030200  0.506800  1.0
  C  C2079  1  0.518800  0.469800  0.493200  1.0
  C  C2080  1  0.981200  0.530200  0.993200  1.0
  C  C2081  1  0.512500  0.046000  0.997430  1.0
  C  C2082  1  0.987500  0.954000  0.497430  1.0
  C  C2083  1  0.487500  0.546000  0.502570  1.0
  C  C2084  1  0.012500  0.454000  0.002570  1.0
  C  C2085  1  0.487500  0.954000  0.002570  1.0
  C  C2086  1  0.012500  0.046000  0.502570  1.0
  C  C2087  1  0.512500  0.454000  0.497430  1.0
  C  C2088  1  0.987500  0.546000  0.997430  1.0
  C  C2089  1  0.504800  0.062800  0.992800  1.0
  C  C2090  1  0.995200  0.937200  0.492800  1.0
  C  C2091  1  0.495200  0.562800  0.507200  1.0
  C  C2092  1  0.004800  0.437200  0.007200  1.0
  C  C2093  1  0.495200  0.937200  0.007200  1.0
  C  C2094  1  0.004800  0.062800  0.507200  1.0
  C  C2095  1  0.504800  0.437200  0.492800  1.0
  C  C2096  1  0.995200  0.562800  0.992800  1.0
  C  C2097  1  0.502400  0.078700  0.998200  1.0
  C  C2098  1  0.997600  0.921300  0.498200  1.0
  C  C2099  1  0.497600  0.578700  0.501800  1.0
  C  C2100  1  0.002400  0.421300  0.001800  1.0
  C  C2101  1  0.497600  0.921300  0.001800  1.0
  C  C2102  1  0.002400  0.078700  0.501800  1.0
  C  C2103  1  0.502400  0.421300  0.498200  1.0
  C  C2104  1  0.997600  0.578700  0.998200  1.0
  C  C2105  1  0.495600  0.094700  0.994100  1.0
  C  C2106  1  0.004400  0.905300  0.494100  1.0
  C  C2107  1  0.504400  0.594700  0.505900  1.0
  C  C2108  1  0.995600  0.405300  0.005900  1.0
  C  C2109  1  0.504400  0.905300  0.005900  1.0
  C  C2110  1  0.995600  0.094700  0.505900  1.0
  C  C2111  1  0.495600  0.405300  0.494100  1.0
  C  C2112  1  0.004400  0.594700  0.994100  1.0
  C  C2113  1  0.495200  0.080600  0.979400  1.0
  C  C2114  1  0.004800  0.919400  0.479400  1.0
  C  C2115  1  0.504800  0.580600  0.520600  1.0
  C  C2116  1  0.995200  0.419400  0.020600  1.0
  C  C2117  1  0.504800  0.919400  0.020600  1.0
  C  C2118  1  0.995200  0.080600  0.520600  1.0
  C  C2119  1  0.495200  0.419400  0.479400  1.0
  C  C2120  1  0.004800  0.580600  0.979400  1.0
  C  C2121  1  0.501400  0.064100  0.983200  1.0
  C  C2122  1  0.998600  0.935900  0.483200  1.0
  C  C2123  1  0.498600  0.564100  0.516800  1.0
  C  C2124  1  0.001400  0.435900  0.016800  1.0
  C  C2125  1  0.498600  0.935900  0.016800  1.0
  C  C2126  1  0.001400  0.064100  0.516800  1.0
  C  C2127  1  0.501400  0.435900  0.483200  1.0
  C  C2128  1  0.998600  0.564100  0.983200  1.0
  C  C2129  1  0.540600  0.935500  0.065300  1.0
  C  C2130  1  0.959400  0.064500  0.565300  1.0
  C  C2131  1  0.459400  0.435500  0.434700  1.0
  C  C2132  1  0.040600  0.564500  0.934700  1.0
  C  C2133  1  0.459400  0.064500  0.934700  1.0
  C  C2134  1  0.040600  0.935500  0.434700  1.0
  C  C2135  1  0.540600  0.564500  0.565300  1.0
  C  C2136  1  0.959400  0.435500  0.065300  1.0
  C  C2137  1  0.542700  0.944800  0.056900  1.0
  C  C2138  1  0.957300  0.055200  0.556900  1.0
  C  C2139  1  0.457300  0.444800  0.443100  1.0
  C  C2140  1  0.042700  0.555200  0.943100  1.0
  C  C2141  1  0.457300  0.055200  0.943100  1.0
  C  C2142  1  0.042700  0.944800  0.443100  1.0
  C  C2143  1  0.542700  0.555200  0.556900  1.0
  C  C2144  1  0.957300  0.444800  0.056900  1.0
  C  C2145  1  0.542800  0.973200  0.064400  1.0
  C  C2146  1  0.957200  0.026800  0.564400  1.0
  C  C2147  1  0.457200  0.473200  0.435600  1.0
  C  C2148  1  0.042800  0.526800  0.935600  1.0
  C  C2149  1  0.457200  0.026800  0.935600  1.0
  C  C2150  1  0.042800  0.973200  0.435600  1.0
  C  C2151  1  0.542800  0.526800  0.564400  1.0
  C  C2152  1  0.957200  0.473200  0.064400  1.0
  C  C2153  1  0.540200  0.964600  0.073000  1.0
  C  C2154  1  0.959800  0.035400  0.573000  1.0
  C  C2155  1  0.459800  0.464600  0.427000  1.0
  C  C2156  1  0.040200  0.535400  0.927000  1.0
  C  C2157  1  0.459800  0.035400  0.927000  1.0
  C  C2158  1  0.040200  0.964600  0.427000  1.0
  C  C2159  1  0.540200  0.535400  0.573000  1.0
  C  C2160  1  0.959800  0.464600  0.073000  1.0
  C  C2161  1  0.539400  0.945500  0.073700  1.0
  C  C2162  1  0.960600  0.054500  0.573700  1.0
  C  C2163  1  0.460600  0.445500  0.426300  1.0
  C  C2164  1  0.039400  0.554500  0.926300  1.0
  C  C2165  1  0.460600  0.054500  0.926300  1.0
  C  C2166  1  0.039400  0.945500  0.426300  1.0
  C  C2167  1  0.539400  0.554500  0.573700  1.0
  C  C2168  1  0.960600  0.445500  0.073700  1.0
  C  C2169  1  0.535000  0.936700  0.082880  1.0
  C  C2170  1  0.965000  0.063300  0.582880  1.0
  C  C2171  1  0.465000  0.436700  0.417120  1.0
  C  C2172  1  0.035000  0.563300  0.917120  1.0
  C  C2173  1  0.465000  0.063300  0.917120  1.0
  C  C2174  1  0.035000  0.936700  0.417120  1.0
  C  C2175  1  0.535000  0.563300  0.582880  1.0
  C  C2176  1  0.965000  0.436700  0.082880  1.0
  C  C2177  1  0.536900  0.918500  0.085200  1.0
  C  C2178  1  0.963100  0.081500  0.585200  1.0
  C  C2179  1  0.463100  0.418500  0.414800  1.0
  C  C2180  1  0.036900  0.581500  0.914800  1.0
  C  C2181  1  0.463100  0.081500  0.914800  1.0
  C  C2182  1  0.036900  0.918500  0.414800  1.0
  C  C2183  1  0.536900  0.581500  0.585200  1.0
  C  C2184  1  0.963100  0.418500  0.085200  1.0
  C  C2185  1  0.527900  0.893800  0.075800  1.0
  C  C2186  1  0.972100  0.106200  0.575800  1.0
  C  C2187  1  0.472100  0.393800  0.424200  1.0
  C  C2188  1  0.027900  0.606200  0.924200  1.0
  C  C2189  1  0.472100  0.106200  0.924200  1.0
  C  C2190  1  0.027900  0.893800  0.424200  1.0
  C  C2191  1  0.527900  0.606200  0.575800  1.0
  C  C2192  1  0.972100  0.393800  0.075800  1.0
  C  C2193  1  0.519600  0.884700  0.094600  1.0
  C  C2194  1  0.980400  0.115300  0.594600  1.0
  C  C2195  1  0.480400  0.384700  0.405400  1.0
  C  C2196  1  0.019600  0.615300  0.905400  1.0
  C  C2197  1  0.480400  0.115300  0.905400  1.0
  C  C2198  1  0.019600  0.884700  0.405400  1.0
  C  C2199  1  0.519600  0.615300  0.594600  1.0
  C  C2200  1  0.980400  0.384700  0.094600  1.0
  C  C2201  1  0.532300  0.914300  0.094400  1.0
  C  C2202  1  0.967700  0.085700  0.594400  1.0
  C  C2203  1  0.467700  0.414300  0.405600  1.0
  C  C2204  1  0.032300  0.585700  0.905600  1.0
  C  C2205  1  0.467700  0.085700  0.905600  1.0
  C  C2206  1  0.032300  0.914300  0.405600  1.0
  C  C2207  1  0.532300  0.585700  0.594400  1.0
  C  C2208  1  0.967700  0.414300  0.094400  1.0
  C  C2209  1  0.527000  0.929100  0.099780  1.0
  C  C2210  1  0.973000  0.070900  0.599780  1.0
  C  C2211  1  0.473000  0.429100  0.400220  1.0
  C  C2212  1  0.027000  0.570900  0.900220  1.0
  C  C2213  1  0.473000  0.070900  0.900220  1.0
  C  C2214  1  0.027000  0.929100  0.400220  1.0
  C  C2215  1  0.527000  0.570900  0.599780  1.0
  C  C2216  1  0.973000  0.429100  0.099780  1.0
  C  C2217  1  0.519600  0.929400  0.109600  1.0
  C  C2218  1  0.980400  0.070600  0.609600  1.0
  C  C2219  1  0.480400  0.429400  0.390400  1.0
  C  C2220  1  0.019600  0.570600  0.890400  1.0
  C  C2221  1  0.480400  0.070600  0.890400  1.0
  C  C2222  1  0.019600  0.929400  0.390400  1.0
  C  C2223  1  0.519600  0.570600  0.609600  1.0
  C  C2224  1  0.980400  0.429400  0.109600  1.0
  C  C2225  1  0.518200  0.946100  0.114400  1.0
  C  C2226  1  0.981800  0.053900  0.614400  1.0
  C  C2227  1  0.481800  0.446100  0.385600  1.0
  C  C2228  1  0.018200  0.553900  0.885600  1.0
  C  C2229  1  0.481800  0.053900  0.885600  1.0
  C  C2230  1  0.018200  0.946100  0.385600  1.0
  C  C2231  1  0.518200  0.553900  0.614400  1.0
  C  C2232  1  0.981800  0.446100  0.114400  1.0
  C  C2233  1  0.509900  0.947100  0.123200  1.0
  C  C2234  1  0.990100  0.052900  0.623200  1.0
  C  C2235  1  0.490100  0.447100  0.376800  1.0
  C  C2236  1  0.009900  0.552900  0.876800  1.0
  C  C2237  1  0.490100  0.052900  0.876800  1.0
  C  C2238  1  0.009900  0.947100  0.376800  1.0
  C  C2239  1  0.509900  0.552900  0.623200  1.0
  C  C2240  1  0.990100  0.447100  0.123200  1.0
  C  C2241  1  0.505300  0.915500  0.123300  1.0
  C  C2242  1  0.994700  0.084500  0.623300  1.0
  C  C2243  1  0.494700  0.415500  0.376700  1.0
  C  C2244  1  0.005300  0.584500  0.876700  1.0
  C  C2245  1  0.494700  0.084500  0.876700  1.0
  C  C2246  1  0.005300  0.915500  0.376700  1.0
  C  C2247  1  0.505300  0.584500  0.623300  1.0
  C  C2248  1  0.994700  0.415500  0.123300  1.0
  C  C2249  1  0.513100  0.913800  0.114400  1.0
  C  C2250  1  0.986900  0.086200  0.614400  1.0
  C  C2251  1  0.486900  0.413800  0.385600  1.0
  C  C2252  1  0.013100  0.586200  0.885600  1.0
  C  C2253  1  0.486900  0.086200  0.885600  1.0
  C  C2254  1  0.013100  0.913800  0.385600  1.0
  C  C2255  1  0.513100  0.586200  0.614400  1.0
  C  C2256  1  0.986900  0.413800  0.114400  1.0
  C  C2257  1  0.435900  0.977000  0.210400  1.0
  C  C2258  1  0.064100  0.023000  0.710400  1.0
  C  C2259  1  0.564100  0.477000  0.289600  1.0
  C  C2260  1  0.935900  0.523000  0.789600  1.0
  C  C2261  1  0.564100  0.023000  0.789600  1.0
  C  C2262  1  0.935900  0.977000  0.289600  1.0
  C  C2263  1  0.435900  0.523000  0.710400  1.0
  C  C2264  1  0.064100  0.477000  0.210400  1.0
  C  C2265  1  0.429400  0.990400  0.216400  1.0
  C  C2266  1  0.070600  0.009600  0.716400  1.0
  C  C2267  1  0.570600  0.490400  0.283600  1.0
  C  C2268  1  0.929400  0.509600  0.783600  1.0
  C  C2269  1  0.570600  0.009600  0.783600  1.0
  C  C2270  1  0.929400  0.990400  0.283600  1.0
  C  C2271  1  0.429400  0.509600  0.716400  1.0
  C  C2272  1  0.070600  0.490400  0.216400  1.0
  C  C2273  1  0.433100  0.012900  0.205000  1.0
  C  C2274  1  0.066900  0.987100  0.705000  1.0
  C  C2275  1  0.566900  0.512900  0.295000  1.0
  C  C2276  1  0.933100  0.487100  0.795000  1.0
  C  C2277  1  0.566900  0.987100  0.795000  1.0
  C  C2278  1  0.933100  0.012900  0.295000  1.0
  C  C2279  1  0.433100  0.487100  0.705000  1.0
  C  C2280  1  0.066900  0.512900  0.205000  1.0
  C  C2281  1  0.439700  0.999900  0.198700  1.0
  C  C2282  1  0.060300  0.000100  0.698700  1.0
  C  C2283  1  0.560300  0.499900  0.301300  1.0
  C  C2284  1  0.939700  0.500100  0.801300  1.0
  C  C2285  1  0.560300  0.000100  0.801300  1.0
  C  C2286  1  0.939700  0.999900  0.301300  1.0
  C  C2287  1  0.439700  0.500100  0.698700  1.0
  C  C2288  1  0.060300  0.499900  0.198700  1.0
  C  C2289  1  0.441300  0.981400  0.201200  1.0
  C  C2290  1  0.058700  0.018600  0.701200  1.0
  C  C2291  1  0.558700  0.481400  0.298800  1.0
  C  C2292  1  0.941300  0.518600  0.798800  1.0
  C  C2293  1  0.558700  0.018600  0.798800  1.0
  C  C2294  1  0.941300  0.981400  0.298800  1.0
  C  C2295  1  0.441300  0.518600  0.701200  1.0
  C  C2296  1  0.058700  0.481400  0.201200  1.0
  C  C2297  1  0.448300  0.967600  0.194170  1.0
  C  C2298  1  0.051700  0.032400  0.694170  1.0
  C  C2299  1  0.551700  0.467600  0.305830  1.0
  C  C2300  1  0.948300  0.532400  0.805830  1.0
  C  C2301  1  0.551700  0.032400  0.805830  1.0
  C  C2302  1  0.948300  0.967600  0.305830  1.0
  C  C2303  1  0.448300  0.532400  0.694170  1.0
  C  C2304  1  0.051700  0.467600  0.194170  1.0
  C  C2305  1  0.451000  0.949000  0.195200  1.0
  C  C2306  1  0.049000  0.051000  0.695200  1.0
  C  C2307  1  0.549000  0.449000  0.304800  1.0
  C  C2308  1  0.951000  0.551000  0.804800  1.0
  C  C2309  1  0.549000  0.051000  0.804800  1.0
  C  C2310  1  0.951000  0.949000  0.304800  1.0
  C  C2311  1  0.451000  0.551000  0.695200  1.0
  C  C2312  1  0.049000  0.449000  0.195200  1.0
  C  C2313  1  0.435000  0.925000  0.203500  1.0
  C  C2314  1  0.065000  0.075000  0.703500  1.0
  C  C2315  1  0.565000  0.425000  0.296500  1.0
  C  C2316  1  0.935000  0.575000  0.796500  1.0
  C  C2317  1  0.565000  0.075000  0.796500  1.0
  C  C2318  1  0.935000  0.925000  0.296500  1.0
  C  C2319  1  0.435000  0.575000  0.703500  1.0
  C  C2320  1  0.065000  0.425000  0.203500  1.0
  C  C2321  1  0.448300  0.909400  0.185100  1.0
  C  C2322  1  0.051700  0.090600  0.685100  1.0
  C  C2323  1  0.551700  0.409400  0.314900  1.0
  C  C2324  1  0.948300  0.590600  0.814900  1.0
  C  C2325  1  0.551700  0.090600  0.814900  1.0
  C  C2326  1  0.948300  0.909400  0.314900  1.0
  C  C2327  1  0.448300  0.590600  0.685100  1.0
  C  C2328  1  0.051700  0.409400  0.185100  1.0
  C  C2329  1  0.458300  0.940300  0.187300  1.0
  C  C2330  1  0.041700  0.059700  0.687300  1.0
  C  C2331  1  0.541700  0.440300  0.312700  1.0
  C  C2332  1  0.958300  0.559700  0.812700  1.0
  C  C2333  1  0.541700  0.059700  0.812700  1.0
  C  C2334  1  0.958300  0.940300  0.312700  1.0
  C  C2335  1  0.458300  0.559700  0.687300  1.0
  C  C2336  1  0.041700  0.440300  0.187300  1.0
  C  C2337  1  0.461500  0.951800  0.179900  1.0
  C  C2338  1  0.038500  0.048200  0.679900  1.0
  C  C2339  1  0.538500  0.451800  0.320100  1.0
  C  C2340  1  0.961500  0.548200  0.820100  1.0
  C  C2341  1  0.538500  0.048200  0.820100  1.0
  C  C2342  1  0.961500  0.951800  0.320100  1.0
  C  C2343  1  0.461500  0.548200  0.679900  1.0
  C  C2344  1  0.038500  0.451800  0.179900  1.0
  C  C2345  1  0.468200  0.946700  0.170200  1.0
  C  C2346  1  0.031800  0.053300  0.670200  1.0
  C  C2347  1  0.531800  0.446700  0.329800  1.0
  C  C2348  1  0.968200  0.553300  0.829800  1.0
  C  C2349  1  0.531800  0.053300  0.829800  1.0
  C  C2350  1  0.968200  0.946700  0.329800  1.0
  C  C2351  1  0.468200  0.553300  0.670200  1.0
  C  C2352  1  0.031800  0.446700  0.170200  1.0
  C  C2353  1  0.471300  0.960400  0.163500  1.0
  C  C2354  1  0.028700  0.039600  0.663500  1.0
  C  C2355  1  0.528700  0.460400  0.336500  1.0
  C  C2356  1  0.971300  0.539600  0.836500  1.0
  C  C2357  1  0.528700  0.039600  0.836500  1.0
  C  C2358  1  0.971300  0.960400  0.336500  1.0
  C  C2359  1  0.471300  0.539600  0.663500  1.0
  C  C2360  1  0.028700  0.460400  0.163500  1.0
  C  C2361  1  0.477600  0.955900  0.154700  1.0
  C  C2362  1  0.022400  0.044100  0.654700  1.0
  C  C2363  1  0.522400  0.455900  0.345300  1.0
  C  C2364  1  0.977600  0.544100  0.845300  1.0
  C  C2365  1  0.522400  0.044100  0.845300  1.0
  C  C2366  1  0.977600  0.955900  0.345300  1.0
  C  C2367  1  0.477600  0.544100  0.654700  1.0
  C  C2368  1  0.022400  0.455900  0.154700  1.0
  C  C2369  1  0.479100  0.925000  0.158700  1.0
  C  C2370  1  0.020900  0.075000  0.658700  1.0
  C  C2371  1  0.520900  0.425000  0.341300  1.0
  C  C2372  1  0.979100  0.575000  0.841300  1.0
  C  C2373  1  0.520900  0.075000  0.841300  1.0
  C  C2374  1  0.979100  0.925000  0.341300  1.0
  C  C2375  1  0.479100  0.575000  0.658700  1.0
  C  C2376  1  0.020900  0.425000  0.158700  1.0
  C  C2377  1  0.472500  0.928700  0.167600  1.0
  C  C2378  1  0.027500  0.071300  0.667600  1.0
  C  C2379  1  0.527500  0.428700  0.332400  1.0
  C  C2380  1  0.972500  0.571300  0.832400  1.0
  C  C2381  1  0.527500  0.071300  0.832400  1.0
  C  C2382  1  0.972500  0.928700  0.332400  1.0
  C  C2383  1  0.472500  0.571300  0.667600  1.0
  C  C2384  1  0.027500  0.428700  0.167600  1.0
  C  C2385  1  0.286200  0.029300  0.180000  1.0
  C  C2386  1  0.213800  0.970700  0.680000  1.0
  C  C2387  1  0.713800  0.529300  0.320000  1.0
  C  C2388  1  0.786200  0.470700  0.820000  1.0
  C  C2389  1  0.713800  0.970700  0.820000  1.0
  C  C2390  1  0.786200  0.029300  0.320000  1.0
  C  C2391  1  0.286200  0.470700  0.680000  1.0
  C  C2392  1  0.213800  0.529300  0.180000  1.0
  C  C2393  1  0.275000  0.036500  0.173100  1.0
  C  C2394  1  0.225000  0.963500  0.673100  1.0
  C  C2395  1  0.725000  0.536500  0.326900  1.0
  C  C2396  1  0.775000  0.463500  0.826900  1.0
  C  C2397  1  0.725000  0.963500  0.826900  1.0
  C  C2398  1  0.775000  0.036500  0.326900  1.0
  C  C2399  1  0.275000  0.463500  0.673100  1.0
  C  C2400  1  0.225000  0.536500  0.173100  1.0
  C  C2401  1  0.298900  0.054900  0.167500  1.0
  C  C2402  1  0.201100  0.945100  0.667500  1.0
  C  C2403  1  0.701100  0.554900  0.332500  1.0
  C  C2404  1  0.798900  0.445100  0.832500  1.0
  C  C2405  1  0.701100  0.945100  0.832500  1.0
  C  C2406  1  0.798900  0.054900  0.332500  1.0
  C  C2407  1  0.298900  0.445100  0.667500  1.0
  C  C2408  1  0.201100  0.554900  0.167500  1.0
  C  C2409  1  0.310800  0.047900  0.174200  1.0
  C  C2410  1  0.189200  0.952100  0.674200  1.0
  C  C2411  1  0.689200  0.547900  0.325800  1.0
  C  C2412  1  0.810800  0.452100  0.825800  1.0
  C  C2413  1  0.689200  0.952100  0.825800  1.0
  C  C2414  1  0.810800  0.047900  0.325800  1.0
  C  C2415  1  0.310800  0.452100  0.674200  1.0
  C  C2416  1  0.189200  0.547900  0.174200  1.0
  C  C2417  1  0.304600  0.035100  0.180800  1.0
  C  C2418  1  0.195400  0.964900  0.680800  1.0
  C  C2419  1  0.695400  0.535100  0.319200  1.0
  C  C2420  1  0.804600  0.464900  0.819200  1.0
  C  C2421  1  0.695400  0.964900  0.819200  1.0
  C  C2422  1  0.804600  0.035100  0.319200  1.0
  C  C2423  1  0.304600  0.464900  0.680800  1.0
  C  C2424  1  0.195400  0.535100  0.180800  1.0
  C  C2425  1  0.317900  0.027200  0.187800  1.0
  C  C2426  1  0.182100  0.972800  0.687800  1.0
  C  C2427  1  0.682100  0.527200  0.312200  1.0
  C  C2428  1  0.817900  0.472800  0.812200  1.0
  C  C2429  1  0.682100  0.972800  0.812200  1.0
  C  C2430  1  0.817900  0.027200  0.312200  1.0
  C  C2431  1  0.317900  0.472800  0.687800  1.0
  C  C2432  1  0.182100  0.527200  0.187800  1.0
  C  C2433  1  0.315000  0.012500  0.193700  1.0
  C  C2434  1  0.185000  0.987500  0.693700  1.0
  C  C2435  1  0.685000  0.512500  0.306300  1.0
  C  C2436  1  0.815000  0.487500  0.806300  1.0
  C  C2437  1  0.685000  0.987500  0.806300  1.0
  C  C2438  1  0.815000  0.012500  0.306300  1.0
  C  C2439  1  0.315000  0.487500  0.693700  1.0
  C  C2440  1  0.185000  0.512500  0.193700  1.0
  C  C2441  1  0.285900  0.005000  0.200000  1.0
  C  C2442  1  0.214100  0.995000  0.700000  1.0
  C  C2443  1  0.714100  0.505000  0.300000  1.0
  C  C2444  1  0.785900  0.495000  0.800000  1.0
  C  C2445  1  0.714100  0.995000  0.800000  1.0
  C  C2446  1  0.785900  0.005000  0.300000  1.0
  C  C2447  1  0.285900  0.495000  0.700000  1.0
  C  C2448  1  0.214100  0.505000  0.200000  1.0
  C  C2449  1  0.317000  0.996000  0.214000  1.0
  C  C2450  1  0.183000  0.004000  0.714000  1.0
  C  C2451  1  0.683000  0.496000  0.286000  1.0
  C  C2452  1  0.817000  0.504000  0.786000  1.0
  C  C2453  1  0.683000  0.004000  0.786000  1.0
  C  C2454  1  0.817000  0.996000  0.286000  1.0
  C  C2455  1  0.317000  0.504000  0.714000  1.0
  C  C2456  1  0.183000  0.496000  0.214000  1.0
  C  C2457  1  0.329000  0.009700  0.200300  1.0
  C  C2458  1  0.171000  0.990300  0.700300  1.0
  C  C2459  1  0.671000  0.509700  0.299700  1.0
  C  C2460  1  0.829000  0.490300  0.799700  1.0
  C  C2461  1  0.671000  0.990300  0.799700  1.0
  C  C2462  1  0.829000  0.009700  0.299700  1.0
  C  C2463  1  0.329000  0.490300  0.700300  1.0
  C  C2464  1  0.171000  0.509700  0.200300  1.0
  C  C2465  1  0.343500  0.021900  0.199600  1.0
  C  C2466  1  0.156500  0.978100  0.699600  1.0
  C  C2467  1  0.656500  0.521900  0.300400  1.0
  C  C2468  1  0.843500  0.478100  0.800400  1.0
  C  C2469  1  0.656500  0.978100  0.800400  1.0
  C  C2470  1  0.843500  0.021900  0.300400  1.0
  C  C2471  1  0.343500  0.478100  0.699600  1.0
  C  C2472  1  0.156500  0.521900  0.199600  1.0
  C  C2473  1  0.360700  0.022500  0.205400  1.0
  C  C2474  1  0.139300  0.977500  0.705400  1.0
  C  C2475  1  0.639300  0.522500  0.294600  1.0
  C  C2476  1  0.860700  0.477500  0.794600  1.0
  C  C2477  1  0.639300  0.977500  0.794600  1.0
  C  C2478  1  0.860700  0.022500  0.294600  1.0
  C  C2479  1  0.360700  0.477500  0.705400  1.0
  C  C2480  1  0.139300  0.522500  0.205400  1.0
  C  C2481  1  0.374400  0.035600  0.203600  1.0
  C  C2482  1  0.125600  0.964400  0.703600  1.0
  C  C2483  1  0.625600  0.535600  0.296400  1.0
  C  C2484  1  0.874400  0.464400  0.796400  1.0
  C  C2485  1  0.625600  0.964400  0.796400  1.0
  C  C2486  1  0.874400  0.035600  0.296400  1.0
  C  C2487  1  0.374400  0.464400  0.703600  1.0
  C  C2488  1  0.125600  0.535600  0.203600  1.0
  C  C2489  1  0.390300  0.036100  0.209000  1.0
  C  C2490  1  0.109700  0.963900  0.709000  1.0
  C  C2491  1  0.609700  0.536100  0.291000  1.0
  C  C2492  1  0.890300  0.463900  0.791000  1.0
  C  C2493  1  0.609700  0.963900  0.791000  1.0
  C  C2494  1  0.890300  0.036100  0.291000  1.0
  C  C2495  1  0.390300  0.463900  0.709000  1.0
  C  C2496  1  0.109700  0.536100  0.209000  1.0
  C  C2497  1  0.381000  0.010600  0.217500  1.0
  C  C2498  1  0.119000  0.989400  0.717500  1.0
  C  C2499  1  0.619000  0.510600  0.282500  1.0
  C  C2500  1  0.881000  0.489400  0.782500  1.0
  C  C2501  1  0.619000  0.989400  0.782500  1.0
  C  C2502  1  0.881000  0.010600  0.282500  1.0
  C  C2503  1  0.381000  0.489400  0.717500  1.0
  C  C2504  1  0.119000  0.510600  0.217500  1.0
  C  C2505  1  0.364700  0.009800  0.212600  1.0
  C  C2506  1  0.135300  0.990200  0.712600  1.0
  C  C2507  1  0.635300  0.509800  0.287400  1.0
  C  C2508  1  0.864700  0.490200  0.787400  1.0
  C  C2509  1  0.635300  0.990200  0.787400  1.0
  C  C2510  1  0.864700  0.009800  0.287400  1.0
  C  C2511  1  0.364700  0.490200  0.712600  1.0
  C  C2512  1  0.135300  0.509800  0.212600  1.0
  C  C2513  1  0.387500  0.052900  0.243400  1.0
  C  C2514  1  0.112500  0.947100  0.743400  1.0
  C  C2515  1  0.612500  0.552900  0.256600  1.0
  C  C2516  1  0.887500  0.447100  0.756600  1.0
  C  C2517  1  0.612500  0.947100  0.756600  1.0
  C  C2518  1  0.887500  0.052900  0.256600  1.0
  C  C2519  1  0.387500  0.447100  0.743400  1.0
  C  C2520  1  0.112500  0.552900  0.243400  1.0
  C  C2521  1  0.395500  0.039200  0.237900  1.0
  C  C2522  1  0.104500  0.960800  0.737900  1.0
  C  C2523  1  0.604500  0.539200  0.262100  1.0
  C  C2524  1  0.895500  0.460800  0.762100  1.0
  C  C2525  1  0.604500  0.960800  0.762100  1.0
  C  C2526  1  0.895500  0.039200  0.262100  1.0
  C  C2527  1  0.395500  0.460800  0.737900  1.0
  C  C2528  1  0.104500  0.539200  0.237900  1.0
  C  C2529  1  0.411100  0.061300  0.229300  1.0
  C  C2530  1  0.088900  0.938700  0.729300  1.0
  C  C2531  1  0.588900  0.561300  0.270700  1.0
  C  C2532  1  0.911100  0.438700  0.770700  1.0
  C  C2533  1  0.588900  0.938700  0.770700  1.0
  C  C2534  1  0.911100  0.061300  0.270700  1.0
  C  C2535  1  0.411100  0.438700  0.729300  1.0
  C  C2536  1  0.088900  0.561300  0.229300  1.0
  C  C2537  1  0.403500  0.075400  0.234600  1.0
  C  C2538  1  0.096500  0.924600  0.734600  1.0
  C  C2539  1  0.596500  0.575400  0.265400  1.0
  C  C2540  1  0.903500  0.424600  0.765400  1.0
  C  C2541  1  0.596500  0.924600  0.765400  1.0
  C  C2542  1  0.903500  0.075400  0.265400  1.0
  C  C2543  1  0.403500  0.424600  0.734600  1.0
  C  C2544  1  0.096500  0.575400  0.234600  1.0
  C  C2545  1  0.391500  0.071600  0.242100  1.0
  C  C2546  1  0.108500  0.928400  0.742100  1.0
  C  C2547  1  0.608500  0.571600  0.257900  1.0
  C  C2548  1  0.891500  0.428400  0.757900  1.0
  C  C2549  1  0.608500  0.928400  0.757900  1.0
  C  C2550  1  0.891500  0.071600  0.257900  1.0
  C  C2551  1  0.391500  0.428400  0.742100  1.0
  C  C2552  1  0.108500  0.571600  0.242100  1.0
  C  C2553  1  0.382800  0.086800  0.247700  1.0
  C  C2554  1  0.117200  0.913200  0.747700  1.0
  C  C2555  1  0.617200  0.586800  0.252300  1.0
  C  C2556  1  0.882800  0.413200  0.752300  1.0
  C  C2557  1  0.617200  0.913200  0.752300  1.0
  C  C2558  1  0.882800  0.086800  0.252300  1.0
  C  C2559  1  0.382800  0.413200  0.747700  1.0
  C  C2560  1  0.117200  0.586800  0.247700  1.0
  C  C2561  1  0.370700  0.084900  0.255100  1.0
  C  C2562  1  0.129300  0.915100  0.755100  1.0
  C  C2563  1  0.629300  0.584900  0.244900  1.0
  C  C2564  1  0.870700  0.415100  0.744900  1.0
  C  C2565  1  0.629300  0.915100  0.744900  1.0
  C  C2566  1  0.870700  0.084900  0.244900  1.0
  C  C2567  1  0.370700  0.415100  0.755100  1.0
  C  C2568  1  0.129300  0.584900  0.255100  1.0
  C  C2569  1  0.369100  0.062100  0.266600  1.0
  C  C2570  1  0.130900  0.937900  0.766600  1.0
  C  C2571  1  0.630900  0.562100  0.233400  1.0
  C  C2572  1  0.869100  0.437900  0.733400  1.0
  C  C2573  1  0.630900  0.937900  0.733400  1.0
  C  C2574  1  0.869100  0.062100  0.233400  1.0
  C  C2575  1  0.369100  0.437900  0.766600  1.0
  C  C2576  1  0.130900  0.562100  0.266600  1.0
  C  C2577  1  0.336700  0.098700  0.265200  1.0
  C  C2578  1  0.163300  0.901300  0.765200  1.0
  C  C2579  1  0.663300  0.598700  0.234800  1.0
  C  C2580  1  0.836700  0.401300  0.734800  1.0
  C  C2581  1  0.663300  0.901300  0.734800  1.0
  C  C2582  1  0.836700  0.098700  0.234800  1.0
  C  C2583  1  0.336700  0.401300  0.765200  1.0
  C  C2584  1  0.163300  0.598700  0.265200  1.0
  C  C2585  1  0.367000  0.101100  0.260000  1.0
  C  C2586  1  0.133000  0.898900  0.760000  1.0
  C  C2587  1  0.633000  0.601100  0.240000  1.0
  C  C2588  1  0.867000  0.398900  0.740000  1.0
  C  C2589  1  0.633000  0.898900  0.740000  1.0
  C  C2590  1  0.867000  0.101100  0.240000  1.0
  C  C2591  1  0.367000  0.398900  0.760000  1.0
  C  C2592  1  0.133000  0.601100  0.260000  1.0
  C  C2593  1  0.375200  0.116400  0.256300  1.0
  C  C2594  1  0.124800  0.883600  0.756300  1.0
  C  C2595  1  0.624800  0.616400  0.243700  1.0
  C  C2596  1  0.875200  0.383600  0.743700  1.0
  C  C2597  1  0.624800  0.883600  0.743700  1.0
  C  C2598  1  0.875200  0.116400  0.243700  1.0
  C  C2599  1  0.375200  0.383600  0.756300  1.0
  C  C2600  1  0.124800  0.616400  0.256300  1.0
  C  C2601  1  0.372000  0.136000  0.259100  1.0
  C  C2602  1  0.128000  0.864000  0.759100  1.0
  C  C2603  1  0.628000  0.636000  0.240900  1.0
  C  C2604  1  0.872000  0.364000  0.740900  1.0
  C  C2605  1  0.628000  0.864000  0.740900  1.0
  C  C2606  1  0.872000  0.136000  0.240900  1.0
  C  C2607  1  0.372000  0.364000  0.759100  1.0
  C  C2608  1  0.128000  0.636000  0.259100  1.0
  C  C2609  1  0.380200  0.150100  0.253900  1.0
  C  C2610  1  0.119800  0.849900  0.753900  1.0
  C  C2611  1  0.619800  0.650100  0.246100  1.0
  C  C2612  1  0.880200  0.349900  0.746100  1.0
  C  C2613  1  0.619800  0.849900  0.746100  1.0
  C  C2614  1  0.880200  0.150100  0.246100  1.0
  C  C2615  1  0.380200  0.349900  0.753900  1.0
  C  C2616  1  0.119800  0.650100  0.253900  1.0
  C  C2617  1  0.378000  0.168200  0.256700  1.0
  C  C2618  1  0.122000  0.831800  0.756700  1.0
  C  C2619  1  0.622000  0.668200  0.243300  1.0
  C  C2620  1  0.878000  0.331800  0.743300  1.0
  C  C2621  1  0.622000  0.831800  0.743300  1.0
  C  C2622  1  0.878000  0.168200  0.243300  1.0
  C  C2623  1  0.378000  0.331800  0.756700  1.0
  C  C2624  1  0.122000  0.668200  0.256700  1.0
  C  C2625  1  0.361600  0.159400  0.269900  1.0
  C  C2626  1  0.138400  0.840600  0.769900  1.0
  C  C2627  1  0.638400  0.659400  0.230100  1.0
  C  C2628  1  0.861600  0.340600  0.730100  1.0
  C  C2629  1  0.638400  0.840600  0.730100  1.0
  C  C2630  1  0.861600  0.159400  0.230100  1.0
  C  C2631  1  0.361600  0.340600  0.769900  1.0
  C  C2632  1  0.138400  0.659400  0.269900  1.0
  C  C2633  1  0.362800  0.141100  0.267400  1.0
  C  C2634  1  0.137200  0.858900  0.767400  1.0
  C  C2635  1  0.637200  0.641100  0.232600  1.0
  C  C2636  1  0.862800  0.358900  0.732600  1.0
  C  C2637  1  0.637200  0.858900  0.732600  1.0
  C  C2638  1  0.862800  0.141100  0.232600  1.0
  C  C2639  1  0.362800  0.358900  0.767400  1.0
  C  C2640  1  0.137200  0.641100  0.267400  1.0
  C  C2641  1  0.410800  0.199200  0.287600  1.0
  C  C2642  1  0.089200  0.800800  0.787600  1.0
  C  C2643  1  0.589200  0.699200  0.212400  1.0
  C  C2644  1  0.910800  0.300800  0.712400  1.0
  C  C2645  1  0.589200  0.800800  0.712400  1.0
  C  C2646  1  0.910800  0.199200  0.212400  1.0
  C  C2647  1  0.410800  0.300800  0.787600  1.0
  C  C2648  1  0.089200  0.699200  0.287600  1.0
  C  C2649  1  0.393500  0.197800  0.283500  1.0
  C  C2650  1  0.106500  0.802200  0.783500  1.0
  C  C2651  1  0.606500  0.697800  0.216500  1.0
  C  C2652  1  0.893500  0.302200  0.716500  1.0
  C  C2653  1  0.606500  0.802200  0.716500  1.0
  C  C2654  1  0.893500  0.197800  0.216500  1.0
  C  C2655  1  0.393500  0.302200  0.783500  1.0
  C  C2656  1  0.106500  0.697800  0.283500  1.0
  C  C2657  1  0.405700  0.200500  0.268600  1.0
  C  C2658  1  0.094300  0.799500  0.768600  1.0
  C  C2659  1  0.594300  0.700500  0.231400  1.0
  C  C2660  1  0.905700  0.299500  0.731400  1.0
  C  C2661  1  0.594300  0.799500  0.731400  1.0
  C  C2662  1  0.905700  0.200500  0.231400  1.0
  C  C2663  1  0.405700  0.299500  0.768600  1.0
  C  C2664  1  0.094300  0.700500  0.268600  1.0
  C  C2665  1  0.423300  0.202200  0.272400  1.0
  C  C2666  1  0.076700  0.797800  0.772400  1.0
  C  C2667  1  0.576700  0.702200  0.227600  1.0
  C  C2668  1  0.923300  0.297800  0.727600  1.0
  C  C2669  1  0.576700  0.797800  0.727600  1.0
  C  C2670  1  0.923300  0.202200  0.227600  1.0
  C  C2671  1  0.423300  0.297800  0.772400  1.0
  C  C2672  1  0.076700  0.702200  0.272400  1.0
  C  C2673  1  0.426600  0.201200  0.282100  1.0
  C  C2674  1  0.073400  0.798800  0.782100  1.0
  C  C2675  1  0.573400  0.701200  0.217900  1.0
  C  C2676  1  0.926600  0.298800  0.717900  1.0
  C  C2677  1  0.573400  0.798800  0.717900  1.0
  C  C2678  1  0.926600  0.201200  0.217900  1.0
  C  C2679  1  0.426600  0.298800  0.782100  1.0
  C  C2680  1  0.073400  0.701200  0.282100  1.0
  C  C2681  1  0.445400  0.205000  0.286000  1.0
  C  C2682  1  0.054600  0.795000  0.786000  1.0
  C  C2683  1  0.554600  0.705000  0.214000  1.0
  C  C2684  1  0.945400  0.295000  0.714000  1.0
  C  C2685  1  0.554600  0.795000  0.714000  1.0
  C  C2686  1  0.945400  0.205000  0.214000  1.0
  C  C2687  1  0.445400  0.295000  0.786000  1.0
  C  C2688  1  0.054600  0.705000  0.286000  1.0
  C  C2689  1  0.450600  0.203600  0.295200  1.0
  C  C2690  1  0.049400  0.796400  0.795200  1.0
  C  C2691  1  0.549400  0.703600  0.204800  1.0
  C  C2692  1  0.950600  0.296400  0.704800  1.0
  C  C2693  1  0.549400  0.796400  0.704800  1.0
  C  C2694  1  0.950600  0.203600  0.204800  1.0
  C  C2695  1  0.450600  0.296400  0.795200  1.0
  C  C2696  1  0.049400  0.703600  0.295200  1.0
  C  C2697  1  0.439000  0.176800  0.302000  1.0
  C  C2698  1  0.061000  0.823200  0.802000  1.0
  C  C2699  1  0.561000  0.676800  0.198000  1.0
  C  C2700  1  0.939000  0.323200  0.698000  1.0
  C  C2701  1  0.561000  0.823200  0.698000  1.0
  C  C2702  1  0.939000  0.176800  0.198000  1.0
  C  C2703  1  0.439000  0.323200  0.802000  1.0
  C  C2704  1  0.061000  0.676800  0.302000  1.0
  C  C2705  1  0.466000  0.215000  0.313800  1.0
  C  C2706  1  0.034000  0.785000  0.813800  1.0
  C  C2707  1  0.534000  0.715000  0.186200  1.0
  C  C2708  1  0.966000  0.285000  0.686200  1.0
  C  C2709  1  0.534000  0.785000  0.686200  1.0
  C  C2710  1  0.966000  0.215000  0.186200  1.0
  C  C2711  1  0.466000  0.285000  0.813800  1.0
  C  C2712  1  0.034000  0.715000  0.313800  1.0
  C  C2713  1  0.468400  0.209800  0.297200  1.0
  C  C2714  1  0.031600  0.790200  0.797200  1.0
  C  C2715  1  0.531600  0.709800  0.202800  1.0
  C  C2716  1  0.968400  0.290200  0.702800  1.0
  C  C2717  1  0.531600  0.790200  0.702800  1.0
  C  C2718  1  0.968400  0.209800  0.202800  1.0
  C  C2719  1  0.468400  0.290200  0.797200  1.0
  C  C2720  1  0.031600  0.709800  0.297200  1.0
  C  C2721  1  0.477600  0.217000  0.289600  1.0
  C  C2722  1  0.022400  0.783000  0.789600  1.0
  C  C2723  1  0.522400  0.717000  0.210400  1.0
  C  C2724  1  0.977600  0.283000  0.710400  1.0
  C  C2725  1  0.522400  0.783000  0.710400  1.0
  C  C2726  1  0.977600  0.217000  0.210400  1.0
  C  C2727  1  0.477600  0.283000  0.789600  1.0
  C  C2728  1  0.022400  0.717000  0.289600  1.0
  C  C2729  1  0.496700  0.224800  0.289000  1.0
  C  C2730  1  0.003300  0.775200  0.789000  1.0
  C  C2731  1  0.503300  0.724800  0.211000  1.0
  C  C2732  1  0.996700  0.275200  0.711000  1.0
  C  C2733  1  0.503300  0.775200  0.711000  1.0
  C  C2734  1  0.996700  0.224800  0.211000  1.0
  C  C2735  1  0.496700  0.275200  0.789000  1.0
  C  C2736  1  0.003300  0.724800  0.289000  1.0
  C  C2737  1  0.504500  0.228800  0.280200  1.0
  C  C2738  1  0.995500  0.771200  0.780200  1.0
  C  C2739  1  0.495500  0.728800  0.219800  1.0
  C  C2740  1  0.004500  0.271200  0.719800  1.0
  C  C2741  1  0.495500  0.771200  0.719800  1.0
  C  C2742  1  0.004500  0.228800  0.219800  1.0
  C  C2743  1  0.504500  0.271200  0.780200  1.0
  C  C2744  1  0.995500  0.728800  0.280200  1.0
  C  C2745  1  0.521900  0.236400  0.279400  1.0
  C  C2746  1  0.978100  0.763600  0.779400  1.0
  C  C2747  1  0.478100  0.736400  0.220600  1.0
  C  C2748  1  0.021900  0.263600  0.720600  1.0
  C  C2749  1  0.478100  0.763600  0.720600  1.0
  C  C2750  1  0.021900  0.236400  0.220600  1.0
  C  C2751  1  0.521900  0.263600  0.779400  1.0
  C  C2752  1  0.978100  0.736400  0.279400  1.0
  C  C2753  1  0.525500  0.235800  0.295600  1.0
  C  C2754  1  0.974500  0.764200  0.795600  1.0
  C  C2755  1  0.474500  0.735800  0.204400  1.0
  C  C2756  1  0.025500  0.264200  0.704400  1.0
  C  C2757  1  0.474500  0.764200  0.704400  1.0
  C  C2758  1  0.025500  0.235800  0.204400  1.0
  C  C2759  1  0.525500  0.264200  0.795600  1.0
  C  C2760  1  0.974500  0.735800  0.295600  1.0
  C  C2761  1  0.508000  0.228700  0.296700  1.0
  C  C2762  1  0.992000  0.771300  0.796700  1.0
  C  C2763  1  0.492000  0.728700  0.203300  1.0
  C  C2764  1  0.008000  0.271300  0.703300  1.0
  C  C2765  1  0.492000  0.771300  0.703300  1.0
  C  C2766  1  0.008000  0.228700  0.203300  1.0
  C  C2767  1  0.508000  0.271300  0.796700  1.0
  C  C2768  1  0.992000  0.728700  0.296700  1.0
  C  C2769  1  0.579400  0.198800  0.290000  1.0
  C  C2770  1  0.920600  0.801200  0.790000  1.0
  C  C2771  1  0.420600  0.698800  0.210000  1.0
  C  C2772  1  0.079400  0.301200  0.710000  1.0
  C  C2773  1  0.420600  0.801200  0.710000  1.0
  C  C2774  1  0.079400  0.198800  0.210000  1.0
  C  C2775  1  0.579400  0.301200  0.790000  1.0
  C  C2776  1  0.920600  0.698800  0.290000  1.0
  C  C2777  1  0.573400  0.216900  0.290200  1.0
  C  C2778  1  0.926600  0.783100  0.790200  1.0
  C  C2779  1  0.426600  0.716900  0.209800  1.0
  C  C2780  1  0.073400  0.283100  0.709800  1.0
  C  C2781  1  0.426600  0.783100  0.709800  1.0
  C  C2782  1  0.073400  0.216900  0.209800  1.0
  C  C2783  1  0.573400  0.283100  0.790200  1.0
  C  C2784  1  0.926600  0.716900  0.290200  1.0
  C  C2785  1  0.566600  0.215800  0.274300  1.0
  C  C2786  1  0.933400  0.784200  0.774300  1.0
  C  C2787  1  0.433400  0.715800  0.225700  1.0
  C  C2788  1  0.066600  0.284200  0.725700  1.0
  C  C2789  1  0.433400  0.784200  0.725700  1.0
  C  C2790  1  0.066600  0.215800  0.225700  1.0
  C  C2791  1  0.566600  0.284200  0.774300  1.0
  C  C2792  1  0.933400  0.715800  0.274300  1.0
  C  C2793  1  0.572700  0.197800  0.273800  1.0
  C  C2794  1  0.927300  0.802200  0.773800  1.0
  C  C2795  1  0.427300  0.697800  0.226200  1.0
  C  C2796  1  0.072700  0.302200  0.726200  1.0
  C  C2797  1  0.427300  0.802200  0.726200  1.0
  C  C2798  1  0.072700  0.197800  0.226200  1.0
  C  C2799  1  0.572700  0.302200  0.773800  1.0
  C  C2800  1  0.927300  0.697800  0.273800  1.0
  C  C2801  1  0.579500  0.188800  0.281700  1.0
  C  C2802  1  0.920500  0.811200  0.781700  1.0
  C  C2803  1  0.420500  0.688800  0.218300  1.0
  C  C2804  1  0.079500  0.311200  0.718300  1.0
  C  C2805  1  0.420500  0.811200  0.718300  1.0
  C  C2806  1  0.079500  0.188800  0.218300  1.0
  C  C2807  1  0.579500  0.311200  0.781700  1.0
  C  C2808  1  0.920500  0.688800  0.281700  1.0
  C  C2809  1  0.584900  0.169000  0.280800  1.0
  C  C2810  1  0.915100  0.831000  0.780800  1.0
  C  C2811  1  0.415100  0.669000  0.219200  1.0
  C  C2812  1  0.084900  0.331000  0.719200  1.0
  C  C2813  1  0.415100  0.831000  0.719200  1.0
  C  C2814  1  0.084900  0.169000  0.219200  1.0
  C  C2815  1  0.584900  0.331000  0.780800  1.0
  C  C2816  1  0.915100  0.669000  0.280800  1.0
  C  C2817  1  0.590700  0.156900  0.287600  1.0
  C  C2818  1  0.909300  0.843100  0.787600  1.0
  C  C2819  1  0.409300  0.656900  0.212400  1.0
  C  C2820  1  0.090700  0.343100  0.712400  1.0
  C  C2821  1  0.409300  0.843100  0.712400  1.0
  C  C2822  1  0.090700  0.156900  0.212400  1.0
  C  C2823  1  0.590700  0.343100  0.787600  1.0
  C  C2824  1  0.909300  0.656900  0.287600  1.0
  C  C2825  1  0.610400  0.164000  0.300600  1.0
  C  C2826  1  0.889600  0.836000  0.800600  1.0
  C  C2827  1  0.389600  0.664000  0.199400  1.0
  C  C2828  1  0.110400  0.336000  0.699400  1.0
  C  C2829  1  0.389600  0.836000  0.699400  1.0
  C  C2830  1  0.110400  0.164000  0.199400  1.0
  C  C2831  1  0.610400  0.336000  0.800600  1.0
  C  C2832  1  0.889600  0.664000  0.300600  1.0
  C  C2833  1  0.614000  0.127000  0.296000  1.0
  C  C2834  1  0.886000  0.873000  0.796000  1.0
  C  C2835  1  0.386000  0.627000  0.204000  1.0
  C  C2836  1  0.114000  0.373000  0.704000  1.0
  C  C2837  1  0.386000  0.873000  0.704000  1.0
  C  C2838  1  0.114000  0.127000  0.204000  1.0
  C  C2839  1  0.614000  0.373000  0.796000  1.0
  C  C2840  1  0.886000  0.627000  0.296000  1.0
  C  C2841  1  0.593800  0.139100  0.284300  1.0
  C  C2842  1  0.906200  0.860900  0.784300  1.0
  C  C2843  1  0.406200  0.639100  0.215700  1.0
  C  C2844  1  0.093800  0.360900  0.715700  1.0
  C  C2845  1  0.406200  0.860900  0.715700  1.0
  C  C2846  1  0.093800  0.139100  0.215700  1.0
  C  C2847  1  0.593800  0.360900  0.784300  1.0
  C  C2848  1  0.906200  0.639100  0.284300  1.0
  C  C2849  1  0.590400  0.136800  0.274900  1.0
  C  C2850  1  0.909600  0.863200  0.774900  1.0
  C  C2851  1  0.409600  0.636800  0.225100  1.0
  C  C2852  1  0.090400  0.363200  0.725100  1.0
  C  C2853  1  0.409600  0.863200  0.725100  1.0
  C  C2854  1  0.090400  0.136800  0.225100  1.0
  C  C2855  1  0.590400  0.363200  0.774900  1.0
  C  C2856  1  0.909600  0.636800  0.274900  1.0
  C  C2857  1  0.593300  0.119700  0.269100  1.0
  C  C2858  1  0.906700  0.880300  0.769100  1.0
  C  C2859  1  0.406700  0.619700  0.230900  1.0
  C  C2860  1  0.093300  0.380300  0.730900  1.0
  C  C2861  1  0.406700  0.880300  0.730900  1.0
  C  C2862  1  0.093300  0.119700  0.230900  1.0
  C  C2863  1  0.593300  0.380300  0.769100  1.0
  C  C2864  1  0.906700  0.619700  0.269100  1.0
  C  C2865  1  0.588200  0.119200  0.259700  1.0
  C  C2866  1  0.911800  0.880800  0.759700  1.0
  C  C2867  1  0.411800  0.619200  0.240300  1.0
  C  C2868  1  0.088200  0.380800  0.740300  1.0
  C  C2869  1  0.411800  0.880800  0.740300  1.0
  C  C2870  1  0.088200  0.119200  0.240300  1.0
  C  C2871  1  0.588200  0.380800  0.759700  1.0
  C  C2872  1  0.911800  0.619200  0.259700  1.0
  C  C2873  1  0.591600  0.103600  0.254300  1.0
  C  C2874  1  0.908400  0.896400  0.754300  1.0
  C  C2875  1  0.408400  0.603600  0.245700  1.0
  C  C2876  1  0.091600  0.396400  0.745700  1.0
  C  C2877  1  0.408400  0.896400  0.745700  1.0
  C  C2878  1  0.091600  0.103600  0.245700  1.0
  C  C2879  1  0.591600  0.396400  0.754300  1.0
  C  C2880  1  0.908400  0.603600  0.254300  1.0
  C  C2881  1  0.604800  0.088500  0.267000  1.0
  C  C2882  1  0.895200  0.911500  0.767000  1.0
  C  C2883  1  0.395200  0.588500  0.233000  1.0
  C  C2884  1  0.104800  0.411500  0.733000  1.0
  C  C2885  1  0.395200  0.911500  0.733000  1.0
  C  C2886  1  0.104800  0.088500  0.233000  1.0
  C  C2887  1  0.604800  0.411500  0.767000  1.0
  C  C2888  1  0.895200  0.588500  0.267000  1.0
  C  C2889  1  0.601700  0.103700  0.272600  1.0
  C  C2890  1  0.898300  0.896300  0.772600  1.0
  C  C2891  1  0.398300  0.603700  0.227400  1.0
  C  C2892  1  0.101700  0.396300  0.727400  1.0
  C  C2893  1  0.398300  0.896300  0.727400  1.0
  C  C2894  1  0.101700  0.103700  0.227400  1.0
  C  C2895  1  0.601700  0.396300  0.772600  1.0
  C  C2896  1  0.898300  0.603700  0.272600  1.0
  C  C2897  1  0.558000  0.041100  0.255700  1.0
  C  C2898  1  0.942000  0.958900  0.755700  1.0
  C  C2899  1  0.442000  0.541100  0.244300  1.0
  C  C2900  1  0.058000  0.458900  0.744300  1.0
  C  C2901  1  0.442000  0.958900  0.744300  1.0
  C  C2902  1  0.058000  0.041100  0.244300  1.0
  C  C2903  1  0.558000  0.458900  0.755700  1.0
  C  C2904  1  0.942000  0.541100  0.255700  1.0
  C  C2905  1  0.575600  0.048600  0.255700  1.0
  C  C2906  1  0.924400  0.951400  0.755700  1.0
  C  C2907  1  0.424400  0.548600  0.244300  1.0
  C  C2908  1  0.075600  0.451400  0.744300  1.0
  C  C2909  1  0.424400  0.951400  0.744300  1.0
  C  C2910  1  0.075600  0.048600  0.244300  1.0
  C  C2911  1  0.575600  0.451400  0.755700  1.0
  C  C2912  1  0.924400  0.548600  0.255700  1.0
  C  C2913  1  0.568900  0.065500  0.242400  1.0
  C  C2914  1  0.931100  0.934500  0.742400  1.0
  C  C2915  1  0.431100  0.565500  0.257600  1.0
  C  C2916  1  0.068900  0.434500  0.757600  1.0
  C  C2917  1  0.431100  0.934500  0.757600  1.0
  C  C2918  1  0.068900  0.065500  0.257600  1.0
  C  C2919  1  0.568900  0.434500  0.742400  1.0
  C  C2920  1  0.931100  0.565500  0.242400  1.0
  C  C2921  1  0.551100  0.058700  0.242100  1.0
  C  C2922  1  0.948900  0.941300  0.742100  1.0
  C  C2923  1  0.448900  0.558700  0.257900  1.0
  C  C2924  1  0.051100  0.441300  0.757900  1.0
  C  C2925  1  0.448900  0.941300  0.757900  1.0
  C  C2926  1  0.051100  0.058700  0.257900  1.0
  C  C2927  1  0.551100  0.441300  0.742100  1.0
  C  C2928  1  0.948900  0.558700  0.242100  1.0
  C  C2929  1  0.545000  0.046100  0.248900  1.0
  C  C2930  1  0.955000  0.953900  0.748900  1.0
  C  C2931  1  0.455000  0.546100  0.251100  1.0
  C  C2932  1  0.045000  0.453900  0.751100  1.0
  C  C2933  1  0.455000  0.953900  0.751100  1.0
  C  C2934  1  0.045000  0.046100  0.251100  1.0
  C  C2935  1  0.545000  0.453900  0.748900  1.0
  C  C2936  1  0.955000  0.546100  0.248900  1.0
  C  C2937  1  0.525900  0.038100  0.248100  1.0
  C  C2938  1  0.974100  0.961900  0.748100  1.0
  C  C2939  1  0.474100  0.538100  0.251900  1.0
  C  C2940  1  0.025900  0.461900  0.751900  1.0
  C  C2941  1  0.474100  0.961900  0.751900  1.0
  C  C2942  1  0.025900  0.038100  0.251900  1.0
  C  C2943  1  0.525900  0.461900  0.748100  1.0
  C  C2944  1  0.974100  0.538100  0.248100  1.0
  C  C2945  1  0.516400  0.027500  0.254400  1.0
  C  C2946  1  0.983600  0.972500  0.754400  1.0
  C  C2947  1  0.483600  0.527500  0.245600  1.0
  C  C2948  1  0.016400  0.472500  0.745600  1.0
  C  C2949  1  0.483600  0.972500  0.745600  1.0
  C  C2950  1  0.016400  0.027500  0.245600  1.0
  C  C2951  1  0.516400  0.472500  0.754400  1.0
  C  C2952  1  0.983600  0.527500  0.254400  1.0
  C  C2953  1  0.528100  0.001700  0.262100  1.0
  C  C2954  1  0.971900  0.998300  0.762100  1.0
  C  C2955  1  0.471900  0.501700  0.237900  1.0
  C  C2956  1  0.028100  0.498300  0.737900  1.0
  C  C2957  1  0.471900  0.998300  0.737900  1.0
  C  C2958  1  0.028100  0.001700  0.237900  1.0
  C  C2959  1  0.528100  0.498300  0.762100  1.0
  C  C2960  1  0.971900  0.501700  0.262100  1.0
  C  C2961  1  0.483500  0.014500  0.266300  1.0
  C  C2962  1  0.016500  0.985500  0.766300  1.0
  C  C2963  1  0.516500  0.514500  0.233700  1.0
  C  C2964  1  0.983500  0.485500  0.733700  1.0
  C  C2965  1  0.516500  0.985500  0.733700  1.0
  C  C2966  1  0.983500  0.014500  0.233700  1.0
  C  C2967  1  0.483500  0.485500  0.766300  1.0
  C  C2968  1  0.016500  0.514500  0.266300  1.0
  C  C2969  1  0.498400  0.023000  0.251900  1.0
  C  C2970  1  0.001600  0.977000  0.751900  1.0
  C  C2971  1  0.501600  0.523000  0.248100  1.0
  C  C2972  1  0.998400  0.477000  0.748100  1.0
  C  C2973  1  0.501600  0.977000  0.748100  1.0
  C  C2974  1  0.998400  0.023000  0.248100  1.0
  C  C2975  1  0.498400  0.477000  0.751900  1.0
  C  C2976  1  0.001600  0.523000  0.251900  1.0
  C  C2977  1  0.493000  0.030700  0.243400  1.0
  C  C2978  1  0.007000  0.969300  0.743400  1.0
  C  C2979  1  0.507000  0.530700  0.256600  1.0
  C  C2980  1  0.993000  0.469300  0.756600  1.0
  C  C2981  1  0.507000  0.969300  0.756600  1.0
  C  C2982  1  0.993000  0.030700  0.256600  1.0
  C  C2983  1  0.493000  0.469300  0.743400  1.0
  C  C2984  1  0.007000  0.530700  0.243400  1.0
  C  C2985  1  0.474500  0.029500  0.238700  1.0
  C  C2986  1  0.025500  0.970500  0.738700  1.0
  C  C2987  1  0.525500  0.529500  0.261300  1.0
  C  C2988  1  0.974500  0.470500  0.761300  1.0
  C  C2989  1  0.525500  0.970500  0.761300  1.0
  C  C2990  1  0.974500  0.029500  0.261300  1.0
  C  C2991  1  0.474500  0.470500  0.738700  1.0
  C  C2992  1  0.025500  0.529500  0.238700  1.0
  C  C2993  1  0.472500  0.036200  0.229600  1.0
  C  C2994  1  0.027500  0.963800  0.729600  1.0
  C  C2995  1  0.527500  0.536200  0.270400  1.0
  C  C2996  1  0.972500  0.463800  0.770400  1.0
  C  C2997  1  0.527500  0.963800  0.770400  1.0
  C  C2998  1  0.972500  0.036200  0.270400  1.0
  C  C2999  1  0.472500  0.463800  0.729600  1.0
  C  C3000  1  0.027500  0.536200  0.229600  1.0
  C  C3001  1  0.455500  0.035300  0.225100  1.0
  C  C3002  1  0.044500  0.964700  0.725100  1.0
  C  C3003  1  0.544500  0.535300  0.274900  1.0
  C  C3004  1  0.955500  0.464700  0.774900  1.0
  C  C3005  1  0.544500  0.964700  0.774900  1.0
  C  C3006  1  0.955500  0.035300  0.274900  1.0
  C  C3007  1  0.455500  0.464700  0.725100  1.0
  C  C3008  1  0.044500  0.535300  0.225100  1.0
  C  C3009  1  0.442100  0.021800  0.238200  1.0
  C  C3010  1  0.057900  0.978200  0.738200  1.0
  C  C3011  1  0.557900  0.521800  0.261800  1.0
  C  C3012  1  0.942100  0.478200  0.761800  1.0
  C  C3013  1  0.557900  0.978200  0.761800  1.0
  C  C3014  1  0.942100  0.021800  0.261800  1.0
  C  C3015  1  0.442100  0.478200  0.738200  1.0
  C  C3016  1  0.057900  0.521800  0.238200  1.0
  C  C3017  1  0.458600  0.022400  0.243100  1.0
  C  C3018  1  0.041400  0.977600  0.743100  1.0
  C  C3019  1  0.541400  0.522400  0.256900  1.0
  C  C3020  1  0.958600  0.477600  0.756900  1.0
  C  C3021  1  0.541400  0.977600  0.756900  1.0
  C  C3022  1  0.958600  0.022400  0.256900  1.0
  C  C3023  1  0.458600  0.477600  0.743100  1.0
  C  C3024  1  0.041400  0.522400  0.243100  1.0
  C  C3025  1  0.627200  0.021300  0.236100  1.0
  C  C3026  1  0.872800  0.978700  0.736100  1.0
  C  C3027  1  0.372800  0.521300  0.263900  1.0
  C  C3028  1  0.127200  0.478700  0.763900  1.0
  C  C3029  1  0.372800  0.978700  0.763900  1.0
  C  C3030  1  0.127200  0.021300  0.263900  1.0
  C  C3031  1  0.627200  0.478700  0.736100  1.0
  C  C3032  1  0.872800  0.521300  0.236100  1.0
  C  C3033  1  0.620200  0.033400  0.242700  1.0
  C  C3034  1  0.879800  0.966600  0.742700  1.0
  C  C3035  1  0.379800  0.533400  0.257300  1.0
  C  C3036  1  0.120200  0.466600  0.757300  1.0
  C  C3037  1  0.379800  0.966600  0.757300  1.0
  C  C3038  1  0.120200  0.033400  0.257300  1.0
  C  C3039  1  0.620200  0.466600  0.742700  1.0
  C  C3040  1  0.879800  0.533400  0.242700  1.0
  C  C3041  1  0.611600  0.053800  0.230900  1.0
  C  C3042  1  0.888400  0.946200  0.730900  1.0
  C  C3043  1  0.388400  0.553800  0.269100  1.0
  C  C3044  1  0.111600  0.446200  0.769100  1.0
  C  C3045  1  0.388400  0.946200  0.769100  1.0
  C  C3046  1  0.111600  0.053800  0.269100  1.0
  C  C3047  1  0.611600  0.446200  0.730900  1.0
  C  C3048  1  0.888400  0.553800  0.230900  1.0
  C  C3049  1  0.618400  0.042200  0.224100  1.0
  C  C3050  1  0.881600  0.957800  0.724100  1.0
  C  C3051  1  0.381600  0.542200  0.275900  1.0
  C  C3052  1  0.118400  0.457800  0.775900  1.0
  C  C3053  1  0.381600  0.957800  0.775900  1.0
  C  C3054  1  0.118400  0.042200  0.275900  1.0
  C  C3055  1  0.618400  0.457800  0.724100  1.0
  C  C3056  1  0.881600  0.542200  0.224100  1.0
  C  C3057  1  0.626400  0.025400  0.226500  1.0
  C  C3058  1  0.873600  0.974600  0.726500  1.0
  C  C3059  1  0.373600  0.525400  0.273500  1.0
  C  C3060  1  0.126400  0.474600  0.773500  1.0
  C  C3061  1  0.373600  0.974600  0.773500  1.0
  C  C3062  1  0.126400  0.025400  0.273500  1.0
  C  C3063  1  0.626400  0.474600  0.726500  1.0
  C  C3064  1  0.873600  0.525400  0.226500  1.0
  C  C3065  1  0.633500  0.013200  0.218900  1.0
  C  C3066  1  0.866500  0.986800  0.718900  1.0
  C  C3067  1  0.366500  0.513200  0.281100  1.0
  C  C3068  1  0.133500  0.486800  0.781100  1.0
  C  C3069  1  0.366500  0.986800  0.781100  1.0
  C  C3070  1  0.133500  0.013200  0.281100  1.0
  C  C3071  1  0.633500  0.486800  0.718900  1.0
  C  C3072  1  0.866500  0.513200  0.218900  1.0
  C  C3073  1  0.638700  0.995100  0.219200  1.0
  C  C3074  1  0.861300  0.004900  0.719200  1.0
  C  C3075  1  0.361300  0.495100  0.280800  1.0
  C  C3076  1  0.138700  0.504900  0.780800  1.0
  C  C3077  1  0.361300  0.004900  0.780800  1.0
  C  C3078  1  0.138700  0.995100  0.280800  1.0
  C  C3079  1  0.638700  0.504900  0.719200  1.0
  C  C3080  1  0.861300  0.495100  0.219200  1.0
  C  C3081  1  0.654300  0.979000  0.232000  1.0
  C  C3082  1  0.845700  0.021000  0.732000  1.0
  C  C3083  1  0.345700  0.479000  0.268000  1.0
  C  C3084  1  0.154300  0.521000  0.768000  1.0
  C  C3085  1  0.345700  0.021000  0.768000  1.0
  C  C3086  1  0.154300  0.979000  0.268000  1.0
  C  C3087  1  0.654300  0.521000  0.732000  1.0
  C  C3088  1  0.845700  0.479000  0.232000  1.0
  C  C3089  1  0.637700  0.957400  0.207900  1.0
  C  C3090  1  0.862300  0.042600  0.707900  1.0
  C  C3091  1  0.362300  0.457400  0.292100  1.0
  C  C3092  1  0.137700  0.542600  0.792100  1.0
  C  C3093  1  0.362300  0.042600  0.792100  1.0
  C  C3094  1  0.137700  0.957400  0.292100  1.0
  C  C3095  1  0.637700  0.542600  0.707900  1.0
  C  C3096  1  0.862300  0.457400  0.207900  1.0
  C  C3097  1  0.645500  0.988300  0.210800  1.0
  C  C3098  1  0.854500  0.011700  0.710800  1.0
  C  C3099  1  0.354500  0.488300  0.289200  1.0
  C  C3100  1  0.145500  0.511700  0.789200  1.0
  C  C3101  1  0.354500  0.011700  0.789200  1.0
  C  C3102  1  0.145500  0.988300  0.289200  1.0
  C  C3103  1  0.645500  0.511700  0.710800  1.0
  C  C3104  1  0.854500  0.488300  0.210800  1.0
  C  C3105  1  0.645000  0.000700  0.203400  1.0
  C  C3106  1  0.855000  0.999300  0.703400  1.0
  C  C3107  1  0.355000  0.500700  0.296600  1.0
  C  C3108  1  0.145000  0.499300  0.796600  1.0
  C  C3109  1  0.355000  0.999300  0.796600  1.0
  C  C3110  1  0.145000  0.000700  0.296600  1.0
  C  C3111  1  0.645000  0.499300  0.703400  1.0
  C  C3112  1  0.855000  0.500700  0.203400  1.0
  C  C3113  1  0.653300  0.998500  0.193800  1.0
  C  C3114  1  0.846700  0.001500  0.693800  1.0
  C  C3115  1  0.346700  0.498500  0.306200  1.0
  C  C3116  1  0.153300  0.501500  0.806200  1.0
  C  C3117  1  0.346700  0.001500  0.806200  1.0
  C  C3118  1  0.153300  0.998500  0.306200  1.0
  C  C3119  1  0.653300  0.501500  0.693800  1.0
  C  C3120  1  0.846700  0.498500  0.193800  1.0
  C  C3121  1  0.648700  0.010900  0.186700  1.0
  C  C3122  1  0.851300  0.989100  0.686700  1.0
  C  C3123  1  0.351300  0.510900  0.313300  1.0
  C  C3124  1  0.148700  0.489100  0.813300  1.0
  C  C3125  1  0.351300  0.989100  0.813300  1.0
  C  C3126  1  0.148700  0.010900  0.313300  1.0
  C  C3127  1  0.648700  0.489100  0.686700  1.0
  C  C3128  1  0.851300  0.510900  0.186700  1.0
  C  C3129  1  0.656000  0.009100  0.177800  1.0
  C  C3130  1  0.844000  0.990900  0.677800  1.0
  C  C3131  1  0.344000  0.509100  0.322200  1.0
  C  C3132  1  0.156000  0.490900  0.822200  1.0
  C  C3133  1  0.344000  0.990900  0.822200  1.0
  C  C3134  1  0.156000  0.009100  0.322200  1.0
  C  C3135  1  0.656000  0.490900  0.677800  1.0
  C  C3136  1  0.844000  0.509100  0.177800  1.0
  C  C3137  1  0.672000  0.982900  0.182300  1.0
  C  C3138  1  0.828000  0.017100  0.682300  1.0
  C  C3139  1  0.328000  0.482900  0.317700  1.0
  C  C3140  1  0.172000  0.517100  0.817700  1.0
  C  C3141  1  0.328000  0.017100  0.817700  1.0
  C  C3142  1  0.172000  0.982900  0.317700  1.0
  C  C3143  1  0.672000  0.517100  0.682300  1.0
  C  C3144  1  0.828000  0.482900  0.182300  1.0
  C  C3145  1  0.665300  0.984200  0.191400  1.0
  C  C3146  1  0.834700  0.015800  0.691400  1.0
  C  C3147  1  0.334700  0.484200  0.308600  1.0
  C  C3148  1  0.165300  0.515800  0.808600  1.0
  C  C3149  1  0.334700  0.015800  0.808600  1.0
  C  C3150  1  0.165300  0.984200  0.308600  1.0
  C  C3151  1  0.665300  0.515800  0.691400  1.0
  C  C3152  1  0.834700  0.484200  0.191400  1.0
  C  C3153  1  0.642800  0.950600  0.159000  1.0
  C  C3154  1  0.857200  0.049400  0.659000  1.0
  C  C3155  1  0.357200  0.450600  0.341000  1.0
  C  C3156  1  0.142800  0.549400  0.841000  1.0
  C  C3157  1  0.357200  0.049400  0.841000  1.0
  C  C3158  1  0.142800  0.950600  0.341000  1.0
  C  C3159  1  0.642800  0.549400  0.659000  1.0
  C  C3160  1  0.857200  0.450600  0.159000  1.0
  C  C3161  1  0.658100  0.961500  0.160700  1.0
  C  C3162  1  0.841900  0.038500  0.660700  1.0
  C  C3163  1  0.341900  0.461500  0.339300  1.0
  C  C3164  1  0.158100  0.538500  0.839300  1.0
  C  C3165  1  0.341900  0.038500  0.839300  1.0
  C  C3166  1  0.158100  0.961500  0.339300  1.0
  C  C3167  1  0.658100  0.538500  0.660700  1.0
  C  C3168  1  0.841900  0.461500  0.160700  1.0
  C  C3169  1  0.641500  0.987700  0.157100  1.0
  C  C3170  1  0.858500  0.012300  0.657100  1.0
  C  C3171  1  0.358500  0.487700  0.342900  1.0
  C  C3172  1  0.141500  0.512300  0.842900  1.0
  C  C3173  1  0.358500  0.012300  0.842900  1.0
  C  C3174  1  0.141500  0.987700  0.342900  1.0
  C  C3175  1  0.641500  0.512300  0.657100  1.0
  C  C3176  1  0.858500  0.487700  0.157100  1.0
  C  C3177  1  0.625800  0.977500  0.155300  1.0
  C  C3178  1  0.874200  0.022500  0.655300  1.0
  C  C3179  1  0.374200  0.477500  0.344700  1.0
  C  C3180  1  0.125800  0.522500  0.844700  1.0
  C  C3181  1  0.374200  0.022500  0.844700  1.0
  C  C3182  1  0.125800  0.977500  0.344700  1.0
  C  C3183  1  0.625800  0.522500  0.655300  1.0
  C  C3184  1  0.874200  0.477500  0.155300  1.0
  C  C3185  1  0.626000  0.958300  0.156000  1.0
  C  C3186  1  0.874000  0.041700  0.656000  1.0
  C  C3187  1  0.374000  0.458300  0.344000  1.0
  C  C3188  1  0.126000  0.541700  0.844000  1.0
  C  C3189  1  0.374000  0.041700  0.844000  1.0
  C  C3190  1  0.126000  0.958300  0.344000  1.0
  C  C3191  1  0.626000  0.541700  0.656000  1.0
  C  C3192  1  0.874000  0.458300  0.156000  1.0
  C  C3193  1  0.608300  0.947600  0.155200  1.0
  C  C3194  1  0.891700  0.052400  0.655200  1.0
  C  C3195  1  0.391700  0.447600  0.344800  1.0
  C  C3196  1  0.108300  0.552400  0.844800  1.0
  C  C3197  1  0.391700  0.052400  0.844800  1.0
  C  C3198  1  0.108300  0.947600  0.344800  1.0
  C  C3199  1  0.608300  0.552400  0.655200  1.0
  C  C3200  1  0.891700  0.447600  0.155200  1.0
  C  C3201  1  0.605800  0.928900  0.156100  1.0
  C  C3202  1  0.894200  0.071100  0.656100  1.0
  C  C3203  1  0.394200  0.428900  0.343900  1.0
  C  C3204  1  0.105800  0.571100  0.843900  1.0
  C  C3205  1  0.394200  0.071100  0.843900  1.0
  C  C3206  1  0.105800  0.928900  0.343900  1.0
  C  C3207  1  0.605800  0.571100  0.656100  1.0
  C  C3208  1  0.894200  0.428900  0.156100  1.0
  C  C3209  1  0.628000  0.915000  0.166700  1.0
  C  C3210  1  0.872000  0.085000  0.666700  1.0
  C  C3211  1  0.372000  0.415000  0.333300  1.0
  C  C3212  1  0.128000  0.585000  0.833300  1.0
  C  C3213  1  0.372000  0.085000  0.833300  1.0
  C  C3214  1  0.128000  0.915000  0.333300  1.0
  C  C3215  1  0.628000  0.585000  0.666700  1.0
  C  C3216  1  0.872000  0.415000  0.166700  1.0
  C  C3217  1  0.584500  0.894900  0.162900  1.0
  C  C3218  1  0.915500  0.105100  0.662900  1.0
  C  C3219  1  0.415500  0.394900  0.337100  1.0
  C  C3220  1  0.084500  0.605100  0.837100  1.0
  C  C3221  1  0.415500  0.105100  0.837100  1.0
  C  C3222  1  0.084500  0.894900  0.337100  1.0
  C  C3223  1  0.584500  0.605100  0.662900  1.0
  C  C3224  1  0.915500  0.394900  0.162900  1.0
  C  C3225  1  0.587600  0.923300  0.154700  1.0
  C  C3226  1  0.912400  0.076700  0.654700  1.0
  C  C3227  1  0.412400  0.423300  0.345300  1.0
  C  C3228  1  0.087600  0.576700  0.845300  1.0
  C  C3229  1  0.412400  0.076700  0.845300  1.0
  C  C3230  1  0.087600  0.923300  0.345300  1.0
  C  C3231  1  0.587600  0.576700  0.654700  1.0
  C  C3232  1  0.912400  0.423300  0.154700  1.0
  C  C3233  1  0.575400  0.937300  0.152700  1.0
  C  C3234  1  0.924600  0.062700  0.652700  1.0
  C  C3235  1  0.424600  0.437300  0.347300  1.0
  C  C3236  1  0.075400  0.562700  0.847300  1.0
  C  C3237  1  0.424600  0.062700  0.847300  1.0
  C  C3238  1  0.075400  0.937300  0.347300  1.0
  C  C3239  1  0.575400  0.562700  0.652700  1.0
  C  C3240  1  0.924600  0.437300  0.152700  1.0
  C  C3241  1  0.555000  0.936000  0.150800  1.0
  C  C3242  1  0.945000  0.064000  0.650800  1.0
  C  C3243  1  0.445000  0.436000  0.349200  1.0
  C  C3244  1  0.055000  0.564000  0.849200  1.0
  C  C3245  1  0.445000  0.064000  0.849200  1.0
  C  C3246  1  0.055000  0.936000  0.349200  1.0
  C  C3247  1  0.555000  0.564000  0.650800  1.0
  C  C3248  1  0.945000  0.436000  0.150800  1.0
  C  C3249  1  0.545100  0.951900  0.148500  1.0
  C  C3250  1  0.954900  0.048100  0.648500  1.0
  C  C3251  1  0.454900  0.451900  0.351500  1.0
  C  C3252  1  0.045100  0.548100  0.851500  1.0
  C  C3253  1  0.454900  0.048100  0.851500  1.0
  C  C3254  1  0.045100  0.951900  0.351500  1.0
  C  C3255  1  0.545100  0.548100  0.648500  1.0
  C  C3256  1  0.954900  0.451900  0.148500  1.0
  C  C3257  1  0.527000  0.950900  0.145600  1.0
  C  C3258  1  0.973000  0.049100  0.645600  1.0
  C  C3259  1  0.473000  0.450900  0.354400  1.0
  C  C3260  1  0.027000  0.549100  0.854400  1.0
  C  C3261  1  0.473000  0.049100  0.854400  1.0
  C  C3262  1  0.027000  0.950900  0.354400  1.0
  C  C3263  1  0.527000  0.549100  0.645600  1.0
  C  C3264  1  0.973000  0.450900  0.145600  1.0
  C  C3265  1  0.527200  0.919000  0.147100  1.0
  C  C3266  1  0.972800  0.081000  0.647100  1.0
  C  C3267  1  0.472800  0.419000  0.352900  1.0
  C  C3268  1  0.027200  0.581000  0.852900  1.0
  C  C3269  1  0.472800  0.081000  0.852900  1.0
  C  C3270  1  0.027200  0.919000  0.352900  1.0
  C  C3271  1  0.527200  0.581000  0.647100  1.0
  C  C3272  1  0.972800  0.419000  0.147100  1.0
  C  C3273  1  0.545600  0.919300  0.149700  1.0
  C  C3274  1  0.954400  0.080700  0.649700  1.0
  C  C3275  1  0.454400  0.419300  0.350300  1.0
  C  C3276  1  0.045600  0.580700  0.850300  1.0
  C  C3277  1  0.454400  0.080700  0.850300  1.0
  C  C3278  1  0.045600  0.919300  0.350300  1.0
  C  C3279  1  0.545600  0.580700  0.649700  1.0
  C  C3280  1  0.954400  0.419300  0.149700  1.0
  C  C3281  1  0.729700  0.012600  0.089000  1.0
  C  C3282  1  0.770300  0.987400  0.589000  1.0
  C  C3283  1  0.270300  0.512600  0.411000  1.0
  C  C3284  1  0.229700  0.487400  0.911000  1.0
  C  C3285  1  0.270300  0.987400  0.911000  1.0
  C  C3286  1  0.229700  0.012600  0.411000  1.0
  C  C3287  1  0.729700  0.487400  0.589000  1.0
  C  C3288  1  0.770300  0.512600  0.089000  1.0
  C  C3289  1  0.731300  0.022500  0.080700  1.0
  C  C3290  1  0.768700  0.977500  0.580700  1.0
  C  C3291  1  0.268700  0.522500  0.419300  1.0
  C  C3292  1  0.231300  0.477500  0.919300  1.0
  C  C3293  1  0.268700  0.977500  0.919300  1.0
  C  C3294  1  0.231300  0.022500  0.419300  1.0
  C  C3295  1  0.731300  0.477500  0.580700  1.0
  C  C3296  1  0.768700  0.522500  0.080700  1.0
  C  C3297  1  0.713300  0.046100  0.086700  1.0
  C  C3298  1  0.786700  0.953900  0.586700  1.0
  C  C3299  1  0.286700  0.546100  0.413300  1.0
  C  C3300  1  0.213300  0.453900  0.913300  1.0
  C  C3301  1  0.286700  0.953900  0.913300  1.0
  C  C3302  1  0.213300  0.046100  0.413300  1.0
  C  C3303  1  0.713300  0.453900  0.586700  1.0
  C  C3304  1  0.786700  0.546100  0.086700  1.0
  C  C3305  1  0.711200  0.036900  0.095200  1.0
  C  C3306  1  0.788800  0.963100  0.595200  1.0
  C  C3307  1  0.288800  0.536900  0.404800  1.0
  C  C3308  1  0.211200  0.463100  0.904800  1.0
  C  C3309  1  0.288800  0.963100  0.904800  1.0
  C  C3310  1  0.211200  0.036900  0.404800  1.0
  C  C3311  1  0.711200  0.463100  0.595200  1.0
  C  C3312  1  0.788800  0.536900  0.095200  1.0
  C  C3313  1  0.719600  0.019700  0.096600  1.0
  C  C3314  1  0.780400  0.980300  0.596600  1.0
  C  C3315  1  0.280400  0.519700  0.403400  1.0
  C  C3316  1  0.219600  0.480300  0.903400  1.0
  C  C3317  1  0.280400  0.980300  0.903400  1.0
  C  C3318  1  0.219600  0.019700  0.403400  1.0
  C  C3319  1  0.719600  0.480300  0.596600  1.0
  C  C3320  1  0.780400  0.519700  0.096600  1.0
  C  C3321  1  0.716900  0.009800  0.105740  1.0
  C  C3322  1  0.783100  0.990200  0.605740  1.0
  C  C3323  1  0.283100  0.509800  0.394260  1.0
  C  C3324  1  0.216900  0.490200  0.894260  1.0
  C  C3325  1  0.283100  0.990200  0.894260  1.0
  C  C3326  1  0.216900  0.009800  0.394260  1.0
  C  C3327  1  0.716900  0.490200  0.605740  1.0
  C  C3328  1  0.783100  0.509800  0.105740  1.0
  C  C3329  1  0.723400  0.992600  0.108200  1.0
  C  C3330  1  0.776600  0.007400  0.608200  1.0
  C  C3331  1  0.276600  0.492600  0.391800  1.0
  C  C3332  1  0.223400  0.507400  0.891800  1.0
  C  C3333  1  0.276600  0.007400  0.891800  1.0
  C  C3334  1  0.223400  0.992600  0.391800  1.0
  C  C3335  1  0.723400  0.507400  0.608200  1.0
  C  C3336  1  0.776600  0.492600  0.108200  1.0
  C  C3337  1  0.753200  0.984400  0.103900  1.0
  C  C3338  1  0.746800  0.015600  0.603900  1.0
  C  C3339  1  0.246800  0.484400  0.396100  1.0
  C  C3340  1  0.253200  0.515600  0.896100  1.0
  C  C3341  1  0.246800  0.015600  0.896100  1.0
  C  C3342  1  0.253200  0.984400  0.396100  1.0
  C  C3343  1  0.753200  0.515600  0.603900  1.0
  C  C3344  1  0.746800  0.484400  0.103900  1.0
  C  C3345  1  0.721500  0.953800  0.117400  1.0
  C  C3346  1  0.778500  0.046200  0.617400  1.0
  C  C3347  1  0.278500  0.453800  0.382600  1.0
  C  C3348  1  0.221500  0.546200  0.882600  1.0
  C  C3349  1  0.278500  0.046200  0.882600  1.0
  C  C3350  1  0.221500  0.953800  0.382600  1.0
  C  C3351  1  0.721500  0.546200  0.617400  1.0
  C  C3352  1  0.778500  0.453800  0.117400  1.0
  C  C3353  1  0.719100  0.987000  0.117300  1.0
  C  C3354  1  0.780900  0.013000  0.617300  1.0
  C  C3355  1  0.280900  0.487000  0.382700  1.0
  C  C3356  1  0.219100  0.513000  0.882700  1.0
  C  C3357  1  0.280900  0.013000  0.882700  1.0
  C  C3358  1  0.219100  0.987000  0.382700  1.0
  C  C3359  1  0.719100  0.513000  0.617300  1.0
  C  C3360  1  0.780900  0.487000  0.117300  1.0
  C  C3361  1  0.708400  0.999400  0.122300  1.0
  C  C3362  1  0.791600  0.000600  0.622300  1.0
  C  C3363  1  0.291600  0.499400  0.377700  1.0
  C  C3364  1  0.208400  0.500600  0.877700  1.0
  C  C3365  1  0.291600  0.000600  0.877700  1.0
  C  C3366  1  0.208400  0.999400  0.377700  1.0
  C  C3367  1  0.708400  0.500600  0.622300  1.0
  C  C3368  1  0.791600  0.499400  0.122300  1.0
  C  C3369  1  0.700200  0.997300  0.131900  1.0
  C  C3370  1  0.799800  0.002700  0.631900  1.0
  C  C3371  1  0.299800  0.497300  0.368100  1.0
  C  C3372  1  0.200200  0.502700  0.868100  1.0
  C  C3373  1  0.299800  0.002700  0.868100  1.0
  C  C3374  1  0.200200  0.997300  0.368100  1.0
  C  C3375  1  0.700200  0.502700  0.631900  1.0
  C  C3376  1  0.799800  0.497300  0.131900  1.0
  C  C3377  1  0.692900  0.012500  0.136600  1.0
  C  C3378  1  0.807100  0.987500  0.636600  1.0
  C  C3379  1  0.307100  0.512500  0.363400  1.0
  C  C3380  1  0.192900  0.487500  0.863400  1.0
  C  C3381  1  0.307100  0.987500  0.863400  1.0
  C  C3382  1  0.192900  0.012500  0.363400  1.0
  C  C3383  1  0.692900  0.487500  0.636600  1.0
  C  C3384  1  0.807100  0.512500  0.136600  1.0
  C  C3385  1  0.686900  0.011000  0.145800  1.0
  C  C3386  1  0.813100  0.989000  0.645800  1.0
  C  C3387  1  0.313100  0.511000  0.354200  1.0
  C  C3388  1  0.186900  0.489000  0.854200  1.0
  C  C3389  1  0.313100  0.989000  0.854200  1.0
  C  C3390  1  0.186900  0.011000  0.354200  1.0
  C  C3391  1  0.686900  0.489000  0.645800  1.0
  C  C3392  1  0.813100  0.511000  0.145800  1.0
  C  C3393  1  0.694400  0.980100  0.146300  1.0
  C  C3394  1  0.805600  0.019900  0.646300  1.0
  C  C3395  1  0.305600  0.480100  0.353700  1.0
  C  C3396  1  0.194400  0.519900  0.853700  1.0
  C  C3397  1  0.305600  0.019900  0.853700  1.0
  C  C3398  1  0.194400  0.980100  0.353700  1.0
  C  C3399  1  0.694400  0.519900  0.646300  1.0
  C  C3400  1  0.805600  0.480100  0.146300  1.0
  C  C3401  1  0.700500  0.980900  0.137100  1.0
  C  C3402  1  0.799500  0.019100  0.637100  1.0
  C  C3403  1  0.299500  0.480900  0.362900  1.0
  C  C3404  1  0.200500  0.519100  0.862900  1.0
  C  C3405  1  0.299500  0.019100  0.862900  1.0
  C  C3406  1  0.200500  0.980900  0.362900  1.0
  C  C3407  1  0.700500  0.519100  0.637100  1.0
  C  C3408  1  0.799500  0.480900  0.137100  1.0
  C  C3409  1  0.600300  0.973900  0.042100  1.0
  C  C3410  1  0.899700  0.026100  0.542100  1.0
  C  C3411  1  0.399700  0.473900  0.457900  1.0
  C  C3412  1  0.100300  0.526100  0.957900  1.0
  C  C3413  1  0.399700  0.026100  0.957900  1.0
  C  C3414  1  0.100300  0.973900  0.457900  1.0
  C  C3415  1  0.600300  0.526100  0.542100  1.0
  C  C3416  1  0.899700  0.473900  0.042100  1.0
  C  C3417  1  0.581600  0.970700  0.041400  1.0
  C  C3418  1  0.918400  0.029300  0.541400  1.0
  C  C3419  1  0.418400  0.470700  0.458600  1.0
  C  C3420  1  0.081600  0.529300  0.958600  1.0
  C  C3421  1  0.418400  0.029300  0.958600  1.0
  C  C3422  1  0.081600  0.970700  0.458600  1.0
  C  C3423  1  0.581600  0.529300  0.541400  1.0
  C  C3424  1  0.918400  0.470700  0.041400  1.0
  C  C3425  1  0.575200  0.998200  0.048900  1.0
  C  C3426  1  0.924800  0.001800  0.548900  1.0
  C  C3427  1  0.424800  0.498200  0.451100  1.0
  C  C3428  1  0.075200  0.501800  0.951100  1.0
  C  C3429  1  0.424800  0.001800  0.951100  1.0
  C  C3430  1  0.075200  0.998200  0.451100  1.0
  C  C3431  1  0.575200  0.501800  0.548900  1.0
  C  C3432  1  0.924800  0.498200  0.048900  1.0
  C  C3433  1  0.593900  0.002100  0.049900  1.0
  C  C3434  1  0.906100  0.997900  0.549900  1.0
  C  C3435  1  0.406100  0.502100  0.450100  1.0
  C  C3436  1  0.093900  0.497900  0.950100  1.0
  C  C3437  1  0.406100  0.997900  0.950100  1.0
  C  C3438  1  0.093900  0.002100  0.450100  1.0
  C  C3439  1  0.593900  0.497900  0.549900  1.0
  C  C3440  1  0.906100  0.502100  0.049900  1.0
  C  C3441  1  0.607100  0.990000  0.046400  1.0
  C  C3442  1  0.892900  0.010000  0.546400  1.0
  C  C3443  1  0.392900  0.490000  0.453600  1.0
  C  C3444  1  0.107100  0.510000  0.953600  1.0
  C  C3445  1  0.392900  0.010000  0.953600  1.0
  C  C3446  1  0.107100  0.990000  0.453600  1.0
  C  C3447  1  0.607100  0.510000  0.546400  1.0
  C  C3448  1  0.892900  0.490000  0.046400  1.0
  C  C3449  1  0.627300  0.993200  0.048100  1.0
  C  C3450  1  0.872700  0.006800  0.548100  1.0
  C  C3451  1  0.372700  0.493200  0.451900  1.0
  C  C3452  1  0.127300  0.506800  0.951900  1.0
  C  C3453  1  0.372700  0.006800  0.951900  1.0
  C  C3454  1  0.127300  0.993200  0.451900  1.0
  C  C3455  1  0.627300  0.506800  0.548100  1.0
  C  C3456  1  0.872700  0.493200  0.048100  1.0
  C  C3457  1  0.641800  0.983500  0.044300  1.0
  C  C3458  1  0.858200  0.016500  0.544300  1.0
  C  C3459  1  0.358200  0.483500  0.455700  1.0
  C  C3460  1  0.141800  0.516500  0.955700  1.0
  C  C3461  1  0.358200  0.016500  0.955700  1.0
  C  C3462  1  0.141800  0.983500  0.455700  1.0
  C  C3463  1  0.641800  0.516500  0.544300  1.0
  C  C3464  1  0.858200  0.483500  0.044300  1.0
  C  C3465  1  0.629000  0.967800  0.030900  1.0
  C  C3466  1  0.871000  0.032200  0.530900  1.0
  C  C3467  1  0.371000  0.467800  0.469100  1.0
  C  C3468  1  0.129000  0.532200  0.969100  1.0
  C  C3469  1  0.371000  0.032200  0.969100  1.0
  C  C3470  1  0.129000  0.967800  0.469100  1.0
  C  C3471  1  0.629000  0.532200  0.530900  1.0
  C  C3472  1  0.871000  0.467800  0.030900  1.0
  C  C3473  1  0.681600  0.967400  0.046600  1.0
  C  C3474  1  0.818400  0.032600  0.546600  1.0
  C  C3475  1  0.318400  0.467400  0.453400  1.0
  C  C3476  1  0.181600  0.532600  0.953400  1.0
  C  C3477  1  0.318400  0.032600  0.953400  1.0
  C  C3478  1  0.181600  0.967400  0.453400  1.0
  C  C3479  1  0.681600  0.532600  0.546600  1.0
  C  C3480  1  0.818400  0.467400  0.046600  1.0
  C  C3481  1  0.659100  0.991200  0.046100  1.0
  C  C3482  1  0.840900  0.008800  0.546100  1.0
  C  C3483  1  0.340900  0.491200  0.453900  1.0
  C  C3484  1  0.159100  0.508800  0.953900  1.0
  C  C3485  1  0.340900  0.008800  0.953900  1.0
  C  C3486  1  0.159100  0.991200  0.453900  1.0
  C  C3487  1  0.659100  0.508800  0.546100  1.0
  C  C3488  1  0.840900  0.491200  0.046100  1.0
  C  C3489  1  0.658600  0.007000  0.051500  1.0
  C  C3490  1  0.841400  0.993000  0.551500  1.0
  C  C3491  1  0.341400  0.507000  0.448500  1.0
  C  C3492  1  0.158600  0.493000  0.948500  1.0
  C  C3493  1  0.341400  0.993000  0.948500  1.0
  C  C3494  1  0.158600  0.007000  0.448500  1.0
  C  C3495  1  0.658600  0.493000  0.551500  1.0
  C  C3496  1  0.841400  0.507000  0.051500  1.0
  C  C3497  1  0.674400  0.016900  0.056000  1.0
  C  C3498  1  0.825600  0.983100  0.556000  1.0
  C  C3499  1  0.325600  0.516900  0.444000  1.0
  C  C3500  1  0.174400  0.483100  0.944000  1.0
  C  C3501  1  0.325600  0.983100  0.944000  1.0
  C  C3502  1  0.174400  0.016900  0.444000  1.0
  C  C3503  1  0.674400  0.483100  0.556000  1.0
  C  C3504  1  0.825600  0.516900  0.056000  1.0
  C  C3505  1  0.671200  0.032600  0.061500  1.0
  C  C3506  1  0.828800  0.967400  0.561500  1.0
  C  C3507  1  0.328800  0.532600  0.438500  1.0
  C  C3508  1  0.171200  0.467400  0.938500  1.0
  C  C3509  1  0.328800  0.967400  0.938500  1.0
  C  C3510  1  0.171200  0.032600  0.438500  1.0
  C  C3511  1  0.671200  0.467400  0.561500  1.0
  C  C3512  1  0.828800  0.532600  0.061500  1.0
  C  C3513  1  0.685700  0.042900  0.064900  1.0
  C  C3514  1  0.814300  0.957100  0.564900  1.0
  C  C3515  1  0.314300  0.542900  0.435100  1.0
  C  C3516  1  0.185700  0.457100  0.935100  1.0
  C  C3517  1  0.314300  0.957100  0.935100  1.0
  C  C3518  1  0.185700  0.042900  0.435100  1.0
  C  C3519  1  0.685700  0.457100  0.564900  1.0
  C  C3520  1  0.814300  0.542900  0.064900  1.0
  C  C3521  1  0.707000  0.023600  0.058100  1.0
  C  C3522  1  0.793000  0.976400  0.558100  1.0
  C  C3523  1  0.293000  0.523600  0.441900  1.0
  C  C3524  1  0.207000  0.476400  0.941900  1.0
  C  C3525  1  0.293000  0.976400  0.941900  1.0
  C  C3526  1  0.207000  0.023600  0.441900  1.0
  C  C3527  1  0.707000  0.476400  0.558100  1.0
  C  C3528  1  0.793000  0.523600  0.058100  1.0
  C  C3529  1  0.693100  0.012800  0.054400  1.0
  C  C3530  1  0.806900  0.987200  0.554400  1.0
  C  C3531  1  0.306900  0.512800  0.445600  1.0
  C  C3532  1  0.193100  0.487200  0.945600  1.0
  C  C3533  1  0.306900  0.987200  0.945600  1.0
  C  C3534  1  0.193100  0.012800  0.445600  1.0
  C  C3535  1  0.693100  0.487200  0.554400  1.0
  C  C3536  1  0.806900  0.512800  0.054400  1.0
  C  C3537  1  0.734700  0.075800  0.041500  1.0
  C  C3538  1  0.765300  0.924200  0.541500  1.0
  C  C3539  1  0.265300  0.575800  0.458500  1.0
  C  C3540  1  0.234700  0.424200  0.958500  1.0
  C  C3541  1  0.265300  0.924200  0.958500  1.0
  C  C3542  1  0.234700  0.075800  0.458500  1.0
  C  C3543  1  0.734700  0.424200  0.541500  1.0
  C  C3544  1  0.765300  0.575800  0.041500  1.0
  C  C3545  1  0.734800  0.065600  0.049700  1.0
  C  C3546  1  0.765200  0.934400  0.549700  1.0
  C  C3547  1  0.265200  0.565600  0.450300  1.0
  C  C3548  1  0.234800  0.434400  0.950300  1.0
  C  C3549  1  0.265200  0.934400  0.950300  1.0
  C  C3550  1  0.234800  0.065600  0.450300  1.0
  C  C3551  1  0.734800  0.434400  0.549700  1.0
  C  C3552  1  0.765200  0.565600  0.049700  1.0
  C  C3553  1  0.709800  0.082300  0.055500  1.0
  C  C3554  1  0.790200  0.917700  0.555500  1.0
  C  C3555  1  0.290200  0.582300  0.444500  1.0
  C  C3556  1  0.209800  0.417700  0.944500  1.0
  C  C3557  1  0.290200  0.917700  0.944500  1.0
  C  C3558  1  0.209800  0.082300  0.444500  1.0
  C  C3559  1  0.709800  0.417700  0.555500  1.0
  C  C3560  1  0.790200  0.582300  0.055500  1.0
  C  C3561  1  0.709300  0.093100  0.047400  1.0
  C  C3562  1  0.790700  0.906900  0.547400  1.0
  C  C3563  1  0.290700  0.593100  0.452600  1.0
  C  C3564  1  0.209300  0.406900  0.952600  1.0
  C  C3565  1  0.290700  0.906900  0.952600  1.0
  C  C3566  1  0.209300  0.093100  0.452600  1.0
  C  C3567  1  0.709300  0.406900  0.547400  1.0
  C  C3568  1  0.790700  0.593100  0.047400  1.0
  C  C3569  1  0.721800  0.089800  0.040100  1.0
  C  C3570  1  0.778200  0.910200  0.540100  1.0
  C  C3571  1  0.278200  0.589800  0.459900  1.0
  C  C3572  1  0.221800  0.410200  0.959900  1.0
  C  C3573  1  0.278200  0.910200  0.959900  1.0
  C  C3574  1  0.221800  0.089800  0.459900  1.0
  C  C3575  1  0.721800  0.410200  0.540100  1.0
  C  C3576  1  0.778200  0.589800  0.040100  1.0
  C  C3577  1  0.722300  0.103100  0.032000  1.0
  C  C3578  1  0.777700  0.896900  0.532000  1.0
  C  C3579  1  0.277700  0.603100  0.468000  1.0
  C  C3580  1  0.222300  0.396900  0.968000  1.0
  C  C3581  1  0.277700  0.896900  0.968000  1.0
  C  C3582  1  0.222300  0.103100  0.468000  1.0
  C  C3583  1  0.722300  0.396900  0.532000  1.0
  C  C3584  1  0.777700  0.603100  0.032000  1.0
  C  C3585  1  0.734600  0.103800  0.024600  1.0
  C  C3586  1  0.765400  0.896200  0.524600  1.0
  C  C3587  1  0.265400  0.603800  0.475400  1.0
  C  C3588  1  0.234600  0.396200  0.975400  1.0
  C  C3589  1  0.265400  0.896200  0.975400  1.0
  C  C3590  1  0.234600  0.103800  0.475400  1.0
  C  C3591  1  0.734600  0.396200  0.524600  1.0
  C  C3592  1  0.765400  0.603800  0.024600  1.0
  C  C3593  1  0.749900  0.076400  0.019800  1.0
  C  C3594  1  0.750100  0.923600  0.519800  1.0
  C  C3595  1  0.250100  0.576400  0.480200  1.0
  C  C3596  1  0.249900  0.423600  0.980200  1.0
  C  C3597  1  0.250100  0.923600  0.980200  1.0
  C  C3598  1  0.249900  0.076400  0.480200  1.0
  C  C3599  1  0.749900  0.423600  0.519800  1.0
  C  C3600  1  0.750100  0.576400  0.019800  1.0
  C  C3601  1  0.758000  0.124000  0.009300  1.0
  C  C3602  1  0.742000  0.876000  0.509300  1.0
  C  C3603  1  0.242000  0.624000  0.490700  1.0
  C  C3604  1  0.258000  0.376000  0.990700  1.0
  C  C3605  1  0.242000  0.876000  0.990700  1.0
  C  C3606  1  0.258000  0.124000  0.490700  1.0
  C  C3607  1  0.758000  0.376000  0.509300  1.0
  C  C3608  1  0.742000  0.624000  0.009300  1.0
  C  C3609  1  0.729900  0.116200  0.017600  1.0
  C  C3610  1  0.770100  0.883800  0.517600  1.0
  C  C3611  1  0.270100  0.616200  0.482400  1.0
  C  C3612  1  0.229900  0.383800  0.982400  1.0
  C  C3613  1  0.270100  0.883800  0.982400  1.0
  C  C3614  1  0.229900  0.116200  0.482400  1.0
  C  C3615  1  0.729900  0.383800  0.517600  1.0
  C  C3616  1  0.770100  0.616200  0.017600  1.0
  C  C3617  1  0.713800  0.125700  0.019370  1.0
  C  C3618  1  0.786200  0.874300  0.519370  1.0
  C  C3619  1  0.286200  0.625700  0.480630  1.0
  C  C3620  1  0.213800  0.374300  0.980630  1.0
  C  C3621  1  0.286200  0.874300  0.980630  1.0
  C  C3622  1  0.213800  0.125700  0.480630  1.0
  C  C3623  1  0.713800  0.374300  0.519370  1.0
  C  C3624  1  0.786200  0.625700  0.019370  1.0
  C  C3625  1  0.705500  0.140900  0.013700  1.0
  C  C3626  1  0.794500  0.859100  0.513700  1.0
  C  C3627  1  0.294500  0.640900  0.486300  1.0
  C  C3628  1  0.205500  0.359100  0.986300  1.0
  C  C3629  1  0.294500  0.859100  0.986300  1.0
  C  C3630  1  0.205500  0.140900  0.486300  1.0
  C  C3631  1  0.705500  0.359100  0.513700  1.0
  C  C3632  1  0.794500  0.640900  0.013700  1.0
  C  C3633  1  0.690700  0.151000  0.017300  1.0
  C  C3634  1  0.809300  0.849000  0.517300  1.0
  C  C3635  1  0.309300  0.651000  0.482700  1.0
  C  C3636  1  0.190700  0.349000  0.982700  1.0
  C  C3637  1  0.309300  0.849000  0.982700  1.0
  C  C3638  1  0.190700  0.151000  0.482700  1.0
  C  C3639  1  0.690700  0.349000  0.517300  1.0
  C  C3640  1  0.809300  0.651000  0.017300  1.0
  C  C3641  1  0.681900  0.164000  0.011900  1.0
  C  C3642  1  0.818100  0.836000  0.511900  1.0
  C  C3643  1  0.318100  0.664000  0.488100  1.0
  C  C3644  1  0.181900  0.336000  0.988100  1.0
  C  C3645  1  0.318100  0.836000  0.988100  1.0
  C  C3646  1  0.181900  0.164000  0.488100  1.0
  C  C3647  1  0.681900  0.336000  0.511900  1.0
  C  C3648  1  0.818100  0.664000  0.011900  1.0
  C  C3649  1  0.701200  0.158000  0.999300  1.0
  C  C3650  1  0.798800  0.842000  0.499300  1.0
  C  C3651  1  0.298800  0.658000  0.500700  1.0
  C  C3652  1  0.201200  0.342000  0.000700  1.0
  C  C3653  1  0.298800  0.842000  0.000700  1.0
  C  C3654  1  0.201200  0.158000  0.500700  1.0
  C  C3655  1  0.701200  0.342000  0.499300  1.0
  C  C3656  1  0.798800  0.658000  0.999300  1.0
  C  C3657  1  0.710600  0.144800  0.004400  1.0
  C  C3658  1  0.789400  0.855200  0.504400  1.0
  C  C3659  1  0.289400  0.644800  0.495600  1.0
  C  C3660  1  0.210600  0.355200  0.995600  1.0
  C  C3661  1  0.289400  0.855200  0.995600  1.0
  C  C3662  1  0.210600  0.144800  0.495600  1.0
  C  C3663  1  0.710600  0.355200  0.504400  1.0
  C  C3664  1  0.789400  0.644800  0.004400  1.0
  C  C3665  1  0.641100  0.153400  0.980400  1.0
  C  C3666  1  0.858900  0.846600  0.480400  1.0
  C  C3667  1  0.358900  0.653400  0.519600  1.0
  C  C3668  1  0.141100  0.346600  0.019600  1.0
  C  C3669  1  0.358900  0.846600  0.019600  1.0
  C  C3670  1  0.141100  0.153400  0.519600  1.0
  C  C3671  1  0.641100  0.346600  0.480400  1.0
  C  C3672  1  0.858900  0.653400  0.980400  1.0
  C  C3673  1  0.655900  0.163200  0.984000  1.0
  C  C3674  1  0.844100  0.836800  0.484000  1.0
  C  C3675  1  0.344100  0.663200  0.516000  1.0
  C  C3676  1  0.155900  0.336800  0.016000  1.0
  C  C3677  1  0.344100  0.836800  0.016000  1.0
  C  C3678  1  0.155900  0.163200  0.516000  1.0
  C  C3679  1  0.655900  0.336800  0.484000  1.0
  C  C3680  1  0.844100  0.663200  0.984000  1.0
  C  C3681  1  0.639500  0.168000  0.997900  1.0
  C  C3682  1  0.860500  0.832000  0.497900  1.0
  C  C3683  1  0.360500  0.668000  0.502100  1.0
  C  C3684  1  0.139500  0.332000  0.002100  1.0
  C  C3685  1  0.360500  0.832000  0.002100  1.0
  C  C3686  1  0.139500  0.168000  0.502100  1.0
  C  C3687  1  0.639500  0.332000  0.497900  1.0
  C  C3688  1  0.860500  0.668000  0.997900  1.0
  C  C3689  1  0.624300  0.158700  0.994500  1.0
  C  C3690  1  0.875700  0.841300  0.494500  1.0
  C  C3691  1  0.375700  0.658700  0.505500  1.0
  C  C3692  1  0.124300  0.341300  0.005500  1.0
  C  C3693  1  0.375700  0.841300  0.005500  1.0
  C  C3694  1  0.124300  0.158700  0.505500  1.0
  C  C3695  1  0.624300  0.341300  0.494500  1.0
  C  C3696  1  0.875700  0.658700  0.994500  1.0
  C  C3697  1  0.624900  0.150600  0.985500  1.0
  C  C3698  1  0.875100  0.849400  0.485500  1.0
  C  C3699  1  0.375100  0.650600  0.514500  1.0
  C  C3700  1  0.124900  0.349400  0.014500  1.0
  C  C3701  1  0.375100  0.849400  0.014500  1.0
  C  C3702  1  0.124900  0.150600  0.514500  1.0
  C  C3703  1  0.624900  0.349400  0.485500  1.0
  C  C3704  1  0.875100  0.650600  0.985500  1.0
  C  C3705  1  0.607500  0.142700  0.981400  1.0
  C  C3706  1  0.892500  0.857300  0.481400  1.0
  C  C3707  1  0.392500  0.642700  0.518600  1.0
  C  C3708  1  0.107500  0.357300  0.018600  1.0
  C  C3709  1  0.392500  0.857300  0.018600  1.0
  C  C3710  1  0.107500  0.142700  0.518600  1.0
  C  C3711  1  0.607500  0.357300  0.481400  1.0
  C  C3712  1  0.892500  0.642700  0.981400  1.0
  C  C3713  1  0.605600  0.132300  0.973400  1.0
  C  C3714  1  0.894400  0.867700  0.473400  1.0
  C  C3715  1  0.394400  0.632300  0.526600  1.0
  C  C3716  1  0.105600  0.367700  0.026600  1.0
  C  C3717  1  0.394400  0.867700  0.026600  1.0
  C  C3718  1  0.105600  0.132300  0.526600  1.0
  C  C3719  1  0.605600  0.367700  0.473400  1.0
  C  C3720  1  0.894400  0.632300  0.973400  1.0
  C  C3721  1  0.629000  0.112100  0.968500  1.0
  C  C3722  1  0.871000  0.887900  0.468500  1.0
  C  C3723  1  0.371000  0.612100  0.531500  1.0
  C  C3724  1  0.129000  0.387900  0.031500  1.0
  C  C3725  1  0.371000  0.887900  0.031500  1.0
  C  C3726  1  0.129000  0.112100  0.531500  1.0
  C  C3727  1  0.629000  0.387900  0.468500  1.0
  C  C3728  1  0.871000  0.612100  0.968500  1.0
  C  C3729  1  0.583100  0.122900  0.955700  1.0
  C  C3730  1  0.916900  0.877100  0.455700  1.0
  C  C3731  1  0.416900  0.622900  0.544300  1.0
  C  C3732  1  0.083100  0.377100  0.044300  1.0
  C  C3733  1  0.416900  0.877100  0.044300  1.0
  C  C3734  1  0.083100  0.122900  0.544300  1.0
  C  C3735  1  0.583100  0.377100  0.455700  1.0
  C  C3736  1  0.916900  0.622900  0.955700  1.0
  C  C3737  1  0.588000  0.125300  0.972000  1.0
  C  C3738  1  0.912000  0.874700  0.472000  1.0
  C  C3739  1  0.412000  0.625300  0.528000  1.0
  C  C3740  1  0.088000  0.374700  0.028000  1.0
  C  C3741  1  0.412000  0.874700  0.028000  1.0
  C  C3742  1  0.088000  0.125300  0.528000  1.0
  C  C3743  1  0.588000  0.374700  0.472000  1.0
  C  C3744  1  0.912000  0.625300  0.972000  1.0
  C  C3745  1  0.575200  0.130500  0.978600  1.0
  C  C3746  1  0.924800  0.869500  0.478600  1.0
  C  C3747  1  0.424800  0.630500  0.521400  1.0
  C  C3748  1  0.075200  0.369500  0.021400  1.0
  C  C3749  1  0.424800  0.869500  0.021400  1.0
  C  C3750  1  0.075200  0.130500  0.521400  1.0
  C  C3751  1  0.575200  0.369500  0.478600  1.0
  C  C3752  1  0.924800  0.630500  0.978600  1.0
  C  C3753  1  0.554800  0.127700  0.978300  1.0
  C  C3754  1  0.945200  0.872300  0.478300  1.0
  C  C3755  1  0.445200  0.627700  0.521700  1.0
  C  C3756  1  0.054800  0.372300  0.021700  1.0
  C  C3757  1  0.445200  0.872300  0.021700  1.0
  C  C3758  1  0.054800  0.127700  0.521700  1.0
  C  C3759  1  0.554800  0.372300  0.478300  1.0
  C  C3760  1  0.945200  0.627700  0.978300  1.0
  C  C3761  1  0.543900  0.133100  0.985900  1.0
  C  C3762  1  0.956100  0.866900  0.485900  1.0
  C  C3763  1  0.456100  0.633100  0.514100  1.0
  C  C3764  1  0.043900  0.366900  0.014100  1.0
  C  C3765  1  0.456100  0.866900  0.014100  1.0
  C  C3766  1  0.043900  0.133100  0.514100  1.0
  C  C3767  1  0.543900  0.366900  0.485900  1.0
  C  C3768  1  0.956100  0.633100  0.985900  1.0
  C  C3769  1  0.524900  0.131100  0.985400  1.0
  C  C3770  1  0.975100  0.868900  0.485400  1.0
  C  C3771  1  0.475100  0.631100  0.514600  1.0
  C  C3772  1  0.024900  0.368900  0.014600  1.0
  C  C3773  1  0.475100  0.868900  0.014600  1.0
  C  C3774  1  0.024900  0.131100  0.514600  1.0
  C  C3775  1  0.524900  0.368900  0.485400  1.0
  C  C3776  1  0.975100  0.631100  0.985400  1.0
  C  C3777  1  0.526600  0.118000  0.970500  1.0
  C  C3778  1  0.973400  0.882000  0.470500  1.0
  C  C3779  1  0.473400  0.618000  0.529500  1.0
  C  C3780  1  0.026600  0.382000  0.029500  1.0
  C  C3781  1  0.473400  0.882000  0.029500  1.0
  C  C3782  1  0.026600  0.118000  0.529500  1.0
  C  C3783  1  0.526600  0.382000  0.470500  1.0
  C  C3784  1  0.973400  0.618000  0.970500  1.0
  C  C3785  1  0.545600  0.120100  0.970500  1.0
  C  C3786  1  0.954400  0.879900  0.470500  1.0
  C  C3787  1  0.454400  0.620100  0.529500  1.0
  C  C3788  1  0.045600  0.379900  0.029500  1.0
  C  C3789  1  0.454400  0.879900  0.029500  1.0
  C  C3790  1  0.045600  0.120100  0.529500  1.0
  C  C3791  1  0.545600  0.379900  0.470500  1.0
  C  C3792  1  0.954400  0.620100  0.970500  1.0
  C  C3793  1  0.578300  0.294400  0.966100  1.0
  C  C3794  1  0.921700  0.705600  0.466100  1.0
  C  C3795  1  0.421700  0.794400  0.533900  1.0
  C  C3796  1  0.078300  0.205600  0.033900  1.0
  C  C3797  1  0.421700  0.705600  0.033900  1.0
  C  C3798  1  0.078300  0.294400  0.533900  1.0
  C  C3799  1  0.578300  0.205600  0.466100  1.0
  C  C3800  1  0.921700  0.794400  0.966100  1.0
  C  C3801  1  0.561500  0.303200  0.966700  1.0
  C  C3802  1  0.938500  0.696800  0.466700  1.0
  C  C3803  1  0.438500  0.803200  0.533300  1.0
  C  C3804  1  0.061500  0.196800  0.033300  1.0
  C  C3805  1  0.438500  0.696800  0.033300  1.0
  C  C3806  1  0.061500  0.303200  0.533300  1.0
  C  C3807  1  0.561500  0.196800  0.466700  1.0
  C  C3808  1  0.938500  0.803200  0.966700  1.0
  C  C3809  1  0.558700  0.296300  0.982500  1.0
  C  C3810  1  0.941300  0.703700  0.482500  1.0
  C  C3811  1  0.441300  0.796300  0.517500  1.0
  C  C3812  1  0.058700  0.203700  0.017500  1.0
  C  C3813  1  0.441300  0.703700  0.017500  1.0
  C  C3814  1  0.058700  0.296300  0.517500  1.0
  C  C3815  1  0.558700  0.203700  0.482500  1.0
  C  C3816  1  0.941300  0.796300  0.982500  1.0
  C  C3817  1  0.575200  0.286900  0.982200  1.0
  C  C3818  1  0.924800  0.713100  0.482200  1.0
  C  C3819  1  0.424800  0.786900  0.517800  1.0
  C  C3820  1  0.075200  0.213100  0.017800  1.0
  C  C3821  1  0.424800  0.713100  0.017800  1.0
  C  C3822  1  0.075200  0.286900  0.517800  1.0
  C  C3823  1  0.575200  0.213100  0.482200  1.0
  C  C3824  1  0.924800  0.786900  0.982200  1.0
  C  C3825  1  0.586000  0.285900  0.974100  1.0
  C  C3826  1  0.914000  0.714100  0.474100  1.0
  C  C3827  1  0.414000  0.785900  0.525900  1.0
  C  C3828  1  0.086000  0.214100  0.025900  1.0
  C  C3829  1  0.414000  0.714100  0.025900  1.0
  C  C3830  1  0.086000  0.285900  0.525900  1.0
  C  C3831  1  0.586000  0.214100  0.474100  1.0
  C  C3832  1  0.914000  0.785900  0.974100  1.0
  C  C3833  1  0.602500  0.273400  0.973700  1.0
  C  C3834  1  0.897500  0.726600  0.473700  1.0
  C  C3835  1  0.397500  0.773400  0.526300  1.0
  C  C3836  1  0.102500  0.226600  0.026300  1.0
  C  C3837  1  0.397500  0.726600  0.026300  1.0
  C  C3838  1  0.102500  0.273400  0.526300  1.0
  C  C3839  1  0.602500  0.226600  0.473700  1.0
  C  C3840  1  0.897500  0.773400  0.973700  1.0
  C  C3841  1  0.615100  0.271000  0.966600  1.0
  C  C3842  1  0.884900  0.729000  0.466600  1.0
  C  C3843  1  0.384900  0.771000  0.533400  1.0
  C  C3844  1  0.115100  0.229000  0.033400  1.0
  C  C3845  1  0.384900  0.729000  0.033400  1.0
  C  C3846  1  0.115100  0.271000  0.533400  1.0
  C  C3847  1  0.615100  0.229000  0.466600  1.0
  C  C3848  1  0.884900  0.771000  0.966600  1.0
  C  C3849  1  0.621000  0.298700  0.958500  1.0
  C  C3850  1  0.879000  0.701300  0.458500  1.0
  C  C3851  1  0.379000  0.798700  0.541500  1.0
  C  C3852  1  0.121000  0.201300  0.041500  1.0
  C  C3853  1  0.379000  0.701300  0.041500  1.0
  C  C3854  1  0.121000  0.298700  0.541500  1.0
  C  C3855  1  0.621000  0.201300  0.458500  1.0
  C  C3856  1  0.879000  0.798700  0.958500  1.0
  C  C3857  1  0.639100  0.241000  0.955500  1.0
  C  C3858  1  0.860900  0.759000  0.455500  1.0
  C  C3859  1  0.360900  0.741000  0.544500  1.0
  C  C3860  1  0.139100  0.259000  0.044500  1.0
  C  C3861  1  0.360900  0.759000  0.044500  1.0
  C  C3862  1  0.139100  0.241000  0.544500  1.0
  C  C3863  1  0.639100  0.259000  0.455500  1.0
  C  C3864  1  0.860900  0.741000  0.955500  1.0
  C  C3865  1  0.628700  0.258000  0.968500  1.0
  C  C3866  1  0.871300  0.742000  0.468500  1.0
  C  C3867  1  0.371300  0.758000  0.531500  1.0
  C  C3868  1  0.128700  0.242000  0.031500  1.0
  C  C3869  1  0.371300  0.742000  0.031500  1.0
  C  C3870  1  0.128700  0.258000  0.531500  1.0
  C  C3871  1  0.628700  0.242000  0.468500  1.0
  C  C3872  1  0.871300  0.758000  0.968500  1.0
  C  C3873  1  0.627000  0.249400  0.977000  1.0
  C  C3874  1  0.873000  0.750600  0.477000  1.0
  C  C3875  1  0.373000  0.749400  0.523000  1.0
  C  C3876  1  0.127000  0.250600  0.023000  1.0
  C  C3877  1  0.373000  0.750600  0.023000  1.0
  C  C3878  1  0.127000  0.249400  0.523000  1.0
  C  C3879  1  0.627000  0.250600  0.477000  1.0
  C  C3880  1  0.873000  0.749400  0.977000  1.0
  C  C3881  1  0.639600  0.235100  0.981200  1.0
  C  C3882  1  0.860400  0.764900  0.481200  1.0
  C  C3883  1  0.360400  0.735100  0.518800  1.0
  C  C3884  1  0.139600  0.264900  0.018800  1.0
  C  C3885  1  0.360400  0.764900  0.018800  1.0
  C  C3886  1  0.139600  0.235100  0.518800  1.0
  C  C3887  1  0.639600  0.264900  0.481200  1.0
  C  C3888  1  0.860400  0.735100  0.981200  1.0
  C  C3889  1  0.638800  0.231100  0.990800  1.0
  C  C3890  1  0.861200  0.768900  0.490800  1.0
  C  C3891  1  0.361200  0.731100  0.509200  1.0
  C  C3892  1  0.138800  0.268900  0.009200  1.0
  C  C3893  1  0.361200  0.768900  0.009200  1.0
  C  C3894  1  0.138800  0.231100  0.509200  1.0
  C  C3895  1  0.638800  0.268900  0.490800  1.0
  C  C3896  1  0.861200  0.731100  0.990800  1.0
  C  C3897  1  0.649500  0.217300  0.994700  1.0
  C  C3898  1  0.850500  0.782700  0.494700  1.0
  C  C3899  1  0.350500  0.717300  0.505300  1.0
  C  C3900  1  0.149500  0.282700  0.005300  1.0
  C  C3901  1  0.350500  0.782700  0.005300  1.0
  C  C3902  1  0.149500  0.217300  0.505300  1.0
  C  C3903  1  0.649500  0.282700  0.494700  1.0
  C  C3904  1  0.850500  0.717300  0.994700  1.0
  C  C3905  1  0.662500  0.210900  0.980100  1.0
  C  C3906  1  0.837500  0.789100  0.480100  1.0
  C  C3907  1  0.337500  0.710900  0.519900  1.0
  C  C3908  1  0.162500  0.289100  0.019900  1.0
  C  C3909  1  0.337500  0.789100  0.019900  1.0
  C  C3910  1  0.162500  0.210900  0.519900  1.0
  C  C3911  1  0.662500  0.289100  0.480100  1.0
  C  C3912  1  0.837500  0.710900  0.980100  1.0
  C  C3913  1  0.652000  0.224600  0.975900  1.0
  C  C3914  1  0.848000  0.775400  0.475900  1.0
  C  C3915  1  0.348000  0.724600  0.524100  1.0
  C  C3916  1  0.152000  0.275400  0.024100  1.0
  C  C3917  1  0.348000  0.775400  0.024100  1.0
  C  C3918  1  0.152000  0.224600  0.524100  1.0
  C  C3919  1  0.652000  0.275400  0.475900  1.0
  C  C3920  1  0.848000  0.724600  0.975900  1.0
  C  C3921  1  0.488300  0.167900  0.961900  1.0
  C  C3922  1  0.011700  0.832100  0.461900  1.0
  C  C3923  1  0.511700  0.667900  0.538100  1.0
  C  C3924  1  0.988300  0.332100  0.038100  1.0
  C  C3925  1  0.511700  0.832100  0.038100  1.0
  C  C3926  1  0.988300  0.167900  0.538100  1.0
  C  C3927  1  0.488300  0.332100  0.461900  1.0
  C  C3928  1  0.011700  0.667900  0.961900  1.0
  C  C3929  1  0.487300  0.150200  0.965500  1.0
  C  C3930  1  0.012700  0.849800  0.465500  1.0
  C  C3931  1  0.512700  0.650200  0.534500  1.0
  C  C3932  1  0.987300  0.349800  0.034500  1.0
  C  C3933  1  0.512700  0.849800  0.034500  1.0
  C  C3934  1  0.987300  0.150200  0.534500  1.0
  C  C3935  1  0.487300  0.349800  0.465500  1.0
  C  C3936  1  0.012700  0.650200  0.965500  1.0
  C  C3937  1  0.486800  0.161000  0.980900  1.0
  C  C3938  1  0.013200  0.839000  0.480900  1.0
  C  C3939  1  0.513200  0.661000  0.519100  1.0
  C  C3940  1  0.986800  0.339000  0.019100  1.0
  C  C3941  1  0.513200  0.839000  0.019100  1.0
  C  C3942  1  0.986800  0.161000  0.519100  1.0
  C  C3943  1  0.486800  0.339000  0.480900  1.0
  C  C3944  1  0.013200  0.661000  0.980900  1.0
  C  C3945  1  0.488000  0.179000  0.977800  1.0
  C  C3946  1  0.012000  0.821000  0.477800  1.0
  C  C3947  1  0.512000  0.679000  0.522200  1.0
  C  C3948  1  0.988000  0.321000  0.022200  1.0
  C  C3949  1  0.512000  0.821000  0.022200  1.0
  C  C3950  1  0.988000  0.179000  0.522200  1.0
  C  C3951  1  0.488000  0.321000  0.477800  1.0
  C  C3952  1  0.012000  0.679000  0.977800  1.0
  C  C3953  1  0.488000  0.182900  0.968100  1.0
  C  C3954  1  0.012000  0.817100  0.468100  1.0
  C  C3955  1  0.512000  0.682900  0.531900  1.0
  C  C3956  1  0.988000  0.317100  0.031900  1.0
  C  C3957  1  0.512000  0.817100  0.031900  1.0
  C  C3958  1  0.988000  0.182900  0.531900  1.0
  C  C3959  1  0.488000  0.317100  0.468100  1.0
  C  C3960  1  0.012000  0.682900  0.968100  1.0
  C  C3961  1  0.491200  0.202400  0.965100  1.0
  C  C3962  1  0.008800  0.797600  0.465100  1.0
  C  C3963  1  0.508800  0.702400  0.534900  1.0
  C  C3964  1  0.991200  0.297600  0.034900  1.0
  C  C3965  1  0.508800  0.797600  0.034900  1.0
  C  C3966  1  0.991200  0.202400  0.534900  1.0
  C  C3967  1  0.491200  0.297600  0.465100  1.0
  C  C3968  1  0.008800  0.702400  0.965100  1.0
  C  C3969  1  0.489500  0.210000  0.956300  1.0
  C  C3970  1  0.010500  0.790000  0.456300  1.0
  C  C3971  1  0.510500  0.710000  0.543700  1.0
  C  C3972  1  0.989500  0.290000  0.043700  1.0
  C  C3973  1  0.510500  0.790000  0.043700  1.0
  C  C3974  1  0.989500  0.210000  0.543700  1.0
  C  C3975  1  0.489500  0.290000  0.456300  1.0
  C  C3976  1  0.010500  0.710000  0.956300  1.0
  C  C3977  1  0.498300  0.191000  0.943000  1.0
  C  C3978  1  0.001700  0.809000  0.443000  1.0
  C  C3979  1  0.501700  0.691000  0.557000  1.0
  C  C3980  1  0.998300  0.309000  0.057000  1.0
  C  C3981  1  0.501700  0.809000  0.057000  1.0
  C  C3982  1  0.998300  0.191000  0.557000  1.0
  C  C3983  1  0.498300  0.309000  0.443000  1.0
  C  C3984  1  0.001700  0.691000  0.943000  1.0
  C  C3985  1  0.503000  0.236000  0.940300  1.0
  C  C3986  1  0.997000  0.764000  0.440300  1.0
  C  C3987  1  0.497000  0.736000  0.559700  1.0
  C  C3988  1  0.003000  0.264000  0.059700  1.0
  C  C3989  1  0.497000  0.764000  0.059700  1.0
  C  C3990  1  0.003000  0.236000  0.559700  1.0
  C  C3991  1  0.503000  0.264000  0.440300  1.0
  C  C3992  1  0.997000  0.736000  0.940300  1.0
  C  C3993  1  0.493300  0.228700  0.955900  1.0
  C  C3994  1  0.006700  0.771300  0.455900  1.0
  C  C3995  1  0.506700  0.728700  0.544100  1.0
  C  C3996  1  0.993300  0.271300  0.044100  1.0
  C  C3997  1  0.506700  0.771300  0.044100  1.0
  C  C3998  1  0.993300  0.228700  0.544100  1.0
  C  C3999  1  0.493300  0.271300  0.455900  1.0
  C  C4000  1  0.006700  0.728700  0.955900  1.0
  C  C4001  1  0.497900  0.236400  0.964500  1.0
  C  C4002  1  0.002100  0.763600  0.464500  1.0
  C  C4003  1  0.502100  0.736400  0.535500  1.0
  C  C4004  1  0.997900  0.263600  0.035500  1.0
  C  C4005  1  0.502100  0.763600  0.035500  1.0
  C  C4006  1  0.997900  0.236400  0.535500  1.0
  C  C4007  1  0.497900  0.263600  0.464500  1.0
  C  C4008  1  0.002100  0.736400  0.964500  1.0
  C  C4009  1  0.503700  0.255900  0.966300  1.0
  C  C4010  1  0.996300  0.744100  0.466300  1.0
  C  C4011  1  0.496300  0.755900  0.533700  1.0
  C  C4012  1  0.003700  0.244100  0.033700  1.0
  C  C4013  1  0.496300  0.744100  0.033700  1.0
  C  C4014  1  0.003700  0.255900  0.533700  1.0
  C  C4015  1  0.503700  0.244100  0.466300  1.0
  C  C4016  1  0.996300  0.755900  0.966300  1.0
  C  C4017  1  0.506200  0.262000  0.975500  1.0
  C  C4018  1  0.993800  0.738000  0.475500  1.0
  C  C4019  1  0.493800  0.762000  0.524500  1.0
  C  C4020  1  0.006200  0.238000  0.024500  1.0
  C  C4021  1  0.493800  0.738000  0.024500  1.0
  C  C4022  1  0.006200  0.262000  0.524500  1.0
  C  C4023  1  0.506200  0.238000  0.475500  1.0
  C  C4024  1  0.993800  0.762000  0.975500  1.0
  C  C4025  1  0.512900  0.279400  0.977500  1.0
  C  C4026  1  0.987100  0.720600  0.477500  1.0
  C  C4027  1  0.487100  0.779400  0.522500  1.0
  C  C4028  1  0.012900  0.220600  0.022500  1.0
  C  C4029  1  0.487100  0.720600  0.022500  1.0
  C  C4030  1  0.012900  0.279400  0.522500  1.0
  C  C4031  1  0.512900  0.220600  0.477500  1.0
  C  C4032  1  0.987100  0.779400  0.977500  1.0
  C  C4033  1  0.515500  0.285500  0.961600  1.0
  C  C4034  1  0.984500  0.714500  0.461600  1.0
  C  C4035  1  0.484500  0.785500  0.538400  1.0
  C  C4036  1  0.015500  0.214500  0.038400  1.0
  C  C4037  1  0.484500  0.714500  0.038400  1.0
  C  C4038  1  0.015500  0.285500  0.538400  1.0
  C  C4039  1  0.515500  0.214500  0.461600  1.0
  C  C4040  1  0.984500  0.785500  0.961600  1.0
  C  C4041  1  0.508900  0.268300  0.959300  1.0
  C  C4042  1  0.991100  0.731700  0.459300  1.0
  C  C4043  1  0.491100  0.768300  0.540700  1.0
  C  C4044  1  0.008900  0.231700  0.040700  1.0
  C  C4045  1  0.491100  0.731700  0.040700  1.0
  C  C4046  1  0.008900  0.268300  0.540700  1.0
  C  C4047  1  0.508900  0.231700  0.459300  1.0
  C  C4048  1  0.991100  0.768300  0.959300  1.0
  C  C4049  1  0.474100  0.334000  0.966800  1.0
  C  C4050  1  0.025900  0.666000  0.466800  1.0
  C  C4051  1  0.525900  0.834000  0.533200  1.0
  C  C4052  1  0.974100  0.166000  0.033200  1.0
  C  C4053  1  0.525900  0.666000  0.033200  1.0
  C  C4054  1  0.974100  0.334000  0.533200  1.0
  C  C4055  1  0.474100  0.166000  0.466800  1.0
  C  C4056  1  0.025900  0.834000  0.966800  1.0
  C  C4057  1  0.492600  0.329800  0.966600  1.0
  C  C4058  1  0.007400  0.670200  0.466600  1.0
  C  C4059  1  0.507400  0.829800  0.533400  1.0
  C  C4060  1  0.992600  0.170200  0.033400  1.0
  C  C4061  1  0.507400  0.670200  0.033400  1.0
  C  C4062  1  0.992600  0.329800  0.533400  1.0
  C  C4063  1  0.492600  0.170200  0.466600  1.0
  C  C4064  1  0.007400  0.829800  0.966600  1.0
  C  C4065  1  0.491900  0.321800  0.982300  1.0
  C  C4066  1  0.008100  0.678200  0.482300  1.0
  C  C4067  1  0.508100  0.821800  0.517700  1.0
  C  C4068  1  0.991900  0.178200  0.017700  1.0
  C  C4069  1  0.508100  0.678200  0.017700  1.0
  C  C4070  1  0.991900  0.321800  0.517700  1.0
  C  C4071  1  0.491900  0.178200  0.482300  1.0
  C  C4072  1  0.008100  0.821800  0.982300  1.0
  C  C4073  1  0.473300  0.326100  0.983000  1.0
  C  C4074  1  0.026700  0.673900  0.483000  1.0
  C  C4075  1  0.526700  0.826100  0.517000  1.0
  C  C4076  1  0.973300  0.173900  0.017000  1.0
  C  C4077  1  0.526700  0.673900  0.017000  1.0
  C  C4078  1  0.973300  0.326100  0.517000  1.0
  C  C4079  1  0.473300  0.173900  0.483000  1.0
  C  C4080  1  0.026700  0.826100  0.983000  1.0
  C  C4081  1  0.463800  0.332000  0.975100  1.0
  C  C4082  1  0.036200  0.668000  0.475100  1.0
  C  C4083  1  0.536200  0.832000  0.524900  1.0
  C  C4084  1  0.963800  0.168000  0.024900  1.0
  C  C4085  1  0.536200  0.668000  0.024900  1.0
  C  C4086  1  0.963800  0.332000  0.524900  1.0
  C  C4087  1  0.463800  0.168000  0.475100  1.0
  C  C4088  1  0.036200  0.832000  0.975100  1.0
  C  C4089  1  0.443400  0.335400  0.975600  1.0
  C  C4090  1  0.056600  0.664600  0.475600  1.0
  C  C4091  1  0.556600  0.835400  0.524400  1.0
  C  C4092  1  0.943400  0.164600  0.024400  1.0
  C  C4093  1  0.556600  0.664600  0.024400  1.0
  C  C4094  1  0.943400  0.335400  0.524400  1.0
  C  C4095  1  0.443400  0.164600  0.475600  1.0
  C  C4096  1  0.056600  0.835400  0.975600  1.0
  C  C4097  1  0.431900  0.341500  0.968500  1.0
  C  C4098  1  0.068100  0.658500  0.468500  1.0
  C  C4099  1  0.568100  0.841500  0.531500  1.0
  C  C4100  1  0.931900  0.158500  0.031500  1.0
  C  C4101  1  0.568100  0.658500  0.031500  1.0
  C  C4102  1  0.931900  0.341500  0.531500  1.0
  C  C4103  1  0.431900  0.158500  0.468500  1.0
  C  C4104  1  0.068100  0.841500  0.968500  1.0
  C  C4105  1  0.438000  0.364000  0.957000  1.0
  C  C4106  1  0.062000  0.636000  0.457000  1.0
  C  C4107  1  0.562000  0.864000  0.543000  1.0
  C  C4108  1  0.938000  0.136000  0.043000  1.0
  C  C4109  1  0.562000  0.636000  0.043000  1.0
  C  C4110  1  0.938000  0.364000  0.543000  1.0
  C  C4111  1  0.438000  0.136000  0.457000  1.0
  C  C4112  1  0.062000  0.864000  0.957000  1.0
  C  C4113  1  0.394000  0.334600  0.958300  1.0
  C  C4114  1  0.106000  0.665400  0.458300  1.0
  C  C4115  1  0.606000  0.834600  0.541700  1.0
  C  C4116  1  0.894000  0.165400  0.041700  1.0
  C  C4117  1  0.606000  0.665400  0.041700  1.0
  C  C4118  1  0.894000  0.334600  0.541700  1.0
  C  C4119  1  0.394000  0.165400  0.458300  1.0
  C  C4120  1  0.106000  0.834600  0.958300  1.0
  C  C4121  1  0.413400  0.341900  0.971000  1.0
  C  C4122  1  0.086600  0.658100  0.471000  1.0
  C  C4123  1  0.586600  0.841900  0.529000  1.0
  C  C4124  1  0.913400  0.158100  0.029000  1.0
  C  C4125  1  0.586600  0.658100  0.029000  1.0
  C  C4126  1  0.913400  0.341900  0.529000  1.0
  C  C4127  1  0.413400  0.158100  0.471000  1.0
  C  C4128  1  0.086600  0.841900  0.971000  1.0
  C  C4129  1  0.409600  0.335900  0.980000  1.0
  C  C4130  1  0.090400  0.664100  0.480000  1.0
  C  C4131  1  0.590400  0.835900  0.520000  1.0
  C  C4132  1  0.909600  0.164100  0.020000  1.0
  C  C4133  1  0.590400  0.664100  0.020000  1.0
  C  C4134  1  0.909600  0.335900  0.520000  1.0
  C  C4135  1  0.409600  0.164100  0.480000  1.0
  C  C4136  1  0.090400  0.835900  0.980000  1.0
  C  C4137  1  0.391500  0.336200  0.985200  1.0
  C  C4138  1  0.108500  0.663800  0.485200  1.0
  C  C4139  1  0.608500  0.836200  0.514800  1.0
  C  C4140  1  0.891500  0.163800  0.014800  1.0
  C  C4141  1  0.608500  0.663800  0.014800  1.0
  C  C4142  1  0.891500  0.336200  0.514800  1.0
  C  C4143  1  0.391500  0.163800  0.485200  1.0
  C  C4144  1  0.108500  0.836200  0.985200  1.0
  C  C4145  1  0.390800  0.330700  0.994600  1.0
  C  C4146  1  0.109200  0.669300  0.494600  1.0
  C  C4147  1  0.609200  0.830700  0.505400  1.0
  C  C4148  1  0.890800  0.169300  0.005400  1.0
  C  C4149  1  0.609200  0.669300  0.005400  1.0
  C  C4150  1  0.890800  0.330700  0.505400  1.0
  C  C4151  1  0.390800  0.169300  0.494600  1.0
  C  C4152  1  0.109200  0.830700  0.994600  1.0
  C  C4153  1  0.374500  0.331600  0.999700  1.0
  C  C4154  1  0.125500  0.668400  0.499700  1.0
  C  C4155  1  0.625500  0.831600  0.500300  1.0
  C  C4156  1  0.874500  0.168400  0.000300  1.0
  C  C4157  1  0.625500  0.668400  0.000300  1.0
  C  C4158  1  0.874500  0.331600  0.500300  1.0
  C  C4159  1  0.374500  0.168400  0.499700  1.0
  C  C4160  1  0.125500  0.831600  0.999700  1.0
  C  C4161  1  0.358800  0.342800  0.986700  1.0
  C  C4162  1  0.141200  0.657200  0.486700  1.0
  C  C4163  1  0.641200  0.842800  0.513300  1.0
  C  C4164  1  0.858800  0.157200  0.013300  1.0
  C  C4165  1  0.641200  0.657200  0.013300  1.0
  C  C4166  1  0.858800  0.342800  0.513300  1.0
  C  C4167  1  0.358800  0.157200  0.486700  1.0
  C  C4168  1  0.141200  0.842800  0.986700  1.0
  C  C4169  1  0.374800  0.342500  0.981400  1.0
  C  C4170  1  0.125200  0.657500  0.481400  1.0
  C  C4171  1  0.625200  0.842500  0.518600  1.0
  C  C4172  1  0.874800  0.157500  0.018600  1.0
  C  C4173  1  0.625200  0.657500  0.018600  1.0
  C  C4174  1  0.874800  0.342500  0.518600  1.0
  C  C4175  1  0.374800  0.157500  0.481400  1.0
  C  C4176  1  0.125200  0.842500  0.981400  1.0
  C  C4177  1  0.310600  0.292900  0.991900  1.0
  C  C4178  1  0.189400  0.707100  0.491900  1.0
  C  C4179  1  0.689400  0.792900  0.508100  1.0
  C  C4180  1  0.810600  0.207100  0.008100  1.0
  C  C4181  1  0.689400  0.707100  0.008100  1.0
  C  C4182  1  0.810600  0.292900  0.508100  1.0
  C  C4183  1  0.310600  0.207100  0.491900  1.0
  C  C4184  1  0.189400  0.792900  0.991900  1.0
  C  C4185  1  0.316700  0.310700  0.993000  1.0
  C  C4186  1  0.183300  0.689300  0.493000  1.0
  C  C4187  1  0.683300  0.810700  0.507000  1.0
  C  C4188  1  0.816700  0.189300  0.007000  1.0
  C  C4189  1  0.683300  0.689300  0.007000  1.0
  C  C4190  1  0.816700  0.310700  0.507000  1.0
  C  C4191  1  0.316700  0.189300  0.493000  1.0
  C  C4192  1  0.183300  0.810700  0.993000  1.0
  C  C4193  1  0.332700  0.302300  0.006400  1.0
  C  C4194  1  0.167300  0.697700  0.506400  1.0
  C  C4195  1  0.667300  0.802300  0.493600  1.0
  C  C4196  1  0.832700  0.197700  0.993600  1.0
  C  C4197  1  0.667300  0.697700  0.993600  1.0
  C  C4198  1  0.832700  0.302300  0.493600  1.0
  C  C4199  1  0.332700  0.197700  0.506400  1.0
  C  C4200  1  0.167300  0.802300  0.006400  1.0
  C  C4201  1  0.326900  0.284200  0.005600  1.0
  C  C4202  1  0.173100  0.715800  0.505600  1.0
  C  C4203  1  0.673100  0.784200  0.494400  1.0
  C  C4204  1  0.826900  0.215800  0.994400  1.0
  C  C4205  1  0.673100  0.715800  0.994400  1.0
  C  C4206  1  0.826900  0.284200  0.494400  1.0
  C  C4207  1  0.326900  0.215800  0.505600  1.0
  C  C4208  1  0.173100  0.784200  0.005600  1.0
  C  C4209  1  0.315500  0.278900  0.998100  1.0
  C  C4210  1  0.184500  0.721100  0.498100  1.0
  C  C4211  1  0.684500  0.778900  0.501900  1.0
  C  C4212  1  0.815500  0.221100  0.001900  1.0
  C  C4213  1  0.684500  0.721100  0.001900  1.0
  C  C4214  1  0.815500  0.278900  0.501900  1.0
  C  C4215  1  0.315500  0.221100  0.498100  1.0
  C  C4216  1  0.184500  0.778900  0.998100  1.0
  C  C4217  1  0.308600  0.259500  0.997600  1.0
  C  C4218  1  0.191400  0.740500  0.497600  1.0
  C  C4219  1  0.691400  0.759500  0.502400  1.0
  C  C4220  1  0.808600  0.240500  0.002400  1.0
  C  C4221  1  0.691400  0.740500  0.002400  1.0
  C  C4222  1  0.808600  0.259500  0.502400  1.0
  C  C4223  1  0.308600  0.240500  0.497600  1.0
  C  C4224  1  0.191400  0.759500  0.997600  1.0
  C  C4225  1  0.300200  0.250900  0.990100  1.0
  C  C4226  1  0.199800  0.749100  0.490100  1.0
  C  C4227  1  0.699800  0.750900  0.509900  1.0
  C  C4228  1  0.800200  0.249100  0.009900  1.0
  C  C4229  1  0.699800  0.749100  0.009900  1.0
  C  C4230  1  0.800200  0.250900  0.509900  1.0
  C  C4231  1  0.300200  0.249100  0.490100  1.0
  C  C4232  1  0.199800  0.750900  0.990100  1.0
  C  C4233  1  0.273900  0.262500  0.982500  1.0
  C  C4234  1  0.226100  0.737500  0.482500  1.0
  C  C4235  1  0.726100  0.762500  0.517500  1.0
  C  C4236  1  0.773900  0.237500  0.017500  1.0
  C  C4237  1  0.726100  0.737500  0.017500  1.0
  C  C4238  1  0.773900  0.262500  0.517500  1.0
  C  C4239  1  0.273900  0.237500  0.482500  1.0
  C  C4240  1  0.226100  0.762500  0.982500  1.0
  C  C4241  1  0.272500  0.216000  0.984200  1.0
  C  C4242  1  0.227500  0.784000  0.484200  1.0
  C  C4243  1  0.727500  0.716000  0.515800  1.0
  C  C4244  1  0.772500  0.284000  0.015800  1.0
  C  C4245  1  0.727500  0.784000  0.015800  1.0
  C  C4246  1  0.772500  0.216000  0.515800  1.0
  C  C4247  1  0.272500  0.284000  0.484200  1.0
  C  C4248  1  0.227500  0.716000  0.984200  1.0
  C  C4249  1  0.298300  0.231900  0.990800  1.0
  C  C4250  1  0.201700  0.768100  0.490800  1.0
  C  C4251  1  0.701700  0.731900  0.509200  1.0
  C  C4252  1  0.798300  0.268100  0.009200  1.0
  C  C4253  1  0.701700  0.768100  0.009200  1.0
  C  C4254  1  0.798300  0.231900  0.509200  1.0
  C  C4255  1  0.298300  0.268100  0.490800  1.0
  C  C4256  1  0.201700  0.731900  0.990800  1.0
  C  C4257  1  0.306400  0.224900  0.998800  1.0
  C  C4258  1  0.193600  0.775100  0.498800  1.0
  C  C4259  1  0.693600  0.724900  0.501200  1.0
  C  C4260  1  0.806400  0.275100  0.001200  1.0
  C  C4261  1  0.693600  0.775100  0.001200  1.0
  C  C4262  1  0.806400  0.224900  0.501200  1.0
  C  C4263  1  0.306400  0.275100  0.498800  1.0
  C  C4264  1  0.193600  0.724900  0.998800  1.0
  C  C4265  1  0.304700  0.205700  0.002700  1.0
  C  C4266  1  0.195300  0.794300  0.502700  1.0
  C  C4267  1  0.695300  0.705700  0.497300  1.0
  C  C4268  1  0.804700  0.294300  0.997300  1.0
  C  C4269  1  0.695300  0.794300  0.997300  1.0
  C  C4270  1  0.804700  0.205700  0.497300  1.0
  C  C4271  1  0.304700  0.294300  0.502700  1.0
  C  C4272  1  0.195300  0.705700  0.002700  1.0
  C  C4273  1  0.311700  0.202200  0.011700  1.0
  C  C4274  1  0.188300  0.797800  0.511700  1.0
  C  C4275  1  0.688300  0.702200  0.488300  1.0
  C  C4276  1  0.811700  0.297800  0.988300  1.0
  C  C4277  1  0.688300  0.797800  0.988300  1.0
  C  C4278  1  0.811700  0.202200  0.488300  1.0
  C  C4279  1  0.311700  0.297800  0.511700  1.0
  C  C4280  1  0.188300  0.702200  0.011700  1.0
  C  C4281  1  0.310600  0.184700  0.015500  1.0
  C  C4282  1  0.189400  0.815300  0.515500  1.0
  C  C4283  1  0.689400  0.684700  0.484500  1.0
  C  C4284  1  0.810600  0.315300  0.984500  1.0
  C  C4285  1  0.689400  0.815300  0.984500  1.0
  C  C4286  1  0.810600  0.184700  0.484500  1.0
  C  C4287  1  0.310600  0.315300  0.515500  1.0
  C  C4288  1  0.189400  0.684700  0.015500  1.0
  C  C4289  1  0.297100  0.173300  0.001800  1.0
  C  C4290  1  0.202900  0.826700  0.501800  1.0
  C  C4291  1  0.702900  0.673300  0.498200  1.0
  C  C4292  1  0.797100  0.326700  0.998200  1.0
  C  C4293  1  0.702900  0.826700  0.998200  1.0
  C  C4294  1  0.797100  0.173300  0.498200  1.0
  C  C4295  1  0.297100  0.326700  0.501800  1.0
  C  C4296  1  0.202900  0.673300  0.001800  1.0
  C  C4297  1  0.297600  0.190700  0.997700  1.0
  C  C4298  1  0.202400  0.809300  0.497700  1.0
  C  C4299  1  0.702400  0.690700  0.502300  1.0
  C  C4300  1  0.797600  0.309300  0.002300  1.0
  C  C4301  1  0.702400  0.809300  0.002300  1.0
  C  C4302  1  0.797600  0.190700  0.502300  1.0
  C  C4303  1  0.297600  0.309300  0.497700  1.0
  C  C4304  1  0.202400  0.690700  0.997700  1.0
  C  C4305  1  0.242800  0.395200  0.058800  1.0
  C  C4306  1  0.257200  0.604800  0.558800  1.0
  C  C4307  1  0.757200  0.895200  0.441200  1.0
  C  C4308  1  0.742800  0.104800  0.941200  1.0
  C  C4309  1  0.757200  0.604800  0.941200  1.0
  C  C4310  1  0.742800  0.395200  0.441200  1.0
  C  C4311  1  0.242800  0.104800  0.558800  1.0
  C  C4312  1  0.257200  0.895200  0.058800  1.0
  C  C4313  1  0.239400  0.400800  0.067900  1.0
  C  C4314  1  0.260600  0.599200  0.567900  1.0
  C  C4315  1  0.760600  0.900800  0.432100  1.0
  C  C4316  1  0.739400  0.099200  0.932100  1.0
  C  C4317  1  0.760600  0.599200  0.932100  1.0
  C  C4318  1  0.739400  0.400800  0.432100  1.0
  C  C4319  1  0.239400  0.099200  0.567900  1.0
  C  C4320  1  0.260600  0.900800  0.067900  1.0
  C  C4321  1  0.264100  0.383700  0.073300  1.0
  C  C4322  1  0.235900  0.616300  0.573300  1.0
  C  C4323  1  0.735900  0.883700  0.426700  1.0
  C  C4324  1  0.764100  0.116300  0.926700  1.0
  C  C4325  1  0.735900  0.616300  0.926700  1.0
  C  C4326  1  0.764100  0.383700  0.426700  1.0
  C  C4327  1  0.264100  0.116300  0.573300  1.0
  C  C4328  1  0.235900  0.883700  0.073300  1.0
  C  C4329  1  0.268400  0.378100  0.064300  1.0
  C  C4330  1  0.231600  0.621900  0.564300  1.0
  C  C4331  1  0.731600  0.878100  0.435700  1.0
  C  C4332  1  0.768400  0.121900  0.935700  1.0
  C  C4333  1  0.731600  0.621900  0.935700  1.0
  C  C4334  1  0.768400  0.378100  0.435700  1.0
  C  C4335  1  0.268400  0.121900  0.564300  1.0
  C  C4336  1  0.231600  0.878100  0.064300  1.0
  C  C4337  1  0.257600  0.383500  0.056600  1.0
  C  C4338  1  0.242400  0.616500  0.556600  1.0
  C  C4339  1  0.742400  0.883500  0.443400  1.0
  C  C4340  1  0.757600  0.116500  0.943400  1.0
  C  C4341  1  0.742400  0.616500  0.943400  1.0
  C  C4342  1  0.757600  0.383500  0.443400  1.0
  C  C4343  1  0.257600  0.116500  0.556600  1.0
  C  C4344  1  0.242400  0.883500  0.056600  1.0
  C  C4345  1  0.262000  0.377200  0.046800  1.0
  C  C4346  1  0.238000  0.622800  0.546800  1.0
  C  C4347  1  0.738000  0.877200  0.453200  1.0
  C  C4348  1  0.762000  0.122800  0.953200  1.0
  C  C4349  1  0.738000  0.622800  0.953200  1.0
  C  C4350  1  0.762000  0.377200  0.453200  1.0
  C  C4351  1  0.262000  0.122800  0.546800  1.0
  C  C4352  1  0.238000  0.877200  0.046800  1.0
  C  C4353  1  0.251700  0.380100  0.038800  1.0
  C  C4354  1  0.248300  0.619900  0.538800  1.0
  C  C4355  1  0.748300  0.880100  0.461200  1.0
  C  C4356  1  0.751700  0.119900  0.961200  1.0
  C  C4357  1  0.748300  0.619900  0.961200  1.0
  C  C4358  1  0.751700  0.380100  0.461200  1.0
  C  C4359  1  0.251700  0.119900  0.538800  1.0
  C  C4360  1  0.248300  0.880100  0.038800  1.0
  C  C4361  1  0.233400  0.406300  0.035400  1.0
  C  C4362  1  0.266600  0.593700  0.535400  1.0
  C  C4363  1  0.766600  0.906300  0.464600  1.0
  C  C4364  1  0.733400  0.093700  0.964600  1.0
  C  C4365  1  0.766600  0.593700  0.964600  1.0
  C  C4366  1  0.733400  0.406300  0.464600  1.0
  C  C4367  1  0.233400  0.093700  0.535400  1.0
  C  C4368  1  0.266600  0.906300  0.035400  1.0
  C  C4369  1  0.235500  0.367500  0.019900  1.0
  C  C4370  1  0.264500  0.632500  0.519900  1.0
  C  C4371  1  0.764500  0.867500  0.480100  1.0
  C  C4372  1  0.735500  0.132500  0.980100  1.0
  C  C4373  1  0.764500  0.632500  0.980100  1.0
  C  C4374  1  0.735500  0.367500  0.480100  1.0
  C  C4375  1  0.235500  0.132500  0.519900  1.0
  C  C4376  1  0.264500  0.867500  0.019900  1.0
  C  C4377  1  0.259900  0.374100  0.030500  1.0
  C  C4378  1  0.240100  0.625900  0.530500  1.0
  C  C4379  1  0.740100  0.874100  0.469500  1.0
  C  C4380  1  0.759900  0.125900  0.969500  1.0
  C  C4381  1  0.740100  0.625900  0.969500  1.0
  C  C4382  1  0.759900  0.374100  0.469500  1.0
  C  C4383  1  0.259900  0.125900  0.530500  1.0
  C  C4384  1  0.240100  0.874100  0.030500  1.0
  C  C4385  1  0.276700  0.365600  0.031750  1.0
  C  C4386  1  0.223300  0.634400  0.531750  1.0
  C  C4387  1  0.723300  0.865600  0.468250  1.0
  C  C4388  1  0.776700  0.134400  0.968250  1.0
  C  C4389  1  0.723300  0.634400  0.968250  1.0
  C  C4390  1  0.776700  0.365600  0.468250  1.0
  C  C4391  1  0.276700  0.134400  0.531750  1.0
  C  C4392  1  0.223300  0.865600  0.031750  1.0
  C  C4393  1  0.289200  0.358000  0.024400  1.0
  C  C4394  1  0.210800  0.642000  0.524400  1.0
  C  C4395  1  0.710800  0.858000  0.475600  1.0
  C  C4396  1  0.789200  0.142000  0.975600  1.0
  C  C4397  1  0.710800  0.642000  0.975600  1.0
  C  C4398  1  0.789200  0.358000  0.475600  1.0
  C  C4399  1  0.289200  0.142000  0.524400  1.0
  C  C4400  1  0.210800  0.858000  0.024400  1.0
  C  C4401  1  0.305400  0.349000  0.027100  1.0
  C  C4402  1  0.194600  0.651000  0.527100  1.0
  C  C4403  1  0.694600  0.849000  0.472900  1.0
  C  C4404  1  0.805400  0.151000  0.972900  1.0
  C  C4405  1  0.694600  0.651000  0.972900  1.0
  C  C4406  1  0.805400  0.349000  0.472900  1.0
  C  C4407  1  0.305400  0.151000  0.527100  1.0
  C  C4408  1  0.194600  0.849000  0.027100  1.0
  C  C4409  1  0.318000  0.343300  0.020300  1.0
  C  C4410  1  0.182000  0.656700  0.520300  1.0
  C  C4411  1  0.682000  0.843300  0.479700  1.0
  C  C4412  1  0.818000  0.156700  0.979700  1.0
  C  C4413  1  0.682000  0.656700  0.979700  1.0
  C  C4414  1  0.818000  0.343300  0.479700  1.0
  C  C4415  1  0.318000  0.156700  0.520300  1.0
  C  C4416  1  0.182000  0.843300  0.020300  1.0
  C  C4417  1  0.299800  0.355000  0.008200  1.0
  C  C4418  1  0.200200  0.645000  0.508200  1.0
  C  C4419  1  0.700200  0.855000  0.491800  1.0
  C  C4420  1  0.799800  0.145000  0.991800  1.0
  C  C4421  1  0.700200  0.645000  0.991800  1.0
  C  C4422  1  0.799800  0.355000  0.491800  1.0
  C  C4423  1  0.299800  0.145000  0.508200  1.0
  C  C4424  1  0.200200  0.855000  0.008200  1.0
  C  C4425  1  0.287000  0.361200  0.014700  1.0
  C  C4426  1  0.213000  0.638800  0.514700  1.0
  C  C4427  1  0.713000  0.861200  0.485300  1.0
  C  C4428  1  0.787000  0.138800  0.985300  1.0
  C  C4429  1  0.713000  0.638800  0.985300  1.0
  C  C4430  1  0.787000  0.361200  0.485300  1.0
  C  C4431  1  0.287000  0.138800  0.514700  1.0
  C  C4432  1  0.213000  0.861200  0.014700  1.0
  C  C4433  1  0.183800  0.258900  0.090800  1.0
  C  C4434  1  0.316200  0.741100  0.590800  1.0
  C  C4435  1  0.816200  0.758900  0.409200  1.0
  C  C4436  1  0.683800  0.241100  0.909200  1.0
  C  C4437  1  0.816200  0.741100  0.909200  1.0
  C  C4438  1  0.683800  0.258900  0.409200  1.0
  C  C4439  1  0.183800  0.241100  0.590800  1.0
  C  C4440  1  0.316200  0.758900  0.090800  1.0
  C  C4441  1  0.184500  0.240000  0.091800  1.0
  C  C4442  1  0.315500  0.760000  0.591800  1.0
  C  C4443  1  0.815500  0.740000  0.408200  1.0
  C  C4444  1  0.684500  0.260000  0.908200  1.0
  C  C4445  1  0.815500  0.760000  0.908200  1.0
  C  C4446  1  0.684500  0.240000  0.408200  1.0
  C  C4447  1  0.184500  0.260000  0.591800  1.0
  C  C4448  1  0.315500  0.740000  0.091800  1.0
  C  C4449  1  0.215800  0.242300  0.094400  1.0
  C  C4450  1  0.284200  0.757700  0.594400  1.0
  C  C4451  1  0.784200  0.742300  0.405600  1.0
  C  C4452  1  0.715800  0.257700  0.905600  1.0
  C  C4453  1  0.784200  0.757700  0.905600  1.0
  C  C4454  1  0.715800  0.242300  0.405600  1.0
  C  C4455  1  0.215800  0.257700  0.594400  1.0
  C  C4456  1  0.284200  0.742300  0.094400  1.0
  C  C4457  1  0.215700  0.261300  0.093400  1.0
  C  C4458  1  0.284300  0.738700  0.593400  1.0
  C  C4459  1  0.784300  0.761300  0.406600  1.0
  C  C4460  1  0.715700  0.238700  0.906600  1.0
  C  C4461  1  0.784300  0.738700  0.906600  1.0
  C  C4462  1  0.715700  0.261300  0.406600  1.0
  C  C4463  1  0.215700  0.238700  0.593400  1.0
  C  C4464  1  0.284300  0.761300  0.093400  1.0
  C  C4465  1  0.199200  0.270500  0.091500  1.0
  C  C4466  1  0.300800  0.729500  0.591500  1.0
  C  C4467  1  0.800800  0.770500  0.408500  1.0
  C  C4468  1  0.699200  0.229500  0.908500  1.0
  C  C4469  1  0.800800  0.729500  0.908500  1.0
  C  C4470  1  0.699200  0.270500  0.408500  1.0
  C  C4471  1  0.199200  0.229500  0.591500  1.0
  C  C4472  1  0.300800  0.770500  0.091500  1.0
  C  C4473  1  0.198600  0.291200  0.090800  1.0
  C  C4474  1  0.301400  0.708800  0.590800  1.0
  C  C4475  1  0.801400  0.791200  0.409200  1.0
  C  C4476  1  0.698600  0.208800  0.909200  1.0
  C  C4477  1  0.801400  0.708800  0.909200  1.0
  C  C4478  1  0.698600  0.291200  0.409200  1.0
  C  C4479  1  0.198600  0.208800  0.590800  1.0
  C  C4480  1  0.301400  0.791200  0.090800  1.0
  C  C4481  1  0.183800  0.302400  0.088600  1.0
  C  C4482  1  0.316200  0.697600  0.588600  1.0
  C  C4483  1  0.816200  0.802400  0.411400  1.0
  C  C4484  1  0.683800  0.197600  0.911400  1.0
  C  C4485  1  0.816200  0.697600  0.911400  1.0
  C  C4486  1  0.683800  0.302400  0.411400  1.0
  C  C4487  1  0.183800  0.197600  0.588600  1.0
  C  C4488  1  0.316200  0.802400  0.088600  1.0
  C  C4489  1  0.151500  0.301000  0.092000  1.0
  C  C4490  1  0.348500  0.699000  0.592000  1.0
  C  C4491  1  0.848500  0.801000  0.408000  1.0
  C  C4492  1  0.651500  0.199000  0.908000  1.0
  C  C4493  1  0.848500  0.699000  0.908000  1.0
  C  C4494  1  0.651500  0.301000  0.408000  1.0
  C  C4495  1  0.151500  0.199000  0.592000  1.0
  C  C4496  1  0.348500  0.801000  0.092000  1.0
  C  C4497  1  0.174000  0.343000  0.077800  1.0
  C  C4498  1  0.326000  0.657000  0.577800  1.0
  C  C4499  1  0.826000  0.843000  0.422200  1.0
  C  C4500  1  0.674000  0.157000  0.922200  1.0
  C  C4501  1  0.826000  0.657000  0.922200  1.0
  C  C4502  1  0.674000  0.343000  0.422200  1.0
  C  C4503  1  0.174000  0.157000  0.577800  1.0
  C  C4504  1  0.326000  0.843000  0.077800  1.0
  C  C4505  1  0.187800  0.321100  0.088200  1.0
  C  C4506  1  0.312200  0.678900  0.588200  1.0
  C  C4507  1  0.812200  0.821100  0.411800  1.0
  C  C4508  1  0.687800  0.178900  0.911800  1.0
  C  C4509  1  0.812200  0.678900  0.911800  1.0
  C  C4510  1  0.687800  0.321100  0.411800  1.0
  C  C4511  1  0.187800  0.178900  0.588200  1.0
  C  C4512  1  0.312200  0.821100  0.088200  1.0
  C  C4513  1  0.206000  0.325200  0.090100  1.0
  C  C4514  1  0.294000  0.674800  0.590100  1.0
  C  C4515  1  0.794000  0.825200  0.409900  1.0
  C  C4516  1  0.706000  0.174800  0.909900  1.0
  C  C4517  1  0.794000  0.674800  0.909900  1.0
  C  C4518  1  0.706000  0.325200  0.409900  1.0
  C  C4519  1  0.206000  0.174800  0.590100  1.0
  C  C4520  1  0.294000  0.825200  0.090100  1.0
  C  C4521  1  0.214700  0.343800  0.091200  1.0
  C  C4522  1  0.285300  0.656200  0.591200  1.0
  C  C4523  1  0.785300  0.843800  0.408800  1.0
  C  C4524  1  0.714700  0.156200  0.908800  1.0
  C  C4525  1  0.785300  0.656200  0.908800  1.0
  C  C4526  1  0.714700  0.343800  0.408800  1.0
  C  C4527  1  0.214700  0.156200  0.591200  1.0
  C  C4528  1  0.285300  0.843800  0.091200  1.0
  C  C4529  1  0.233800  0.344700  0.092900  1.0
  C  C4530  1  0.266200  0.655300  0.592900  1.0
  C  C4531  1  0.766200  0.844700  0.407100  1.0
  C  C4532  1  0.733800  0.155300  0.907100  1.0
  C  C4533  1  0.766200  0.655300  0.907100  1.0
  C  C4534  1  0.733800  0.344700  0.407100  1.0
  C  C4535  1  0.233800  0.155300  0.592900  1.0
  C  C4536  1  0.266200  0.844700  0.092900  1.0
  C  C4537  1  0.242900  0.361400  0.092500  1.0
  C  C4538  1  0.257100  0.638600  0.592500  1.0
  C  C4539  1  0.757100  0.861400  0.407500  1.0
  C  C4540  1  0.742900  0.138600  0.907500  1.0
  C  C4541  1  0.757100  0.638600  0.907500  1.0
  C  C4542  1  0.742900  0.361400  0.407500  1.0
  C  C4543  1  0.242900  0.138600  0.592500  1.0
  C  C4544  1  0.257100  0.861400  0.092500  1.0
  C  C4545  1  0.216100  0.376700  0.088200  1.0
  C  C4546  1  0.283900  0.623300  0.588200  1.0
  C  C4547  1  0.783900  0.876700  0.411800  1.0
  C  C4548  1  0.716100  0.123300  0.911800  1.0
  C  C4549  1  0.783900  0.623300  0.911800  1.0
  C  C4550  1  0.716100  0.376700  0.411800  1.0
  C  C4551  1  0.216100  0.123300  0.588200  1.0
  C  C4552  1  0.283900  0.876700  0.088200  1.0
  C  C4553  1  0.206300  0.360400  0.088700  1.0
  C  C4554  1  0.293700  0.639600  0.588700  1.0
  C  C4555  1  0.793700  0.860400  0.411300  1.0
  C  C4556  1  0.706300  0.139600  0.911300  1.0
  C  C4557  1  0.793700  0.639600  0.911300  1.0
  C  C4558  1  0.706300  0.360400  0.411300  1.0
  C  C4559  1  0.206300  0.139600  0.588700  1.0
  C  C4560  1  0.293700  0.860400  0.088700  1.0
  C  C4561  1  0.232100  0.419700  0.114600  1.0
  C  C4562  1  0.267900  0.580300  0.614600  1.0
  C  C4563  1  0.767900  0.919700  0.385400  1.0
  C  C4564  1  0.732100  0.080300  0.885400  1.0
  C  C4565  1  0.767900  0.580300  0.885400  1.0
  C  C4566  1  0.732100  0.419700  0.385400  1.0
  C  C4567  1  0.232100  0.080300  0.614600  1.0
  C  C4568  1  0.267900  0.919700  0.114600  1.0
  C  C4569  1  0.233200  0.415200  0.105200  1.0
  C  C4570  1  0.266800  0.584800  0.605200  1.0
  C  C4571  1  0.766800  0.915200  0.394800  1.0
  C  C4572  1  0.733200  0.084800  0.894800  1.0
  C  C4573  1  0.766800  0.584800  0.894800  1.0
  C  C4574  1  0.733200  0.415200  0.394800  1.0
  C  C4575  1  0.233200  0.084800  0.605200  1.0
  C  C4576  1  0.266800  0.915200  0.105200  1.0
  C  C4577  1  0.261700  0.401400  0.107700  1.0
  C  C4578  1  0.238300  0.598600  0.607700  1.0
  C  C4579  1  0.738300  0.901400  0.392300  1.0
  C  C4580  1  0.761700  0.098600  0.892300  1.0
  C  C4581  1  0.738300  0.598600  0.892300  1.0
  C  C4582  1  0.761700  0.401400  0.392300  1.0
  C  C4583  1  0.261700  0.098600  0.607700  1.0
  C  C4584  1  0.238300  0.901400  0.107700  1.0
  C  C4585  1  0.261200  0.405700  0.117100  1.0
  C  C4586  1  0.238800  0.594300  0.617100  1.0
  C  C4587  1  0.738800  0.905700  0.382900  1.0
  C  C4588  1  0.761200  0.094300  0.882900  1.0
  C  C4589  1  0.738800  0.594300  0.882900  1.0
  C  C4590  1  0.761200  0.405700  0.382900  1.0
  C  C4591  1  0.261200  0.094300  0.617100  1.0
  C  C4592  1  0.238800  0.905700  0.117100  1.0
  C  C4593  1  0.246100  0.414900  0.120900  1.0
  C  C4594  1  0.253900  0.585100  0.620900  1.0
  C  C4595  1  0.753900  0.914900  0.379100  1.0
  C  C4596  1  0.746100  0.085100  0.879100  1.0
  C  C4597  1  0.753900  0.585100  0.879100  1.0
  C  C4598  1  0.746100  0.414900  0.379100  1.0
  C  C4599  1  0.246100  0.085100  0.620900  1.0
  C  C4600  1  0.253900  0.914900  0.120900  1.0
  C  C4601  1  0.246800  0.421200  0.131000  1.0
  C  C4602  1  0.253200  0.578800  0.631000  1.0
  C  C4603  1  0.753200  0.921200  0.369000  1.0
  C  C4604  1  0.746800  0.078800  0.869000  1.0
  C  C4605  1  0.753200  0.578800  0.869000  1.0
  C  C4606  1  0.746800  0.421200  0.369000  1.0
  C  C4607  1  0.246800  0.078800  0.631000  1.0
  C  C4608  1  0.253200  0.921200  0.131000  1.0
  C  C4609  1  0.233300  0.429400  0.136300  1.0
  C  C4610  1  0.266700  0.570600  0.636300  1.0
  C  C4611  1  0.766700  0.929400  0.363700  1.0
  C  C4612  1  0.733300  0.070600  0.863700  1.0
  C  C4613  1  0.766700  0.570600  0.863700  1.0
  C  C4614  1  0.733300  0.429400  0.363700  1.0
  C  C4615  1  0.233300  0.070600  0.636300  1.0
  C  C4616  1  0.266700  0.929400  0.136300  1.0
  C  C4617  1  0.202000  0.422100  0.134000  1.0
  C  C4618  1  0.298000  0.577900  0.634000  1.0
  C  C4619  1  0.798000  0.922100  0.366000  1.0
  C  C4620  1  0.702000  0.077900  0.866000  1.0
  C  C4621  1  0.798000  0.577900  0.866000  1.0
  C  C4622  1  0.702000  0.422100  0.366000  1.0
  C  C4623  1  0.202000  0.077900  0.634000  1.0
  C  C4624  1  0.298000  0.922100  0.134000  1.0
  C  C4625  1  0.223000  0.457900  0.153000  1.0
  C  C4626  1  0.277000  0.542100  0.653000  1.0
  C  C4627  1  0.777000  0.957900  0.347000  1.0
  C  C4628  1  0.723000  0.042100  0.847000  1.0
  C  C4629  1  0.777000  0.542100  0.847000  1.0
  C  C4630  1  0.723000  0.457900  0.347000  1.0
  C  C4631  1  0.223000  0.042100  0.653000  1.0
  C  C4632  1  0.277000  0.957900  0.153000  1.0
  C  C4633  1  0.237600  0.431600  0.145800  1.0
  C  C4634  1  0.262400  0.568400  0.645800  1.0
  C  C4635  1  0.762400  0.931600  0.354200  1.0
  C  C4636  1  0.737600  0.068400  0.854200  1.0
  C  C4637  1  0.762400  0.568400  0.854200  1.0
  C  C4638  1  0.737600  0.431600  0.354200  1.0
  C  C4639  1  0.237600  0.068400  0.645800  1.0
  C  C4640  1  0.262400  0.931600  0.145800  1.0
  C  C4641  1  0.255100  0.425700  0.148100  1.0
  C  C4642  1  0.244900  0.574300  0.648100  1.0
  C  C4643  1  0.744900  0.925700  0.351900  1.0
  C  C4644  1  0.755100  0.074300  0.851900  1.0
  C  C4645  1  0.744900  0.574300  0.851900  1.0
  C  C4646  1  0.755100  0.425700  0.351900  1.0
  C  C4647  1  0.255100  0.074300  0.648100  1.0
  C  C4648  1  0.244900  0.925700  0.148100  1.0
  C  C4649  1  0.265900  0.427100  0.157100  1.0
  C  C4650  1  0.234100  0.572900  0.657100  1.0
  C  C4651  1  0.734100  0.927100  0.342900  1.0
  C  C4652  1  0.765900  0.072900  0.842900  1.0
  C  C4653  1  0.734100  0.572900  0.842900  1.0
  C  C4654  1  0.765900  0.427100  0.342900  1.0
  C  C4655  1  0.265900  0.072900  0.657100  1.0
  C  C4656  1  0.234100  0.927100  0.157100  1.0
  C  C4657  1  0.283600  0.419300  0.157300  1.0
  C  C4658  1  0.216400  0.580700  0.657300  1.0
  C  C4659  1  0.716400  0.919300  0.342700  1.0
  C  C4660  1  0.783600  0.080700  0.842700  1.0
  C  C4661  1  0.716400  0.580700  0.842700  1.0
  C  C4662  1  0.783600  0.419300  0.342700  1.0
  C  C4663  1  0.283600  0.080700  0.657300  1.0
  C  C4664  1  0.216400  0.919300  0.157300  1.0
  C  C4665  1  0.293200  0.418500  0.165700  1.0
  C  C4666  1  0.206800  0.581500  0.665700  1.0
  C  C4667  1  0.706800  0.918500  0.334300  1.0
  C  C4668  1  0.793200  0.081500  0.834300  1.0
  C  C4669  1  0.706800  0.581500  0.834300  1.0
  C  C4670  1  0.793200  0.418500  0.334300  1.0
  C  C4671  1  0.293200  0.081500  0.665700  1.0
  C  C4672  1  0.206800  0.918500  0.165700  1.0
  C  C4673  1  0.269600  0.433400  0.173700  1.0
  C  C4674  1  0.230400  0.566600  0.673700  1.0
  C  C4675  1  0.730400  0.933400  0.326300  1.0
  C  C4676  1  0.769600  0.066600  0.826300  1.0
  C  C4677  1  0.730400  0.566600  0.826300  1.0
  C  C4678  1  0.769600  0.433400  0.326300  1.0
  C  C4679  1  0.269600  0.066600  0.673700  1.0
  C  C4680  1  0.230400  0.933400  0.173700  1.0
  C  C4681  1  0.259300  0.434300  0.165500  1.0
  C  C4682  1  0.240700  0.565700  0.665500  1.0
  C  C4683  1  0.740700  0.934300  0.334500  1.0
  C  C4684  1  0.759300  0.065700  0.834500  1.0
  C  C4685  1  0.740700  0.565700  0.834500  1.0
  C  C4686  1  0.759300  0.434300  0.334500  1.0
  C  C4687  1  0.259300  0.065700  0.665500  1.0
  C  C4688  1  0.240700  0.934300  0.165500  1.0
  C  C4689  1  0.221500  0.296100  0.203700  1.0
  C  C4690  1  0.278500  0.703900  0.703700  1.0
  C  C4691  1  0.778500  0.796100  0.296300  1.0
  C  C4692  1  0.721500  0.203900  0.796300  1.0
  C  C4693  1  0.778500  0.703900  0.796300  1.0
  C  C4694  1  0.721500  0.296100  0.296300  1.0
  C  C4695  1  0.221500  0.203900  0.703700  1.0
  C  C4696  1  0.278500  0.796100  0.203700  1.0
  C  C4697  1  0.219000  0.277300  0.203200  1.0
  C  C4698  1  0.281000  0.722700  0.703200  1.0
  C  C4699  1  0.781000  0.777300  0.296800  1.0
  C  C4700  1  0.719000  0.222700  0.796800  1.0
  C  C4701  1  0.781000  0.722700  0.796800  1.0
  C  C4702  1  0.719000  0.277300  0.296800  1.0
  C  C4703  1  0.219000  0.222700  0.703200  1.0
  C  C4704  1  0.281000  0.777300  0.203200  1.0
  C  C4705  1  0.246700  0.274000  0.195100  1.0
  C  C4706  1  0.253300  0.726000  0.695100  1.0
  C  C4707  1  0.753300  0.774000  0.304900  1.0
  C  C4708  1  0.746700  0.226000  0.804900  1.0
  C  C4709  1  0.753300  0.726000  0.804900  1.0
  C  C4710  1  0.746700  0.274000  0.304900  1.0
  C  C4711  1  0.246700  0.226000  0.695100  1.0
  C  C4712  1  0.253300  0.774000  0.195100  1.0
  C  C4713  1  0.249700  0.292800  0.195400  1.0
  C  C4714  1  0.250300  0.707200  0.695400  1.0
  C  C4715  1  0.750300  0.792800  0.304600  1.0
  C  C4716  1  0.749700  0.207200  0.804600  1.0
  C  C4717  1  0.750300  0.707200  0.804600  1.0
  C  C4718  1  0.749700  0.292800  0.304600  1.0
  C  C4719  1  0.249700  0.207200  0.695400  1.0
  C  C4720  1  0.250300  0.792800  0.195400  1.0
  C  C4721  1  0.236900  0.304600  0.199600  1.0
  C  C4722  1  0.263100  0.695400  0.699600  1.0
  C  C4723  1  0.763100  0.804600  0.300400  1.0
  C  C4724  1  0.736900  0.195400  0.800400  1.0
  C  C4725  1  0.763100  0.695400  0.800400  1.0
  C  C4726  1  0.736900  0.304600  0.300400  1.0
  C  C4727  1  0.236900  0.195400  0.699600  1.0
  C  C4728  1  0.263100  0.804600  0.199600  1.0
  C  C4729  1  0.241100  0.324700  0.200500  1.0
  C  C4730  1  0.258900  0.675300  0.700500  1.0
  C  C4731  1  0.758900  0.824700  0.299500  1.0
  C  C4732  1  0.741100  0.175300  0.799500  1.0
  C  C4733  1  0.758900  0.675300  0.799500  1.0
  C  C4734  1  0.741100  0.324700  0.299500  1.0
  C  C4735  1  0.241100  0.175300  0.700500  1.0
  C  C4736  1  0.258900  0.824700  0.200500  1.0
  C  C4737  1  0.231600  0.337500  0.205800  1.0
  C  C4738  1  0.268400  0.662500  0.705800  1.0
  C  C4739  1  0.768400  0.837500  0.294200  1.0
  C  C4740  1  0.731600  0.162500  0.794200  1.0
  C  C4741  1  0.768400  0.662500  0.794200  1.0
  C  C4742  1  0.731600  0.337500  0.294200  1.0
  C  C4743  1  0.231600  0.162500  0.705800  1.0
  C  C4744  1  0.268400  0.837500  0.205800  1.0
  C  C4745  1  0.221300  0.333500  0.221500  1.0
  C  C4746  1  0.278700  0.666500  0.721500  1.0
  C  C4747  1  0.778700  0.833500  0.278500  1.0
  C  C4748  1  0.721300  0.166500  0.778500  1.0
  C  C4749  1  0.778700  0.666500  0.778500  1.0
  C  C4750  1  0.721300  0.333500  0.278500  1.0
  C  C4751  1  0.221300  0.166500  0.721500  1.0
  C  C4752  1  0.278700  0.833500  0.221500  1.0
  C  C4753  1  0.210700  0.372900  0.208000  1.0
  C  C4754  1  0.289300  0.627100  0.708000  1.0
  C  C4755  1  0.789300  0.872900  0.292000  1.0
  C  C4756  1  0.710700  0.127100  0.792000  1.0
  C  C4757  1  0.789300  0.627100  0.792000  1.0
  C  C4758  1  0.710700  0.372900  0.292000  1.0
  C  C4759  1  0.210700  0.127100  0.708000  1.0
  C  C4760  1  0.289300  0.872900  0.208000  1.0
  C  C4761  1  0.237400  0.355600  0.204600  1.0
  C  C4762  1  0.262600  0.644400  0.704600  1.0
  C  C4763  1  0.762600  0.855600  0.295400  1.0
  C  C4764  1  0.737400  0.144400  0.795400  1.0
  C  C4765  1  0.762600  0.644400  0.795400  1.0
  C  C4766  1  0.737400  0.355600  0.295400  1.0
  C  C4767  1  0.237400  0.144400  0.704600  1.0
  C  C4768  1  0.262600  0.855600  0.204600  1.0
  C  C4769  1  0.251400  0.357700  0.198100  1.0
  C  C4770  1  0.248600  0.642300  0.698100  1.0
  C  C4771  1  0.748600  0.857700  0.301900  1.0
  C  C4772  1  0.751400  0.142300  0.801900  1.0
  C  C4773  1  0.748600  0.642300  0.801900  1.0
  C  C4774  1  0.751400  0.357700  0.301900  1.0
  C  C4775  1  0.251400  0.142300  0.698100  1.0
  C  C4776  1  0.248600  0.857700  0.198100  1.0
  C  C4777  1  0.261500  0.374900  0.195500  1.0
  C  C4778  1  0.238500  0.625100  0.695500  1.0
  C  C4779  1  0.738500  0.874900  0.304500  1.0
  C  C4780  1  0.761500  0.125100  0.804500  1.0
  C  C4781  1  0.738500  0.625100  0.804500  1.0
  C  C4782  1  0.761500  0.374900  0.304500  1.0
  C  C4783  1  0.261500  0.125100  0.695500  1.0
  C  C4784  1  0.238500  0.874900  0.195500  1.0
  C  C4785  1  0.277800  0.374100  0.190300  1.0
  C  C4786  1  0.222200  0.625900  0.690300  1.0
  C  C4787  1  0.722200  0.874100  0.309700  1.0
  C  C4788  1  0.777800  0.125900  0.809700  1.0
  C  C4789  1  0.722200  0.625900  0.809700  1.0
  C  C4790  1  0.777800  0.374100  0.309700  1.0
  C  C4791  1  0.277800  0.125900  0.690300  1.0
  C  C4792  1  0.222200  0.874100  0.190300  1.0
  C  C4793  1  0.287400  0.390000  0.188100  1.0
  C  C4794  1  0.212600  0.610000  0.688100  1.0
  C  C4795  1  0.712600  0.890000  0.311900  1.0
  C  C4796  1  0.787400  0.110000  0.811900  1.0
  C  C4797  1  0.712600  0.610000  0.811900  1.0
  C  C4798  1  0.787400  0.390000  0.311900  1.0
  C  C4799  1  0.287400  0.110000  0.688100  1.0
  C  C4800  1  0.212600  0.890000  0.188100  1.0
  C  C4801  1  0.266500  0.408000  0.196200  1.0
  C  C4802  1  0.233500  0.592000  0.696200  1.0
  C  C4803  1  0.733500  0.908000  0.303800  1.0
  C  C4804  1  0.766500  0.092000  0.803800  1.0
  C  C4805  1  0.733500  0.592000  0.803800  1.0
  C  C4806  1  0.766500  0.408000  0.303800  1.0
  C  C4807  1  0.266500  0.092000  0.696200  1.0
  C  C4808  1  0.233500  0.908000  0.196200  1.0
  C  C4809  1  0.256200  0.392600  0.198500  1.0
  C  C4810  1  0.243800  0.607400  0.698500  1.0
  C  C4811  1  0.743800  0.892600  0.301500  1.0
  C  C4812  1  0.756200  0.107400  0.801500  1.0
  C  C4813  1  0.743800  0.607400  0.801500  1.0
  C  C4814  1  0.756200  0.392600  0.301500  1.0
  C  C4815  1  0.256200  0.107400  0.698500  1.0
  C  C4816  1  0.243800  0.892600  0.198500  1.0
  C  C4817  1  0.309900  0.438700  0.214400  1.0
  C  C4818  1  0.190100  0.561300  0.714400  1.0
  C  C4819  1  0.690100  0.938700  0.285600  1.0
  C  C4820  1  0.809900  0.061300  0.785600  1.0
  C  C4821  1  0.690100  0.561300  0.785600  1.0
  C  C4822  1  0.809900  0.438700  0.285600  1.0
  C  C4823  1  0.309900  0.061300  0.714400  1.0
  C  C4824  1  0.190100  0.938700  0.214400  1.0
  C  C4825  1  0.301200  0.438400  0.205800  1.0
  C  C4826  1  0.198800  0.561600  0.705800  1.0
  C  C4827  1  0.698800  0.938400  0.294200  1.0
  C  C4828  1  0.801200  0.061600  0.794200  1.0
  C  C4829  1  0.698800  0.561600  0.794200  1.0
  C  C4830  1  0.801200  0.438400  0.294200  1.0
  C  C4831  1  0.301200  0.061600  0.705800  1.0
  C  C4832  1  0.198800  0.938400  0.205800  1.0
  C  C4833  1  0.322500  0.417900  0.200100  1.0
  C  C4834  1  0.177500  0.582100  0.700100  1.0
  C  C4835  1  0.677500  0.917900  0.299900  1.0
  C  C4836  1  0.822500  0.082100  0.799900  1.0
  C  C4837  1  0.677500  0.582100  0.799900  1.0
  C  C4838  1  0.822500  0.417900  0.299900  1.0
  C  C4839  1  0.322500  0.082100  0.700100  1.0
  C  C4840  1  0.177500  0.917900  0.200100  1.0
  C  C4841  1  0.332100  0.418300  0.208500  1.0
  C  C4842  1  0.167900  0.581700  0.708500  1.0
  C  C4843  1  0.667900  0.918300  0.291500  1.0
  C  C4844  1  0.832100  0.081700  0.791500  1.0
  C  C4845  1  0.667900  0.581700  0.791500  1.0
  C  C4846  1  0.832100  0.418300  0.291500  1.0
  C  C4847  1  0.332100  0.081700  0.708500  1.0
  C  C4848  1  0.167900  0.918300  0.208500  1.0
  C  C4849  1  0.325700  0.428300  0.216300  1.0
  C  C4850  1  0.174300  0.571700  0.716300  1.0
  C  C4851  1  0.674300  0.928300  0.283700  1.0
  C  C4852  1  0.825700  0.071700  0.783700  1.0
  C  C4853  1  0.674300  0.571700  0.783700  1.0
  C  C4854  1  0.825700  0.428300  0.283700  1.0
  C  C4855  1  0.325700  0.071700  0.716300  1.0
  C  C4856  1  0.174300  0.928300  0.216300  1.0
  C  C4857  1  0.336900  0.429400  0.225100  1.0
  C  C4858  1  0.163100  0.570600  0.725100  1.0
  C  C4859  1  0.663100  0.929400  0.274900  1.0
  C  C4860  1  0.836900  0.070600  0.774900  1.0
  C  C4861  1  0.663100  0.570600  0.774900  1.0
  C  C4862  1  0.836900  0.429400  0.274900  1.0
  C  C4863  1  0.336900  0.070600  0.725100  1.0
  C  C4864  1  0.163100  0.929400  0.225100  1.0
  C  C4865  1  0.333000  0.439100  0.233200  1.0
  C  C4866  1  0.167000  0.560900  0.733200  1.0
  C  C4867  1  0.667000  0.939100  0.266800  1.0
  C  C4868  1  0.833000  0.060900  0.766800  1.0
  C  C4869  1  0.667000  0.560900  0.766800  1.0
  C  C4870  1  0.833000  0.439100  0.266800  1.0
  C  C4871  1  0.333000  0.060900  0.733200  1.0
  C  C4872  1  0.167000  0.939100  0.233200  1.0
  C  C4873  1  0.300900  0.446000  0.236000  1.0
  C  C4874  1  0.199100  0.554000  0.736000  1.0
  C  C4875  1  0.699100  0.946000  0.264000  1.0
  C  C4876  1  0.800900  0.054000  0.764000  1.0
  C  C4877  1  0.699100  0.554000  0.764000  1.0
  C  C4878  1  0.800900  0.446000  0.264000  1.0
  C  C4879  1  0.300900  0.054000  0.736000  1.0
  C  C4880  1  0.199100  0.946000  0.236000  1.0
  C  C4881  1  0.336000  0.434000  0.256800  1.0
  C  C4882  1  0.164000  0.566000  0.756800  1.0
  C  C4883  1  0.664000  0.934000  0.243200  1.0
  C  C4884  1  0.836000  0.066000  0.743200  1.0
  C  C4885  1  0.664000  0.566000  0.743200  1.0
  C  C4886  1  0.836000  0.434000  0.243200  1.0
  C  C4887  1  0.336000  0.066000  0.756800  1.0
  C  C4888  1  0.164000  0.934000  0.256800  1.0
  C  C4889  1  0.344900  0.435400  0.240600  1.0
  C  C4890  1  0.155100  0.564600  0.740600  1.0
  C  C4891  1  0.655100  0.935400  0.259400  1.0
  C  C4892  1  0.844900  0.064600  0.759400  1.0
  C  C4893  1  0.655100  0.564600  0.759400  1.0
  C  C4894  1  0.844900  0.435400  0.259400  1.0
  C  C4895  1  0.344900  0.064600  0.740600  1.0
  C  C4896  1  0.155100  0.935400  0.240600  1.0
  C  C4897  1  0.358400  0.422700  0.238700  1.0
  C  C4898  1  0.141600  0.577300  0.738700  1.0
  C  C4899  1  0.641600  0.922700  0.261300  1.0
  C  C4900  1  0.858400  0.077300  0.761300  1.0
  C  C4901  1  0.641600  0.577300  0.761300  1.0
  C  C4902  1  0.858400  0.422700  0.261300  1.0
  C  C4903  1  0.358400  0.077300  0.738700  1.0
  C  C4904  1  0.141600  0.922700  0.238700  1.0
  C  C4905  1  0.374100  0.416300  0.244700  1.0
  C  C4906  1  0.125900  0.583700  0.744700  1.0
  C  C4907  1  0.625900  0.916300  0.255300  1.0
  C  C4908  1  0.874100  0.083700  0.755300  1.0
  C  C4909  1  0.625900  0.583700  0.755300  1.0
  C  C4910  1  0.874100  0.416300  0.255300  1.0
  C  C4911  1  0.374100  0.083700  0.744700  1.0
  C  C4912  1  0.125900  0.916300  0.244700  1.0
  C  C4913  1  0.387200  0.404300  0.240900  1.0
  C  C4914  1  0.112800  0.595700  0.740900  1.0
  C  C4915  1  0.612800  0.904300  0.259100  1.0
  C  C4916  1  0.887200  0.095700  0.759100  1.0
  C  C4917  1  0.612800  0.595700  0.759100  1.0
  C  C4918  1  0.887200  0.404300  0.259100  1.0
  C  C4919  1  0.387200  0.095700  0.740900  1.0
  C  C4920  1  0.112800  0.904300  0.240900  1.0
  C  C4921  1  0.400900  0.396800  0.246500  1.0
  C  C4922  1  0.099100  0.603200  0.746500  1.0
  C  C4923  1  0.599100  0.896800  0.253500  1.0
  C  C4924  1  0.900900  0.103200  0.753500  1.0
  C  C4925  1  0.599100  0.603200  0.753500  1.0
  C  C4926  1  0.900900  0.396800  0.253500  1.0
  C  C4927  1  0.400900  0.103200  0.746500  1.0
  C  C4928  1  0.099100  0.896800  0.246500  1.0
  C  C4929  1  0.390500  0.412800  0.259600  1.0
  C  C4930  1  0.109500  0.587200  0.759600  1.0
  C  C4931  1  0.609500  0.912800  0.240400  1.0
  C  C4932  1  0.890500  0.087200  0.740400  1.0
  C  C4933  1  0.609500  0.587200  0.740400  1.0
  C  C4934  1  0.890500  0.412800  0.240400  1.0
  C  C4935  1  0.390500  0.087200  0.759600  1.0
  C  C4936  1  0.109500  0.912800  0.259600  1.0
  C  C4937  1  0.376200  0.420200  0.254300  1.0
  C  C4938  1  0.123800  0.579800  0.754300  1.0
  C  C4939  1  0.623800  0.920200  0.245700  1.0
  C  C4940  1  0.876200  0.079800  0.745700  1.0
  C  C4941  1  0.623800  0.579800  0.745700  1.0
  C  C4942  1  0.876200  0.420200  0.245700  1.0
  C  C4943  1  0.376200  0.079800  0.754300  1.0
  C  C4944  1  0.123800  0.920200  0.254300  1.0
  C  C4945  1  0.387000  0.351200  0.276700  1.0
  C  C4946  1  0.113000  0.648800  0.776700  1.0
  C  C4947  1  0.613000  0.851200  0.223300  1.0
  C  C4948  1  0.887000  0.148800  0.723300  1.0
  C  C4949  1  0.613000  0.648800  0.723300  1.0
  C  C4950  1  0.887000  0.351200  0.223300  1.0
  C  C4951  1  0.387000  0.148800  0.776700  1.0
  C  C4952  1  0.113000  0.851200  0.276700  1.0
  C  C4953  1  0.396700  0.367000  0.274600  1.0
  C  C4954  1  0.103300  0.633000  0.774600  1.0
  C  C4955  1  0.603300  0.867000  0.225400  1.0
  C  C4956  1  0.896700  0.133000  0.725400  1.0
  C  C4957  1  0.603300  0.633000  0.725400  1.0
  C  C4958  1  0.896700  0.367000  0.225400  1.0
  C  C4959  1  0.396700  0.133000  0.774600  1.0
  C  C4960  1  0.103300  0.867000  0.274600  1.0
  C  C4961  1  0.407100  0.354300  0.260600  1.0
  C  C4962  1  0.092900  0.645700  0.760600  1.0
  C  C4963  1  0.592900  0.854300  0.239400  1.0
  C  C4964  1  0.907100  0.145700  0.739400  1.0
  C  C4965  1  0.592900  0.645700  0.739400  1.0
  C  C4966  1  0.907100  0.354300  0.239400  1.0
  C  C4967  1  0.407100  0.145700  0.760600  1.0
  C  C4968  1  0.092900  0.854300  0.260600  1.0
  C  C4969  1  0.397300  0.338300  0.262300  1.0
  C  C4970  1  0.102700  0.661700  0.762300  1.0
  C  C4971  1  0.602700  0.838300  0.237700  1.0
  C  C4972  1  0.897300  0.161700  0.737700  1.0
  C  C4973  1  0.602700  0.661700  0.737700  1.0
  C  C4974  1  0.897300  0.338300  0.237700  1.0
  C  C4975  1  0.397300  0.161700  0.762300  1.0
  C  C4976  1  0.102700  0.838300  0.262300  1.0
  C  C4977  1  0.386700  0.336300  0.270500  1.0
  C  C4978  1  0.113300  0.663700  0.770500  1.0
  C  C4979  1  0.613300  0.836300  0.229500  1.0
  C  C4980  1  0.886700  0.163700  0.729500  1.0
  C  C4981  1  0.613300  0.663700  0.729500  1.0
  C  C4982  1  0.886700  0.336300  0.229500  1.0
  C  C4983  1  0.386700  0.163700  0.770500  1.0
  C  C4984  1  0.113300  0.836300  0.270500  1.0
  C  C4985  1  0.377200  0.318200  0.272300  1.0
  C  C4986  1  0.122800  0.681800  0.772300  1.0
  C  C4987  1  0.622800  0.818200  0.227700  1.0
  C  C4988  1  0.877200  0.181800  0.727700  1.0
  C  C4989  1  0.622800  0.681800  0.727700  1.0
  C  C4990  1  0.877200  0.318200  0.227700  1.0
  C  C4991  1  0.377200  0.181800  0.772300  1.0
  C  C4992  1  0.122800  0.818200  0.272300  1.0
  C  C4993  1  0.363500  0.314100  0.278700  1.0
  C  C4994  1  0.136500  0.685900  0.778700  1.0
  C  C4995  1  0.636500  0.814100  0.221300  1.0
  C  C4996  1  0.863500  0.185900  0.721300  1.0
  C  C4997  1  0.636500  0.685900  0.721300  1.0
  C  C4998  1  0.863500  0.314100  0.221300  1.0
  C  C4999  1  0.363500  0.185900  0.778700  1.0
  C  C5000  1  0.136500  0.814100  0.278700  1.0
  C  C5001  1  0.362000  0.329000  0.293500  1.0
  C  C5002  1  0.138000  0.671000  0.793500  1.0
  C  C5003  1  0.638000  0.829000  0.206500  1.0
  C  C5004  1  0.862000  0.171000  0.706500  1.0
  C  C5005  1  0.638000  0.671000  0.706500  1.0
  C  C5006  1  0.862000  0.329000  0.206500  1.0
  C  C5007  1  0.362000  0.171000  0.793500  1.0
  C  C5008  1  0.138000  0.829000  0.293500  1.0
  C  C5009  1  0.349400  0.286600  0.294200  1.0
  C  C5010  1  0.150600  0.713400  0.794200  1.0
  C  C5011  1  0.650600  0.786600  0.205800  1.0
  C  C5012  1  0.849400  0.213400  0.705800  1.0
  C  C5013  1  0.650600  0.713400  0.705800  1.0
  C  C5014  1  0.849400  0.286600  0.205800  1.0
  C  C5015  1  0.349400  0.213400  0.794200  1.0
  C  C5016  1  0.150600  0.786600  0.294200  1.0
  C  C5017  1  0.358400  0.295700  0.278900  1.0
  C  C5018  1  0.141600  0.704300  0.778900  1.0
  C  C5019  1  0.641600  0.795700  0.221100  1.0
  C  C5020  1  0.858400  0.204300  0.721100  1.0
  C  C5021  1  0.641600  0.704300  0.721100  1.0
  C  C5022  1  0.858400  0.295700  0.221100  1.0
  C  C5023  1  0.358400  0.204300  0.778900  1.0
  C  C5024  1  0.141600  0.795700  0.278900  1.0
  C  C5025  1  0.367900  0.284500  0.272700  1.0
  C  C5026  1  0.132100  0.715500  0.772700  1.0
  C  C5027  1  0.632100  0.784500  0.227300  1.0
  C  C5028  1  0.867900  0.215500  0.727300  1.0
  C  C5029  1  0.632100  0.715500  0.727300  1.0
  C  C5030  1  0.867900  0.284500  0.227300  1.0
  C  C5031  1  0.367900  0.215500  0.772700  1.0
  C  C5032  1  0.132100  0.784500  0.272700  1.0
  C  C5033  1  0.368000  0.263800  0.272400  1.0
  C  C5034  1  0.132000  0.736200  0.772400  1.0
  C  C5035  1  0.632000  0.763800  0.227600  1.0
  C  C5036  1  0.868000  0.236200  0.727600  1.0
  C  C5037  1  0.632000  0.736200  0.727600  1.0
  C  C5038  1  0.868000  0.263800  0.227600  1.0
  C  C5039  1  0.368000  0.236200  0.772400  1.0
  C  C5040  1  0.132000  0.763800  0.272400  1.0
  C  C5041  1  0.376100  0.254600  0.264800  1.0
  C  C5042  1  0.123900  0.745400  0.764800  1.0
  C  C5043  1  0.623900  0.754600  0.235200  1.0
  C  C5044  1  0.876100  0.245400  0.735200  1.0
  C  C5045  1  0.623900  0.745400  0.735200  1.0
  C  C5046  1  0.876100  0.254600  0.235200  1.0
  C  C5047  1  0.376100  0.245400  0.764800  1.0
  C  C5048  1  0.123900  0.754600  0.264800  1.0
  C  C5049  1  0.375100  0.235600  0.263900  1.0
  C  C5050  1  0.124900  0.764400  0.763900  1.0
  C  C5051  1  0.624900  0.735600  0.236100  1.0
  C  C5052  1  0.875100  0.264400  0.736100  1.0
  C  C5053  1  0.624900  0.764400  0.736100  1.0
  C  C5054  1  0.875100  0.235600  0.236100  1.0
  C  C5055  1  0.375100  0.264400  0.763900  1.0
  C  C5056  1  0.124900  0.735600  0.263900  1.0
  C  C5057  1  0.357800  0.233700  0.277600  1.0
  C  C5058  1  0.142200  0.766300  0.777600  1.0
  C  C5059  1  0.642200  0.733700  0.222400  1.0
  C  C5060  1  0.857800  0.266300  0.722400  1.0
  C  C5061  1  0.642200  0.766300  0.722400  1.0
  C  C5062  1  0.857800  0.233700  0.222400  1.0
  C  C5063  1  0.357800  0.266300  0.777600  1.0
  C  C5064  1  0.142200  0.733700  0.277600  1.0
  C  C5065  1  0.358400  0.252600  0.278800  1.0
  C  C5066  1  0.141600  0.747400  0.778800  1.0
  C  C5067  1  0.641600  0.752600  0.221200  1.0
  C  C5068  1  0.858400  0.247400  0.721200  1.0
  C  C5069  1  0.641600  0.747400  0.721200  1.0
  C  C5070  1  0.858400  0.252600  0.221200  1.0
  C  C5071  1  0.358400  0.247400  0.778800  1.0
  C  C5072  1  0.141600  0.752600  0.278800  1.0
  C  C5073  1  0.530100  0.296400  0.294100  1.0
  C  C5074  1  0.969900  0.703600  0.794100  1.0
  C  C5075  1  0.469900  0.796400  0.205900  1.0
  C  C5076  1  0.030100  0.203600  0.705900  1.0
  C  C5077  1  0.469900  0.703600  0.705900  1.0
  C  C5078  1  0.030100  0.296400  0.205900  1.0
  C  C5079  1  0.530100  0.203600  0.794100  1.0
  C  C5080  1  0.969900  0.796400  0.294100  1.0
  C  C5081  1  0.540800  0.280700  0.292900  1.0
  C  C5082  1  0.959200  0.719300  0.792900  1.0
  C  C5083  1  0.459200  0.780700  0.207100  1.0
  C  C5084  1  0.040800  0.219300  0.707100  1.0
  C  C5085  1  0.459200  0.719300  0.707100  1.0
  C  C5086  1  0.040800  0.280700  0.207100  1.0
  C  C5087  1  0.540800  0.219300  0.792900  1.0
  C  C5088  1  0.959200  0.780700  0.292900  1.0
  C  C5089  1  0.536900  0.282300  0.276700  1.0
  C  C5090  1  0.963100  0.717700  0.776700  1.0
  C  C5091  1  0.463100  0.782300  0.223300  1.0
  C  C5092  1  0.036900  0.217700  0.723300  1.0
  C  C5093  1  0.463100  0.717700  0.723300  1.0
  C  C5094  1  0.036900  0.282300  0.223300  1.0
  C  C5095  1  0.536900  0.217700  0.776700  1.0
  C  C5096  1  0.963100  0.782300  0.276700  1.0
  C  C5097  1  0.525900  0.297800  0.277500  1.0
  C  C5098  1  0.974100  0.702200  0.777500  1.0
  C  C5099  1  0.474100  0.797800  0.222500  1.0
  C  C5100  1  0.025900  0.202200  0.722500  1.0
  C  C5101  1  0.474100  0.702200  0.722500  1.0
  C  C5102  1  0.025900  0.297800  0.222500  1.0
  C  C5103  1  0.525900  0.202200  0.777500  1.0
  C  C5104  1  0.974100  0.797800  0.277500  1.0
  C  C5105  1  0.522400  0.305500  0.286400  1.0
  C  C5106  1  0.977600  0.694500  0.786400  1.0
  C  C5107  1  0.477600  0.805500  0.213600  1.0
  C  C5108  1  0.022400  0.194500  0.713600  1.0
  C  C5109  1  0.477600  0.694500  0.713600  1.0
  C  C5110  1  0.022400  0.305500  0.213600  1.0
  C  C5111  1  0.522400  0.194500  0.786400  1.0
  C  C5112  1  0.977600  0.805500  0.286400  1.0
  C  C5113  1  0.508200  0.320400  0.287100  1.0
  C  C5114  1  0.991800  0.679600  0.787100  1.0
  C  C5115  1  0.491800  0.820400  0.212900  1.0
  C  C5116  1  0.008200  0.179600  0.712900  1.0
  C  C5117  1  0.491800  0.679600  0.712900  1.0
  C  C5118  1  0.008200  0.320400  0.212900  1.0
  C  C5119  1  0.508200  0.179600  0.787100  1.0
  C  C5120  1  0.991800  0.820400  0.287100  1.0
  C  C5121  1  0.503500  0.331200  0.294700  1.0
  C  C5122  1  0.996500  0.668800  0.794700  1.0
  C  C5123  1  0.496500  0.831200  0.205300  1.0
  C  C5124  1  0.003500  0.168800  0.705300  1.0
  C  C5125  1  0.496500  0.668800  0.705300  1.0
  C  C5126  1  0.003500  0.331200  0.205300  1.0
  C  C5127  1  0.503500  0.168800  0.794700  1.0
  C  C5128  1  0.996500  0.831200  0.294700  1.0
  C  C5129  1  0.524000  0.338000  0.307400  1.0
  C  C5130  1  0.976000  0.662000  0.807400  1.0
  C  C5131  1  0.476000  0.838000  0.192600  1.0
  C  C5132  1  0.024000  0.162000  0.692600  1.0
  C  C5133  1  0.476000  0.662000  0.692600  1.0
  C  C5134  1  0.024000  0.338000  0.192600  1.0
  C  C5135  1  0.524000  0.162000  0.807400  1.0
  C  C5136  1  0.976000  0.838000  0.307400  1.0
  C  C5137  1  0.495200  0.372400  0.300500  1.0
  C  C5138  1  0.004800  0.627600  0.800500  1.0
  C  C5139  1  0.504800  0.872400  0.199500  1.0
  C  C5140  1  0.995200  0.127600  0.699500  1.0
  C  C5141  1  0.504800  0.627600  0.699500  1.0
  C  C5142  1  0.995200  0.372400  0.199500  1.0
  C  C5143  1  0.495200  0.127600  0.800500  1.0
  C  C5144  1  0.004800  0.872400  0.300500  1.0
  C  C5145  1  0.490600  0.344700  0.292600  1.0
  C  C5146  1  0.009400  0.655300  0.792600  1.0
  C  C5147  1  0.509400  0.844700  0.207400  1.0
  C  C5148  1  0.990600  0.155300  0.707400  1.0
  C  C5149  1  0.509400  0.655300  0.707400  1.0
  C  C5150  1  0.990600  0.344700  0.207400  1.0
  C  C5151  1  0.490600  0.155300  0.792600  1.0
  C  C5152  1  0.009400  0.844700  0.292600  1.0
  C  C5153  1  0.485100  0.345600  0.283400  1.0
  C  C5154  1  0.014900  0.654400  0.783400  1.0
  C  C5155  1  0.514900  0.845600  0.216600  1.0
  C  C5156  1  0.985100  0.154400  0.716600  1.0
  C  C5157  1  0.514900  0.654400  0.716600  1.0
  C  C5158  1  0.985100  0.345600  0.216600  1.0
  C  C5159  1  0.485100  0.154400  0.783400  1.0
  C  C5160  1  0.014900  0.845600  0.283400  1.0
  C  C5161  1  0.470400  0.357400  0.279000  1.0
  C  C5162  1  0.029600  0.642600  0.779000  1.0
  C  C5163  1  0.529600  0.857400  0.221000  1.0
  C  C5164  1  0.970400  0.142600  0.721000  1.0
  C  C5165  1  0.529600  0.642600  0.721000  1.0
  C  C5166  1  0.970400  0.357400  0.221000  1.0
  C  C5167  1  0.470400  0.142600  0.779000  1.0
  C  C5168  1  0.029600  0.857400  0.279000  1.0
  C  C5169  1  0.468200  0.357400  0.269200  1.0
  C  C5170  1  0.031800  0.642600  0.769200  1.0
  C  C5171  1  0.531800  0.857400  0.230800  1.0
  C  C5172  1  0.968200  0.142600  0.730800  1.0
  C  C5173  1  0.531800  0.642600  0.730800  1.0
  C  C5174  1  0.968200  0.357400  0.230800  1.0
  C  C5175  1  0.468200  0.142600  0.769200  1.0
  C  C5176  1  0.031800  0.857400  0.269200  1.0
  C  C5177  1  0.453900  0.367000  0.265000  1.0
  C  C5178  1  0.046100  0.633000  0.765000  1.0
  C  C5179  1  0.546100  0.867000  0.235000  1.0
  C  C5180  1  0.953900  0.133000  0.735000  1.0
  C  C5181  1  0.546100  0.633000  0.735000  1.0
  C  C5182  1  0.953900  0.367000  0.235000  1.0
  C  C5183  1  0.453900  0.133000  0.765000  1.0
  C  C5184  1  0.046100  0.867000  0.265000  1.0
  C  C5185  1  0.443600  0.377100  0.279500  1.0
  C  C5186  1  0.056400  0.622900  0.779500  1.0
  C  C5187  1  0.556400  0.877100  0.220500  1.0
  C  C5188  1  0.943600  0.122900  0.720500  1.0
  C  C5189  1  0.556400  0.622900  0.720500  1.0
  C  C5190  1  0.943600  0.377100  0.220500  1.0
  C  C5191  1  0.443600  0.122900  0.779500  1.0
  C  C5192  1  0.056400  0.877100  0.279500  1.0
  C  C5193  1  0.457700  0.367900  0.284100  1.0
  C  C5194  1  0.042300  0.632100  0.784100  1.0
  C  C5195  1  0.542300  0.867900  0.215900  1.0
  C  C5196  1  0.957700  0.132100  0.715900  1.0
  C  C5197  1  0.542300  0.632100  0.715900  1.0
  C  C5198  1  0.957700  0.367900  0.215900  1.0
  C  C5199  1  0.457700  0.132100  0.784100  1.0
  C  C5200  1  0.042300  0.867900  0.284100  1.0
  C  C5201  1  0.459100  0.435300  0.265500  1.0
  C  C5202  1  0.040900  0.564700  0.765500  1.0
  C  C5203  1  0.540900  0.935300  0.234500  1.0
  C  C5204  1  0.959100  0.064700  0.734500  1.0
  C  C5205  1  0.540900  0.564700  0.734500  1.0
  C  C5206  1  0.959100  0.435300  0.234500  1.0
  C  C5207  1  0.459100  0.064700  0.765500  1.0
  C  C5208  1  0.040900  0.935300  0.265500  1.0
  C  C5209  1  0.444300  0.423800  0.267300  1.0
  C  C5210  1  0.055700  0.576200  0.767300  1.0
  C  C5211  1  0.555700  0.923800  0.232700  1.0
  C  C5212  1  0.944300  0.076200  0.732700  1.0
  C  C5213  1  0.555700  0.576200  0.732700  1.0
  C  C5214  1  0.944300  0.423800  0.232700  1.0
  C  C5215  1  0.444300  0.076200  0.767300  1.0
  C  C5216  1  0.055700  0.923800  0.267300  1.0
  C  C5217  1  0.447300  0.409500  0.252800  1.0
  C  C5218  1  0.052700  0.590500  0.752800  1.0
  C  C5219  1  0.552700  0.909500  0.247200  1.0
  C  C5220  1  0.947300  0.090500  0.747200  1.0
  C  C5221  1  0.552700  0.590500  0.747200  1.0
  C  C5222  1  0.947300  0.409500  0.247200  1.0
  C  C5223  1  0.447300  0.090500  0.752800  1.0
  C  C5224  1  0.052700  0.909500  0.252800  1.0
  C  C5225  1  0.462200  0.420600  0.250600  1.0
  C  C5226  1  0.037800  0.579400  0.750600  1.0
  C  C5227  1  0.537800  0.920600  0.249400  1.0
  C  C5228  1  0.962200  0.079400  0.749400  1.0
  C  C5229  1  0.537800  0.579400  0.749400  1.0
  C  C5230  1  0.962200  0.420600  0.249400  1.0
  C  C5231  1  0.462200  0.079400  0.750600  1.0
  C  C5232  1  0.037800  0.920600  0.250600  1.0
  C  C5233  1  0.468600  0.434000  0.256900  1.0
  C  C5234  1  0.031400  0.566000  0.756900  1.0
  C  C5235  1  0.531400  0.934000  0.243100  1.0
  C  C5236  1  0.968600  0.066000  0.743100  1.0
  C  C5237  1  0.531400  0.566000  0.743100  1.0
  C  C5238  1  0.968600  0.434000  0.243100  1.0
  C  C5239  1  0.468600  0.066000  0.756900  1.0
  C  C5240  1  0.031400  0.934000  0.256900  1.0
  C  C5241  1  0.484800  0.445900  0.254400  1.0
  C  C5242  1  0.015200  0.554100  0.754400  1.0
  C  C5243  1  0.515200  0.945900  0.245600  1.0
  C  C5244  1  0.984800  0.054100  0.745600  1.0
  C  C5245  1  0.515200  0.554100  0.745600  1.0
  C  C5246  1  0.984800  0.445900  0.245600  1.0
  C  C5247  1  0.484800  0.054100  0.754400  1.0
  C  C5248  1  0.015200  0.945900  0.254400  1.0
  C  C5249  1  0.493400  0.458500  0.260100  1.0
  C  C5250  1  0.006600  0.541500  0.760100  1.0
  C  C5251  1  0.506600  0.958500  0.239900  1.0
  C  C5252  1  0.993400  0.041500  0.739900  1.0
  C  C5253  1  0.506600  0.541500  0.739900  1.0
  C  C5254  1  0.993400  0.458500  0.239900  1.0
  C  C5255  1  0.493400  0.041500  0.760100  1.0
  C  C5256  1  0.006600  0.958500  0.260100  1.0
  C  C5257  1  0.478700  0.481600  0.268900  1.0
  C  C5258  1  0.021300  0.518400  0.768900  1.0
  C  C5259  1  0.521300  0.981600  0.231100  1.0
  C  C5260  1  0.978700  0.018400  0.731100  1.0
  C  C5261  1  0.521300  0.518400  0.731100  1.0
  C  C5262  1  0.978700  0.481600  0.231100  1.0
  C  C5263  1  0.478700  0.018400  0.768900  1.0
  C  C5264  1  0.021300  0.981600  0.268900  1.0
  C  C5265  1  0.527800  0.474900  0.269600  1.0
  C  C5266  1  0.972200  0.525100  0.769600  1.0
  C  C5267  1  0.472200  0.974900  0.230400  1.0
  C  C5268  1  0.027800  0.025100  0.730400  1.0
  C  C5269  1  0.472200  0.525100  0.730400  1.0
  C  C5270  1  0.027800  0.474900  0.230400  1.0
  C  C5271  1  0.527800  0.025100  0.769600  1.0
  C  C5272  1  0.972200  0.974900  0.269600  1.0
  C  C5273  1  0.509500  0.465900  0.256400  1.0
  C  C5274  1  0.990500  0.534100  0.756400  1.0
  C  C5275  1  0.490500  0.965900  0.243600  1.0
  C  C5276  1  0.009500  0.034100  0.743600  1.0
  C  C5277  1  0.490500  0.534100  0.743600  1.0
  C  C5278  1  0.009500  0.465900  0.243600  1.0
  C  C5279  1  0.509500  0.034100  0.756400  1.0
  C  C5280  1  0.990500  0.965900  0.256400  1.0
  C  C5281  1  0.514400  0.458900  0.247800  1.0
  C  C5282  1  0.985600  0.541100  0.747800  1.0
  C  C5283  1  0.485600  0.958900  0.252200  1.0
  C  C5284  1  0.014400  0.041100  0.752200  1.0
  C  C5285  1  0.485600  0.541100  0.752200  1.0
  C  C5286  1  0.014400  0.458900  0.252200  1.0
  C  C5287  1  0.514400  0.041100  0.747800  1.0
  C  C5288  1  0.985600  0.958900  0.247800  1.0
  C  C5289  1  0.529500  0.465000  0.241300  1.0
  C  C5290  1  0.970500  0.535000  0.741300  1.0
  C  C5291  1  0.470500  0.965000  0.258700  1.0
  C  C5292  1  0.029500  0.035000  0.758700  1.0
  C  C5293  1  0.470500  0.535000  0.758700  1.0
  C  C5294  1  0.029500  0.465000  0.258700  1.0
  C  C5295  1  0.529500  0.035000  0.741300  1.0
  C  C5296  1  0.970500  0.965000  0.241300  1.0
  C  C5297  1  0.530000  0.457900  0.232200  1.0
  C  C5298  1  0.970000  0.542100  0.732200  1.0
  C  C5299  1  0.470000  0.957900  0.267800  1.0
  C  C5300  1  0.030000  0.042100  0.767800  1.0
  C  C5301  1  0.470000  0.542100  0.767800  1.0
  C  C5302  1  0.030000  0.457900  0.267800  1.0
  C  C5303  1  0.530000  0.042100  0.732200  1.0
  C  C5304  1  0.970000  0.957900  0.232200  1.0
  C  C5305  1  0.544000  0.463200  0.226100  1.0
  C  C5306  1  0.956000  0.536800  0.726100  1.0
  C  C5307  1  0.456000  0.963200  0.273900  1.0
  C  C5308  1  0.044000  0.036800  0.773900  1.0
  C  C5309  1  0.456000  0.536800  0.773900  1.0
  C  C5310  1  0.044000  0.463200  0.273900  1.0
  C  C5311  1  0.544000  0.036800  0.726100  1.0
  C  C5312  1  0.956000  0.963200  0.226100  1.0
  C  C5313  1  0.557200  0.482300  0.237400  1.0
  C  C5314  1  0.942800  0.517700  0.737400  1.0
  C  C5315  1  0.442800  0.982300  0.262600  1.0
  C  C5316  1  0.057200  0.017700  0.762600  1.0
  C  C5317  1  0.442800  0.517700  0.762600  1.0
  C  C5318  1  0.057200  0.482300  0.262600  1.0
  C  C5319  1  0.557200  0.017700  0.737400  1.0
  C  C5320  1  0.942800  0.982300  0.237400  1.0
  C  C5321  1  0.543600  0.477400  0.243700  1.0
  C  C5322  1  0.956400  0.522600  0.743700  1.0
  C  C5323  1  0.456400  0.977400  0.256300  1.0
  C  C5324  1  0.043600  0.022600  0.756300  1.0
  C  C5325  1  0.456400  0.522600  0.756300  1.0
  C  C5326  1  0.043600  0.477400  0.256300  1.0
  C  C5327  1  0.543600  0.022600  0.743700  1.0
  C  C5328  1  0.956400  0.977400  0.243700  1.0
  C  C5329  1  0.535800  0.525300  0.212500  1.0
  C  C5330  1  0.964200  0.474700  0.712500  1.0
  C  C5331  1  0.464200  0.025300  0.287500  1.0
  C  C5332  1  0.035800  0.974700  0.787500  1.0
  C  C5333  1  0.464200  0.474700  0.787500  1.0
  C  C5334  1  0.035800  0.525300  0.287500  1.0
  C  C5335  1  0.535800  0.974700  0.712500  1.0
  C  C5336  1  0.964200  0.025300  0.212500  1.0
  C  C5337  1  0.550000  0.516000  0.216800  1.0
  C  C5338  1  0.950000  0.484000  0.716800  1.0
  C  C5339  1  0.450000  0.016000  0.283200  1.0
  C  C5340  1  0.050000  0.984000  0.783200  1.0
  C  C5341  1  0.450000  0.484000  0.783200  1.0
  C  C5342  1  0.050000  0.516000  0.283200  1.0
  C  C5343  1  0.550000  0.984000  0.716800  1.0
  C  C5344  1  0.950000  0.016000  0.216800  1.0
  C  C5345  1  0.545300  0.490800  0.207000  1.0
  C  C5346  1  0.954700  0.509200  0.707000  1.0
  C  C5347  1  0.454700  0.990800  0.293000  1.0
  C  C5348  1  0.045300  0.009200  0.793000  1.0
  C  C5349  1  0.454700  0.509200  0.793000  1.0
  C  C5350  1  0.045300  0.490800  0.293000  1.0
  C  C5351  1  0.545300  0.009200  0.707000  1.0
  C  C5352  1  0.954700  0.990800  0.207000  1.0
  C  C5353  1  0.531300  0.499800  0.202200  1.0
  C  C5354  1  0.968700  0.500200  0.702200  1.0
  C  C5355  1  0.468700  0.999800  0.297800  1.0
  C  C5356  1  0.031300  0.000200  0.797800  1.0
  C  C5357  1  0.468700  0.500200  0.797800  1.0
  C  C5358  1  0.031300  0.499800  0.297800  1.0
  C  C5359  1  0.531300  0.000200  0.702200  1.0
  C  C5360  1  0.968700  0.999800  0.202200  1.0
  C  C5361  1  0.526000  0.517500  0.204900  1.0
  C  C5362  1  0.974000  0.482500  0.704900  1.0
  C  C5363  1  0.474000  0.017500  0.295100  1.0
  C  C5364  1  0.026000  0.982500  0.795100  1.0
  C  C5365  1  0.474000  0.482500  0.795100  1.0
  C  C5366  1  0.026000  0.517500  0.295100  1.0
  C  C5367  1  0.526000  0.982500  0.704900  1.0
  C  C5368  1  0.974000  0.017500  0.204900  1.0
  C  C5369  1  0.511100  0.527400  0.199600  1.0
  C  C5370  1  0.988900  0.472600  0.699600  1.0
  C  C5371  1  0.488900  0.027400  0.300400  1.0
  C  C5372  1  0.011100  0.972600  0.800400  1.0
  C  C5373  1  0.488900  0.472600  0.800400  1.0
  C  C5374  1  0.011100  0.527400  0.300400  1.0
  C  C5375  1  0.511100  0.972600  0.699600  1.0
  C  C5376  1  0.988900  0.027400  0.199600  1.0
  C  C5377  1  0.504300  0.544800  0.201400  1.0
  C  C5378  1  0.995700  0.455200  0.701400  1.0
  C  C5379  1  0.495700  0.044800  0.298600  1.0
  C  C5380  1  0.004300  0.955200  0.798600  1.0
  C  C5381  1  0.495700  0.455200  0.798600  1.0
  C  C5382  1  0.004300  0.544800  0.298600  1.0
  C  C5383  1  0.504300  0.955200  0.701400  1.0
  C  C5384  1  0.995700  0.044800  0.201400  1.0
  C  C5385  1  0.522000  0.569000  0.208800  1.0
  C  C5386  1  0.978000  0.431000  0.708800  1.0
  C  C5387  1  0.478000  0.069000  0.291200  1.0
  C  C5388  1  0.022000  0.931000  0.791200  1.0
  C  C5389  1  0.478000  0.431000  0.791200  1.0
  C  C5390  1  0.022000  0.569000  0.291200  1.0
  C  C5391  1  0.522000  0.931000  0.708800  1.0
  C  C5392  1  0.978000  0.069000  0.208800  1.0
  C  C5393  1  0.471100  0.572500  0.201900  1.0
  C  C5394  1  0.028900  0.427500  0.701900  1.0
  C  C5395  1  0.528900  0.072500  0.298100  1.0
  C  C5396  1  0.971100  0.927500  0.798100  1.0
  C  C5397  1  0.528900  0.427500  0.798100  1.0
  C  C5398  1  0.971100  0.572500  0.298100  1.0
  C  C5399  1  0.471100  0.927500  0.701900  1.0
  C  C5400  1  0.028900  0.072500  0.201900  1.0
  C  C5401  1  0.491700  0.551000  0.194700  1.0
  C  C5402  1  0.008300  0.449000  0.694700  1.0
  C  C5403  1  0.508300  0.051000  0.305300  1.0
  C  C5404  1  0.991700  0.949000  0.805300  1.0
  C  C5405  1  0.508300  0.449000  0.805300  1.0
  C  C5406  1  0.991700  0.551000  0.305300  1.0
  C  C5407  1  0.491700  0.949000  0.694700  1.0
  C  C5408  1  0.008300  0.051000  0.194700  1.0
  C  C5409  1  0.488300  0.538700  0.187500  1.0
  C  C5410  1  0.011700  0.461300  0.687500  1.0
  C  C5411  1  0.511700  0.038700  0.312500  1.0
  C  C5412  1  0.988300  0.961300  0.812500  1.0
  C  C5413  1  0.511700  0.461300  0.812500  1.0
  C  C5414  1  0.988300  0.538700  0.312500  1.0
  C  C5415  1  0.488300  0.961300  0.687500  1.0
  C  C5416  1  0.011700  0.038700  0.187500  1.0
  C  C5417  1  0.474500  0.540000  0.179700  1.0
  C  C5418  1  0.025500  0.460000  0.679700  1.0
  C  C5419  1  0.525500  0.040000  0.320300  1.0
  C  C5420  1  0.974500  0.960000  0.820300  1.0
  C  C5421  1  0.525500  0.460000  0.820300  1.0
  C  C5422  1  0.974500  0.540000  0.320300  1.0
  C  C5423  1  0.474500  0.960000  0.679700  1.0
  C  C5424  1  0.025500  0.040000  0.179700  1.0
  C  C5425  1  0.471200  0.524300  0.174200  1.0
  C  C5426  1  0.028800  0.475700  0.674200  1.0
  C  C5427  1  0.528800  0.024300  0.325800  1.0
  C  C5428  1  0.971200  0.975700  0.825800  1.0
  C  C5429  1  0.528800  0.475700  0.825800  1.0
  C  C5430  1  0.971200  0.524300  0.325800  1.0
  C  C5431  1  0.471200  0.975700  0.674200  1.0
  C  C5432  1  0.028800  0.024300  0.174200  1.0
  C  C5433  1  0.461300  0.525300  0.166000  1.0
  C  C5434  1  0.038700  0.474700  0.666000  1.0
  C  C5435  1  0.538700  0.025300  0.334000  1.0
  C  C5436  1  0.961300  0.974700  0.834000  1.0
  C  C5437  1  0.538700  0.474700  0.834000  1.0
  C  C5438  1  0.961300  0.525300  0.334000  1.0
  C  C5439  1  0.461300  0.974700  0.666000  1.0
  C  C5440  1  0.038700  0.025300  0.166000  1.0
  C  C5441  1  0.457800  0.556900  0.167800  1.0
  C  C5442  1  0.042200  0.443100  0.667800  1.0
  C  C5443  1  0.542200  0.056900  0.332200  1.0
  C  C5444  1  0.957800  0.943100  0.832200  1.0
  C  C5445  1  0.542200  0.443100  0.832200  1.0
  C  C5446  1  0.957800  0.556900  0.332200  1.0
  C  C5447  1  0.457800  0.943100  0.667800  1.0
  C  C5448  1  0.042200  0.056900  0.167800  1.0
  C  C5449  1  0.467400  0.556600  0.176200  1.0
  C  C5450  1  0.032600  0.443400  0.676200  1.0
  C  C5451  1  0.532600  0.056600  0.323800  1.0
  C  C5452  1  0.967400  0.943400  0.823800  1.0
  C  C5453  1  0.532600  0.443400  0.823800  1.0
  C  C5454  1  0.967400  0.556600  0.323800  1.0
  C  C5455  1  0.467400  0.943400  0.676200  1.0
  C  C5456  1  0.032600  0.056600  0.176200  1.0
  C  C5457  1  0.390800  0.543100  0.164200  1.0
  C  C5458  1  0.109200  0.456900  0.664200  1.0
  C  C5459  1  0.609200  0.043100  0.335800  1.0
  C  C5460  1  0.890800  0.956900  0.835800  1.0
  C  C5461  1  0.609200  0.456900  0.835800  1.0
  C  C5462  1  0.890800  0.543100  0.335800  1.0
  C  C5463  1  0.390800  0.956900  0.664200  1.0
  C  C5464  1  0.109200  0.043100  0.164200  1.0
  C  C5465  1  0.406700  0.549100  0.159800  1.0
  C  C5466  1  0.093300  0.450900  0.659800  1.0
  C  C5467  1  0.593300  0.049100  0.340200  1.0
  C  C5468  1  0.906700  0.950900  0.840200  1.0
  C  C5469  1  0.593300  0.450900  0.840200  1.0
  C  C5470  1  0.906700  0.549100  0.340200  1.0
  C  C5471  1  0.406700  0.950900  0.659800  1.0
  C  C5472  1  0.093300  0.049100  0.159800  1.0
  C  C5473  1  0.414100  0.519400  0.155400  1.0
  C  C5474  1  0.085900  0.480600  0.655400  1.0
  C  C5475  1  0.585900  0.019400  0.344600  1.0
  C  C5476  1  0.914100  0.980600  0.844600  1.0
  C  C5477  1  0.585900  0.480600  0.844600  1.0
  C  C5478  1  0.914100  0.519400  0.344600  1.0
  C  C5479  1  0.414100  0.980600  0.655400  1.0
  C  C5480  1  0.085900  0.019400  0.155400  1.0
  C  C5481  1  0.398400  0.512600  0.159700  1.0
  C  C5482  1  0.101600  0.487400  0.659700  1.0
  C  C5483  1  0.601600  0.012600  0.340300  1.0
  C  C5484  1  0.898400  0.987400  0.840300  1.0
  C  C5485  1  0.601600  0.487400  0.840300  1.0
  C  C5486  1  0.898400  0.512600  0.340300  1.0
  C  C5487  1  0.398400  0.987400  0.659700  1.0
  C  C5488  1  0.101600  0.012600  0.159700  1.0
  C  C5489  1  0.385900  0.524500  0.164100  1.0
  C  C5490  1  0.114100  0.475500  0.664100  1.0
  C  C5491  1  0.614100  0.024500  0.335900  1.0
  C  C5492  1  0.885900  0.975500  0.835900  1.0
  C  C5493  1  0.614100  0.475500  0.835900  1.0
  C  C5494  1  0.885900  0.524500  0.335900  1.0
  C  C5495  1  0.385900  0.975500  0.664100  1.0
  C  C5496  1  0.114100  0.024500  0.164100  1.0
  C  C5497  1  0.369700  0.516500  0.169300  1.0
  C  C5498  1  0.130300  0.483500  0.669300  1.0
  C  C5499  1  0.630300  0.016500  0.330700  1.0
  C  C5500  1  0.869700  0.983500  0.830700  1.0
  C  C5501  1  0.630300  0.483500  0.830700  1.0
  C  C5502  1  0.869700  0.516500  0.330700  1.0
  C  C5503  1  0.369700  0.983500  0.669300  1.0
  C  C5504  1  0.130300  0.016500  0.169300  1.0
  C  C5505  1  0.357000  0.525300  0.174900  1.0
  C  C5506  1  0.143000  0.474700  0.674900  1.0
  C  C5507  1  0.643000  0.025300  0.325100  1.0
  C  C5508  1  0.857000  0.974700  0.825100  1.0
  C  C5509  1  0.643000  0.474700  0.825100  1.0
  C  C5510  1  0.857000  0.525300  0.325100  1.0
  C  C5511  1  0.357000  0.974700  0.674900  1.0
  C  C5512  1  0.143000  0.025300  0.174900  1.0
  C  C5513  1  0.355000  0.556700  0.170000  1.0
  C  C5514  1  0.145000  0.443300  0.670000  1.0
  C  C5515  1  0.645000  0.056700  0.330000  1.0
  C  C5516  1  0.855000  0.943300  0.830000  1.0
  C  C5517  1  0.645000  0.443300  0.830000  1.0
  C  C5518  1  0.855000  0.556700  0.330000  1.0
  C  C5519  1  0.355000  0.943300  0.670000  1.0
  C  C5520  1  0.145000  0.056700  0.170000  1.0
  C  C5521  1  0.330000  0.518000  0.193500  1.0
  C  C5522  1  0.170000  0.482000  0.693500  1.0
  C  C5523  1  0.670000  0.018000  0.306500  1.0
  C  C5524  1  0.830000  0.982000  0.806500  1.0
  C  C5525  1  0.670000  0.482000  0.806500  1.0
  C  C5526  1  0.830000  0.518000  0.306500  1.0
  C  C5527  1  0.330000  0.982000  0.693500  1.0
  C  C5528  1  0.170000  0.018000  0.193500  1.0
  C  C5529  1  0.343100  0.513900  0.178300  1.0
  C  C5530  1  0.156900  0.486100  0.678300  1.0
  C  C5531  1  0.656900  0.013900  0.321700  1.0
  C  C5532  1  0.843100  0.986100  0.821700  1.0
  C  C5533  1  0.656900  0.486100  0.821700  1.0
  C  C5534  1  0.843100  0.513900  0.321700  1.0
  C  C5535  1  0.343100  0.986100  0.678300  1.0
  C  C5536  1  0.156900  0.013900  0.178300  1.0
  C  C5537  1  0.344600  0.495700  0.175500  1.0
  C  C5538  1  0.155400  0.504300  0.675500  1.0
  C  C5539  1  0.655400  0.995700  0.324500  1.0
  C  C5540  1  0.844600  0.004300  0.824500  1.0
  C  C5541  1  0.655400  0.504300  0.824500  1.0
  C  C5542  1  0.844600  0.495700  0.324500  1.0
  C  C5543  1  0.344600  0.004300  0.675500  1.0
  C  C5544  1  0.155400  0.995700  0.175500  1.0
  C  C5545  1  0.331600  0.480200  0.177600  1.0
  C  C5546  1  0.168400  0.519800  0.677600  1.0
  C  C5547  1  0.668400  0.980200  0.322400  1.0
  C  C5548  1  0.831600  0.019800  0.822400  1.0
  C  C5549  1  0.668400  0.519800  0.822400  1.0
  C  C5550  1  0.831600  0.480200  0.322400  1.0
  C  C5551  1  0.331600  0.019800  0.677600  1.0
  C  C5552  1  0.168400  0.980200  0.177600  1.0
  C  C5553  1  0.337400  0.461900  0.176300  1.0
  C  C5554  1  0.162600  0.538100  0.676300  1.0
  C  C5555  1  0.662600  0.961900  0.323700  1.0
  C  C5556  1  0.837400  0.038100  0.823700  1.0
  C  C5557  1  0.662600  0.538100  0.823700  1.0
  C  C5558  1  0.837400  0.461900  0.323700  1.0
  C  C5559  1  0.337400  0.038100  0.676300  1.0
  C  C5560  1  0.162600  0.961900  0.176300  1.0
  C  C5561  1  0.326300  0.447500  0.179200  1.0
  C  C5562  1  0.173700  0.552500  0.679200  1.0
  C  C5563  1  0.673700  0.947500  0.320800  1.0
  C  C5564  1  0.826300  0.052500  0.820800  1.0
  C  C5565  1  0.673700  0.552500  0.820800  1.0
  C  C5566  1  0.826300  0.447500  0.320800  1.0
  C  C5567  1  0.326300  0.052500  0.679200  1.0
  C  C5568  1  0.173700  0.947500  0.179200  1.0
  C  C5569  1  0.303800  0.467500  0.184600  1.0
  C  C5570  1  0.196200  0.532500  0.684600  1.0
  C  C5571  1  0.696200  0.967500  0.315400  1.0
  C  C5572  1  0.803800  0.032500  0.815400  1.0
  C  C5573  1  0.696200  0.532500  0.815400  1.0
  C  C5574  1  0.803800  0.467500  0.315400  1.0
  C  C5575  1  0.303800  0.032500  0.684600  1.0
  C  C5576  1  0.196200  0.967500  0.184600  1.0
  C  C5577  1  0.314400  0.482300  0.181800  1.0
  C  C5578  1  0.185600  0.517700  0.681800  1.0
  C  C5579  1  0.685600  0.982300  0.318200  1.0
  C  C5580  1  0.814400  0.017700  0.818200  1.0
  C  C5581  1  0.685600  0.517700  0.818200  1.0
  C  C5582  1  0.814400  0.482300  0.318200  1.0
  C  C5583  1  0.314400  0.017700  0.681800  1.0
  C  C5584  1  0.185600  0.982300  0.181800  1.0
  C  C5585  1  0.409200  0.540300  0.074300  1.0
  C  C5586  1  0.090800  0.459700  0.574300  1.0
  C  C5587  1  0.590800  0.040300  0.425700  1.0
  C  C5588  1  0.909200  0.959700  0.925700  1.0
  C  C5589  1  0.590800  0.459700  0.925700  1.0
  C  C5590  1  0.909200  0.540300  0.425700  1.0
  C  C5591  1  0.409200  0.959700  0.574300  1.0
  C  C5592  1  0.090800  0.040300  0.074300  1.0
  C  C5593  1  0.407800  0.530300  0.066100  1.0
  C  C5594  1  0.092200  0.469700  0.566100  1.0
  C  C5595  1  0.592200  0.030300  0.433900  1.0
  C  C5596  1  0.907800  0.969700  0.933900  1.0
  C  C5597  1  0.592200  0.469700  0.933900  1.0
  C  C5598  1  0.907800  0.530300  0.433900  1.0
  C  C5599  1  0.407800  0.969700  0.566100  1.0
  C  C5600  1  0.092200  0.030300  0.066100  1.0
  C  C5601  1  0.418900  0.504100  0.073500  1.0
  C  C5602  1  0.081100  0.495900  0.573500  1.0
  C  C5603  1  0.581100  0.004100  0.426500  1.0
  C  C5604  1  0.918900  0.995900  0.926500  1.0
  C  C5605  1  0.581100  0.495900  0.926500  1.0
  C  C5606  1  0.918900  0.504100  0.426500  1.0
  C  C5607  1  0.418900  0.995900  0.573500  1.0
  C  C5608  1  0.081100  0.004100  0.073500  1.0
  C  C5609  1  0.420300  0.513400  0.081900  1.0
  C  C5610  1  0.079700  0.486600  0.581900  1.0
  C  C5611  1  0.579700  0.013400  0.418100  1.0
  C  C5612  1  0.920300  0.986600  0.918100  1.0
  C  C5613  1  0.579700  0.486600  0.918100  1.0
  C  C5614  1  0.920300  0.513400  0.418100  1.0
  C  C5615  1  0.420300  0.986600  0.581900  1.0
  C  C5616  1  0.079700  0.013400  0.081900  1.0
  C  C5617  1  0.416100  0.532200  0.082500  1.0
  C  C5618  1  0.083900  0.467800  0.582500  1.0
  C  C5619  1  0.583900  0.032200  0.417500  1.0
  C  C5620  1  0.916100  0.967800  0.917500  1.0
  C  C5621  1  0.583900  0.467800  0.917500  1.0
  C  C5622  1  0.916100  0.532200  0.417500  1.0
  C  C5623  1  0.416100  0.967800  0.582500  1.0
  C  C5624  1  0.083900  0.032200  0.082500  1.0
  C  C5625  1  0.416400  0.541500  0.091900  1.0
  C  C5626  1  0.083600  0.458500  0.591900  1.0
  C  C5627  1  0.583600  0.041500  0.408100  1.0
  C  C5628  1  0.916400  0.958500  0.908100  1.0
  C  C5629  1  0.583600  0.458500  0.908100  1.0
  C  C5630  1  0.916400  0.541500  0.408100  1.0
  C  C5631  1  0.416400  0.958500  0.591900  1.0
  C  C5632  1  0.083600  0.041500  0.091900  1.0
  C  C5633  1  0.414300  0.559900  0.093900  1.0
  C  C5634  1  0.085700  0.440100  0.593900  1.0
  C  C5635  1  0.585700  0.059900  0.406100  1.0
  C  C5636  1  0.914300  0.940100  0.906100  1.0
  C  C5637  1  0.585700  0.440100  0.906100  1.0
  C  C5638  1  0.914300  0.559900  0.406100  1.0
  C  C5639  1  0.414300  0.940100  0.593900  1.0
  C  C5640  1  0.085700  0.059900  0.093900  1.0
  C  C5641  1  0.423500  0.583000  0.083200  1.0
  C  C5642  1  0.076500  0.417000  0.583200  1.0
  C  C5643  1  0.576500  0.083000  0.416800  1.0
  C  C5644  1  0.923500  0.917000  0.916800  1.0
  C  C5645  1  0.576500  0.417000  0.916800  1.0
  C  C5646  1  0.923500  0.583000  0.416800  1.0
  C  C5647  1  0.423500  0.917000  0.583200  1.0
  C  C5648  1  0.076500  0.083000  0.083200  1.0
  C  C5649  1  0.399400  0.591000  0.106300  1.0
  C  C5650  1  0.100600  0.409000  0.606300  1.0
  C  C5651  1  0.600600  0.091000  0.393700  1.0
  C  C5652  1  0.899400  0.909000  0.893700  1.0
  C  C5653  1  0.600600  0.409000  0.893700  1.0
  C  C5654  1  0.899400  0.591000  0.393700  1.0
  C  C5655  1  0.399400  0.909000  0.606300  1.0
  C  C5656  1  0.100600  0.091000  0.106300  1.0
  C  C5657  1  0.417500  0.564400  0.103300  1.0
  C  C5658  1  0.082500  0.435600  0.603300  1.0
  C  C5659  1  0.582500  0.064400  0.396700  1.0
  C  C5660  1  0.917500  0.935600  0.896700  1.0
  C  C5661  1  0.582500  0.435600  0.896700  1.0
  C  C5662  1  0.917500  0.564400  0.396700  1.0
  C  C5663  1  0.417500  0.935600  0.603300  1.0
  C  C5664  1  0.082500  0.064400  0.103300  1.0
  C  C5665  1  0.421800  0.549700  0.108900  1.0
  C  C5666  1  0.078200  0.450300  0.608900  1.0
  C  C5667  1  0.578200  0.049700  0.391100  1.0
  C  C5668  1  0.921800  0.950300  0.891100  1.0
  C  C5669  1  0.578200  0.450300  0.891100  1.0
  C  C5670  1  0.921800  0.549700  0.391100  1.0
  C  C5671  1  0.421800  0.950300  0.608900  1.0
  C  C5672  1  0.078200  0.049700  0.108900  1.0
  C  C5673  1  0.423700  0.549100  0.119400  1.0
  C  C5674  1  0.076300  0.450900  0.619400  1.0
  C  C5675  1  0.576300  0.049100  0.380600  1.0
  C  C5676  1  0.923700  0.950900  0.880600  1.0
  C  C5677  1  0.576300  0.450900  0.880600  1.0
  C  C5678  1  0.923700  0.549100  0.380600  1.0
  C  C5679  1  0.423700  0.950900  0.619400  1.0
  C  C5680  1  0.076300  0.049100  0.119400  1.0
  C  C5681  1  0.428200  0.532300  0.123700  1.0
  C  C5682  1  0.071800  0.467700  0.623700  1.0
  C  C5683  1  0.571800  0.032300  0.376300  1.0
  C  C5684  1  0.928200  0.967700  0.876300  1.0
  C  C5685  1  0.571800  0.467700  0.876300  1.0
  C  C5686  1  0.928200  0.532300  0.376300  1.0
  C  C5687  1  0.428200  0.967700  0.623700  1.0
  C  C5688  1  0.071800  0.032300  0.123700  1.0
  C  C5689  1  0.432800  0.531700  0.133200  1.0
  C  C5690  1  0.067200  0.468300  0.633200  1.0
  C  C5691  1  0.567200  0.031700  0.366800  1.0
  C  C5692  1  0.932800  0.968300  0.866800  1.0
  C  C5693  1  0.567200  0.468300  0.866800  1.0
  C  C5694  1  0.932800  0.531700  0.366800  1.0
  C  C5695  1  0.432800  0.968300  0.633200  1.0
  C  C5696  1  0.067200  0.031700  0.133200  1.0
  C  C5697  1  0.428500  0.563200  0.134700  1.0
  C  C5698  1  0.071500  0.436800  0.634700  1.0
  C  C5699  1  0.571500  0.063200  0.365300  1.0
  C  C5700  1  0.928500  0.936800  0.865300  1.0
  C  C5701  1  0.571500  0.436800  0.865300  1.0
  C  C5702  1  0.928500  0.563200  0.365300  1.0
  C  C5703  1  0.428500  0.936800  0.634700  1.0
  C  C5704  1  0.071500  0.063200  0.134700  1.0
  C  C5705  1  0.424200  0.564600  0.125200  1.0
  C  C5706  1  0.075800  0.435400  0.625200  1.0
  C  C5707  1  0.575800  0.064600  0.374800  1.0
  C  C5708  1  0.924200  0.935400  0.874800  1.0
  C  C5709  1  0.575800  0.435400  0.874800  1.0
  C  C5710  1  0.924200  0.564600  0.374800  1.0
  C  C5711  1  0.424200  0.935400  0.625200  1.0
  C  C5712  1  0.075800  0.064600  0.125200  1.0
  C  C5713  1  0.268300  0.450300  0.080400  1.0
  C  C5714  1  0.231700  0.549700  0.580400  1.0
  C  C5715  1  0.731700  0.950300  0.419600  1.0
  C  C5716  1  0.768300  0.049700  0.919600  1.0
  C  C5717  1  0.731700  0.549700  0.919600  1.0
  C  C5718  1  0.768300  0.450300  0.419600  1.0
  C  C5719  1  0.268300  0.049700  0.580400  1.0
  C  C5720  1  0.231700  0.950300  0.080400  1.0
  C  C5721  1  0.257400  0.435600  0.083100  1.0
  C  C5722  1  0.242600  0.564400  0.583100  1.0
  C  C5723  1  0.742600  0.935600  0.416900  1.0
  C  C5724  1  0.757400  0.064400  0.916900  1.0
  C  C5725  1  0.742600  0.564400  0.916900  1.0
  C  C5726  1  0.757400  0.435600  0.416900  1.0
  C  C5727  1  0.257400  0.064400  0.583100  1.0
  C  C5728  1  0.242600  0.935600  0.083100  1.0
  C  C5729  1  0.283400  0.418100  0.086600  1.0
  C  C5730  1  0.216600  0.581900  0.586600  1.0
  C  C5731  1  0.716600  0.918100  0.413400  1.0
  C  C5732  1  0.783400  0.081900  0.913400  1.0
  C  C5733  1  0.716600  0.581900  0.913400  1.0
  C  C5734  1  0.783400  0.418100  0.413400  1.0
  C  C5735  1  0.283400  0.081900  0.586600  1.0
  C  C5736  1  0.216600  0.918100  0.086600  1.0
  C  C5737  1  0.294800  0.432300  0.083700  1.0
  C  C5738  1  0.205200  0.567700  0.583700  1.0
  C  C5739  1  0.705200  0.932300  0.416300  1.0
  C  C5740  1  0.794800  0.067700  0.916300  1.0
  C  C5741  1  0.705200  0.567700  0.916300  1.0
  C  C5742  1  0.794800  0.432300  0.416300  1.0
  C  C5743  1  0.294800  0.067700  0.583700  1.0
  C  C5744  1  0.205200  0.932300  0.083700  1.0
  C  C5745  1  0.287600  0.449300  0.080700  1.0
  C  C5746  1  0.212400  0.550700  0.580700  1.0
  C  C5747  1  0.712400  0.949300  0.419300  1.0
  C  C5748  1  0.787600  0.050700  0.919300  1.0
  C  C5749  1  0.712400  0.550700  0.919300  1.0
  C  C5750  1  0.787600  0.449300  0.419300  1.0
  C  C5751  1  0.287600  0.050700  0.580700  1.0
  C  C5752  1  0.212400  0.949300  0.080700  1.0
  C  C5753  1  0.300200  0.462800  0.075900  1.0
  C  C5754  1  0.199800  0.537200  0.575900  1.0
  C  C5755  1  0.699800  0.962800  0.424100  1.0
  C  C5756  1  0.800200  0.037200  0.924100  1.0
  C  C5757  1  0.699800  0.537200  0.924100  1.0
  C  C5758  1  0.800200  0.462800  0.424100  1.0
  C  C5759  1  0.300200  0.037200  0.575900  1.0
  C  C5760  1  0.199800  0.962800  0.075900  1.0
  C  C5761  1  0.296600  0.480600  0.073100  1.0
  C  C5762  1  0.203400  0.519400  0.573100  1.0
  C  C5763  1  0.703400  0.980600  0.426900  1.0
  C  C5764  1  0.796600  0.019400  0.926900  1.0
  C  C5765  1  0.703400  0.519400  0.926900  1.0
  C  C5766  1  0.796600  0.480600  0.426900  1.0
  C  C5767  1  0.296600  0.019400  0.573100  1.0
  C  C5768  1  0.203400  0.980600  0.073100  1.0
  C  C5769  1  0.271100  0.490000  0.064100  1.0
  C  C5770  1  0.228900  0.510000  0.564100  1.0
  C  C5771  1  0.728900  0.990000  0.435900  1.0
  C  C5772  1  0.771100  0.010000  0.935900  1.0
  C  C5773  1  0.728900  0.510000  0.935900  1.0
  C  C5774  1  0.771100  0.490000  0.435900  1.0
  C  C5775  1  0.271100  0.010000  0.564100  1.0
  C  C5776  1  0.228900  0.990000  0.064100  1.0
  C  C5777  1  0.301000  0.513000  0.059000  1.0
  C  C5778  1  0.199000  0.487000  0.559000  1.0
  C  C5779  1  0.699000  0.013000  0.441000  1.0
  C  C5780  1  0.801000  0.987000  0.941000  1.0
  C  C5781  1  0.699000  0.487000  0.941000  1.0
  C  C5782  1  0.801000  0.513000  0.441000  1.0
  C  C5783  1  0.301000  0.987000  0.559000  1.0
  C  C5784  1  0.199000  0.013000  0.059000  1.0
  C  C5785  1  0.312000  0.490500  0.070100  1.0
  C  C5786  1  0.188000  0.509500  0.570100  1.0
  C  C5787  1  0.688000  0.990500  0.429900  1.0
  C  C5788  1  0.812000  0.009500  0.929900  1.0
  C  C5789  1  0.688000  0.509500  0.929900  1.0
  C  C5790  1  0.812000  0.490500  0.429900  1.0
  C  C5791  1  0.312000  0.009500  0.570100  1.0
  C  C5792  1  0.188000  0.990500  0.070100  1.0
  C  C5793  1  0.328400  0.480900  0.070700  1.0
  C  C5794  1  0.171600  0.519100  0.570700  1.0
  C  C5795  1  0.671600  0.980900  0.429300  1.0
  C  C5796  1  0.828400  0.019100  0.929300  1.0
  C  C5797  1  0.671600  0.519100  0.929300  1.0
  C  C5798  1  0.828400  0.480900  0.429300  1.0
  C  C5799  1  0.328400  0.019100  0.570700  1.0
  C  C5800  1  0.171600  0.980900  0.070700  1.0
  C  C5801  1  0.347100  0.486800  0.067200  1.0
  C  C5802  1  0.152900  0.513200  0.567200  1.0
  C  C5803  1  0.652900  0.986800  0.432800  1.0
  C  C5804  1  0.847100  0.013200  0.932800  1.0
  C  C5805  1  0.652900  0.513200  0.932800  1.0
  C  C5806  1  0.847100  0.486800  0.432800  1.0
  C  C5807  1  0.347100  0.013200  0.567200  1.0
  C  C5808  1  0.152900  0.986800  0.067200  1.0
  C  C5809  1  0.362500  0.475800  0.068900  1.0
  C  C5810  1  0.137500  0.524200  0.568900  1.0
  C  C5811  1  0.637500  0.975800  0.431100  1.0
  C  C5812  1  0.862500  0.024200  0.931100  1.0
  C  C5813  1  0.637500  0.524200  0.931100  1.0
  C  C5814  1  0.862500  0.475800  0.431100  1.0
  C  C5815  1  0.362500  0.024200  0.568900  1.0
  C  C5816  1  0.137500  0.975800  0.068900  1.0
  C  C5817  1  0.379300  0.479300  0.064700  1.0
  C  C5818  1  0.120700  0.520700  0.564700  1.0
  C  C5819  1  0.620700  0.979300  0.435300  1.0
  C  C5820  1  0.879300  0.020700  0.935300  1.0
  C  C5821  1  0.620700  0.520700  0.935300  1.0
  C  C5822  1  0.879300  0.479300  0.435300  1.0
  C  C5823  1  0.379300  0.020700  0.564700  1.0
  C  C5824  1  0.120700  0.979300  0.064700  1.0
  C  C5825  1  0.366900  0.504300  0.056800  1.0
  C  C5826  1  0.133100  0.495700  0.556800  1.0
  C  C5827  1  0.633100  0.004300  0.443200  1.0
  C  C5828  1  0.866900  0.995700  0.943200  1.0
  C  C5829  1  0.633100  0.495700  0.943200  1.0
  C  C5830  1  0.866900  0.504300  0.443200  1.0
  C  C5831  1  0.366900  0.995700  0.556800  1.0
  C  C5832  1  0.133100  0.004300  0.056800  1.0
  C  C5833  1  0.349800  0.501300  0.060900  1.0
  C  C5834  1  0.150200  0.498700  0.560900  1.0
  C  C5835  1  0.650200  0.001300  0.439100  1.0
  C  C5836  1  0.849800  0.998700  0.939100  1.0
  C  C5837  1  0.650200  0.498700  0.939100  1.0
  C  C5838  1  0.849800  0.501300  0.439100  1.0
  C  C5839  1  0.349800  0.998700  0.560900  1.0
  C  C5840  1  0.150200  0.001300  0.060900  1.0
  C  C5841  1  0.384200  0.478300  0.029100  1.0
  C  C5842  1  0.115800  0.521700  0.529100  1.0
  C  C5843  1  0.615800  0.978300  0.470900  1.0
  C  C5844  1  0.884200  0.021700  0.970900  1.0
  C  C5845  1  0.615800  0.521700  0.970900  1.0
  C  C5846  1  0.884200  0.478300  0.470900  1.0
  C  C5847  1  0.384200  0.021700  0.529100  1.0
  C  C5848  1  0.115800  0.978300  0.029100  1.0
  C  C5849  1  0.391200  0.489400  0.036200  1.0
  C  C5850  1  0.108800  0.510600  0.536200  1.0
  C  C5851  1  0.608800  0.989400  0.463800  1.0
  C  C5852  1  0.891200  0.010600  0.963800  1.0
  C  C5853  1  0.608800  0.510600  0.963800  1.0
  C  C5854  1  0.891200  0.489400  0.463800  1.0
  C  C5855  1  0.391200  0.010600  0.536200  1.0
  C  C5856  1  0.108800  0.989400  0.036200  1.0
  C  C5857  1  0.402300  0.464000  0.044200  1.0
  C  C5858  1  0.097700  0.536000  0.544200  1.0
  C  C5859  1  0.597700  0.964000  0.455800  1.0
  C  C5860  1  0.902300  0.036000  0.955800  1.0
  C  C5861  1  0.597700  0.536000  0.955800  1.0
  C  C5862  1  0.902300  0.464000  0.455800  1.0
  C  C5863  1  0.402300  0.036000  0.544200  1.0
  C  C5864  1  0.097700  0.964000  0.044200  1.0
  C  C5865  1  0.395600  0.452200  0.037300  1.0
  C  C5866  1  0.104400  0.547800  0.537300  1.0
  C  C5867  1  0.604400  0.952200  0.462700  1.0
  C  C5868  1  0.895600  0.047800  0.962700  1.0
  C  C5869  1  0.604400  0.547800  0.962700  1.0
  C  C5870  1  0.895600  0.452200  0.462700  1.0
  C  C5871  1  0.395600  0.047800  0.537300  1.0
  C  C5872  1  0.104400  0.952200  0.037300  1.0
  C  C5873  1  0.386100  0.459200  0.029600  1.0
  C  C5874  1  0.113900  0.540800  0.529600  1.0
  C  C5875  1  0.613900  0.959200  0.470400  1.0
  C  C5876  1  0.886100  0.040800  0.970400  1.0
  C  C5877  1  0.613900  0.540800  0.970400  1.0
  C  C5878  1  0.886100  0.459200  0.470400  1.0
  C  C5879  1  0.386100  0.040800  0.529600  1.0
  C  C5880  1  0.113900  0.959200  0.029600  1.0
  C  C5881  1  0.377400  0.446100  0.022700  1.0
  C  C5882  1  0.122600  0.553900  0.522700  1.0
  C  C5883  1  0.622600  0.946100  0.477300  1.0
  C  C5884  1  0.877400  0.053900  0.977300  1.0
  C  C5885  1  0.622600  0.553900  0.977300  1.0
  C  C5886  1  0.877400  0.446100  0.477300  1.0
  C  C5887  1  0.377400  0.053900  0.522700  1.0
  C  C5888  1  0.122600  0.946100  0.022700  1.0
  C  C5889  1  0.369400  0.450300  0.014200  1.0
  C  C5890  1  0.130600  0.549700  0.514200  1.0
  C  C5891  1  0.630600  0.950300  0.485800  1.0
  C  C5892  1  0.869400  0.049700  0.985800  1.0
  C  C5893  1  0.630600  0.549700  0.985800  1.0
  C  C5894  1  0.869400  0.450300  0.485800  1.0
  C  C5895  1  0.369400  0.049700  0.514200  1.0
  C  C5896  1  0.130600  0.950300  0.014200  1.0
  C  C5897  1  0.381000  0.481000  0.012000  1.0
  C  C5898  1  0.119000  0.519000  0.512000  1.0
  C  C5899  1  0.619000  0.981000  0.488000  1.0
  C  C5900  1  0.881000  0.019000  0.988000  1.0
  C  C5901  1  0.619000  0.519000  0.988000  1.0
  C  C5902  1  0.881000  0.481000  0.488000  1.0
  C  C5903  1  0.381000  0.019000  0.512000  1.0
  C  C5904  1  0.119000  0.981000  0.012000  1.0
  C  C5905  1  0.345000  0.451000  0.998000  1.0
  C  C5906  1  0.155000  0.549000  0.498000  1.0
  C  C5907  1  0.655000  0.951000  0.502000  1.0
  C  C5908  1  0.845000  0.049000  0.002000  1.0
  C  C5909  1  0.655000  0.549000  0.002000  1.0
  C  C5910  1  0.845000  0.451000  0.502000  1.0
  C  C5911  1  0.345000  0.049000  0.498000  1.0
  C  C5912  1  0.155000  0.951000  0.998000  1.0
  C  C5913  1  0.362800  0.435000  0.009300  1.0
  C  C5914  1  0.137200  0.565000  0.509300  1.0
  C  C5915  1  0.637200  0.935000  0.490700  1.0
  C  C5916  1  0.862800  0.065000  0.990700  1.0
  C  C5917  1  0.637200  0.565000  0.990700  1.0
  C  C5918  1  0.862800  0.435000  0.490700  1.0
  C  C5919  1  0.362800  0.065000  0.509300  1.0
  C  C5920  1  0.137200  0.935000  0.009300  1.0
  C  C5921  1  0.365600  0.418400  0.013900  1.0
  C  C5922  1  0.134400  0.581600  0.513900  1.0
  C  C5923  1  0.634400  0.918400  0.486100  1.0
  C  C5924  1  0.865600  0.081600  0.986100  1.0
  C  C5925  1  0.634400  0.581600  0.986100  1.0
  C  C5926  1  0.865600  0.418400  0.486100  1.0
  C  C5927  1  0.365600  0.081600  0.513900  1.0
  C  C5928  1  0.134400  0.918400  0.013900  1.0
  C  C5929  1  0.357800  0.399800  0.011400  1.0
  C  C5930  1  0.142200  0.600200  0.511400  1.0
  C  C5931  1  0.642200  0.899800  0.488600  1.0
  C  C5932  1  0.857800  0.100200  0.988600  1.0
  C  C5933  1  0.642200  0.600200  0.988600  1.0
  C  C5934  1  0.857800  0.399800  0.488600  1.0
  C  C5935  1  0.357800  0.100200  0.511400  1.0
  C  C5936  1  0.142200  0.899800  0.011400  1.0
  C  C5937  1  0.362500  0.384300  0.016700  1.0
  C  C5938  1  0.137500  0.615700  0.516700  1.0
  C  C5939  1  0.637500  0.884300  0.483300  1.0
  C  C5940  1  0.862500  0.115700  0.983300  1.0
  C  C5941  1  0.637500  0.615700  0.983300  1.0
  C  C5942  1  0.862500  0.384300  0.483300  1.0
  C  C5943  1  0.362500  0.115700  0.516700  1.0
  C  C5944  1  0.137500  0.884300  0.016700  1.0
  C  C5945  1  0.356400  0.366900  0.014200  1.0
  C  C5946  1  0.143600  0.633100  0.514200  1.0
  C  C5947  1  0.643600  0.866900  0.485800  1.0
  C  C5948  1  0.856400  0.133100  0.985800  1.0
  C  C5949  1  0.643600  0.633100  0.985800  1.0
  C  C5950  1  0.856400  0.366900  0.485800  1.0
  C  C5951  1  0.356400  0.133100  0.514200  1.0
  C  C5952  1  0.143600  0.866900  0.014200  1.0
  C  C5953  1  0.341300  0.378600  0.001100  1.0
  C  C5954  1  0.158700  0.621400  0.501100  1.0
  C  C5955  1  0.658700  0.878600  0.498900  1.0
  C  C5956  1  0.841300  0.121400  0.998900  1.0
  C  C5957  1  0.658700  0.621400  0.998900  1.0
  C  C5958  1  0.841300  0.378600  0.498900  1.0
  C  C5959  1  0.341300  0.121400  0.501100  1.0
  C  C5960  1  0.158700  0.878600  0.001100  1.0
  C  C5961  1  0.346700  0.396200  0.003500  1.0
  C  C5962  1  0.153300  0.603800  0.503500  1.0
  C  C5963  1  0.653300  0.896200  0.496500  1.0
  C  C5964  1  0.846700  0.103800  0.996500  1.0
  C  C5965  1  0.653300  0.603800  0.996500  1.0
  C  C5966  1  0.846700  0.396200  0.496500  1.0
  C  C5967  1  0.346700  0.103800  0.503500  1.0
  C  C5968  1  0.153300  0.896200  0.003500  1.0
  C  C5969  1  0.454600  0.516100  0.040500  1.0
  C  C5970  1  0.045400  0.483900  0.540500  1.0
  C  C5971  1  0.545400  0.016100  0.459500  1.0
  C  C5972  1  0.954600  0.983900  0.959500  1.0
  C  C5973  1  0.545400  0.483900  0.959500  1.0
  C  C5974  1  0.954600  0.516100  0.459500  1.0
  C  C5975  1  0.454600  0.983900  0.540500  1.0
  C  C5976  1  0.045400  0.016100  0.040500  1.0
  C  C5977  1  0.436700  0.514300  0.043700  1.0
  C  C5978  1  0.063300  0.485700  0.543700  1.0
  C  C5979  1  0.563300  0.014300  0.456300  1.0
  C  C5980  1  0.936700  0.985700  0.956300  1.0
  C  C5981  1  0.563300  0.485700  0.956300  1.0
  C  C5982  1  0.936700  0.514300  0.456300  1.0
  C  C5983  1  0.436700  0.985700  0.543700  1.0
  C  C5984  1  0.063300  0.014300  0.043700  1.0
  C  C5985  1  0.444700  0.488300  0.052200  1.0
  C  C5986  1  0.055300  0.511700  0.552200  1.0
  C  C5987  1  0.555300  0.988300  0.447800  1.0
  C  C5988  1  0.944700  0.011700  0.947800  1.0
  C  C5989  1  0.555300  0.511700  0.947800  1.0
  C  C5990  1  0.944700  0.488300  0.447800  1.0
  C  C5991  1  0.444700  0.011700  0.552200  1.0
  C  C5992  1  0.055300  0.988300  0.052200  1.0
  C  C5993  1  0.462600  0.489100  0.048900  1.0
  C  C5994  1  0.037400  0.510900  0.548900  1.0
  C  C5995  1  0.537400  0.989100  0.451100  1.0
  C  C5996  1  0.962600  0.010900  0.951100  1.0
  C  C5997  1  0.537400  0.510900  0.951100  1.0
  C  C5998  1  0.962600  0.489100  0.451100  1.0
  C  C5999  1  0.462600  0.010900  0.548900  1.0
  C  C6000  1  0.037400  0.989100  0.048900  1.0
  C  C6001  1  0.468300  0.503400  0.043000  1.0
  C  C6002  1  0.031700  0.496600  0.543000  1.0
  C  C6003  1  0.531700  0.003400  0.457000  1.0
  C  C6004  1  0.968300  0.996600  0.957000  1.0
  C  C6005  1  0.531700  0.496600  0.957000  1.0
  C  C6006  1  0.968300  0.503400  0.457000  1.0
  C  C6007  1  0.468300  0.996600  0.543000  1.0
  C  C6008  1  0.031700  0.003400  0.043000  1.0
  C  C6009  1  0.487400  0.503400  0.038900  1.0
  C  C6010  1  0.012600  0.496600  0.538900  1.0
  C  C6011  1  0.512600  0.003400  0.461100  1.0
  C  C6012  1  0.987400  0.996600  0.961100  1.0
  C  C6013  1  0.512600  0.496600  0.961100  1.0
  C  C6014  1  0.987400  0.503400  0.461100  1.0
  C  C6015  1  0.487400  0.996600  0.538900  1.0
  C  C6016  1  0.012600  0.003400  0.038900  1.0
  C  C6017  1  0.495000  0.516600  0.033100  1.0
  C  C6018  1  0.005000  0.483400  0.533100  1.0
  C  C6019  1  0.505000  0.016600  0.466900  1.0
  C  C6020  1  0.995000  0.983400  0.966900  1.0
  C  C6021  1  0.505000  0.483400  0.966900  1.0
  C  C6022  1  0.995000  0.516600  0.466900  1.0
  C  C6023  1  0.495000  0.983400  0.533100  1.0
  C  C6024  1  0.005000  0.016600  0.033100  1.0
  C  C6025  1  0.486000  0.548100  0.034100  1.0
  C  C6026  1  0.014000  0.451900  0.534100  1.0
  C  C6027  1  0.514000  0.048100  0.465900  1.0
  C  C6028  1  0.986000  0.951900  0.965900  1.0
  C  C6029  1  0.514000  0.451900  0.965900  1.0
  C  C6030  1  0.986000  0.548100  0.465900  1.0
  C  C6031  1  0.486000  0.951900  0.534100  1.0
  C  C6032  1  0.014000  0.048100  0.034100  1.0
  C  C6033  1  0.522000  0.525000  0.016100  1.0
  C  C6034  1  0.978000  0.475000  0.516100  1.0
  C  C6035  1  0.478000  0.025000  0.483900  1.0
  C  C6036  1  0.022000  0.975000  0.983900  1.0
  C  C6037  1  0.478000  0.475000  0.983900  1.0
  C  C6038  1  0.022000  0.525000  0.483900  1.0
  C  C6039  1  0.522000  0.975000  0.516100  1.0
  C  C6040  1  0.978000  0.025000  0.016100  1.0
  C  C6041  1  0.513600  0.513900  0.031100  1.0
  C  C6042  1  0.986400  0.486100  0.531100  1.0
  C  C6043  1  0.486400  0.013900  0.468900  1.0
  C  C6044  1  0.013600  0.986100  0.968900  1.0
  C  C6045  1  0.486400  0.486100  0.968900  1.0
  C  C6046  1  0.013600  0.513900  0.468900  1.0
  C  C6047  1  0.513600  0.986100  0.531100  1.0
  C  C6048  1  0.986400  0.013900  0.031100  1.0
  C  C6049  1  0.521100  0.498300  0.035100  1.0
  C  C6050  1  0.978900  0.501700  0.535100  1.0
  C  C6051  1  0.478900  0.998300  0.464900  1.0
  C  C6052  1  0.021100  0.001700  0.964900  1.0
  C  C6053  1  0.478900  0.501700  0.964900  1.0
  C  C6054  1  0.021100  0.498300  0.464900  1.0
  C  C6055  1  0.521100  0.001700  0.535100  1.0
  C  C6056  1  0.978900  0.998300  0.035100  1.0
  C  C6057  1  0.540400  0.490900  0.034700  1.0
  C  C6058  1  0.959600  0.509100  0.534700  1.0
  C  C6059  1  0.459600  0.990900  0.465300  1.0
  C  C6060  1  0.040400  0.009100  0.965300  1.0
  C  C6061  1  0.459600  0.509100  0.965300  1.0
  C  C6062  1  0.040400  0.490900  0.465300  1.0
  C  C6063  1  0.540400  0.009100  0.534700  1.0
  C  C6064  1  0.959600  0.990900  0.034700  1.0
  C  C6065  1  0.544700  0.474300  0.039100  1.0
  C  C6066  1  0.955300  0.525700  0.539100  1.0
  C  C6067  1  0.455300  0.974300  0.460900  1.0
  C  C6068  1  0.044700  0.025700  0.960900  1.0
  C  C6069  1  0.455300  0.525700  0.960900  1.0
  C  C6070  1  0.044700  0.474300  0.460900  1.0
  C  C6071  1  0.544700  0.025700  0.539100  1.0
  C  C6072  1  0.955300  0.974300  0.039100  1.0
  C  C6073  1  0.562100  0.466800  0.038500  1.0
  C  C6074  1  0.937900  0.533200  0.538500  1.0
  C  C6075  1  0.437900  0.966800  0.461500  1.0
  C  C6076  1  0.062100  0.033200  0.961500  1.0
  C  C6077  1  0.437900  0.533200  0.961500  1.0
  C  C6078  1  0.062100  0.466800  0.461500  1.0
  C  C6079  1  0.562100  0.033200  0.538500  1.0
  C  C6080  1  0.937900  0.966800  0.038500  1.0
  C  C6081  1  0.571900  0.490500  0.028900  1.0
  C  C6082  1  0.928100  0.509500  0.528900  1.0
  C  C6083  1  0.428100  0.990500  0.471100  1.0
  C  C6084  1  0.071900  0.009500  0.971100  1.0
  C  C6085  1  0.428100  0.509500  0.971100  1.0
  C  C6086  1  0.071900  0.490500  0.471100  1.0
  C  C6087  1  0.571900  0.009500  0.528900  1.0
  C  C6088  1  0.928100  0.990500  0.028900  1.0
  C  C6089  1  0.554900  0.498800  0.029600  1.0
  C  C6090  1  0.945100  0.501200  0.529600  1.0
  C  C6091  1  0.445100  0.998800  0.470400  1.0
  C  C6092  1  0.054900  0.001200  0.970400  1.0
  C  C6093  1  0.445100  0.501200  0.970400  1.0
  C  C6094  1  0.054900  0.498800  0.470400  1.0
  C  C6095  1  0.554900  0.001200  0.529600  1.0
  C  C6096  1  0.945100  0.998800  0.029600  1.0
  C  C6097  1  0.584300  0.445700  0.005000  1.0
  C  C6098  1  0.915700  0.554300  0.505000  1.0
  C  C6099  1  0.415700  0.945700  0.495000  1.0
  C  C6100  1  0.084300  0.054300  0.995000  1.0
  C  C6101  1  0.415700  0.554300  0.995000  1.0
  C  C6102  1  0.084300  0.445700  0.495000  1.0
  C  C6103  1  0.584300  0.054300  0.505000  1.0
  C  C6104  1  0.915700  0.945700  0.005000  1.0
  C  C6105  1  0.591000  0.456200  0.012400  1.0
  C  C6106  1  0.909000  0.543800  0.512400  1.0
  C  C6107  1  0.409000  0.956200  0.487600  1.0
  C  C6108  1  0.091000  0.043800  0.987600  1.0
  C  C6109  1  0.409000  0.543800  0.987600  1.0
  C  C6110  1  0.091000  0.456200  0.487600  1.0
  C  C6111  1  0.591000  0.043800  0.512400  1.0
  C  C6112  1  0.909000  0.956200  0.012400  1.0
  C  C6113  1  0.584800  0.432500  0.022800  1.0
  C  C6114  1  0.915200  0.567500  0.522800  1.0
  C  C6115  1  0.415200  0.932500  0.477200  1.0
  C  C6116  1  0.084800  0.067500  0.977200  1.0
  C  C6117  1  0.415200  0.567500  0.977200  1.0
  C  C6118  1  0.084800  0.432500  0.477200  1.0
  C  C6119  1  0.584800  0.067500  0.522800  1.0
  C  C6120  1  0.915200  0.932500  0.022800  1.0
  C  C6121  1  0.577900  0.421600  0.015600  1.0
  C  C6122  1  0.922100  0.578400  0.515600  1.0
  C  C6123  1  0.422100  0.921600  0.484400  1.0
  C  C6124  1  0.077900  0.078400  0.984400  1.0
  C  C6125  1  0.422100  0.578400  0.984400  1.0
  C  C6126  1  0.077900  0.421600  0.484400  1.0
  C  C6127  1  0.577900  0.078400  0.515600  1.0
  C  C6128  1  0.922100  0.921600  0.015600  1.0
  C  C6129  1  0.577600  0.427800  0.006300  1.0
  C  C6130  1  0.922400  0.572200  0.506300  1.0
  C  C6131  1  0.422400  0.927800  0.493700  1.0
  C  C6132  1  0.077600  0.072200  0.993700  1.0
  C  C6133  1  0.422400  0.572200  0.993700  1.0
  C  C6134  1  0.077600  0.427800  0.493700  1.0
  C  C6135  1  0.577600  0.072200  0.506300  1.0
  C  C6136  1  0.922400  0.927800  0.006300  1.0
  C  C6137  1  0.572400  0.415000  0.998500  1.0
  C  C6138  1  0.927600  0.585000  0.498500  1.0
  C  C6139  1  0.427600  0.915000  0.501500  1.0
  C  C6140  1  0.072400  0.085000  0.001500  1.0
  C  C6141  1  0.427600  0.585000  0.001500  1.0
  C  C6142  1  0.072400  0.415000  0.501500  1.0
  C  C6143  1  0.572400  0.085000  0.498500  1.0
  C  C6144  1  0.927600  0.915000  0.998500  1.0
  C  C6145  1  0.570500  0.419400  0.989100  1.0
  C  C6146  1  0.929500  0.580600  0.489100  1.0
  C  C6147  1  0.429500  0.919400  0.510900  1.0
  C  C6148  1  0.070500  0.080600  0.010900  1.0
  C  C6149  1  0.429500  0.580600  0.010900  1.0
  C  C6150  1  0.070500  0.419400  0.510900  1.0
  C  C6151  1  0.570500  0.080600  0.489100  1.0
  C  C6152  1  0.929500  0.919400  0.989100  1.0
  C  C6153  1  0.594800  0.439000  0.984000  1.0
  C  C6154  1  0.905200  0.561000  0.484000  1.0
  C  C6155  1  0.405200  0.939000  0.516000  1.0
  C  C6156  1  0.094800  0.061000  0.016000  1.0
  C  C6157  1  0.405200  0.561000  0.016000  1.0
  C  C6158  1  0.094800  0.439000  0.516000  1.0
  C  C6159  1  0.594800  0.061000  0.484000  1.0
  C  C6160  1  0.905200  0.939000  0.984000  1.0
  C  C6161  1  0.543000  0.415000  0.971000  1.0
  C  C6162  1  0.957000  0.585000  0.471000  1.0
  C  C6163  1  0.457000  0.915000  0.529000  1.0
  C  C6164  1  0.043000  0.085000  0.029000  1.0
  C  C6165  1  0.457000  0.585000  0.029000  1.0
  C  C6166  1  0.043000  0.415000  0.529000  1.0
  C  C6167  1  0.543000  0.085000  0.471000  1.0
  C  C6168  1  0.957000  0.915000  0.971000  1.0
  C  C6169  1  0.562200  0.405700  0.983800  1.0
  C  C6170  1  0.937800  0.594300  0.483800  1.0
  C  C6171  1  0.437800  0.905700  0.516200  1.0
  C  C6172  1  0.062200  0.094300  0.016200  1.0
  C  C6173  1  0.437800  0.594300  0.016200  1.0
  C  C6174  1  0.062200  0.405700  0.516200  1.0
  C  C6175  1  0.562200  0.094300  0.483800  1.0
  C  C6176  1  0.937800  0.905700  0.983800  1.0
  C  C6177  1  0.556900  0.390300  0.988750  1.0
  C  C6178  1  0.943100  0.609700  0.488750  1.0
  C  C6179  1  0.443100  0.890300  0.511250  1.0
  C  C6180  1  0.056900  0.109700  0.011250  1.0
  C  C6181  1  0.443100  0.609700  0.011250  1.0
  C  C6182  1  0.056900  0.390300  0.511250  1.0
  C  C6183  1  0.556900  0.109700  0.488750  1.0
  C  C6184  1  0.943100  0.890300  0.988750  1.0
  C  C6185  1  0.550300  0.372300  0.984800  1.0
  C  C6186  1  0.949700  0.627700  0.484800  1.0
  C  C6187  1  0.449700  0.872300  0.515200  1.0
  C  C6188  1  0.050300  0.127700  0.015200  1.0
  C  C6189  1  0.449700  0.627700  0.015200  1.0
  C  C6190  1  0.050300  0.372300  0.515200  1.0
  C  C6191  1  0.550300  0.127700  0.484800  1.0
  C  C6192  1  0.949700  0.872300  0.984800  1.0
  C  C6193  1  0.544100  0.358400  0.990800  1.0
  C  C6194  1  0.955900  0.641600  0.490800  1.0
  C  C6195  1  0.455900  0.858400  0.509200  1.0
  C  C6196  1  0.044100  0.141600  0.009200  1.0
  C  C6197  1  0.455900  0.641600  0.009200  1.0
  C  C6198  1  0.044100  0.358400  0.509200  1.0
  C  C6199  1  0.544100  0.141600  0.490800  1.0
  C  C6200  1  0.955900  0.858400  0.990800  1.0
  C  C6201  1  0.537400  0.342000  0.987200  1.0
  C  C6202  1  0.962600  0.658000  0.487200  1.0
  C  C6203  1  0.462600  0.842000  0.512800  1.0
  C  C6204  1  0.037400  0.158000  0.012800  1.0
  C  C6205  1  0.462600  0.658000  0.012800  1.0
  C  C6206  1  0.037400  0.342000  0.512800  1.0
  C  C6207  1  0.537400  0.158000  0.487200  1.0
  C  C6208  1  0.962600  0.842000  0.987200  1.0
  C  C6209  1  0.541600  0.352200  0.971900  1.0
  C  C6210  1  0.958400  0.647800  0.471900  1.0
  C  C6211  1  0.458400  0.852200  0.528100  1.0
  C  C6212  1  0.041600  0.147800  0.028100  1.0
  C  C6213  1  0.458400  0.647800  0.028100  1.0
  C  C6214  1  0.041600  0.352200  0.528100  1.0
  C  C6215  1  0.541600  0.147800  0.471900  1.0
  C  C6216  1  0.958400  0.852200  0.971900  1.0
  C  C6217  1  0.548600  0.368700  0.975200  1.0
  C  C6218  1  0.951400  0.631300  0.475200  1.0
  C  C6219  1  0.451400  0.868700  0.524800  1.0
  C  C6220  1  0.048600  0.131300  0.024800  1.0
  C  C6221  1  0.451400  0.631300  0.024800  1.0
  C  C6222  1  0.048600  0.368700  0.524800  1.0
  C  C6223  1  0.548600  0.131300  0.475200  1.0
  C  C6224  1  0.951400  0.868700  0.975200  1.0
  C  C6225  1  0.734500  0.385000  0.029500  1.0
  C  C6226  1  0.765500  0.615000  0.529500  1.0
  C  C6227  1  0.265500  0.885000  0.470500  1.0
  C  C6228  1  0.234500  0.115000  0.970500  1.0
  C  C6229  1  0.265500  0.615000  0.970500  1.0
  C  C6230  1  0.234500  0.385000  0.470500  1.0
  C  C6231  1  0.734500  0.115000  0.529500  1.0
  C  C6232  1  0.765500  0.885000  0.029500  1.0
  C  C6233  1  0.746000  0.371200  0.032800  1.0
  C  C6234  1  0.754000  0.628800  0.532800  1.0
  C  C6235  1  0.254000  0.871200  0.467200  1.0
  C  C6236  1  0.246000  0.128800  0.967200  1.0
  C  C6237  1  0.254000  0.628800  0.967200  1.0
  C  C6238  1  0.246000  0.371200  0.467200  1.0
  C  C6239  1  0.746000  0.128800  0.532800  1.0
  C  C6240  1  0.754000  0.871200  0.032800  1.0
  C  C6241  1  0.723100  0.361400  0.042800  1.0
  C  C6242  1  0.776900  0.638600  0.542800  1.0
  C  C6243  1  0.276900  0.861400  0.457200  1.0
  C  C6244  1  0.223100  0.138600  0.957200  1.0
  C  C6245  1  0.276900  0.638600  0.957200  1.0
  C  C6246  1  0.223100  0.361400  0.457200  1.0
  C  C6247  1  0.723100  0.138600  0.542800  1.0
  C  C6248  1  0.776900  0.861400  0.042800  1.0
  C  C6249  1  0.711000  0.374700  0.039600  1.0
  C  C6250  1  0.789000  0.625300  0.539600  1.0
  C  C6251  1  0.289000  0.874700  0.460400  1.0
  C  C6252  1  0.211000  0.125300  0.960400  1.0
  C  C6253  1  0.289000  0.625300  0.960400  1.0
  C  C6254  1  0.211000  0.374700  0.460400  1.0
  C  C6255  1  0.711000  0.125300  0.539600  1.0
  C  C6256  1  0.789000  0.874700  0.039600  1.0
  C  C6257  1  0.716500  0.387500  0.032800  1.0
  C  C6258  1  0.783500  0.612500  0.532800  1.0
  C  C6259  1  0.283500  0.887500  0.467200  1.0
  C  C6260  1  0.216500  0.112500  0.967200  1.0
  C  C6261  1  0.283500  0.612500  0.967200  1.0
  C  C6262  1  0.216500  0.387500  0.467200  1.0
  C  C6263  1  0.716500  0.112500  0.532800  1.0
  C  C6264  1  0.783500  0.887500  0.032800  1.0
  C  C6265  1  0.703500  0.402500  0.029800  1.0
  C  C6266  1  0.796500  0.597500  0.529800  1.0
  C  C6267  1  0.296500  0.902500  0.470200  1.0
  C  C6268  1  0.203500  0.097500  0.970200  1.0
  C  C6269  1  0.296500  0.597500  0.970200  1.0
  C  C6270  1  0.203500  0.402500  0.470200  1.0
  C  C6271  1  0.703500  0.097500  0.529800  1.0
  C  C6272  1  0.796500  0.902500  0.029800  1.0
  C  C6273  1  0.705500  0.415500  0.022800  1.0
  C  C6274  1  0.794500  0.584500  0.522800  1.0
  C  C6275  1  0.294500  0.915500  0.477200  1.0
  C  C6276  1  0.205500  0.084500  0.977200  1.0
  C  C6277  1  0.294500  0.584500  0.977200  1.0
  C  C6278  1  0.205500  0.415500  0.477200  1.0
  C  C6279  1  0.705500  0.084500  0.522800  1.0
  C  C6280  1  0.794500  0.915500  0.022800  1.0
  C  C6281  1  0.722800  0.407000  0.009200  1.0
  C  C6282  1  0.777200  0.593000  0.509200  1.0
  C  C6283  1  0.277200  0.907000  0.490800  1.0
  C  C6284  1  0.222800  0.093000  0.990800  1.0
  C  C6285  1  0.277200  0.593000  0.990800  1.0
  C  C6286  1  0.222800  0.407000  0.490800  1.0
  C  C6287  1  0.722800  0.093000  0.509200  1.0
  C  C6288  1  0.777200  0.907000  0.009200  1.0
  C  C6289  1  0.677000  0.441000  0.008000  1.0
  C  C6290  1  0.823000  0.559000  0.508000  1.0
  C  C6291  1  0.323000  0.941000  0.492000  1.0
  C  C6292  1  0.177000  0.059000  0.992000  1.0
  C  C6293  1  0.323000  0.559000  0.992000  1.0
  C  C6294  1  0.177000  0.441000  0.492000  1.0
  C  C6295  1  0.677000  0.059000  0.508000  1.0
  C  C6296  1  0.823000  0.941000  0.008000  1.0
  C  C6297  1  0.690400  0.426900  0.021500  1.0
  C  C6298  1  0.809600  0.573100  0.521500  1.0
  C  C6299  1  0.309600  0.926900  0.478500  1.0
  C  C6300  1  0.190400  0.073100  0.978500  1.0
  C  C6301  1  0.309600  0.573100  0.978500  1.0
  C  C6302  1  0.190400  0.426900  0.478500  1.0
  C  C6303  1  0.690400  0.073100  0.521500  1.0
  C  C6304  1  0.809600  0.926900  0.021500  1.0
  C  C6305  1  0.675900  0.423500  0.027500  1.0
  C  C6306  1  0.824100  0.576500  0.527500  1.0
  C  C6307  1  0.324100  0.923500  0.472500  1.0
  C  C6308  1  0.175900  0.076500  0.972500  1.0
  C  C6309  1  0.324100  0.576500  0.972500  1.0
  C  C6310  1  0.175900  0.423500  0.472500  1.0
  C  C6311  1  0.675900  0.076500  0.527500  1.0
  C  C6312  1  0.824100  0.923500  0.027500  1.0
  C  C6313  1  0.658700  0.434600  0.028900  1.0
  C  C6314  1  0.841300  0.565400  0.528900  1.0
  C  C6315  1  0.341300  0.934600  0.471100  1.0
  C  C6316  1  0.158700  0.065400  0.971100  1.0
  C  C6317  1  0.341300  0.565400  0.971100  1.0
  C  C6318  1  0.158700  0.434600  0.471100  1.0
  C  C6319  1  0.658700  0.065400  0.528900  1.0
  C  C6320  1  0.841300  0.934600  0.028900  1.0
  C  C6321  1  0.644500  0.427600  0.034600  1.0
  C  C6322  1  0.855500  0.572400  0.534600  1.0
  C  C6323  1  0.355500  0.927600  0.465400  1.0
  C  C6324  1  0.144500  0.072400  0.965400  1.0
  C  C6325  1  0.355500  0.572400  0.965400  1.0
  C  C6326  1  0.144500  0.427600  0.465400  1.0
  C  C6327  1  0.644500  0.072400  0.534600  1.0
  C  C6328  1  0.855500  0.927600  0.034600  1.0
  C  C6329  1  0.627500  0.436100  0.035200  1.0
  C  C6330  1  0.872500  0.563900  0.535200  1.0
  C  C6331  1  0.372500  0.936100  0.464800  1.0
  C  C6332  1  0.127500  0.063900  0.964800  1.0
  C  C6333  1  0.372500  0.563900  0.964800  1.0
  C  C6334  1  0.127500  0.436100  0.464800  1.0
  C  C6335  1  0.627500  0.063900  0.535200  1.0
  C  C6336  1  0.872500  0.936100  0.035200  1.0
  C  C6337  1  0.636200  0.457500  0.024000  1.0
  C  C6338  1  0.863800  0.542500  0.524000  1.0
  C  C6339  1  0.363800  0.957500  0.476000  1.0
  C  C6340  1  0.136200  0.042500  0.976000  1.0
  C  C6341  1  0.363800  0.542500  0.976000  1.0
  C  C6342  1  0.136200  0.457500  0.476000  1.0
  C  C6343  1  0.636200  0.042500  0.524000  1.0
  C  C6344  1  0.863800  0.957500  0.024000  1.0
  C  C6345  1  0.653700  0.449800  0.023400  1.0
  C  C6346  1  0.846300  0.550200  0.523400  1.0
  C  C6347  1  0.346300  0.949800  0.476600  1.0
  C  C6348  1  0.153700  0.050200  0.976600  1.0
  C  C6349  1  0.346300  0.550200  0.976600  1.0
  C  C6350  1  0.153700  0.449800  0.476600  1.0
  C  C6351  1  0.653700  0.050200  0.523400  1.0
  C  C6352  1  0.846300  0.949800  0.023400  1.0
  C  C6353  1  0.716200  0.226600  0.995300  1.0
  C  C6354  1  0.783800  0.773400  0.495300  1.0
  C  C6355  1  0.283800  0.726600  0.504700  1.0
  C  C6356  1  0.216200  0.273400  0.004700  1.0
  C  C6357  1  0.283800  0.773400  0.004700  1.0
  C  C6358  1  0.216200  0.226600  0.504700  1.0
  C  C6359  1  0.716200  0.273400  0.495300  1.0
  C  C6360  1  0.783800  0.726600  0.995300  1.0
  C  C6361  1  0.704900  0.211600  0.993500  1.0
  C  C6362  1  0.795100  0.788400  0.493500  1.0
  C  C6363  1  0.295100  0.711600  0.506500  1.0
  C  C6364  1  0.204900  0.288400  0.006500  1.0
  C  C6365  1  0.295100  0.788400  0.006500  1.0
  C  C6366  1  0.204900  0.211600  0.506500  1.0
  C  C6367  1  0.704900  0.288400  0.493500  1.0
  C  C6368  1  0.795100  0.711600  0.993500  1.0
  C  C6369  1  0.691900  0.213800  0.008400  1.0
  C  C6370  1  0.808100  0.786200  0.508400  1.0
  C  C6371  1  0.308100  0.713800  0.491600  1.0
  C  C6372  1  0.191900  0.286200  0.991600  1.0
  C  C6373  1  0.308100  0.786200  0.991600  1.0
  C  C6374  1  0.191900  0.213800  0.491600  1.0
  C  C6375  1  0.691900  0.286200  0.508400  1.0
  C  C6376  1  0.808100  0.713800  0.008400  1.0
  C  C6377  1  0.703100  0.228700  0.010500  1.0
  C  C6378  1  0.796900  0.771300  0.510500  1.0
  C  C6379  1  0.296900  0.728700  0.489500  1.0
  C  C6380  1  0.203100  0.271300  0.989500  1.0
  C  C6381  1  0.296900  0.771300  0.989500  1.0
  C  C6382  1  0.203100  0.228700  0.489500  1.0
  C  C6383  1  0.703100  0.271300  0.510500  1.0
  C  C6384  1  0.796900  0.728700  0.010500  1.0
  C  C6385  1  0.715600  0.235600  0.003900  1.0
  C  C6386  1  0.784400  0.764400  0.503900  1.0
  C  C6387  1  0.284400  0.735600  0.496100  1.0
  C  C6388  1  0.215600  0.264400  0.996100  1.0
  C  C6389  1  0.284400  0.764400  0.996100  1.0
  C  C6390  1  0.215600  0.235600  0.496100  1.0
  C  C6391  1  0.715600  0.264400  0.503900  1.0
  C  C6392  1  0.784400  0.735600  0.003900  1.0
  C  C6393  1  0.725800  0.253200  0.006140  1.0
  C  C6394  1  0.774200  0.746800  0.506140  1.0
  C  C6395  1  0.274200  0.753200  0.493860  1.0
  C  C6396  1  0.225800  0.246800  0.993860  1.0
  C  C6397  1  0.274200  0.746800  0.993860  1.0
  C  C6398  1  0.225800  0.253200  0.493860  1.0
  C  C6399  1  0.725800  0.246800  0.506140  1.0
  C  C6400  1  0.774200  0.753200  0.006140  1.0
  C  C6401  1  0.737400  0.263600  0.000700  1.0
  C  C6402  1  0.762600  0.736400  0.500700  1.0
  C  C6403  1  0.262600  0.763600  0.499300  1.0
  C  C6404  1  0.237400  0.236400  0.999300  1.0
  C  C6405  1  0.262600  0.736400  0.999300  1.0
  C  C6406  1  0.237400  0.263600  0.499300  1.0
  C  C6407  1  0.737400  0.236400  0.500700  1.0
  C  C6408  1  0.762600  0.763600  0.000700  1.0
  C  C6409  1  0.759800  0.250700  0.990400  1.0
  C  C6410  1  0.740200  0.749300  0.490400  1.0
  C  C6411  1  0.240200  0.750700  0.509600  1.0
  C  C6412  1  0.259800  0.249300  0.009600  1.0
  C  C6413  1  0.240200  0.749300  0.009600  1.0
  C  C6414  1  0.259800  0.250700  0.509600  1.0
  C  C6415  1  0.759800  0.249300  0.490400  1.0
  C  C6416  1  0.740200  0.750700  0.990400  1.0
  C  C6417  1  0.747600  0.302800  0.993900  1.0
  C  C6418  1  0.752400  0.697200  0.493900  1.0
  C  C6419  1  0.252400  0.802800  0.506100  1.0
  C  C6420  1  0.247600  0.197200  0.006100  1.0
  C  C6421  1  0.252400  0.697200  0.006100  1.0
  C  C6422  1  0.247600  0.302800  0.506100  1.0
  C  C6423  1  0.747600  0.197200  0.493900  1.0
  C  C6424  1  0.752400  0.802800  0.993900  1.0
  C  C6425  1  0.744200  0.279400  0.005000  1.0
  C  C6426  1  0.755800  0.720600  0.505000  1.0
  C  C6427  1  0.255800  0.779400  0.495000  1.0
  C  C6428  1  0.244200  0.220600  0.995000  1.0
  C  C6429  1  0.255800  0.720600  0.995000  1.0
  C  C6430  1  0.244200  0.279400  0.495000  1.0
  C  C6431  1  0.744200  0.220600  0.505000  1.0
  C  C6432  1  0.755800  0.779400  0.005000  1.0
  C  C6433  1  0.737600  0.282500  0.013900  1.0
  C  C6434  1  0.762400  0.717500  0.513900  1.0
  C  C6435  1  0.262400  0.782500  0.486100  1.0
  C  C6436  1  0.237600  0.217500  0.986100  1.0
  C  C6437  1  0.262400  0.717500  0.986100  1.0
  C  C6438  1  0.237600  0.282500  0.486100  1.0
  C  C6439  1  0.737600  0.217500  0.513900  1.0
  C  C6440  1  0.762400  0.782500  0.013900  1.0
  C  C6441  1  0.742700  0.297800  0.020400  1.0
  C  C6442  1  0.757300  0.702200  0.520400  1.0
  C  C6443  1  0.257300  0.797800  0.479600  1.0
  C  C6444  1  0.242700  0.202200  0.979600  1.0
  C  C6445  1  0.257300  0.702200  0.979600  1.0
  C  C6446  1  0.242700  0.297800  0.479600  1.0
  C  C6447  1  0.742700  0.202200  0.520400  1.0
  C  C6448  1  0.757300  0.797800  0.020400  1.0
  C  C6449  1  0.734400  0.299200  0.029300  1.0
  C  C6450  1  0.765600  0.700800  0.529300  1.0
  C  C6451  1  0.265600  0.799200  0.470700  1.0
  C  C6452  1  0.234400  0.200800  0.970700  1.0
  C  C6453  1  0.265600  0.700800  0.970700  1.0
  C  C6454  1  0.234400  0.299200  0.470700  1.0
  C  C6455  1  0.734400  0.200800  0.529300  1.0
  C  C6456  1  0.765600  0.799200  0.029300  1.0
  C  C6457  1  0.739300  0.313100  0.035600  1.0
  C  C6458  1  0.760700  0.686900  0.535600  1.0
  C  C6459  1  0.260700  0.813100  0.464400  1.0
  C  C6460  1  0.239300  0.186900  0.964400  1.0
  C  C6461  1  0.260700  0.686900  0.964400  1.0
  C  C6462  1  0.239300  0.313100  0.464400  1.0
  C  C6463  1  0.739300  0.186900  0.535600  1.0
  C  C6464  1  0.760700  0.813100  0.035600  1.0
  C  C6465  1  0.759300  0.325500  0.024600  1.0
  C  C6466  1  0.740700  0.674500  0.524600  1.0
  C  C6467  1  0.240700  0.825500  0.475400  1.0
  C  C6468  1  0.259300  0.174500  0.975400  1.0
  C  C6469  1  0.240700  0.674500  0.975400  1.0
  C  C6470  1  0.259300  0.325500  0.475400  1.0
  C  C6471  1  0.759300  0.174500  0.524600  1.0
  C  C6472  1  0.740700  0.825500  0.024600  1.0
  C  C6473  1  0.755100  0.312000  0.018100  1.0
  C  C6474  1  0.744900  0.688000  0.518100  1.0
  C  C6475  1  0.244900  0.812000  0.481900  1.0
  C  C6476  1  0.255100  0.188000  0.981900  1.0
  C  C6477  1  0.244900  0.688000  0.981900  1.0
  C  C6478  1  0.255100  0.312000  0.481900  1.0
  C  C6479  1  0.755100  0.188000  0.518100  1.0
  C  C6480  1  0.744900  0.812000  0.018100  1.0
  C  C6481  1  0.799600  0.304500  0.051300  1.0
  C  C6482  1  0.700400  0.695500  0.551300  1.0
  C  C6483  1  0.200400  0.804500  0.448700  1.0
  C  C6484  1  0.299600  0.195500  0.948700  1.0
  C  C6485  1  0.200400  0.695500  0.948700  1.0
  C  C6486  1  0.299600  0.304500  0.448700  1.0
  C  C6487  1  0.799600  0.195500  0.551300  1.0
  C  C6488  1  0.700400  0.804500  0.051300  1.0
  C  C6489  1  0.789400  0.318500  0.047300  1.0
  C  C6490  1  0.710600  0.681500  0.547300  1.0
  C  C6491  1  0.210600  0.818500  0.452700  1.0
  C  C6492  1  0.289400  0.181500  0.952700  1.0
  C  C6493  1  0.210600  0.681500  0.952700  1.0
  C  C6494  1  0.289400  0.318500  0.452700  1.0
  C  C6495  1  0.789400  0.181500  0.547300  1.0
  C  C6496  1  0.710600  0.818500  0.047300  1.0
  C  C6497  1  0.763800  0.311400  0.056400  1.0
  C  C6498  1  0.736200  0.688600  0.556400  1.0
  C  C6499  1  0.236200  0.811400  0.443600  1.0
  C  C6500  1  0.263800  0.188600  0.943600  1.0
  C  C6501  1  0.236200  0.688600  0.943600  1.0
  C  C6502  1  0.263800  0.311400  0.443600  1.0
  C  C6503  1  0.763800  0.188600  0.556400  1.0
  C  C6504  1  0.736200  0.811400  0.056400  1.0
  C  C6505  1  0.773400  0.297000  0.060600  1.0
  C  C6506  1  0.726600  0.703000  0.560600  1.0
  C  C6507  1  0.226600  0.797000  0.439400  1.0
  C  C6508  1  0.273400  0.203000  0.939400  1.0
  C  C6509  1  0.226600  0.703000  0.939400  1.0
  C  C6510  1  0.273400  0.297000  0.439400  1.0
  C  C6511  1  0.773400  0.203000  0.560600  1.0
  C  C6512  1  0.726600  0.797000  0.060600  1.0
  C  C6513  1  0.791600  0.293200  0.058200  1.0
  C  C6514  1  0.708400  0.706800  0.558200  1.0
  C  C6515  1  0.208400  0.793200  0.441800  1.0
  C  C6516  1  0.291600  0.206800  0.941800  1.0
  C  C6517  1  0.208400  0.706800  0.941800  1.0
  C  C6518  1  0.291600  0.293200  0.441800  1.0
  C  C6519  1  0.791600  0.206800  0.558200  1.0
  C  C6520  1  0.708400  0.793200  0.058200  1.0
  C  C6521  1  0.802200  0.278900  0.063600  1.0
  C  C6522  1  0.697800  0.721100  0.563600  1.0
  C  C6523  1  0.197800  0.778900  0.436400  1.0
  C  C6524  1  0.302200  0.221100  0.936400  1.0
  C  C6525  1  0.197800  0.721100  0.936400  1.0
  C  C6526  1  0.302200  0.278900  0.436400  1.0
  C  C6527  1  0.802200  0.221100  0.563600  1.0
  C  C6528  1  0.697800  0.778900  0.063600  1.0
  C  C6529  1  0.819800  0.272400  0.062100  1.0
  C  C6530  1  0.680200  0.727600  0.562100  1.0
  C  C6531  1  0.180200  0.772400  0.437900  1.0
  C  C6532  1  0.319800  0.227600  0.937900  1.0
  C  C6533  1  0.180200  0.727600  0.937900  1.0
  C  C6534  1  0.319800  0.272400  0.437900  1.0
  C  C6535  1  0.819800  0.227600  0.562100  1.0
  C  C6536  1  0.680200  0.772400  0.062100  1.0
  C  C6537  1  0.834800  0.266400  0.047900  1.0
  C  C6538  1  0.665200  0.733600  0.547900  1.0
  C  C6539  1  0.165200  0.766400  0.452100  1.0
  C  C6540  1  0.334800  0.233600  0.952100  1.0
  C  C6541  1  0.165200  0.733600  0.952100  1.0
  C  C6542  1  0.334800  0.266400  0.452100  1.0
  C  C6543  1  0.834800  0.233600  0.547900  1.0
  C  C6544  1  0.665200  0.766400  0.047900  1.0
  C  C6545  1  0.843900  0.235700  0.062100  1.0
  C  C6546  1  0.656100  0.764300  0.562100  1.0
  C  C6547  1  0.156100  0.735700  0.437900  1.0
  C  C6548  1  0.343900  0.264300  0.937900  1.0
  C  C6549  1  0.156100  0.764300  0.937900  1.0
  C  C6550  1  0.343900  0.235700  0.437900  1.0
  C  C6551  1  0.843900  0.264300  0.562100  1.0
  C  C6552  1  0.656100  0.735700  0.062100  1.0
  C  C6553  1  0.825400  0.258900  0.068400  1.0
  C  C6554  1  0.674600  0.741100  0.568400  1.0
  C  C6555  1  0.174600  0.758900  0.431600  1.0
  C  C6556  1  0.325400  0.241100  0.931600  1.0
  C  C6557  1  0.174600  0.741100  0.931600  1.0
  C  C6558  1  0.325400  0.258900  0.431600  1.0
  C  C6559  1  0.825400  0.241100  0.568400  1.0
  C  C6560  1  0.674600  0.758900  0.068400  1.0
  C  C6561  1  0.812400  0.254200  0.075000  1.0
  C  C6562  1  0.687600  0.745800  0.575000  1.0
  C  C6563  1  0.187600  0.754200  0.425000  1.0
  C  C6564  1  0.312400  0.245800  0.925000  1.0
  C  C6565  1  0.187600  0.745800  0.925000  1.0
  C  C6566  1  0.312400  0.254200  0.425000  1.0
  C  C6567  1  0.812400  0.245800  0.575000  1.0
  C  C6568  1  0.687600  0.754200  0.075000  1.0
  C  C6569  1  0.814300  0.242000  0.083500  1.0
  C  C6570  1  0.685700  0.758000  0.583500  1.0
  C  C6571  1  0.185700  0.742000  0.416500  1.0
  C  C6572  1  0.314300  0.258000  0.916500  1.0
  C  C6573  1  0.185700  0.758000  0.916500  1.0
  C  C6574  1  0.314300  0.242000  0.416500  1.0
  C  C6575  1  0.814300  0.258000  0.583500  1.0
  C  C6576  1  0.685700  0.742000  0.083500  1.0
  C  C6577  1  0.798500  0.237400  0.088700  1.0
  C  C6578  1  0.701500  0.762600  0.588700  1.0
  C  C6579  1  0.201500  0.737400  0.411300  1.0
  C  C6580  1  0.298500  0.262600  0.911300  1.0
  C  C6581  1  0.201500  0.762600  0.911300  1.0
  C  C6582  1  0.298500  0.237400  0.411300  1.0
  C  C6583  1  0.798500  0.262600  0.588700  1.0
  C  C6584  1  0.701500  0.737400  0.088700  1.0
  C  C6585  1  0.799600  0.226600  0.096600  1.0
  C  C6586  1  0.700400  0.773400  0.596600  1.0
  C  C6587  1  0.200400  0.726600  0.403400  1.0
  C  C6588  1  0.299600  0.273400  0.903400  1.0
  C  C6589  1  0.200400  0.773400  0.903400  1.0
  C  C6590  1  0.299600  0.226600  0.403400  1.0
  C  C6591  1  0.799600  0.273400  0.596600  1.0
  C  C6592  1  0.700400  0.726600  0.096600  1.0
  C  C6593  1  0.831400  0.224100  0.094700  1.0
  C  C6594  1  0.668600  0.775900  0.594700  1.0
  C  C6595  1  0.168600  0.724100  0.405300  1.0
  C  C6596  1  0.331400  0.275900  0.905300  1.0
  C  C6597  1  0.168600  0.775900  0.905300  1.0
  C  C6598  1  0.331400  0.224100  0.405300  1.0
  C  C6599  1  0.831400  0.275900  0.594700  1.0
  C  C6600  1  0.668600  0.724100  0.094700  1.0
  C  C6601  1  0.831100  0.235200  0.086800  1.0
  C  C6602  1  0.668900  0.764800  0.586800  1.0
  C  C6603  1  0.168900  0.735200  0.413200  1.0
  C  C6604  1  0.331100  0.264800  0.913200  1.0
  C  C6605  1  0.168900  0.764800  0.913200  1.0
  C  C6606  1  0.331100  0.235200  0.413200  1.0
  C  C6607  1  0.831100  0.264800  0.586800  1.0
  C  C6608  1  0.668900  0.735200  0.086800  1.0
  C  C6609  1  0.822800  0.156500  0.099400  1.0
  C  C6610  1  0.677200  0.843500  0.599400  1.0
  C  C6611  1  0.177200  0.656500  0.400600  1.0
  C  C6612  1  0.322800  0.343500  0.900600  1.0
  C  C6613  1  0.177200  0.843500  0.900600  1.0
  C  C6614  1  0.322800  0.156500  0.400600  1.0
  C  C6615  1  0.822800  0.343500  0.599400  1.0
  C  C6616  1  0.677200  0.656500  0.099400  1.0
  C  C6617  1  0.826200  0.173500  0.103500  1.0
  C  C6618  1  0.673800  0.826500  0.603500  1.0
  C  C6619  1  0.173800  0.673500  0.396500  1.0
  C  C6620  1  0.326200  0.326500  0.896500  1.0
  C  C6621  1  0.173800  0.826500  0.896500  1.0
  C  C6622  1  0.326200  0.173500  0.396500  1.0
  C  C6623  1  0.826200  0.326500  0.603500  1.0
  C  C6624  1  0.673800  0.673500  0.103500  1.0
  C  C6625  1  0.794700  0.179000  0.104200  1.0
  C  C6626  1  0.705300  0.821000  0.604200  1.0
  C  C6627  1  0.205300  0.679000  0.395800  1.0
  C  C6628  1  0.294700  0.321000  0.895800  1.0
  C  C6629  1  0.205300  0.821000  0.895800  1.0
  C  C6630  1  0.294700  0.179000  0.395800  1.0
  C  C6631  1  0.794700  0.321000  0.604200  1.0
  C  C6632  1  0.705300  0.679000  0.104200  1.0
  C  C6633  1  0.790600  0.162200  0.100300  1.0
  C  C6634  1  0.709400  0.837800  0.600300  1.0
  C  C6635  1  0.209400  0.662200  0.399700  1.0
  C  C6636  1  0.290600  0.337800  0.899700  1.0
  C  C6637  1  0.209400  0.837800  0.899700  1.0
  C  C6638  1  0.290600  0.162200  0.399700  1.0
  C  C6639  1  0.790600  0.337800  0.600300  1.0
  C  C6640  1  0.709400  0.662200  0.100300  1.0
  C  C6641  1  0.804900  0.150400  0.097600  1.0
  C  C6642  1  0.695100  0.849600  0.597600  1.0
  C  C6643  1  0.195100  0.650400  0.402400  1.0
  C  C6644  1  0.304900  0.349600  0.902400  1.0
  C  C6645  1  0.195100  0.849600  0.902400  1.0
  C  C6646  1  0.304900  0.150400  0.402400  1.0
  C  C6647  1  0.804900  0.349600  0.597600  1.0
  C  C6648  1  0.695100  0.650400  0.097600  1.0
  C  C6649  1  0.800100  0.132200  0.093200  1.0
  C  C6650  1  0.699900  0.867800  0.593200  1.0
  C  C6651  1  0.199900  0.632200  0.406800  1.0
  C  C6652  1  0.300100  0.367800  0.906800  1.0
  C  C6653  1  0.199900  0.867800  0.906800  1.0
  C  C6654  1  0.300100  0.132200  0.406800  1.0
  C  C6655  1  0.800100  0.367800  0.593200  1.0
  C  C6656  1  0.699900  0.632200  0.093200  1.0
  C  C6657  1  0.811200  0.117600  0.090900  1.0
  C  C6658  1  0.688800  0.882400  0.590900  1.0
  C  C6659  1  0.188800  0.617600  0.409100  1.0
  C  C6660  1  0.311200  0.382400  0.909100  1.0
  C  C6661  1  0.188800  0.882400  0.909100  1.0
  C  C6662  1  0.311200  0.117600  0.409100  1.0
  C  C6663  1  0.811200  0.382400  0.590900  1.0
  C  C6664  1  0.688800  0.617600  0.090900  1.0
  C  C6665  1  0.835900  0.107500  0.100400  1.0
  C  C6666  1  0.664100  0.892500  0.600400  1.0
  C  C6667  1  0.164100  0.607500  0.399600  1.0
  C  C6668  1  0.335900  0.392500  0.899600  1.0
  C  C6669  1  0.164100  0.892500  0.899600  1.0
  C  C6670  1  0.335900  0.107500  0.399600  1.0
  C  C6671  1  0.835900  0.392500  0.600400  1.0
  C  C6672  1  0.664100  0.607500  0.100400  1.0
  C  C6673  1  0.812000  0.082000  0.075000  1.0
  C  C6674  1  0.688000  0.918000  0.575000  1.0
  C  C6675  1  0.188000  0.582000  0.425000  1.0
  C  C6676  1  0.312000  0.418000  0.925000  1.0
  C  C6677  1  0.188000  0.918000  0.925000  1.0
  C  C6678  1  0.312000  0.082000  0.425000  1.0
  C  C6679  1  0.812000  0.418000  0.575000  1.0
  C  C6680  1  0.688000  0.582000  0.075000  1.0
  C  C6681  1  0.802100  0.102600  0.087000  1.0
  C  C6682  1  0.697900  0.897400  0.587000  1.0
  C  C6683  1  0.197900  0.602600  0.413000  1.0
  C  C6684  1  0.302100  0.397400  0.913000  1.0
  C  C6685  1  0.197900  0.897400  0.913000  1.0
  C  C6686  1  0.302100  0.102600  0.413000  1.0
  C  C6687  1  0.802100  0.397400  0.587000  1.0
  C  C6688  1  0.697900  0.602600  0.087000  1.0
  C  C6689  1  0.783400  0.105200  0.085800  1.0
  C  C6690  1  0.716600  0.894800  0.585800  1.0
  C  C6691  1  0.216600  0.605200  0.414200  1.0
  C  C6692  1  0.283400  0.394800  0.914200  1.0
  C  C6693  1  0.216600  0.894800  0.914200  1.0
  C  C6694  1  0.283400  0.105200  0.414200  1.0
  C  C6695  1  0.783400  0.394800  0.585800  1.0
  C  C6696  1  0.716600  0.605200  0.085800  1.0
  C  C6697  1  0.769600  0.092800  0.081100  1.0
  C  C6698  1  0.730400  0.907200  0.581100  1.0
  C  C6699  1  0.230400  0.592800  0.418900  1.0
  C  C6700  1  0.269600  0.407200  0.918900  1.0
  C  C6701  1  0.230400  0.907200  0.918900  1.0
  C  C6702  1  0.269600  0.092800  0.418900  1.0
  C  C6703  1  0.769600  0.407200  0.581100  1.0
  C  C6704  1  0.730400  0.592800  0.081100  1.0
  C  C6705  1  0.750900  0.097700  0.081100  1.0
  C  C6706  1  0.749100  0.902300  0.581100  1.0
  C  C6707  1  0.249100  0.597700  0.418900  1.0
  C  C6708  1  0.250900  0.402300  0.918900  1.0
  C  C6709  1  0.249100  0.902300  0.918900  1.0
  C  C6710  1  0.250900  0.097700  0.418900  1.0
  C  C6711  1  0.750900  0.402300  0.581100  1.0
  C  C6712  1  0.749100  0.597700  0.081100  1.0
  C  C6713  1  0.737500  0.085800  0.077800  1.0
  C  C6714  1  0.762500  0.914200  0.577800  1.0
  C  C6715  1  0.262500  0.585800  0.422200  1.0
  C  C6716  1  0.237500  0.414200  0.922200  1.0
  C  C6717  1  0.262500  0.914200  0.922200  1.0
  C  C6718  1  0.237500  0.085800  0.422200  1.0
  C  C6719  1  0.737500  0.414200  0.577800  1.0
  C  C6720  1  0.762500  0.585800  0.077800  1.0
  C  C6721  1  0.759700  0.064300  0.073700  1.0
  C  C6722  1  0.740300  0.935700  0.573700  1.0
  C  C6723  1  0.240300  0.564300  0.426300  1.0
  C  C6724  1  0.259700  0.435700  0.926300  1.0
  C  C6725  1  0.240300  0.935700  0.926300  1.0
  C  C6726  1  0.259700  0.064300  0.426300  1.0
  C  C6727  1  0.759700  0.435700  0.573700  1.0
  C  C6728  1  0.740300  0.564300  0.073700  1.0
  C  C6729  1  0.773600  0.075700  0.077100  1.0
  C  C6730  1  0.726400  0.924300  0.577100  1.0
  C  C6731  1  0.226400  0.575700  0.422900  1.0
  C  C6732  1  0.273600  0.424300  0.922900  1.0
  C  C6733  1  0.226400  0.924300  0.922900  1.0
  C  C6734  1  0.273600  0.075700  0.422900  1.0
  C  C6735  1  0.773600  0.424300  0.577100  1.0
  C  C6736  1  0.726400  0.575700  0.077100  1.0
  C  C6737  1  0.807800  0.163500  0.187200  1.0
  C  C6738  1  0.692200  0.836500  0.687200  1.0
  C  C6739  1  0.192200  0.663500  0.312800  1.0
  C  C6740  1  0.307800  0.336500  0.812800  1.0
  C  C6741  1  0.192200  0.836500  0.812800  1.0
  C  C6742  1  0.307800  0.163500  0.312800  1.0
  C  C6743  1  0.807800  0.336500  0.687200  1.0
  C  C6744  1  0.692200  0.663500  0.187200  1.0
  C  C6745  1  0.797300  0.159200  0.195100  1.0
  C  C6746  1  0.702700  0.840800  0.695100  1.0
  C  C6747  1  0.202700  0.659200  0.304900  1.0
  C  C6748  1  0.297300  0.340800  0.804900  1.0
  C  C6749  1  0.202700  0.840800  0.804900  1.0
  C  C6750  1  0.297300  0.159200  0.304900  1.0
  C  C6751  1  0.797300  0.340800  0.695100  1.0
  C  C6752  1  0.702700  0.659200  0.195100  1.0
  C  C6753  1  0.770700  0.167100  0.187200  1.0
  C  C6754  1  0.729300  0.832900  0.687200  1.0
  C  C6755  1  0.229300  0.667100  0.312800  1.0
  C  C6756  1  0.270700  0.332900  0.812800  1.0
  C  C6757  1  0.229300  0.832900  0.812800  1.0
  C  C6758  1  0.270700  0.167100  0.312800  1.0
  C  C6759  1  0.770700  0.332900  0.687200  1.0
  C  C6760  1  0.729300  0.667100  0.187200  1.0
  C  C6761  1  0.780500  0.171600  0.179300  1.0
  C  C6762  1  0.719500  0.828400  0.679300  1.0
  C  C6763  1  0.219500  0.671600  0.320700  1.0
  C  C6764  1  0.280500  0.328400  0.820700  1.0
  C  C6765  1  0.219500  0.828400  0.820700  1.0
  C  C6766  1  0.280500  0.171600  0.320700  1.0
  C  C6767  1  0.780500  0.328400  0.679300  1.0
  C  C6768  1  0.719500  0.671600  0.179300  1.0
  C  C6769  1  0.799700  0.169500  0.178900  1.0
  C  C6770  1  0.700300  0.830500  0.678900  1.0
  C  C6771  1  0.200300  0.669500  0.321100  1.0
  C  C6772  1  0.299700  0.330500  0.821100  1.0
  C  C6773  1  0.200300  0.830500  0.821100  1.0
  C  C6774  1  0.299700  0.169500  0.321100  1.0
  C  C6775  1  0.799700  0.330500  0.678900  1.0
  C  C6776  1  0.700300  0.669500  0.178900  1.0
  C  C6777  1  0.810100  0.174200  0.170050  1.0
  C  C6778  1  0.689900  0.825800  0.670050  1.0
  C  C6779  1  0.189900  0.674200  0.329950  1.0
  C  C6780  1  0.310100  0.325800  0.829950  1.0
  C  C6781  1  0.189900  0.825800  0.829950  1.0
  C  C6782  1  0.310100  0.174200  0.329950  1.0
  C  C6783  1  0.810100  0.325800  0.670050  1.0
  C  C6784  1  0.689900  0.674200  0.170050  1.0
  C  C6785  1  0.828800  0.174000  0.168500  1.0
  C  C6786  1  0.671200  0.826000  0.668500  1.0
  C  C6787  1  0.171200  0.674000  0.331500  1.0
  C  C6788  1  0.328800  0.326000  0.831500  1.0
  C  C6789  1  0.171200  0.826000  0.831500  1.0
  C  C6790  1  0.328800  0.174000  0.331500  1.0
  C  C6791  1  0.828800  0.326000  0.668500  1.0
  C  C6792  1  0.671200  0.674000  0.168500  1.0
  C  C6793  1  0.854000  0.157000  0.176000  1.0
  C  C6794  1  0.646000  0.843000  0.676000  1.0
  C  C6795  1  0.146000  0.657000  0.324000  1.0
  C  C6796  1  0.354000  0.343000  0.824000  1.0
  C  C6797  1  0.146000  0.843000  0.824000  1.0
  C  C6798  1  0.354000  0.157000  0.324000  1.0
  C  C6799  1  0.854000  0.343000  0.676000  1.0
  C  C6800  1  0.646000  0.657000  0.176000  1.0
  C  C6801  1  0.865800  0.185000  0.162000  1.0
  C  C6802  1  0.634200  0.815000  0.662000  1.0
  C  C6803  1  0.134200  0.685000  0.338000  1.0
  C  C6804  1  0.365800  0.315000  0.838000  1.0
  C  C6805  1  0.134200  0.815000  0.838000  1.0
  C  C6806  1  0.365800  0.185000  0.338000  1.0
  C  C6807  1  0.865800  0.315000  0.662000  1.0
  C  C6808  1  0.634200  0.685000  0.162000  1.0
  C  C6809  1  0.834100  0.176900  0.159200  1.0
  C  C6810  1  0.665900  0.823100  0.659200  1.0
  C  C6811  1  0.165900  0.676900  0.340800  1.0
  C  C6812  1  0.334100  0.323100  0.840800  1.0
  C  C6813  1  0.165900  0.823100  0.840800  1.0
  C  C6814  1  0.334100  0.176900  0.340800  1.0
  C  C6815  1  0.834100  0.323100  0.659200  1.0
  C  C6816  1  0.665900  0.676900  0.159200  1.0
  C  C6817  1  0.819500  0.179600  0.153180  1.0
  C  C6818  1  0.680500  0.820400  0.653180  1.0
  C  C6819  1  0.180500  0.679600  0.346820  1.0
  C  C6820  1  0.319500  0.320400  0.846820  1.0
  C  C6821  1  0.180500  0.820400  0.846820  1.0
  C  C6822  1  0.319500  0.179600  0.346820  1.0
  C  C6823  1  0.819500  0.320400  0.653180  1.0
  C  C6824  1  0.680500  0.679600  0.153180  1.0
  C  C6825  1  0.819700  0.184900  0.142900  1.0
  C  C6826  1  0.680300  0.815100  0.642900  1.0
  C  C6827  1  0.180300  0.684900  0.357100  1.0
  C  C6828  1  0.319700  0.315100  0.857100  1.0
  C  C6829  1  0.180300  0.815100  0.857100  1.0
  C  C6830  1  0.319700  0.184900  0.357100  1.0
  C  C6831  1  0.819700  0.315100  0.642900  1.0
  C  C6832  1  0.680300  0.684900  0.142900  1.0
  C  C6833  1  0.803000  0.188400  0.138400  1.0
  C  C6834  1  0.697000  0.811600  0.638400  1.0
  C  C6835  1  0.197000  0.688400  0.361600  1.0
  C  C6836  1  0.303000  0.311600  0.861600  1.0
  C  C6837  1  0.197000  0.811600  0.861600  1.0
  C  C6838  1  0.303000  0.188400  0.361600  1.0
  C  C6839  1  0.803000  0.311600  0.638400  1.0
  C  C6840  1  0.697000  0.688400  0.138400  1.0
  C  C6841  1  0.802700  0.194800  0.129200  1.0
  C  C6842  1  0.697300  0.805200  0.629200  1.0
  C  C6843  1  0.197300  0.694800  0.370800  1.0
  C  C6844  1  0.302700  0.305200  0.870800  1.0
  C  C6845  1  0.197300  0.805200  0.870800  1.0
  C  C6846  1  0.302700  0.194800  0.370800  1.0
  C  C6847  1  0.802700  0.305200  0.629200  1.0
  C  C6848  1  0.697300  0.694800  0.129200  1.0
  C  C6849  1  0.834600  0.192700  0.128200  1.0
  C  C6850  1  0.665400  0.807300  0.628200  1.0
  C  C6851  1  0.165400  0.692700  0.371800  1.0
  C  C6852  1  0.334600  0.307300  0.871800  1.0
  C  C6853  1  0.165400  0.807300  0.871800  1.0
  C  C6854  1  0.334600  0.192700  0.371800  1.0
  C  C6855  1  0.834600  0.307300  0.628200  1.0
  C  C6856  1  0.665400  0.692700  0.128200  1.0
  C  C6857  1  0.835600  0.186700  0.137400  1.0
  C  C6858  1  0.664400  0.813300  0.637400  1.0
  C  C6859  1  0.164400  0.686700  0.362600  1.0
  C  C6860  1  0.335600  0.313300  0.862600  1.0
  C  C6861  1  0.164400  0.813300  0.862600  1.0
  C  C6862  1  0.335600  0.186700  0.362600  1.0
  C  C6863  1  0.835600  0.313300  0.637400  1.0
  C  C6864  1  0.664400  0.686700  0.137400  1.0
  C  C6865  1  0.728600  0.015900  0.174600  1.0
  C  C6866  1  0.771400  0.984100  0.674600  1.0
  C  C6867  1  0.271400  0.515900  0.325400  1.0
  C  C6868  1  0.228600  0.484100  0.825400  1.0
  C  C6869  1  0.271400  0.984100  0.825400  1.0
  C  C6870  1  0.228600  0.015900  0.325400  1.0
  C  C6871  1  0.728600  0.484100  0.674600  1.0
  C  C6872  1  0.771400  0.515900  0.174600  1.0
  C  C6873  1  0.716100  0.003900  0.170700  1.0
  C  C6874  1  0.783900  0.996100  0.670700  1.0
  C  C6875  1  0.283900  0.503900  0.329300  1.0
  C  C6876  1  0.216100  0.496100  0.829300  1.0
  C  C6877  1  0.283900  0.996100  0.829300  1.0
  C  C6878  1  0.216100  0.003900  0.329300  1.0
  C  C6879  1  0.716100  0.496100  0.670700  1.0
  C  C6880  1  0.783900  0.503900  0.170700  1.0
  C  C6881  1  0.695700  0.027400  0.167100  1.0
  C  C6882  1  0.804300  0.972600  0.667100  1.0
  C  C6883  1  0.304300  0.527400  0.332900  1.0
  C  C6884  1  0.195700  0.472600  0.832900  1.0
  C  C6885  1  0.304300  0.972600  0.832900  1.0
  C  C6886  1  0.195700  0.027400  0.332900  1.0
  C  C6887  1  0.695700  0.472600  0.667100  1.0
  C  C6888  1  0.804300  0.527400  0.167100  1.0
  C  C6889  1  0.707700  0.040000  0.171200  1.0
  C  C6890  1  0.792300  0.960000  0.671200  1.0
  C  C6891  1  0.292300  0.540000  0.328800  1.0
  C  C6892  1  0.207700  0.460000  0.828800  1.0
  C  C6893  1  0.292300  0.960000  0.828800  1.0
  C  C6894  1  0.207700  0.040000  0.328800  1.0
  C  C6895  1  0.707700  0.460000  0.671200  1.0
  C  C6896  1  0.792300  0.540000  0.171200  1.0
  C  C6897  1  0.724600  0.034800  0.175100  1.0
  C  C6898  1  0.775400  0.965200  0.675100  1.0
  C  C6899  1  0.275400  0.534800  0.324900  1.0
  C  C6900  1  0.224600  0.465200  0.824900  1.0
  C  C6901  1  0.275400  0.965200  0.824900  1.0
  C  C6902  1  0.224600  0.034800  0.324900  1.0
  C  C6903  1  0.724600  0.465200  0.675100  1.0
  C  C6904  1  0.775400  0.534800  0.175100  1.0
  C  C6905  1  0.737300  0.048700  0.179600  1.0
  C  C6906  1  0.762700  0.951300  0.679600  1.0
  C  C6907  1  0.262700  0.548700  0.320400  1.0
  C  C6908  1  0.237300  0.451300  0.820400  1.0
  C  C6909  1  0.262700  0.951300  0.820400  1.0
  C  C6910  1  0.237300  0.048700  0.320400  1.0
  C  C6911  1  0.737300  0.451300  0.679600  1.0
  C  C6912  1  0.762700  0.548700  0.179600  1.0
  C  C6913  1  0.755100  0.045800  0.182600  1.0
  C  C6914  1  0.744900  0.954200  0.682600  1.0
  C  C6915  1  0.244900  0.545800  0.317400  1.0
  C  C6916  1  0.255100  0.454200  0.817400  1.0
  C  C6917  1  0.244900  0.954200  0.817400  1.0
  C  C6918  1  0.255100  0.045800  0.317400  1.0
  C  C6919  1  0.755100  0.454200  0.682600  1.0
  C  C6920  1  0.744900  0.545800  0.182600  1.0
  C  C6921  1  0.765900  0.018000  0.189500  1.0
  C  C6922  1  0.734100  0.982000  0.689500  1.0
  C  C6923  1  0.234100  0.518000  0.310500  1.0
  C  C6924  1  0.265900  0.482000  0.810500  1.0
  C  C6925  1  0.234100  0.982000  0.810500  1.0
  C  C6926  1  0.265900  0.018000  0.310500  1.0
  C  C6927  1  0.765900  0.482000  0.689500  1.0
  C  C6928  1  0.734100  0.518000  0.189500  1.0
  C  C6929  1  0.784500  0.051200  0.198100  1.0
  C  C6930  1  0.715500  0.948800  0.698100  1.0
  C  C6931  1  0.215500  0.551200  0.301900  1.0
  C  C6932  1  0.284500  0.448800  0.801900  1.0
  C  C6933  1  0.215500  0.948800  0.801900  1.0
  C  C6934  1  0.284500  0.051200  0.301900  1.0
  C  C6935  1  0.784500  0.448800  0.698100  1.0
  C  C6936  1  0.715500  0.551200  0.198100  1.0
  C  C6937  1  0.763600  0.061200  0.186500  1.0
  C  C6938  1  0.736400  0.938800  0.686500  1.0
  C  C6939  1  0.236400  0.561200  0.313500  1.0
  C  C6940  1  0.263600  0.438800  0.813500  1.0
  C  C6941  1  0.236400  0.938800  0.813500  1.0
  C  C6942  1  0.263600  0.061200  0.313500  1.0
  C  C6943  1  0.763600  0.438800  0.686500  1.0
  C  C6944  1  0.736400  0.561200  0.186500  1.0
  C  C6945  1  0.752700  0.076800  0.186800  1.0
  C  C6946  1  0.747300  0.923200  0.686800  1.0
  C  C6947  1  0.247300  0.576800  0.313200  1.0
  C  C6948  1  0.252700  0.423200  0.813200  1.0
  C  C6949  1  0.247300  0.923200  0.813200  1.0
  C  C6950  1  0.252700  0.076800  0.313200  1.0
  C  C6951  1  0.752700  0.423200  0.686800  1.0
  C  C6952  1  0.747300  0.576800  0.186800  1.0
  C  C6953  1  0.756700  0.094900  0.191400  1.0
  C  C6954  1  0.743300  0.905100  0.691400  1.0
  C  C6955  1  0.243300  0.594900  0.308600  1.0
  C  C6956  1  0.256700  0.405100  0.808600  1.0
  C  C6957  1  0.243300  0.905100  0.808600  1.0
  C  C6958  1  0.256700  0.094900  0.308600  1.0
  C  C6959  1  0.756700  0.405100  0.691400  1.0
  C  C6960  1  0.743300  0.594900  0.191400  1.0
  C  C6961  1  0.745200  0.110100  0.189600  1.0
  C  C6962  1  0.754800  0.889900  0.689600  1.0
  C  C6963  1  0.254800  0.610100  0.310400  1.0
  C  C6964  1  0.245200  0.389900  0.810400  1.0
  C  C6965  1  0.254800  0.889900  0.810400  1.0
  C  C6966  1  0.245200  0.110100  0.310400  1.0
  C  C6967  1  0.745200  0.389900  0.689600  1.0
  C  C6968  1  0.754800  0.610100  0.189600  1.0
  C  C6969  1  0.748400  0.126800  0.194000  1.0
  C  C6970  1  0.751600  0.873200  0.694000  1.0
  C  C6971  1  0.251600  0.626800  0.306000  1.0
  C  C6972  1  0.248400  0.373200  0.806000  1.0
  C  C6973  1  0.251600  0.873200  0.806000  1.0
  C  C6974  1  0.248400  0.126800  0.306000  1.0
  C  C6975  1  0.748400  0.373200  0.694000  1.0
  C  C6976  1  0.751600  0.626800  0.194000  1.0
  C  C6977  1  0.773800  0.115400  0.201800  1.0
  C  C6978  1  0.726200  0.884600  0.701800  1.0
  C  C6979  1  0.226200  0.615400  0.298200  1.0
  C  C6980  1  0.273800  0.384600  0.798200  1.0
  C  C6981  1  0.226200  0.884600  0.798200  1.0
  C  C6982  1  0.273800  0.115400  0.298200  1.0
  C  C6983  1  0.773800  0.384600  0.701800  1.0
  C  C6984  1  0.726200  0.615400  0.201800  1.0
  C  C6985  1  0.771200  0.098300  0.197700  1.0
  C  C6986  1  0.728800  0.901700  0.697700  1.0
  C  C6987  1  0.228800  0.598300  0.302300  1.0
  C  C6988  1  0.271200  0.401700  0.802300  1.0
  C  C6989  1  0.228800  0.901700  0.802300  1.0
  C  C6990  1  0.271200  0.098300  0.302300  1.0
  C  C6991  1  0.771200  0.401700  0.697700  1.0
  C  C6992  1  0.728800  0.598300  0.197700  1.0
  C  C6993  1  0.743600  0.130800  0.230100  1.0
  C  C6994  1  0.756400  0.869200  0.730100  1.0
  C  C6995  1  0.256400  0.630800  0.269900  1.0
  C  C6996  1  0.243600  0.369200  0.769900  1.0
  C  C6997  1  0.256400  0.869200  0.769900  1.0
  C  C6998  1  0.243600  0.130800  0.269900  1.0
  C  C6999  1  0.743600  0.369200  0.730100  1.0
  C  C7000  1  0.756400  0.630800  0.230100  1.0
  C  C7001  1  0.754800  0.138600  0.223300  1.0
  C  C7002  1  0.745200  0.861400  0.723300  1.0
  C  C7003  1  0.245200  0.638600  0.276700  1.0
  C  C7004  1  0.254800  0.361400  0.776700  1.0
  C  C7005  1  0.245200  0.861400  0.776700  1.0
  C  C7006  1  0.254800  0.138600  0.276700  1.0
  C  C7007  1  0.754800  0.361400  0.723300  1.0
  C  C7008  1  0.745200  0.638600  0.223300  1.0
  C  C7009  1  0.730100  0.145700  0.213800  1.0
  C  C7010  1  0.769900  0.854300  0.713800  1.0
  C  C7011  1  0.269900  0.645700  0.286200  1.0
  C  C7012  1  0.230100  0.354300  0.786200  1.0
  C  C7013  1  0.269900  0.854300  0.786200  1.0
  C  C7014  1  0.230100  0.145700  0.286200  1.0
  C  C7015  1  0.730100  0.354300  0.713800  1.0
  C  C7016  1  0.769900  0.645700  0.213800  1.0
  C  C7017  1  0.718200  0.137800  0.220300  1.0
  C  C7018  1  0.781800  0.862200  0.720300  1.0
  C  C7019  1  0.281800  0.637800  0.279700  1.0
  C  C7020  1  0.218200  0.362200  0.779700  1.0
  C  C7021  1  0.281800  0.862200  0.779700  1.0
  C  C7022  1  0.218200  0.137800  0.279700  1.0
  C  C7023  1  0.718200  0.362200  0.720300  1.0
  C  C7024  1  0.781800  0.637800  0.220300  1.0
  C  C7025  1  0.724400  0.129800  0.228700  1.0
  C  C7026  1  0.775600  0.870200  0.728700  1.0
  C  C7027  1  0.275600  0.629800  0.271300  1.0
  C  C7028  1  0.224400  0.370200  0.771300  1.0
  C  C7029  1  0.275600  0.870200  0.771300  1.0
  C  C7030  1  0.224400  0.129800  0.271300  1.0
  C  C7031  1  0.724400  0.370200  0.728700  1.0
  C  C7032  1  0.775600  0.629800  0.228700  1.0
  C  C7033  1  0.711500  0.119400  0.235100  1.0
  C  C7034  1  0.788500  0.880600  0.735100  1.0
  C  C7035  1  0.288500  0.619400  0.264900  1.0
  C  C7036  1  0.211500  0.380600  0.764900  1.0
  C  C7037  1  0.288500  0.880600  0.764900  1.0
  C  C7038  1  0.211500  0.119400  0.264900  1.0
  C  C7039  1  0.711500  0.380600  0.735100  1.0
  C  C7040  1  0.788500  0.619400  0.235100  1.0
  C  C7041  1  0.715500  0.111600  0.243700  1.0
  C  C7042  1  0.784500  0.888400  0.743700  1.0
  C  C7043  1  0.284500  0.611600  0.256300  1.0
  C  C7044  1  0.215500  0.388400  0.756300  1.0
  C  C7045  1  0.284500  0.888400  0.756300  1.0
  C  C7046  1  0.215500  0.111600  0.256300  1.0
  C  C7047  1  0.715500  0.388400  0.743700  1.0
  C  C7048  1  0.784500  0.611600  0.243700  1.0
  C  C7049  1  0.736100  0.126500  0.253900  1.0
  C  C7050  1  0.763900  0.873500  0.753900  1.0
  C  C7051  1  0.263900  0.626500  0.246100  1.0
  C  C7052  1  0.236100  0.373500  0.746100  1.0
  C  C7053  1  0.263900  0.873500  0.746100  1.0
  C  C7054  1  0.236100  0.126500  0.246100  1.0
  C  C7055  1  0.736100  0.373500  0.753900  1.0
  C  C7056  1  0.763900  0.626500  0.253900  1.0
  C  C7057  1  0.712000  0.080000  0.258300  1.0
  C  C7058  1  0.788000  0.920000  0.758300  1.0
  C  C7059  1  0.288000  0.580000  0.241700  1.0
  C  C7060  1  0.212000  0.420000  0.741700  1.0
  C  C7061  1  0.288000  0.920000  0.741700  1.0
  C  C7062  1  0.212000  0.080000  0.241700  1.0
  C  C7063  1  0.712000  0.420000  0.758300  1.0
  C  C7064  1  0.788000  0.580000  0.258300  1.0
  C  C7065  1  0.700600  0.103400  0.248200  1.0
  C  C7066  1  0.799400  0.896600  0.748200  1.0
  C  C7067  1  0.299400  0.603400  0.251800  1.0
  C  C7068  1  0.200600  0.396600  0.751800  1.0
  C  C7069  1  0.299400  0.896600  0.751800  1.0
  C  C7070  1  0.200600  0.103400  0.251800  1.0
  C  C7071  1  0.700600  0.396600  0.748200  1.0
  C  C7072  1  0.799400  0.603400  0.248200  1.0
  C  C7073  1  0.684300  0.104000  0.243200  1.0
  C  C7074  1  0.815700  0.896000  0.743200  1.0
  C  C7075  1  0.315700  0.604000  0.256800  1.0
  C  C7076  1  0.184300  0.396000  0.756800  1.0
  C  C7077  1  0.315700  0.896000  0.756800  1.0
  C  C7078  1  0.184300  0.104000  0.256800  1.0
  C  C7079  1  0.684300  0.396000  0.743200  1.0
  C  C7080  1  0.815700  0.604000  0.243200  1.0
  C  C7081  1  0.666000  0.095100  0.245200  1.0
  C  C7082  1  0.834000  0.904900  0.745200  1.0
  C  C7083  1  0.334000  0.595100  0.254800  1.0
  C  C7084  1  0.166000  0.404900  0.754800  1.0
  C  C7085  1  0.334000  0.904900  0.754800  1.0
  C  C7086  1  0.166000  0.095100  0.254800  1.0
  C  C7087  1  0.666000  0.404900  0.745200  1.0
  C  C7088  1  0.834000  0.595100  0.245200  1.0
  C  C7089  1  0.650500  0.100800  0.240100  1.0
  C  C7090  1  0.849500  0.899200  0.740100  1.0
  C  C7091  1  0.349500  0.600800  0.259900  1.0
  C  C7092  1  0.150500  0.399200  0.759900  1.0
  C  C7093  1  0.349500  0.899200  0.759900  1.0
  C  C7094  1  0.150500  0.100800  0.259900  1.0
  C  C7095  1  0.650500  0.399200  0.740100  1.0
  C  C7096  1  0.849500  0.600800  0.240100  1.0
  C  C7097  1  0.633400  0.092900  0.241900  1.0
  C  C7098  1  0.866600  0.907100  0.741900  1.0
  C  C7099  1  0.366600  0.592900  0.258100  1.0
  C  C7100  1  0.133400  0.407100  0.758100  1.0
  C  C7101  1  0.366600  0.907100  0.758100  1.0
  C  C7102  1  0.133400  0.092900  0.258100  1.0
  C  C7103  1  0.633400  0.407100  0.741900  1.0
  C  C7104  1  0.866600  0.592900  0.241900  1.0
  C  C7105  1  0.645900  0.073800  0.253300  1.0
  C  C7106  1  0.854100  0.926200  0.753300  1.0
  C  C7107  1  0.354100  0.573800  0.246700  1.0
  C  C7108  1  0.145900  0.426200  0.746700  1.0
  C  C7109  1  0.354100  0.926200  0.746700  1.0
  C  C7110  1  0.145900  0.073800  0.246700  1.0
  C  C7111  1  0.645900  0.426200  0.753300  1.0
  C  C7112  1  0.854100  0.573800  0.253300  1.0
  C  C7113  1  0.663100  0.081500  0.252000  1.0
  C  C7114  1  0.836900  0.918500  0.752000  1.0
  C  C7115  1  0.336900  0.581500  0.248000  1.0
  C  C7116  1  0.163100  0.418500  0.748000  1.0
  C  C7117  1  0.336900  0.918500  0.748000  1.0
  C  C7118  1  0.163100  0.081500  0.248000  1.0
  C  C7119  1  0.663100  0.418500  0.752000  1.0
  C  C7120  1  0.836900  0.581500  0.252000  1.0
  C  C7121  1  0.748500  0.295600  0.235400  1.0
  C  C7122  1  0.751500  0.704400  0.735400  1.0
  C  C7123  1  0.251500  0.795600  0.264600  1.0
  C  C7124  1  0.248500  0.204400  0.764600  1.0
  C  C7125  1  0.251500  0.704400  0.764600  1.0
  C  C7126  1  0.248500  0.295600  0.264600  1.0
  C  C7127  1  0.748500  0.204400  0.735400  1.0
  C  C7128  1  0.751500  0.795600  0.235400  1.0
  C  C7129  1  0.738400  0.311700  0.236600  1.0
  C  C7130  1  0.761600  0.688300  0.736600  1.0
  C  C7131  1  0.261600  0.811700  0.263400  1.0
  C  C7132  1  0.238400  0.188300  0.763400  1.0
  C  C7133  1  0.261600  0.688300  0.763400  1.0
  C  C7134  1  0.238400  0.311700  0.263400  1.0
  C  C7135  1  0.738400  0.188300  0.736600  1.0
  C  C7136  1  0.761600  0.811700  0.236600  1.0
  C  C7137  1  0.714400  0.299500  0.227900  1.0
  C  C7138  1  0.785600  0.700500  0.727900  1.0
  C  C7139  1  0.285600  0.799500  0.272100  1.0
  C  C7140  1  0.214400  0.200500  0.772100  1.0
  C  C7141  1  0.285600  0.700500  0.772100  1.0
  C  C7142  1  0.214400  0.299500  0.272100  1.0
  C  C7143  1  0.714400  0.200500  0.727900  1.0
  C  C7144  1  0.785600  0.799500  0.227900  1.0
  C  C7145  1  0.724000  0.283400  0.226200  1.0
  C  C7146  1  0.776000  0.716600  0.726200  1.0
  C  C7147  1  0.276000  0.783400  0.273800  1.0
  C  C7148  1  0.224000  0.216600  0.773800  1.0
  C  C7149  1  0.276000  0.716600  0.773800  1.0
  C  C7150  1  0.224000  0.283400  0.273800  1.0
  C  C7151  1  0.724000  0.216600  0.726200  1.0
  C  C7152  1  0.776000  0.783400  0.226200  1.0
  C  C7153  1  0.741400  0.280800  0.230200  1.0
  C  C7154  1  0.758600  0.719200  0.730200  1.0
  C  C7155  1  0.258600  0.780800  0.269800  1.0
  C  C7156  1  0.241400  0.219200  0.769800  1.0
  C  C7157  1  0.258600  0.719200  0.769800  1.0
  C  C7158  1  0.241400  0.280800  0.269800  1.0
  C  C7159  1  0.741400  0.219200  0.730200  1.0
  C  C7160  1  0.758600  0.780800  0.230200  1.0
  C  C7161  1  0.751500  0.263100  0.228700  1.0
  C  C7162  1  0.748500  0.736900  0.728700  1.0
  C  C7163  1  0.248500  0.763100  0.271300  1.0
  C  C7164  1  0.251500  0.236900  0.771300  1.0
  C  C7165  1  0.248500  0.736900  0.771300  1.0
  C  C7166  1  0.251500  0.263100  0.271300  1.0
  C  C7167  1  0.751500  0.236900  0.728700  1.0
  C  C7168  1  0.748500  0.763100  0.228700  1.0
  C  C7169  1  0.769000  0.258300  0.231400  1.0
  C  C7170  1  0.731000  0.741700  0.731400  1.0
  C  C7171  1  0.231000  0.758300  0.268600  1.0
  C  C7172  1  0.269000  0.241700  0.768600  1.0
  C  C7173  1  0.231000  0.741700  0.768600  1.0
  C  C7174  1  0.269000  0.258300  0.268600  1.0
  C  C7175  1  0.769000  0.241700  0.731400  1.0
  C  C7176  1  0.731000  0.758300  0.231400  1.0
  C  C7177  1  0.781400  0.263900  0.246300  1.0
  C  C7178  1  0.718600  0.736100  0.746300  1.0
  C  C7179  1  0.218600  0.763900  0.253700  1.0
  C  C7180  1  0.281400  0.236100  0.753700  1.0
  C  C7181  1  0.218600  0.736100  0.753700  1.0
  C  C7182  1  0.281400  0.263900  0.253700  1.0
  C  C7183  1  0.781400  0.236100  0.746300  1.0
  C  C7184  1  0.718600  0.763900  0.246300  1.0
  C  C7185  1  0.807600  0.242700  0.227700  1.0
  C  C7186  1  0.692400  0.757300  0.727700  1.0
  C  C7187  1  0.192400  0.742700  0.272300  1.0
  C  C7188  1  0.307600  0.257300  0.772300  1.0
  C  C7189  1  0.192400  0.757300  0.772300  1.0
  C  C7190  1  0.307600  0.242700  0.272300  1.0
  C  C7191  1  0.807600  0.257300  0.727700  1.0
  C  C7192  1  0.692400  0.742700  0.227700  1.0
  C  C7193  1  0.774900  0.241000  0.228300  1.0
  C  C7194  1  0.725100  0.759000  0.728300  1.0
  C  C7195  1  0.225100  0.741000  0.271700  1.0
  C  C7196  1  0.274900  0.259000  0.771700  1.0
  C  C7197  1  0.225100  0.759000  0.771700  1.0
  C  C7198  1  0.274900  0.241000  0.271700  1.0
  C  C7199  1  0.774900  0.259000  0.728300  1.0
  C  C7200  1  0.725100  0.741000  0.228300  1.0
  C  C7201  1  0.762200  0.231900  0.222800  1.0
  C  C7202  1  0.737800  0.768100  0.722800  1.0
  C  C7203  1  0.237800  0.731900  0.277200  1.0
  C  C7204  1  0.262200  0.268100  0.777200  1.0
  C  C7205  1  0.237800  0.768100  0.777200  1.0
  C  C7206  1  0.262200  0.231900  0.277200  1.0
  C  C7207  1  0.762200  0.268100  0.722800  1.0
  C  C7208  1  0.737800  0.731900  0.222800  1.0
  C  C7209  1  0.764100  0.213300  0.218300  1.0
  C  C7210  1  0.735900  0.786700  0.718300  1.0
  C  C7211  1  0.235900  0.713300  0.281700  1.0
  C  C7212  1  0.264100  0.286700  0.781700  1.0
  C  C7213  1  0.235900  0.786700  0.781700  1.0
  C  C7214  1  0.264100  0.213300  0.281700  1.0
  C  C7215  1  0.764100  0.286700  0.718300  1.0
  C  C7216  1  0.735900  0.713300  0.218300  1.0
  C  C7217  1  0.748900  0.204700  0.214000  1.0
  C  C7218  1  0.751100  0.795300  0.714000  1.0
  C  C7219  1  0.251100  0.704700  0.286000  1.0
  C  C7220  1  0.248900  0.295300  0.786000  1.0
  C  C7221  1  0.251100  0.795300  0.786000  1.0
  C  C7222  1  0.248900  0.204700  0.286000  1.0
  C  C7223  1  0.748900  0.295300  0.714000  1.0
  C  C7224  1  0.751100  0.704700  0.214000  1.0
  C  C7225  1  0.749800  0.186800  0.210600  1.0
  C  C7226  1  0.750200  0.813200  0.710600  1.0
  C  C7227  1  0.250200  0.686800  0.289400  1.0
  C  C7228  1  0.249800  0.313200  0.789400  1.0
  C  C7229  1  0.250200  0.813200  0.789400  1.0
  C  C7230  1  0.249800  0.186800  0.289400  1.0
  C  C7231  1  0.749800  0.313200  0.710600  1.0
  C  C7232  1  0.750200  0.686800  0.210600  1.0
  C  C7233  1  0.780500  0.185000  0.214800  1.0
  C  C7234  1  0.719500  0.815000  0.714800  1.0
  C  C7235  1  0.219500  0.685000  0.285200  1.0
  C  C7236  1  0.280500  0.315000  0.785200  1.0
  C  C7237  1  0.219500  0.815000  0.785200  1.0
  C  C7238  1  0.280500  0.185000  0.285200  1.0
  C  C7239  1  0.780500  0.315000  0.714800  1.0
  C  C7240  1  0.719500  0.685000  0.214800  1.0
  C  C7241  1  0.780300  0.202600  0.218600  1.0
  C  C7242  1  0.719700  0.797400  0.718600  1.0
  C  C7243  1  0.219700  0.702600  0.281400  1.0
  C  C7244  1  0.280300  0.297400  0.781400  1.0
  C  C7245  1  0.219700  0.797400  0.781400  1.0
  C  C7246  1  0.280300  0.202600  0.281400  1.0
  C  C7247  1  0.780300  0.297400  0.718600  1.0
  C  C7248  1  0.719700  0.702600  0.218600  1.0
  C  C7249  1  0.607900  0.276500  0.285800  1.0
  C  C7250  1  0.892100  0.723500  0.785800  1.0
  C  C7251  1  0.392100  0.776500  0.214200  1.0
  C  C7252  1  0.107900  0.223500  0.714200  1.0
  C  C7253  1  0.392100  0.723500  0.714200  1.0
  C  C7254  1  0.107900  0.276500  0.214200  1.0
  C  C7255  1  0.607900  0.223500  0.785800  1.0
  C  C7256  1  0.892100  0.776500  0.285800  1.0
  C  C7257  1  0.591400  0.267900  0.287900  1.0
  C  C7258  1  0.908600  0.732100  0.787900  1.0
  C  C7259  1  0.408600  0.767900  0.212100  1.0
  C  C7260  1  0.091400  0.232100  0.712100  1.0
  C  C7261  1  0.408600  0.732100  0.712100  1.0
  C  C7262  1  0.091400  0.267900  0.212100  1.0
  C  C7263  1  0.591400  0.232100  0.787900  1.0
  C  C7264  1  0.908600  0.767900  0.287900  1.0
  C  C7265  1  0.583600  0.265900  0.272100  1.0
  C  C7266  1  0.916400  0.734100  0.772100  1.0
  C  C7267  1  0.416400  0.765900  0.227900  1.0
  C  C7268  1  0.083600  0.234100  0.727900  1.0
  C  C7269  1  0.416400  0.734100  0.727900  1.0
  C  C7270  1  0.083600  0.265900  0.227900  1.0
  C  C7271  1  0.583600  0.234100  0.772100  1.0
  C  C7272  1  0.916400  0.765900  0.272100  1.0
  C  C7273  1  0.600100  0.274100  0.269600  1.0
  C  C7274  1  0.899900  0.725900  0.769600  1.0
  C  C7275  1  0.399900  0.774100  0.230400  1.0
  C  C7276  1  0.100100  0.225900  0.730400  1.0
  C  C7277  1  0.399900  0.725900  0.730400  1.0
  C  C7278  1  0.100100  0.274100  0.230400  1.0
  C  C7279  1  0.600100  0.225900  0.769600  1.0
  C  C7280  1  0.899900  0.774100  0.269600  1.0
  C  C7281  1  0.612600  0.279900  0.276500  1.0
  C  C7282  1  0.887400  0.720100  0.776500  1.0
  C  C7283  1  0.387400  0.779900  0.223500  1.0
  C  C7284  1  0.112600  0.220100  0.723500  1.0
  C  C7285  1  0.387400  0.720100  0.723500  1.0
  C  C7286  1  0.112600  0.279900  0.223500  1.0
  C  C7287  1  0.612600  0.220100  0.776500  1.0
  C  C7288  1  0.887400  0.779900  0.276500  1.0
  C  C7289  1  0.630100  0.289100  0.273560  1.0
  C  C7290  1  0.869900  0.710900  0.773560  1.0
  C  C7291  1  0.369900  0.789100  0.226440  1.0
  C  C7292  1  0.130100  0.210900  0.726440  1.0
  C  C7293  1  0.369900  0.710900  0.726440  1.0
  C  C7294  1  0.130100  0.289100  0.226440  1.0
  C  C7295  1  0.630100  0.210900  0.773560  1.0
  C  C7296  1  0.869900  0.789100  0.273560  1.0
  C  C7297  1  0.643800  0.296000  0.279200  1.0
  C  C7298  1  0.856200  0.704000  0.779200  1.0
  C  C7299  1  0.356200  0.796000  0.220800  1.0
  C  C7300  1  0.143800  0.204000  0.720800  1.0
  C  C7301  1  0.356200  0.704000  0.720800  1.0
  C  C7302  1  0.143800  0.296000  0.220800  1.0
  C  C7303  1  0.643800  0.204000  0.779200  1.0
  C  C7304  1  0.856200  0.796000  0.279200  1.0
  C  C7305  1  0.655700  0.283500  0.293100  1.0
  C  C7306  1  0.844300  0.716500  0.793100  1.0
  C  C7307  1  0.344300  0.783500  0.206900  1.0
  C  C7308  1  0.155700  0.216500  0.706900  1.0
  C  C7309  1  0.344300  0.716500  0.706900  1.0
  C  C7310  1  0.155700  0.283500  0.206900  1.0
  C  C7311  1  0.655700  0.216500  0.793100  1.0
  C  C7312  1  0.844300  0.783500  0.293100  1.0
  C  C7313  1  0.672300  0.325200  0.284600  1.0
  C  C7314  1  0.827700  0.674800  0.784600  1.0
  C  C7315  1  0.327700  0.825200  0.215400  1.0
  C  C7316  1  0.172300  0.174800  0.715400  1.0
  C  C7317  1  0.327700  0.674800  0.715400  1.0
  C  C7318  1  0.172300  0.325200  0.215400  1.0
  C  C7319  1  0.672300  0.174800  0.784600  1.0
  C  C7320  1  0.827700  0.825200  0.284600  1.0
  C  C7321  1  0.658700  0.303400  0.274300  1.0
  C  C7322  1  0.841300  0.696600  0.774300  1.0
  C  C7323  1  0.341300  0.803400  0.225700  1.0
  C  C7324  1  0.158700  0.196600  0.725700  1.0
  C  C7325  1  0.341300  0.696600  0.725700  1.0
  C  C7326  1  0.158700  0.303400  0.225700  1.0
  C  C7327  1  0.658700  0.196600  0.774300  1.0
  C  C7328  1  0.841300  0.803400  0.274300  1.0
  C  C7329  1  0.656800  0.302900  0.264700  1.0
  C  C7330  1  0.843200  0.697100  0.764700  1.0
  C  C7331  1  0.343200  0.802900  0.235300  1.0
  C  C7332  1  0.156800  0.197100  0.735300  1.0
  C  C7333  1  0.343200  0.697100  0.735300  1.0
  C  C7334  1  0.156800  0.302900  0.235300  1.0
  C  C7335  1  0.656800  0.197100  0.764700  1.0
  C  C7336  1  0.843200  0.802900  0.264700  1.0
  C  C7337  1  0.669400  0.311100  0.257500  1.0
  C  C7338  1  0.830600  0.688900  0.757500  1.0
  C  C7339  1  0.330600  0.811100  0.242500  1.0
  C  C7340  1  0.169400  0.188900  0.742500  1.0
  C  C7341  1  0.330600  0.688900  0.742500  1.0
  C  C7342  1  0.169400  0.311100  0.242500  1.0
  C  C7343  1  0.669400  0.188900  0.757500  1.0
  C  C7344  1  0.830600  0.811100  0.257500  1.0
  C  C7345  1  0.664700  0.310600  0.248000  1.0
  C  C7346  1  0.835300  0.689400  0.748000  1.0
  C  C7347  1  0.335300  0.810600  0.252000  1.0
  C  C7348  1  0.164700  0.189400  0.752000  1.0
  C  C7349  1  0.335300  0.689400  0.752000  1.0
  C  C7350  1  0.164700  0.310600  0.252000  1.0
  C  C7351  1  0.664700  0.189400  0.748000  1.0
  C  C7352  1  0.835300  0.810600  0.248000  1.0
  C  C7353  1  0.676400  0.318400  0.241400  1.0
  C  C7354  1  0.823600  0.681600  0.741400  1.0
  C  C7355  1  0.323600  0.818400  0.258600  1.0
  C  C7356  1  0.176400  0.181600  0.758600  1.0
  C  C7357  1  0.323600  0.681600  0.758600  1.0
  C  C7358  1  0.176400  0.318400  0.258600  1.0
  C  C7359  1  0.676400  0.181600  0.741400  1.0
  C  C7360  1  0.823600  0.818400  0.241400  1.0
  C  C7361  1  0.697300  0.327000  0.252800  1.0
  C  C7362  1  0.802700  0.673000  0.752800  1.0
  C  C7363  1  0.302700  0.827000  0.247200  1.0
  C  C7364  1  0.197300  0.173000  0.747200  1.0
  C  C7365  1  0.302700  0.673000  0.747200  1.0
  C  C7366  1  0.197300  0.327000  0.247200  1.0
  C  C7367  1  0.697300  0.173000  0.752800  1.0
  C  C7368  1  0.802700  0.827000  0.252800  1.0
  C  C7369  1  0.686300  0.319500  0.259700  1.0
  C  C7370  1  0.813700  0.680500  0.759700  1.0
  C  C7371  1  0.313700  0.819500  0.240300  1.0
  C  C7372  1  0.186300  0.180500  0.740300  1.0
  C  C7373  1  0.313700  0.680500  0.740300  1.0
  C  C7374  1  0.186300  0.319500  0.240300  1.0
  C  C7375  1  0.686300  0.180500  0.759700  1.0
  C  C7376  1  0.813700  0.819500  0.259700  1.0
  C  C7377  1  0.687300  0.387300  0.242400  1.0
  C  C7378  1  0.812700  0.612700  0.742400  1.0
  C  C7379  1  0.312700  0.887300  0.257600  1.0
  C  C7380  1  0.187300  0.112700  0.757600  1.0
  C  C7381  1  0.312700  0.612700  0.757600  1.0
  C  C7382  1  0.187300  0.387300  0.257600  1.0
  C  C7383  1  0.687300  0.112700  0.742400  1.0
  C  C7384  1  0.812700  0.887300  0.242400  1.0
  C  C7385  1  0.697500  0.371300  0.241300  1.0
  C  C7386  1  0.802500  0.628700  0.741300  1.0
  C  C7387  1  0.302500  0.871300  0.258700  1.0
  C  C7388  1  0.197500  0.128700  0.758700  1.0
  C  C7389  1  0.302500  0.628700  0.758700  1.0
  C  C7390  1  0.197500  0.371300  0.258700  1.0
  C  C7391  1  0.697500  0.128700  0.741300  1.0
  C  C7392  1  0.802500  0.871300  0.241300  1.0
  C  C7393  1  0.680000  0.362800  0.228400  1.0
  C  C7394  1  0.820000  0.637200  0.728400  1.0
  C  C7395  1  0.320000  0.862800  0.271600  1.0
  C  C7396  1  0.180000  0.137200  0.771600  1.0
  C  C7397  1  0.320000  0.637200  0.771600  1.0
  C  C7398  1  0.180000  0.362800  0.271600  1.0
  C  C7399  1  0.680000  0.137200  0.728400  1.0
  C  C7400  1  0.820000  0.862800  0.228400  1.0
  C  C7401  1  0.669200  0.378400  0.229300  1.0
  C  C7402  1  0.830800  0.621600  0.729300  1.0
  C  C7403  1  0.330800  0.878400  0.270700  1.0
  C  C7404  1  0.169200  0.121600  0.770700  1.0
  C  C7405  1  0.330800  0.621600  0.770700  1.0
  C  C7406  1  0.169200  0.378400  0.270700  1.0
  C  C7407  1  0.669200  0.121600  0.729300  1.0
  C  C7408  1  0.830800  0.878400  0.229300  1.0
  C  C7409  1  0.672800  0.391500  0.236300  1.0
  C  C7410  1  0.827200  0.608500  0.736300  1.0
  C  C7411  1  0.327200  0.891500  0.263700  1.0
  C  C7412  1  0.172800  0.108500  0.763700  1.0
  C  C7413  1  0.327200  0.608500  0.763700  1.0
  C  C7414  1  0.172800  0.391500  0.263700  1.0
  C  C7415  1  0.672800  0.108500  0.736300  1.0
  C  C7416  1  0.827200  0.891500  0.236300  1.0
  C  C7417  1  0.661000  0.408300  0.237100  1.0
  C  C7418  1  0.839000  0.591700  0.737100  1.0
  C  C7419  1  0.339000  0.908300  0.262900  1.0
  C  C7420  1  0.161000  0.091700  0.762900  1.0
  C  C7421  1  0.339000  0.591700  0.762900  1.0
  C  C7422  1  0.161000  0.408300  0.262900  1.0
  C  C7423  1  0.661000  0.091700  0.737100  1.0
  C  C7424  1  0.839000  0.908300  0.237100  1.0
  C  C7425  1  0.661800  0.422200  0.243600  1.0
  C  C7426  1  0.838200  0.577800  0.743600  1.0
  C  C7427  1  0.338200  0.922200  0.256400  1.0
  C  C7428  1  0.161800  0.077800  0.756400  1.0
  C  C7429  1  0.338200  0.577800  0.756400  1.0
  C  C7430  1  0.161800  0.422200  0.256400  1.0
  C  C7431  1  0.661800  0.077800  0.743600  1.0
  C  C7432  1  0.838200  0.922200  0.243600  1.0
  C  C7433  1  0.690200  0.432400  0.249900  1.0
  C  C7434  1  0.809800  0.567600  0.749900  1.0
  C  C7435  1  0.309800  0.932400  0.250100  1.0
  C  C7436  1  0.190200  0.067600  0.750100  1.0
  C  C7437  1  0.309800  0.567600  0.750100  1.0
  C  C7438  1  0.190200  0.432400  0.250100  1.0
  C  C7439  1  0.690200  0.067600  0.749900  1.0
  C  C7440  1  0.809800  0.932400  0.249900  1.0
  C  C7441  1  0.639300  0.448400  0.256400  1.0
  C  C7442  1  0.860700  0.551600  0.756400  1.0
  C  C7443  1  0.360700  0.948400  0.243600  1.0
  C  C7444  1  0.139300  0.051600  0.743600  1.0
  C  C7445  1  0.360700  0.551600  0.743600  1.0
  C  C7446  1  0.139300  0.448400  0.243600  1.0
  C  C7447  1  0.639300  0.051600  0.756400  1.0
  C  C7448  1  0.860700  0.948400  0.256400  1.0
  C  C7449  1  0.649300  0.436400  0.242100  1.0
  C  C7450  1  0.850700  0.563600  0.742100  1.0
  C  C7451  1  0.350700  0.936400  0.257900  1.0
  C  C7452  1  0.149300  0.063600  0.757900  1.0
  C  C7453  1  0.350700  0.563600  0.757900  1.0
  C  C7454  1  0.149300  0.436400  0.257900  1.0
  C  C7455  1  0.649300  0.063600  0.742100  1.0
  C  C7456  1  0.850700  0.936400  0.242100  1.0
  C  C7457  1  0.637700  0.433800  0.234600  1.0
  C  C7458  1  0.862300  0.566200  0.734600  1.0
  C  C7459  1  0.362300  0.933800  0.265400  1.0
  C  C7460  1  0.137700  0.066200  0.765400  1.0
  C  C7461  1  0.362300  0.566200  0.765400  1.0
  C  C7462  1  0.137700  0.433800  0.265400  1.0
  C  C7463  1  0.637700  0.066200  0.734600  1.0
  C  C7464  1  0.862300  0.933800  0.234600  1.0
  C  C7465  1  0.622500  0.446200  0.231400  1.0
  C  C7466  1  0.877500  0.553800  0.731400  1.0
  C  C7467  1  0.377500  0.946200  0.268600  1.0
  C  C7468  1  0.122500  0.053800  0.768600  1.0
  C  C7469  1  0.377500  0.553800  0.768600  1.0
  C  C7470  1  0.122500  0.446200  0.268600  1.0
  C  C7471  1  0.622500  0.053800  0.731400  1.0
  C  C7472  1  0.877500  0.946200  0.231400  1.0
  C  C7473  1  0.611300  0.440900  0.223900  1.0
  C  C7474  1  0.888700  0.559100  0.723900  1.0
  C  C7475  1  0.388700  0.940900  0.276100  1.0
  C  C7476  1  0.111300  0.059100  0.776100  1.0
  C  C7477  1  0.388700  0.559100  0.776100  1.0
  C  C7478  1  0.111300  0.440900  0.276100  1.0
  C  C7479  1  0.611300  0.059100  0.723900  1.0
  C  C7480  1  0.888700  0.940900  0.223900  1.0
  C  C7481  1  0.597700  0.452700  0.220600  1.0
  C  C7482  1  0.902300  0.547300  0.720600  1.0
  C  C7483  1  0.402300  0.952700  0.279400  1.0
  C  C7484  1  0.097700  0.047300  0.779400  1.0
  C  C7485  1  0.402300  0.547300  0.779400  1.0
  C  C7486  1  0.097700  0.452700  0.279400  1.0
  C  C7487  1  0.597700  0.047300  0.720600  1.0
  C  C7488  1  0.902300  0.952700  0.220600  1.0
  C  C7489  1  0.605000  0.474500  0.232000  1.0
  C  C7490  1  0.895000  0.525500  0.732000  1.0
  C  C7491  1  0.395000  0.974500  0.268000  1.0
  C  C7492  1  0.105000  0.025500  0.768000  1.0
  C  C7493  1  0.395000  0.525500  0.768000  1.0
  C  C7494  1  0.105000  0.474500  0.268000  1.0
  C  C7495  1  0.605000  0.025500  0.732000  1.0
  C  C7496  1  0.895000  0.974500  0.232000  1.0
  C  C7497  1  0.618900  0.463300  0.235500  1.0
  C  C7498  1  0.881100  0.536700  0.735500  1.0
  C  C7499  1  0.381100  0.963300  0.264500  1.0
  C  C7500  1  0.118900  0.036700  0.764500  1.0
  C  C7501  1  0.381100  0.536700  0.764500  1.0
  C  C7502  1  0.118900  0.463300  0.264500  1.0
  C  C7503  1  0.618900  0.036700  0.735500  1.0
  C  C7504  1  0.881100  0.963300  0.235500  1.0
  C  C7505  1  0.610000  0.518300  0.203400  1.0
  C  C7506  1  0.890000  0.481700  0.703400  1.0
  C  C7507  1  0.390000  0.018300  0.296600  1.0
  C  C7508  1  0.110000  0.981700  0.796600  1.0
  C  C7509  1  0.390000  0.481700  0.796600  1.0
  C  C7510  1  0.110000  0.518300  0.296600  1.0
  C  C7511  1  0.610000  0.981700  0.703400  1.0
  C  C7512  1  0.890000  0.018300  0.203400  1.0
  C  C7513  1  0.600500  0.510800  0.210900  1.0
  C  C7514  1  0.899500  0.489200  0.710900  1.0
  C  C7515  1  0.399500  0.010800  0.289100  1.0
  C  C7516  1  0.100500  0.989200  0.789100  1.0
  C  C7517  1  0.399500  0.489200  0.789100  1.0
  C  C7518  1  0.100500  0.510800  0.289100  1.0
  C  C7519  1  0.600500  0.989200  0.710900  1.0
  C  C7520  1  0.899500  0.010800  0.210900  1.0
  C  C7521  1  0.591800  0.485400  0.201900  1.0
  C  C7522  1  0.908200  0.514600  0.701900  1.0
  C  C7523  1  0.408200  0.985400  0.298100  1.0
  C  C7524  1  0.091800  0.014600  0.798100  1.0
  C  C7525  1  0.408200  0.514600  0.798100  1.0
  C  C7526  1  0.091800  0.485400  0.298100  1.0
  C  C7527  1  0.591800  0.014600  0.701900  1.0
  C  C7528  1  0.908200  0.985400  0.201900  1.0
  C  C7529  1  0.601200  0.492400  0.194200  1.0
  C  C7530  1  0.898800  0.507600  0.694200  1.0
  C  C7531  1  0.398800  0.992400  0.305800  1.0
  C  C7532  1  0.101200  0.007600  0.805800  1.0
  C  C7533  1  0.398800  0.507600  0.805800  1.0
  C  C7534  1  0.101200  0.492400  0.305800  1.0
  C  C7535  1  0.601200  0.007600  0.694200  1.0
  C  C7536  1  0.898800  0.992400  0.194200  1.0
  C  C7537  1  0.610500  0.509200  0.194800  1.0
  C  C7538  1  0.889500  0.490800  0.694800  1.0
  C  C7539  1  0.389500  0.009200  0.305200  1.0
  C  C7540  1  0.110500  0.990800  0.805200  1.0
  C  C7541  1  0.389500  0.490800  0.805200  1.0
  C  C7542  1  0.110500  0.509200  0.305200  1.0
  C  C7543  1  0.610500  0.990800  0.694800  1.0
  C  C7544  1  0.889500  0.009200  0.194800  1.0
  C  C7545  1  0.618400  0.517900  0.186110  1.0
  C  C7546  1  0.881600  0.482100  0.686110  1.0
  C  C7547  1  0.381600  0.017900  0.313890  1.0
  C  C7548  1  0.118400  0.982100  0.813890  1.0
  C  C7549  1  0.381600  0.482100  0.813890  1.0
  C  C7550  1  0.118400  0.517900  0.313890  1.0
  C  C7551  1  0.618400  0.982100  0.686110  1.0
  C  C7552  1  0.881600  0.017900  0.186110  1.0
  C  C7553  1  0.629000  0.533600  0.185800  1.0
  C  C7554  1  0.871000  0.466400  0.685800  1.0
  C  C7555  1  0.371000  0.033600  0.314200  1.0
  C  C7556  1  0.129000  0.966400  0.814200  1.0
  C  C7557  1  0.371000  0.466400  0.814200  1.0
  C  C7558  1  0.129000  0.533600  0.314200  1.0
  C  C7559  1  0.629000  0.966400  0.685800  1.0
  C  C7560  1  0.871000  0.033600  0.185800  1.0
  C  C7561  1  0.625700  0.560600  0.195000  1.0
  C  C7562  1  0.874300  0.439400  0.695000  1.0
  C  C7563  1  0.374300  0.060600  0.305000  1.0
  C  C7564  1  0.125700  0.939400  0.805000  1.0
  C  C7565  1  0.374300  0.439400  0.805000  1.0
  C  C7566  1  0.125700  0.560600  0.305000  1.0
  C  C7567  1  0.625700  0.939400  0.695000  1.0
  C  C7568  1  0.874300  0.060600  0.195000  1.0
  C  C7569  1  0.640000  0.571200  0.177000  1.0
  C  C7570  1  0.860000  0.428800  0.677000  1.0
  C  C7571  1  0.360000  0.071200  0.323000  1.0
  C  C7572  1  0.140000  0.928800  0.823000  1.0
  C  C7573  1  0.360000  0.428800  0.823000  1.0
  C  C7574  1  0.140000  0.571200  0.323000  1.0
  C  C7575  1  0.640000  0.928800  0.677000  1.0
  C  C7576  1  0.860000  0.071200  0.177000  1.0
  C  C7577  1  0.634800  0.538600  0.176800  1.0
  C  C7578  1  0.865200  0.461400  0.676800  1.0
  C  C7579  1  0.365200  0.038600  0.323200  1.0
  C  C7580  1  0.134800  0.961400  0.823200  1.0
  C  C7581  1  0.365200  0.461400  0.823200  1.0
  C  C7582  1  0.134800  0.538600  0.323200  1.0
  C  C7583  1  0.634800  0.961400  0.676800  1.0
  C  C7584  1  0.865200  0.038600  0.176800  1.0
  C  C7585  1  0.628800  0.526800  0.169800  1.0
  C  C7586  1  0.871200  0.473200  0.669800  1.0
  C  C7587  1  0.371200  0.026800  0.330200  1.0
  C  C7588  1  0.128800  0.973200  0.830200  1.0
  C  C7589  1  0.371200  0.473200  0.830200  1.0
  C  C7590  1  0.128800  0.526800  0.330200  1.0
  C  C7591  1  0.628800  0.973200  0.669800  1.0
  C  C7592  1  0.871200  0.026800  0.169800  1.0
  C  C7593  1  0.631600  0.528100  0.159400  1.0
  C  C7594  1  0.868400  0.471900  0.659400  1.0
  C  C7595  1  0.368400  0.028100  0.340600  1.0
  C  C7596  1  0.131600  0.971900  0.840600  1.0
  C  C7597  1  0.368400  0.471900  0.840600  1.0
  C  C7598  1  0.131600  0.528100  0.340600  1.0
  C  C7599  1  0.631600  0.971900  0.659400  1.0
  C  C7600  1  0.868400  0.028100  0.159400  1.0
  C  C7601  1  0.626000  0.513300  0.153800  1.0
  C  C7602  1  0.874000  0.486700  0.653800  1.0
  C  C7603  1  0.374000  0.013300  0.346200  1.0
  C  C7604  1  0.126000  0.986700  0.846200  1.0
  C  C7605  1  0.374000  0.486700  0.846200  1.0
  C  C7606  1  0.126000  0.513300  0.346200  1.0
  C  C7607  1  0.626000  0.986700  0.653800  1.0
  C  C7608  1  0.874000  0.013300  0.153800  1.0
  C  C7609  1  0.626800  0.514400  0.144100  1.0
  C  C7610  1  0.873200  0.485600  0.644100  1.0
  C  C7611  1  0.373200  0.014400  0.355900  1.0
  C  C7612  1  0.126800  0.985600  0.855900  1.0
  C  C7613  1  0.373200  0.485600  0.855900  1.0
  C  C7614  1  0.126800  0.514400  0.355900  1.0
  C  C7615  1  0.626800  0.985600  0.644100  1.0
  C  C7616  1  0.873200  0.014400  0.144100  1.0
  C  C7617  1  0.638000  0.544300  0.144800  1.0
  C  C7618  1  0.862000  0.455700  0.644800  1.0
  C  C7619  1  0.362000  0.044300  0.355200  1.0
  C  C7620  1  0.138000  0.955700  0.855200  1.0
  C  C7621  1  0.362000  0.455700  0.855200  1.0
  C  C7622  1  0.138000  0.544300  0.355200  1.0
  C  C7623  1  0.638000  0.955700  0.644800  1.0
  C  C7624  1  0.862000  0.044300  0.144800  1.0
  C  C7625  1  0.637500  0.543700  0.154600  1.0
  C  C7626  1  0.862500  0.456300  0.654600  1.0
  C  C7627  1  0.362500  0.043700  0.345400  1.0
  C  C7628  1  0.137500  0.956300  0.845400  1.0
  C  C7629  1  0.362500  0.456300  0.845400  1.0
  C  C7630  1  0.137500  0.543700  0.345400  1.0
  C  C7631  1  0.637500  0.956300  0.654600  1.0
  C  C7632  1  0.862500  0.043700  0.154600  1.0
  C  C7633  1  0.589000  0.567500  0.127500  1.0
  C  C7634  1  0.911000  0.432500  0.627500  1.0
  C  C7635  1  0.411000  0.067500  0.372500  1.0
  C  C7636  1  0.089000  0.932500  0.872500  1.0
  C  C7637  1  0.411000  0.432500  0.872500  1.0
  C  C7638  1  0.089000  0.567500  0.372500  1.0
  C  C7639  1  0.589000  0.932500  0.627500  1.0
  C  C7640  1  0.911000  0.067500  0.127500  1.0
  C  C7641  1  0.606600  0.560700  0.126300  1.0
  C  C7642  1  0.893400  0.439300  0.626300  1.0
  C  C7643  1  0.393400  0.060700  0.373700  1.0
  C  C7644  1  0.106600  0.939300  0.873700  1.0
  C  C7645  1  0.393400  0.439300  0.873700  1.0
  C  C7646  1  0.106600  0.560700  0.373700  1.0
  C  C7647  1  0.606600  0.939300  0.626300  1.0
  C  C7648  1  0.893400  0.060700  0.126300  1.0
  C  C7649  1  0.596100  0.530500  0.126800  1.0
  C  C7650  1  0.903900  0.469500  0.626800  1.0
  C  C7651  1  0.403900  0.030500  0.373200  1.0
  C  C7652  1  0.096100  0.969500  0.873200  1.0
  C  C7653  1  0.403900  0.469500  0.873200  1.0
  C  C7654  1  0.096100  0.530500  0.373200  1.0
  C  C7655  1  0.596100  0.969500  0.626800  1.0
  C  C7656  1  0.903900  0.030500  0.126800  1.0
  C  C7657  1  0.578100  0.536700  0.127900  1.0
  C  C7658  1  0.921900  0.463300  0.627900  1.0
  C  C7659  1  0.421900  0.036700  0.372100  1.0
  C  C7660  1  0.078100  0.963300  0.872100  1.0
  C  C7661  1  0.421900  0.463300  0.872100  1.0
  C  C7662  1  0.078100  0.536700  0.372100  1.0
  C  C7663  1  0.578100  0.963300  0.627900  1.0
  C  C7664  1  0.921900  0.036700  0.127900  1.0
  C  C7665  1  0.574000  0.555500  0.128200  1.0
  C  C7666  1  0.926000  0.444500  0.628200  1.0
  C  C7667  1  0.426000  0.055500  0.371800  1.0
  C  C7668  1  0.074000  0.944500  0.871800  1.0
  C  C7669  1  0.426000  0.444500  0.871800  1.0
  C  C7670  1  0.074000  0.555500  0.371800  1.0
  C  C7671  1  0.574000  0.944500  0.628200  1.0
  C  C7672  1  0.926000  0.055500  0.128200  1.0
  C  C7673  1  0.554800  0.561700  0.130600  1.0
  C  C7674  1  0.945200  0.438300  0.630600  1.0
  C  C7675  1  0.445200  0.061700  0.369400  1.0
  C  C7676  1  0.054800  0.938300  0.869400  1.0
  C  C7677  1  0.445200  0.438300  0.869400  1.0
  C  C7678  1  0.054800  0.561700  0.369400  1.0
  C  C7679  1  0.554800  0.938300  0.630600  1.0
  C  C7680  1  0.945200  0.061700  0.130600  1.0
  C  C7681  1  0.548300  0.579400  0.131100  1.0
  C  C7682  1  0.951700  0.420600  0.631100  1.0
  C  C7683  1  0.451700  0.079400  0.368900  1.0
  C  C7684  1  0.048300  0.920600  0.868900  1.0
  C  C7685  1  0.451700  0.420600  0.868900  1.0
  C  C7686  1  0.048300  0.579400  0.368900  1.0
  C  C7687  1  0.548300  0.920600  0.631100  1.0
  C  C7688  1  0.951700  0.079400  0.131100  1.0
  C  C7689  1  0.559000  0.602500  0.120500  1.0
  C  C7690  1  0.941000  0.397500  0.620500  1.0
  C  C7691  1  0.441000  0.102500  0.379500  1.0
  C  C7692  1  0.059000  0.897500  0.879500  1.0
  C  C7693  1  0.441000  0.397500  0.879500  1.0
  C  C7694  1  0.059000  0.602500  0.379500  1.0
  C  C7695  1  0.559000  0.897500  0.620500  1.0
  C  C7696  1  0.941000  0.102500  0.120500  1.0
  C  C7697  1  0.525000  0.608100  0.142100  1.0
  C  C7698  1  0.975000  0.391900  0.642100  1.0
  C  C7699  1  0.475000  0.108100  0.357900  1.0
  C  C7700  1  0.025000  0.891900  0.857900  1.0
  C  C7701  1  0.475000  0.391900  0.857900  1.0
  C  C7702  1  0.025000  0.608100  0.357900  1.0
  C  C7703  1  0.525000  0.891900  0.642100  1.0
  C  C7704  1  0.975000  0.108100  0.142100  1.0
  C  C7705  1  0.529700  0.580700  0.133600  1.0
  C  C7706  1  0.970300  0.419300  0.633600  1.0
  C  C7707  1  0.470300  0.080700  0.366400  1.0
  C  C7708  1  0.029700  0.919300  0.866400  1.0
  C  C7709  1  0.470300  0.419300  0.866400  1.0
  C  C7710  1  0.029700  0.580700  0.366400  1.0
  C  C7711  1  0.529700  0.919300  0.633600  1.0
  C  C7712  1  0.970300  0.080700  0.133600  1.0
  C  C7713  1  0.521100  0.564200  0.135300  1.0
  C  C7714  1  0.978900  0.435800  0.635300  1.0
  C  C7715  1  0.478900  0.064200  0.364700  1.0
  C  C7716  1  0.021100  0.935800  0.864700  1.0
  C  C7717  1  0.478900  0.435800  0.864700  1.0
  C  C7718  1  0.021100  0.564200  0.364700  1.0
  C  C7719  1  0.521100  0.935800  0.635300  1.0
  C  C7720  1  0.978900  0.064200  0.135300  1.0
  C  C7721  1  0.501800  0.560500  0.138700  1.0
  C  C7722  1  0.998200  0.439500  0.638700  1.0
  C  C7723  1  0.498200  0.060500  0.361300  1.0
  C  C7724  1  0.001800  0.939500  0.861300  1.0
  C  C7725  1  0.498200  0.439500  0.861300  1.0
  C  C7726  1  0.001800  0.560500  0.361300  1.0
  C  C7727  1  0.501800  0.939500  0.638700  1.0
  C  C7728  1  0.998200  0.060500  0.138700  1.0
  C  C7729  1  0.495000  0.542500  0.138900  1.0
  C  C7730  1  0.005000  0.457500  0.638900  1.0
  C  C7731  1  0.505000  0.042500  0.361100  1.0
  C  C7732  1  0.995000  0.957500  0.861100  1.0
  C  C7733  1  0.505000  0.457500  0.861100  1.0
  C  C7734  1  0.995000  0.542500  0.361100  1.0
  C  C7735  1  0.495000  0.957500  0.638900  1.0
  C  C7736  1  0.005000  0.042500  0.138900  1.0
  C  C7737  1  0.477500  0.538600  0.142200  1.0
  C  C7738  1  0.022500  0.461400  0.642200  1.0
  C  C7739  1  0.522500  0.038600  0.357800  1.0
  C  C7740  1  0.977500  0.961400  0.857800  1.0
  C  C7741  1  0.522500  0.461400  0.857800  1.0
  C  C7742  1  0.977500  0.538600  0.357800  1.0
  C  C7743  1  0.477500  0.961400  0.642200  1.0
  C  C7744  1  0.022500  0.038600  0.142200  1.0
  C  C7745  1  0.472200  0.569500  0.145300  1.0
  C  C7746  1  0.027800  0.430500  0.645300  1.0
  C  C7747  1  0.527800  0.069500  0.354700  1.0
  C  C7748  1  0.972200  0.930500  0.854700  1.0
  C  C7749  1  0.527800  0.430500  0.854700  1.0
  C  C7750  1  0.972200  0.569500  0.354700  1.0
  C  C7751  1  0.472200  0.930500  0.645300  1.0
  C  C7752  1  0.027800  0.069500  0.145300  1.0
  C  C7753  1  0.489700  0.574000  0.142200  1.0
  C  C7754  1  0.010300  0.426000  0.642200  1.0
  C  C7755  1  0.510300  0.074000  0.357800  1.0
  C  C7756  1  0.989700  0.926000  0.857800  1.0
  C  C7757  1  0.510300  0.426000  0.857800  1.0
  C  C7758  1  0.989700  0.574000  0.357800  1.0
  C  C7759  1  0.489700  0.926000  0.642200  1.0
  C  C7760  1  0.010300  0.074000  0.142200  1.0
  C  C7761  1  0.623600  0.504300  0.048400  1.0
  C  C7762  1  0.876400  0.495700  0.548400  1.0
  C  C7763  1  0.376400  0.004300  0.451600  1.0
  C  C7764  1  0.123600  0.995700  0.951600  1.0
  C  C7765  1  0.376400  0.495700  0.951600  1.0
  C  C7766  1  0.123600  0.504300  0.451600  1.0
  C  C7767  1  0.623600  0.995700  0.548400  1.0
  C  C7768  1  0.876400  0.004300  0.048400  1.0
  C  C7769  1  0.617300  0.493400  0.041100  1.0
  C  C7770  1  0.882700  0.506600  0.541100  1.0
  C  C7771  1  0.382700  0.993400  0.458900  1.0
  C  C7772  1  0.117300  0.006600  0.958900  1.0
  C  C7773  1  0.382700  0.506600  0.958900  1.0
  C  C7774  1  0.117300  0.493400  0.458900  1.0
  C  C7775  1  0.617300  0.006600  0.541100  1.0
  C  C7776  1  0.882700  0.993400  0.041100  1.0
  C  C7777  1  0.605400  0.471900  0.051500  1.0
  C  C7778  1  0.894600  0.528100  0.551500  1.0
  C  C7779  1  0.394600  0.971900  0.448500  1.0
  C  C7780  1  0.105400  0.028100  0.948500  1.0
  C  C7781  1  0.394600  0.528100  0.948500  1.0
  C  C7782  1  0.105400  0.471900  0.448500  1.0
  C  C7783  1  0.605400  0.028100  0.551500  1.0
  C  C7784  1  0.894600  0.971900  0.051500  1.0
  C  C7785  1  0.611400  0.482300  0.059000  1.0
  C  C7786  1  0.888600  0.517700  0.559000  1.0
  C  C7787  1  0.388600  0.982300  0.441000  1.0
  C  C7788  1  0.111400  0.017700  0.941000  1.0
  C  C7789  1  0.388600  0.517700  0.941000  1.0
  C  C7790  1  0.111400  0.482300  0.441000  1.0
  C  C7791  1  0.611400  0.017700  0.559000  1.0
  C  C7792  1  0.888600  0.982300  0.059000  1.0
  C  C7793  1  0.620800  0.498900  0.057800  1.0
  C  C7794  1  0.879200  0.501100  0.557800  1.0
  C  C7795  1  0.379200  0.998900  0.442200  1.0
  C  C7796  1  0.120800  0.001100  0.942200  1.0
  C  C7797  1  0.379200  0.501100  0.942200  1.0
  C  C7798  1  0.120800  0.498900  0.442200  1.0
  C  C7799  1  0.620800  0.001100  0.557800  1.0
  C  C7800  1  0.879200  0.998900  0.057800  1.0
  C  C7801  1  0.628400  0.508800  0.066150  1.0
  C  C7802  1  0.871600  0.491200  0.566150  1.0
  C  C7803  1  0.371600  0.008800  0.433850  1.0
  C  C7804  1  0.128400  0.991200  0.933850  1.0
  C  C7805  1  0.371600  0.491200  0.933850  1.0
  C  C7806  1  0.128400  0.508800  0.433850  1.0
  C  C7807  1  0.628400  0.991200  0.566150  1.0
  C  C7808  1  0.871600  0.008800  0.066150  1.0
  C  C7809  1  0.638900  0.524600  0.066500  1.0
  C  C7810  1  0.861100  0.475400  0.566500  1.0
  C  C7811  1  0.361100  0.024600  0.433500  1.0
  C  C7812  1  0.138900  0.975400  0.933500  1.0
  C  C7813  1  0.361100  0.475400  0.933500  1.0
  C  C7814  1  0.138900  0.524600  0.433500  1.0
  C  C7815  1  0.638900  0.975400  0.566500  1.0
  C  C7816  1  0.861100  0.024600  0.066500  1.0
  C  C7817  1  0.640300  0.548100  0.054600  1.0
  C  C7818  1  0.859700  0.451900  0.554600  1.0
  C  C7819  1  0.359700  0.048100  0.445400  1.0
  C  C7820  1  0.140300  0.951900  0.945400  1.0
  C  C7821  1  0.359700  0.451900  0.945400  1.0
  C  C7822  1  0.140300  0.548100  0.445400  1.0
  C  C7823  1  0.640300  0.951900  0.554600  1.0
  C  C7824  1  0.859700  0.048100  0.054600  1.0
  C  C7825  1  0.670000  0.543800  0.079400  1.0
  C  C7826  1  0.830000  0.456200  0.579400  1.0
  C  C7827  1  0.330000  0.043800  0.420600  1.0
  C  C7828  1  0.170000  0.956200  0.920600  1.0
  C  C7829  1  0.330000  0.456200  0.920600  1.0
  C  C7830  1  0.170000  0.543800  0.420600  1.0
  C  C7831  1  0.670000  0.956200  0.579400  1.0
  C  C7832  1  0.830000  0.043800  0.079400  1.0
  C  C7833  1  0.641100  0.531700  0.075500  1.0
  C  C7834  1  0.858900  0.468300  0.575500  1.0
  C  C7835  1  0.358900  0.031700  0.424500  1.0
  C  C7836  1  0.141100  0.968300  0.924500  1.0
  C  C7837  1  0.358900  0.468300  0.924500  1.0
  C  C7838  1  0.141100  0.531700  0.424500  1.0
  C  C7839  1  0.641100  0.968300  0.575500  1.0
  C  C7840  1  0.858900  0.031700  0.075500  1.0
  C  C7841  1  0.633100  0.521600  0.082600  1.0
  C  C7842  1  0.866900  0.478400  0.582600  1.0
  C  C7843  1  0.366900  0.021600  0.417400  1.0
  C  C7844  1  0.133100  0.978400  0.917400  1.0
  C  C7845  1  0.366900  0.478400  0.917400  1.0
  C  C7846  1  0.133100  0.521600  0.417400  1.0
  C  C7847  1  0.633100  0.978400  0.582600  1.0
  C  C7848  1  0.866900  0.021600  0.082600  1.0
  C  C7849  1  0.634800  0.523800  0.093000  1.0
  C  C7850  1  0.865200  0.476200  0.593000  1.0
  C  C7851  1  0.365200  0.023800  0.407000  1.0
  C  C7852  1  0.134800  0.976200  0.907000  1.0
  C  C7853  1  0.365200  0.476200  0.907000  1.0
  C  C7854  1  0.134800  0.523800  0.407000  1.0
  C  C7855  1  0.634800  0.976200  0.593000  1.0
  C  C7856  1  0.865200  0.023800  0.093000  1.0
  C  C7857  1  0.626000  0.511300  0.099000  1.0
  C  C7858  1  0.874000  0.488700  0.599000  1.0
  C  C7859  1  0.374000  0.011300  0.401000  1.0
  C  C7860  1  0.126000  0.988700  0.901000  1.0
  C  C7861  1  0.374000  0.488700  0.901000  1.0
  C  C7862  1  0.126000  0.511300  0.401000  1.0
  C  C7863  1  0.626000  0.988700  0.599000  1.0
  C  C7864  1  0.874000  0.011300  0.099000  1.0
  C  C7865  1  0.626500  0.513400  0.108600  1.0
  C  C7866  1  0.873500  0.486600  0.608600  1.0
  C  C7867  1  0.373500  0.013400  0.391400  1.0
  C  C7868  1  0.126500  0.986600  0.891400  1.0
  C  C7869  1  0.373500  0.486600  0.891400  1.0
  C  C7870  1  0.126500  0.513400  0.391400  1.0
  C  C7871  1  0.626500  0.986600  0.608600  1.0
  C  C7872  1  0.873500  0.013400  0.108600  1.0
  C  C7873  1  0.642900  0.540500  0.107100  1.0
  C  C7874  1  0.857100  0.459500  0.607100  1.0
  C  C7875  1  0.357100  0.040500  0.392900  1.0
  C  C7876  1  0.142900  0.959500  0.892900  1.0
  C  C7877  1  0.357100  0.459500  0.892900  1.0
  C  C7878  1  0.142900  0.540500  0.392900  1.0
  C  C7879  1  0.642900  0.959500  0.607100  1.0
  C  C7880  1  0.857100  0.040500  0.107100  1.0
  C  C7881  1  0.643300  0.538800  0.097500  1.0
  C  C7882  1  0.856700  0.461200  0.597500  1.0
  C  C7883  1  0.356700  0.038800  0.402500  1.0
  C  C7884  1  0.143300  0.961200  0.902500  1.0
  C  C7885  1  0.356700  0.461200  0.902500  1.0
  C  C7886  1  0.143300  0.538800  0.402500  1.0
  C  C7887  1  0.643300  0.961200  0.597500  1.0
  C  C7888  1  0.856700  0.038800  0.097500  1.0
  C  C7889  1  0.690900  0.520700  0.130800  1.0
  C  C7890  1  0.809100  0.479300  0.630800  1.0
  C  C7891  1  0.309100  0.020700  0.369200  1.0
  C  C7892  1  0.190900  0.979300  0.869200  1.0
  C  C7893  1  0.309100  0.479300  0.869200  1.0
  C  C7894  1  0.190900  0.520700  0.369200  1.0
  C  C7895  1  0.690900  0.979300  0.630800  1.0
  C  C7896  1  0.809100  0.020700  0.130800  1.0
  C  C7897  1  0.674200  0.529400  0.129000  1.0
  C  C7898  1  0.825800  0.470600  0.629000  1.0
  C  C7899  1  0.325800  0.029400  0.371000  1.0
  C  C7900  1  0.174200  0.970600  0.871000  1.0
  C  C7901  1  0.325800  0.470600  0.871000  1.0
  C  C7902  1  0.174200  0.529400  0.371000  1.0
  C  C7903  1  0.674200  0.970600  0.629000  1.0
  C  C7904  1  0.825800  0.029400  0.129000  1.0
  C  C7905  1  0.659800  0.501500  0.125700  1.0
  C  C7906  1  0.840200  0.498500  0.625700  1.0
  C  C7907  1  0.340200  0.001500  0.374300  1.0
  C  C7908  1  0.159800  0.998500  0.874300  1.0
  C  C7909  1  0.340200  0.498500  0.874300  1.0
  C  C7910  1  0.159800  0.501500  0.374300  1.0
  C  C7911  1  0.659800  0.998500  0.625700  1.0
  C  C7912  1  0.840200  0.001500  0.125700  1.0
  C  C7913  1  0.676200  0.492200  0.127200  1.0
  C  C7914  1  0.823800  0.507800  0.627200  1.0
  C  C7915  1  0.323800  0.992200  0.372800  1.0
  C  C7916  1  0.176200  0.007800  0.872800  1.0
  C  C7917  1  0.323800  0.507800  0.872800  1.0
  C  C7918  1  0.176200  0.492200  0.372800  1.0
  C  C7919  1  0.676200  0.007800  0.627200  1.0
  C  C7920  1  0.823800  0.992200  0.127200  1.0
  C  C7921  1  0.692200  0.501500  0.130000  1.0
  C  C7922  1  0.807800  0.498500  0.630000  1.0
  C  C7923  1  0.307800  0.001500  0.370000  1.0
  C  C7924  1  0.192200  0.998500  0.870000  1.0
  C  C7925  1  0.307800  0.498500  0.870000  1.0
  C  C7926  1  0.192200  0.501500  0.370000  1.0
  C  C7927  1  0.692200  0.998500  0.630000  1.0
  C  C7928  1  0.807800  0.001500  0.130000  1.0
  C  C7929  1  0.709300  0.490900  0.132500  1.0
  C  C7930  1  0.790700  0.509100  0.632500  1.0
  C  C7931  1  0.290700  0.990900  0.367500  1.0
  C  C7932  1  0.209300  0.009100  0.867500  1.0
  C  C7933  1  0.290700  0.509100  0.867500  1.0
  C  C7934  1  0.209300  0.490900  0.367500  1.0
  C  C7935  1  0.709300  0.009100  0.632500  1.0
  C  C7936  1  0.790700  0.990900  0.132500  1.0
  C  C7937  1  0.725600  0.497800  0.136000  1.0
  C  C7938  1  0.774400  0.502200  0.636000  1.0
  C  C7939  1  0.274400  0.997800  0.364000  1.0
  C  C7940  1  0.225600  0.002200  0.864000  1.0
  C  C7941  1  0.274400  0.502200  0.864000  1.0
  C  C7942  1  0.225600  0.497800  0.364000  1.0
  C  C7943  1  0.725600  0.002200  0.636000  1.0
  C  C7944  1  0.774400  0.997800  0.136000  1.0
  C  C7945  1  0.740600  0.524200  0.130300  1.0
  C  C7946  1  0.759400  0.475800  0.630300  1.0
  C  C7947  1  0.259400  0.024200  0.369700  1.0
  C  C7948  1  0.240600  0.975800  0.869700  1.0
  C  C7949  1  0.259400  0.475800  0.869700  1.0
  C  C7950  1  0.240600  0.524200  0.369700  1.0
  C  C7951  1  0.740600  0.975800  0.630300  1.0
  C  C7952  1  0.759400  0.024200  0.130300  1.0
  C  C7953  1  0.757000  0.496100  0.151200  1.0
  C  C7954  1  0.743000  0.503900  0.651200  1.0
  C  C7955  1  0.243000  0.996100  0.348800  1.0
  C  C7956  1  0.257000  0.003900  0.848800  1.0
  C  C7957  1  0.243000  0.503900  0.848800  1.0
  C  C7958  1  0.257000  0.496100  0.348800  1.0
  C  C7959  1  0.757000  0.003900  0.651200  1.0
  C  C7960  1  0.743000  0.996100  0.151200  1.0
  C  C7961  1  0.738500  0.484600  0.138600  1.0
  C  C7962  1  0.761500  0.515400  0.638600  1.0
  C  C7963  1  0.261500  0.984600  0.361400  1.0
  C  C7964  1  0.238500  0.015400  0.861400  1.0
  C  C7965  1  0.261500  0.515400  0.861400  1.0
  C  C7966  1  0.238500  0.484600  0.361400  1.0
  C  C7967  1  0.738500  0.015400  0.638600  1.0
  C  C7968  1  0.761500  0.984600  0.138600  1.0
  C  C7969  1  0.732500  0.466700  0.137500  1.0
  C  C7970  1  0.767500  0.533300  0.637500  1.0
  C  C7971  1  0.267500  0.966700  0.362500  1.0
  C  C7972  1  0.232500  0.033300  0.862500  1.0
  C  C7973  1  0.267500  0.533300  0.862500  1.0
  C  C7974  1  0.232500  0.466700  0.362500  1.0
  C  C7975  1  0.732500  0.033300  0.637500  1.0
  C  C7976  1  0.767500  0.966700  0.137500  1.0
  C  C7977  1  0.743200  0.449200  0.138900  1.0
  C  C7978  1  0.756800  0.550800  0.638900  1.0
  C  C7979  1  0.256800  0.949200  0.361100  1.0
  C  C7980  1  0.243200  0.050800  0.861100  1.0
  C  C7981  1  0.256800  0.550800  0.861100  1.0
  C  C7982  1  0.243200  0.449200  0.361100  1.0
  C  C7983  1  0.743200  0.050800  0.638900  1.0
  C  C7984  1  0.756800  0.949200  0.138900  1.0
  C  C7985  1  0.735500  0.432400  0.136100  1.0
  C  C7986  1  0.764500  0.567600  0.636100  1.0
  C  C7987  1  0.264500  0.932400  0.363900  1.0
  C  C7988  1  0.235500  0.067600  0.863900  1.0
  C  C7989  1  0.264500  0.567600  0.863900  1.0
  C  C7990  1  0.235500  0.432400  0.363900  1.0
  C  C7991  1  0.735500  0.067600  0.636100  1.0
  C  C7992  1  0.764500  0.932400  0.136100  1.0
  C  C7993  1  0.745600  0.416400  0.137400  1.0
  C  C7994  1  0.754400  0.583600  0.637400  1.0
  C  C7995  1  0.254400  0.916400  0.362600  1.0
  C  C7996  1  0.245600  0.083600  0.862600  1.0
  C  C7997  1  0.254400  0.583600  0.862600  1.0
  C  C7998  1  0.245600  0.416400  0.362600  1.0
  C  C7999  1  0.745600  0.083600  0.637400  1.0
  C  C8000  1  0.754400  0.916400  0.137400  1.0
  C  C8001  1  0.770100  0.432000  0.144100  1.0
  C  C8002  1  0.729900  0.568000  0.644100  1.0
  C  C8003  1  0.229900  0.932000  0.355900  1.0
  C  C8004  1  0.270100  0.068000  0.855900  1.0
  C  C8005  1  0.229900  0.568000  0.855900  1.0
  C  C8006  1  0.270100  0.432000  0.355900  1.0
  C  C8007  1  0.770100  0.068000  0.644100  1.0
  C  C8008  1  0.729900  0.932000  0.144100  1.0
  C  C8009  1  0.760700  0.448500  0.143000  1.0
  C  C8010  1  0.739300  0.551500  0.643000  1.0
  C  C8011  1  0.239300  0.948500  0.357000  1.0
  C  C8012  1  0.260700  0.051500  0.857000  1.0
  C  C8013  1  0.239300  0.551500  0.857000  1.0
  C  C8014  1  0.260700  0.448500  0.357000  1.0
  C  C8015  1  0.760700  0.051500  0.643000  1.0
  C  C8016  1  0.739300  0.948500  0.143000  1.0
  C  C8017  1  0.792500  0.404200  0.113300  1.0
  C  C8018  1  0.707500  0.595800  0.613300  1.0
  C  C8019  1  0.207500  0.904200  0.386700  1.0
  C  C8020  1  0.292500  0.095800  0.886700  1.0
  C  C8021  1  0.207500  0.595800  0.886700  1.0
  C  C8022  1  0.292500  0.404200  0.386700  1.0
  C  C8023  1  0.792500  0.095800  0.613300  1.0
  C  C8024  1  0.707500  0.904200  0.113300  1.0
  C  C8025  1  0.791400  0.405100  0.123000  1.0
  C  C8026  1  0.708600  0.594900  0.623000  1.0
  C  C8027  1  0.208600  0.905100  0.377000  1.0
  C  C8028  1  0.291400  0.094900  0.877000  1.0
  C  C8029  1  0.208600  0.594900  0.877000  1.0
  C  C8030  1  0.291400  0.405100  0.377000  1.0
  C  C8031  1  0.791400  0.094900  0.623000  1.0
  C  C8032  1  0.708600  0.905100  0.123000  1.0
  C  C8033  1  0.765800  0.385900  0.122700  1.0
  C  C8034  1  0.734200  0.614100  0.622700  1.0
  C  C8035  1  0.234200  0.885900  0.377300  1.0
  C  C8036  1  0.265800  0.114100  0.877300  1.0
  C  C8037  1  0.234200  0.614100  0.877300  1.0
  C  C8038  1  0.265800  0.385900  0.377300  1.0
  C  C8039  1  0.765800  0.114100  0.622700  1.0
  C  C8040  1  0.734200  0.885900  0.122700  1.0
  C  C8041  1  0.766700  0.384300  0.113000  1.0
  C  C8042  1  0.733300  0.615700  0.613000  1.0
  C  C8043  1  0.233300  0.884300  0.387000  1.0
  C  C8044  1  0.266700  0.115700  0.887000  1.0
  C  C8045  1  0.233300  0.615700  0.887000  1.0
  C  C8046  1  0.266700  0.384300  0.387000  1.0
  C  C8047  1  0.766700  0.115700  0.613000  1.0
  C  C8048  1  0.733300  0.884300  0.113000  1.0
  C  C8049  1  0.780300  0.393800  0.107900  1.0
  C  C8050  1  0.719700  0.606200  0.607900  1.0
  C  C8051  1  0.219700  0.893800  0.392100  1.0
  C  C8052  1  0.280300  0.106200  0.892100  1.0
  C  C8053  1  0.219700  0.606200  0.892100  1.0
  C  C8054  1  0.280300  0.393800  0.392100  1.0
  C  C8055  1  0.780300  0.106200  0.607900  1.0
  C  C8056  1  0.719700  0.893800  0.107900  1.0
  C  C8057  1  0.779800  0.393900  0.097300  1.0
  C  C8058  1  0.720200  0.606100  0.597300  1.0
  C  C8059  1  0.220200  0.893900  0.402700  1.0
  C  C8060  1  0.279800  0.106100  0.902700  1.0
  C  C8061  1  0.220200  0.606100  0.902700  1.0
  C  C8062  1  0.279800  0.393900  0.402700  1.0
  C  C8063  1  0.779800  0.106100  0.597300  1.0
  C  C8064  1  0.720200  0.893900  0.097300  1.0
  C  C8065  1  0.790600  0.403600  0.091100  1.0
  C  C8066  1  0.709400  0.596400  0.591100  1.0
  C  C8067  1  0.209400  0.903600  0.408900  1.0
  C  C8068  1  0.290600  0.096400  0.908900  1.0
  C  C8069  1  0.209400  0.596400  0.908900  1.0
  C  C8070  1  0.290600  0.403600  0.408900  1.0
  C  C8071  1  0.790600  0.096400  0.591100  1.0
  C  C8072  1  0.709400  0.903600  0.091100  1.0
  C  C8073  1  0.820300  0.413500  0.096000  1.0
  C  C8074  1  0.679700  0.586500  0.596000  1.0
  C  C8075  1  0.179700  0.913500  0.404000  1.0
  C  C8076  1  0.320300  0.086500  0.904000  1.0
  C  C8077  1  0.179700  0.586500  0.904000  1.0
  C  C8078  1  0.320300  0.413500  0.404000  1.0
  C  C8079  1  0.820300  0.086500  0.596000  1.0
  C  C8080  1  0.679700  0.913500  0.096000  1.0
  C  C8081  1  0.796300  0.424000  0.072100  1.0
  C  C8082  1  0.703700  0.576000  0.572100  1.0
  C  C8083  1  0.203700  0.924000  0.427900  1.0
  C  C8084  1  0.296300  0.076000  0.927900  1.0
  C  C8085  1  0.203700  0.576000  0.927900  1.0
  C  C8086  1  0.296300  0.424000  0.427900  1.0
  C  C8087  1  0.796300  0.076000  0.572100  1.0
  C  C8088  1  0.703700  0.924000  0.072100  1.0
  C  C8089  1  0.789500  0.398200  0.081700  1.0
  C  C8090  1  0.710500  0.601800  0.581700  1.0
  C  C8091  1  0.210500  0.898200  0.418300  1.0
  C  C8092  1  0.289500  0.101800  0.918300  1.0
  C  C8093  1  0.210500  0.601800  0.918300  1.0
  C  C8094  1  0.289500  0.398200  0.418300  1.0
  C  C8095  1  0.789500  0.101800  0.581700  1.0
  C  C8096  1  0.710500  0.898200  0.081700  1.0
  C  C8097  1  0.777200  0.384100  0.080100  1.0
  C  C8098  1  0.722800  0.615900  0.580100  1.0
  C  C8099  1  0.222800  0.884100  0.419900  1.0
  C  C8100  1  0.277200  0.115900  0.919900  1.0
  C  C8101  1  0.222800  0.615900  0.919900  1.0
  C  C8102  1  0.277200  0.384100  0.419900  1.0
  C  C8103  1  0.777200  0.115900  0.580100  1.0
  C  C8104  1  0.722800  0.884100  0.080100  1.0
  C  C8105  1  0.772000  0.375700  0.070900  1.0
  C  C8106  1  0.728000  0.624300  0.570900  1.0
  C  C8107  1  0.228000  0.875700  0.429100  1.0
  C  C8108  1  0.272000  0.124300  0.929100  1.0
  C  C8109  1  0.228000  0.624300  0.929100  1.0
  C  C8110  1  0.272000  0.375700  0.429100  1.0
  C  C8111  1  0.772000  0.124300  0.570900  1.0
  C  C8112  1  0.728000  0.875700  0.070900  1.0
  C  C8113  1  0.755900  0.365100  0.070100  1.0
  C  C8114  1  0.744100  0.634900  0.570100  1.0
  C  C8115  1  0.244100  0.865100  0.429900  1.0
  C  C8116  1  0.255900  0.134900  0.929900  1.0
  C  C8117  1  0.244100  0.634900  0.929900  1.0
  C  C8118  1  0.255900  0.365100  0.429900  1.0
  C  C8119  1  0.755900  0.134900  0.570100  1.0
  C  C8120  1  0.744100  0.865100  0.070100  1.0
  C  C8121  1  0.751300  0.356100  0.061800  1.0
  C  C8122  1  0.748700  0.643900  0.561800  1.0
  C  C8123  1  0.248700  0.856100  0.438200  1.0
  C  C8124  1  0.251300  0.143900  0.938200  1.0
  C  C8125  1  0.248700  0.643900  0.938200  1.0
  C  C8126  1  0.251300  0.356100  0.438200  1.0
  C  C8127  1  0.751300  0.143900  0.561800  1.0
  C  C8128  1  0.748700  0.856100  0.061800  1.0
  C  C8129  1  0.778700  0.365700  0.055000  1.0
  C  C8130  1  0.721300  0.634300  0.555000  1.0
  C  C8131  1  0.221300  0.865700  0.445000  1.0
  C  C8132  1  0.278700  0.134300  0.945000  1.0
  C  C8133  1  0.221300  0.634300  0.945000  1.0
  C  C8134  1  0.278700  0.365700  0.445000  1.0
  C  C8135  1  0.778700  0.134300  0.555000  1.0
  C  C8136  1  0.721300  0.865700  0.055000  1.0
  C  C8137  1  0.783700  0.375500  0.063000  1.0
  C  C8138  1  0.716300  0.624500  0.563000  1.0
  C  C8139  1  0.216300  0.875500  0.437000  1.0
  C  C8140  1  0.283700  0.124500  0.937000  1.0
  C  C8141  1  0.216300  0.624500  0.937000  1.0
  C  C8142  1  0.283700  0.375500  0.437000  1.0
  C  C8143  1  0.783700  0.124500  0.563000  1.0
  C  C8144  1  0.716300  0.875500  0.063000  1.0
  C  C8145  1  0.839700  0.257500  0.122300  1.0
  C  C8146  1  0.660300  0.742500  0.622300  1.0
  C  C8147  1  0.160300  0.757500  0.377700  1.0
  C  C8148  1  0.339700  0.242500  0.877700  1.0
  C  C8149  1  0.160300  0.742500  0.877700  1.0
  C  C8150  1  0.339700  0.257500  0.377700  1.0
  C  C8151  1  0.839700  0.242500  0.622300  1.0
  C  C8152  1  0.660300  0.757500  0.122300  1.0
  C  C8153  1  0.838200  0.240100  0.118400  1.0
  C  C8154  1  0.661800  0.759900  0.618400  1.0
  C  C8155  1  0.161800  0.740100  0.381600  1.0
  C  C8156  1  0.338200  0.259900  0.881600  1.0
  C  C8157  1  0.161800  0.759900  0.881600  1.0
  C  C8158  1  0.338200  0.240100  0.381600  1.0
  C  C8159  1  0.838200  0.259900  0.618400  1.0
  C  C8160  1  0.661800  0.740100  0.118400  1.0
  C  C8161  1  0.806300  0.240700  0.120400  1.0
  C  C8162  1  0.693700  0.759300  0.620400  1.0
  C  C8163  1  0.193700  0.740700  0.379600  1.0
  C  C8164  1  0.306300  0.259300  0.879600  1.0
  C  C8165  1  0.193700  0.759300  0.879600  1.0
  C  C8166  1  0.306300  0.240700  0.379600  1.0
  C  C8167  1  0.806300  0.259300  0.620400  1.0
  C  C8168  1  0.693700  0.740700  0.120400  1.0
  C  C8169  1  0.807200  0.258100  0.124400  1.0
  C  C8170  1  0.692800  0.741900  0.624400  1.0
  C  C8171  1  0.192800  0.758100  0.375600  1.0
  C  C8172  1  0.307200  0.241900  0.875600  1.0
  C  C8173  1  0.192800  0.741900  0.875600  1.0
  C  C8174  1  0.307200  0.258100  0.375600  1.0
  C  C8175  1  0.807200  0.241900  0.624400  1.0
  C  C8176  1  0.692800  0.758100  0.124400  1.0
  C  C8177  1  0.824100  0.266900  0.125500  1.0
  C  C8178  1  0.675900  0.733100  0.625500  1.0
  C  C8179  1  0.175900  0.766900  0.374500  1.0
  C  C8180  1  0.324100  0.233100  0.874500  1.0
  C  C8181  1  0.175900  0.733100  0.874500  1.0
  C  C8182  1  0.324100  0.266900  0.374500  1.0
  C  C8183  1  0.824100  0.233100  0.625500  1.0
  C  C8184  1  0.675900  0.766900  0.125500  1.0
  C  C8185  1  0.824400  0.285800  0.129800  1.0
  C  C8186  1  0.675600  0.714200  0.629800  1.0
  C  C8187  1  0.175600  0.785800  0.370200  1.0
  C  C8188  1  0.324400  0.214200  0.870200  1.0
  C  C8189  1  0.175600  0.714200  0.870200  1.0
  C  C8190  1  0.324400  0.285800  0.370200  1.0
  C  C8191  1  0.824400  0.214200  0.629800  1.0
  C  C8192  1  0.675600  0.785800  0.129800  1.0
  C  C8193  1  0.839300  0.296200  0.132600  1.0
  C  C8194  1  0.660700  0.703800  0.632600  1.0
  C  C8195  1  0.160700  0.796200  0.367400  1.0
  C  C8196  1  0.339300  0.203800  0.867400  1.0
  C  C8197  1  0.160700  0.703800  0.867400  1.0
  C  C8198  1  0.339300  0.296200  0.367400  1.0
  C  C8199  1  0.839300  0.203800  0.632600  1.0
  C  C8200  1  0.660700  0.796200  0.132600  1.0
  C  C8201  1  0.868200  0.292000  0.124900  1.0
  C  C8202  1  0.631800  0.708000  0.624900  1.0
  C  C8203  1  0.131800  0.792000  0.375100  1.0
  C  C8204  1  0.368200  0.208000  0.875100  1.0
  C  C8205  1  0.131800  0.708000  0.875100  1.0
  C  C8206  1  0.368200  0.292000  0.375100  1.0
  C  C8207  1  0.868200  0.208000  0.624900  1.0
  C  C8208  1  0.631800  0.792000  0.124900  1.0
  C  C8209  1  0.860000  0.335000  0.132400  1.0
  C  C8210  1  0.640000  0.665000  0.632400  1.0
  C  C8211  1  0.140000  0.835000  0.367600  1.0
  C  C8212  1  0.360000  0.165000  0.867600  1.0
  C  C8213  1  0.140000  0.665000  0.867600  1.0
  C  C8214  1  0.360000  0.335000  0.367600  1.0
  C  C8215  1  0.860000  0.165000  0.632400  1.0
  C  C8216  1  0.640000  0.835000  0.132400  1.0
  C  C8217  1  0.834900  0.314000  0.135500  1.0
  C  C8218  1  0.665100  0.686000  0.635500  1.0
  C  C8219  1  0.165100  0.814000  0.364500  1.0
  C  C8220  1  0.334900  0.186000  0.864500  1.0
  C  C8221  1  0.165100  0.686000  0.864500  1.0
  C  C8222  1  0.334900  0.314000  0.364500  1.0
  C  C8223  1  0.834900  0.186000  0.635500  1.0
  C  C8224  1  0.665100  0.814000  0.135500  1.0
  C  C8225  1  0.816300  0.318100  0.135100  1.0
  C  C8226  1  0.683700  0.681900  0.635100  1.0
  C  C8227  1  0.183700  0.818100  0.364900  1.0
  C  C8228  1  0.316300  0.181900  0.864900  1.0
  C  C8229  1  0.183700  0.681900  0.864900  1.0
  C  C8230  1  0.316300  0.318100  0.364900  1.0
  C  C8231  1  0.816300  0.181900  0.635100  1.0
  C  C8232  1  0.683700  0.818100  0.135100  1.0
  C  C8233  1  0.806600  0.335800  0.137400  1.0
  C  C8234  1  0.693400  0.664200  0.637400  1.0
  C  C8235  1  0.193400  0.835800  0.362600  1.0
  C  C8236  1  0.306600  0.164200  0.862600  1.0
  C  C8237  1  0.193400  0.664200  0.862600  1.0
  C  C8238  1  0.306600  0.335800  0.362600  1.0
  C  C8239  1  0.806600  0.164200  0.637400  1.0
  C  C8240  1  0.693400  0.835800  0.137400  1.0
  C  C8241  1  0.787400  0.336500  0.137600  1.0
  C  C8242  1  0.712600  0.663500  0.637600  1.0
  C  C8243  1  0.212600  0.836500  0.362400  1.0
  C  C8244  1  0.287400  0.163500  0.862400  1.0
  C  C8245  1  0.212600  0.663500  0.862400  1.0
  C  C8246  1  0.287400  0.336500  0.362400  1.0
  C  C8247  1  0.787400  0.163500  0.637600  1.0
  C  C8248  1  0.712600  0.836500  0.137600  1.0
  C  C8249  1  0.778000  0.352700  0.139700  1.0
  C  C8250  1  0.722000  0.647300  0.639700  1.0
  C  C8251  1  0.222000  0.852700  0.360300  1.0
  C  C8252  1  0.278000  0.147300  0.860300  1.0
  C  C8253  1  0.222000  0.647300  0.860300  1.0
  C  C8254  1  0.278000  0.352700  0.360300  1.0
  C  C8255  1  0.778000  0.147300  0.639700  1.0
  C  C8256  1  0.722000  0.852700  0.139700  1.0
  C  C8257  1  0.805800  0.368300  0.141000  1.0
  C  C8258  1  0.694200  0.631700  0.641000  1.0
  C  C8259  1  0.194200  0.868300  0.359000  1.0
  C  C8260  1  0.305800  0.131700  0.859000  1.0
  C  C8261  1  0.194200  0.631700  0.859000  1.0
  C  C8262  1  0.305800  0.368300  0.359000  1.0
  C  C8263  1  0.805800  0.131700  0.641000  1.0
  C  C8264  1  0.694200  0.868300  0.141000  1.0
  C  C8265  1  0.815700  0.352500  0.139000  1.0
  C  C8266  1  0.684300  0.647500  0.639000  1.0
  C  C8267  1  0.184300  0.852500  0.361000  1.0
  C  C8268  1  0.315700  0.147500  0.861000  1.0
  C  C8269  1  0.184300  0.647500  0.861000  1.0
  C  C8270  1  0.315700  0.352500  0.361000  1.0
  C  C8271  1  0.815700  0.147500  0.639000  1.0
  C  C8272  1  0.684300  0.852500  0.139000  1.0
  C  C8273  1  0.746100  0.366900  0.218000  1.0
  C  C8274  1  0.753900  0.633100  0.718000  1.0
  C  C8275  1  0.253900  0.866900  0.282000  1.0
  C  C8276  1  0.246100  0.133100  0.782000  1.0
  C  C8277  1  0.253900  0.633100  0.782000  1.0
  C  C8278  1  0.246100  0.366900  0.282000  1.0
  C  C8279  1  0.746100  0.133100  0.718000  1.0
  C  C8280  1  0.753900  0.866900  0.218000  1.0
  C  C8281  1  0.736000  0.359000  0.225200  1.0
  C  C8282  1  0.764000  0.641000  0.725200  1.0
  C  C8283  1  0.264000  0.859000  0.274800  1.0
  C  C8284  1  0.236000  0.141000  0.774800  1.0
  C  C8285  1  0.264000  0.641000  0.774800  1.0
  C  C8286  1  0.236000  0.359000  0.274800  1.0
  C  C8287  1  0.736000  0.141000  0.725200  1.0
  C  C8288  1  0.764000  0.859000  0.225200  1.0
  C  C8289  1  0.717000  0.344700  0.214300  1.0
  C  C8290  1  0.783000  0.655300  0.714300  1.0
  C  C8291  1  0.283000  0.844700  0.285700  1.0
  C  C8292  1  0.217000  0.155300  0.785700  1.0
  C  C8293  1  0.283000  0.655300  0.785700  1.0
  C  C8294  1  0.217000  0.344700  0.285700  1.0
  C  C8295  1  0.717000  0.155300  0.714300  1.0
  C  C8296  1  0.783000  0.844700  0.214300  1.0
  C  C8297  1  0.726700  0.352000  0.206800  1.0
  C  C8298  1  0.773300  0.648000  0.706800  1.0
  C  C8299  1  0.273300  0.852000  0.293200  1.0
  C  C8300  1  0.226700  0.148000  0.793200  1.0
  C  C8301  1  0.273300  0.648000  0.793200  1.0
  C  C8302  1  0.226700  0.352000  0.293200  1.0
  C  C8303  1  0.726700  0.148000  0.706800  1.0
  C  C8304  1  0.773300  0.852000  0.206800  1.0
  C  C8305  1  0.741900  0.363600  0.208500  1.0
  C  C8306  1  0.758100  0.636400  0.708500  1.0
  C  C8307  1  0.258100  0.863600  0.291500  1.0
  C  C8308  1  0.241900  0.136400  0.791500  1.0
  C  C8309  1  0.258100  0.636400  0.791500  1.0
  C  C8310  1  0.241900  0.363600  0.291500  1.0
  C  C8311  1  0.741900  0.136400  0.708500  1.0
  C  C8312  1  0.758100  0.863600  0.208500  1.0
  C  C8313  1  0.751400  0.372800  0.200390  1.0
  C  C8314  1  0.748600  0.627200  0.700390  1.0
  C  C8315  1  0.248600  0.872800  0.299610  1.0
  C  C8316  1  0.251400  0.127200  0.799610  1.0
  C  C8317  1  0.248600  0.627200  0.799610  1.0
  C  C8318  1  0.251400  0.372800  0.299610  1.0
  C  C8319  1  0.751400  0.127200  0.700390  1.0
  C  C8320  1  0.748600  0.872800  0.200390  1.0
  C  C8321  1  0.765900  0.385000  0.200500  1.0
  C  C8322  1  0.734100  0.615000  0.700500  1.0
  C  C8323  1  0.234100  0.885000  0.299500  1.0
  C  C8324  1  0.265900  0.115000  0.799500  1.0
  C  C8325  1  0.234100  0.615000  0.799500  1.0
  C  C8326  1  0.265900  0.385000  0.299500  1.0
  C  C8327  1  0.765900  0.115000  0.700500  1.0
  C  C8328  1  0.734100  0.885000  0.200500  1.0
  C  C8329  1  0.790000  0.386200  0.211700  1.0
  C  C8330  1  0.710000  0.613800  0.711700  1.0
  C  C8331  1  0.210000  0.886200  0.288300  1.0
  C  C8332  1  0.290000  0.113800  0.788300  1.0
  C  C8333  1  0.210000  0.613800  0.788300  1.0
  C  C8334  1  0.290000  0.386200  0.288300  1.0
  C  C8335  1  0.790000  0.113800  0.711700  1.0
  C  C8336  1  0.710000  0.886200  0.211700  1.0
  C  C8337  1  0.784200  0.419900  0.192000  1.0
  C  C8338  1  0.715800  0.580100  0.692000  1.0
  C  C8339  1  0.215800  0.919900  0.308000  1.0
  C  C8340  1  0.284200  0.080100  0.808000  1.0
  C  C8341  1  0.215800  0.580100  0.808000  1.0
  C  C8342  1  0.284200  0.419900  0.308000  1.0
  C  C8343  1  0.784200  0.080100  0.692000  1.0
  C  C8344  1  0.715800  0.919900  0.192000  1.0
  C  C8345  1  0.772700  0.389500  0.191600  1.0
  C  C8346  1  0.727300  0.610500  0.691600  1.0
  C  C8347  1  0.227300  0.889500  0.308400  1.0
  C  C8348  1  0.272700  0.110500  0.808400  1.0
  C  C8349  1  0.227300  0.610500  0.808400  1.0
  C  C8350  1  0.272700  0.389500  0.308400  1.0
  C  C8351  1  0.772700  0.110500  0.691600  1.0
  C  C8352  1  0.727300  0.889500  0.191600  1.0
  C  C8353  1  0.763400  0.381400  0.184200  1.0
  C  C8354  1  0.736600  0.618600  0.684200  1.0
  C  C8355  1  0.236600  0.881400  0.315800  1.0
  C  C8356  1  0.263400  0.118600  0.815800  1.0
  C  C8357  1  0.236600  0.618600  0.815800  1.0
  C  C8358  1  0.263400  0.381400  0.315800  1.0
  C  C8359  1  0.763400  0.118600  0.684200  1.0
  C  C8360  1  0.736600  0.881400  0.184200  1.0
  C  C8361  1  0.766200  0.384600  0.173900  1.0
  C  C8362  1  0.733800  0.615400  0.673900  1.0
  C  C8363  1  0.233800  0.884600  0.326100  1.0
  C  C8364  1  0.266200  0.115400  0.826100  1.0
  C  C8365  1  0.233800  0.615400  0.826100  1.0
  C  C8366  1  0.266200  0.384600  0.326100  1.0
  C  C8367  1  0.766200  0.115400  0.673900  1.0
  C  C8368  1  0.733800  0.884600  0.173900  1.0
  C  C8369  1  0.754300  0.376800  0.167300  1.0
  C  C8370  1  0.745700  0.623200  0.667300  1.0
  C  C8371  1  0.245700  0.876800  0.332700  1.0
  C  C8372  1  0.254300  0.123200  0.832700  1.0
  C  C8373  1  0.245700  0.623200  0.832700  1.0
  C  C8374  1  0.254300  0.376800  0.332700  1.0
  C  C8375  1  0.754300  0.123200  0.667300  1.0
  C  C8376  1  0.745700  0.876800  0.167300  1.0
  C  C8377  1  0.757300  0.379200  0.157800  1.0
  C  C8378  1  0.742700  0.620800  0.657800  1.0
  C  C8379  1  0.242700  0.879200  0.342200  1.0
  C  C8380  1  0.257300  0.120800  0.842200  1.0
  C  C8381  1  0.242700  0.620800  0.842200  1.0
  C  C8382  1  0.257300  0.379200  0.342200  1.0
  C  C8383  1  0.757300  0.120800  0.657800  1.0
  C  C8384  1  0.742700  0.879200  0.157800  1.0
  C  C8385  1  0.782800  0.397500  0.160500  1.0
  C  C8386  1  0.717200  0.602500  0.660500  1.0
  C  C8387  1  0.217200  0.897500  0.339500  1.0
  C  C8388  1  0.282800  0.102500  0.839500  1.0
  C  C8389  1  0.217200  0.602500  0.839500  1.0
  C  C8390  1  0.282800  0.397500  0.339500  1.0
  C  C8391  1  0.782800  0.102500  0.660500  1.0
  C  C8392  1  0.717200  0.897500  0.160500  1.0
  C  C8393  1  0.780700  0.395100  0.170100  1.0
  C  C8394  1  0.719300  0.604900  0.670100  1.0
  C  C8395  1  0.219300  0.895100  0.329900  1.0
  C  C8396  1  0.280700  0.104900  0.829900  1.0
  C  C8397  1  0.219300  0.604900  0.829900  1.0
  C  C8398  1  0.280700  0.395100  0.329900  1.0
  C  C8399  1  0.780700  0.104900  0.670100  1.0
  C  C8400  1  0.719300  0.895100  0.170100  1.0
  Se  Se8401  1  0.394600  0.129000  0.995510  1.0
  Se  Se8402  1  0.105400  0.871000  0.495510  1.0
  Se  Se8403  1  0.605400  0.629000  0.504490  1.0
  Se  Se8404  1  0.894600  0.371000  0.004490  1.0
  Se  Se8405  1  0.605400  0.871000  0.004490  1.0
  Se  Se8406  1  0.894600  0.129000  0.504490  1.0
  Se  Se8407  1  0.394600  0.371000  0.495510  1.0
  Se  Se8408  1  0.105400  0.629000  0.995510  1.0
  Se  Se8409  1  0.247900  0.176400  0.055440  1.0
  Se  Se8410  1  0.252100  0.823600  0.555440  1.0
  Se  Se8411  1  0.752100  0.676400  0.444560  1.0
  Se  Se8412  1  0.747900  0.323600  0.944560  1.0
  Se  Se8413  1  0.752100  0.823600  0.944560  1.0
  Se  Se8414  1  0.747900  0.176400  0.444560  1.0
  Se  Se8415  1  0.247900  0.323600  0.555440  1.0
  Se  Se8416  1  0.252100  0.676400  0.055440  1.0
  Se  Se8417  1  0.210300  0.231900  0.147440  1.0
  Se  Se8418  1  0.289700  0.768100  0.647440  1.0
  Se  Se8419  1  0.789700  0.731900  0.352560  1.0
  Se  Se8420  1  0.710300  0.268100  0.852560  1.0
  Se  Se8421  1  0.789700  0.768100  0.852560  1.0
  Se  Se8422  1  0.710300  0.231900  0.352560  1.0
  Se  Se8423  1  0.210300  0.268100  0.647440  1.0
  Se  Se8424  1  0.289700  0.731900  0.147440  1.0
  Se  Se8425  1  0.293900  0.220200  0.234850  1.0
  Se  Se8426  1  0.206100  0.779800  0.734850  1.0
  Se  Se8427  1  0.706100  0.720200  0.265150  1.0
  Se  Se8428  1  0.793900  0.279800  0.765150  1.0
  Se  Se8429  1  0.706100  0.779800  0.765150  1.0
  Se  Se8430  1  0.793900  0.220200  0.265150  1.0
  Se  Se8431  1  0.293900  0.279800  0.734850  1.0
  Se  Se8432  1  0.206100  0.720200  0.234850  1.0
  Se  Se8433  1  0.247400  0.146000  0.182730  1.0
  Se  Se8434  1  0.252600  0.854000  0.682730  1.0
  Se  Se8435  1  0.752600  0.646000  0.317270  1.0
  Se  Se8436  1  0.747400  0.354000  0.817270  1.0
  Se  Se8437  1  0.752600  0.854000  0.817270  1.0
  Se  Se8438  1  0.747400  0.146000  0.317270  1.0
  Se  Se8439  1  0.247400  0.354000  0.682730  1.0
  Se  Se8440  1  0.252600  0.646000  0.182730  1.0
  Se  Se8441  1  0.230200  0.126100  0.123740  1.0
  Se  Se8442  1  0.269800  0.873900  0.623740  1.0
  Se  Se8443  1  0.769800  0.626100  0.376260  1.0
  Se  Se8444  1  0.730200  0.373900  0.876260  1.0
  Se  Se8445  1  0.769800  0.873900  0.876260  1.0
  Se  Se8446  1  0.730200  0.126100  0.376260  1.0
  Se  Se8447  1  0.230200  0.373900  0.623740  1.0
  Se  Se8448  1  0.269800  0.626100  0.123740  1.0
  Se  Se8449  1  0.304400  0.019900  0.115400  1.0
  Se  Se8450  1  0.195600  0.980100  0.615400  1.0
  Se  Se8451  1  0.695600  0.519900  0.384600  1.0
  Se  Se8452  1  0.804400  0.480100  0.884600  1.0
  Se  Se8453  1  0.695600  0.980100  0.884600  1.0
  Se  Se8454  1  0.804400  0.019900  0.384600  1.0
  Se  Se8455  1  0.304400  0.480100  0.615400  1.0
  Se  Se8456  1  0.195600  0.519900  0.115400  1.0
  Se  Se8457  1  0.323400  0.063600  0.043960  1.0
  Se  Se8458  1  0.176600  0.936400  0.543960  1.0
  Se  Se8459  1  0.676600  0.563600  0.456040  1.0
  Se  Se8460  1  0.823400  0.436400  0.956040  1.0
  Se  Se8461  1  0.676600  0.936400  0.956040  1.0
  Se  Se8462  1  0.823400  0.063600  0.456040  1.0
  Se  Se8463  1  0.323400  0.436400  0.543960  1.0
  Se  Se8464  1  0.176600  0.563600  0.043960  1.0
  Se  Se8465  1  0.415000  0.956700  0.110500  1.0
  Se  Se8466  1  0.085000  0.043300  0.610500  1.0
  Se  Se8467  1  0.585000  0.456700  0.389500  1.0
  Se  Se8468  1  0.915000  0.543300  0.889500  1.0
  Se  Se8469  1  0.585000  0.043300  0.889500  1.0
  Se  Se8470  1  0.915000  0.956700  0.389500  1.0
  Se  Se8471  1  0.415000  0.543300  0.610500  1.0
  Se  Se8472  1  0.085000  0.456700  0.110500  1.0
  Se  Se8473  1  0.444100  0.982900  0.053990  1.0
  Se  Se8474  1  0.055900  0.017100  0.553990  1.0
  Se  Se8475  1  0.555900  0.482900  0.446010  1.0
  Se  Se8476  1  0.944100  0.517100  0.946010  1.0
  Se  Se8477  1  0.555900  0.017100  0.946010  1.0
  Se  Se8478  1  0.944100  0.982900  0.446010  1.0
  Se  Se8479  1  0.444100  0.517100  0.553990  1.0
  Se  Se8480  1  0.055900  0.482900  0.053990  1.0
  Se  Se8481  1  0.515900  0.045600  0.010010  1.0
  Se  Se8482  1  0.984100  0.954400  0.510010  1.0
  Se  Se8483  1  0.484100  0.545600  0.489990  1.0
  Se  Se8484  1  0.015900  0.454400  0.989990  1.0
  Se  Se8485  1  0.484100  0.954400  0.989990  1.0
  Se  Se8486  1  0.015900  0.045600  0.489990  1.0
  Se  Se8487  1  0.515900  0.454400  0.510010  1.0
  Se  Se8488  1  0.984100  0.545600  0.010010  1.0
  Se  Se8489  1  0.527600  0.950000  0.092880  1.0
  Se  Se8490  1  0.972400  0.050000  0.592880  1.0
  Se  Se8491  1  0.472400  0.450000  0.407120  1.0
  Se  Se8492  1  0.027600  0.550000  0.907120  1.0
  Se  Se8493  1  0.472400  0.050000  0.907120  1.0
  Se  Se8494  1  0.027600  0.950000  0.407120  1.0
  Se  Se8495  1  0.527600  0.550000  0.592880  1.0
  Se  Se8496  1  0.972400  0.450000  0.092880  1.0
  Se  Se8497  1  0.455300  0.975200  0.182560  1.0
  Se  Se8498  1  0.044700  0.024800  0.682560  1.0
  Se  Se8499  1  0.544700  0.475200  0.317440  1.0
  Se  Se8500  1  0.955300  0.524800  0.817440  1.0
  Se  Se8501  1  0.544700  0.024800  0.817440  1.0
  Se  Se8502  1  0.955300  0.975200  0.317440  1.0
  Se  Se8503  1  0.455300  0.524800  0.682560  1.0
  Se  Se8504  1  0.044700  0.475200  0.182560  1.0
  Se  Se8505  1  0.339700  0.038500  0.190240  1.0
  Se  Se8506  1  0.160300  0.961500  0.690240  1.0
  Se  Se8507  1  0.660300  0.538500  0.309760  1.0
  Se  Se8508  1  0.839700  0.461500  0.809760  1.0
  Se  Se8509  1  0.660300  0.961500  0.809760  1.0
  Se  Se8510  1  0.839700  0.038500  0.309760  1.0
  Se  Se8511  1  0.339700  0.461500  0.690240  1.0
  Se  Se8512  1  0.160300  0.538500  0.190240  1.0
  Se  Se8513  1  0.389500  0.110700  0.246280  1.0
  Se  Se8514  1  0.110500  0.889300  0.746280  1.0
  Se  Se8515  1  0.610500  0.610700  0.253720  1.0
  Se  Se8516  1  0.889500  0.389300  0.753720  1.0
  Se  Se8517  1  0.610500  0.889300  0.753720  1.0
  Se  Se8518  1  0.889500  0.110700  0.253720  1.0
  Se  Se8519  1  0.389500  0.389300  0.746280  1.0
  Se  Se8520  1  0.110500  0.610700  0.246280  1.0
  Se  Se8521  1  0.463500  0.215500  0.279050  1.0
  Se  Se8522  1  0.036500  0.784500  0.779050  1.0
  Se  Se8523  1  0.536500  0.715500  0.220950  1.0
  Se  Se8524  1  0.963500  0.284500  0.720950  1.0
  Se  Se8525  1  0.536500  0.784500  0.720950  1.0
  Se  Se8526  1  0.963500  0.215500  0.220950  1.0
  Se  Se8527  1  0.463500  0.284500  0.779050  1.0
  Se  Se8528  1  0.036500  0.715500  0.279050  1.0
  Se  Se8529  1  0.582900  0.158000  0.269460  1.0
  Se  Se8530  1  0.917100  0.842000  0.769460  1.0
  Se  Se8531  1  0.417100  0.658000  0.230540  1.0
  Se  Se8532  1  0.082900  0.342000  0.730540  1.0
  Se  Se8533  1  0.417100  0.842000  0.730540  1.0
  Se  Se8534  1  0.082900  0.158000  0.230540  1.0
  Se  Se8535  1  0.582900  0.342000  0.769460  1.0
  Se  Se8536  1  0.917100  0.658000  0.269460  1.0
  Se  Se8537  1  0.511400  0.044100  0.238210  1.0
  Se  Se8538  1  0.988600  0.955900  0.738210  1.0
  Se  Se8539  1  0.488600  0.544100  0.261790  1.0
  Se  Se8540  1  0.011400  0.455900  0.761790  1.0
  Se  Se8541  1  0.488600  0.955900  0.761790  1.0
  Se  Se8542  1  0.011400  0.044100  0.261790  1.0
  Se  Se8543  1  0.511400  0.455900  0.738210  1.0
  Se  Se8544  1  0.988600  0.544100  0.238210  1.0
  Se  Se8545  1  0.636400  0.022800  0.207260  1.0
  Se  Se8546  1  0.863600  0.977200  0.707260  1.0
  Se  Se8547  1  0.363600  0.522800  0.292740  1.0
  Se  Se8548  1  0.136400  0.477200  0.792740  1.0
  Se  Se8549  1  0.363600  0.977200  0.792740  1.0
  Se  Se8550  1  0.136400  0.022800  0.292740  1.0
  Se  Se8551  1  0.636400  0.477200  0.707260  1.0
  Se  Se8552  1  0.863600  0.522800  0.207260  1.0
  Se  Se8553  1  0.586900  0.959400  0.152440  1.0
  Se  Se8554  1  0.913100  0.040600  0.652440  1.0
  Se  Se8555  1  0.413100  0.459400  0.347560  1.0
  Se  Se8556  1  0.086900  0.540600  0.847560  1.0
  Se  Se8557  1  0.413100  0.040600  0.847560  1.0
  Se  Se8558  1  0.086900  0.959400  0.347560  1.0
  Se  Se8559  1  0.586900  0.540600  0.652440  1.0
  Se  Se8560  1  0.913100  0.459400  0.152440  1.0
  Se  Se8561  1  0.703800  0.019540  0.115190  1.0
  Se  Se8562  1  0.796200  0.980460  0.615190  1.0
  Se  Se8563  1  0.296200  0.519540  0.384810  1.0
  Se  Se8564  1  0.203800  0.480460  0.884810  1.0
  Se  Se8565  1  0.296200  0.980460  0.884810  1.0
  Se  Se8566  1  0.203800  0.019540  0.384810  1.0
  Se  Se8567  1  0.703800  0.480460  0.615190  1.0
  Se  Se8568  1  0.796200  0.519540  0.115190  1.0
  Se  Se8569  1  0.635200  0.013200  0.054490  1.0
  Se  Se8570  1  0.864800  0.986800  0.554490  1.0
  Se  Se8571  1  0.364800  0.513200  0.445510  1.0
  Se  Se8572  1  0.135200  0.486800  0.945510  1.0
  Se  Se8573  1  0.364800  0.986800  0.945510  1.0
  Se  Se8574  1  0.135200  0.013200  0.445510  1.0
  Se  Se8575  1  0.635200  0.486800  0.554490  1.0
  Se  Se8576  1  0.864800  0.513200  0.054490  1.0
  Se  Se8577  1  0.703400  0.119100  0.030410  1.0
  Se  Se8578  1  0.796600  0.880900  0.530410  1.0
  Se  Se8579  1  0.296600  0.619100  0.469590  1.0
  Se  Se8580  1  0.203400  0.380900  0.969590  1.0
  Se  Se8581  1  0.296600  0.880900  0.969590  1.0
  Se  Se8582  1  0.203400  0.119100  0.469590  1.0
  Se  Se8583  1  0.703400  0.380900  0.530410  1.0
  Se  Se8584  1  0.796600  0.619100  0.030410  1.0
  Se  Se8585  1  0.585800  0.144700  0.987510  1.0
  Se  Se8586  1  0.914200  0.855300  0.487510  1.0
  Se  Se8587  1  0.414200  0.644700  0.512490  1.0
  Se  Se8588  1  0.085800  0.355300  0.012490  1.0
  Se  Se8589  1  0.414200  0.855300  0.012490  1.0
  Se  Se8590  1  0.085800  0.144700  0.512490  1.0
  Se  Se8591  1  0.585800  0.355300  0.487510  1.0
  Se  Se8592  1  0.914200  0.644700  0.987510  1.0
  Se  Se8593  1  0.607500  0.258200  0.983490  1.0
  Se  Se8594  1  0.892500  0.741800  0.483490  1.0
  Se  Se8595  1  0.392500  0.758200  0.516510  1.0
  Se  Se8596  1  0.107500  0.241800  0.016510  1.0
  Se  Se8597  1  0.392500  0.741800  0.016510  1.0
  Se  Se8598  1  0.107500  0.258200  0.516510  1.0
  Se  Se8599  1  0.607500  0.241800  0.483490  1.0
  Se  Se8600  1  0.892500  0.758200  0.983490  1.0
  Se  Se8601  1  0.497700  0.219400  0.973760  1.0
  Se  Se8602  1  0.002300  0.780600  0.473760  1.0
  Se  Se8603  1  0.502300  0.719400  0.526240  1.0
  Se  Se8604  1  0.997700  0.280600  0.026240  1.0
  Se  Se8605  1  0.502300  0.780600  0.026240  1.0
  Se  Se8606  1  0.997700  0.219400  0.526240  1.0
  Se  Se8607  1  0.497700  0.280600  0.473760  1.0
  Se  Se8608  1  0.002300  0.719400  0.973760  1.0
  Se  Se8609  1  0.430500  0.329600  0.986040  1.0
  Se  Se8610  1  0.069500  0.670400  0.486040  1.0
  Se  Se8611  1  0.569500  0.829600  0.513960  1.0
  Se  Se8612  1  0.930500  0.170400  0.013960  1.0
  Se  Se8613  1  0.569500  0.670400  0.013960  1.0
  Se  Se8614  1  0.930500  0.329600  0.513960  1.0
  Se  Se8615  1  0.430500  0.170400  0.486040  1.0
  Se  Se8616  1  0.069500  0.829600  0.986040  1.0
  Se  Se8617  1  0.316100  0.242800  0.006240  1.0
  Se  Se8618  1  0.183900  0.757200  0.506240  1.0
  Se  Se8619  1  0.683900  0.742800  0.493760  1.0
  Se  Se8620  1  0.816100  0.257200  0.993760  1.0
  Se  Se8621  1  0.683900  0.757200  0.993760  1.0
  Se  Se8622  1  0.816100  0.242800  0.493760  1.0
  Se  Se8623  1  0.316100  0.257200  0.506240  1.0
  Se  Se8624  1  0.183900  0.742800  0.006240  1.0
  Se  Se8625  1  0.283300  0.365400  0.043930  1.0
  Se  Se8626  1  0.216700  0.634600  0.543930  1.0
  Se  Se8627  1  0.716700  0.865400  0.456070  1.0
  Se  Se8628  1  0.783300  0.134600  0.956070  1.0
  Se  Se8629  1  0.716700  0.634600  0.956070  1.0
  Se  Se8630  1  0.783300  0.365400  0.456070  1.0
  Se  Se8631  1  0.283300  0.134600  0.543930  1.0
  Se  Se8632  1  0.216700  0.865400  0.043930  1.0
  Se  Se8633  1  0.219400  0.304800  0.092490  1.0
  Se  Se8634  1  0.280600  0.695200  0.592490  1.0
  Se  Se8635  1  0.780600  0.804800  0.407510  1.0
  Se  Se8636  1  0.719400  0.195200  0.907510  1.0
  Se  Se8637  1  0.780600  0.695200  0.907510  1.0
  Se  Se8638  1  0.719400  0.304800  0.407510  1.0
  Se  Se8639  1  0.219400  0.195200  0.592490  1.0
  Se  Se8640  1  0.280600  0.804800  0.092490  1.0
  Se  Se8641  1  0.267000  0.416200  0.137950  1.0
  Se  Se8642  1  0.233000  0.583800  0.637950  1.0
  Se  Se8643  1  0.733000  0.916200  0.362050  1.0
  Se  Se8644  1  0.767000  0.083800  0.862050  1.0
  Se  Se8645  1  0.733000  0.583800  0.862050  1.0
  Se  Se8646  1  0.767000  0.416200  0.362050  1.0
  Se  Se8647  1  0.267000  0.083800  0.637950  1.0
  Se  Se8648  1  0.233000  0.916200  0.137950  1.0
  Se  Se8649  1  0.258300  0.335700  0.193260  1.0
  Se  Se8650  1  0.241700  0.664300  0.693260  1.0
  Se  Se8651  1  0.741700  0.835700  0.306740  1.0
  Se  Se8652  1  0.758300  0.164300  0.806740  1.0
  Se  Se8653  1  0.741700  0.664300  0.806740  1.0
  Se  Se8654  1  0.758300  0.335700  0.306740  1.0
  Se  Se8655  1  0.258300  0.164300  0.693260  1.0
  Se  Se8656  1  0.241700  0.835700  0.193260  1.0
  Se  Se8657  1  0.356700  0.414600  0.226780  1.0
  Se  Se8658  1  0.143300  0.585400  0.726780  1.0
  Se  Se8659  1  0.643300  0.914600  0.273220  1.0
  Se  Se8660  1  0.856700  0.085400  0.773220  1.0
  Se  Se8661  1  0.643300  0.585400  0.773220  1.0
  Se  Se8662  1  0.856700  0.414600  0.273220  1.0
  Se  Se8663  1  0.356700  0.085400  0.726780  1.0
  Se  Se8664  1  0.143300  0.914600  0.226780  1.0
  Se  Se8665  1  0.384400  0.297900  0.266000  1.0
  Se  Se8666  1  0.115600  0.702100  0.766000  1.0
  Se  Se8667  1  0.615600  0.797900  0.234000  1.0
  Se  Se8668  1  0.884400  0.202100  0.734000  1.0
  Se  Se8669  1  0.615600  0.702100  0.734000  1.0
  Se  Se8670  1  0.884400  0.297900  0.234000  1.0
  Se  Se8671  1  0.384400  0.202100  0.766000  1.0
  Se  Se8672  1  0.115600  0.797900  0.266000  1.0
  Se  Se8673  1  0.496200  0.327700  0.276580  1.0
  Se  Se8674  1  0.003800  0.672300  0.776580  1.0
  Se  Se8675  1  0.503800  0.827700  0.223420  1.0
  Se  Se8676  1  0.996200  0.172300  0.723420  1.0
  Se  Se8677  1  0.503800  0.672300  0.723420  1.0
  Se  Se8678  1  0.996200  0.327700  0.223420  1.0
  Se  Se8679  1  0.496200  0.172300  0.776580  1.0
  Se  Se8680  1  0.003800  0.827700  0.276580  1.0
  Se  Se8681  1  0.497700  0.442200  0.243670  1.0
  Se  Se8682  1  0.002300  0.557800  0.743670  1.0
  Se  Se8683  1  0.502300  0.942200  0.256330  1.0
  Se  Se8684  1  0.997700  0.057800  0.756330  1.0
  Se  Se8685  1  0.502300  0.557800  0.756330  1.0
  Se  Se8686  1  0.997700  0.442200  0.256330  1.0
  Se  Se8687  1  0.497700  0.057800  0.743670  1.0
  Se  Se8688  1  0.002300  0.942200  0.243670  1.0
  Se  Se8689  1  0.501400  0.517700  0.188970  1.0
  Se  Se8690  1  0.998600  0.482300  0.688970  1.0
  Se  Se8691  1  0.498600  0.017700  0.311030  1.0
  Se  Se8692  1  0.001400  0.982300  0.811030  1.0
  Se  Se8693  1  0.498600  0.482300  0.811030  1.0
  Se  Se8694  1  0.001400  0.517700  0.311030  1.0
  Se  Se8695  1  0.501400  0.982300  0.688970  1.0
  Se  Se8696  1  0.998600  0.017700  0.188970  1.0
  Se  Se8697  1  0.364600  0.492300  0.168090  1.0
  Se  Se8698  1  0.135400  0.507700  0.668090  1.0
  Se  Se8699  1  0.635400  0.992300  0.331910  1.0
  Se  Se8700  1  0.864600  0.007700  0.831910  1.0
  Se  Se8701  1  0.635400  0.507700  0.831910  1.0
  Se  Se8702  1  0.864600  0.492300  0.331910  1.0
  Se  Se8703  1  0.364600  0.007700  0.668090  1.0
  Se  Se8704  1  0.135400  0.992300  0.168090  1.0
  Se  Se8705  1  0.422300  0.528500  0.102250  1.0
  Se  Se8706  1  0.077700  0.471500  0.602250  1.0
  Se  Se8707  1  0.577700  0.028500  0.397750  1.0
  Se  Se8708  1  0.922300  0.971500  0.897750  1.0
  Se  Se8709  1  0.577700  0.471500  0.897750  1.0
  Se  Se8710  1  0.922300  0.528500  0.397750  1.0
  Se  Se8711  1  0.422300  0.971500  0.602250  1.0
  Se  Se8712  1  0.077700  0.028500  0.102250  1.0
  Se  Se8713  1  0.324700  0.457800  0.075060  1.0
  Se  Se8714  1  0.175300  0.542200  0.575060  1.0
  Se  Se8715  1  0.675300  0.957800  0.424940  1.0
  Se  Se8716  1  0.824700  0.042200  0.924940  1.0
  Se  Se8717  1  0.675300  0.542200  0.924940  1.0
  Se  Se8718  1  0.824700  0.457800  0.424940  1.0
  Se  Se8719  1  0.324700  0.042200  0.575060  1.0
  Se  Se8720  1  0.175300  0.957800  0.075060  1.0
  Se  Se8721  1  0.377100  0.421700  0.025060  1.0
  Se  Se8722  1  0.122900  0.578300  0.525060  1.0
  Se  Se8723  1  0.622900  0.921700  0.474940  1.0
  Se  Se8724  1  0.877100  0.078300  0.974940  1.0
  Se  Se8725  1  0.622900  0.578300  0.974940  1.0
  Se  Se8726  1  0.877100  0.421700  0.474940  1.0
  Se  Se8727  1  0.377100  0.078300  0.525060  1.0
  Se  Se8728  1  0.122900  0.921700  0.025060  1.0
  Se  Se8729  1  0.504100  0.486100  0.042000  1.0
  Se  Se8730  1  0.995900  0.513900  0.542000  1.0
  Se  Se8731  1  0.495900  0.986100  0.458000  1.0
  Se  Se8732  1  0.004100  0.013900  0.958000  1.0
  Se  Se8733  1  0.495900  0.513900  0.958000  1.0
  Se  Se8734  1  0.004100  0.486100  0.458000  1.0
  Se  Se8735  1  0.504100  0.013900  0.542000  1.0
  Se  Se8736  1  0.995900  0.986100  0.042000  1.0
  Se  Se8737  1  0.562900  0.392400  0.001000  1.0
  Se  Se8738  1  0.937100  0.607600  0.501000  1.0
  Se  Se8739  1  0.437100  0.892400  0.499000  1.0
  Se  Se8740  1  0.062900  0.107600  0.999000  1.0
  Se  Se8741  1  0.437100  0.607600  0.999000  1.0
  Se  Se8742  1  0.062900  0.392400  0.499000  1.0
  Se  Se8743  1  0.562900  0.107600  0.501000  1.0
  Se  Se8744  1  0.937100  0.892400  0.001000  1.0
  Se  Se8745  1  0.681200  0.404700  0.035370  1.0
  Se  Se8746  1  0.818800  0.595300  0.535370  1.0
  Se  Se8747  1  0.318800  0.904700  0.464630  1.0
  Se  Se8748  1  0.181200  0.095300  0.964630  1.0
  Se  Se8749  1  0.318800  0.595300  0.964630  1.0
  Se  Se8750  1  0.181200  0.404700  0.464630  1.0
  Se  Se8751  1  0.681200  0.095300  0.535370  1.0
  Se  Se8752  1  0.818800  0.904700  0.035370  1.0
  Se  Se8753  1  0.722400  0.264000  0.017470  1.0
  Se  Se8754  1  0.777600  0.736000  0.517470  1.0
  Se  Se8755  1  0.277600  0.764000  0.482530  1.0
  Se  Se8756  1  0.222400  0.236000  0.982530  1.0
  Se  Se8757  1  0.277600  0.736000  0.982530  1.0
  Se  Se8758  1  0.222400  0.264000  0.482530  1.0
  Se  Se8759  1  0.722400  0.236000  0.517470  1.0
  Se  Se8760  1  0.777600  0.764000  0.017470  1.0
  Se  Se8761  1  0.791500  0.267700  0.073540  1.0
  Se  Se8762  1  0.708500  0.732300  0.573540  1.0
  Se  Se8763  1  0.208500  0.767700  0.426460  1.0
  Se  Se8764  1  0.291500  0.232300  0.926460  1.0
  Se  Se8765  1  0.208500  0.732300  0.926460  1.0
  Se  Se8766  1  0.291500  0.267700  0.426460  1.0
  Se  Se8767  1  0.791500  0.232300  0.573540  1.0
  Se  Se8768  1  0.708500  0.767700  0.073540  1.0
  Se  Se8769  1  0.776300  0.127600  0.090040  1.0
  Se  Se8770  1  0.723700  0.872400  0.590040  1.0
  Se  Se8771  1  0.223700  0.627600  0.409960  1.0
  Se  Se8772  1  0.276300  0.372400  0.909960  1.0
  Se  Se8773  1  0.223700  0.872400  0.909960  1.0
  Se  Se8774  1  0.276300  0.127600  0.409960  1.0
  Se  Se8775  1  0.776300  0.372400  0.590040  1.0
  Se  Se8776  1  0.723700  0.627600  0.090040  1.0
  Se  Se8777  1  0.797500  0.178400  0.159210  1.0
  Se  Se8778  1  0.702500  0.821600  0.659210  1.0
  Se  Se8779  1  0.202500  0.678400  0.340790  1.0
  Se  Se8780  1  0.297500  0.321600  0.840790  1.0
  Se  Se8781  1  0.202500  0.821600  0.840790  1.0
  Se  Se8782  1  0.297500  0.178400  0.340790  1.0
  Se  Se8783  1  0.797500  0.321600  0.659210  1.0
  Se  Se8784  1  0.702500  0.678400  0.159210  1.0
  Se  Se8785  1  0.730200  0.072200  0.181670  1.0
  Se  Se8786  1  0.769800  0.927800  0.681670  1.0
  Se  Se8787  1  0.269800  0.572200  0.318330  1.0
  Se  Se8788  1  0.230200  0.427800  0.818330  1.0
  Se  Se8789  1  0.269800  0.927800  0.818330  1.0
  Se  Se8790  1  0.230200  0.072200  0.318330  1.0
  Se  Se8791  1  0.730200  0.427800  0.681670  1.0
  Se  Se8792  1  0.769800  0.572200  0.181670  1.0
  Se  Se8793  1  0.687400  0.115900  0.232120  1.0
  Se  Se8794  1  0.812600  0.884100  0.732120  1.0
  Se  Se8795  1  0.312600  0.615900  0.267880  1.0
  Se  Se8796  1  0.187400  0.384100  0.767880  1.0
  Se  Se8797  1  0.312600  0.884100  0.767880  1.0
  Se  Se8798  1  0.187400  0.115900  0.267880  1.0
  Se  Se8799  1  0.687400  0.384100  0.732120  1.0
  Se  Se8800  1  0.812600  0.615900  0.232120  1.0
  Se  Se8801  1  0.741260  0.245350  0.221370  1.0
  Se  Se8802  1  0.758740  0.754650  0.721370  1.0
  Se  Se8803  1  0.258740  0.745350  0.278630  1.0
  Se  Se8804  1  0.241260  0.254650  0.778630  1.0
  Se  Se8805  1  0.258740  0.754650  0.778630  1.0
  Se  Se8806  1  0.241260  0.245350  0.278630  1.0
  Se  Se8807  1  0.741260  0.254650  0.721370  1.0
  Se  Se8808  1  0.758740  0.745350  0.221370  1.0
  Se  Se8809  1  0.635300  0.292200  0.261230  1.0
  Se  Se8810  1  0.864700  0.707800  0.761230  1.0
  Se  Se8811  1  0.364700  0.792200  0.238770  1.0
  Se  Se8812  1  0.135300  0.207800  0.738770  1.0
  Se  Se8813  1  0.364700  0.707800  0.738770  1.0
  Se  Se8814  1  0.135300  0.292200  0.238770  1.0
  Se  Se8815  1  0.635300  0.207800  0.761230  1.0
  Se  Se8816  1  0.864700  0.792200  0.261230  1.0
  Se  Se8817  1  0.642900  0.412700  0.228550  1.0
  Se  Se8818  1  0.857100  0.587300  0.728550  1.0
  Se  Se8819  1  0.357100  0.912700  0.271450  1.0
  Se  Se8820  1  0.142900  0.087300  0.771450  1.0
  Se  Se8821  1  0.357100  0.587300  0.771450  1.0
  Se  Se8822  1  0.142900  0.412700  0.271450  1.0
  Se  Se8823  1  0.642900  0.087300  0.728550  1.0
  Se  Se8824  1  0.857100  0.912700  0.228550  1.0
  Se  Se8825  1  0.615100  0.508100  0.174570  1.0
  Se  Se8826  1  0.884900  0.491900  0.674570  1.0
  Se  Se8827  1  0.384900  0.008100  0.325430  1.0
  Se  Se8828  1  0.115100  0.991900  0.825430  1.0
  Se  Se8829  1  0.384900  0.491900  0.825430  1.0
  Se  Se8830  1  0.115100  0.508100  0.325430  1.0
  Se  Se8831  1  0.615100  0.991900  0.674570  1.0
  Se  Se8832  1  0.884900  0.008100  0.174570  1.0
  Se  Se8833  1  0.536900  0.545300  0.133570  1.0
  Se  Se8834  1  0.963100  0.454700  0.633570  1.0
  Se  Se8835  1  0.463100  0.045300  0.366430  1.0
  Se  Se8836  1  0.036900  0.954700  0.866430  1.0
  Se  Se8837  1  0.463100  0.454700  0.866430  1.0
  Se  Se8838  1  0.036900  0.545300  0.366430  1.0
  Se  Se8839  1  0.536900  0.954700  0.633570  1.0
  Se  Se8840  1  0.963100  0.045300  0.133570  1.0
  Se  Se8841  1  0.621100  0.502200  0.077750  1.0
  Se  Se8842  1  0.878900  0.497800  0.577750  1.0
  Se  Se8843  1  0.378900  0.002200  0.422250  1.0
  Se  Se8844  1  0.121100  0.997800  0.922250  1.0
  Se  Se8845  1  0.378900  0.497800  0.922250  1.0
  Se  Se8846  1  0.121100  0.502200  0.422250  1.0
  Se  Se8847  1  0.621100  0.997800  0.577750  1.0
  Se  Se8848  1  0.878900  0.002200  0.077750  1.0
  Se  Se8849  1  0.709500  0.465900  0.132500  1.0
  Se  Se8850  1  0.790500  0.534100  0.632500  1.0
  Se  Se8851  1  0.290500  0.965900  0.367500  1.0
  Se  Se8852  1  0.209500  0.034100  0.867500  1.0
  Se  Se8853  1  0.290500  0.534100  0.867500  1.0
  Se  Se8854  1  0.209500  0.465900  0.367500  1.0
  Se  Se8855  1  0.709500  0.034100  0.632500  1.0
  Se  Se8856  1  0.790500  0.965900  0.132500  1.0
  Se  Se8857  1  0.766600  0.376800  0.090950  1.0
  Se  Se8858  1  0.733400  0.623200  0.590950  1.0
  Se  Se8859  1  0.233400  0.876800  0.409050  1.0
  Se  Se8860  1  0.266600  0.123200  0.909050  1.0
  Se  Se8861  1  0.233400  0.623200  0.909050  1.0
  Se  Se8862  1  0.266600  0.376800  0.409050  1.0
  Se  Se8863  1  0.766600  0.123200  0.590950  1.0
  Se  Se8864  1  0.733400  0.876800  0.090950  1.0
  Se  Se8865  1  0.803100  0.298600  0.130750  1.0
  Se  Se8866  1  0.696900  0.701400  0.630750  1.0
  Se  Se8867  1  0.196900  0.798600  0.369250  1.0
  Se  Se8868  1  0.303100  0.201400  0.869250  1.0
  Se  Se8869  1  0.196900  0.701400  0.869250  1.0
  Se  Se8870  1  0.303100  0.298600  0.369250  1.0
  Se  Se8871  1  0.803100  0.201400  0.630750  1.0
  Se  Se8872  1  0.696900  0.798600  0.130750  1.0
  Se  Se8873  1  0.745200  0.366600  0.188490  1.0
  Se  Se8874  1  0.754800  0.633400  0.688490  1.0
  Se  Se8875  1  0.254800  0.866600  0.311510  1.0
  Se  Se8876  1  0.245200  0.133400  0.811510  1.0
  Se  Se8877  1  0.254800  0.633400  0.811510  1.0
  Se  Se8878  1  0.245200  0.366600  0.311510  1.0
  Se  Se8879  1  0.745200  0.133400  0.688490  1.0
  Se  Se8880  1  0.754800  0.866600  0.188490  1.0
  N  N8881  1  0.462900  0.118600  0.981700  1.0
  N  N8882  1  0.037100  0.881400  0.481700  1.0
  N  N8883  1  0.537100  0.618600  0.518300  1.0
  N  N8884  1  0.962900  0.381400  0.018300  1.0
  N  N8885  1  0.537100  0.881400  0.018300  1.0
  N  N8886  1  0.962900  0.118600  0.518300  1.0
  N  N8887  1  0.462900  0.381400  0.481700  1.0
  N  N8888  1  0.037100  0.618600  0.981700  1.0
  N  N8889  1  0.323600  0.137600  0.007500  1.0
  N  N8890  1  0.176400  0.862400  0.507500  1.0
  N  N8891  1  0.676400  0.637600  0.492500  1.0
  N  N8892  1  0.823600  0.362400  0.992500  1.0
  N  N8893  1  0.676400  0.862400  0.992500  1.0
  N  N8894  1  0.823600  0.137600  0.492500  1.0
  N  N8895  1  0.323600  0.362400  0.507500  1.0
  N  N8896  1  0.176400  0.637600  0.007500  1.0
  N  N8897  1  0.209200  0.200900  0.085400  1.0
  N  N8898  1  0.290800  0.799100  0.585400  1.0
  N  N8899  1  0.790800  0.700900  0.414600  1.0
  N  N8900  1  0.709200  0.299100  0.914600  1.0
  N  N8901  1  0.790800  0.799100  0.914600  1.0
  N  N8902  1  0.709200  0.200900  0.414600  1.0
  N  N8903  1  0.209200  0.299100  0.585400  1.0
  N  N8904  1  0.290800  0.700900  0.085400  1.0
  N  N8905  1  0.283500  0.152400  0.024000  1.0
  N  N8906  1  0.216500  0.847600  0.524000  1.0
  N  N8907  1  0.716500  0.652400  0.476000  1.0
  N  N8908  1  0.783500  0.347600  0.976000  1.0
  N  N8909  1  0.716500  0.847600  0.976000  1.0
  N  N8910  1  0.783500  0.152400  0.476000  1.0
  N  N8911  1  0.283500  0.347600  0.524000  1.0
  N  N8912  1  0.216500  0.652400  0.024000  1.0
  N  N8913  1  0.198300  0.215200  0.110800  1.0
  N  N8914  1  0.301700  0.784800  0.610800  1.0
  N  N8915  1  0.801700  0.715200  0.389200  1.0
  N  N8916  1  0.698300  0.284800  0.889200  1.0
  N  N8917  1  0.801700  0.784800  0.889200  1.0
  N  N8918  1  0.698300  0.215200  0.389200  1.0
  N  N8919  1  0.198300  0.284800  0.610800  1.0
  N  N8920  1  0.301700  0.715200  0.110800  1.0
  N  N8921  1  0.219300  0.241500  0.184400  1.0
  N  N8922  1  0.280700  0.758500  0.684400  1.0
  N  N8923  1  0.780700  0.741500  0.315600  1.0
  N  N8924  1  0.719300  0.258500  0.815600  1.0
  N  N8925  1  0.780700  0.758500  0.815600  1.0
  N  N8926  1  0.719300  0.241500  0.315600  1.0
  N  N8927  1  0.219300  0.258500  0.684400  1.0
  N  N8928  1  0.280700  0.741500  0.184400  1.0
  N  N8929  1  0.344100  0.201200  0.260700  1.0
  N  N8930  1  0.155900  0.798800  0.760700  1.0
  N  N8931  1  0.655900  0.701200  0.239300  1.0
  N  N8932  1  0.844100  0.298800  0.739300  1.0
  N  N8933  1  0.655900  0.798800  0.739300  1.0
  N  N8934  1  0.844100  0.201200  0.239300  1.0
  N  N8935  1  0.344100  0.298800  0.760700  1.0
  N  N8936  1  0.155900  0.701200  0.260700  1.0
  N  N8937  1  0.241000  0.237400  0.209900  1.0
  N  N8938  1  0.259000  0.762600  0.709900  1.0
  N  N8939  1  0.759000  0.737400  0.290100  1.0
  N  N8940  1  0.741000  0.262600  0.790100  1.0
  N  N8941  1  0.759000  0.762600  0.790100  1.0
  N  N8942  1  0.741000  0.237400  0.290100  1.0
  N  N8943  1  0.241000  0.262600  0.709900  1.0
  N  N8944  1  0.259000  0.737400  0.209900  1.0
  N  N8945  1  0.229300  0.213100  0.195300  1.0
  N  N8946  1  0.270700  0.786900  0.695300  1.0
  N  N8947  1  0.770700  0.713100  0.304700  1.0
  N  N8948  1  0.729300  0.286900  0.804700  1.0
  N  N8949  1  0.770700  0.786900  0.804700  1.0
  N  N8950  1  0.729300  0.213100  0.304700  1.0
  N  N8951  1  0.229300  0.286900  0.695300  1.0
  N  N8952  1  0.270700  0.713100  0.195300  1.0
  N  N8953  1  0.257200  0.078100  0.167200  1.0
  N  N8954  1  0.242800  0.921900  0.667200  1.0
  N  N8955  1  0.742800  0.578100  0.332800  1.0
  N  N8956  1  0.757200  0.421900  0.832800  1.0
  N  N8957  1  0.742800  0.921900  0.832800  1.0
  N  N8958  1  0.757200  0.078100  0.332800  1.0
  N  N8959  1  0.257200  0.421900  0.667200  1.0
  N  N8960  1  0.242800  0.578100  0.167200  1.0
  N  N8961  1  0.206200  0.182400  0.102800  1.0
  N  N8962  1  0.293800  0.817600  0.602800  1.0
  N  N8963  1  0.793800  0.682400  0.397200  1.0
  N  N8964  1  0.706200  0.317600  0.897200  1.0
  N  N8965  1  0.793800  0.817600  0.897200  1.0
  N  N8966  1  0.706200  0.182400  0.397200  1.0
  N  N8967  1  0.206200  0.317600  0.602800  1.0
  N  N8968  1  0.293800  0.682400  0.102800  1.0
  N  N8969  1  0.250800  0.074000  0.148000  1.0
  N  N8970  1  0.249200  0.926000  0.648000  1.0
  N  N8971  1  0.749200  0.574000  0.352000  1.0
  N  N8972  1  0.750800  0.426000  0.852000  1.0
  N  N8973  1  0.749200  0.926000  0.852000  1.0
  N  N8974  1  0.750800  0.074000  0.352000  1.0
  N  N8975  1  0.250800  0.426000  0.648000  1.0
  N  N8976  1  0.249200  0.574000  0.148000  1.0
  N  N8977  1  0.333000  0.993300  0.083400  1.0
  N  N8978  1  0.167000  0.006700  0.583400  1.0
  N  N8979  1  0.667000  0.493300  0.416600  1.0
  N  N8980  1  0.833000  0.506700  0.916600  1.0
  N  N8981  1  0.667000  0.006700  0.916600  1.0
  N  N8982  1  0.833000  0.993300  0.416600  1.0
  N  N8983  1  0.333000  0.506700  0.583400  1.0
  N  N8984  1  0.167000  0.493300  0.083400  1.0
  N  N8985  1  0.273400  0.042800  0.147600  1.0
  N  N8986  1  0.226600  0.957200  0.647600  1.0
  N  N8987  1  0.726600  0.542800  0.352400  1.0
  N  N8988  1  0.773400  0.457200  0.852400  1.0
  N  N8989  1  0.726600  0.957200  0.852400  1.0
  N  N8990  1  0.773400  0.042800  0.352400  1.0
  N  N8991  1  0.273400  0.457200  0.647600  1.0
  N  N8992  1  0.226600  0.542800  0.147600  1.0
  N  N8993  1  0.303600  0.121000  0.021200  1.0
  N  N8994  1  0.196400  0.879000  0.521200  1.0
  N  N8995  1  0.696400  0.621000  0.478800  1.0
  N  N8996  1  0.803600  0.379000  0.978800  1.0
  N  N8997  1  0.696400  0.879000  0.978800  1.0
  N  N8998  1  0.803600  0.121000  0.478800  1.0
  N  N8999  1  0.303600  0.379000  0.521200  1.0
  N  N9000  1  0.196400  0.621000  0.021200  1.0
  N  N9001  1  0.340300  0.004700  0.064800  1.0
  N  N9002  1  0.159700  0.995300  0.564800  1.0
  N  N9003  1  0.659700  0.504700  0.435200  1.0
  N  N9004  1  0.840300  0.495300  0.935200  1.0
  N  N9005  1  0.659700  0.995300  0.935200  1.0
  N  N9006  1  0.840300  0.004700  0.435200  1.0
  N  N9007  1  0.340300  0.495300  0.564800  1.0
  N  N9008  1  0.159700  0.504700  0.064800  1.0
  N  N9009  1  0.468400  0.935800  0.133800  1.0
  N  N9010  1  0.031600  0.064200  0.633800  1.0
  N  N9011  1  0.531600  0.435800  0.366200  1.0
  N  N9012  1  0.968400  0.564200  0.866200  1.0
  N  N9013  1  0.531600  0.064200  0.866200  1.0
  N  N9014  1  0.968400  0.935800  0.366200  1.0
  N  N9015  1  0.468400  0.564200  0.633800  1.0
  N  N9016  1  0.031600  0.435800  0.133800  1.0
  N  N9017  1  0.365300  0.973800  0.083600  1.0
  N  N9018  1  0.134700  0.026200  0.583600  1.0
  N  N9019  1  0.634700  0.473800  0.416400  1.0
  N  N9020  1  0.865300  0.526200  0.916400  1.0
  N  N9021  1  0.634700  0.026200  0.916400  1.0
  N  N9022  1  0.865300  0.973800  0.416400  1.0
  N  N9023  1  0.365300  0.526200  0.583600  1.0
  N  N9024  1  0.134700  0.473800  0.083600  1.0
  N  N9025  1  0.373300  0.983600  0.065600  1.0
  N  N9026  1  0.126700  0.016400  0.565600  1.0
  N  N9027  1  0.626700  0.483600  0.434400  1.0
  N  N9028  1  0.873300  0.516400  0.934400  1.0
  N  N9029  1  0.626700  0.016400  0.934400  1.0
  N  N9030  1  0.873300  0.983600  0.434400  1.0
  N  N9031  1  0.373300  0.516400  0.565600  1.0
  N  N9032  1  0.126700  0.483600  0.065600  1.0
  N  N9033  1  0.515900  0.973500  0.044600  1.0
  N  N9034  1  0.984100  0.026500  0.544600  1.0
  N  N9035  1  0.484100  0.473500  0.455400  1.0
  N  N9036  1  0.015900  0.526500  0.955400  1.0
  N  N9037  1  0.484100  0.026500  0.955400  1.0
  N  N9038  1  0.015900  0.973500  0.455400  1.0
  N  N9039  1  0.515900  0.526500  0.544600  1.0
  N  N9040  1  0.984100  0.473500  0.044600  1.0
  N  N9041  1  0.540800  0.992400  0.033400  1.0
  N  N9042  1  0.959200  0.007600  0.533400  1.0
  N  N9043  1  0.459200  0.492400  0.466600  1.0
  N  N9044  1  0.040800  0.507600  0.966600  1.0
  N  N9045  1  0.459200  0.007600  0.966600  1.0
  N  N9046  1  0.040800  0.992400  0.466600  1.0
  N  N9047  1  0.540800  0.507600  0.533400  1.0
  N  N9048  1  0.959200  0.492400  0.033400  1.0
  N  N9049  1  0.492500  0.095400  0.984800  1.0
  N  N9050  1  0.007500  0.904600  0.484800  1.0
  N  N9051  1  0.507500  0.595400  0.515200  1.0
  N  N9052  1  0.992500  0.404600  0.015200  1.0
  N  N9053  1  0.507500  0.904600  0.015200  1.0
  N  N9054  1  0.992500  0.095400  0.515200  1.0
  N  N9055  1  0.492500  0.404600  0.484800  1.0
  N  N9056  1  0.007500  0.595400  0.984800  1.0
  N  N9057  1  0.543600  0.963200  0.056600  1.0
  N  N9058  1  0.956400  0.036800  0.556600  1.0
  N  N9059  1  0.456400  0.463200  0.443400  1.0
  N  N9060  1  0.043600  0.536800  0.943400  1.0
  N  N9061  1  0.456400  0.036800  0.943400  1.0
  N  N9062  1  0.043600  0.963200  0.443400  1.0
  N  N9063  1  0.543600  0.536800  0.556600  1.0
  N  N9064  1  0.956400  0.463200  0.056600  1.0
  N  N9065  1  0.503900  0.931900  0.127500  1.0
  N  N9066  1  0.996100  0.068100  0.627500  1.0
  N  N9067  1  0.496100  0.431900  0.372500  1.0
  N  N9068  1  0.003900  0.568100  0.872500  1.0
  N  N9069  1  0.496100  0.068100  0.872500  1.0
  N  N9070  1  0.003900  0.931900  0.372500  1.0
  N  N9071  1  0.503900  0.568100  0.627500  1.0
  N  N9072  1  0.996100  0.431900  0.127500  1.0
  N  N9073  1  0.428100  0.008000  0.213700  1.0
  N  N9074  1  0.071900  0.992000  0.713700  1.0
  N  N9075  1  0.571900  0.508000  0.286300  1.0
  N  N9076  1  0.928100  0.492000  0.786300  1.0
  N  N9077  1  0.571900  0.992000  0.786300  1.0
  N  N9078  1  0.928100  0.008000  0.286300  1.0
  N  N9079  1  0.428100  0.492000  0.713700  1.0
  N  N9080  1  0.071900  0.508000  0.213700  1.0
  N  N9081  1  0.481600  0.938500  0.152500  1.0
  N  N9082  1  0.018400  0.061500  0.652500  1.0
  N  N9083  1  0.518400  0.438500  0.347500  1.0
  N  N9084  1  0.981600  0.561500  0.847500  1.0
  N  N9085  1  0.518400  0.061500  0.847500  1.0
  N  N9086  1  0.981600  0.938500  0.347500  1.0
  N  N9087  1  0.481600  0.561500  0.652500  1.0
  N  N9088  1  0.018400  0.438500  0.152500  1.0
  N  N9089  1  0.281400  0.049100  0.167000  1.0
  N  N9090  1  0.218600  0.950900  0.667000  1.0
  N  N9091  1  0.718600  0.549100  0.333000  1.0
  N  N9092  1  0.781400  0.450900  0.833000  1.0
  N  N9093  1  0.718600  0.950900  0.833000  1.0
  N  N9094  1  0.781400  0.049100  0.333000  1.0
  N  N9095  1  0.281400  0.450900  0.667000  1.0
  N  N9096  1  0.218600  0.549100  0.167000  1.0
  N  N9097  1  0.393600  0.023600  0.215600  1.0
  N  N9098  1  0.106400  0.976400  0.715600  1.0
  N  N9099  1  0.606400  0.523600  0.284400  1.0
  N  N9100  1  0.893600  0.476400  0.784400  1.0
  N  N9101  1  0.606400  0.976400  0.784400  1.0
  N  N9102  1  0.893600  0.023600  0.284400  1.0
  N  N9103  1  0.393600  0.476400  0.715600  1.0
  N  N9104  1  0.106400  0.523600  0.215600  1.0
  N  N9105  1  0.407100  0.043600  0.231000  1.0
  N  N9106  1  0.092900  0.956400  0.731000  1.0
  N  N9107  1  0.592900  0.543600  0.269000  1.0
  N  N9108  1  0.907100  0.456400  0.769000  1.0
  N  N9109  1  0.592900  0.956400  0.769000  1.0
  N  N9110  1  0.907100  0.043600  0.269000  1.0
  N  N9111  1  0.407100  0.456400  0.731000  1.0
  N  N9112  1  0.092900  0.543600  0.231000  1.0
  N  N9113  1  0.369200  0.172600  0.264600  1.0
  N  N9114  1  0.130800  0.827400  0.764600  1.0
  N  N9115  1  0.630800  0.672600  0.235400  1.0
  N  N9116  1  0.869200  0.327400  0.735400  1.0
  N  N9117  1  0.630800  0.827400  0.735400  1.0
  N  N9118  1  0.869200  0.172600  0.235400  1.0
  N  N9119  1  0.369200  0.327400  0.764600  1.0
  N  N9120  1  0.130800  0.672600  0.264600  1.0
  N  N9121  1  0.391000  0.198400  0.274200  1.0
  N  N9122  1  0.109000  0.801600  0.774200  1.0
  N  N9123  1  0.609000  0.698400  0.225800  1.0
  N  N9124  1  0.891000  0.301600  0.725800  1.0
  N  N9125  1  0.609000  0.801600  0.725800  1.0
  N  N9126  1  0.891000  0.198400  0.225800  1.0
  N  N9127  1  0.391000  0.301600  0.774200  1.0
  N  N9128  1  0.109000  0.698400  0.274200  1.0
  N  N9129  1  0.532400  0.239300  0.287000  1.0
  N  N9130  1  0.967600  0.760700  0.787000  1.0
  N  N9131  1  0.467600  0.739300  0.213000  1.0
  N  N9132  1  0.032400  0.260700  0.713000  1.0
  N  N9133  1  0.467600  0.760700  0.713000  1.0
  N  N9134  1  0.032400  0.239300  0.213000  1.0
  N  N9135  1  0.532400  0.260700  0.787000  1.0
  N  N9136  1  0.967600  0.739300  0.287000  1.0
  N  N9137  1  0.567300  0.225000  0.282400  1.0
  N  N9138  1  0.932700  0.775000  0.782400  1.0
  N  N9139  1  0.432700  0.725000  0.217600  1.0
  N  N9140  1  0.067300  0.275000  0.717600  1.0
  N  N9141  1  0.432700  0.775000  0.717600  1.0
  N  N9142  1  0.067300  0.225000  0.217600  1.0
  N  N9143  1  0.567300  0.275000  0.782400  1.0
  N  N9144  1  0.932700  0.725000  0.282400  1.0
  N  N9145  1  0.599700  0.088700  0.257900  1.0
  N  N9146  1  0.900300  0.911300  0.757900  1.0
  N  N9147  1  0.400300  0.588700  0.242100  1.0
  N  N9148  1  0.099700  0.411300  0.742100  1.0
  N  N9149  1  0.400300  0.911300  0.742100  1.0
  N  N9150  1  0.099700  0.088700  0.242100  1.0
  N  N9151  1  0.599700  0.411300  0.757900  1.0
  N  N9152  1  0.900300  0.588700  0.257900  1.0
  N  N9153  1  0.580800  0.060700  0.249100  1.0
  N  N9154  1  0.919200  0.939300  0.749100  1.0
  N  N9155  1  0.419200  0.560700  0.250900  1.0
  N  N9156  1  0.080800  0.439300  0.750900  1.0
  N  N9157  1  0.419200  0.939300  0.750900  1.0
  N  N9158  1  0.080800  0.060700  0.250900  1.0
  N  N9159  1  0.580800  0.439300  0.749100  1.0
  N  N9160  1  0.919200  0.560700  0.249100  1.0
  N  N9161  1  0.440700  0.028100  0.229400  1.0
  N  N9162  1  0.059300  0.971900  0.729400  1.0
  N  N9163  1  0.559300  0.528100  0.270600  1.0
  N  N9164  1  0.940700  0.471900  0.770600  1.0
  N  N9165  1  0.559300  0.971900  0.770600  1.0
  N  N9166  1  0.940700  0.028100  0.270600  1.0
  N  N9167  1  0.440700  0.471900  0.729400  1.0
  N  N9168  1  0.059300  0.528100  0.229400  1.0
  N  N9169  1  0.612600  0.049300  0.240000  1.0
  N  N9170  1  0.887400  0.950700  0.740000  1.0
  N  N9171  1  0.387400  0.549300  0.260000  1.0
  N  N9172  1  0.112600  0.450700  0.760000  1.0
  N  N9173  1  0.387400  0.950700  0.760000  1.0
  N  N9174  1  0.112600  0.049300  0.260000  1.0
  N  N9175  1  0.612600  0.450700  0.740000  1.0
  N  N9176  1  0.887400  0.549300  0.240000  1.0
  N  N9177  1  0.667300  0.995100  0.175700  1.0
  N  N9178  1  0.832700  0.004900  0.675700  1.0
  N  N9179  1  0.332700  0.495100  0.324300  1.0
  N  N9180  1  0.167300  0.504900  0.824300  1.0
  N  N9181  1  0.332700  0.004900  0.824300  1.0
  N  N9182  1  0.167300  0.995100  0.324300  1.0
  N  N9183  1  0.667300  0.504900  0.675700  1.0
  N  N9184  1  0.832700  0.495100  0.175700  1.0
  N  N9185  1  0.657400  0.979800  0.159700  1.0
  N  N9186  1  0.842600  0.020200  0.659700  1.0
  N  N9187  1  0.342600  0.479800  0.340300  1.0
  N  N9188  1  0.157400  0.520200  0.840300  1.0
  N  N9189  1  0.342600  0.020200  0.840300  1.0
  N  N9190  1  0.157400  0.979800  0.340300  1.0
  N  N9191  1  0.657400  0.520200  0.659700  1.0
  N  N9192  1  0.842600  0.479800  0.159700  1.0
  N  N9193  1  0.518200  0.934700  0.145300  1.0
  N  N9194  1  0.981800  0.065300  0.645300  1.0
  N  N9195  1  0.481800  0.434700  0.354700  1.0
  N  N9196  1  0.018200  0.565300  0.854700  1.0
  N  N9197  1  0.481800  0.065300  0.854700  1.0
  N  N9198  1  0.018200  0.934700  0.354700  1.0
  N  N9199  1  0.518200  0.565300  0.645300  1.0
  N  N9200  1  0.981800  0.434700  0.145300  1.0
  N  N9201  1  0.723200  0.039000  0.079700  1.0
  N  N9202  1  0.776800  0.961000  0.579700  1.0
  N  N9203  1  0.276800  0.539000  0.420300  1.0
  N  N9204  1  0.223200  0.461000  0.920300  1.0
  N  N9205  1  0.276800  0.961000  0.920300  1.0
  N  N9206  1  0.223200  0.039000  0.420300  1.0
  N  N9207  1  0.723200  0.461000  0.579700  1.0
  N  N9208  1  0.776800  0.539000  0.079700  1.0
  N  N9209  1  0.687700  0.995100  0.150600  1.0
  N  N9210  1  0.812300  0.004900  0.650600  1.0
  N  N9211  1  0.312300  0.495100  0.349400  1.0
  N  N9212  1  0.187700  0.504900  0.849400  1.0
  N  N9213  1  0.312300  0.004900  0.849400  1.0
  N  N9214  1  0.187700  0.995100  0.349400  1.0
  N  N9215  1  0.687700  0.504900  0.650600  1.0
  N  N9216  1  0.812300  0.495100  0.150600  1.0
  N  N9217  1  0.569300  0.982900  0.044800  1.0
  N  N9218  1  0.930700  0.017100  0.544800  1.0
  N  N9219  1  0.430700  0.482900  0.455200  1.0
  N  N9220  1  0.069300  0.517100  0.955200  1.0
  N  N9221  1  0.430700  0.017100  0.955200  1.0
  N  N9222  1  0.069300  0.982900  0.455200  1.0
  N  N9223  1  0.569300  0.517100  0.544800  1.0
  N  N9224  1  0.930700  0.482900  0.044800  1.0
  N  N9225  1  0.703400  0.038500  0.063300  1.0
  N  N9226  1  0.796600  0.961500  0.563300  1.0
  N  N9227  1  0.296600  0.538500  0.436700  1.0
  N  N9228  1  0.203400  0.461500  0.936700  1.0
  N  N9229  1  0.296600  0.961500  0.936700  1.0
  N  N9230  1  0.203400  0.038500  0.436700  1.0
  N  N9231  1  0.703400  0.461500  0.563300  1.0
  N  N9232  1  0.796600  0.538500  0.063300  1.0
  N  N9233  1  0.722500  0.069000  0.056500  1.0
  N  N9234  1  0.777500  0.931000  0.556500  1.0
  N  N9235  1  0.277500  0.569000  0.443500  1.0
  N  N9236  1  0.222500  0.431000  0.943500  1.0
  N  N9237  1  0.277500  0.931000  0.943500  1.0
  N  N9238  1  0.222500  0.069000  0.443500  1.0
  N  N9239  1  0.722500  0.431000  0.556500  1.0
  N  N9240  1  0.777500  0.569000  0.056500  1.0
  N  N9241  1  0.687100  0.167300  0.003000  1.0
  N  N9242  1  0.812900  0.832700  0.503000  1.0
  N  N9243  1  0.312900  0.667300  0.497000  1.0
  N  N9244  1  0.187100  0.332700  0.997000  1.0
  N  N9245  1  0.312900  0.832700  0.997000  1.0
  N  N9246  1  0.187100  0.167300  0.497000  1.0
  N  N9247  1  0.687100  0.332700  0.503000  1.0
  N  N9248  1  0.812900  0.667300  0.003000  1.0
  N  N9249  1  0.654700  0.170300  0.992700  1.0
  N  N9250  1  0.845300  0.829700  0.492700  1.0
  N  N9251  1  0.345300  0.670300  0.507300  1.0
  N  N9252  1  0.154700  0.329700  0.007300  1.0
  N  N9253  1  0.345300  0.829700  0.007300  1.0
  N  N9254  1  0.154700  0.170300  0.507300  1.0
  N  N9255  1  0.654700  0.329700  0.492700  1.0
  N  N9256  1  0.845300  0.670300  0.992700  1.0
  N  N9257  1  0.516700  0.123500  0.978000  1.0
  N  N9258  1  0.983300  0.876500  0.478000  1.0
  N  N9259  1  0.483300  0.623500  0.522000  1.0
  N  N9260  1  0.016700  0.376500  0.022000  1.0
  N  N9261  1  0.483300  0.876500  0.022000  1.0
  N  N9262  1  0.016700  0.123500  0.522000  1.0
  N  N9263  1  0.516700  0.376500  0.478000  1.0
  N  N9264  1  0.983300  0.623500  0.978000  1.0
  N  N9265  1  0.551900  0.304000  0.974700  1.0
  N  N9266  1  0.948100  0.696000  0.474700  1.0
  N  N9267  1  0.448100  0.804000  0.525300  1.0
  N  N9268  1  0.051900  0.196000  0.025300  1.0
  N  N9269  1  0.448100  0.696000  0.025300  1.0
  N  N9270  1  0.051900  0.304000  0.525300  1.0
  N  N9271  1  0.551900  0.196000  0.474700  1.0
  N  N9272  1  0.948100  0.804000  0.974700  1.0
  N  N9273  1  0.661100  0.207500  0.989300  1.0
  N  N9274  1  0.838900  0.792500  0.489300  1.0
  N  N9275  1  0.338900  0.707500  0.510700  1.0
  N  N9276  1  0.161100  0.292500  0.010700  1.0
  N  N9277  1  0.338900  0.792500  0.010700  1.0
  N  N9278  1  0.161100  0.207500  0.510700  1.0
  N  N9279  1  0.661100  0.292500  0.489300  1.0
  N  N9280  1  0.838900  0.707500  0.989300  1.0
  N  N9281  1  0.486600  0.147100  0.974700  1.0
  N  N9282  1  0.013400  0.852900  0.474700  1.0
  N  N9283  1  0.513400  0.647100  0.525300  1.0
  N  N9284  1  0.986600  0.352900  0.025300  1.0
  N  N9285  1  0.513400  0.852900  0.025300  1.0
  N  N9286  1  0.986600  0.147100  0.525300  1.0
  N  N9287  1  0.486600  0.352900  0.474700  1.0
  N  N9288  1  0.013400  0.647100  0.974700  1.0
  N  N9289  1  0.517400  0.290800  0.970500  1.0
  N  N9290  1  0.982600  0.709200  0.470500  1.0
  N  N9291  1  0.482600  0.790800  0.529500  1.0
  N  N9292  1  0.017400  0.209200  0.029500  1.0
  N  N9293  1  0.482600  0.709200  0.029500  1.0
  N  N9294  1  0.017400  0.290800  0.529500  1.0
  N  N9295  1  0.517400  0.209200  0.470500  1.0
  N  N9296  1  0.982600  0.790800  0.970500  1.0
  N  N9297  1  0.501200  0.323900  0.974300  1.0
  N  N9298  1  0.998800  0.676100  0.474300  1.0
  N  N9299  1  0.498800  0.823900  0.525700  1.0
  N  N9300  1  0.001200  0.176100  0.025700  1.0
  N  N9301  1  0.498800  0.676100  0.025700  1.0
  N  N9302  1  0.001200  0.323900  0.525700  1.0
  N  N9303  1  0.501200  0.176100  0.474300  1.0
  N  N9304  1  0.998800  0.823900  0.974300  1.0
  N  N9305  1  0.358700  0.337300  0.995700  1.0
  N  N9306  1  0.141300  0.662700  0.495700  1.0
  N  N9307  1  0.641300  0.837300  0.504300  1.0
  N  N9308  1  0.858700  0.162700  0.004300  1.0
  N  N9309  1  0.641300  0.662700  0.004300  1.0
  N  N9310  1  0.858700  0.337300  0.504300  1.0
  N  N9311  1  0.358700  0.162700  0.495700  1.0
  N  N9312  1  0.141300  0.837300  0.995700  1.0
  N  N9313  1  0.327700  0.315200  0.000200  1.0
  N  N9314  1  0.172300  0.684800  0.500200  1.0
  N  N9315  1  0.672300  0.815200  0.499800  1.0
  N  N9316  1  0.827700  0.184800  0.999800  1.0
  N  N9317  1  0.672300  0.684800  0.999800  1.0
  N  N9318  1  0.827700  0.315200  0.499800  1.0
  N  N9319  1  0.327700  0.184800  0.500200  1.0
  N  N9320  1  0.172300  0.815200  0.000200  1.0
  N  N9321  1  0.303600  0.170700  0.010500  1.0
  N  N9322  1  0.196400  0.829300  0.510500  1.0
  N  N9323  1  0.696400  0.670700  0.489500  1.0
  N  N9324  1  0.803600  0.329300  0.989500  1.0
  N  N9325  1  0.696400  0.829300  0.989500  1.0
  N  N9326  1  0.803600  0.170700  0.489500  1.0
  N  N9327  1  0.303600  0.329300  0.510500  1.0
  N  N9328  1  0.196400  0.670700  0.010500  1.0
  N  N9329  1  0.250100  0.395100  0.075000  1.0
  N  N9330  1  0.249900  0.604900  0.575000  1.0
  N  N9331  1  0.749900  0.895100  0.425000  1.0
  N  N9332  1  0.750100  0.104900  0.925000  1.0
  N  N9333  1  0.749900  0.604900  0.925000  1.0
  N  N9334  1  0.750100  0.395100  0.425000  1.0
  N  N9335  1  0.250100  0.104900  0.575000  1.0
  N  N9336  1  0.249900  0.895100  0.075000  1.0
  N  N9337  1  0.315000  0.346000  0.011100  1.0
  N  N9338  1  0.185000  0.654000  0.511100  1.0
  N  N9339  1  0.685000  0.846000  0.488900  1.0
  N  N9340  1  0.815000  0.154000  0.988900  1.0
  N  N9341  1  0.685000  0.654000  0.988900  1.0
  N  N9342  1  0.815000  0.346000  0.488900  1.0
  N  N9343  1  0.315000  0.154000  0.511100  1.0
  N  N9344  1  0.185000  0.846000  0.011100  1.0
  N  N9345  1  0.200800  0.231900  0.093400  1.0
  N  N9346  1  0.299200  0.768100  0.593400  1.0
  N  N9347  1  0.799200  0.731900  0.406600  1.0
  N  N9348  1  0.700800  0.268100  0.906600  1.0
  N  N9349  1  0.799200  0.768100  0.906600  1.0
  N  N9350  1  0.700800  0.231900  0.406600  1.0
  N  N9351  1  0.200800  0.268100  0.593400  1.0
  N  N9352  1  0.299200  0.731900  0.093400  1.0
  N  N9353  1  0.234200  0.376900  0.090100  1.0
  N  N9354  1  0.265800  0.623100  0.590100  1.0
  N  N9355  1  0.765800  0.876900  0.409900  1.0
  N  N9356  1  0.734200  0.123100  0.909900  1.0
  N  N9357  1  0.765800  0.623100  0.909900  1.0
  N  N9358  1  0.734200  0.376900  0.409900  1.0
  N  N9359  1  0.234200  0.123100  0.590100  1.0
  N  N9360  1  0.265800  0.876900  0.090100  1.0
  N  N9361  1  0.248000  0.406200  0.101900  1.0
  N  N9362  1  0.252000  0.593800  0.601900  1.0
  N  N9363  1  0.752000  0.906200  0.398100  1.0
  N  N9364  1  0.748000  0.093800  0.898100  1.0
  N  N9365  1  0.752000  0.593800  0.898100  1.0
  N  N9366  1  0.748000  0.406200  0.398100  1.0
  N  N9367  1  0.248000  0.093800  0.601900  1.0
  N  N9368  1  0.252000  0.906200  0.101900  1.0
  N  N9369  1  0.286300  0.425600  0.173700  1.0
  N  N9370  1  0.213700  0.574400  0.673700  1.0
  N  N9371  1  0.713700  0.925600  0.326300  1.0
  N  N9372  1  0.786300  0.074400  0.826300  1.0
  N  N9373  1  0.713700  0.574400  0.826300  1.0
  N  N9374  1  0.786300  0.425600  0.326300  1.0
  N  N9375  1  0.286300  0.074400  0.673700  1.0
  N  N9376  1  0.213700  0.925600  0.173700  1.0
  N  N9377  1  0.231500  0.266600  0.198900  1.0
  N  N9378  1  0.268500  0.733400  0.698900  1.0
  N  N9379  1  0.768500  0.766600  0.301100  1.0
  N  N9380  1  0.731500  0.233400  0.801100  1.0
  N  N9381  1  0.768500  0.733400  0.801100  1.0
  N  N9382  1  0.731500  0.266600  0.301100  1.0
  N  N9383  1  0.231500  0.233400  0.698900  1.0
  N  N9384  1  0.268500  0.766600  0.198900  1.0
  N  N9385  1  0.281900  0.406600  0.191100  1.0
  N  N9386  1  0.218100  0.593400  0.691100  1.0
  N  N9387  1  0.718100  0.906600  0.308900  1.0
  N  N9388  1  0.781900  0.093400  0.808900  1.0
  N  N9389  1  0.718100  0.593400  0.808900  1.0
  N  N9390  1  0.781900  0.406600  0.308900  1.0
  N  N9391  1  0.281900  0.093400  0.691100  1.0
  N  N9392  1  0.218100  0.906600  0.191100  1.0
  N  N9393  1  0.307600  0.428300  0.198600  1.0
  N  N9394  1  0.192400  0.571700  0.698600  1.0
  N  N9395  1  0.692400  0.928300  0.301400  1.0
  N  N9396  1  0.807600  0.071700  0.801400  1.0
  N  N9397  1  0.692400  0.571700  0.801400  1.0
  N  N9398  1  0.807600  0.428300  0.301400  1.0
  N  N9399  1  0.307600  0.071700  0.698600  1.0
  N  N9400  1  0.192400  0.928300  0.198600  1.0
  N  N9401  1  0.402700  0.401400  0.255500  1.0
  N  N9402  1  0.097300  0.598600  0.755500  1.0
  N  N9403  1  0.597300  0.901400  0.244500  1.0
  N  N9404  1  0.902700  0.098600  0.744500  1.0
  N  N9405  1  0.597300  0.598600  0.744500  1.0
  N  N9406  1  0.902700  0.401400  0.244500  1.0
  N  N9407  1  0.402700  0.098600  0.755500  1.0
  N  N9408  1  0.097300  0.901400  0.255500  1.0
  N  N9409  1  0.406500  0.368400  0.266700  1.0
  N  N9410  1  0.093500  0.631600  0.766700  1.0
  N  N9411  1  0.593500  0.868400  0.233300  1.0
  N  N9412  1  0.906500  0.131600  0.733300  1.0
  N  N9413  1  0.593500  0.631600  0.733300  1.0
  N  N9414  1  0.906500  0.368400  0.233300  1.0
  N  N9415  1  0.406500  0.131600  0.766700  1.0
  N  N9416  1  0.093500  0.868400  0.266700  1.0
  N  N9417  1  0.366200  0.225500  0.270300  1.0
  N  N9418  1  0.133800  0.774500  0.770300  1.0
  N  N9419  1  0.633800  0.725500  0.229700  1.0
  N  N9420  1  0.866200  0.274500  0.729700  1.0
  N  N9421  1  0.633800  0.774500  0.729700  1.0
  N  N9422  1  0.866200  0.225500  0.229700  1.0
  N  N9423  1  0.366200  0.274500  0.770300  1.0
  N  N9424  1  0.133800  0.725500  0.270300  1.0
  N  N9425  1  0.543900  0.274100  0.284300  1.0
  N  N9426  1  0.956100  0.725900  0.784300  1.0
  N  N9427  1  0.456100  0.774100  0.215700  1.0
  N  N9428  1  0.043900  0.225900  0.715700  1.0
  N  N9429  1  0.456100  0.725900  0.715700  1.0
  N  N9430  1  0.043900  0.274100  0.215700  1.0
  N  N9431  1  0.543900  0.225900  0.784300  1.0
  N  N9432  1  0.956100  0.774100  0.284300  1.0
  N  N9433  1  0.441800  0.376500  0.270200  1.0
  N  N9434  1  0.058200  0.623500  0.770200  1.0
  N  N9435  1  0.558200  0.876500  0.229800  1.0
  N  N9436  1  0.941800  0.123500  0.729800  1.0
  N  N9437  1  0.558200  0.623500  0.729800  1.0
  N  N9438  1  0.941800  0.376500  0.229800  1.0
  N  N9439  1  0.441800  0.123500  0.770200  1.0
  N  N9440  1  0.058200  0.876500  0.270200  1.0
  N  N9441  1  0.438700  0.411200  0.261100  1.0
  N  N9442  1  0.061300  0.588800  0.761100  1.0
  N  N9443  1  0.561300  0.911200  0.238900  1.0
  N  N9444  1  0.938700  0.088800  0.738900  1.0
  N  N9445  1  0.561300  0.588800  0.738900  1.0
  N  N9446  1  0.938700  0.411200  0.238900  1.0
  N  N9447  1  0.438700  0.088800  0.761100  1.0
  N  N9448  1  0.061300  0.911200  0.261100  1.0
  N  N9449  1  0.557100  0.475100  0.228700  1.0
  N  N9450  1  0.942900  0.524900  0.728700  1.0
  N  N9451  1  0.442900  0.975100  0.271300  1.0
  N  N9452  1  0.057100  0.024900  0.771300  1.0
  N  N9453  1  0.442900  0.524900  0.771300  1.0
  N  N9454  1  0.057100  0.475100  0.271300  1.0
  N  N9455  1  0.557100  0.024900  0.728700  1.0
  N  N9456  1  0.942900  0.975100  0.228700  1.0
  N  N9457  1  0.554600  0.499000  0.213900  1.0
  N  N9458  1  0.945400  0.501000  0.713900  1.0
  N  N9459  1  0.445400  0.999000  0.286100  1.0
  N  N9460  1  0.054600  0.001000  0.786100  1.0
  N  N9461  1  0.445400  0.501000  0.786100  1.0
  N  N9462  1  0.054600  0.499000  0.286100  1.0
  N  N9463  1  0.554600  0.001000  0.713900  1.0
  N  N9464  1  0.945400  0.999000  0.213900  1.0
  N  N9465  1  0.454900  0.541500  0.162800  1.0
  N  N9466  1  0.045100  0.458500  0.662800  1.0
  N  N9467  1  0.545100  0.041500  0.337200  1.0
  N  N9468  1  0.954900  0.958500  0.837200  1.0
  N  N9469  1  0.545100  0.458500  0.837200  1.0
  N  N9470  1  0.954900  0.541500  0.337200  1.0
  N  N9471  1  0.454900  0.958500  0.662800  1.0
  N  N9472  1  0.045100  0.041500  0.162800  1.0
  N  N9473  1  0.418100  0.537300  0.155500  1.0
  N  N9474  1  0.081900  0.462700  0.655500  1.0
  N  N9475  1  0.581900  0.037300  0.344500  1.0
  N  N9476  1  0.918100  0.962700  0.844500  1.0
  N  N9477  1  0.581900  0.462700  0.844500  1.0
  N  N9478  1  0.918100  0.537300  0.344500  1.0
  N  N9479  1  0.418100  0.962700  0.655500  1.0
  N  N9480  1  0.081900  0.037300  0.155500  1.0
  N  N9481  1  0.309800  0.450300  0.183300  1.0
  N  N9482  1  0.190200  0.549700  0.683300  1.0
  N  N9483  1  0.690200  0.950300  0.316700  1.0
  N  N9484  1  0.809800  0.049700  0.816700  1.0
  N  N9485  1  0.690200  0.549700  0.816700  1.0
  N  N9486  1  0.809800  0.450300  0.316700  1.0
  N  N9487  1  0.309800  0.049700  0.683300  1.0
  N  N9488  1  0.190200  0.950300  0.183300  1.0
  N  N9489  1  0.412700  0.512500  0.065800  1.0
  N  N9490  1  0.087300  0.487500  0.565800  1.0
  N  N9491  1  0.587300  0.012500  0.434200  1.0
  N  N9492  1  0.912700  0.987500  0.934200  1.0
  N  N9493  1  0.587300  0.487500  0.934200  1.0
  N  N9494  1  0.912700  0.512500  0.434200  1.0
  N  N9495  1  0.412700  0.987500  0.565800  1.0
  N  N9496  1  0.087300  0.012500  0.065800  1.0
  N  N9497  1  0.432700  0.546900  0.138500  1.0
  N  N9498  1  0.067300  0.453100  0.638500  1.0
  N  N9499  1  0.567300  0.046900  0.361500  1.0
  N  N9500  1  0.932700  0.953100  0.861500  1.0
  N  N9501  1  0.567300  0.453100  0.861500  1.0
  N  N9502  1  0.932700  0.546900  0.361500  1.0
  N  N9503  1  0.432700  0.953100  0.638500  1.0
  N  N9504  1  0.067300  0.046900  0.138500  1.0
  N  N9505  1  0.265000  0.419900  0.086200  1.0
  N  N9506  1  0.235000  0.580100  0.586200  1.0
  N  N9507  1  0.735000  0.919900  0.413800  1.0
  N  N9508  1  0.765000  0.080100  0.913800  1.0
  N  N9509  1  0.735000  0.580100  0.913800  1.0
  N  N9510  1  0.765000  0.419900  0.413800  1.0
  N  N9511  1  0.265000  0.080100  0.586200  1.0
  N  N9512  1  0.235000  0.919900  0.086200  1.0
  N  N9513  1  0.381300  0.493500  0.058800  1.0
  N  N9514  1  0.118700  0.506500  0.558800  1.0
  N  N9515  1  0.618700  0.993500  0.441200  1.0
  N  N9516  1  0.881300  0.006500  0.941200  1.0
  N  N9517  1  0.618700  0.506500  0.941200  1.0
  N  N9518  1  0.881300  0.493500  0.441200  1.0
  N  N9519  1  0.381300  0.006500  0.558800  1.0
  N  N9520  1  0.118700  0.993500  0.058800  1.0
  N  N9521  1  0.400100  0.482200  0.043600  1.0
  N  N9522  1  0.099900  0.517800  0.543600  1.0
  N  N9523  1  0.599900  0.982200  0.456400  1.0
  N  N9524  1  0.900100  0.017800  0.956400  1.0
  N  N9525  1  0.599900  0.517800  0.956400  1.0
  N  N9526  1  0.900100  0.482200  0.456400  1.0
  N  N9527  1  0.400100  0.017800  0.543600  1.0
  N  N9528  1  0.099900  0.982200  0.043600  1.0
  N  N9529  1  0.346300  0.364200  0.006400  1.0
  N  N9530  1  0.153700  0.635800  0.506400  1.0
  N  N9531  1  0.653700  0.864200  0.493600  1.0
  N  N9532  1  0.846300  0.135800  0.993600  1.0
  N  N9533  1  0.653700  0.635800  0.993600  1.0
  N  N9534  1  0.846300  0.364200  0.493600  1.0
  N  N9535  1  0.346300  0.135800  0.506400  1.0
  N  N9536  1  0.153700  0.864200  0.006400  1.0
  N  N9537  1  0.432000  0.500500  0.049400  1.0
  N  N9538  1  0.068000  0.499500  0.549400  1.0
  N  N9539  1  0.568000  0.000500  0.450600  1.0
  N  N9540  1  0.932000  0.999500  0.950600  1.0
  N  N9541  1  0.568000  0.499500  0.950600  1.0
  N  N9542  1  0.932000  0.500500  0.450600  1.0
  N  N9543  1  0.432000  0.999500  0.549400  1.0
  N  N9544  1  0.068000  0.000500  0.049400  1.0
  N  N9545  1  0.575400  0.474500  0.033200  1.0
  N  N9546  1  0.924600  0.525500  0.533200  1.0
  N  N9547  1  0.424600  0.974500  0.466800  1.0
  N  N9548  1  0.075400  0.025500  0.966800  1.0
  N  N9549  1  0.424600  0.525500  0.966800  1.0
  N  N9550  1  0.075400  0.474500  0.466800  1.0
  N  N9551  1  0.575400  0.025500  0.533200  1.0
  N  N9552  1  0.924600  0.974500  0.033200  1.0
  N  N9553  1  0.591100  0.449500  0.021100  1.0
  N  N9554  1  0.908900  0.550500  0.521100  1.0
  N  N9555  1  0.408900  0.949500  0.478900  1.0
  N  N9556  1  0.091100  0.050500  0.978900  1.0
  N  N9557  1  0.408900  0.550500  0.978900  1.0
  N  N9558  1  0.091100  0.449500  0.478900  1.0
  N  N9559  1  0.591100  0.050500  0.521100  1.0
  N  N9560  1  0.908900  0.949500  0.021100  1.0
  N  N9561  1  0.536000  0.339100  0.977900  1.0
  N  N9562  1  0.964000  0.660900  0.477900  1.0
  N  N9563  1  0.464000  0.839100  0.522100  1.0
  N  N9564  1  0.036000  0.160900  0.022100  1.0
  N  N9565  1  0.464000  0.660900  0.022100  1.0
  N  N9566  1  0.036000  0.339100  0.522100  1.0
  N  N9567  1  0.536000  0.160900  0.477900  1.0
  N  N9568  1  0.964000  0.839100  0.977900  1.0
  N  N9569  1  0.740100  0.359500  0.039300  1.0
  N  N9570  1  0.759900  0.640500  0.539300  1.0
  N  N9571  1  0.259900  0.859500  0.460700  1.0
  N  N9572  1  0.240100  0.140500  0.960700  1.0
  N  N9573  1  0.259900  0.640500  0.960700  1.0
  N  N9574  1  0.240100  0.359500  0.460700  1.0
  N  N9575  1  0.740100  0.140500  0.539300  1.0
  N  N9576  1  0.759900  0.859500  0.039300  1.0
  N  N9577  1  0.623300  0.450600  0.029800  1.0
  N  N9578  1  0.876700  0.549400  0.529800  1.0
  N  N9579  1  0.376700  0.950600  0.470200  1.0
  N  N9580  1  0.123300  0.049400  0.970200  1.0
  N  N9581  1  0.376700  0.549400  0.970200  1.0
  N  N9582  1  0.123300  0.450600  0.470200  1.0
  N  N9583  1  0.623300  0.049400  0.529800  1.0
  N  N9584  1  0.876700  0.950600  0.029800  1.0
  N  N9585  1  0.693100  0.205500  0.000100  1.0
  N  N9586  1  0.806900  0.794500  0.500100  1.0
  N  N9587  1  0.306900  0.705500  0.499900  1.0
  N  N9588  1  0.193100  0.294500  0.999900  1.0
  N  N9589  1  0.306900  0.794500  0.999900  1.0
  N  N9590  1  0.193100  0.205500  0.499900  1.0
  N  N9591  1  0.693100  0.294500  0.500100  1.0
  N  N9592  1  0.806900  0.705500  0.000100  1.0
  N  N9593  1  0.751600  0.325900  0.033100  1.0
  N  N9594  1  0.748400  0.674100  0.533100  1.0
  N  N9595  1  0.248400  0.825900  0.466900  1.0
  N  N9596  1  0.251600  0.174100  0.966900  1.0
  N  N9597  1  0.248400  0.674100  0.966900  1.0
  N  N9598  1  0.251600  0.325900  0.466900  1.0
  N  N9599  1  0.751600  0.174100  0.533100  1.0
  N  N9600  1  0.748400  0.825900  0.033100  1.0
  N  N9601  1  0.771900  0.321800  0.049800  1.0
  N  N9602  1  0.728100  0.678200  0.549800  1.0
  N  N9603  1  0.228100  0.821800  0.450200  1.0
  N  N9604  1  0.271900  0.178200  0.950200  1.0
  N  N9605  1  0.228100  0.678200  0.950200  1.0
  N  N9606  1  0.271900  0.321800  0.450200  1.0
  N  N9607  1  0.771900  0.178200  0.549800  1.0
  N  N9608  1  0.728100  0.821800  0.049800  1.0
  N  N9609  1  0.816000  0.220000  0.099400  1.0
  N  N9610  1  0.684000  0.780000  0.599400  1.0
  N  N9611  1  0.184000  0.720000  0.400600  1.0
  N  N9612  1  0.316000  0.280000  0.900600  1.0
  N  N9613  1  0.184000  0.780000  0.900600  1.0
  N  N9614  1  0.316000  0.220000  0.400600  1.0
  N  N9615  1  0.816000  0.280000  0.599400  1.0
  N  N9616  1  0.684000  0.720000  0.099400  1.0
  N  N9617  1  0.812000  0.184300  0.105800  1.0
  N  N9618  1  0.688000  0.815700  0.605800  1.0
  N  N9619  1  0.188000  0.684300  0.394200  1.0
  N  N9620  1  0.312000  0.315700  0.894200  1.0
  N  N9621  1  0.188000  0.815700  0.894200  1.0
  N  N9622  1  0.312000  0.184300  0.394200  1.0
  N  N9623  1  0.812000  0.315700  0.605800  1.0
  N  N9624  1  0.688000  0.684300  0.105800  1.0
  N  N9625  1  0.741900  0.069400  0.074100  1.0
  N  N9626  1  0.758100  0.930600  0.574100  1.0
  N  N9627  1  0.258100  0.569400  0.425900  1.0
  N  N9628  1  0.241900  0.430600  0.925900  1.0
  N  N9629  1  0.258100  0.930600  0.925900  1.0
  N  N9630  1  0.241900  0.069400  0.425900  1.0
  N  N9631  1  0.741900  0.430600  0.574100  1.0
  N  N9632  1  0.758100  0.569400  0.074100  1.0
  N  N9633  1  0.779000  0.161000  0.195000  1.0
  N  N9634  1  0.721000  0.839000  0.695000  1.0
  N  N9635  1  0.221000  0.661000  0.305000  1.0
  N  N9636  1  0.279000  0.339000  0.805000  1.0
  N  N9637  1  0.221000  0.839000  0.805000  1.0
  N  N9638  1  0.279000  0.161000  0.305000  1.0
  N  N9639  1  0.779000  0.339000  0.695000  1.0
  N  N9640  1  0.721000  0.661000  0.195000  1.0
  N  N9641  1  0.818300  0.196700  0.124300  1.0
  N  N9642  1  0.681700  0.803300  0.624300  1.0
  N  N9643  1  0.181700  0.696700  0.375700  1.0
  N  N9644  1  0.318300  0.303300  0.875700  1.0
  N  N9645  1  0.181700  0.803300  0.875700  1.0
  N  N9646  1  0.318300  0.196700  0.375700  1.0
  N  N9647  1  0.818300  0.303300  0.624300  1.0
  N  N9648  1  0.681700  0.696700  0.124300  1.0
  N  N9649  1  0.700000  0.009500  0.167000  1.0
  N  N9650  1  0.800000  0.990500  0.667000  1.0
  N  N9651  1  0.300000  0.509500  0.333000  1.0
  N  N9652  1  0.200000  0.490500  0.833000  1.0
  N  N9653  1  0.300000  0.990500  0.833000  1.0
  N  N9654  1  0.200000  0.009500  0.333000  1.0
  N  N9655  1  0.700000  0.490500  0.667000  1.0
  N  N9656  1  0.800000  0.509500  0.167000  1.0
  N  N9657  1  0.762500  0.129500  0.199900  1.0
  N  N9658  1  0.737500  0.870500  0.699900  1.0
  N  N9659  1  0.237500  0.629500  0.300100  1.0
  N  N9660  1  0.262500  0.370500  0.800100  1.0
  N  N9661  1  0.237500  0.870500  0.800100  1.0
  N  N9662  1  0.262500  0.129500  0.300100  1.0
  N  N9663  1  0.762500  0.370500  0.699900  1.0
  N  N9664  1  0.737500  0.629500  0.199900  1.0
  N  N9665  1  0.748300  0.145800  0.215300  1.0
  N  N9666  1  0.751700  0.854200  0.715300  1.0
  N  N9667  1  0.251700  0.645800  0.284700  1.0
  N  N9668  1  0.248300  0.354200  0.784700  1.0
  N  N9669  1  0.251700  0.854200  0.784700  1.0
  N  N9670  1  0.248300  0.145800  0.284700  1.0
  N  N9671  1  0.748300  0.354200  0.715300  1.0
  N  N9672  1  0.751700  0.645800  0.215300  1.0
  N  N9673  1  0.631400  0.079500  0.248200  1.0
  N  N9674  1  0.868600  0.920500  0.748200  1.0
  N  N9675  1  0.368600  0.579500  0.251800  1.0
  N  N9676  1  0.131400  0.420500  0.751800  1.0
  N  N9677  1  0.368600  0.920500  0.751800  1.0
  N  N9678  1  0.131400  0.079500  0.251800  1.0
  N  N9679  1  0.631400  0.420500  0.748200  1.0
  N  N9680  1  0.868600  0.579500  0.248200  1.0
  N  N9681  1  0.721600  0.313500  0.232800  1.0
  N  N9682  1  0.778400  0.686500  0.732800  1.0
  N  N9683  1  0.278400  0.813500  0.267200  1.0
  N  N9684  1  0.221600  0.186500  0.767200  1.0
  N  N9685  1  0.278400  0.686500  0.767200  1.0
  N  N9686  1  0.221600  0.313500  0.267200  1.0
  N  N9687  1  0.721600  0.186500  0.732800  1.0
  N  N9688  1  0.778400  0.813500  0.232800  1.0
  N  N9689  1  0.765600  0.177200  0.210900  1.0
  N  N9690  1  0.734400  0.822800  0.710900  1.0
  N  N9691  1  0.234400  0.677200  0.289100  1.0
  N  N9692  1  0.265600  0.322800  0.789100  1.0
  N  N9693  1  0.234400  0.822800  0.789100  1.0
  N  N9694  1  0.265600  0.177200  0.289100  1.0
  N  N9695  1  0.765600  0.322800  0.710900  1.0
  N  N9696  1  0.734400  0.677200  0.210900  1.0
  N  N9697  1  0.579700  0.262700  0.281100  1.0
  N  N9698  1  0.920300  0.737300  0.781100  1.0
  N  N9699  1  0.420300  0.762700  0.218900  1.0
  N  N9700  1  0.079700  0.237300  0.718900  1.0
  N  N9701  1  0.420300  0.737300  0.718900  1.0
  N  N9702  1  0.079700  0.262700  0.218900  1.0
  N  N9703  1  0.579700  0.237300  0.781100  1.0
  N  N9704  1  0.920300  0.762700  0.281100  1.0
  N  N9705  1  0.692300  0.326400  0.243800  1.0
  N  N9706  1  0.807700  0.673600  0.743800  1.0
  N  N9707  1  0.307700  0.826400  0.256200  1.0
  N  N9708  1  0.192300  0.173600  0.756200  1.0
  N  N9709  1  0.307700  0.673600  0.756200  1.0
  N  N9710  1  0.192300  0.326400  0.256200  1.0
  N  N9711  1  0.692300  0.173600  0.743800  1.0
  N  N9712  1  0.807700  0.826400  0.243800  1.0
  N  N9713  1  0.693800  0.359200  0.234400  1.0
  N  N9714  1  0.806200  0.640800  0.734400  1.0
  N  N9715  1  0.306200  0.859200  0.265600  1.0
  N  N9716  1  0.193800  0.140800  0.765600  1.0
  N  N9717  1  0.306200  0.640800  0.765600  1.0
  N  N9718  1  0.193800  0.359200  0.265600  1.0
  N  N9719  1  0.693800  0.140800  0.734400  1.0
  N  N9720  1  0.806200  0.859200  0.234400  1.0
  N  N9721  1  0.594700  0.469000  0.224700  1.0
  N  N9722  1  0.905300  0.531000  0.724700  1.0
  N  N9723  1  0.405300  0.969000  0.275300  1.0
  N  N9724  1  0.094700  0.031000  0.775300  1.0
  N  N9725  1  0.405300  0.531000  0.775300  1.0
  N  N9726  1  0.094700  0.469000  0.275300  1.0
  N  N9727  1  0.594700  0.031000  0.724700  1.0
  N  N9728  1  0.905300  0.969000  0.224700  1.0
  N  N9729  1  0.591700  0.494700  0.210000  1.0
  N  N9730  1  0.908300  0.505300  0.710000  1.0
  N  N9731  1  0.408300  0.994700  0.290000  1.0
  N  N9732  1  0.091700  0.005300  0.790000  1.0
  N  N9733  1  0.408300  0.505300  0.790000  1.0
  N  N9734  1  0.091700  0.494700  0.290000  1.0
  N  N9735  1  0.591700  0.005300  0.710000  1.0
  N  N9736  1  0.908300  0.994700  0.210000  1.0
  N  N9737  1  0.632700  0.529700  0.139700  1.0
  N  N9738  1  0.867300  0.470300  0.639700  1.0
  N  N9739  1  0.367300  0.029700  0.360300  1.0
  N  N9740  1  0.132700  0.970300  0.860300  1.0
  N  N9741  1  0.367300  0.470300  0.860300  1.0
  N  N9742  1  0.132700  0.529700  0.360300  1.0
  N  N9743  1  0.632700  0.970300  0.639700  1.0
  N  N9744  1  0.867300  0.029700  0.139700  1.0
  N  N9745  1  0.609900  0.542600  0.125900  1.0
  N  N9746  1  0.890100  0.457400  0.625900  1.0
  N  N9747  1  0.390100  0.042600  0.374100  1.0
  N  N9748  1  0.109900  0.957400  0.874100  1.0
  N  N9749  1  0.390100  0.457400  0.874100  1.0
  N  N9750  1  0.109900  0.542600  0.374100  1.0
  N  N9751  1  0.609900  0.957400  0.625900  1.0
  N  N9752  1  0.890100  0.042600  0.125900  1.0
  N  N9753  1  0.466300  0.552000  0.145200  1.0
  N  N9754  1  0.033700  0.448000  0.645200  1.0
  N  N9755  1  0.533700  0.052000  0.354800  1.0
  N  N9756  1  0.966300  0.948000  0.854800  1.0
  N  N9757  1  0.533700  0.448000  0.854800  1.0
  N  N9758  1  0.966300  0.552000  0.354800  1.0
  N  N9759  1  0.466300  0.948000  0.645200  1.0
  N  N9760  1  0.033700  0.052000  0.145200  1.0
  N  N9761  1  0.608400  0.477500  0.042700  1.0
  N  N9762  1  0.891600  0.522500  0.542700  1.0
  N  N9763  1  0.391600  0.977500  0.457300  1.0
  N  N9764  1  0.108400  0.022500  0.957300  1.0
  N  N9765  1  0.391600  0.522500  0.957300  1.0
  N  N9766  1  0.108400  0.477500  0.457300  1.0
  N  N9767  1  0.608400  0.022500  0.542700  1.0
  N  N9768  1  0.891600  0.977500  0.042700  1.0
  N  N9769  1  0.634500  0.528000  0.112500  1.0
  N  N9770  1  0.865500  0.472000  0.612500  1.0
  N  N9771  1  0.365500  0.028000  0.387500  1.0
  N  N9772  1  0.134500  0.972000  0.887500  1.0
  N  N9773  1  0.365500  0.472000  0.887500  1.0
  N  N9774  1  0.134500  0.528000  0.387500  1.0
  N  N9775  1  0.634500  0.972000  0.612500  1.0
  N  N9776  1  0.865500  0.028000  0.112500  1.0
  N  N9777  1  0.659300  0.519800  0.126400  1.0
  N  N9778  1  0.840700  0.480200  0.626400  1.0
  N  N9779  1  0.340700  0.019800  0.373600  1.0
  N  N9780  1  0.159300  0.980200  0.873600  1.0
  N  N9781  1  0.340700  0.480200  0.873600  1.0
  N  N9782  1  0.159300  0.519800  0.373600  1.0
  N  N9783  1  0.659300  0.980200  0.626400  1.0
  N  N9784  1  0.840700  0.019800  0.126400  1.0
  N  N9785  1  0.762400  0.416300  0.141300  1.0
  N  N9786  1  0.737600  0.583700  0.641300  1.0
  N  N9787  1  0.237600  0.916300  0.358700  1.0
  N  N9788  1  0.262400  0.083700  0.858700  1.0
  N  N9789  1  0.237600  0.583700  0.858700  1.0
  N  N9790  1  0.262400  0.416300  0.358700  1.0
  N  N9791  1  0.762400  0.083700  0.641300  1.0
  N  N9792  1  0.737600  0.916300  0.141300  1.0
  N  N9793  1  0.778100  0.395900  0.127600  1.0
  N  N9794  1  0.721900  0.604100  0.627600  1.0
  N  N9795  1  0.221900  0.895900  0.372400  1.0
  N  N9796  1  0.278100  0.104100  0.872400  1.0
  N  N9797  1  0.221900  0.604100  0.872400  1.0
  N  N9798  1  0.278100  0.395900  0.372400  1.0
  N  N9799  1  0.778100  0.104100  0.627600  1.0
  N  N9800  1  0.721900  0.895900  0.127600  1.0
  N  N9801  1  0.762900  0.356200  0.054500  1.0
  N  N9802  1  0.737100  0.643800  0.554500  1.0
  N  N9803  1  0.237100  0.856200  0.445500  1.0
  N  N9804  1  0.262900  0.143800  0.945500  1.0
  N  N9805  1  0.237100  0.643800  0.945500  1.0
  N  N9806  1  0.262900  0.356200  0.445500  1.0
  N  N9807  1  0.762900  0.143800  0.554500  1.0
  N  N9808  1  0.737100  0.856200  0.054500  1.0
  N  N9809  1  0.821600  0.232100  0.117600  1.0
  N  N9810  1  0.678400  0.767900  0.617600  1.0
  N  N9811  1  0.178400  0.732100  0.382400  1.0
  N  N9812  1  0.321600  0.267900  0.882400  1.0
  N  N9813  1  0.178400  0.767900  0.882400  1.0
  N  N9814  1  0.321600  0.232100  0.382400  1.0
  N  N9815  1  0.821600  0.267900  0.617600  1.0
  N  N9816  1  0.678400  0.732100  0.117600  1.0
  N  N9817  1  0.787300  0.368300  0.141400  1.0
  N  N9818  1  0.712700  0.631700  0.641400  1.0
  N  N9819  1  0.212700  0.868300  0.358600  1.0
  N  N9820  1  0.287300  0.131700  0.858600  1.0
  N  N9821  1  0.212700  0.631700  0.858600  1.0
  N  N9822  1  0.287300  0.368300  0.358600  1.0
  N  N9823  1  0.787300  0.131700  0.641400  1.0
  N  N9824  1  0.712700  0.868300  0.141400  1.0
  N  N9825  1  0.721700  0.348000  0.223300  1.0
  N  N9826  1  0.778300  0.652000  0.723300  1.0
  N  N9827  1  0.278300  0.848000  0.276700  1.0
  N  N9828  1  0.221700  0.152000  0.776700  1.0
  N  N9829  1  0.278300  0.652000  0.776700  1.0
  N  N9830  1  0.221700  0.348000  0.276700  1.0
  N  N9831  1  0.721700  0.152000  0.723300  1.0
  N  N9832  1  0.778300  0.848000  0.223300  1.0
  N  N9833  1  0.771100  0.389700  0.154500  1.0
  N  N9834  1  0.728900  0.610300  0.654500  1.0
  N  N9835  1  0.228900  0.889700  0.345500  1.0
  N  N9836  1  0.271100  0.110300  0.845500  1.0
  N  N9837  1  0.228900  0.610300  0.845500  1.0
  N  N9838  1  0.271100  0.389700  0.345500  1.0
  N  N9839  1  0.771100  0.110300  0.654500  1.0
  N  N9840  1  0.728900  0.889700  0.154500  1.0
  O  O9841  1  0.394200  0.104900  0.970900  1.0
  O  O9842  1  0.105800  0.895100  0.470900  1.0
  O  O9843  1  0.605800  0.604900  0.529100  1.0
  O  O9844  1  0.894200  0.395100  0.029100  1.0
  O  O9845  1  0.605800  0.895100  0.029100  1.0
  O  O9846  1  0.894200  0.104900  0.529100  1.0
  O  O9847  1  0.394200  0.395100  0.470900  1.0
  O  O9848  1  0.105800  0.604900  0.970900  1.0
  O  O9849  1  0.357200  0.110000  0.978100  1.0
  O  O9850  1  0.142800  0.890000  0.478100  1.0
  O  O9851  1  0.642800  0.610000  0.521900  1.0
  O  O9852  1  0.857200  0.390000  0.021900  1.0
  O  O9853  1  0.642800  0.890000  0.021900  1.0
  O  O9854  1  0.857200  0.110000  0.521900  1.0
  O  O9855  1  0.357200  0.390000  0.478100  1.0
  O  O9856  1  0.142800  0.610000  0.978100  1.0
  O  O9857  1  0.194500  0.176800  0.050300  1.0
  O  O9858  1  0.305500  0.823200  0.550300  1.0
  O  O9859  1  0.805500  0.676800  0.449700  1.0
  O  O9860  1  0.694500  0.323200  0.949700  1.0
  O  O9861  1  0.805500  0.823200  0.949700  1.0
  O  O9862  1  0.694500  0.176800  0.449700  1.0
  O  O9863  1  0.194500  0.323200  0.550300  1.0
  O  O9864  1  0.305500  0.676800  0.050300  1.0
  O  O9865  1  0.214300  0.165300  0.034400  1.0
  O  O9866  1  0.285700  0.834700  0.534400  1.0
  O  O9867  1  0.785700  0.665300  0.465600  1.0
  O  O9868  1  0.714300  0.334700  0.965600  1.0
  O  O9869  1  0.785700  0.834700  0.965600  1.0
  O  O9870  1  0.714300  0.165300  0.465600  1.0
  O  O9871  1  0.214300  0.334700  0.534400  1.0
  O  O9872  1  0.285700  0.665300  0.034400  1.0
  O  O9873  1  0.157800  0.236500  0.140400  1.0
  O  O9874  1  0.342200  0.763500  0.640400  1.0
  O  O9875  1  0.842200  0.736500  0.359600  1.0
  O  O9876  1  0.657800  0.263500  0.859600  1.0
  O  O9877  1  0.842200  0.763500  0.859600  1.0
  O  O9878  1  0.657800  0.236500  0.359600  1.0
  O  O9879  1  0.157800  0.263500  0.640400  1.0
  O  O9880  1  0.342200  0.736500  0.140400  1.0
  O  O9881  1  0.163400  0.244300  0.160000  1.0
  O  O9882  1  0.336600  0.755700  0.660000  1.0
  O  O9883  1  0.836600  0.744300  0.340000  1.0
  O  O9884  1  0.663400  0.255700  0.840000  1.0
  O  O9885  1  0.836600  0.755700  0.840000  1.0
  O  O9886  1  0.663400  0.244300  0.340000  1.0
  O  O9887  1  0.163400  0.255700  0.660000  1.0
  O  O9888  1  0.336600  0.744300  0.160000  1.0
  O  O9889  1  0.271000  0.199500  0.257800  1.0
  O  O9890  1  0.229000  0.800500  0.757800  1.0
  O  O9891  1  0.729000  0.699500  0.242200  1.0
  O  O9892  1  0.771000  0.300500  0.742200  1.0
  O  O9893  1  0.729000  0.800500  0.742200  1.0
  O  O9894  1  0.771000  0.199500  0.242200  1.0
  O  O9895  1  0.271000  0.300500  0.757800  1.0
  O  O9896  1  0.229000  0.699500  0.257800  1.0
  O  O9897  1  0.243800  0.210900  0.244900  1.0
  O  O9898  1  0.256200  0.789100  0.744900  1.0
  O  O9899  1  0.756200  0.710900  0.255100  1.0
  O  O9900  1  0.743800  0.289100  0.755100  1.0
  O  O9901  1  0.756200  0.789100  0.755100  1.0
  O  O9902  1  0.743800  0.210900  0.255100  1.0
  O  O9903  1  0.243800  0.289100  0.744900  1.0
  O  O9904  1  0.256200  0.710900  0.244900  1.0
  O  O9905  1  0.204100  0.144000  0.199500  1.0
  O  O9906  1  0.295900  0.856000  0.699500  1.0
  O  O9907  1  0.795900  0.644000  0.300500  1.0
  O  O9908  1  0.704100  0.356000  0.800500  1.0
  O  O9909  1  0.795900  0.856000  0.800500  1.0
  O  O9910  1  0.704100  0.144000  0.300500  1.0
  O  O9911  1  0.204100  0.356000  0.699500  1.0
  O  O9912  1  0.295900  0.644000  0.199500  1.0
  O  O9913  1  0.210800  0.109200  0.190900  1.0
  O  O9914  1  0.289200  0.890800  0.690900  1.0
  O  O9915  1  0.789200  0.609200  0.309100  1.0
  O  O9916  1  0.710800  0.390800  0.809100  1.0
  O  O9917  1  0.789200  0.890800  0.809100  1.0
  O  O9918  1  0.710800  0.109200  0.309100  1.0
  O  O9919  1  0.210800  0.390800  0.690900  1.0
  O  O9920  1  0.289200  0.609200  0.190900  1.0
  O  O9921  1  0.178900  0.117900  0.115100  1.0
  O  O9922  1  0.321100  0.882100  0.615100  1.0
  O  O9923  1  0.821100  0.617900  0.384900  1.0
  O  O9924  1  0.678900  0.382100  0.884900  1.0
  O  O9925  1  0.821100  0.882100  0.884900  1.0
  O  O9926  1  0.678900  0.117900  0.384900  1.0
  O  O9927  1  0.178900  0.382100  0.615100  1.0
  O  O9928  1  0.321100  0.617900  0.115100  1.0
  O  O9929  1  0.191200  0.088400  0.126700  1.0
  O  O9930  1  0.308800  0.911600  0.626700  1.0
  O  O9931  1  0.808800  0.588400  0.373300  1.0
  O  O9932  1  0.691200  0.411600  0.873300  1.0
  O  O9933  1  0.808800  0.911600  0.873300  1.0
  O  O9934  1  0.691200  0.088400  0.373300  1.0
  O  O9935  1  0.191200  0.411600  0.626700  1.0
  O  O9936  1  0.308800  0.588400  0.126700  1.0
  O  O9937  1  0.276300  0.977500  0.105300  1.0
  O  O9938  1  0.223700  0.022500  0.605300  1.0
  O  O9939  1  0.723700  0.477500  0.394700  1.0
  O  O9940  1  0.776300  0.522500  0.894700  1.0
  O  O9941  1  0.723700  0.022500  0.894700  1.0
  O  O9942  1  0.776300  0.977500  0.394700  1.0
  O  O9943  1  0.276300  0.522500  0.605300  1.0
  O  O9944  1  0.223700  0.477500  0.105300  1.0
  O  O9945  1  0.264200  0.987400  0.124200  1.0
  O  O9946  1  0.235800  0.012600  0.624200  1.0
  O  O9947  1  0.735800  0.487400  0.375800  1.0
  O  O9948  1  0.764200  0.512600  0.875800  1.0
  O  O9949  1  0.735800  0.012600  0.875800  1.0
  O  O9950  1  0.764200  0.987400  0.375800  1.0
  O  O9951  1  0.264200  0.512600  0.624200  1.0
  O  O9952  1  0.235800  0.487400  0.124200  1.0
  O  O9953  1  0.287400  0.049700  0.024400  1.0
  O  O9954  1  0.212600  0.950300  0.524400  1.0
  O  O9955  1  0.712600  0.549700  0.475600  1.0
  O  O9956  1  0.787400  0.450300  0.975600  1.0
  O  O9957  1  0.712600  0.950300  0.975600  1.0
  O  O9958  1  0.787400  0.049700  0.475600  1.0
  O  O9959  1  0.287400  0.450300  0.524400  1.0
  O  O9960  1  0.212600  0.549700  0.024400  1.0
  O  O9961  1  0.296800  0.019200  0.035800  1.0
  O  O9962  1  0.203200  0.980800  0.535800  1.0
  O  O9963  1  0.703200  0.519200  0.464200  1.0
  O  O9964  1  0.796800  0.480800  0.964200  1.0
  O  O9965  1  0.703200  0.980800  0.964200  1.0
  O  O9966  1  0.796800  0.019200  0.464200  1.0
  O  O9967  1  0.296800  0.480800  0.535800  1.0
  O  O9968  1  0.203200  0.519200  0.035800  1.0
  O  O9969  1  0.409600  0.904300  0.117400  1.0
  O  O9970  1  0.090400  0.095700  0.617400  1.0
  O  O9971  1  0.590400  0.404300  0.382600  1.0
  O  O9972  1  0.909600  0.595700  0.882600  1.0
  O  O9973  1  0.590400  0.095700  0.882600  1.0
  O  O9974  1  0.909600  0.904300  0.382600  1.0
  O  O9975  1  0.409600  0.595700  0.617400  1.0
  O  O9976  1  0.090400  0.404300  0.117400  1.0
  O  O9977  1  0.384200  0.914400  0.102900  1.0
  O  O9978  1  0.115800  0.085600  0.602900  1.0
  O  O9979  1  0.615800  0.414400  0.397100  1.0
  O  O9980  1  0.884200  0.585600  0.897100  1.0
  O  O9981  1  0.615800  0.085600  0.897100  1.0
  O  O9982  1  0.884200  0.914400  0.397100  1.0
  O  O9983  1  0.384200  0.585600  0.602900  1.0
  O  O9984  1  0.115800  0.414400  0.102900  1.0
  O  O9985  1  0.414400  0.942600  0.043300  1.0
  O  O9986  1  0.085600  0.057400  0.543300  1.0
  O  O9987  1  0.585600  0.442600  0.456700  1.0
  O  O9988  1  0.914400  0.557400  0.956700  1.0
  O  O9989  1  0.585600  0.057400  0.956700  1.0
  O  O9990  1  0.914400  0.942600  0.456700  1.0
  O  O9991  1  0.414400  0.557400  0.543300  1.0
  O  O9992  1  0.085600  0.442600  0.043300  1.0
  O  O9993  1  0.452400  0.939200  0.038200  1.0
  O  O9994  1  0.047600  0.060800  0.538200  1.0
  O  O9995  1  0.547600  0.439200  0.461800  1.0
  O  O9996  1  0.952400  0.560800  0.961800  1.0
  O  O9997  1  0.547600  0.060800  0.961800  1.0
  O  O9998  1  0.952400  0.939200  0.461800  1.0
  O  O9999  1  0.452400  0.560800  0.538200  1.0
  O  O10000  1  0.047600  0.439200  0.038200  1.0
  O  O10001  1  0.533900  0.001400  0.996600  1.0
  O  O10002  1  0.966100  0.998600  0.496600  1.0
  O  O10003  1  0.466100  0.501400  0.503400  1.0
  O  O10004  1  0.033900  0.498600  0.003400  1.0
  O  O10005  1  0.466100  0.998600  0.003400  1.0
  O  O10006  1  0.033900  0.001400  0.503400  1.0
  O  O10007  1  0.533900  0.498600  0.496600  1.0
  O  O10008  1  0.966100  0.501400  0.996600  1.0
  O  O10009  1  0.517700  0.027700  0.983800  1.0
  O  O10010  1  0.982300  0.972300  0.483800  1.0
  O  O10011  1  0.482300  0.527700  0.516200  1.0
  O  O10012  1  0.017700  0.472300  0.016200  1.0
  O  O10013  1  0.482300  0.972300  0.016200  1.0
  O  O10014  1  0.017700  0.027700  0.516200  1.0
  O  O10015  1  0.517700  0.472300  0.483800  1.0
  O  O10016  1  0.982300  0.527700  0.983800  1.0
  O  O10017  1  0.541700  0.905500  0.078900  1.0
  O  O10018  1  0.958300  0.094500  0.578900  1.0
  O  O10019  1  0.458300  0.405500  0.421100  1.0
  O  O10020  1  0.041700  0.594500  0.921100  1.0
  O  O10021  1  0.458300  0.094500  0.921100  1.0
  O  O10022  1  0.041700  0.905500  0.421100  1.0
  O  O10023  1  0.541700  0.594500  0.578900  1.0
  O  O10024  1  0.958300  0.405500  0.078900  1.0
  O  O10025  1  0.533100  0.896800  0.097600  1.0
  O  O10026  1  0.966900  0.103200  0.597600  1.0
  O  O10027  1  0.466900  0.396800  0.402400  1.0
  O  O10028  1  0.033100  0.603200  0.902400  1.0
  O  O10029  1  0.466900  0.103200  0.902400  1.0
  O  O10030  1  0.033100  0.896800  0.402400  1.0
  O  O10031  1  0.533100  0.603200  0.597600  1.0
  O  O10032  1  0.966900  0.396800  0.097600  1.0
  O  O10033  1  0.447100  0.939400  0.203100  1.0
  O  O10034  1  0.052900  0.060600  0.703100  1.0
  O  O10035  1  0.552900  0.439400  0.296900  1.0
  O  O10036  1  0.947100  0.560600  0.796900  1.0
  O  O10037  1  0.552900  0.060600  0.796900  1.0
  O  O10038  1  0.947100  0.939400  0.296900  1.0
  O  O10039  1  0.447100  0.560600  0.703100  1.0
  O  O10040  1  0.052900  0.439400  0.203100  1.0
  O  O10041  1  0.461800  0.922100  0.187100  1.0
  O  O10042  1  0.038200  0.077900  0.687100  1.0
  O  O10043  1  0.538200  0.422100  0.312900  1.0
  O  O10044  1  0.961800  0.577900  0.812900  1.0
  O  O10045  1  0.538200  0.077900  0.812900  1.0
  O  O10046  1  0.961800  0.922100  0.312900  1.0
  O  O10047  1  0.461800  0.577900  0.687100  1.0
  O  O10048  1  0.038200  0.422100  0.187100  1.0
  O  O10049  1  0.299700  0.002200  0.193400  1.0
  O  O10050  1  0.200300  0.997800  0.693400  1.0
  O  O10051  1  0.700300  0.502200  0.306600  1.0
  O  O10052  1  0.799700  0.497800  0.806600  1.0
  O  O10053  1  0.700300  0.997800  0.806600  1.0
  O  O10054  1  0.799700  0.002200  0.306600  1.0
  O  O10055  1  0.299700  0.497800  0.693400  1.0
  O  O10056  1  0.200300  0.502200  0.193400  1.0
  O  O10057  1  0.328400  0.996100  0.206600  1.0
  O  O10058  1  0.171600  0.003900  0.706600  1.0
  O  O10059  1  0.671600  0.496100  0.293400  1.0
  O  O10060  1  0.828400  0.503900  0.793400  1.0
  O  O10061  1  0.671600  0.003900  0.793400  1.0
  O  O10062  1  0.828400  0.996100  0.293400  1.0
  O  O10063  1  0.328400  0.503900  0.706600  1.0
  O  O10064  1  0.171600  0.496100  0.206600  1.0
  O  O10065  1  0.363800  0.068600  0.257900  1.0
  O  O10066  1  0.136200  0.931400  0.757900  1.0
  O  O10067  1  0.636200  0.568600  0.242100  1.0
  O  O10068  1  0.863800  0.431400  0.742100  1.0
  O  O10069  1  0.636200  0.931400  0.742100  1.0
  O  O10070  1  0.863800  0.068600  0.242100  1.0
  O  O10071  1  0.363800  0.431400  0.757900  1.0
  O  O10072  1  0.136200  0.568600  0.257900  1.0
  O  O10073  1  0.355100  0.101800  0.267300  1.0
  O  O10074  1  0.144900  0.898200  0.767300  1.0
  O  O10075  1  0.644900  0.601800  0.232700  1.0
  O  O10076  1  0.855100  0.398200  0.732700  1.0
  O  O10077  1  0.644900  0.898200  0.732700  1.0
  O  O10078  1  0.855100  0.101800  0.232700  1.0
  O  O10079  1  0.355100  0.398200  0.767300  1.0
  O  O10080  1  0.144900  0.601800  0.267300  1.0
  O  O10081  1  0.439700  0.195700  0.301800  1.0
  O  O10082  1  0.060300  0.804300  0.801800  1.0
  O  O10083  1  0.560300  0.695700  0.198200  1.0
  O  O10084  1  0.939700  0.304300  0.698200  1.0
  O  O10085  1  0.560300  0.804300  0.698200  1.0
  O  O10086  1  0.939700  0.195700  0.198200  1.0
  O  O10087  1  0.439700  0.304300  0.801800  1.0
  O  O10088  1  0.060300  0.695700  0.301800  1.0
  O  O10089  1  0.475200  0.209000  0.306000  1.0
  O  O10090  1  0.024800  0.791000  0.806000  1.0
  O  O10091  1  0.524800  0.709000  0.194000  1.0
  O  O10092  1  0.975200  0.291000  0.694000  1.0
  O  O10093  1  0.524800  0.791000  0.694000  1.0
  O  O10094  1  0.975200  0.209000  0.194000  1.0
  O  O10095  1  0.475200  0.291000  0.806000  1.0
  O  O10096  1  0.024800  0.709000  0.306000  1.0
  O  O10097  1  0.593300  0.162000  0.296600  1.0
  O  O10098  1  0.906700  0.838000  0.796600  1.0
  O  O10099  1  0.406700  0.662000  0.203400  1.0
  O  O10100  1  0.093300  0.338000  0.703400  1.0
  O  O10101  1  0.406700  0.838000  0.703400  1.0
  O  O10102  1  0.093300  0.162000  0.203400  1.0
  O  O10103  1  0.593300  0.338000  0.796600  1.0
  O  O10104  1  0.906700  0.662000  0.296600  1.0
  O  O10105  1  0.599700  0.125300  0.289900  1.0
  O  O10106  1  0.900300  0.874700  0.789900  1.0
  O  O10107  1  0.400300  0.625300  0.210100  1.0
  O  O10108  1  0.099700  0.374700  0.710100  1.0
  O  O10109  1  0.400300  0.874700  0.710100  1.0
  O  O10110  1  0.099700  0.125300  0.210100  1.0
  O  O10111  1  0.599700  0.374700  0.789900  1.0
  O  O10112  1  0.900300  0.625300  0.289900  1.0
  O  O10113  1  0.524200  0.020400  0.262200  1.0
  O  O10114  1  0.975800  0.979600  0.762200  1.0
  O  O10115  1  0.475800  0.520400  0.237800  1.0
  O  O10116  1  0.024200  0.479600  0.737800  1.0
  O  O10117  1  0.475800  0.979600  0.737800  1.0
  O  O10118  1  0.024200  0.020400  0.237800  1.0
  O  O10119  1  0.524200  0.479600  0.762200  1.0
  O  O10120  1  0.975800  0.520400  0.262200  1.0
  O  O10121  1  0.487300  0.012300  0.257000  1.0
  O  O10122  1  0.012700  0.987700  0.757000  1.0
  O  O10123  1  0.512700  0.512300  0.243000  1.0
  O  O10124  1  0.987300  0.487700  0.743000  1.0
  O  O10125  1  0.512700  0.987700  0.743000  1.0
  O  O10126  1  0.987300  0.012300  0.243000  1.0
  O  O10127  1  0.487300  0.487700  0.757000  1.0
  O  O10128  1  0.012700  0.512300  0.257000  1.0
  O  O10129  1  0.638300  0.984700  0.227100  1.0
  O  O10130  1  0.861700  0.015300  0.727100  1.0
  O  O10131  1  0.361700  0.484700  0.272900  1.0
  O  O10132  1  0.138300  0.515300  0.772900  1.0
  O  O10133  1  0.361700  0.015300  0.772900  1.0
  O  O10134  1  0.138300  0.984700  0.272900  1.0
  O  O10135  1  0.638300  0.515300  0.727100  1.0
  O  O10136  1  0.861700  0.484700  0.227100  1.0
  O  O10137  1  0.650800  0.970700  0.209700  1.0
  O  O10138  1  0.849200  0.029300  0.709700  1.0
  O  O10139  1  0.349200  0.470700  0.290300  1.0
  O  O10140  1  0.150800  0.529300  0.790300  1.0
  O  O10141  1  0.349200  0.029300  0.790300  1.0
  O  O10142  1  0.150800  0.970700  0.290300  1.0
  O  O10143  1  0.650800  0.529300  0.709700  1.0
  O  O10144  1  0.849200  0.470700  0.209700  1.0
  O  O10145  1  0.619700  0.917300  0.158000  1.0
  O  O10146  1  0.880300  0.082700  0.658000  1.0
  O  O10147  1  0.380300  0.417300  0.342000  1.0
  O  O10148  1  0.119700  0.582700  0.842000  1.0
  O  O10149  1  0.380300  0.082700  0.842000  1.0
  O  O10150  1  0.119700  0.917300  0.342000  1.0
  O  O10151  1  0.619700  0.582700  0.658000  1.0
  O  O10152  1  0.880300  0.417300  0.158000  1.0
  O  O10153  1  0.582200  0.905600  0.155100  1.0
  O  O10154  1  0.917800  0.094400  0.655100  1.0
  O  O10155  1  0.417800  0.405600  0.344900  1.0
  O  O10156  1  0.082200  0.594400  0.844900  1.0
  O  O10157  1  0.417800  0.094400  0.844900  1.0
  O  O10158  1  0.082200  0.905600  0.344900  1.0
  O  O10159  1  0.582200  0.594400  0.655100  1.0
  O  O10160  1  0.917800  0.405600  0.155100  1.0
  O  O10161  1  0.734400  0.983100  0.102300  1.0
  O  O10162  1  0.765600  0.016900  0.602300  1.0
  O  O10163  1  0.265600  0.483100  0.397700  1.0
  O  O10164  1  0.234400  0.516900  0.897700  1.0
  O  O10165  1  0.265600  0.016900  0.897700  1.0
  O  O10166  1  0.234400  0.983100  0.397700  1.0
  O  O10167  1  0.734400  0.516900  0.602300  1.0
  O  O10168  1  0.765600  0.483100  0.102300  1.0
  O  O10169  1  0.724800  0.971000  0.121000  1.0
  O  O10170  1  0.775200  0.029000  0.621000  1.0
  O  O10171  1  0.275200  0.471000  0.379000  1.0
  O  O10172  1  0.224800  0.529000  0.879000  1.0
  O  O10173  1  0.275200  0.029000  0.879000  1.0
  O  O10174  1  0.224800  0.971000  0.379000  1.0
  O  O10175  1  0.724800  0.529000  0.621000  1.0
  O  O10176  1  0.775200  0.471000  0.121000  1.0
  O  O10177  1  0.638900  0.968100  0.039300  1.0
  O  O10178  1  0.861100  0.031900  0.539300  1.0
  O  O10179  1  0.361100  0.468100  0.460700  1.0
  O  O10180  1  0.138900  0.531900  0.960700  1.0
  O  O10181  1  0.361100  0.031900  0.960700  1.0
  O  O10182  1  0.138900  0.968100  0.460700  1.0
  O  O10183  1  0.638900  0.531900  0.539300  1.0
  O  O10184  1  0.861100  0.468100  0.039300  1.0
  O  O10185  1  0.675000  0.983700  0.043100  1.0
  O  O10186  1  0.825000  0.016300  0.543100  1.0
  O  O10187  1  0.325000  0.483700  0.456900  1.0
  O  O10188  1  0.175000  0.516300  0.956900  1.0
  O  O10189  1  0.325000  0.016300  0.956900  1.0
  O  O10190  1  0.175000  0.983700  0.456900  1.0
  O  O10191  1  0.675000  0.516300  0.543100  1.0
  O  O10192  1  0.825000  0.483700  0.043100  1.0
  O  O10193  1  0.749600  0.092800  0.024600  1.0
  O  O10194  1  0.750400  0.907200  0.524600  1.0
  O  O10195  1  0.250400  0.592800  0.475400  1.0
  O  O10196  1  0.249600  0.407200  0.975400  1.0
  O  O10197  1  0.250400  0.907200  0.975400  1.0
  O  O10198  1  0.249600  0.092800  0.475400  1.0
  O  O10199  1  0.749600  0.407200  0.524600  1.0
  O  O10200  1  0.750400  0.592800  0.024600  1.0
  O  O10201  1  0.739500  0.119400  0.009600  1.0
  O  O10202  1  0.760500  0.880600  0.509600  1.0
  O  O10203  1  0.260500  0.619400  0.490400  1.0
  O  O10204  1  0.239500  0.380600  0.990400  1.0
  O  O10205  1  0.260500  0.880600  0.990400  1.0
  O  O10206  1  0.239500  0.119400  0.490400  1.0
  O  O10207  1  0.739500  0.380600  0.509600  1.0
  O  O10208  1  0.760500  0.619400  0.009600  1.0
  O  O10209  1  0.619800  0.128500  0.967600  1.0
  O  O10210  1  0.880200  0.871500  0.467600  1.0
  O  O10211  1  0.380200  0.628500  0.532400  1.0
  O  O10212  1  0.119800  0.371500  0.032400  1.0
  O  O10213  1  0.380200  0.871500  0.032400  1.0
  O  O10214  1  0.119800  0.128500  0.532400  1.0
  O  O10215  1  0.619800  0.371500  0.467600  1.0
  O  O10216  1  0.880200  0.628500  0.967600  1.0
  O  O10217  1  0.583700  0.114900  0.964500  1.0
  O  O10218  1  0.916300  0.885100  0.464500  1.0
  O  O10219  1  0.416300  0.614900  0.535500  1.0
  O  O10220  1  0.083700  0.385100  0.035500  1.0
  O  O10221  1  0.416300  0.885100  0.035500  1.0
  O  O10222  1  0.083700  0.114900  0.535500  1.0
  O  O10223  1  0.583700  0.385100  0.464500  1.0
  O  O10224  1  0.916300  0.614900  0.964500  1.0
  O  O10225  1  0.614400  0.281000  0.958600  1.0
  O  O10226  1  0.885600  0.719000  0.458600  1.0
  O  O10227  1  0.385600  0.781000  0.541400  1.0
  O  O10228  1  0.114400  0.219000  0.041400  1.0
  O  O10229  1  0.385600  0.719000  0.041400  1.0
  O  O10230  1  0.114400  0.281000  0.541400  1.0
  O  O10231  1  0.614400  0.219000  0.458600  1.0
  O  O10232  1  0.885600  0.781000  0.958600  1.0
  O  O10233  1  0.642300  0.253400  0.962400  1.0
  O  O10234  1  0.857700  0.746600  0.462400  1.0
  O  O10235  1  0.357700  0.753400  0.537600  1.0
  O  O10236  1  0.142300  0.246600  0.037600  1.0
  O  O10237  1  0.357700  0.746600  0.037600  1.0
  O  O10238  1  0.142300  0.253400  0.537600  1.0
  O  O10239  1  0.642300  0.246600  0.462400  1.0
  O  O10240  1  0.857700  0.753400  0.962400  1.0
  O  O10241  1  0.485200  0.199700  0.948700  1.0
  O  O10242  1  0.014800  0.800300  0.448700  1.0
  O  O10243  1  0.514800  0.699700  0.551300  1.0
  O  O10244  1  0.985200  0.300300  0.051300  1.0
  O  O10245  1  0.514800  0.800300  0.051300  1.0
  O  O10246  1  0.985200  0.199700  0.551300  1.0
  O  O10247  1  0.485200  0.300300  0.448700  1.0
  O  O10248  1  0.014800  0.699700  0.948700  1.0
  O  O10249  1  0.492700  0.238900  0.948000  1.0
  O  O10250  1  0.007300  0.761100  0.448000  1.0
  O  O10251  1  0.507300  0.738900  0.552000  1.0
  O  O10252  1  0.992700  0.261100  0.052000  1.0
  O  O10253  1  0.507300  0.761100  0.052000  1.0
  O  O10254  1  0.992700  0.238900  0.552000  1.0
  O  O10255  1  0.492700  0.261100  0.448000  1.0
  O  O10256  1  0.007300  0.738900  0.948000  1.0
  O  O10257  1  0.438400  0.346700  0.960100  1.0
  O  O10258  1  0.061600  0.653300  0.460100  1.0
  O  O10259  1  0.561600  0.846700  0.539900  1.0
  O  O10260  1  0.938400  0.153300  0.039900  1.0
  O  O10261  1  0.561600  0.653300  0.039900  1.0
  O  O10262  1  0.938400  0.346700  0.539900  1.0
  O  O10263  1  0.438400  0.153300  0.460100  1.0
  O  O10264  1  0.061600  0.846700  0.960100  1.0
  O  O10265  1  0.400100  0.346900  0.964900  1.0
  O  O10266  1  0.099900  0.653100  0.464900  1.0
  O  O10267  1  0.599900  0.846900  0.535100  1.0
  O  O10268  1  0.900100  0.153100  0.035100  1.0
  O  O10269  1  0.599900  0.653100  0.035100  1.0
  O  O10270  1  0.900100  0.346900  0.535100  1.0
  O  O10271  1  0.400100  0.153100  0.464900  1.0
  O  O10272  1  0.099900  0.846900  0.964900  1.0
  O  O10273  1  0.292800  0.260300  0.982800  1.0
  O  O10274  1  0.207200  0.739700  0.482800  1.0
  O  O10275  1  0.707200  0.760300  0.517200  1.0
  O  O10276  1  0.792800  0.239700  0.017200  1.0
  O  O10277  1  0.707200  0.739700  0.017200  1.0
  O  O10278  1  0.792800  0.260300  0.517200  1.0
  O  O10279  1  0.292800  0.239700  0.482800  1.0
  O  O10280  1  0.207200  0.760300  0.982800  1.0
  O  O10281  1  0.290600  0.221600  0.983900  1.0
  O  O10282  1  0.209400  0.778400  0.483900  1.0
  O  O10283  1  0.709400  0.721600  0.516100  1.0
  O  O10284  1  0.790600  0.278400  0.016100  1.0
  O  O10285  1  0.709400  0.778400  0.016100  1.0
  O  O10286  1  0.790600  0.221600  0.516100  1.0
  O  O10287  1  0.290600  0.278400  0.483900  1.0
  O  O10288  1  0.209400  0.721600  0.983900  1.0
  O  O10289  1  0.235400  0.388900  0.039000  1.0
  O  O10290  1  0.264600  0.611100  0.539000  1.0
  O  O10291  1  0.764600  0.888900  0.461000  1.0
  O  O10292  1  0.735400  0.111100  0.961000  1.0
  O  O10293  1  0.764600  0.611100  0.961000  1.0
  O  O10294  1  0.735400  0.388900  0.461000  1.0
  O  O10295  1  0.235400  0.111100  0.539000  1.0
  O  O10296  1  0.264600  0.888900  0.039000  1.0
  O  O10297  1  0.252100  0.375600  0.022000  1.0
  O  O10298  1  0.247900  0.624400  0.522000  1.0
  O  O10299  1  0.747900  0.875600  0.478000  1.0
  O  O10300  1  0.752100  0.124400  0.978000  1.0
  O  O10301  1  0.747900  0.624400  0.978000  1.0
  O  O10302  1  0.752100  0.375600  0.478000  1.0
  O  O10303  1  0.252100  0.124400  0.522000  1.0
  O  O10304  1  0.247900  0.875600  0.022000  1.0
  O  O10305  1  0.166500  0.296400  0.087000  1.0
  O  O10306  1  0.333500  0.703600  0.587000  1.0
  O  O10307  1  0.833500  0.796400  0.413000  1.0
  O  O10308  1  0.666500  0.203600  0.913000  1.0
  O  O10309  1  0.833500  0.703600  0.913000  1.0
  O  O10310  1  0.666500  0.296400  0.413000  1.0
  O  O10311  1  0.166500  0.203600  0.587000  1.0
  O  O10312  1  0.333500  0.796400  0.087000  1.0
  O  O10313  1  0.175000  0.334000  0.086200  1.0
  O  O10314  1  0.325000  0.666000  0.586200  1.0
  O  O10315  1  0.825000  0.834000  0.413800  1.0
  O  O10316  1  0.675000  0.166000  0.913800  1.0
  O  O10317  1  0.825000  0.666000  0.913800  1.0
  O  O10318  1  0.675000  0.334000  0.413800  1.0
  O  O10319  1  0.175000  0.166000  0.586200  1.0
  O  O10320  1  0.325000  0.834000  0.086200  1.0
  O  O10321  1  0.216700  0.434000  0.132700  1.0
  O  O10322  1  0.283300  0.566000  0.632700  1.0
  O  O10323  1  0.783300  0.934000  0.367300  1.0
  O  O10324  1  0.716700  0.066000  0.867300  1.0
  O  O10325  1  0.783300  0.566000  0.867300  1.0
  O  O10326  1  0.716700  0.434000  0.367300  1.0
  O  O10327  1  0.216700  0.066000  0.632700  1.0
  O  O10328  1  0.283300  0.934000  0.132700  1.0
  O  O10329  1  0.225700  0.439200  0.151900  1.0
  O  O10330  1  0.274300  0.560800  0.651900  1.0
  O  O10331  1  0.774300  0.939200  0.348100  1.0
  O  O10332  1  0.725700  0.060800  0.848100  1.0
  O  O10333  1  0.774300  0.560800  0.848100  1.0
  O  O10334  1  0.725700  0.439200  0.348100  1.0
  O  O10335  1  0.225700  0.060800  0.651900  1.0
  O  O10336  1  0.274300  0.939200  0.151900  1.0
  O  O10337  1  0.218200  0.333000  0.212000  1.0
  O  O10338  1  0.281800  0.667000  0.712000  1.0
  O  O10339  1  0.781800  0.833000  0.288000  1.0
  O  O10340  1  0.718200  0.167000  0.788000  1.0
  O  O10341  1  0.781800  0.667000  0.788000  1.0
  O  O10342  1  0.718200  0.333000  0.288000  1.0
  O  O10343  1  0.218200  0.167000  0.712000  1.0
  O  O10344  1  0.281800  0.833000  0.212000  1.0
  O  O10345  1  0.229300  0.369500  0.209300  1.0
  O  O10346  1  0.270700  0.630500  0.709300  1.0
  O  O10347  1  0.770700  0.869500  0.290700  1.0
  O  O10348  1  0.729300  0.130500  0.790700  1.0
  O  O10349  1  0.770700  0.630500  0.790700  1.0
  O  O10350  1  0.729300  0.369500  0.290700  1.0
  O  O10351  1  0.229300  0.130500  0.709300  1.0
  O  O10352  1  0.270700  0.869500  0.209300  1.0
  O  O10353  1  0.318800  0.451000  0.233800  1.0
  O  O10354  1  0.181200  0.549000  0.733800  1.0
  O  O10355  1  0.681200  0.951000  0.266200  1.0
  O  O10356  1  0.818800  0.049000  0.766200  1.0
  O  O10357  1  0.681200  0.549000  0.766200  1.0
  O  O10358  1  0.818800  0.451000  0.266200  1.0
  O  O10359  1  0.318800  0.049000  0.733800  1.0
  O  O10360  1  0.181200  0.951000  0.233800  1.0
  O  O10361  1  0.343200  0.443000  0.249200  1.0
  O  O10362  1  0.156800  0.557000  0.749200  1.0
  O  O10363  1  0.656800  0.943000  0.250800  1.0
  O  O10364  1  0.843200  0.057000  0.750800  1.0
  O  O10365  1  0.656800  0.557000  0.750800  1.0
  O  O10366  1  0.843200  0.443000  0.250800  1.0
  O  O10367  1  0.343200  0.057000  0.749200  1.0
  O  O10368  1  0.156800  0.943000  0.249200  1.0
  O  O10369  1  0.356000  0.327000  0.284300  1.0
  O  O10370  1  0.144000  0.673000  0.784300  1.0
  O  O10371  1  0.644000  0.827000  0.215700  1.0
  O  O10372  1  0.856000  0.173000  0.715700  1.0
  O  O10373  1  0.644000  0.673000  0.715700  1.0
  O  O10374  1  0.856000  0.327000  0.215700  1.0
  O  O10375  1  0.356000  0.173000  0.784300  1.0
  O  O10376  1  0.144000  0.827000  0.284300  1.0
  O  O10377  1  0.345500  0.288900  0.284800  1.0
  O  O10378  1  0.154500  0.711100  0.784800  1.0
  O  O10379  1  0.654500  0.788900  0.215200  1.0
  O  O10380  1  0.845500  0.211100  0.715200  1.0
  O  O10381  1  0.654500  0.711100  0.715200  1.0
  O  O10382  1  0.845500  0.288900  0.215200  1.0
  O  O10383  1  0.345500  0.211100  0.784800  1.0
  O  O10384  1  0.154500  0.788900  0.284800  1.0
  O  O10385  1  0.510300  0.328400  0.303400  1.0
  O  O10386  1  0.989700  0.671600  0.803400  1.0
  O  O10387  1  0.489700  0.828400  0.196600  1.0
  O  O10388  1  0.010300  0.171600  0.696600  1.0
  O  O10389  1  0.489700  0.671600  0.696600  1.0
  O  O10390  1  0.010300  0.328400  0.196600  1.0
  O  O10391  1  0.510300  0.171600  0.803400  1.0
  O  O10392  1  0.989700  0.828400  0.303400  1.0
  O  O10393  1  0.484600  0.356900  0.299000  1.0
  O  O10394  1  0.015400  0.643100  0.799000  1.0
  O  O10395  1  0.515400  0.856900  0.201000  1.0
  O  O10396  1  0.984600  0.143100  0.701000  1.0
  O  O10397  1  0.515400  0.643100  0.701000  1.0
  O  O10398  1  0.984600  0.356900  0.201000  1.0
  O  O10399  1  0.484600  0.143100  0.799000  1.0
  O  O10400  1  0.015400  0.856900  0.299000  1.0
  O  O10401  1  0.486800  0.464400  0.268400  1.0
  O  O10402  1  0.013200  0.535600  0.768400  1.0
  O  O10403  1  0.513200  0.964400  0.231600  1.0
  O  O10404  1  0.986800  0.035600  0.731600  1.0
  O  O10405  1  0.513200  0.535600  0.731600  1.0
  O  O10406  1  0.986800  0.464400  0.231600  1.0
  O  O10407  1  0.486800  0.035600  0.768400  1.0
  O  O10408  1  0.013200  0.964400  0.268400  1.0
  O  O10409  1  0.519200  0.478500  0.261200  1.0
  O  O10410  1  0.980800  0.521500  0.761200  1.0
  O  O10411  1  0.480800  0.978500  0.238800  1.0
  O  O10412  1  0.019200  0.021500  0.738800  1.0
  O  O10413  1  0.480800  0.521500  0.738800  1.0
  O  O10414  1  0.019200  0.478500  0.238800  1.0
  O  O10415  1  0.519200  0.021500  0.761200  1.0
  O  O10416  1  0.980800  0.978500  0.261200  1.0
  O  O10417  1  0.509500  0.554600  0.208900  1.0
  O  O10418  1  0.990500  0.445400  0.708900  1.0
  O  O10419  1  0.490500  0.054600  0.291100  1.0
  O  O10420  1  0.009500  0.945400  0.791100  1.0
  O  O10421  1  0.490500  0.445400  0.791100  1.0
  O  O10422  1  0.009500  0.554600  0.291100  1.0
  O  O10423  1  0.509500  0.945400  0.708900  1.0
  O  O10424  1  0.990500  0.054600  0.208900  1.0
  O  O10425  1  0.483500  0.567700  0.195100  1.0
  O  O10426  1  0.016500  0.432300  0.695100  1.0
  O  O10427  1  0.516500  0.067700  0.304900  1.0
  O  O10428  1  0.983500  0.932300  0.804900  1.0
  O  O10429  1  0.516500  0.432300  0.804900  1.0
  O  O10430  1  0.983500  0.567700  0.304900  1.0
  O  O10431  1  0.483500  0.932300  0.695100  1.0
  O  O10432  1  0.016500  0.067700  0.195100  1.0
  O  O10433  1  0.358300  0.543400  0.176600  1.0
  O  O10434  1  0.141700  0.456600  0.676600  1.0
  O  O10435  1  0.641700  0.043400  0.323400  1.0
  O  O10436  1  0.858300  0.956600  0.823400  1.0
  O  O10437  1  0.641700  0.456600  0.823400  1.0
  O  O10438  1  0.858300  0.543400  0.323400  1.0
  O  O10439  1  0.358300  0.956600  0.676600  1.0
  O  O10440  1  0.141700  0.043400  0.176600  1.0
  O  O10441  1  0.329200  0.519500  0.183900  1.0
  O  O10442  1  0.170800  0.480500  0.683900  1.0
  O  O10443  1  0.670800  0.019500  0.316100  1.0
  O  O10444  1  0.829200  0.980500  0.816100  1.0
  O  O10445  1  0.670800  0.480500  0.816100  1.0
  O  O10446  1  0.829200  0.519500  0.316100  1.0
  O  O10447  1  0.329200  0.980500  0.683900  1.0
  O  O10448  1  0.170800  0.019500  0.183900  1.0
  O  O10449  1  0.410100  0.572500  0.087300  1.0
  O  O10450  1  0.089900  0.427500  0.587300  1.0
  O  O10451  1  0.589900  0.072500  0.412700  1.0
  O  O10452  1  0.910100  0.927500  0.912700  1.0
  O  O10453  1  0.589900  0.427500  0.912700  1.0
  O  O10454  1  0.910100  0.572500  0.412700  1.0
  O  O10455  1  0.410100  0.927500  0.587300  1.0
  O  O10456  1  0.089900  0.072500  0.087300  1.0
  O  O10457  1  0.416000  0.581700  0.106500  1.0
  O  O10458  1  0.084000  0.418300  0.606500  1.0
  O  O10459  1  0.584000  0.081700  0.393500  1.0
  O  O10460  1  0.916000  0.918300  0.893500  1.0
  O  O10461  1  0.584000  0.418300  0.893500  1.0
  O  O10462  1  0.916000  0.581700  0.393500  1.0
  O  O10463  1  0.416000  0.918300  0.606500  1.0
  O  O10464  1  0.084000  0.081700  0.106500  1.0
  O  O10465  1  0.279600  0.487800  0.072700  1.0
  O  O10466  1  0.220400  0.512200  0.572700  1.0
  O  O10467  1  0.720400  0.987800  0.427300  1.0
  O  O10468  1  0.779600  0.012200  0.927300  1.0
  O  O10469  1  0.720400  0.512200  0.927300  1.0
  O  O10470  1  0.779600  0.487800  0.427300  1.0
  O  O10471  1  0.279600  0.012200  0.572700  1.0
  O  O10472  1  0.220400  0.987800  0.072700  1.0
  O  O10473  1  0.311000  0.507900  0.067100  1.0
  O  O10474  1  0.189000  0.492100  0.567100  1.0
  O  O10475  1  0.689000  0.007900  0.432900  1.0
  O  O10476  1  0.811000  0.992100  0.932900  1.0
  O  O10477  1  0.689000  0.492100  0.932900  1.0
  O  O10478  1  0.811000  0.507900  0.432900  1.0
  O  O10479  1  0.311000  0.992100  0.567100  1.0
  O  O10480  1  0.189000  0.007900  0.067100  1.0
  O  O10481  1  0.368000  0.467800  0.011200  1.0
  O  O10482  1  0.132000  0.532200  0.511200  1.0
  O  O10483  1  0.632000  0.967800  0.488800  1.0
  O  O10484  1  0.868000  0.032200  0.988800  1.0
  O  O10485  1  0.632000  0.532200  0.988800  1.0
  O  O10486  1  0.868000  0.467800  0.488800  1.0
  O  O10487  1  0.368000  0.032200  0.511200  1.0
  O  O10488  1  0.132000  0.967800  0.011200  1.0
  O  O10489  1  0.354600  0.436400  0.000900  1.0
  O  O10490  1  0.145400  0.563600  0.500900  1.0
  O  O10491  1  0.645400  0.936400  0.499100  1.0
  O  O10492  1  0.854600  0.063600  0.999100  1.0
  O  O10493  1  0.645400  0.563600  0.999100  1.0
  O  O10494  1  0.854600  0.436400  0.499100  1.0
  O  O10495  1  0.354600  0.063600  0.500900  1.0
  O  O10496  1  0.145400  0.936400  0.000900  1.0
  O  O10497  1  0.485300  0.531000  0.029900  1.0
  O  O10498  1  0.014700  0.469000  0.529900  1.0
  O  O10499  1  0.514700  0.031000  0.470100  1.0
  O  O10500  1  0.985300  0.969000  0.970100  1.0
  O  O10501  1  0.514700  0.469000  0.970100  1.0
  O  O10502  1  0.985300  0.531000  0.470100  1.0
  O  O10503  1  0.485300  0.969000  0.529900  1.0
  O  O10504  1  0.014700  0.031000  0.029900  1.0
  O  O10505  1  0.523400  0.525400  0.025700  1.0
  O  O10506  1  0.976600  0.474600  0.525700  1.0
  O  O10507  1  0.476600  0.025400  0.474300  1.0
  O  O10508  1  0.023400  0.974600  0.974300  1.0
  O  O10509  1  0.476600  0.474600  0.974300  1.0
  O  O10510  1  0.023400  0.525400  0.474300  1.0
  O  O10511  1  0.523400  0.974600  0.525700  1.0
  O  O10512  1  0.976600  0.025400  0.025700  1.0
  O  O10513  1  0.576500  0.435600  0.985600  1.0
  O  O10514  1  0.923500  0.564400  0.485600  1.0
  O  O10515  1  0.423500  0.935600  0.514400  1.0
  O  O10516  1  0.076500  0.064400  0.014400  1.0
  O  O10517  1  0.423500  0.564400  0.014400  1.0
  O  O10518  1  0.076500  0.435600  0.514400  1.0
  O  O10519  1  0.576500  0.064400  0.485600  1.0
  O  O10520  1  0.923500  0.935600  0.985600  1.0
  O  O10521  1  0.558600  0.406900  0.974500  1.0
  O  O10522  1  0.941400  0.593100  0.474500  1.0
  O  O10523  1  0.441400  0.906900  0.525500  1.0
  O  O10524  1  0.058600  0.093100  0.025500  1.0
  O  O10525  1  0.441400  0.593100  0.025500  1.0
  O  O10526  1  0.058600  0.406900  0.525500  1.0
  O  O10527  1  0.558600  0.093100  0.474500  1.0
  O  O10528  1  0.941400  0.906900  0.974500  1.0
  O  O10529  1  0.720900  0.416500  0.017500  1.0
  O  O10530  1  0.779100  0.583500  0.517500  1.0
  O  O10531  1  0.279100  0.916500  0.482500  1.0
  O  O10532  1  0.220900  0.083500  0.982500  1.0
  O  O10533  1  0.279100  0.583500  0.982500  1.0
  O  O10534  1  0.220900  0.416500  0.482500  1.0
  O  O10535  1  0.720900  0.083500  0.517500  1.0
  O  O10536  1  0.779100  0.916500  0.017500  1.0
  O  O10537  1  0.689500  0.440300  0.015000  1.0
  O  O10538  1  0.810500  0.559700  0.515000  1.0
  O  O10539  1  0.310500  0.940300  0.485000  1.0
  O  O10540  1  0.189500  0.059700  0.985000  1.0
  O  O10541  1  0.310500  0.559700  0.985000  1.0
  O  O10542  1  0.189500  0.440300  0.485000  1.0
  O  O10543  1  0.689500  0.059700  0.515000  1.0
  O  O10544  1  0.810500  0.940300  0.015000  1.0
  O  O10545  1  0.742900  0.258900  0.992000  1.0
  O  O10546  1  0.757100  0.741100  0.492000  1.0
  O  O10547  1  0.257100  0.758900  0.508000  1.0
  O  O10548  1  0.242900  0.241100  0.008000  1.0
  O  O10549  1  0.257100  0.741100  0.008000  1.0
  O  O10550  1  0.242900  0.258900  0.508000  1.0
  O  O10551  1  0.742900  0.241100  0.492000  1.0
  O  O10552  1  0.757100  0.758900  0.992000  1.0
  O  O10553  1  0.755400  0.291400  0.000600  1.0
  O  O10554  1  0.744600  0.708600  0.500600  1.0
  O  O10555  1  0.244600  0.791400  0.499400  1.0
  O  O10556  1  0.255400  0.208600  0.999400  1.0
  O  O10557  1  0.244600  0.708600  0.999400  1.0
  O  O10558  1  0.255400  0.291400  0.499400  1.0
  O  O10559  1  0.755400  0.208600  0.500600  1.0
  O  O10560  1  0.744600  0.791400  0.000600  1.0
  O  O10561  1  0.830900  0.278200  0.055100  1.0
  O  O10562  1  0.669100  0.721800  0.555100  1.0
  O  O10563  1  0.169100  0.778200  0.444900  1.0
  O  O10564  1  0.330900  0.221800  0.944900  1.0
  O  O10565  1  0.169100  0.721800  0.944900  1.0
  O  O10566  1  0.330900  0.278200  0.444900  1.0
  O  O10567  1  0.830900  0.221800  0.555100  1.0
  O  O10568  1  0.669100  0.778200  0.055100  1.0
  O  O10569  1  0.842000  0.250800  0.067900  1.0
  O  O10570  1  0.658000  0.749200  0.567900  1.0
  O  O10571  1  0.158000  0.750800  0.432100  1.0
  O  O10572  1  0.342000  0.249200  0.932100  1.0
  O  O10573  1  0.158000  0.749200  0.932100  1.0
  O  O10574  1  0.342000  0.250800  0.432100  1.0
  O  O10575  1  0.842000  0.249200  0.567900  1.0
  O  O10576  1  0.658000  0.750800  0.067900  1.0
  O  O10577  1  0.829500  0.117500  0.092800  1.0
  O  O10578  1  0.670500  0.882500  0.592800  1.0
  O  O10579  1  0.170500  0.617500  0.407200  1.0
  O  O10580  1  0.329500  0.382500  0.907200  1.0
  O  O10581  1  0.170500  0.882500  0.907200  1.0
  O  O10582  1  0.329500  0.117500  0.407200  1.0
  O  O10583  1  0.829500  0.382500  0.592800  1.0
  O  O10584  1  0.670500  0.617500  0.092800  1.0
  O  O10585  1  0.810600  0.087000  0.084300  1.0
  O  O10586  1  0.689400  0.913000  0.584300  1.0
  O  O10587  1  0.189400  0.587000  0.415700  1.0
  O  O10588  1  0.310600  0.413000  0.915700  1.0
  O  O10589  1  0.189400  0.913000  0.915700  1.0
  O  O10590  1  0.310600  0.087000  0.415700  1.0
  O  O10591  1  0.810600  0.413000  0.584300  1.0
  O  O10592  1  0.689400  0.587000  0.084300  1.0
  O  O10593  1  0.841400  0.171300  0.175400  1.0
  O  O10594  1  0.658600  0.828700  0.675400  1.0
  O  O10595  1  0.158600  0.671300  0.324600  1.0
  O  O10596  1  0.341400  0.328700  0.824600  1.0
  O  O10597  1  0.158600  0.828700  0.824600  1.0
  O  O10598  1  0.341400  0.171300  0.324600  1.0
  O  O10599  1  0.841400  0.328700  0.675400  1.0
  O  O10600  1  0.658600  0.671300  0.175400  1.0
  O  O10601  1  0.852000  0.177100  0.156600  1.0
  O  O10602  1  0.648000  0.822900  0.656600  1.0
  O  O10603  1  0.148000  0.677100  0.343400  1.0
  O  O10604  1  0.352000  0.322900  0.843400  1.0
  O  O10605  1  0.148000  0.822900  0.843400  1.0
  O  O10606  1  0.352000  0.177100  0.343400  1.0
  O  O10607  1  0.852000  0.322900  0.656600  1.0
  O  O10608  1  0.648000  0.677100  0.156600  1.0
  O  O10609  1  0.763600  0.029400  0.181900  1.0
  O  O10610  1  0.736400  0.970600  0.681900  1.0
  O  O10611  1  0.236400  0.529400  0.318100  1.0
  O  O10612  1  0.263600  0.470600  0.818100  1.0
  O  O10613  1  0.236400  0.970600  0.818100  1.0
  O  O10614  1  0.263600  0.029400  0.318100  1.0
  O  O10615  1  0.763600  0.470600  0.681900  1.0
  O  O10616  1  0.736400  0.529400  0.181900  1.0
  O  O10617  1  0.781000  0.060500  0.189900  1.0
  O  O10618  1  0.719000  0.939500  0.689900  1.0
  O  O10619  1  0.219000  0.560500  0.310100  1.0
  O  O10620  1  0.281000  0.439500  0.810100  1.0
  O  O10621  1  0.219000  0.939500  0.810100  1.0
  O  O10622  1  0.281000  0.060500  0.310100  1.0
  O  O10623  1  0.781000  0.439500  0.689900  1.0
  O  O10624  1  0.719000  0.560500  0.189900  1.0
  O  O10625  1  0.732400  0.112600  0.247600  1.0
  O  O10626  1  0.767600  0.887400  0.747600  1.0
  O  O10627  1  0.267600  0.612600  0.252400  1.0
  O  O10628  1  0.232400  0.387400  0.752400  1.0
  O  O10629  1  0.267600  0.887400  0.752400  1.0
  O  O10630  1  0.232400  0.112600  0.252400  1.0
  O  O10631  1  0.732400  0.387400  0.747600  1.0
  O  O10632  1  0.767600  0.612600  0.247600  1.0
  O  O10633  1  0.702000  0.095300  0.256700  1.0
  O  O10634  1  0.798000  0.904700  0.756700  1.0
  O  O10635  1  0.298000  0.595300  0.243300  1.0
  O  O10636  1  0.202000  0.404700  0.743300  1.0
  O  O10637  1  0.298000  0.904700  0.743300  1.0
  O  O10638  1  0.202000  0.095300  0.243300  1.0
  O  O10639  1  0.702000  0.404700  0.756700  1.0
  O  O10640  1  0.798000  0.595300  0.256700  1.0
  O  O10641  1  0.779300  0.269000  0.237000  1.0
  O  O10642  1  0.720700  0.731000  0.737000  1.0
  O  O10643  1  0.220700  0.769000  0.263000  1.0
  O  O10644  1  0.279300  0.231000  0.763000  1.0
  O  O10645  1  0.220700  0.731000  0.763000  1.0
  O  O10646  1  0.279300  0.269000  0.263000  1.0
  O  O10647  1  0.779300  0.231000  0.737000  1.0
  O  O10648  1  0.720700  0.769000  0.237000  1.0
  O  O10649  1  0.791600  0.234100  0.230500  1.0
  O  O10650  1  0.708400  0.765900  0.730500  1.0
  O  O10651  1  0.208400  0.734100  0.269500  1.0
  O  O10652  1  0.291600  0.265900  0.769500  1.0
  O  O10653  1  0.208400  0.765900  0.769500  1.0
  O  O10654  1  0.291600  0.234100  0.269500  1.0
  O  O10655  1  0.791600  0.265900  0.730500  1.0
  O  O10656  1  0.708400  0.734100  0.230500  1.0
  O  O10657  1  0.643400  0.295100  0.288700  1.0
  O  O10658  1  0.856600  0.704900  0.788700  1.0
  O  O10659  1  0.356600  0.795100  0.211300  1.0
  O  O10660  1  0.143400  0.204900  0.711300  1.0
  O  O10661  1  0.356600  0.704900  0.711300  1.0
  O  O10662  1  0.143400  0.295100  0.211300  1.0
  O  O10663  1  0.643400  0.204900  0.788700  1.0
  O  O10664  1  0.856600  0.795100  0.288700  1.0
  O  O10665  1  0.673500  0.310500  0.278700  1.0
  O  O10666  1  0.826500  0.689500  0.778700  1.0
  O  O10667  1  0.326500  0.810500  0.221300  1.0
  O  O10668  1  0.173500  0.189500  0.721300  1.0
  O  O10669  1  0.326500  0.689500  0.721300  1.0
  O  O10670  1  0.173500  0.310500  0.221300  1.0
  O  O10671  1  0.673500  0.189500  0.778700  1.0
  O  O10672  1  0.826500  0.810500  0.278700  1.0
  O  O10673  1  0.674200  0.422200  0.250700  1.0
  O  O10674  1  0.825800  0.577800  0.750700  1.0
  O  O10675  1  0.325800  0.922200  0.249300  1.0
  O  O10676  1  0.174200  0.077800  0.749300  1.0
  O  O10677  1  0.325800  0.577800  0.749300  1.0
  O  O10678  1  0.174200  0.422200  0.249300  1.0
  O  O10679  1  0.674200  0.077800  0.750700  1.0
  O  O10680  1  0.825800  0.922200  0.250700  1.0
  O  O10681  1  0.647200  0.451100  0.247700  1.0
  O  O10682  1  0.852800  0.548900  0.747700  1.0
  O  O10683  1  0.352800  0.951100  0.252300  1.0
  O  O10684  1  0.147200  0.048900  0.752300  1.0
  O  O10685  1  0.352800  0.548900  0.752300  1.0
  O  O10686  1  0.147200  0.451100  0.252300  1.0
  O  O10687  1  0.647200  0.048900  0.747700  1.0
  O  O10688  1  0.852800  0.951100  0.247700  1.0
  O  O10689  1  0.632800  0.543200  0.193600  1.0
  O  O10690  1  0.867200  0.456800  0.693600  1.0
  O  O10691  1  0.367200  0.043200  0.306400  1.0
  O  O10692  1  0.132800  0.956800  0.806400  1.0
  O  O10693  1  0.367200  0.456800  0.806400  1.0
  O  O10694  1  0.132800  0.543200  0.306400  1.0
  O  O10695  1  0.632800  0.956800  0.693600  1.0
  O  O10696  1  0.867200  0.043200  0.193600  1.0
  O  O10697  1  0.645000  0.553500  0.174900  1.0
  O  O10698  1  0.855000  0.446500  0.674900  1.0
  O  O10699  1  0.355000  0.053500  0.325100  1.0
  O  O10700  1  0.145000  0.946500  0.825100  1.0
  O  O10701  1  0.355000  0.446500  0.825100  1.0
  O  O10702  1  0.145000  0.553500  0.325100  1.0
  O  O10703  1  0.645000  0.946500  0.674900  1.0
  O  O10704  1  0.855000  0.053500  0.174900  1.0
  O  O10705  1  0.558900  0.594100  0.129200  1.0
  O  O10706  1  0.941100  0.405900  0.629200  1.0
  O  O10707  1  0.441100  0.094100  0.370800  1.0
  O  O10708  1  0.058900  0.905900  0.870800  1.0
  O  O10709  1  0.441100  0.405900  0.870800  1.0
  O  O10710  1  0.058900  0.594100  0.370800  1.0
  O  O10711  1  0.558900  0.905900  0.629200  1.0
  O  O10712  1  0.941100  0.094100  0.129200  1.0
  O  O10713  1  0.521300  0.597100  0.134500  1.0
  O  O10714  1  0.978700  0.402900  0.634500  1.0
  O  O10715  1  0.478700  0.097100  0.365500  1.0
  O  O10716  1  0.021300  0.902900  0.865500  1.0
  O  O10717  1  0.478700  0.402900  0.865500  1.0
  O  O10718  1  0.021300  0.597100  0.365500  1.0
  O  O10719  1  0.521300  0.902900  0.634500  1.0
  O  O10720  1  0.978700  0.097100  0.134500  1.0
  O  O10721  1  0.646000  0.532000  0.058600  1.0
  O  O10722  1  0.854000  0.468000  0.558600  1.0
  O  O10723  1  0.354000  0.032000  0.441400  1.0
  O  O10724  1  0.146000  0.968000  0.941400  1.0
  O  O10725  1  0.354000  0.468000  0.941400  1.0
  O  O10726  1  0.146000  0.532000  0.441400  1.0
  O  O10727  1  0.646000  0.968000  0.558600  1.0
  O  O10728  1  0.854000  0.032000  0.058600  1.0
  O  O10729  1  0.651400  0.546500  0.077600  1.0
  O  O10730  1  0.848600  0.453500  0.577600  1.0
  O  O10731  1  0.348600  0.046500  0.422400  1.0
  O  O10732  1  0.151400  0.953500  0.922400  1.0
  O  O10733  1  0.348600  0.453500  0.922400  1.0
  O  O10734  1  0.151400  0.546500  0.422400  1.0
  O  O10735  1  0.651400  0.953500  0.577600  1.0
  O  O10736  1  0.848600  0.046500  0.077600  1.0
  O  O10737  1  0.728700  0.516100  0.136600  1.0
  O  O10738  1  0.771300  0.483900  0.636600  1.0
  O  O10739  1  0.271300  0.016100  0.363400  1.0
  O  O10740  1  0.228700  0.983900  0.863400  1.0
  O  O10741  1  0.271300  0.483900  0.863400  1.0
  O  O10742  1  0.228700  0.516100  0.363400  1.0
  O  O10743  1  0.728700  0.983900  0.636600  1.0
  O  O10744  1  0.771300  0.016100  0.136600  1.0
  O  O10745  1  0.755100  0.488600  0.142300  1.0
  O  O10746  1  0.744900  0.511400  0.642300  1.0
  O  O10747  1  0.244900  0.988600  0.357700  1.0
  O  O10748  1  0.255100  0.011400  0.857700  1.0
  O  O10749  1  0.244900  0.511400  0.857700  1.0
  O  O10750  1  0.255100  0.488600  0.357700  1.0
  O  O10751  1  0.755100  0.011400  0.642300  1.0
  O  O10752  1  0.744900  0.988600  0.142300  1.0
  O  O10753  1  0.802000  0.417000  0.094000  1.0
  O  O10754  1  0.698000  0.583000  0.594000  1.0
  O  O10755  1  0.198000  0.917000  0.406000  1.0
  O  O10756  1  0.302000  0.083000  0.906000  1.0
  O  O10757  1  0.198000  0.583000  0.906000  1.0
  O  O10758  1  0.302000  0.417000  0.406000  1.0
  O  O10759  1  0.802000  0.083000  0.594000  1.0
  O  O10760  1  0.698000  0.917000  0.094000  1.0
  O  O10761  1  0.799200  0.406000  0.074700  1.0
  O  O10762  1  0.700800  0.594000  0.574700  1.0
  O  O10763  1  0.200800  0.906000  0.425300  1.0
  O  O10764  1  0.299200  0.094000  0.925300  1.0
  O  O10765  1  0.200800  0.594000  0.925300  1.0
  O  O10766  1  0.299200  0.406000  0.425300  1.0
  O  O10767  1  0.799200  0.094000  0.574700  1.0
  O  O10768  1  0.700800  0.906000  0.074700  1.0
  O  O10769  1  0.856600  0.289400  0.132400  1.0
  O  O10770  1  0.643400  0.710600  0.632400  1.0
  O  O10771  1  0.143400  0.789400  0.367600  1.0
  O  O10772  1  0.356600  0.210600  0.867600  1.0
  O  O10773  1  0.143400  0.710600  0.867600  1.0
  O  O10774  1  0.356600  0.289400  0.367600  1.0
  O  O10775  1  0.856600  0.210600  0.632400  1.0
  O  O10776  1  0.643400  0.789400  0.132400  1.0
  O  O10777  1  0.847500  0.326200  0.138400  1.0
  O  O10778  1  0.652500  0.673800  0.638400  1.0
  O  O10779  1  0.152500  0.826200  0.361600  1.0
  O  O10780  1  0.347500  0.173800  0.861600  1.0
  O  O10781  1  0.152500  0.673800  0.861600  1.0
  O  O10782  1  0.347500  0.326200  0.361600  1.0
  O  O10783  1  0.847500  0.173800  0.638400  1.0
  O  O10784  1  0.652500  0.826200  0.138400  1.0
  O  O10785  1  0.772800  0.391500  0.208600  1.0
  O  O10786  1  0.727200  0.608500  0.708600  1.0
  O  O10787  1  0.227200  0.891500  0.291400  1.0
  O  O10788  1  0.272800  0.108500  0.791400  1.0
  O  O10789  1  0.227200  0.608500  0.791400  1.0
  O  O10790  1  0.272800  0.391500  0.291400  1.0
  O  O10791  1  0.772800  0.108500  0.708600  1.0
  O  O10792  1  0.727200  0.891500  0.208600  1.0
  O  O10793  1  0.786700  0.401400  0.190100  1.0
  O  O10794  1  0.713300  0.598600  0.690100  1.0
  O  O10795  1  0.213300  0.901400  0.309900  1.0
  O  O10796  1  0.286700  0.098600  0.809900  1.0
  O  O10797  1  0.213300  0.598600  0.809900  1.0
  O  O10798  1  0.286700  0.401400  0.309900  1.0
  O  O10799  1  0.786700  0.098600  0.690100  1.0
  O  O10800  1  0.713300  0.901400  0.190100  1.0
  F  F10801  1  0.278800  0.129300  0.001400  1.0
  F  F10802  1  0.221200  0.870700  0.501400  1.0
  F  F10803  1  0.721200  0.629300  0.498600  1.0
  F  F10804  1  0.778800  0.370700  0.998600  1.0
  F  F10805  1  0.721200  0.870700  0.998600  1.0
  F  F10806  1  0.778800  0.129300  0.498600  1.0
  F  F10807  1  0.278800  0.370700  0.501400  1.0
  F  F10808  1  0.221200  0.629300  0.001400  1.0
  F  F10809  1  0.254500  0.122500  0.991200  1.0
  F  F10810  1  0.245500  0.877500  0.491200  1.0
  F  F10811  1  0.745500  0.622500  0.508800  1.0
  F  F10812  1  0.754500  0.377500  0.008800  1.0
  F  F10813  1  0.745500  0.877500  0.008800  1.0
  F  F10814  1  0.754500  0.122500  0.508800  1.0
  F  F10815  1  0.254500  0.377500  0.491200  1.0
  F  F10816  1  0.245500  0.622500  0.991200  1.0
  F  F10817  1  0.259200  0.152900  0.996100  1.0
  F  F10818  1  0.240800  0.847100  0.496100  1.0
  F  F10819  1  0.740800  0.652900  0.503900  1.0
  F  F10820  1  0.759200  0.347100  0.003900  1.0
  F  F10821  1  0.740800  0.847100  0.003900  1.0
  F  F10822  1  0.759200  0.152900  0.503900  1.0
  F  F10823  1  0.259200  0.347100  0.496100  1.0
  F  F10824  1  0.240800  0.652900  0.996100  1.0
  F  F10825  1  0.248000  0.130700  0.006900  1.0
  F  F10826  1  0.252000  0.869300  0.506900  1.0
  F  F10827  1  0.752000  0.630700  0.493100  1.0
  F  F10828  1  0.748000  0.369300  0.993100  1.0
  F  F10829  1  0.752000  0.869300  0.993100  1.0
  F  F10830  1  0.748000  0.130700  0.493100  1.0
  F  F10831  1  0.248000  0.369300  0.506900  1.0
  F  F10832  1  0.252000  0.630700  0.006900  1.0
  F  F10833  1  0.325300  0.153100  0.031900  1.0
  F  F10834  1  0.174700  0.846900  0.531900  1.0
  F  F10835  1  0.674700  0.653100  0.468100  1.0
  F  F10836  1  0.825300  0.346900  0.968100  1.0
  F  F10837  1  0.674700  0.846900  0.968100  1.0
  F  F10838  1  0.825300  0.153100  0.468100  1.0
  F  F10839  1  0.325300  0.346900  0.531900  1.0
  F  F10840  1  0.174700  0.653100  0.031900  1.0
  F  F10841  1  0.341000  0.181300  0.030000  1.0
  F  F10842  1  0.159000  0.818700  0.530000  1.0
  F  F10843  1  0.659000  0.681300  0.470000  1.0
  F  F10844  1  0.841000  0.318700  0.970000  1.0
  F  F10845  1  0.659000  0.818700  0.970000  1.0
  F  F10846  1  0.841000  0.181300  0.470000  1.0
  F  F10847  1  0.341000  0.318700  0.530000  1.0
  F  F10848  1  0.159000  0.681300  0.030000  1.0
  F  F10849  1  0.357700  0.153000  0.031700  1.0
  F  F10850  1  0.142300  0.847000  0.531700  1.0
  F  F10851  1  0.642300  0.653000  0.468300  1.0
  F  F10852  1  0.857700  0.347000  0.968300  1.0
  F  F10853  1  0.642300  0.847000  0.968300  1.0
  F  F10854  1  0.857700  0.153000  0.468300  1.0
  F  F10855  1  0.357700  0.347000  0.531700  1.0
  F  F10856  1  0.142300  0.653000  0.031700  1.0
  F  F10857  1  0.342300  0.166300  0.044400  1.0
  F  F10858  1  0.157700  0.833700  0.544400  1.0
  F  F10859  1  0.657700  0.666300  0.455600  1.0
  F  F10860  1  0.842300  0.333700  0.955600  1.0
  F  F10861  1  0.657700  0.833700  0.955600  1.0
  F  F10862  1  0.842300  0.166300  0.455600  1.0
  F  F10863  1  0.342300  0.333700  0.544400  1.0
  F  F10864  1  0.157700  0.666300  0.044400  1.0
  F  F10865  1  0.161700  0.208900  0.094200  1.0
  F  F10866  1  0.338300  0.791100  0.594200  1.0
  F  F10867  1  0.838300  0.708900  0.405800  1.0
  F  F10868  1  0.661700  0.291100  0.905800  1.0
  F  F10869  1  0.838300  0.791100  0.905800  1.0
  F  F10870  1  0.661700  0.208900  0.405800  1.0
  F  F10871  1  0.161700  0.291100  0.594200  1.0
  F  F10872  1  0.338300  0.708900  0.094200  1.0
  F  F10873  1  0.154000  0.180000  0.087000  1.0
  F  F10874  1  0.346000  0.820000  0.587000  1.0
  F  F10875  1  0.846000  0.680000  0.413000  1.0
  F  F10876  1  0.654000  0.320000  0.913000  1.0
  F  F10877  1  0.846000  0.820000  0.913000  1.0
  F  F10878  1  0.654000  0.180000  0.413000  1.0
  F  F10879  1  0.154000  0.320000  0.587000  1.0
  F  F10880  1  0.346000  0.680000  0.087000  1.0
  F  F10881  1  0.130600  0.201100  0.090700  1.0
  F  F10882  1  0.369400  0.798900  0.590700  1.0
  F  F10883  1  0.869400  0.701100  0.409300  1.0
  F  F10884  1  0.630600  0.298900  0.909300  1.0
  F  F10885  1  0.869400  0.798900  0.909300  1.0
  F  F10886  1  0.630600  0.201100  0.409300  1.0
  F  F10887  1  0.130600  0.298900  0.590700  1.0
  F  F10888  1  0.369400  0.701100  0.090700  1.0
  F  F10889  1  0.146000  0.186000  0.103100  1.0
  F  F10890  1  0.354000  0.814000  0.603100  1.0
  F  F10891  1  0.854000  0.686000  0.396900  1.0
  F  F10892  1  0.646000  0.314000  0.896900  1.0
  F  F10893  1  0.854000  0.814000  0.896900  1.0
  F  F10894  1  0.646000  0.186000  0.396900  1.0
  F  F10895  1  0.146000  0.314000  0.603100  1.0
  F  F10896  1  0.354000  0.686000  0.103100  1.0
  F  F10897  1  0.237400  0.214000  0.101000  1.0
  F  F10898  1  0.262600  0.786000  0.601000  1.0
  F  F10899  1  0.762600  0.714000  0.399000  1.0
  F  F10900  1  0.737400  0.286000  0.899000  1.0
  F  F10901  1  0.762600  0.786000  0.899000  1.0
  F  F10902  1  0.737400  0.214000  0.399000  1.0
  F  F10903  1  0.237400  0.286000  0.601000  1.0
  F  F10904  1  0.262600  0.714000  0.101000  1.0
  F  F10905  1  0.252000  0.221000  0.115400  1.0
  F  F10906  1  0.248000  0.779000  0.615400  1.0
  F  F10907  1  0.748000  0.721000  0.384600  1.0
  F  F10908  1  0.752000  0.279000  0.884600  1.0
  F  F10909  1  0.748000  0.779000  0.884600  1.0
  F  F10910  1  0.752000  0.221000  0.384600  1.0
  F  F10911  1  0.252000  0.279000  0.615400  1.0
  F  F10912  1  0.248000  0.721000  0.115400  1.0
  F  F10913  1  0.270000  0.216500  0.101800  1.0
  F  F10914  1  0.230000  0.783500  0.601800  1.0
  F  F10915  1  0.730000  0.716500  0.398200  1.0
  F  F10916  1  0.770000  0.283500  0.898200  1.0
  F  F10917  1  0.730000  0.783500  0.898200  1.0
  F  F10918  1  0.770000  0.216500  0.398200  1.0
  F  F10919  1  0.270000  0.283500  0.601800  1.0
  F  F10920  1  0.230000  0.716500  0.101800  1.0
  F  F10921  1  0.255000  0.191200  0.109000  1.0
  F  F10922  1  0.245000  0.808800  0.609000  1.0
  F  F10923  1  0.745000  0.691200  0.391000  1.0
  F  F10924  1  0.755000  0.308800  0.891000  1.0
  F  F10925  1  0.745000  0.808800  0.891000  1.0
  F  F10926  1  0.755000  0.191200  0.391000  1.0
  F  F10927  1  0.255000  0.308800  0.609000  1.0
  F  F10928  1  0.245000  0.691200  0.109000  1.0
  F  F10929  1  0.184000  0.238000  0.196900  1.0
  F  F10930  1  0.316000  0.762000  0.696900  1.0
  F  F10931  1  0.816000  0.738000  0.303100  1.0
  F  F10932  1  0.684000  0.262000  0.803100  1.0
  F  F10933  1  0.816000  0.762000  0.803100  1.0
  F  F10934  1  0.684000  0.238000  0.303100  1.0
  F  F10935  1  0.184000  0.262000  0.696900  1.0
  F  F10936  1  0.316000  0.738000  0.196900  1.0
  F  F10937  1  0.194400  0.222600  0.210500  1.0
  F  F10938  1  0.305600  0.777400  0.710500  1.0
  F  F10939  1  0.805600  0.722600  0.289500  1.0
  F  F10940  1  0.694400  0.277400  0.789500  1.0
  F  F10941  1  0.805600  0.777400  0.789500  1.0
  F  F10942  1  0.694400  0.222600  0.289500  1.0
  F  F10943  1  0.194400  0.277400  0.710500  1.0
  F  F10944  1  0.305600  0.722600  0.210500  1.0
  F  F10945  1  0.169700  0.243600  0.211400  1.0
  F  F10946  1  0.330300  0.756400  0.711400  1.0
  F  F10947  1  0.830300  0.743600  0.288600  1.0
  F  F10948  1  0.669700  0.256400  0.788600  1.0
  F  F10949  1  0.830300  0.756400  0.788600  1.0
  F  F10950  1  0.669700  0.243600  0.288600  1.0
  F  F10951  1  0.169700  0.256400  0.711400  1.0
  F  F10952  1  0.330300  0.743600  0.211400  1.0
  F  F10953  1  0.200100  0.254400  0.208600  1.0
  F  F10954  1  0.299900  0.745600  0.708600  1.0
  F  F10955  1  0.799900  0.754400  0.291400  1.0
  F  F10956  1  0.700100  0.245600  0.791400  1.0
  F  F10957  1  0.799900  0.745600  0.791400  1.0
  F  F10958  1  0.700100  0.254400  0.291400  1.0
  F  F10959  1  0.200100  0.245600  0.708600  1.0
  F  F10960  1  0.299900  0.754400  0.208600  1.0
  F  F10961  1  0.271000  0.244000  0.195100  1.0
  F  F10962  1  0.229000  0.756000  0.695100  1.0
  F  F10963  1  0.729000  0.744000  0.304900  1.0
  F  F10964  1  0.771000  0.256000  0.804900  1.0
  F  F10965  1  0.729000  0.756000  0.804900  1.0
  F  F10966  1  0.771000  0.244000  0.304900  1.0
  F  F10967  1  0.271000  0.256000  0.695100  1.0
  F  F10968  1  0.229000  0.744000  0.195100  1.0
  F  F10969  1  0.272000  0.259200  0.180600  1.0
  F  F10970  1  0.228000  0.740800  0.680600  1.0
  F  F10971  1  0.728000  0.759200  0.319400  1.0
  F  F10972  1  0.772000  0.240800  0.819400  1.0
  F  F10973  1  0.728000  0.740800  0.819400  1.0
  F  F10974  1  0.772000  0.259200  0.319400  1.0
  F  F10975  1  0.272000  0.240800  0.680600  1.0
  F  F10976  1  0.228000  0.759200  0.180600  1.0
  F  F10977  1  0.261200  0.228000  0.181500  1.0
  F  F10978  1  0.238800  0.772000  0.681500  1.0
  F  F10979  1  0.738800  0.728000  0.318500  1.0
  F  F10980  1  0.761200  0.272000  0.818500  1.0
  F  F10981  1  0.738800  0.772000  0.818500  1.0
  F  F10982  1  0.761200  0.228000  0.318500  1.0
  F  F10983  1  0.261200  0.272000  0.681500  1.0
  F  F10984  1  0.238800  0.728000  0.181500  1.0
  F  F10985  1  0.292700  0.235200  0.183400  1.0
  F  F10986  1  0.207300  0.764800  0.683400  1.0
  F  F10987  1  0.707300  0.735200  0.316600  1.0
  F  F10988  1  0.792700  0.264800  0.816600  1.0
  F  F10989  1  0.707300  0.764800  0.816600  1.0
  F  F10990  1  0.792700  0.235200  0.316600  1.0
  F  F10991  1  0.292700  0.264800  0.683400  1.0
  F  F10992  1  0.207300  0.735200  0.183400  1.0
  F  F10993  1  0.238500  0.032100  0.160100  1.0
  F  F10994  1  0.261500  0.967900  0.660100  1.0
  F  F10995  1  0.761500  0.532100  0.339900  1.0
  F  F10996  1  0.738500  0.467900  0.839900  1.0
  F  F10997  1  0.761500  0.967900  0.839900  1.0
  F  F10998  1  0.738500  0.032100  0.339900  1.0
  F  F10999  1  0.238500  0.467900  0.660100  1.0
  F  F11000  1  0.261500  0.532100  0.160100  1.0
  F  F11001  1  0.212800  0.023300  0.169100  1.0
  F  F11002  1  0.287200  0.976700  0.669100  1.0
  F  F11003  1  0.787200  0.523300  0.330900  1.0
  F  F11004  1  0.712800  0.476700  0.830900  1.0
  F  F11005  1  0.787200  0.976700  0.830900  1.0
  F  F11006  1  0.712800  0.023300  0.330900  1.0
  F  F11007  1  0.212800  0.476700  0.669100  1.0
  F  F11008  1  0.287200  0.523300  0.169100  1.0
  F  F11009  1  0.209000  0.040000  0.155100  1.0
  F  F11010  1  0.291000  0.960000  0.655100  1.0
  F  F11011  1  0.791000  0.540000  0.344900  1.0
  F  F11012  1  0.709000  0.460000  0.844900  1.0
  F  F11013  1  0.791000  0.960000  0.844900  1.0
  F  F11014  1  0.709000  0.040000  0.344900  1.0
  F  F11015  1  0.209000  0.460000  0.655100  1.0
  F  F11016  1  0.291000  0.540000  0.155100  1.0
  F  F11017  1  0.221000  0.054600  0.168000  1.0
  F  F11018  1  0.279000  0.945400  0.668000  1.0
  F  F11019  1  0.779000  0.554600  0.332000  1.0
  F  F11020  1  0.721000  0.445400  0.832000  1.0
  F  F11021  1  0.779000  0.945400  0.832000  1.0
  F  F11022  1  0.721000  0.054600  0.332000  1.0
  F  F11023  1  0.221000  0.445400  0.668000  1.0
  F  F11024  1  0.279000  0.554600  0.168000  1.0
  F  F11025  1  0.287000  0.077000  0.151000  1.0
  F  F11026  1  0.213000  0.923000  0.651000  1.0
  F  F11027  1  0.713000  0.577000  0.349000  1.0
  F  F11028  1  0.787000  0.423000  0.849000  1.0
  F  F11029  1  0.713000  0.923000  0.849000  1.0
  F  F11030  1  0.787000  0.077000  0.349000  1.0
  F  F11031  1  0.287000  0.423000  0.651000  1.0
  F  F11032  1  0.213000  0.577000  0.151000  1.0
  F  F11033  1  0.310400  0.099400  0.150000  1.0
  F  F11034  1  0.189600  0.900600  0.650000  1.0
  F  F11035  1  0.689600  0.599400  0.350000  1.0
  F  F11036  1  0.810400  0.400600  0.850000  1.0
  F  F11037  1  0.689600  0.900600  0.850000  1.0
  F  F11038  1  0.810400  0.099400  0.350000  1.0
  F  F11039  1  0.310400  0.400600  0.650000  1.0
  F  F11040  1  0.189600  0.599400  0.150000  1.0
  F  F11041  1  0.318000  0.068000  0.150400  1.0
  F  F11042  1  0.182000  0.932000  0.650400  1.0
  F  F11043  1  0.682000  0.568000  0.349600  1.0
  F  F11044  1  0.818000  0.432000  0.849600  1.0
  F  F11045  1  0.682000  0.932000  0.849600  1.0
  F  F11046  1  0.818000  0.068000  0.349600  1.0
  F  F11047  1  0.318000  0.432000  0.650400  1.0
  F  F11048  1  0.182000  0.568000  0.150400  1.0
  F  F11049  1  0.306000  0.082000  0.164000  1.0
  F  F11050  1  0.194000  0.918000  0.664000  1.0
  F  F11051  1  0.694000  0.582000  0.336000  1.0
  F  F11052  1  0.806000  0.418000  0.836000  1.0
  F  F11053  1  0.694000  0.918000  0.836000  1.0
  F  F11054  1  0.806000  0.082000  0.336000  1.0
  F  F11055  1  0.306000  0.418000  0.664000  1.0
  F  F11056  1  0.194000  0.582000  0.164000  1.0
  F  F11057  1  0.333000  0.952600  0.066000  1.0
  F  F11058  1  0.167000  0.047400  0.566000  1.0
  F  F11059  1  0.667000  0.452600  0.434000  1.0
  F  F11060  1  0.833000  0.547400  0.934000  1.0
  F  F11061  1  0.667000  0.047400  0.934000  1.0
  F  F11062  1  0.833000  0.952600  0.434000  1.0
  F  F11063  1  0.333000  0.547400  0.566000  1.0
  F  F11064  1  0.167000  0.452600  0.066000  1.0
  F  F11065  1  0.319000  0.925400  0.060600  1.0
  F  F11066  1  0.181000  0.074600  0.560600  1.0
  F  F11067  1  0.681000  0.425400  0.439400  1.0
  F  F11068  1  0.819000  0.574600  0.939400  1.0
  F  F11069  1  0.681000  0.074600  0.939400  1.0
  F  F11070  1  0.819000  0.925400  0.439400  1.0
  F  F11071  1  0.319000  0.574600  0.560600  1.0
  F  F11072  1  0.181000  0.425400  0.060600  1.0
  F  F11073  1  0.340000  0.942000  0.050700  1.0
  F  F11074  1  0.160000  0.058000  0.550700  1.0
  F  F11075  1  0.660000  0.442000  0.449300  1.0
  F  F11076  1  0.840000  0.558000  0.949300  1.0
  F  F11077  1  0.660000  0.058000  0.949300  1.0
  F  F11078  1  0.840000  0.942000  0.449300  1.0
  F  F11079  1  0.340000  0.558000  0.550700  1.0
  F  F11080  1  0.160000  0.442000  0.050700  1.0
  F  F11081  1  0.310000  0.954000  0.054000  1.0
  F  F11082  1  0.190000  0.046000  0.554000  1.0
  F  F11083  1  0.690000  0.454000  0.446000  1.0
  F  F11084  1  0.810000  0.546000  0.946000  1.0
  F  F11085  1  0.690000  0.046000  0.946000  1.0
  F  F11086  1  0.810000  0.954000  0.446000  1.0
  F  F11087  1  0.310000  0.546000  0.554000  1.0
  F  F11088  1  0.190000  0.454000  0.054000  1.0
  F  F11089  1  0.372100  0.021900  0.078500  1.0
  F  F11090  1  0.127900  0.978100  0.578500  1.0
  F  F11091  1  0.627900  0.521900  0.421500  1.0
  F  F11092  1  0.872100  0.478100  0.921500  1.0
  F  F11093  1  0.627900  0.978100  0.921500  1.0
  F  F11094  1  0.872100  0.021900  0.421500  1.0
  F  F11095  1  0.372100  0.478100  0.578500  1.0
  F  F11096  1  0.127900  0.521900  0.078500  1.0
  F  F11097  1  0.388300  0.046800  0.084400  1.0
  F  F11098  1  0.111700  0.953200  0.584400  1.0
  F  F11099  1  0.611700  0.546800  0.415600  1.0
  F  F11100  1  0.888300  0.453200  0.915600  1.0
  F  F11101  1  0.611700  0.953200  0.915600  1.0
  F  F11102  1  0.888300  0.046800  0.415600  1.0
  F  F11103  1  0.388300  0.453200  0.584400  1.0
  F  F11104  1  0.111700  0.546800  0.084400  1.0
  F  F11105  1  0.401000  0.016900  0.085000  1.0
  F  F11106  1  0.099000  0.983100  0.585000  1.0
  F  F11107  1  0.599000  0.516900  0.415000  1.0
  F  F11108  1  0.901000  0.483100  0.915000  1.0
  F  F11109  1  0.599000  0.983100  0.915000  1.0
  F  F11110  1  0.901000  0.016900  0.415000  1.0
  F  F11111  1  0.401000  0.483100  0.585000  1.0
  F  F11112  1  0.099000  0.516900  0.085000  1.0
  F  F11113  1  0.376000  0.025000  0.095100  1.0
  F  F11114  1  0.124000  0.975000  0.595100  1.0
  F  F11115  1  0.624000  0.525000  0.404900  1.0
  F  F11116  1  0.876000  0.475000  0.904900  1.0
  F  F11117  1  0.624000  0.975000  0.904900  1.0
  F  F11118  1  0.876000  0.025000  0.404900  1.0
  F  F11119  1  0.376000  0.475000  0.595100  1.0
  F  F11120  1  0.124000  0.525000  0.095100  1.0
  F  F11121  1  0.540400  0.945200  0.033000  1.0
  F  F11122  1  0.959600  0.054800  0.533000  1.0
  F  F11123  1  0.459600  0.445200  0.467000  1.0
  F  F11124  1  0.040400  0.554800  0.967000  1.0
  F  F11125  1  0.459600  0.054800  0.967000  1.0
  F  F11126  1  0.040400  0.945200  0.467000  1.0
  F  F11127  1  0.540400  0.554800  0.533000  1.0
  F  F11128  1  0.959600  0.445200  0.033000  1.0
  F  F11129  1  0.566500  0.927000  0.035900  1.0
  F  F11130  1  0.933500  0.073000  0.535900  1.0
  F  F11131  1  0.433500  0.427000  0.464100  1.0
  F  F11132  1  0.066500  0.573000  0.964100  1.0
  F  F11133  1  0.433500  0.073000  0.964100  1.0
  F  F11134  1  0.066500  0.927000  0.464100  1.0
  F  F11135  1  0.566500  0.573000  0.535900  1.0
  F  F11136  1  0.933500  0.427000  0.035900  1.0
  F  F11137  1  0.566900  0.949300  0.023900  1.0
  F  F11138  1  0.933100  0.050700  0.523900  1.0
  F  F11139  1  0.433100  0.449300  0.476100  1.0
  F  F11140  1  0.066900  0.550700  0.976100  1.0
  F  F11141  1  0.433100  0.050700  0.976100  1.0
  F  F11142  1  0.066900  0.949300  0.476100  1.0
  F  F11143  1  0.566900  0.550700  0.523900  1.0
  F  F11144  1  0.933100  0.449300  0.023900  1.0
  F  F11145  1  0.549400  0.922200  0.022100  1.0
  F  F11146  1  0.950600  0.077800  0.522100  1.0
  F  F11147  1  0.450600  0.422200  0.477900  1.0
  F  F11148  1  0.049400  0.577800  0.977900  1.0
  F  F11149  1  0.450600  0.077800  0.977900  1.0
  F  F11150  1  0.049400  0.922200  0.477900  1.0
  F  F11151  1  0.549400  0.577800  0.522100  1.0
  F  F11152  1  0.950600  0.422200  0.022100  1.0
  F  F11153  1  0.535000  0.018000  0.046400  1.0
  F  F11154  1  0.965000  0.982000  0.546400  1.0
  F  F11155  1  0.465000  0.518000  0.453600  1.0
  F  F11156  1  0.035000  0.482000  0.953600  1.0
  F  F11157  1  0.465000  0.982000  0.953600  1.0
  F  F11158  1  0.035000  0.018000  0.453600  1.0
  F  F11159  1  0.535000  0.482000  0.546400  1.0
  F  F11160  1  0.965000  0.518000  0.046400  1.0
  F  F11161  1  0.536400  0.033100  0.061000  1.0
  F  F11162  1  0.963600  0.966900  0.561000  1.0
  F  F11163  1  0.463600  0.533100  0.439000  1.0
  F  F11164  1  0.036400  0.466900  0.939000  1.0
  F  F11165  1  0.463600  0.966900  0.939000  1.0
  F  F11166  1  0.036400  0.033100  0.439000  1.0
  F  F11167  1  0.536400  0.466900  0.561000  1.0
  F  F11168  1  0.963600  0.533100  0.061000  1.0
  F  F11169  1  0.548000  0.003000  0.060000  1.0
  F  F11170  1  0.952000  0.997000  0.560000  1.0
  F  F11171  1  0.452000  0.503000  0.440000  1.0
  F  F11172  1  0.048000  0.497000  0.940000  1.0
  F  F11173  1  0.452000  0.997000  0.940000  1.0
  F  F11174  1  0.048000  0.003000  0.440000  1.0
  F  F11175  1  0.548000  0.497000  0.560000  1.0
  F  F11176  1  0.952000  0.503000  0.060000  1.0
  F  F11177  1  0.516000  0.008000  0.059000  1.0
  F  F11178  1  0.984000  0.992000  0.559000  1.0
  F  F11179  1  0.484000  0.508000  0.441000  1.0
  F  F11180  1  0.016000  0.492000  0.941000  1.0
  F  F11181  1  0.484000  0.992000  0.941000  1.0
  F  F11182  1  0.016000  0.008000  0.441000  1.0
  F  F11183  1  0.516000  0.492000  0.559000  1.0
  F  F11184  1  0.984000  0.508000  0.059000  1.0
  F  F11185  1  0.477100  0.105000  0.963300  1.0
  F  F11186  1  0.022900  0.895000  0.463300  1.0
  F  F11187  1  0.522900  0.605000  0.536700  1.0
  F  F11188  1  0.977100  0.395000  0.036700  1.0
  F  F11189  1  0.522900  0.895000  0.036700  1.0
  F  F11190  1  0.977100  0.105000  0.536700  1.0
  F  F11191  1  0.477100  0.395000  0.463300  1.0
  F  F11192  1  0.022900  0.605000  0.963300  1.0
  F  F11193  1  0.505700  0.092100  0.958900  1.0
  F  F11194  1  0.994300  0.907900  0.458900  1.0
  F  F11195  1  0.494300  0.592100  0.541100  1.0
  F  F11196  1  0.005700  0.407900  0.041100  1.0
  F  F11197  1  0.494300  0.907900  0.041100  1.0
  F  F11198  1  0.005700  0.092100  0.541100  1.0
  F  F11199  1  0.505700  0.407900  0.458900  1.0
  F  F11200  1  0.994300  0.592100  0.958900  1.0
  F  F11201  1  0.498000  0.122100  0.953900  1.0
  F  F11202  1  0.002000  0.877900  0.453900  1.0
  F  F11203  1  0.502000  0.622100  0.546100  1.0
  F  F11204  1  0.998000  0.377900  0.046100  1.0
  F  F11205  1  0.502000  0.877900  0.046100  1.0
  F  F11206  1  0.998000  0.122100  0.546100  1.0
  F  F11207  1  0.498000  0.377900  0.453900  1.0
  F  F11208  1  0.002000  0.622100  0.953900  1.0
  F  F11209  1  0.482900  0.095500  0.947800  1.0
  F  F11210  1  0.017100  0.904500  0.447800  1.0
  F  F11211  1  0.517100  0.595500  0.552200  1.0
  F  F11212  1  0.982900  0.404500  0.052200  1.0
  F  F11213  1  0.517100  0.904500  0.052200  1.0
  F  F11214  1  0.982900  0.095500  0.552200  1.0
  F  F11215  1  0.482900  0.404500  0.447800  1.0
  F  F11216  1  0.017100  0.595500  0.947800  1.0
  F  F11217  1  0.505000  0.146000  0.994300  1.0
  F  F11218  1  0.995000  0.854000  0.494300  1.0
  F  F11219  1  0.495000  0.646000  0.505700  1.0
  F  F11220  1  0.005000  0.354000  0.005700  1.0
  F  F11221  1  0.495000  0.854000  0.005700  1.0
  F  F11222  1  0.005000  0.146000  0.505700  1.0
  F  F11223  1  0.505000  0.354000  0.494300  1.0
  F  F11224  1  0.995000  0.646000  0.994300  1.0
  F  F11225  1  0.474000  0.151000  0.997500  1.0
  F  F11226  1  0.026000  0.849000  0.497500  1.0
  F  F11227  1  0.526000  0.651000  0.502500  1.0
  F  F11228  1  0.974000  0.349000  0.002500  1.0
  F  F11229  1  0.526000  0.849000  0.002500  1.0
  F  F11230  1  0.974000  0.151000  0.502500  1.0
  F  F11231  1  0.474000  0.349000  0.497500  1.0
  F  F11232  1  0.026000  0.651000  0.997500  1.0
  F  F11233  1  0.494400  0.144300  0.009900  1.0
  F  F11234  1  0.005600  0.855700  0.509900  1.0
  F  F11235  1  0.505600  0.644300  0.490100  1.0
  F  F11236  1  0.994400  0.355700  0.990100  1.0
  F  F11237  1  0.505600  0.855700  0.990100  1.0
  F  F11238  1  0.994400  0.144300  0.490100  1.0
  F  F11239  1  0.494400  0.355700  0.509900  1.0
  F  F11240  1  0.005600  0.644300  0.009900  1.0
  F  F11241  1  0.486000  0.121300  0.998800  1.0
  F  F11242  1  0.014000  0.878700  0.498800  1.0
  F  F11243  1  0.514000  0.621300  0.501200  1.0
  F  F11244  1  0.986000  0.378700  0.001200  1.0
  F  F11245  1  0.514000  0.878700  0.001200  1.0
  F  F11246  1  0.986000  0.121300  0.501200  1.0
  F  F11247  1  0.486000  0.378700  0.498800  1.0
  F  F11248  1  0.014000  0.621300  0.998800  1.0
  F  F11249  1  0.510000  0.326000  0.955500  1.0
  F  F11250  1  0.990000  0.674000  0.455500  1.0
  F  F11251  1  0.490000  0.826000  0.544500  1.0
  F  F11252  1  0.010000  0.174000  0.044500  1.0
  F  F11253  1  0.490000  0.674000  0.044500  1.0
  F  F11254  1  0.010000  0.326000  0.544500  1.0
  F  F11255  1  0.510000  0.174000  0.455500  1.0
  F  F11256  1  0.990000  0.826000  0.955500  1.0
  F  F11257  1  0.540000  0.315000  0.957100  1.0
  F  F11258  1  0.960000  0.685000  0.457100  1.0
  F  F11259  1  0.460000  0.815000  0.542900  1.0
  F  F11260  1  0.040000  0.185000  0.042900  1.0
  F  F11261  1  0.460000  0.685000  0.042900  1.0
  F  F11262  1  0.040000  0.315000  0.542900  1.0
  F  F11263  1  0.540000  0.185000  0.457100  1.0
  F  F11264  1  0.960000  0.815000  0.957100  1.0
  F  F11265  1  0.535000  0.346000  0.958300  1.0
  F  F11266  1  0.965000  0.654000  0.458300  1.0
  F  F11267  1  0.465000  0.846000  0.541700  1.0
  F  F11268  1  0.035000  0.154000  0.041700  1.0
  F  F11269  1  0.465000  0.654000  0.041700  1.0
  F  F11270  1  0.035000  0.346000  0.541700  1.0
  F  F11271  1  0.535000  0.154000  0.458300  1.0
  F  F11272  1  0.965000  0.846000  0.958300  1.0
  F  F11273  1  0.532300  0.331800  0.943600  1.0
  F  F11274  1  0.967700  0.668200  0.443600  1.0
  F  F11275  1  0.467700  0.831800  0.556400  1.0
  F  F11276  1  0.032300  0.168200  0.056400  1.0
  F  F11277  1  0.467700  0.668200  0.056400  1.0
  F  F11278  1  0.032300  0.331800  0.556400  1.0
  F  F11279  1  0.532300  0.168200  0.443600  1.0
  F  F11280  1  0.967700  0.831800  0.943600  1.0
  F  F11281  1  0.520200  0.300300  0.995900  1.0
  F  F11282  1  0.979800  0.699700  0.495900  1.0
  F  F11283  1  0.479800  0.800300  0.504100  1.0
  F  F11284  1  0.020200  0.199700  0.004100  1.0
  F  F11285  1  0.479800  0.699700  0.004100  1.0
  F  F11286  1  0.020200  0.300300  0.504100  1.0
  F  F11287  1  0.520200  0.199700  0.495900  1.0
  F  F11288  1  0.979800  0.800300  0.995900  1.0
  F  F11289  1  0.522000  0.325500  0.006600  1.0
  F  F11290  1  0.978000  0.674500  0.506600  1.0
  F  F11291  1  0.478000  0.825500  0.493400  1.0
  F  F11292  1  0.022000  0.174500  0.993400  1.0
  F  F11293  1  0.478000  0.674500  0.993400  1.0
  F  F11294  1  0.022000  0.325500  0.493400  1.0
  F  F11295  1  0.522000  0.174500  0.506600  1.0
  F  F11296  1  0.978000  0.825500  0.006600  1.0
  F  F11297  1  0.546700  0.304000  0.005300  1.0
  F  F11298  1  0.953300  0.696000  0.505300  1.0
  F  F11299  1  0.453300  0.804000  0.494700  1.0
  F  F11300  1  0.046700  0.196000  0.994700  1.0
  F  F11301  1  0.453300  0.696000  0.994700  1.0
  F  F11302  1  0.046700  0.304000  0.494700  1.0
  F  F11303  1  0.546700  0.196000  0.505300  1.0
  F  F11304  1  0.953300  0.804000  0.005300  1.0
  F  F11305  1  0.518000  0.295400  0.012100  1.0
  F  F11306  1  0.982000  0.704600  0.512100  1.0
  F  F11307  1  0.482000  0.795400  0.487900  1.0
  F  F11308  1  0.018000  0.204600  0.987900  1.0
  F  F11309  1  0.482000  0.704600  0.987900  1.0
  F  F11310  1  0.018000  0.295400  0.487900  1.0
  F  F11311  1  0.518000  0.204600  0.512100  1.0
  F  F11312  1  0.982000  0.795400  0.012100  1.0
  F  F11313  1  0.327300  0.353200  0.986200  1.0
  F  F11314  1  0.172700  0.646800  0.486200  1.0
  F  F11315  1  0.672700  0.853200  0.513800  1.0
  F  F11316  1  0.827300  0.146800  0.013800  1.0
  F  F11317  1  0.672700  0.646800  0.013800  1.0
  F  F11318  1  0.827300  0.353200  0.513800  1.0
  F  F11319  1  0.327300  0.146800  0.486200  1.0
  F  F11320  1  0.172700  0.853200  0.986200  1.0
  F  F11321  1  0.303100  0.359400  0.975600  1.0
  F  F11322  1  0.196900  0.640600  0.475600  1.0
  F  F11323  1  0.696900  0.859400  0.524400  1.0
  F  F11324  1  0.803100  0.140600  0.024400  1.0
  F  F11325  1  0.696900  0.640600  0.024400  1.0
  F  F11326  1  0.803100  0.359400  0.524400  1.0
  F  F11327  1  0.303100  0.140600  0.475600  1.0
  F  F11328  1  0.196900  0.859400  0.975600  1.0
  F  F11329  1  0.304000  0.374400  0.990100  1.0
  F  F11330  1  0.196000  0.625600  0.490100  1.0
  F  F11331  1  0.696000  0.874400  0.509900  1.0
  F  F11332  1  0.804000  0.125600  0.009900  1.0
  F  F11333  1  0.696000  0.625600  0.009900  1.0
  F  F11334  1  0.804000  0.374400  0.509900  1.0
  F  F11335  1  0.304000  0.125600  0.490100  1.0
  F  F11336  1  0.196000  0.874400  0.990100  1.0
  F  F11337  1  0.297400  0.342600  0.989300  1.0
  F  F11338  1  0.202600  0.657400  0.489300  1.0
  F  F11339  1  0.702600  0.842600  0.510700  1.0
  F  F11340  1  0.797400  0.157400  0.010700  1.0
  F  F11341  1  0.702600  0.657400  0.010700  1.0
  F  F11342  1  0.797400  0.342600  0.510700  1.0
  F  F11343  1  0.297400  0.157400  0.489300  1.0
  F  F11344  1  0.202600  0.842600  0.989300  1.0
  F  F11345  1  0.351000  0.322000  0.013900  1.0
  F  F11346  1  0.149000  0.678000  0.513900  1.0
  F  F11347  1  0.649000  0.822000  0.486100  1.0
  F  F11348  1  0.851000  0.178000  0.986100  1.0
  F  F11349  1  0.649000  0.678000  0.986100  1.0
  F  F11350  1  0.851000  0.322000  0.486100  1.0
  F  F11351  1  0.351000  0.178000  0.513900  1.0
  F  F11352  1  0.149000  0.822000  0.013900  1.0
  F  F11353  1  0.358000  0.345200  0.024700  1.0
  F  F11354  1  0.142000  0.654800  0.524700  1.0
  F  F11355  1  0.642000  0.845200  0.475300  1.0
  F  F11356  1  0.858000  0.154800  0.975300  1.0
  F  F11357  1  0.642000  0.654800  0.975300  1.0
  F  F11358  1  0.858000  0.345200  0.475300  1.0
  F  F11359  1  0.358000  0.154800  0.524700  1.0
  F  F11360  1  0.142000  0.845200  0.024700  1.0
  F  F11361  1  0.382100  0.327000  0.018100  1.0
  F  F11362  1  0.117900  0.673000  0.518100  1.0
  F  F11363  1  0.617900  0.827000  0.481900  1.0
  F  F11364  1  0.882100  0.173000  0.981900  1.0
  F  F11365  1  0.617900  0.673000  0.981900  1.0
  F  F11366  1  0.882100  0.327000  0.481900  1.0
  F  F11367  1  0.382100  0.173000  0.518100  1.0
  F  F11368  1  0.117900  0.827000  0.018100  1.0
  F  F11369  1  0.361700  0.314000  0.029100  1.0
  F  F11370  1  0.138300  0.686000  0.529100  1.0
  F  F11371  1  0.638300  0.814000  0.470900  1.0
  F  F11372  1  0.861700  0.186000  0.970900  1.0
  F  F11373  1  0.638300  0.686000  0.970900  1.0
  F  F11374  1  0.861700  0.314000  0.470900  1.0
  F  F11375  1  0.361700  0.186000  0.529100  1.0
  F  F11376  1  0.138300  0.814000  0.029100  1.0
  F  F11377  1  0.214800  0.416500  0.079800  1.0
  F  F11378  1  0.285200  0.583500  0.579800  1.0
  F  F11379  1  0.785200  0.916500  0.420200  1.0
  F  F11380  1  0.714800  0.083500  0.920200  1.0
  F  F11381  1  0.785200  0.583500  0.920200  1.0
  F  F11382  1  0.714800  0.416500  0.420200  1.0
  F  F11383  1  0.214800  0.083500  0.579800  1.0
  F  F11384  1  0.285200  0.916500  0.079800  1.0
  F  F11385  1  0.189400  0.436500  0.081900  1.0
  F  F11386  1  0.310600  0.563500  0.581900  1.0
  F  F11387  1  0.810600  0.936500  0.418100  1.0
  F  F11388  1  0.689400  0.063500  0.918100  1.0
  F  F11389  1  0.810600  0.563500  0.918100  1.0
  F  F11390  1  0.689400  0.436500  0.418100  1.0
  F  F11391  1  0.189400  0.063500  0.581900  1.0
  F  F11392  1  0.310600  0.936500  0.081900  1.0
  F  F11393  1  0.218100  0.443900  0.088400  1.0
  F  F11394  1  0.281900  0.556100  0.588400  1.0
  F  F11395  1  0.781900  0.943900  0.411600  1.0
  F  F11396  1  0.718100  0.056100  0.911600  1.0
  F  F11397  1  0.781900  0.556100  0.911600  1.0
  F  F11398  1  0.718100  0.443900  0.411600  1.0
  F  F11399  1  0.218100  0.056100  0.588400  1.0
  F  F11400  1  0.281900  0.943900  0.088400  1.0
  F  F11401  1  0.200400  0.419600  0.094700  1.0
  F  F11402  1  0.299600  0.580400  0.594700  1.0
  F  F11403  1  0.799600  0.919600  0.405300  1.0
  F  F11404  1  0.700400  0.080400  0.905300  1.0
  F  F11405  1  0.799600  0.580400  0.905300  1.0
  F  F11406  1  0.700400  0.419600  0.405300  1.0
  F  F11407  1  0.200400  0.080400  0.594700  1.0
  F  F11408  1  0.299600  0.919600  0.094700  1.0
  F  F11409  1  0.284000  0.391000  0.089000  1.0
  F  F11410  1  0.216000  0.609000  0.589000  1.0
  F  F11411  1  0.716000  0.891000  0.411000  1.0
  F  F11412  1  0.784000  0.109000  0.911000  1.0
  F  F11413  1  0.716000  0.609000  0.911000  1.0
  F  F11414  1  0.784000  0.391000  0.411000  1.0
  F  F11415  1  0.284000  0.109000  0.589000  1.0
  F  F11416  1  0.216000  0.891000  0.089000  1.0
  F  F11417  1  0.303900  0.369000  0.095700  1.0
  F  F11418  1  0.196100  0.631000  0.595700  1.0
  F  F11419  1  0.696100  0.869000  0.404300  1.0
  F  F11420  1  0.803900  0.131000  0.904300  1.0
  F  F11421  1  0.696100  0.631000  0.904300  1.0
  F  F11422  1  0.803900  0.369000  0.404300  1.0
  F  F11423  1  0.303900  0.131000  0.595700  1.0
  F  F11424  1  0.196100  0.869000  0.095700  1.0
  F  F11425  1  0.275000  0.360000  0.090000  1.0
  F  F11426  1  0.225000  0.640000  0.590000  1.0
  F  F11427  1  0.725000  0.860000  0.410000  1.0
  F  F11428  1  0.775000  0.140000  0.910000  1.0
  F  F11429  1  0.725000  0.640000  0.910000  1.0
  F  F11430  1  0.775000  0.360000  0.410000  1.0
  F  F11431  1  0.275000  0.140000  0.590000  1.0
  F  F11432  1  0.225000  0.860000  0.090000  1.0
  F  F11433  1  0.277000  0.377000  0.103800  1.0
  F  F11434  1  0.223000  0.623000  0.603800  1.0
  F  F11435  1  0.723000  0.877000  0.396200  1.0
  F  F11436  1  0.777000  0.123000  0.896200  1.0
  F  F11437  1  0.723000  0.623000  0.896200  1.0
  F  F11438  1  0.777000  0.377000  0.396200  1.0
  F  F11439  1  0.277000  0.123000  0.603800  1.0
  F  F11440  1  0.223000  0.877000  0.103800  1.0
  F  F11441  1  0.278200  0.451500  0.193400  1.0
  F  F11442  1  0.221800  0.548500  0.693400  1.0
  F  F11443  1  0.721800  0.951500  0.306600  1.0
  F  F11444  1  0.778200  0.048500  0.806600  1.0
  F  F11445  1  0.721800  0.548500  0.806600  1.0
  F  F11446  1  0.778200  0.451500  0.306600  1.0
  F  F11447  1  0.278200  0.048500  0.693400  1.0
  F  F11448  1  0.221800  0.951500  0.193400  1.0
  F  F11449  1  0.246200  0.448300  0.196400  1.0
  F  F11450  1  0.253800  0.551700  0.696400  1.0
  F  F11451  1  0.753800  0.948300  0.303600  1.0
  F  F11452  1  0.746200  0.051700  0.803600  1.0
  F  F11453  1  0.753800  0.551700  0.803600  1.0
  F  F11454  1  0.746200  0.448300  0.303600  1.0
  F  F11455  1  0.246200  0.051700  0.696400  1.0
  F  F11456  1  0.253800  0.948300  0.196400  1.0
  F  F11457  1  0.257000  0.472000  0.186600  1.0
  F  F11458  1  0.243000  0.528000  0.686600  1.0
  F  F11459  1  0.743000  0.972000  0.313400  1.0
  F  F11460  1  0.757000  0.028000  0.813400  1.0
  F  F11461  1  0.743000  0.528000  0.813400  1.0
  F  F11462  1  0.757000  0.472000  0.313400  1.0
  F  F11463  1  0.257000  0.028000  0.686600  1.0
  F  F11464  1  0.243000  0.972000  0.186600  1.0
  F  F11465  1  0.262000  0.473200  0.202800  1.0
  F  F11466  1  0.238000  0.526800  0.702800  1.0
  F  F11467  1  0.738000  0.973200  0.297200  1.0
  F  F11468  1  0.762000  0.026800  0.797200  1.0
  F  F11469  1  0.738000  0.526800  0.797200  1.0
  F  F11470  1  0.762000  0.473200  0.297200  1.0
  F  F11471  1  0.262000  0.026800  0.702800  1.0
  F  F11472  1  0.238000  0.973200  0.202800  1.0
  F  F11473  1  0.318600  0.410500  0.183500  1.0
  F  F11474  1  0.181400  0.589500  0.683500  1.0
  F  F11475  1  0.681400  0.910500  0.316500  1.0
  F  F11476  1  0.818600  0.089500  0.816500  1.0
  F  F11477  1  0.681400  0.589500  0.816500  1.0
  F  F11478  1  0.818600  0.410500  0.316500  1.0
  F  F11479  1  0.318600  0.089500  0.683500  1.0
  F  F11480  1  0.181400  0.910500  0.183500  1.0
  F  F11481  1  0.342700  0.392100  0.177200  1.0
  F  F11482  1  0.157300  0.607900  0.677200  1.0
  F  F11483  1  0.657300  0.892100  0.322800  1.0
  F  F11484  1  0.842700  0.107900  0.822800  1.0
  F  F11485  1  0.657300  0.607900  0.822800  1.0
  F  F11486  1  0.842700  0.392100  0.322800  1.0
  F  F11487  1  0.342700  0.107900  0.677200  1.0
  F  F11488  1  0.157300  0.892100  0.177200  1.0
  F  F11489  1  0.327000  0.412000  0.167400  1.0
  F  F11490  1  0.173000  0.588000  0.667400  1.0
  F  F11491  1  0.673000  0.912000  0.332600  1.0
  F  F11492  1  0.827000  0.088000  0.832600  1.0
  F  F11493  1  0.673000  0.588000  0.832600  1.0
  F  F11494  1  0.827000  0.412000  0.332600  1.0
  F  F11495  1  0.327000  0.088000  0.667400  1.0
  F  F11496  1  0.173000  0.912000  0.167400  1.0
  F  F11497  1  0.311800  0.386000  0.173000  1.0
  F  F11498  1  0.188200  0.614000  0.673000  1.0
  F  F11499  1  0.688200  0.886000  0.327000  1.0
  F  F11500  1  0.811800  0.114000  0.827000  1.0
  F  F11501  1  0.688200  0.614000  0.827000  1.0
  F  F11502  1  0.811800  0.386000  0.327000  1.0
  F  F11503  1  0.311800  0.114000  0.673000  1.0
  F  F11504  1  0.188200  0.886000  0.173000  1.0
  F  F11505  1  0.409500  0.434600  0.277700  1.0
  F  F11506  1  0.090500  0.565400  0.777700  1.0
  F  F11507  1  0.590500  0.934600  0.222300  1.0
  F  F11508  1  0.909500  0.065400  0.722300  1.0
  F  F11509  1  0.590500  0.565400  0.722300  1.0
  F  F11510  1  0.909500  0.434600  0.222300  1.0
  F  F11511  1  0.409500  0.065400  0.777700  1.0
  F  F11512  1  0.090500  0.934600  0.277700  1.0
  F  F11513  1  0.383500  0.416200  0.280900  1.0
  F  F11514  1  0.116500  0.583800  0.780900  1.0
  F  F11515  1  0.616500  0.916200  0.219100  1.0
  F  F11516  1  0.883500  0.083800  0.719100  1.0
  F  F11517  1  0.616500  0.583800  0.719100  1.0
  F  F11518  1  0.883500  0.416200  0.219100  1.0
  F  F11519  1  0.383500  0.083800  0.780900  1.0
  F  F11520  1  0.116500  0.916200  0.280900  1.0
  F  F11521  1  0.402600  0.425200  0.293300  1.0
  F  F11522  1  0.097400  0.574800  0.793300  1.0
  F  F11523  1  0.597400  0.925200  0.206700  1.0
  F  F11524  1  0.902600  0.074800  0.706700  1.0
  F  F11525  1  0.597400  0.574800  0.706700  1.0
  F  F11526  1  0.902600  0.425200  0.206700  1.0
  F  F11527  1  0.402600  0.074800  0.793300  1.0
  F  F11528  1  0.097400  0.925200  0.293300  1.0
  F  F11529  1  0.413800  0.404100  0.282300  1.0
  F  F11530  1  0.086200  0.595900  0.782300  1.0
  F  F11531  1  0.586200  0.904100  0.217700  1.0
  F  F11532  1  0.913800  0.095900  0.717700  1.0
  F  F11533  1  0.586200  0.595900  0.717700  1.0
  F  F11534  1  0.913800  0.404100  0.217700  1.0
  F  F11535  1  0.413800  0.095900  0.782300  1.0
  F  F11536  1  0.086200  0.904100  0.282300  1.0
  F  F11537  1  0.427000  0.374000  0.253800  1.0
  F  F11538  1  0.073000  0.626000  0.753800  1.0
  F  F11539  1  0.573000  0.874000  0.246200  1.0
  F  F11540  1  0.927000  0.126000  0.746200  1.0
  F  F11541  1  0.573000  0.626000  0.746200  1.0
  F  F11542  1  0.927000  0.374000  0.246200  1.0
  F  F11543  1  0.427000  0.126000  0.753800  1.0
  F  F11544  1  0.073000  0.874000  0.253800  1.0
  F  F11545  1  0.459000  0.371000  0.251100  1.0
  F  F11546  1  0.041000  0.629000  0.751100  1.0
  F  F11547  1  0.541000  0.871000  0.248900  1.0
  F  F11548  1  0.959000  0.129000  0.748900  1.0
  F  F11549  1  0.541000  0.629000  0.748900  1.0
  F  F11550  1  0.959000  0.371000  0.248900  1.0
  F  F11551  1  0.459000  0.129000  0.751100  1.0
  F  F11552  1  0.041000  0.871000  0.251100  1.0
  F  F11553  1  0.438100  0.366200  0.238600  1.0
  F  F11554  1  0.061900  0.633800  0.738600  1.0
  F  F11555  1  0.561900  0.866200  0.261400  1.0
  F  F11556  1  0.938100  0.133800  0.761400  1.0
  F  F11557  1  0.561900  0.633800  0.761400  1.0
  F  F11558  1  0.938100  0.366200  0.261400  1.0
  F  F11559  1  0.438100  0.133800  0.738600  1.0
  F  F11560  1  0.061900  0.866200  0.238600  1.0
  F  F11561  1  0.440000  0.345000  0.251000  1.0
  F  F11562  1  0.060000  0.655000  0.751000  1.0
  F  F11563  1  0.560000  0.845000  0.249000  1.0
  F  F11564  1  0.940000  0.155000  0.749000  1.0
  F  F11565  1  0.560000  0.655000  0.749000  1.0
  F  F11566  1  0.940000  0.345000  0.249000  1.0
  F  F11567  1  0.440000  0.155000  0.751000  1.0
  F  F11568  1  0.060000  0.845000  0.251000  1.0
  F  F11569  1  0.351900  0.187000  0.284700  1.0
  F  F11570  1  0.148100  0.813000  0.784700  1.0
  F  F11571  1  0.648100  0.687000  0.215300  1.0
  F  F11572  1  0.851900  0.313000  0.715300  1.0
  F  F11573  1  0.648100  0.813000  0.715300  1.0
  F  F11574  1  0.851900  0.187000  0.215300  1.0
  F  F11575  1  0.351900  0.313000  0.784700  1.0
  F  F11576  1  0.148100  0.687000  0.284700  1.0
  F  F11577  1  0.325900  0.206600  0.285600  1.0
  F  F11578  1  0.174100  0.793400  0.785600  1.0
  F  F11579  1  0.674100  0.706600  0.214400  1.0
  F  F11580  1  0.825900  0.293400  0.714400  1.0
  F  F11581  1  0.674100  0.793400  0.714400  1.0
  F  F11582  1  0.825900  0.206600  0.214400  1.0
  F  F11583  1  0.325900  0.293400  0.785600  1.0
  F  F11584  1  0.174100  0.706600  0.285600  1.0
  F  F11585  1  0.350600  0.210500  0.296000  1.0
  F  F11586  1  0.149400  0.789500  0.796000  1.0
  F  F11587  1  0.649400  0.710500  0.204000  1.0
  F  F11588  1  0.850600  0.289500  0.704000  1.0
  F  F11589  1  0.649400  0.789500  0.704000  1.0
  F  F11590  1  0.850600  0.210500  0.204000  1.0
  F  F11591  1  0.350600  0.289500  0.796000  1.0
  F  F11592  1  0.149400  0.710500  0.296000  1.0
  F  F11593  1  0.330800  0.184700  0.297100  1.0
  F  F11594  1  0.169200  0.815300  0.797100  1.0
  F  F11595  1  0.669200  0.684700  0.202900  1.0
  F  F11596  1  0.830800  0.315300  0.702900  1.0
  F  F11597  1  0.669200  0.815300  0.702900  1.0
  F  F11598  1  0.830800  0.184700  0.202900  1.0
  F  F11599  1  0.330800  0.315300  0.797100  1.0
  F  F11600  1  0.169200  0.684700  0.297100  1.0
  F  F11601  1  0.366000  0.217000  0.252200  1.0
  F  F11602  1  0.134000  0.783000  0.752200  1.0
  F  F11603  1  0.634000  0.717000  0.247800  1.0
  F  F11604  1  0.866000  0.283000  0.747800  1.0
  F  F11605  1  0.634000  0.783000  0.747800  1.0
  F  F11606  1  0.866000  0.217000  0.247800  1.0
  F  F11607  1  0.366000  0.283000  0.752200  1.0
  F  F11608  1  0.134000  0.717000  0.252200  1.0
  F  F11609  1  0.387000  0.196000  0.258300  1.0
  F  F11610  1  0.113000  0.804000  0.758300  1.0
  F  F11611  1  0.613000  0.696000  0.241700  1.0
  F  F11612  1  0.887000  0.304000  0.741700  1.0
  F  F11613  1  0.613000  0.804000  0.741700  1.0
  F  F11614  1  0.887000  0.196000  0.241700  1.0
  F  F11615  1  0.387000  0.304000  0.758300  1.0
  F  F11616  1  0.113000  0.696000  0.258300  1.0
  F  F11617  1  0.395000  0.227000  0.257400  1.0
  F  F11618  1  0.105000  0.773000  0.757400  1.0
  F  F11619  1  0.605000  0.727000  0.242600  1.0
  F  F11620  1  0.895000  0.273000  0.742600  1.0
  F  F11621  1  0.605000  0.773000  0.742600  1.0
  F  F11622  1  0.895000  0.227000  0.242600  1.0
  F  F11623  1  0.395000  0.273000  0.757400  1.0
  F  F11624  1  0.105000  0.727000  0.257400  1.0
  F  F11625  1  0.392900  0.209400  0.243400  1.0
  F  F11626  1  0.107100  0.790600  0.743400  1.0
  F  F11627  1  0.607100  0.709400  0.256600  1.0
  F  F11628  1  0.892900  0.290600  0.756600  1.0
  F  F11629  1  0.607100  0.790600  0.756600  1.0
  F  F11630  1  0.892900  0.209400  0.256600  1.0
  F  F11631  1  0.392900  0.290600  0.743400  1.0
  F  F11632  1  0.107100  0.709400  0.243400  1.0
  F  F11633  1  0.398700  0.997700  0.233800  1.0
  F  F11634  1  0.101300  0.002300  0.733800  1.0
  F  F11635  1  0.601300  0.497700  0.266200  1.0
  F  F11636  1  0.898700  0.502300  0.766200  1.0
  F  F11637  1  0.601300  0.002300  0.766200  1.0
  F  F11638  1  0.898700  0.997700  0.266200  1.0
  F  F11639  1  0.398700  0.502300  0.733800  1.0
  F  F11640  1  0.101300  0.497700  0.233800  1.0
  F  F11641  1  0.396300  0.975100  0.245400  1.0
  F  F11642  1  0.103700  0.024900  0.745400  1.0
  F  F11643  1  0.603700  0.475100  0.254600  1.0
  F  F11644  1  0.896300  0.524900  0.754600  1.0
  F  F11645  1  0.603700  0.024900  0.754600  1.0
  F  F11646  1  0.896300  0.975100  0.254600  1.0
  F  F11647  1  0.396300  0.524900  0.745400  1.0
  F  F11648  1  0.103700  0.475100  0.245400  1.0
  F  F11649  1  0.421200  0.995700  0.245700  1.0
  F  F11650  1  0.078800  0.004300  0.745700  1.0
  F  F11651  1  0.578800  0.495700  0.254300  1.0
  F  F11652  1  0.921200  0.504300  0.754300  1.0
  F  F11653  1  0.578800  0.004300  0.754300  1.0
  F  F11654  1  0.921200  0.995700  0.254300  1.0
  F  F11655  1  0.421200  0.504300  0.745700  1.0
  F  F11656  1  0.078800  0.495700  0.245700  1.0
  F  F11657  1  0.419200  0.972700  0.234000  1.0
  F  F11658  1  0.080800  0.027300  0.734000  1.0
  F  F11659  1  0.580800  0.472700  0.266000  1.0
  F  F11660  1  0.919200  0.527300  0.766000  1.0
  F  F11661  1  0.580800  0.027300  0.766000  1.0
  F  F11662  1  0.919200  0.972700  0.266000  1.0
  F  F11663  1  0.419200  0.527300  0.734000  1.0
  F  F11664  1  0.080800  0.472700  0.234000  1.0
  F  F11665  1  0.430500  0.045900  0.212000  1.0
  F  F11666  1  0.069500  0.954100  0.712000  1.0
  F  F11667  1  0.569500  0.545900  0.288000  1.0
  F  F11668  1  0.930500  0.454100  0.788000  1.0
  F  F11669  1  0.569500  0.954100  0.788000  1.0
  F  F11670  1  0.930500  0.045900  0.288000  1.0
  F  F11671  1  0.430500  0.454100  0.712000  1.0
  F  F11672  1  0.069500  0.545900  0.212000  1.0
  F  F11673  1  0.451000  0.060700  0.201500  1.0
  F  F11674  1  0.049000  0.939300  0.701500  1.0
  F  F11675  1  0.549000  0.560700  0.298500  1.0
  F  F11676  1  0.951000  0.439300  0.798500  1.0
  F  F11677  1  0.549000  0.939300  0.798500  1.0
  F  F11678  1  0.951000  0.060700  0.298500  1.0
  F  F11679  1  0.451000  0.439300  0.701500  1.0
  F  F11680  1  0.049000  0.560700  0.201500  1.0
  F  F11681  1  0.440000  0.076700  0.214600  1.0
  F  F11682  1  0.060000  0.923300  0.714600  1.0
  F  F11683  1  0.560000  0.576700  0.285400  1.0
  F  F11684  1  0.940000  0.423300  0.785400  1.0
  F  F11685  1  0.560000  0.923300  0.785400  1.0
  F  F11686  1  0.940000  0.076700  0.285400  1.0
  F  F11687  1  0.440000  0.423300  0.714600  1.0
  F  F11688  1  0.060000  0.576700  0.214600  1.0
  F  F11689  1  0.420200  0.069400  0.202000  1.0
  F  F11690  1  0.079800  0.930600  0.702000  1.0
  F  F11691  1  0.579800  0.569400  0.298000  1.0
  F  F11692  1  0.920200  0.430600  0.798000  1.0
  F  F11693  1  0.579800  0.930600  0.798000  1.0
  F  F11694  1  0.920200  0.069400  0.298000  1.0
  F  F11695  1  0.420200  0.430600  0.702000  1.0
  F  F11696  1  0.079800  0.569400  0.202000  1.0
  F  F11697  1  0.511700  0.894000  0.143000  1.0
  F  F11698  1  0.988300  0.106000  0.643000  1.0
  F  F11699  1  0.488300  0.394000  0.357000  1.0
  F  F11700  1  0.011700  0.606000  0.857000  1.0
  F  F11701  1  0.488300  0.106000  0.857000  1.0
  F  F11702  1  0.011700  0.894000  0.357000  1.0
  F  F11703  1  0.511700  0.606000  0.643000  1.0
  F  F11704  1  0.988300  0.394000  0.143000  1.0
  F  F11705  1  0.480000  0.901100  0.145800  1.0
  F  F11706  1  0.020000  0.098900  0.645800  1.0
  F  F11707  1  0.520000  0.401100  0.354200  1.0
  F  F11708  1  0.980000  0.598900  0.854200  1.0
  F  F11709  1  0.520000  0.098900  0.854200  1.0
  F  F11710  1  0.980000  0.901100  0.354200  1.0
  F  F11711  1  0.480000  0.598900  0.645800  1.0
  F  F11712  1  0.020000  0.401100  0.145800  1.0
  F  F11713  1  0.490100  0.870100  0.145300  1.0
  F  F11714  1  0.009900  0.129900  0.645300  1.0
  F  F11715  1  0.509900  0.370100  0.354700  1.0
  F  F11716  1  0.990100  0.629900  0.854700  1.0
  F  F11717  1  0.509900  0.129900  0.854700  1.0
  F  F11718  1  0.990100  0.870100  0.354700  1.0
  F  F11719  1  0.490100  0.629900  0.645300  1.0
  F  F11720  1  0.009900  0.370100  0.145300  1.0
  F  F11721  1  0.490000  0.888000  0.131500  1.0
  F  F11722  1  0.010000  0.112000  0.631500  1.0
  F  F11723  1  0.510000  0.388000  0.368500  1.0
  F  F11724  1  0.990000  0.612000  0.868500  1.0
  F  F11725  1  0.510000  0.112000  0.868500  1.0
  F  F11726  1  0.990000  0.888000  0.368500  1.0
  F  F11727  1  0.490000  0.612000  0.631500  1.0
  F  F11728  1  0.010000  0.388000  0.131500  1.0
  F  F11729  1  0.490000  0.972900  0.136800  1.0
  F  F11730  1  0.010000  0.027100  0.636800  1.0
  F  F11731  1  0.510000  0.472900  0.363200  1.0
  F  F11732  1  0.990000  0.527100  0.863200  1.0
  F  F11733  1  0.510000  0.027100  0.863200  1.0
  F  F11734  1  0.990000  0.972900  0.363200  1.0
  F  F11735  1  0.490000  0.527100  0.636800  1.0
  F  F11736  1  0.010000  0.472900  0.136800  1.0
  F  F11737  1  0.517300  0.988700  0.132900  1.0
  F  F11738  1  0.982700  0.011300  0.632900  1.0
  F  F11739  1  0.482700  0.488700  0.367100  1.0
  F  F11740  1  0.017300  0.511300  0.867100  1.0
  F  F11741  1  0.482700  0.011300  0.867100  1.0
  F  F11742  1  0.017300  0.988700  0.367100  1.0
  F  F11743  1  0.517300  0.511300  0.632900  1.0
  F  F11744  1  0.982700  0.488700  0.132900  1.0
  F  F11745  1  0.503000  0.994000  0.147700  1.0
  F  F11746  1  0.997000  0.006000  0.647700  1.0
  F  F11747  1  0.497000  0.494000  0.352300  1.0
  F  F11748  1  0.003000  0.506000  0.852300  1.0
  F  F11749  1  0.497000  0.006000  0.852300  1.0
  F  F11750  1  0.003000  0.994000  0.352300  1.0
  F  F11751  1  0.503000  0.506000  0.647700  1.0
  F  F11752  1  0.997000  0.494000  0.147700  1.0
  F  F11753  1  0.489200  0.004700  0.134000  1.0
  F  F11754  1  0.010800  0.995300  0.634000  1.0
  F  F11755  1  0.510800  0.504700  0.366000  1.0
  F  F11756  1  0.989200  0.495300  0.866000  1.0
  F  F11757  1  0.510800  0.995300  0.866000  1.0
  F  F11758  1  0.989200  0.004700  0.366000  1.0
  F  F11759  1  0.489200  0.495300  0.634000  1.0
  F  F11760  1  0.010800  0.504700  0.134000  1.0
  F  F11761  1  0.693100  0.967200  0.167600  1.0
  F  F11762  1  0.806900  0.032800  0.667600  1.0
  F  F11763  1  0.306900  0.467200  0.332400  1.0
  F  F11764  1  0.193100  0.532800  0.832400  1.0
  F  F11765  1  0.306900  0.032800  0.832400  1.0
  F  F11766  1  0.193100  0.967200  0.332400  1.0
  F  F11767  1  0.693100  0.532800  0.667600  1.0
  F  F11768  1  0.806900  0.467200  0.167600  1.0
  F  F11769  1  0.712600  0.943100  0.172100  1.0
  F  F11770  1  0.787400  0.056900  0.672100  1.0
  F  F11771  1  0.287400  0.443100  0.327900  1.0
  F  F11772  1  0.212600  0.556900  0.827900  1.0
  F  F11773  1  0.287400  0.056900  0.827900  1.0
  F  F11774  1  0.212600  0.943100  0.327900  1.0
  F  F11775  1  0.712600  0.556900  0.672100  1.0
  F  F11776  1  0.787400  0.443100  0.172100  1.0
  F  F11777  1  0.725200  0.968300  0.164400  1.0
  F  F11778  1  0.774800  0.031700  0.664400  1.0
  F  F11779  1  0.274800  0.468300  0.335600  1.0
  F  F11780  1  0.225200  0.531700  0.835600  1.0
  F  F11781  1  0.274800  0.031700  0.835600  1.0
  F  F11782  1  0.225200  0.968300  0.335600  1.0
  F  F11783  1  0.725200  0.531700  0.664400  1.0
  F  F11784  1  0.774800  0.468300  0.164400  1.0
  F  F11785  1  0.706000  0.948000  0.156100  1.0
  F  F11786  1  0.794000  0.052000  0.656100  1.0
  F  F11787  1  0.294000  0.448000  0.343900  1.0
  F  F11788  1  0.206000  0.552000  0.843900  1.0
  F  F11789  1  0.294000  0.052000  0.843900  1.0
  F  F11790  1  0.206000  0.948000  0.343900  1.0
  F  F11791  1  0.706000  0.552000  0.656100  1.0
  F  F11792  1  0.794000  0.448000  0.156100  1.0
  F  F11793  1  0.656000  0.024000  0.165000  1.0
  F  F11794  1  0.844000  0.976000  0.665000  1.0
  F  F11795  1  0.344000  0.524000  0.335000  1.0
  F  F11796  1  0.156000  0.476000  0.835000  1.0
  F  F11797  1  0.344000  0.976000  0.835000  1.0
  F  F11798  1  0.156000  0.024000  0.335000  1.0
  F  F11799  1  0.656000  0.476000  0.665000  1.0
  F  F11800  1  0.844000  0.524000  0.165000  1.0
  F  F11801  1  0.674200  0.040000  0.154000  1.0
  F  F11802  1  0.825800  0.960000  0.654000  1.0
  F  F11803  1  0.325800  0.540000  0.346000  1.0
  F  F11804  1  0.174200  0.460000  0.846000  1.0
  F  F11805  1  0.325800  0.960000  0.846000  1.0
  F  F11806  1  0.174200  0.040000  0.346000  1.0
  F  F11807  1  0.674200  0.460000  0.654000  1.0
  F  F11808  1  0.825800  0.540000  0.154000  1.0
  F  F11809  1  0.642200  0.045900  0.155100  1.0
  F  F11810  1  0.857800  0.954100  0.655100  1.0
  F  F11811  1  0.357800  0.545900  0.344900  1.0
  F  F11812  1  0.142200  0.454100  0.844900  1.0
  F  F11813  1  0.357800  0.954100  0.844900  1.0
  F  F11814  1  0.142200  0.045900  0.344900  1.0
  F  F11815  1  0.642200  0.454100  0.655100  1.0
  F  F11816  1  0.857800  0.545900  0.155100  1.0
  F  F11817  1  0.653000  0.018000  0.148800  1.0
  F  F11818  1  0.847000  0.982000  0.648800  1.0
  F  F11819  1  0.347000  0.518000  0.351200  1.0
  F  F11820  1  0.153000  0.482000  0.851200  1.0
  F  F11821  1  0.347000  0.982000  0.851200  1.0
  F  F11822  1  0.153000  0.018000  0.351200  1.0
  F  F11823  1  0.653000  0.482000  0.648800  1.0
  F  F11824  1  0.847000  0.518000  0.148800  1.0
  F  F11825  1  0.770500  0.040600  0.054900  1.0
  F  F11826  1  0.729500  0.959400  0.554900  1.0
  F  F11827  1  0.229500  0.540600  0.445100  1.0
  F  F11828  1  0.270500  0.459400  0.945100  1.0
  F  F11829  1  0.229500  0.959400  0.945100  1.0
  F  F11830  1  0.270500  0.040600  0.445100  1.0
  F  F11831  1  0.770500  0.459400  0.554900  1.0
  F  F11832  1  0.729500  0.540600  0.054900  1.0
  F  F11833  1  0.744800  0.025300  0.060900  1.0
  F  F11834  1  0.755200  0.974700  0.560900  1.0
  F  F11835  1  0.255200  0.525300  0.439100  1.0
  F  F11836  1  0.244800  0.474700  0.939100  1.0
  F  F11837  1  0.255200  0.974700  0.939100  1.0
  F  F11838  1  0.244800  0.025300  0.439100  1.0
  F  F11839  1  0.744800  0.474700  0.560900  1.0
  F  F11840  1  0.755200  0.525300  0.060900  1.0
  F  F11841  1  0.773200  0.022100  0.068500  1.0
  F  F11842  1  0.726800  0.977900  0.568500  1.0
  F  F11843  1  0.226800  0.522100  0.431500  1.0
  F  F11844  1  0.273200  0.477900  0.931500  1.0
  F  F11845  1  0.226800  0.977900  0.931500  1.0
  F  F11846  1  0.273200  0.022100  0.431500  1.0
  F  F11847  1  0.773200  0.477900  0.568500  1.0
  F  F11848  1  0.726800  0.522100  0.068500  1.0
  F  F11849  1  0.769000  0.008200  0.054000  1.0
  F  F11850  1  0.731000  0.991800  0.554000  1.0
  F  F11851  1  0.231000  0.508200  0.446000  1.0
  F  F11852  1  0.269000  0.491800  0.946000  1.0
  F  F11853  1  0.231000  0.991800  0.946000  1.0
  F  F11854  1  0.269000  0.008200  0.446000  1.0
  F  F11855  1  0.769000  0.491800  0.554000  1.0
  F  F11856  1  0.731000  0.508200  0.054000  1.0
  F  F11857  1  0.701800  0.071200  0.075000  1.0
  F  F11858  1  0.798200  0.928800  0.575000  1.0
  F  F11859  1  0.298200  0.571200  0.425000  1.0
  F  F11860  1  0.201800  0.428800  0.925000  1.0
  F  F11861  1  0.298200  0.928800  0.925000  1.0
  F  F11862  1  0.201800  0.071200  0.425000  1.0
  F  F11863  1  0.701800  0.428800  0.575000  1.0
  F  F11864  1  0.798200  0.571200  0.075000  1.0
  F  F11865  1  0.703000  0.104000  0.073200  1.0
  F  F11866  1  0.797000  0.896000  0.573200  1.0
  F  F11867  1  0.297000  0.604000  0.426800  1.0
  F  F11868  1  0.203000  0.396000  0.926800  1.0
  F  F11869  1  0.297000  0.896000  0.926800  1.0
  F  F11870  1  0.203000  0.104000  0.426800  1.0
  F  F11871  1  0.703000  0.396000  0.573200  1.0
  F  F11872  1  0.797000  0.604000  0.073200  1.0
  F  F11873  1  0.705000  0.090000  0.088300  1.0
  F  F11874  1  0.795000  0.910000  0.588300  1.0
  F  F11875  1  0.295000  0.590000  0.411700  1.0
  F  F11876  1  0.205000  0.410000  0.911700  1.0
  F  F11877  1  0.295000  0.910000  0.911700  1.0
  F  F11878  1  0.205000  0.090000  0.411700  1.0
  F  F11879  1  0.705000  0.410000  0.588300  1.0
  F  F11880  1  0.795000  0.590000  0.088300  1.0
  F  F11881  1  0.676800  0.089600  0.080100  1.0
  F  F11882  1  0.823200  0.910400  0.580100  1.0
  F  F11883  1  0.323200  0.589600  0.419900  1.0
  F  F11884  1  0.176800  0.410400  0.919900  1.0
  F  F11885  1  0.323200  0.910400  0.919900  1.0
  F  F11886  1  0.176800  0.089600  0.419900  1.0
  F  F11887  1  0.676800  0.410400  0.580100  1.0
  F  F11888  1  0.823200  0.589600  0.080100  1.0
  F  F11889  1  0.689200  0.191200  0.973900  1.0
  F  F11890  1  0.810800  0.808800  0.473900  1.0
  F  F11891  1  0.310800  0.691200  0.526100  1.0
  F  F11892  1  0.189200  0.308800  0.026100  1.0
  F  F11893  1  0.310800  0.808800  0.026100  1.0
  F  F11894  1  0.189200  0.191200  0.526100  1.0
  F  F11895  1  0.689200  0.308800  0.473900  1.0
  F  F11896  1  0.810800  0.691200  0.973900  1.0
  F  F11897  1  0.713200  0.181000  0.983400  1.0
  F  F11898  1  0.786800  0.819000  0.483400  1.0
  F  F11899  1  0.286800  0.681000  0.516600  1.0
  F  F11900  1  0.213200  0.319000  0.016600  1.0
  F  F11901  1  0.286800  0.819000  0.016600  1.0
  F  F11902  1  0.213200  0.181000  0.516600  1.0
  F  F11903  1  0.713200  0.319000  0.483400  1.0
  F  F11904  1  0.786800  0.681000  0.983400  1.0
  F  F11905  1  0.712400  0.172400  0.967400  1.0
  F  F11906  1  0.787600  0.827600  0.467400  1.0
  F  F11907  1  0.287600  0.672400  0.532600  1.0
  F  F11908  1  0.212400  0.327600  0.032600  1.0
  F  F11909  1  0.287600  0.827600  0.032600  1.0
  F  F11910  1  0.212400  0.172400  0.532600  1.0
  F  F11911  1  0.712400  0.327600  0.467400  1.0
  F  F11912  1  0.787600  0.672400  0.967400  1.0
  F  F11913  1  0.690800  0.159600  0.977600  1.0
  F  F11914  1  0.809200  0.840400  0.477600  1.0
  F  F11915  1  0.309200  0.659600  0.522400  1.0
  F  F11916  1  0.190800  0.340400  0.022400  1.0
  F  F11917  1  0.309200  0.840400  0.022400  1.0
  F  F11918  1  0.190800  0.159600  0.522400  1.0
  F  F11919  1  0.690800  0.340400  0.477600  1.0
  F  F11920  1  0.809200  0.659600  0.977600  1.0
  F  F11921  1  0.649000  0.195300  0.017400  1.0
  F  F11922  1  0.851000  0.804700  0.517400  1.0
  F  F11923  1  0.351000  0.695300  0.482600  1.0
  F  F11924  1  0.149000  0.304700  0.982600  1.0
  F  F11925  1  0.351000  0.804700  0.982600  1.0
  F  F11926  1  0.149000  0.195300  0.482600  1.0
  F  F11927  1  0.649000  0.304700  0.517400  1.0
  F  F11928  1  0.851000  0.695300  0.017400  1.0
  F  F11929  1  0.673000  0.195000  0.028700  1.0
  F  F11930  1  0.827000  0.805000  0.528700  1.0
  F  F11931  1  0.327000  0.695000  0.471300  1.0
  F  F11932  1  0.173000  0.305000  0.971300  1.0
  F  F11933  1  0.327000  0.805000  0.971300  1.0
  F  F11934  1  0.173000  0.195000  0.471300  1.0
  F  F11935  1  0.673000  0.305000  0.528700  1.0
  F  F11936  1  0.827000  0.695000  0.028700  1.0
  F  F11937  1  0.650000  0.172000  0.029000  1.0
  F  F11938  1  0.850000  0.828000  0.529000  1.0
  F  F11939  1  0.350000  0.672000  0.471000  1.0
  F  F11940  1  0.150000  0.328000  0.971000  1.0
  F  F11941  1  0.350000  0.828000  0.971000  1.0
  F  F11942  1  0.150000  0.172000  0.471000  1.0
  F  F11943  1  0.650000  0.328000  0.529000  1.0
  F  F11944  1  0.850000  0.672000  0.029000  1.0
  F  F11945  1  0.643000  0.203000  0.033000  1.0
  F  F11946  1  0.857000  0.797000  0.533000  1.0
  F  F11947  1  0.357000  0.703000  0.467000  1.0
  F  F11948  1  0.143000  0.297000  0.967000  1.0
  F  F11949  1  0.357000  0.797000  0.967000  1.0
  F  F11950  1  0.143000  0.203000  0.467000  1.0
  F  F11951  1  0.643000  0.297000  0.533000  1.0
  F  F11952  1  0.857000  0.703000  0.033000  1.0
  F  F11953  1  0.785600  0.358500  0.033600  1.0
  F  F11954  1  0.714400  0.641500  0.533600  1.0
  F  F11955  1  0.214400  0.858500  0.466400  1.0
  F  F11956  1  0.285600  0.141500  0.966400  1.0
  F  F11957  1  0.214400  0.641500  0.966400  1.0
  F  F11958  1  0.285600  0.358500  0.466400  1.0
  F  F11959  1  0.785600  0.141500  0.533600  1.0
  F  F11960  1  0.714400  0.858500  0.033600  1.0
  F  F11961  1  0.801900  0.335700  0.025200  1.0
  F  F11962  1  0.698100  0.664300  0.525200  1.0
  F  F11963  1  0.198100  0.835700  0.474800  1.0
  F  F11964  1  0.301900  0.164300  0.974800  1.0
  F  F11965  1  0.198100  0.664300  0.974800  1.0
  F  F11966  1  0.301900  0.335700  0.474800  1.0
  F  F11967  1  0.801900  0.164300  0.525200  1.0
  F  F11968  1  0.698100  0.835700  0.025200  1.0
  F  F11969  1  0.815700  0.350100  0.038300  1.0
  F  F11970  1  0.684300  0.649900  0.538300  1.0
  F  F11971  1  0.184300  0.850100  0.461700  1.0
  F  F11972  1  0.315700  0.149900  0.961700  1.0
  F  F11973  1  0.184300  0.649900  0.961700  1.0
  F  F11974  1  0.315700  0.350100  0.461700  1.0
  F  F11975  1  0.815700  0.149900  0.538300  1.0
  F  F11976  1  0.684300  0.850100  0.038300  1.0
  F  F11977  1  0.811000  0.366400  0.024200  1.0
  F  F11978  1  0.689000  0.633600  0.524200  1.0
  F  F11979  1  0.189000  0.866400  0.475800  1.0
  F  F11980  1  0.311000  0.133600  0.975800  1.0
  F  F11981  1  0.189000  0.633600  0.975800  1.0
  F  F11982  1  0.311000  0.366400  0.475800  1.0
  F  F11983  1  0.811000  0.133600  0.524200  1.0
  F  F11984  1  0.689000  0.866400  0.024200  1.0
  F  F11985  1  0.724500  0.328300  0.054100  1.0
  F  F11986  1  0.775500  0.671700  0.554100  1.0
  F  F11987  1  0.275500  0.828300  0.445900  1.0
  F  F11988  1  0.224500  0.171700  0.945900  1.0
  F  F11989  1  0.275500  0.671700  0.945900  1.0
  F  F11990  1  0.224500  0.328300  0.445900  1.0
  F  F11991  1  0.724500  0.171700  0.554100  1.0
  F  F11992  1  0.775500  0.828300  0.054100  1.0
  F  F11993  1  0.697500  0.320000  0.062100  1.0
  F  F11994  1  0.802500  0.680000  0.562100  1.0
  F  F11995  1  0.302500  0.820000  0.437900  1.0
  F  F11996  1  0.197500  0.180000  0.937900  1.0
  F  F11997  1  0.302500  0.680000  0.937900  1.0
  F  F11998  1  0.197500  0.320000  0.437900  1.0
  F  F11999  1  0.697500  0.180000  0.562100  1.0
  F  F12000  1  0.802500  0.820000  0.062100  1.0
  F  F12001  1  0.726000  0.320000  0.070000  1.0
  F  F12002  1  0.774000  0.680000  0.570000  1.0
  F  F12003  1  0.274000  0.820000  0.430000  1.0
  F  F12004  1  0.226000  0.180000  0.930000  1.0
  F  F12005  1  0.274000  0.680000  0.930000  1.0
  F  F12006  1  0.226000  0.320000  0.430000  1.0
  F  F12007  1  0.726000  0.180000  0.570000  1.0
  F  F12008  1  0.774000  0.820000  0.070000  1.0
  F  F12009  1  0.720000  0.297300  0.059000  1.0
  F  F12010  1  0.780000  0.702700  0.559000  1.0
  F  F12011  1  0.280000  0.797300  0.441000  1.0
  F  F12012  1  0.220000  0.202700  0.941000  1.0
  F  F12013  1  0.280000  0.702700  0.941000  1.0
  F  F12014  1  0.220000  0.297300  0.441000  1.0
  F  F12015  1  0.720000  0.202700  0.559000  1.0
  F  F12016  1  0.780000  0.797300  0.059000  1.0
  F  F12017  1  0.601400  0.490300  0.019200  1.0
  F  F12018  1  0.898600  0.509700  0.519200  1.0
  F  F12019  1  0.398600  0.990300  0.480800  1.0
  F  F12020  1  0.101400  0.009700  0.980800  1.0
  F  F12021  1  0.398600  0.509700  0.980800  1.0
  F  F12022  1  0.101400  0.490300  0.480800  1.0
  F  F12023  1  0.601400  0.009700  0.519200  1.0
  F  F12024  1  0.898600  0.990300  0.019200  1.0
  F  F12025  1  0.622000  0.483000  0.006900  1.0
  F  F12026  1  0.878000  0.517000  0.506900  1.0
  F  F12027  1  0.378000  0.983000  0.493100  1.0
  F  F12028  1  0.122000  0.017000  0.993100  1.0
  F  F12029  1  0.378000  0.517000  0.993100  1.0
  F  F12030  1  0.122000  0.483000  0.493100  1.0
  F  F12031  1  0.622000  0.017000  0.506900  1.0
  F  F12032  1  0.878000  0.983000  0.006900  1.0
  F  F12033  1  0.633600  0.490000  0.022000  1.0
  F  F12034  1  0.866400  0.510000  0.522000  1.0
  F  F12035  1  0.366400  0.990000  0.478000  1.0
  F  F12036  1  0.133600  0.010000  0.978000  1.0
  F  F12037  1  0.366400  0.510000  0.978000  1.0
  F  F12038  1  0.133600  0.490000  0.478000  1.0
  F  F12039  1  0.633600  0.010000  0.522000  1.0
  F  F12040  1  0.866400  0.990000  0.022000  1.0
  F  F12041  1  0.620100  0.513400  0.012800  1.0
  F  F12042  1  0.879900  0.486600  0.512800  1.0
  F  F12043  1  0.379900  0.013400  0.487200  1.0
  F  F12044  1  0.120100  0.986600  0.987200  1.0
  F  F12045  1  0.379900  0.486600  0.987200  1.0
  F  F12046  1  0.120100  0.513400  0.487200  1.0
  F  F12047  1  0.620100  0.986600  0.512800  1.0
  F  F12048  1  0.879900  0.013400  0.012800  1.0
  F  F12049  1  0.590000  0.436000  0.038100  1.0
  F  F12050  1  0.910000  0.564000  0.538100  1.0
  F  F12051  1  0.410000  0.936000  0.461900  1.0
  F  F12052  1  0.090000  0.064000  0.961900  1.0
  F  F12053  1  0.410000  0.564000  0.961900  1.0
  F  F12054  1  0.090000  0.436000  0.461900  1.0
  F  F12055  1  0.590000  0.064000  0.538100  1.0
  F  F12056  1  0.910000  0.936000  0.038100  1.0
  F  F12057  1  0.597000  0.443000  0.053800  1.0
  F  F12058  1  0.903000  0.557000  0.553800  1.0
  F  F12059  1  0.403000  0.943000  0.446200  1.0
  F  F12060  1  0.097000  0.057000  0.946200  1.0
  F  F12061  1  0.403000  0.557000  0.946200  1.0
  F  F12062  1  0.097000  0.443000  0.446200  1.0
  F  F12063  1  0.597000  0.057000  0.553800  1.0
  F  F12064  1  0.903000  0.943000  0.053800  1.0
  F  F12065  1  0.602800  0.413400  0.048300  1.0
  F  F12066  1  0.897200  0.586600  0.548300  1.0
  F  F12067  1  0.397200  0.913400  0.451700  1.0
  F  F12068  1  0.102800  0.086600  0.951700  1.0
  F  F12069  1  0.397200  0.586600  0.951700  1.0
  F  F12070  1  0.102800  0.413400  0.451700  1.0
  F  F12071  1  0.602800  0.086600  0.548300  1.0
  F  F12072  1  0.897200  0.913400  0.048300  1.0
  F  F12073  1  0.572400  0.423000  0.050600  1.0
  F  F12074  1  0.927600  0.577000  0.550600  1.0
  F  F12075  1  0.427600  0.923000  0.449400  1.0
  F  F12076  1  0.072400  0.077000  0.949400  1.0
  F  F12077  1  0.427600  0.577000  0.949400  1.0
  F  F12078  1  0.072400  0.423000  0.449400  1.0
  F  F12079  1  0.572400  0.077000  0.550600  1.0
  F  F12080  1  0.927600  0.923000  0.050600  1.0
  F  F12081  1  0.387300  0.526200  0.046900  1.0
  F  F12082  1  0.112700  0.473800  0.546900  1.0
  F  F12083  1  0.612700  0.026200  0.453100  1.0
  F  F12084  1  0.887300  0.973800  0.953100  1.0
  F  F12085  1  0.612700  0.473800  0.953100  1.0
  F  F12086  1  0.887300  0.526200  0.453100  1.0
  F  F12087  1  0.387300  0.973800  0.546900  1.0
  F  F12088  1  0.112700  0.026200  0.046900  1.0
  F  F12089  1  0.398000  0.529000  0.031300  1.0
  F  F12090  1  0.102000  0.471000  0.531300  1.0
  F  F12091  1  0.602000  0.029000  0.468700  1.0
  F  F12092  1  0.898000  0.971000  0.968700  1.0
  F  F12093  1  0.602000  0.471000  0.968700  1.0
  F  F12094  1  0.898000  0.529000  0.468700  1.0
  F  F12095  1  0.398000  0.971000  0.531300  1.0
  F  F12096  1  0.102000  0.029000  0.031300  1.0
  F  F12097  1  0.412700  0.545300  0.043500  1.0
  F  F12098  1  0.087300  0.454700  0.543500  1.0
  F  F12099  1  0.587300  0.045300  0.456500  1.0
  F  F12100  1  0.912700  0.954700  0.956500  1.0
  F  F12101  1  0.587300  0.454700  0.956500  1.0
  F  F12102  1  0.912700  0.545300  0.456500  1.0
  F  F12103  1  0.412700  0.954700  0.543500  1.0
  F  F12104  1  0.087300  0.045300  0.043500  1.0
  F  F12105  1  0.383000  0.554100  0.039000  1.0
  F  F12106  1  0.117000  0.445900  0.539000  1.0
  F  F12107  1  0.617000  0.054100  0.461000  1.0
  F  F12108  1  0.883000  0.945900  0.961000  1.0
  F  F12109  1  0.617000  0.445900  0.961000  1.0
  F  F12110  1  0.883000  0.554100  0.461000  1.0
  F  F12111  1  0.383000  0.945900  0.539000  1.0
  F  F12112  1  0.117000  0.054100  0.039000  1.0
  F  F12113  1  0.415000  0.471000  0.057500  1.0
  F  F12114  1  0.085000  0.529000  0.557500  1.0
  F  F12115  1  0.585000  0.971000  0.442500  1.0
  F  F12116  1  0.915000  0.029000  0.942500  1.0
  F  F12117  1  0.585000  0.529000  0.942500  1.0
  F  F12118  1  0.915000  0.471000  0.442500  1.0
  F  F12119  1  0.415000  0.029000  0.557500  1.0
  F  F12120  1  0.085000  0.971000  0.057500  1.0
  F  F12121  1  0.432000  0.480900  0.071000  1.0
  F  F12122  1  0.068000  0.519100  0.571000  1.0
  F  F12123  1  0.568000  0.980900  0.429000  1.0
  F  F12124  1  0.932000  0.019100  0.929000  1.0
  F  F12125  1  0.568000  0.519100  0.929000  1.0
  F  F12126  1  0.932000  0.480900  0.429000  1.0
  F  F12127  1  0.432000  0.019100  0.571000  1.0
  F  F12128  1  0.068000  0.980900  0.071000  1.0
  F  F12129  1  0.427600  0.448800  0.067800  1.0
  F  F12130  1  0.072400  0.551200  0.567800  1.0
  F  F12131  1  0.572400  0.948800  0.432200  1.0
  F  F12132  1  0.927600  0.051200  0.932200  1.0
  F  F12133  1  0.572400  0.551200  0.932200  1.0
  F  F12134  1  0.927600  0.448800  0.432200  1.0
  F  F12135  1  0.427600  0.051200  0.567800  1.0
  F  F12136  1  0.072400  0.948800  0.067800  1.0
  F  F12137  1  0.402000  0.467000  0.072900  1.0
  F  F12138  1  0.098000  0.533000  0.572900  1.0
  F  F12139  1  0.598000  0.967000  0.427100  1.0
  F  F12140  1  0.902000  0.033000  0.927100  1.0
  F  F12141  1  0.598000  0.533000  0.927100  1.0
  F  F12142  1  0.902000  0.467000  0.427100  1.0
  F  F12143  1  0.402000  0.033000  0.572900  1.0
  F  F12144  1  0.098000  0.967000  0.072900  1.0
  F  F12145  1  0.451000  0.576000  0.155000  1.0
  F  F12146  1  0.049000  0.424000  0.655000  1.0
  F  F12147  1  0.549000  0.076000  0.345000  1.0
  F  F12148  1  0.951000  0.924000  0.845000  1.0
  F  F12149  1  0.549000  0.424000  0.845000  1.0
  F  F12150  1  0.951000  0.576000  0.345000  1.0
  F  F12151  1  0.451000  0.924000  0.655000  1.0
  F  F12152  1  0.049000  0.076000  0.155000  1.0
  F  F12153  1  0.436000  0.588000  0.141200  1.0
  F  F12154  1  0.064000  0.412000  0.641200  1.0
  F  F12155  1  0.564000  0.088000  0.358800  1.0
  F  F12156  1  0.936000  0.912000  0.858800  1.0
  F  F12157  1  0.564000  0.412000  0.858800  1.0
  F  F12158  1  0.936000  0.588000  0.358800  1.0
  F  F12159  1  0.436000  0.912000  0.641200  1.0
  F  F12160  1  0.064000  0.088000  0.141200  1.0
  F  F12161  1  0.429600  0.600800  0.156100  1.0
  F  F12162  1  0.070400  0.399200  0.656100  1.0
  F  F12163  1  0.570400  0.100800  0.343900  1.0
  F  F12164  1  0.929600  0.899200  0.843900  1.0
  F  F12165  1  0.570400  0.399200  0.843900  1.0
  F  F12166  1  0.929600  0.600800  0.343900  1.0
  F  F12167  1  0.429600  0.899200  0.656100  1.0
  F  F12168  1  0.070400  0.100800  0.156100  1.0
  F  F12169  1  0.419000  0.571000  0.152000  1.0
  F  F12170  1  0.081000  0.429000  0.652000  1.0
  F  F12171  1  0.581000  0.071000  0.348000  1.0
  F  F12172  1  0.919000  0.929000  0.848000  1.0
  F  F12173  1  0.581000  0.429000  0.848000  1.0
  F  F12174  1  0.919000  0.571000  0.348000  1.0
  F  F12175  1  0.419000  0.929000  0.652000  1.0
  F  F12176  1  0.081000  0.071000  0.152000  1.0
  F  F12177  1  0.453300  0.505700  0.150300  1.0
  F  F12178  1  0.046700  0.494300  0.650300  1.0
  F  F12179  1  0.546700  0.005700  0.349700  1.0
  F  F12180  1  0.953300  0.994300  0.849700  1.0
  F  F12181  1  0.546700  0.494300  0.849700  1.0
  F  F12182  1  0.953300  0.505700  0.349700  1.0
  F  F12183  1  0.453300  0.994300  0.650300  1.0
  F  F12184  1  0.046700  0.005700  0.150300  1.0
  F  F12185  1  0.455200  0.474800  0.145400  1.0
  F  F12186  1  0.044800  0.525200  0.645400  1.0
  F  F12187  1  0.544800  0.974800  0.354600  1.0
  F  F12188  1  0.955200  0.025200  0.854600  1.0
  F  F12189  1  0.544800  0.525200  0.854600  1.0
  F  F12190  1  0.955200  0.474800  0.354600  1.0
  F  F12191  1  0.455200  0.025200  0.645400  1.0
  F  F12192  1  0.044800  0.974800  0.145400  1.0
  F  F12193  1  0.476700  0.496000  0.139700  1.0
  F  F12194  1  0.023300  0.504000  0.639700  1.0
  F  F12195  1  0.523300  0.996000  0.360300  1.0
  F  F12196  1  0.976700  0.004000  0.860300  1.0
  F  F12197  1  0.523300  0.504000  0.860300  1.0
  F  F12198  1  0.976700  0.496000  0.360300  1.0
  F  F12199  1  0.476700  0.004000  0.639700  1.0
  F  F12200  1  0.023300  0.996000  0.139700  1.0
  F  F12201  1  0.446000  0.498000  0.134800  1.0
  F  F12202  1  0.054000  0.502000  0.634800  1.0
  F  F12203  1  0.554000  0.998000  0.365200  1.0
  F  F12204  1  0.946000  0.002000  0.865200  1.0
  F  F12205  1  0.554000  0.502000  0.865200  1.0
  F  F12206  1  0.946000  0.498000  0.365200  1.0
  F  F12207  1  0.446000  0.002000  0.634800  1.0
  F  F12208  1  0.054000  0.998000  0.134800  1.0
  F  F12209  1  0.597200  0.514200  0.233600  1.0
  F  F12210  1  0.902800  0.485800  0.733600  1.0
  F  F12211  1  0.402800  0.014200  0.266400  1.0
  F  F12212  1  0.097200  0.985800  0.766400  1.0
  F  F12213  1  0.402800  0.485800  0.766400  1.0
  F  F12214  1  0.097200  0.514200  0.266400  1.0
  F  F12215  1  0.597200  0.985800  0.733600  1.0
  F  F12216  1  0.902800  0.014200  0.233600  1.0
  F  F12217  1  0.579200  0.536700  0.226200  1.0
  F  F12218  1  0.920800  0.463300  0.726200  1.0
  F  F12219  1  0.420800  0.036700  0.273800  1.0
  F  F12220  1  0.079200  0.963300  0.773800  1.0
  F  F12221  1  0.420800  0.463300  0.773800  1.0
  F  F12222  1  0.079200  0.536700  0.273800  1.0
  F  F12223  1  0.579200  0.963300  0.726200  1.0
  F  F12224  1  0.920800  0.036700  0.226200  1.0
  F  F12225  1  0.586500  0.539300  0.242200  1.0
  F  F12226  1  0.913500  0.460700  0.742200  1.0
  F  F12227  1  0.413500  0.039300  0.257800  1.0
  F  F12228  1  0.086500  0.960700  0.757800  1.0
  F  F12229  1  0.413500  0.460700  0.757800  1.0
  F  F12230  1  0.086500  0.539300  0.257800  1.0
  F  F12231  1  0.586500  0.960700  0.742200  1.0
  F  F12232  1  0.913500  0.039300  0.242200  1.0
  F  F12233  1  0.565600  0.516700  0.237200  1.0
  F  F12234  1  0.934400  0.483300  0.737200  1.0
  F  F12235  1  0.434400  0.016700  0.262800  1.0
  F  F12236  1  0.065600  0.983300  0.762800  1.0
  F  F12237  1  0.434400  0.483300  0.762800  1.0
  F  F12238  1  0.065600  0.516700  0.262800  1.0
  F  F12239  1  0.565600  0.983300  0.737200  1.0
  F  F12240  1  0.934400  0.016700  0.237200  1.0
  F  F12241  1  0.563000  0.456000  0.212000  1.0
  F  F12242  1  0.937000  0.544000  0.712000  1.0
  F  F12243  1  0.437000  0.956000  0.288000  1.0
  F  F12244  1  0.063000  0.044000  0.788000  1.0
  F  F12245  1  0.437000  0.544000  0.788000  1.0
  F  F12246  1  0.063000  0.456000  0.288000  1.0
  F  F12247  1  0.563000  0.044000  0.712000  1.0
  F  F12248  1  0.937000  0.956000  0.212000  1.0
  F  F12249  1  0.556000  0.432900  0.200700  1.0
  F  F12250  1  0.944000  0.567100  0.700700  1.0
  F  F12251  1  0.444000  0.932900  0.299300  1.0
  F  F12252  1  0.056000  0.067100  0.799300  1.0
  F  F12253  1  0.444000  0.567100  0.799300  1.0
  F  F12254  1  0.056000  0.432900  0.299300  1.0
  F  F12255  1  0.556000  0.067100  0.700700  1.0
  F  F12256  1  0.944000  0.932900  0.200700  1.0
  F  F12257  1  0.584200  0.449000  0.200000  1.0
  F  F12258  1  0.915800  0.551000  0.700000  1.0
  F  F12259  1  0.415800  0.949000  0.300000  1.0
  F  F12260  1  0.084200  0.051000  0.800000  1.0
  F  F12261  1  0.415800  0.551000  0.800000  1.0
  F  F12262  1  0.084200  0.449000  0.300000  1.0
  F  F12263  1  0.584200  0.051000  0.700000  1.0
  F  F12264  1  0.915800  0.949000  0.200000  1.0
  F  F12265  1  0.556000  0.464000  0.196300  1.0
  F  F12266  1  0.944000  0.536000  0.696300  1.0
  F  F12267  1  0.444000  0.964000  0.303700  1.0
  F  F12268  1  0.056000  0.036000  0.803700  1.0
  F  F12269  1  0.444000  0.536000  0.803700  1.0
  F  F12270  1  0.056000  0.464000  0.303700  1.0
  F  F12271  1  0.556000  0.036000  0.696300  1.0
  F  F12272  1  0.944000  0.964000  0.196300  1.0
  F  F12273  1  0.726000  0.338000  0.250000  1.0
  F  F12274  1  0.774000  0.662000  0.750000  1.0
  F  F12275  1  0.274000  0.838000  0.250000  1.0
  F  F12276  1  0.226000  0.162000  0.750000  1.0
  F  F12277  1  0.274000  0.662000  0.750000  1.0
  F  F12278  1  0.226000  0.338000  0.250000  1.0
  F  F12279  1  0.726000  0.162000  0.750000  1.0
  F  F12280  1  0.774000  0.838000  0.250000  1.0
  F  F12281  1  0.729000  0.368000  0.244100  1.0
  F  F12282  1  0.771000  0.632000  0.744100  1.0
  F  F12283  1  0.271000  0.868000  0.255900  1.0
  F  F12284  1  0.229000  0.132000  0.755900  1.0
  F  F12285  1  0.271000  0.632000  0.755900  1.0
  F  F12286  1  0.229000  0.368000  0.255900  1.0
  F  F12287  1  0.729000  0.132000  0.744100  1.0
  F  F12288  1  0.771000  0.868000  0.244100  1.0
  F  F12289  1  0.754000  0.347000  0.242200  1.0
  F  F12290  1  0.746000  0.653000  0.742200  1.0
  F  F12291  1  0.246000  0.847000  0.257800  1.0
  F  F12292  1  0.254000  0.153000  0.757800  1.0
  F  F12293  1  0.246000  0.653000  0.757800  1.0
  F  F12294  1  0.254000  0.347000  0.257800  1.0
  F  F12295  1  0.754000  0.153000  0.742200  1.0
  F  F12296  1  0.746000  0.847000  0.242200  1.0
  F  F12297  1  0.746500  0.358500  0.257200  1.0
  F  F12298  1  0.753500  0.641500  0.757200  1.0
  F  F12299  1  0.253500  0.858500  0.242800  1.0
  F  F12300  1  0.246500  0.141500  0.742800  1.0
  F  F12301  1  0.253500  0.641500  0.742800  1.0
  F  F12302  1  0.246500  0.358500  0.242800  1.0
  F  F12303  1  0.746500  0.141500  0.757200  1.0
  F  F12304  1  0.753500  0.858500  0.257200  1.0
  F  F12305  1  0.687000  0.309000  0.222000  1.0
  F  F12306  1  0.813000  0.691000  0.722000  1.0
  F  F12307  1  0.313000  0.809000  0.278000  1.0
  F  F12308  1  0.187000  0.191000  0.778000  1.0
  F  F12309  1  0.313000  0.691000  0.778000  1.0
  F  F12310  1  0.187000  0.309000  0.278000  1.0
  F  F12311  1  0.687000  0.191000  0.722000  1.0
  F  F12312  1  0.813000  0.809000  0.222000  1.0
  F  F12313  1  0.662600  0.315200  0.211800  1.0
  F  F12314  1  0.837400  0.684800  0.711800  1.0
  F  F12315  1  0.337400  0.815200  0.288200  1.0
  F  F12316  1  0.162600  0.184800  0.788200  1.0
  F  F12317  1  0.337400  0.684800  0.788200  1.0
  F  F12318  1  0.162600  0.315200  0.288200  1.0
  F  F12319  1  0.662600  0.184800  0.711800  1.0
  F  F12320  1  0.837400  0.815200  0.211800  1.0
  F  F12321  1  0.691000  0.329000  0.209600  1.0
  F  F12322  1  0.809000  0.671000  0.709600  1.0
  F  F12323  1  0.309000  0.829000  0.290400  1.0
  F  F12324  1  0.191000  0.171000  0.790400  1.0
  F  F12325  1  0.309000  0.671000  0.790400  1.0
  F  F12326  1  0.191000  0.329000  0.290400  1.0
  F  F12327  1  0.691000  0.171000  0.709600  1.0
  F  F12328  1  0.809000  0.829000  0.209600  1.0
  F  F12329  1  0.673000  0.338000  0.222000  1.0
  F  F12330  1  0.827000  0.662000  0.722000  1.0
  F  F12331  1  0.327000  0.838000  0.278000  1.0
  F  F12332  1  0.173000  0.162000  0.778000  1.0
  F  F12333  1  0.327000  0.662000  0.778000  1.0
  F  F12334  1  0.173000  0.338000  0.278000  1.0
  F  F12335  1  0.673000  0.162000  0.722000  1.0
  F  F12336  1  0.827000  0.838000  0.222000  1.0
  F  F12337  1  0.573700  0.254200  0.302600  1.0
  F  F12338  1  0.926300  0.745800  0.802600  1.0
  F  F12339  1  0.426300  0.754200  0.197400  1.0
  F  F12340  1  0.073700  0.245800  0.697400  1.0
  F  F12341  1  0.426300  0.745800  0.697400  1.0
  F  F12342  1  0.073700  0.254200  0.197400  1.0
  F  F12343  1  0.573700  0.245800  0.802600  1.0
  F  F12344  1  0.926300  0.754200  0.302600  1.0
  F  F12345  1  0.574900  0.255800  0.319100  1.0
  F  F12346  1  0.925100  0.744200  0.819100  1.0
  F  F12347  1  0.425100  0.755800  0.180900  1.0
  F  F12348  1  0.074900  0.244200  0.680900  1.0
  F  F12349  1  0.425100  0.744200  0.680900  1.0
  F  F12350  1  0.074900  0.255800  0.180900  1.0
  F  F12351  1  0.574900  0.244200  0.819100  1.0
  F  F12352  1  0.925100  0.755800  0.319100  1.0
  F  F12353  1  0.557400  0.232800  0.311700  1.0
  F  F12354  1  0.942600  0.767200  0.811700  1.0
  F  F12355  1  0.442600  0.732800  0.188300  1.0
  F  F12356  1  0.057400  0.267200  0.688300  1.0
  F  F12357  1  0.442600  0.767200  0.688300  1.0
  F  F12358  1  0.057400  0.232800  0.188300  1.0
  F  F12359  1  0.557400  0.267200  0.811700  1.0
  F  F12360  1  0.942600  0.732800  0.311700  1.0
  F  F12361  1  0.547700  0.263800  0.311100  1.0
  F  F12362  1  0.952300  0.736200  0.811100  1.0
  F  F12363  1  0.452300  0.763800  0.188900  1.0
  F  F12364  1  0.047700  0.236200  0.688900  1.0
  F  F12365  1  0.452300  0.736200  0.688900  1.0
  F  F12366  1  0.047700  0.263800  0.188900  1.0
  F  F12367  1  0.547700  0.236200  0.811100  1.0
  F  F12368  1  0.952300  0.763800  0.311100  1.0
  F  F12369  1  0.548600  0.249500  0.263200  1.0
  F  F12370  1  0.951400  0.750500  0.763200  1.0
  F  F12371  1  0.451400  0.749500  0.236800  1.0
  F  F12372  1  0.048600  0.250500  0.736800  1.0
  F  F12373  1  0.451400  0.750500  0.736800  1.0
  F  F12374  1  0.048600  0.249500  0.236800  1.0
  F  F12375  1  0.548600  0.250500  0.763200  1.0
  F  F12376  1  0.951400  0.749500  0.263200  1.0
  F  F12377  1  0.535000  0.231000  0.251800  1.0
  F  F12378  1  0.965000  0.769000  0.751800  1.0
  F  F12379  1  0.465000  0.731000  0.248200  1.0
  F  F12380  1  0.035000  0.269000  0.748200  1.0
  F  F12381  1  0.465000  0.769000  0.748200  1.0
  F  F12382  1  0.035000  0.231000  0.248200  1.0
  F  F12383  1  0.535000  0.269000  0.751800  1.0
  F  F12384  1  0.965000  0.731000  0.251800  1.0
  F  F12385  1  0.559000  0.251000  0.247600  1.0
  F  F12386  1  0.941000  0.749000  0.747600  1.0
  F  F12387  1  0.441000  0.751000  0.252400  1.0
  F  F12388  1  0.059000  0.249000  0.752400  1.0
  F  F12389  1  0.441000  0.749000  0.752400  1.0
  F  F12390  1  0.059000  0.251000  0.252400  1.0
  F  F12391  1  0.559000  0.249000  0.747600  1.0
  F  F12392  1  0.941000  0.751000  0.247600  1.0
  F  F12393  1  0.530000  0.263000  0.251400  1.0
  F  F12394  1  0.970000  0.737000  0.751400  1.0
  F  F12395  1  0.470000  0.763000  0.248600  1.0
  F  F12396  1  0.030000  0.237000  0.748600  1.0
  F  F12397  1  0.470000  0.737000  0.748600  1.0
  F  F12398  1  0.030000  0.263000  0.248600  1.0
  F  F12399  1  0.530000  0.237000  0.751400  1.0
  F  F12400  1  0.970000  0.763000  0.251400  1.0
  F  F12401  1  0.611000  0.036000  0.257800  1.0
  F  F12402  1  0.889000  0.964000  0.757800  1.0
  F  F12403  1  0.389000  0.536000  0.242200  1.0
  F  F12404  1  0.111000  0.464000  0.742200  1.0
  F  F12405  1  0.389000  0.964000  0.742200  1.0
  F  F12406  1  0.111000  0.036000  0.242200  1.0
  F  F12407  1  0.611000  0.464000  0.757800  1.0
  F  F12408  1  0.889000  0.536000  0.257800  1.0
  F  F12409  1  0.628000  0.060000  0.265000  1.0
  F  F12410  1  0.872000  0.940000  0.765000  1.0
  F  F12411  1  0.372000  0.560000  0.235000  1.0
  F  F12412  1  0.128000  0.440000  0.735000  1.0
  F  F12413  1  0.372000  0.940000  0.735000  1.0
  F  F12414  1  0.128000  0.060000  0.235000  1.0
  F  F12415  1  0.628000  0.440000  0.765000  1.0
  F  F12416  1  0.872000  0.560000  0.265000  1.0
  F  F12417  1  0.623600  0.032800  0.273100  1.0
  F  F12418  1  0.876400  0.967200  0.773100  1.0
  F  F12419  1  0.376400  0.532800  0.226900  1.0
  F  F12420  1  0.123600  0.467200  0.726900  1.0
  F  F12421  1  0.376400  0.967200  0.726900  1.0
  F  F12422  1  0.123600  0.032800  0.226900  1.0
  F  F12423  1  0.623600  0.467200  0.773100  1.0
  F  F12424  1  0.876400  0.532800  0.273100  1.0
  F  F12425  1  0.599000  0.053000  0.270400  1.0
  F  F12426  1  0.901000  0.947000  0.770400  1.0
  F  F12427  1  0.401000  0.553000  0.229600  1.0
  F  F12428  1  0.099000  0.447000  0.729600  1.0
  F  F12429  1  0.401000  0.947000  0.729600  1.0
  F  F12430  1  0.099000  0.053000  0.229600  1.0
  F  F12431  1  0.599000  0.447000  0.770400  1.0
  F  F12432  1  0.901000  0.553000  0.270400  1.0
  F  F12433  1  0.595100  0.092900  0.235500  1.0
  F  F12434  1  0.904900  0.907100  0.735500  1.0
  F  F12435  1  0.404900  0.592900  0.264500  1.0
  F  F12436  1  0.095100  0.407100  0.764500  1.0
  F  F12437  1  0.404900  0.907100  0.764500  1.0
  F  F12438  1  0.095100  0.092900  0.264500  1.0
  F  F12439  1  0.595100  0.407100  0.735500  1.0
  F  F12440  1  0.904900  0.592900  0.235500  1.0
  F  F12441  1  0.581000  0.089400  0.220700  1.0
  F  F12442  1  0.919000  0.910600  0.720700  1.0
  F  F12443  1  0.419000  0.589400  0.279300  1.0
  F  F12444  1  0.081000  0.410600  0.779300  1.0
  F  F12445  1  0.419000  0.910600  0.779300  1.0
  F  F12446  1  0.081000  0.089400  0.279300  1.0
  F  F12447  1  0.581000  0.410600  0.720700  1.0
  F  F12448  1  0.919000  0.589400  0.220700  1.0
  F  F12449  1  0.608100  0.107000  0.222100  1.0
  F  F12450  1  0.891900  0.893000  0.722100  1.0
  F  F12451  1  0.391900  0.607000  0.277900  1.0
  F  F12452  1  0.108100  0.393000  0.777900  1.0
  F  F12453  1  0.391900  0.893000  0.777900  1.0
  F  F12454  1  0.108100  0.107000  0.277900  1.0
  F  F12455  1  0.608100  0.393000  0.722100  1.0
  F  F12456  1  0.891900  0.607000  0.222100  1.0
  F  F12457  1  0.580000  0.118200  0.228300  1.0
  F  F12458  1  0.920000  0.881800  0.728300  1.0
  F  F12459  1  0.420000  0.618200  0.271700  1.0
  F  F12460  1  0.080000  0.381800  0.771700  1.0
  F  F12461  1  0.420000  0.881800  0.771700  1.0
  F  F12462  1  0.080000  0.118200  0.271700  1.0
  F  F12463  1  0.580000  0.381800  0.728300  1.0
  F  F12464  1  0.920000  0.618200  0.228300  1.0
  F  F12465  1  0.797200  0.140900  0.213600  1.0
  F  F12466  1  0.702800  0.859100  0.713600  1.0
  F  F12467  1  0.202800  0.640900  0.286400  1.0
  F  F12468  1  0.297200  0.359100  0.786400  1.0
  F  F12469  1  0.202800  0.859100  0.786400  1.0
  F  F12470  1  0.297200  0.140900  0.286400  1.0
  F  F12471  1  0.797200  0.359100  0.713600  1.0
  F  F12472  1  0.702800  0.640900  0.213600  1.0
  F  F12473  1  0.800900  0.151400  0.229100  1.0
  F  F12474  1  0.699100  0.848600  0.729100  1.0
  F  F12475  1  0.199100  0.651400  0.270900  1.0
  F  F12476  1  0.300900  0.348600  0.770900  1.0
  F  F12477  1  0.199100  0.848600  0.770900  1.0
  F  F12478  1  0.300900  0.151400  0.270900  1.0
  F  F12479  1  0.800900  0.348600  0.729100  1.0
  F  F12480  1  0.699100  0.651400  0.229100  1.0
  F  F12481  1  0.825400  0.137300  0.221800  1.0
  F  F12482  1  0.674600  0.862700  0.721800  1.0
  F  F12483  1  0.174600  0.637300  0.278200  1.0
  F  F12484  1  0.325400  0.362700  0.778200  1.0
  F  F12485  1  0.174600  0.862700  0.778200  1.0
  F  F12486  1  0.325400  0.137300  0.278200  1.0
  F  F12487  1  0.825400  0.362700  0.721800  1.0
  F  F12488  1  0.674600  0.637300  0.221800  1.0
  F  F12489  1  0.799300  0.119500  0.226000  1.0
  F  F12490  1  0.700700  0.880500  0.726000  1.0
  F  F12491  1  0.200700  0.619500  0.274000  1.0
  F  F12492  1  0.299300  0.380500  0.774000  1.0
  F  F12493  1  0.200700  0.880500  0.774000  1.0
  F  F12494  1  0.299300  0.119500  0.274000  1.0
  F  F12495  1  0.799300  0.380500  0.726000  1.0
  F  F12496  1  0.700700  0.619500  0.226000  1.0
  F  F12497  1  0.739700  0.167000  0.192200  1.0
  F  F12498  1  0.760300  0.833000  0.692200  1.0
  F  F12499  1  0.260300  0.667000  0.307800  1.0
  F  F12500  1  0.239700  0.333000  0.807800  1.0
  F  F12501  1  0.260300  0.833000  0.807800  1.0
  F  F12502  1  0.239700  0.167000  0.307800  1.0
  F  F12503  1  0.739700  0.333000  0.692200  1.0
  F  F12504  1  0.760300  0.667000  0.192200  1.0
  F  F12505  1  0.714000  0.147600  0.193000  1.0
  F  F12506  1  0.786000  0.852400  0.693000  1.0
  F  F12507  1  0.286000  0.647600  0.307000  1.0
  F  F12508  1  0.214000  0.352400  0.807000  1.0
  F  F12509  1  0.286000  0.852400  0.807000  1.0
  F  F12510  1  0.214000  0.147600  0.307000  1.0
  F  F12511  1  0.714000  0.352400  0.693000  1.0
  F  F12512  1  0.786000  0.647600  0.193000  1.0
  F  F12513  1  0.710200  0.177600  0.187100  1.0
  F  F12514  1  0.789800  0.822400  0.687100  1.0
  F  F12515  1  0.289800  0.677600  0.312900  1.0
  F  F12516  1  0.210200  0.322400  0.812900  1.0
  F  F12517  1  0.289800  0.822400  0.812900  1.0
  F  F12518  1  0.210200  0.177600  0.312900  1.0
  F  F12519  1  0.710200  0.322400  0.687100  1.0
  F  F12520  1  0.789800  0.677600  0.187100  1.0
  F  F12521  1  0.716000  0.173000  0.203300  1.0
  F  F12522  1  0.784000  0.827000  0.703300  1.0
  F  F12523  1  0.284000  0.673000  0.296700  1.0
  F  F12524  1  0.216000  0.327000  0.796700  1.0
  F  F12525  1  0.284000  0.827000  0.796700  1.0
  F  F12526  1  0.216000  0.173000  0.296700  1.0
  F  F12527  1  0.716000  0.327000  0.703300  1.0
  F  F12528  1  0.784000  0.673000  0.203300  1.0
  F  F12529  1  0.852900  0.205000  0.101100  1.0
  F  F12530  1  0.647100  0.795000  0.601100  1.0
  F  F12531  1  0.147100  0.705000  0.398900  1.0
  F  F12532  1  0.352900  0.295000  0.898900  1.0
  F  F12533  1  0.147100  0.795000  0.898900  1.0
  F  F12534  1  0.352900  0.205000  0.398900  1.0
  F  F12535  1  0.852900  0.295000  0.601100  1.0
  F  F12536  1  0.647100  0.705000  0.101100  1.0
  F  F12537  1  0.863000  0.224000  0.113000  1.0
  F  F12538  1  0.637000  0.776000  0.613000  1.0
  F  F12539  1  0.137000  0.724000  0.387000  1.0
  F  F12540  1  0.363000  0.276000  0.887000  1.0
  F  F12541  1  0.137000  0.776000  0.887000  1.0
  F  F12542  1  0.363000  0.224000  0.387000  1.0
  F  F12543  1  0.863000  0.276000  0.613000  1.0
  F  F12544  1  0.637000  0.724000  0.113000  1.0
  F  F12545  1  0.881500  0.198700  0.108600  1.0
  F  F12546  1  0.618500  0.801300  0.608600  1.0
  F  F12547  1  0.118500  0.698700  0.391400  1.0
  F  F12548  1  0.381500  0.301300  0.891400  1.0
  F  F12549  1  0.118500  0.801300  0.891400  1.0
  F  F12550  1  0.381500  0.198700  0.391400  1.0
  F  F12551  1  0.881500  0.301300  0.608600  1.0
  F  F12552  1  0.618500  0.698700  0.108600  1.0
  F  F12553  1  0.853600  0.194000  0.116500  1.0
  F  F12554  1  0.646400  0.806000  0.616500  1.0
  F  F12555  1  0.146400  0.694000  0.383500  1.0
  F  F12556  1  0.353600  0.306000  0.883500  1.0
  F  F12557  1  0.146400  0.806000  0.883500  1.0
  F  F12558  1  0.353600  0.194000  0.383500  1.0
  F  F12559  1  0.853600  0.306000  0.616500  1.0
  F  F12560  1  0.646400  0.694000  0.116500  1.0
  F  F12561  1  0.777300  0.212100  0.113500  1.0
  F  F12562  1  0.722700  0.787900  0.613500  1.0
  F  F12563  1  0.222700  0.712100  0.386500  1.0
  F  F12564  1  0.277300  0.287900  0.886500  1.0
  F  F12565  1  0.222700  0.787900  0.886500  1.0
  F  F12566  1  0.277300  0.212100  0.386500  1.0
  F  F12567  1  0.777300  0.287900  0.613500  1.0
  F  F12568  1  0.722700  0.712100  0.113500  1.0
  F  F12569  1  0.753000  0.200000  0.104300  1.0
  F  F12570  1  0.747000  0.800000  0.604300  1.0
  F  F12571  1  0.247000  0.700000  0.395700  1.0
  F  F12572  1  0.253000  0.300000  0.895700  1.0
  F  F12573  1  0.247000  0.800000  0.895700  1.0
  F  F12574  1  0.253000  0.200000  0.395700  1.0
  F  F12575  1  0.753000  0.300000  0.604300  1.0
  F  F12576  1  0.747000  0.700000  0.104300  1.0
  F  F12577  1  0.755000  0.232000  0.106900  1.0
  F  F12578  1  0.745000  0.768000  0.606900  1.0
  F  F12579  1  0.245000  0.732000  0.393100  1.0
  F  F12580  1  0.255000  0.268000  0.893100  1.0
  F  F12581  1  0.245000  0.768000  0.893100  1.0
  F  F12582  1  0.255000  0.232000  0.393100  1.0
  F  F12583  1  0.755000  0.268000  0.606900  1.0
  F  F12584  1  0.745000  0.732000  0.106900  1.0
  F  F12585  1  0.747000  0.211900  0.119300  1.0
  F  F12586  1  0.753000  0.788100  0.619300  1.0
  F  F12587  1  0.253000  0.711900  0.380700  1.0
  F  F12588  1  0.247000  0.288100  0.880700  1.0
  F  F12589  1  0.253000  0.788100  0.880700  1.0
  F  F12590  1  0.247000  0.211900  0.380700  1.0
  F  F12591  1  0.747000  0.288100  0.619300  1.0
  F  F12592  1  0.753000  0.711900  0.119300  1.0
  F  F12593  1  0.806900  0.408100  0.145200  1.0
  F  F12594  1  0.693100  0.591900  0.645200  1.0
  F  F12595  1  0.193100  0.908100  0.354800  1.0
  F  F12596  1  0.306900  0.091900  0.854800  1.0
  F  F12597  1  0.193100  0.591900  0.854800  1.0
  F  F12598  1  0.306900  0.408100  0.354800  1.0
  F  F12599  1  0.806900  0.091900  0.645200  1.0
  F  F12600  1  0.693100  0.908100  0.145200  1.0
  F  F12601  1  0.832300  0.427500  0.147900  1.0
  F  F12602  1  0.667700  0.572500  0.647900  1.0
  F  F12603  1  0.167700  0.927500  0.352100  1.0
  F  F12604  1  0.332300  0.072500  0.852100  1.0
  F  F12605  1  0.167700  0.572500  0.852100  1.0
  F  F12606  1  0.332300  0.427500  0.352100  1.0
  F  F12607  1  0.832300  0.072500  0.647900  1.0
  F  F12608  1  0.667700  0.927500  0.147900  1.0
  F  F12609  1  0.810300  0.435800  0.136600  1.0
  F  F12610  1  0.689700  0.564200  0.636600  1.0
  F  F12611  1  0.189700  0.935800  0.363400  1.0
  F  F12612  1  0.310300  0.064200  0.863400  1.0
  F  F12613  1  0.189700  0.564200  0.863400  1.0
  F  F12614  1  0.310300  0.435800  0.363400  1.0
  F  F12615  1  0.810300  0.064200  0.636600  1.0
  F  F12616  1  0.689700  0.935800  0.136600  1.0
  F  F12617  1  0.830300  0.411200  0.133800  1.0
  F  F12618  1  0.669700  0.588800  0.633800  1.0
  F  F12619  1  0.169700  0.911200  0.366200  1.0
  F  F12620  1  0.330300  0.088800  0.866200  1.0
  F  F12621  1  0.169700  0.588800  0.866200  1.0
  F  F12622  1  0.330300  0.411200  0.366200  1.0
  F  F12623  1  0.830300  0.088800  0.633800  1.0
  F  F12624  1  0.669700  0.911200  0.133800  1.0
  F  F12625  1  0.751100  0.370000  0.138900  1.0
  F  F12626  1  0.748900  0.630000  0.638900  1.0
  F  F12627  1  0.248900  0.870000  0.361100  1.0
  F  F12628  1  0.251100  0.130000  0.861100  1.0
  F  F12629  1  0.248900  0.630000  0.861100  1.0
  F  F12630  1  0.251100  0.370000  0.361100  1.0
  F  F12631  1  0.751100  0.130000  0.638900  1.0
  F  F12632  1  0.748900  0.870000  0.138900  1.0
  F  F12633  1  0.741000  0.343000  0.130900  1.0
  F  F12634  1  0.759000  0.657000  0.630900  1.0
  F  F12635  1  0.259000  0.843000  0.369100  1.0
  F  F12636  1  0.241000  0.157000  0.869100  1.0
  F  F12637  1  0.259000  0.657000  0.869100  1.0
  F  F12638  1  0.241000  0.343000  0.369100  1.0
  F  F12639  1  0.741000  0.157000  0.630900  1.0
  F  F12640  1  0.759000  0.843000  0.130900  1.0
  F  F12641  1  0.719200  0.364800  0.136600  1.0
  F  F12642  1  0.780800  0.635200  0.636600  1.0
  F  F12643  1  0.280800  0.864800  0.363400  1.0
  F  F12644  1  0.219200  0.135200  0.863400  1.0
  F  F12645  1  0.280800  0.635200  0.863400  1.0
  F  F12646  1  0.219200  0.364800  0.363400  1.0
  F  F12647  1  0.719200  0.135200  0.636600  1.0
  F  F12648  1  0.780800  0.864800  0.136600  1.0
  F  F12649  1  0.736000  0.346000  0.147200  1.0
  F  F12650  1  0.764000  0.654000  0.647200  1.0
  F  F12651  1  0.264000  0.846000  0.352800  1.0
  F  F12652  1  0.236000  0.154000  0.852800  1.0
  F  F12653  1  0.264000  0.654000  0.852800  1.0
  F  F12654  1  0.236000  0.346000  0.352800  1.0
  F  F12655  1  0.736000  0.154000  0.647200  1.0
  F  F12656  1  0.764000  0.846000  0.147200  1.0
  F  F12657  1  0.664000  0.567400  0.134300  1.0
  F  F12658  1  0.836000  0.432600  0.634300  1.0
  F  F12659  1  0.336000  0.067400  0.365700  1.0
  F  F12660  1  0.164000  0.932600  0.865700  1.0
  F  F12661  1  0.336000  0.432600  0.865700  1.0
  F  F12662  1  0.164000  0.567400  0.365700  1.0
  F  F12663  1  0.664000  0.932600  0.634300  1.0
  F  F12664  1  0.836000  0.067400  0.134300  1.0
  F  F12665  1  0.635100  0.573700  0.127000  1.0
  F  F12666  1  0.864900  0.426300  0.627000  1.0
  F  F12667  1  0.364900  0.073700  0.373000  1.0
  F  F12668  1  0.135100  0.926300  0.873000  1.0
  F  F12669  1  0.364900  0.426300  0.873000  1.0
  F  F12670  1  0.135100  0.573700  0.373000  1.0
  F  F12671  1  0.635100  0.926300  0.627000  1.0
  F  F12672  1  0.864900  0.073700  0.127000  1.0
  F  F12673  1  0.660000  0.563100  0.118100  1.0
  F  F12674  1  0.840000  0.436900  0.618100  1.0
  F  F12675  1  0.340000  0.063100  0.381900  1.0
  F  F12676  1  0.160000  0.936900  0.881900  1.0
  F  F12677  1  0.340000  0.436900  0.881900  1.0
  F  F12678  1  0.160000  0.563100  0.381900  1.0
  F  F12679  1  0.660000  0.936900  0.618100  1.0
  F  F12680  1  0.840000  0.063100  0.118100  1.0
  F  F12681  1  0.660800  0.593000  0.124300  1.0
  F  F12682  1  0.839200  0.407000  0.624300  1.0
  F  F12683  1  0.339200  0.093000  0.375700  1.0
  F  F12684  1  0.160800  0.907000  0.875700  1.0
  F  F12685  1  0.339200  0.407000  0.875700  1.0
  F  F12686  1  0.160800  0.593000  0.375700  1.0
  F  F12687  1  0.660800  0.907000  0.624300  1.0
  F  F12688  1  0.839200  0.093000  0.124300  1.0
  F  F12689  1  0.622400  0.499700  0.127000  1.0
  F  F12690  1  0.877600  0.500300  0.627000  1.0
  F  F12691  1  0.377600  0.999700  0.373000  1.0
  F  F12692  1  0.122400  0.000300  0.873000  1.0
  F  F12693  1  0.377600  0.500300  0.873000  1.0
  F  F12694  1  0.122400  0.499700  0.373000  1.0
  F  F12695  1  0.622400  0.000300  0.627000  1.0
  F  F12696  1  0.877600  0.999700  0.127000  1.0
  F  F12697  1  0.608000  0.485000  0.114100  1.0
  F  F12698  1  0.892000  0.515000  0.614100  1.0
  F  F12699  1  0.392000  0.985000  0.385900  1.0
  F  F12700  1  0.108000  0.015000  0.885900  1.0
  F  F12701  1  0.392000  0.515000  0.885900  1.0
  F  F12702  1  0.108000  0.485000  0.385900  1.0
  F  F12703  1  0.608000  0.015000  0.614100  1.0
  F  F12704  1  0.892000  0.985000  0.114100  1.0
  F  F12705  1  0.600400  0.476100  0.129400  1.0
  F  F12706  1  0.899600  0.523900  0.629400  1.0
  F  F12707  1  0.399600  0.976100  0.370600  1.0
  F  F12708  1  0.100400  0.023900  0.870600  1.0
  F  F12709  1  0.399600  0.523900  0.870600  1.0
  F  F12710  1  0.100400  0.476100  0.370600  1.0
  F  F12711  1  0.600400  0.023900  0.629400  1.0
  F  F12712  1  0.899600  0.976100  0.129400  1.0
  F  F12713  1  0.629500  0.468800  0.123400  1.0
  F  F12714  1  0.870500  0.531200  0.623400  1.0
  F  F12715  1  0.370500  0.968800  0.376600  1.0
  F  F12716  1  0.129500  0.031200  0.876600  1.0
  F  F12717  1  0.370500  0.531200  0.876600  1.0
  F  F12718  1  0.129500  0.468800  0.376600  1.0
  F  F12719  1  0.629500  0.031200  0.623400  1.0
  F  F12720  1  0.870500  0.968800  0.123400  1.0
