# generated using pymatgen
data_B24Pd12C383Se24N48(OF2)48
_symmetry_space_group_name_H-M   'P 1'
_cell_length_a   63.70000000
_cell_length_b   63.70000000
_cell_length_c   65.31203584
_cell_angle_alpha   119.18682814
_cell_angle_beta   119.18682814
_cell_angle_gamma   90.00000000
_symmetry_Int_Tables_number   1
_chemical_formula_structural   B24Pd12C383Se24N48(OF2)48
_chemical_formula_sum   'B96 Pd48 C1532 Se96 N192 O192 F384'
_cell_volume   191908.44855000
_cell_formula_units_Z   4
loop_
 _symmetry_equiv_pos_site_id
 _symmetry_equiv_pos_as_xyz
  1  'x, y, z'
loop_
 _atom_site_type_symbol
 _atom_site_label
 _atom_site_symmetry_multiplicity
 _atom_site_fract_x
 _atom_site_fract_y
 _atom_site_fract_z
 _atom_site_occupancy
  B  B1  1  0.820600  0.860200  0.718000  1.0
  B  B2  1  0.897400  0.857800  0.718000  1.0
  B  B3  1  0.139800  0.102600  0.282000  1.0
  B  B4  1  0.142200  0.179400  0.282000  1.0
  B  B5  1  0.807900  0.974000  0.673200  1.0
  B  B6  1  0.865300  0.699200  0.673200  1.0
  B  B7  1  0.026000  0.134700  0.326800  1.0
  B  B8  1  0.300800  0.192100  0.326800  1.0
  B  B9  1  0.826900  0.129800  0.975400  1.0
  B  B10  1  0.148500  0.845600  0.975400  1.0
  B  B11  1  0.870200  0.851500  0.024600  1.0
  B  B12  1  0.154400  0.173100  0.024600  1.0
  B  B13  1  0.807300  0.157400  0.851400  1.0
  B  B14  1  0.044100  0.694000  0.851400  1.0
  B  B15  1  0.842600  0.955900  0.148600  1.0
  B  B16  1  0.306000  0.192700  0.148600  1.0
  B  B17  1  0.095700  0.111400  0.972200  1.0
  B  B18  1  0.876500  0.860800  0.972200  1.0
  B  B19  1  0.888600  0.123500  0.027800  1.0
  B  B20  1  0.139200  0.904300  0.027800  1.0
  B  B21  1  0.992300  0.142600  0.845200  1.0
  B  B22  1  0.852900  0.702600  0.845200  1.0
  B  B23  1  0.857400  0.147100  0.154800  1.0
  B  B24  1  0.297400  0.007700  0.154800  1.0
  B  B25  1  0.183000  0.009100  0.748000  1.0
  B  B26  1  0.565000  0.738900  0.748000  1.0
  B  B27  1  0.990900  0.435000  0.252000  1.0
  B  B28  1  0.261100  0.817000  0.252000  1.0
  B  B29  1  0.077300  0.081000  0.691200  1.0
  B  B30  1  0.613900  0.610200  0.691200  1.0
  B  B31  1  0.919000  0.386100  0.308800  1.0
  B  B32  1  0.389800  0.922700  0.308800  1.0
  B  B33  1  0.920200  0.766800  0.499800  1.0
  B  B34  1  0.579600  0.733000  0.499800  1.0
  B  B35  1  0.233200  0.420400  0.500200  1.0
  B  B36  1  0.267000  0.079800  0.500200  1.0
  B  B37  1  0.866000  0.893000  0.501400  1.0
  B  B38  1  0.635400  0.608400  0.501400  1.0
  B  B39  1  0.107000  0.364600  0.498600  1.0
  B  B40  1  0.391600  0.134000  0.498600  1.0
  B  B41  1  0.599800  0.638400  0.275200  1.0
  B  B42  1  0.675400  0.636800  0.275200  1.0
  B  B43  1  0.361600  0.324600  0.724800  1.0
  B  B44  1  0.363200  0.400200  0.724800  1.0
  B  B45  1  0.622400  0.791100  0.322400  1.0
  B  B46  1  0.700000  0.531300  0.322400  1.0
  B  B47  1  0.208900  0.300000  0.677600  1.0
  B  B48  1  0.468700  0.377600  0.677600  1.0
  B  B49  1  0.506100  0.795800  0.496600  1.0
  B  B50  1  0.990500  0.700800  0.496600  1.0
  B  B51  1  0.204200  0.009500  0.503400  1.0
  B  B52  1  0.299200  0.493900  0.503400  1.0
  B  B53  1  0.579600  0.910900  0.503800  1.0
  B  B54  1  0.924200  0.592900  0.503800  1.0
  B  B55  1  0.089100  0.075800  0.496200  1.0
  B  B56  1  0.407100  0.420400  0.496200  1.0
  B  B57  1  0.510500  0.064100  0.748800  1.0
  B  B58  1  0.238300  0.684700  0.748800  1.0
  B  B59  1  0.935900  0.761700  0.251200  1.0
  B  B60  1  0.315300  0.489500  0.251200  1.0
  B  B61  1  0.577600  0.119400  0.688800  1.0
  B  B62  1  0.111200  0.569400  0.688800  1.0
  B  B63  1  0.880600  0.888800  0.311200  1.0
  B  B64  1  0.430600  0.422400  0.311200  1.0
  B  B65  1  0.607700  0.380800  0.971800  1.0
  B  B66  1  0.364100  0.591000  0.971800  1.0
  B  B67  1  0.619200  0.635900  0.028200  1.0
  B  B68  1  0.409000  0.392300  0.028200  1.0
  B  B69  1  0.640100  0.349000  0.846200  1.0
  B  B70  1  0.206100  0.497200  0.846200  1.0
  B  B71  1  0.651000  0.793900  0.153800  1.0
  B  B72  1  0.502800  0.359900  0.153800  1.0
  B  B73  1  0.931000  0.451700  0.139600  1.0
  B  B74  1  0.208600  0.687900  0.139600  1.0
  B  B75  1  0.548300  0.791400  0.860400  1.0
  B  B76  1  0.312100  0.069000  0.860400  1.0
  B  B77  1  0.875500  0.388900  0.969800  1.0
  B  B78  1  0.094300  0.580900  0.969800  1.0
  B  B79  1  0.611100  0.905700  0.030200  1.0
  B  B80  1  0.419100  0.124500  0.030200  1.0
  B  B81  1  0.192200  0.435300  0.145600  1.0
  B  B82  1  0.953400  0.710300  0.145600  1.0
  B  B83  1  0.564700  0.046600  0.854400  1.0
  B  B84  1  0.289700  0.807800  0.854400  1.0
  B  B85  1  0.076300  0.373900  0.973200  1.0
  B  B86  1  0.896900  0.599300  0.973200  1.0
  B  B87  1  0.626100  0.103100  0.026800  1.0
  B  B88  1  0.400700  0.923700  0.026800  1.0
  B  B89  1  0.340500  0.328800  0.972400  1.0
  B  B90  1  0.631900  0.643600  0.972400  1.0
  B  B91  1  0.671200  0.368100  0.027600  1.0
  B  B92  1  0.356400  0.659500  0.027600  1.0
  B  B93  1  0.185500  0.306800  0.848800  1.0
  B  B94  1  0.663300  0.542000  0.848800  1.0
  B  B95  1  0.693200  0.336700  0.151200  1.0
  B  B96  1  0.458000  0.814500  0.151200  1.0
  C  C97  1  0.806600  0.066500  0.877400  1.0
  C  C98  1  0.070800  0.810900  0.877400  1.0
  C  C99  1  0.933500  0.929200  0.122600  1.0
  C  C100  1  0.189100  0.193400  0.122600  1.0
  C  C101  1  0.807400  0.091400  0.893400  1.0
  C  C102  1  0.086000  0.802000  0.893400  1.0
  C  C103  1  0.908600  0.914000  0.106600  1.0
  C  C104  1  0.198000  0.192600  0.106600  1.0
  C  C105  1  0.811000  0.100600  0.864000  1.0
  C  C106  1  0.053000  0.763400  0.864000  1.0
  C  C107  1  0.899400  0.947000  0.136000  1.0
  C  C108  1  0.236600  0.189000  0.136000  1.0
  C  C109  1  0.811100  0.076100  0.848000  1.0
  C  C110  1  0.036900  0.771900  0.848000  1.0
  C  C111  1  0.923900  0.963100  0.152000  1.0
  C  C112  1  0.228100  0.188900  0.152000  1.0
  C  C113  1  0.807600  0.057900  0.853400  1.0
  C  C114  1  0.045800  0.795500  0.853400  1.0
  C  C115  1  0.942100  0.954200  0.146600  1.0
  C  C116  1  0.204500  0.192400  0.146600  1.0
  C  C117  1  0.807300  0.031200  0.835400  1.0
  C  C118  1  0.028100  0.804200  0.835400  1.0
  C  C119  1  0.968800  0.971900  0.164600  1.0
  C  C120  1  0.195800  0.192700  0.164600  1.0
  C  C121  1  0.804900  0.011400  0.838600  1.0
  C  C122  1  0.033700  0.827200  0.838600  1.0
  C  C123  1  0.988600  0.966300  0.161400  1.0
  C  C124  1  0.172800  0.195100  0.161400  1.0
  C  C125  1  0.784800  0.998300  0.855800  1.0
  C  C126  1  0.071000  0.857500  0.855800  1.0
  C  C127  1  0.001700  0.929000  0.144200  1.0
  C  C128  1  0.142500  0.215200  0.144200  1.0
  C  C129  1  0.821600  0.963200  0.837200  1.0
  C  C130  1  0.015600  0.874000  0.837200  1.0
  C  C131  1  0.036800  0.984400  0.162800  1.0
  C  C132  1  0.126000  0.178400  0.162800  1.0
  C  C133  1  0.805300  0.988800  0.818600  1.0
  C  C134  1  0.013300  0.829800  0.818600  1.0
  C  C135  1  0.011200  0.986700  0.181400  1.0
  C  C136  1  0.170200  0.194700  0.181400  1.0
  C  C137  1  0.807900  0.990600  0.799400  1.0
  C  C138  1  0.991500  0.808800  0.799400  1.0
  C  C139  1  0.009400  0.008500  0.200600  1.0
  C  C140  1  0.191200  0.192100  0.200600  1.0
  C  C141  1  0.809600  0.970000  0.775800  1.0
  C  C142  1  0.966200  0.805800  0.775800  1.0
  C  C143  1  0.030000  0.033800  0.224200  1.0
  C  C144  1  0.194200  0.190400  0.224200  1.0
  C  C145  1  0.813900  0.975600  0.759400  1.0
  C  C146  1  0.945500  0.783800  0.759400  1.0
  C  C147  1  0.024400  0.054500  0.240600  1.0
  C  C148  1  0.216200  0.186100  0.240600  1.0
  C  C149  1  0.815000  0.956800  0.737200  1.0
  C  C150  1  0.922200  0.780400  0.737200  1.0
  C  C151  1  0.043200  0.077800  0.262800  1.0
  C  C152  1  0.219600  0.185000  0.262800  1.0
  C  C153  1  0.810800  0.927500  0.748400  1.0
  C  C154  1  0.937600  0.820900  0.748400  1.0
  C  C155  1  0.072500  0.062400  0.251600  1.0
  C  C156  1  0.179100  0.189200  0.251600  1.0
  C  C157  1  0.809200  0.945700  0.770600  1.0
  C  C158  1  0.961400  0.824900  0.770600  1.0
  C  C159  1  0.054300  0.038600  0.229400  1.0
  C  C160  1  0.175100  0.190800  0.229400  1.0
  C  C161  1  0.018300  0.148700  0.962800  1.0
  C  C162  1  0.944500  0.814100  0.962800  1.0
  C  C163  1  0.851300  0.055500  0.037200  1.0
  C  C164  1  0.185900  0.981700  0.037200  1.0
  C  C165  1  0.035300  0.145700  0.954600  1.0
  C  C166  1  0.919300  0.808900  0.954600  1.0
  C  C167  1  0.854300  0.080700  0.045400  1.0
  C  C168  1  0.191100  0.964700  0.045400  1.0
  C  C169  1  0.002000  0.130900  0.907800  1.0
  C  C170  1  0.905800  0.776900  0.907800  1.0
  C  C171  1  0.869100  0.094200  0.092200  1.0
  C  C172  1  0.223100  0.998000  0.092200  1.0
  C  C173  1  0.984700  0.135000  0.915400  1.0
  C  C174  1  0.930700  0.780400  0.915400  1.0
  C  C175  1  0.865000  0.069300  0.084600  1.0
  C  C176  1  0.219600  0.015300  0.084600  1.0
  C  C177  1  0.992300  0.142800  0.943000  1.0
  C  C178  1  0.950700  0.800200  0.943000  1.0
  C  C179  1  0.857200  0.049300  0.057000  1.0
  C  C180  1  0.199800  0.007700  0.057000  1.0
  C  C181  1  0.972700  0.145500  0.950200  1.0
  C  C182  1  0.977500  0.804700  0.950200  1.0
  C  C183  1  0.854500  0.022500  0.049800  1.0
  C  C184  1  0.195300  0.027300  0.049800  1.0
  C  C185  1  0.977200  0.153900  0.976600  1.0
  C  C186  1  0.999400  0.822700  0.976600  1.0
  C  C187  1  0.846100  0.000600  0.023400  1.0
  C  C188  1  0.177300  0.022800  0.023400  1.0
  C  C189  1  0.009700  0.178700  0.027400  1.0
  C  C190  1  0.017700  0.848700  0.027400  1.0
  C  C191  1  0.821300  0.982300  0.972600  1.0
  C  C192  1  0.151300  0.990300  0.972600  1.0
  C  C193  1  0.962400  0.150600  0.014800  1.0
  C  C194  1  0.052400  0.864200  0.014800  1.0
  C  C195  1  0.849400  0.947600  0.985200  1.0
  C  C196  1  0.135800  0.037600  0.985200  1.0
  C  C197  1  0.955400  0.154600  0.977000  1.0
  C  C198  1  0.021600  0.822400  0.977000  1.0
  C  C199  1  0.845400  0.978400  0.023000  1.0
  C  C200  1  0.177600  0.044600  0.023000  1.0
  C  C201  1  0.933300  0.146500  0.950800  1.0
  C  C202  1  0.017500  0.804300  0.950800  1.0
  C  C203  1  0.853500  0.982500  0.049200  1.0
  C  C204  1  0.195700  0.066700  0.049200  1.0
  C  C205  1  0.906800  0.145100  0.944200  1.0
  C  C206  1  0.037400  0.799100  0.944200  1.0
  C  C207  1  0.854900  0.962600  0.055800  1.0
  C  C208  1  0.200900  0.093200  0.055800  1.0
  C  C209  1  0.886300  0.135000  0.916000  1.0
  C  C210  1  0.029700  0.781000  0.916000  1.0
  C  C211  1  0.865000  0.970300  0.084000  1.0
  C  C212  1  0.219000  0.113700  0.084000  1.0
  C  C213  1  0.861700  0.133700  0.909400  1.0
  C  C214  1  0.047700  0.775700  0.909400  1.0
  C  C215  1  0.866300  0.952300  0.090600  1.0
  C  C216  1  0.224300  0.138300  0.090600  1.0
  C  C217  1  0.875900  0.149400  0.956600  1.0
  C  C218  1  0.080700  0.807200  0.956600  1.0
  C  C219  1  0.850600  0.919300  0.043400  1.0
  C  C220  1  0.192800  0.124100  0.043400  1.0
  C  C221  1  0.900800  0.151400  0.964200  1.0
  C  C222  1  0.063400  0.812800  0.964200  1.0
  C  C223  1  0.848600  0.936600  0.035800  1.0
  C  C224  1  0.187200  0.099200  0.035800  1.0
  C  C225  1  0.890500  0.937700  0.753600  1.0
  C  C226  1  0.863100  0.815900  0.753600  1.0
  C  C227  1  0.062300  0.136900  0.246400  1.0
  C  C228  1  0.184100  0.109500  0.246400  1.0
  C  C229  1  0.865400  0.922500  0.731600  1.0
  C  C230  1  0.866200  0.809100  0.731600  1.0
  C  C231  1  0.077500  0.133800  0.268400  1.0
  C  C232  1  0.190900  0.134600  0.268400  1.0
  C  C233  1  0.854400  0.957400  0.730000  1.0
  C  C234  1  0.875600  0.772600  0.730000  1.0
  C  C235  1  0.042600  0.124400  0.270000  1.0
  C  C236  1  0.227400  0.145600  0.270000  1.0
  C  C237  1  0.879700  0.972900  0.750800  1.0
  C  C238  1  0.871100  0.777900  0.750800  1.0
  C  C239  1  0.027100  0.128900  0.249200  1.0
  C  C240  1  0.222100  0.120300  0.249200  1.0
  C  C241  1  0.898100  0.963500  0.764000  1.0
  C  C242  1  0.865900  0.800500  0.764000  1.0
  C  C243  1  0.036500  0.134100  0.236000  1.0
  C  C244  1  0.199500  0.101900  0.236000  1.0
  C  C245  1  0.925000  0.981100  0.787800  1.0
  C  C246  1  0.862800  0.806700  0.787800  1.0
  C  C247  1  0.018900  0.137200  0.212200  1.0
  C  C248  1  0.193300  0.075000  0.212200  1.0
  C  C249  1  0.945700  0.974700  0.802200  1.0
  C  C250  1  0.856500  0.827500  0.802200  1.0
  C  C251  1  0.025300  0.143500  0.197800  1.0
  C  C252  1  0.172500  0.054300  0.197800  1.0
  C  C253  1  0.963500  0.940800  0.802000  1.0
  C  C254  1  0.838500  0.861200  0.802000  1.0
  C  C255  1  0.059200  0.161500  0.198000  1.0
  C  C256  1  0.138800  0.036500  0.198000  1.0
  C  C257  1  0.994300  0.982500  0.854800  1.0
  C  C258  1  0.860500  0.872300  0.854800  1.0
  C  C259  1  0.017500  0.139500  0.145200  1.0
  C  C260  1  0.127700  0.005700  0.145200  1.0
  C  C261  1  0.968100  0.995100  0.823200  1.0
  C  C262  1  0.855100  0.828100  0.823200  1.0
  C  C263  1  0.004900  0.144900  0.176800  1.0
  C  C264  1  0.171900  0.031900  0.176800  1.0
  C  C265  1  0.965400  0.018000  0.826200  1.0
  C  C266  1  0.860800  0.808200  0.826200  1.0
  C  C267  1  0.982000  0.139200  0.173800  1.0
  C  C268  1  0.191800  0.034600  0.173800  1.0
  C  C269  1  0.985600  0.043600  0.847400  1.0
  C  C270  1  0.861800  0.803800  0.847400  1.0
  C  C271  1  0.956400  0.138200  0.152600  1.0
  C  C272  1  0.196200  0.014400  0.152600  1.0
  C  C273  1  0.979800  0.064700  0.846600  1.0
  C  C274  1  0.866800  0.781900  0.846600  1.0
  C  C275  1  0.935300  0.133200  0.153400  1.0
  C  C276  1  0.218100  0.020200  0.153400  1.0
  C  C277  1  0.998000  0.088600  0.866400  1.0
  C  C278  1  0.868400  0.777800  0.866400  1.0
  C  C279  1  0.911400  0.131600  0.133600  1.0
  C  C280  1  0.222200  0.002000  0.133600  1.0
  C  C281  1  0.028900  0.071400  0.886000  1.0
  C  C282  1  0.857100  0.814600  0.886000  1.0
  C  C283  1  0.928600  0.142900  0.114000  1.0
  C  C284  1  0.185400  0.971100  0.114000  1.0
  C  C285  1  0.010900  0.047300  0.867200  1.0
  C  C286  1  0.856300  0.819900  0.867200  1.0
  C  C287  1  0.952700  0.143700  0.132800  1.0
  C  C288  1  0.180100  0.989100  0.132800  1.0
  C  C289  1  0.099600  0.101900  0.893600  1.0
  C  C290  1  0.794000  0.791700  0.893600  1.0
  C  C291  1  0.898100  0.206000  0.106400  1.0
  C  C292  1  0.208300  0.900400  0.106400  1.0
  C  C293  1  0.087700  0.112200  0.907800  1.0
  C  C294  1  0.820100  0.795600  0.907800  1.0
  C  C295  1  0.887800  0.179900  0.092200  1.0
  C  C296  1  0.204400  0.912300  0.092200  1.0
  C  C297  1  0.060600  0.120800  0.874200  1.0
  C  C298  1  0.813600  0.753400  0.874200  1.0
  C  C299  1  0.879200  0.186400  0.125800  1.0
  C  C300  1  0.246600  0.939400  0.125800  1.0
  C  C301  1  0.071400  0.110000  0.858800  1.0
  C  C302  1  0.787400  0.748800  0.858800  1.0
  C  C303  1  0.890000  0.212600  0.141200  1.0
  C  C304  1  0.251200  0.928600  0.141200  1.0
  C  C305  1  0.092300  0.101500  0.869200  1.0
  C  C306  1  0.776900  0.767700  0.869200  1.0
  C  C307  1  0.898500  0.223100  0.130800  1.0
  C  C308  1  0.232300  0.907700  0.130800  1.0
  C  C309  1  0.104200  0.090500  0.852600  1.0
  C  C310  1  0.748400  0.762100  0.852600  1.0
  C  C311  1  0.909500  0.251600  0.147400  1.0
  C  C312  1  0.237900  0.895800  0.147400  1.0
  C  C313  1  0.124000  0.080100  0.859000  1.0
  C  C314  1  0.735000  0.778900  0.859000  1.0
  C  C315  1  0.919900  0.265000  0.141000  1.0
  C  C316  1  0.221100  0.876000  0.141000  1.0
  C  C317  1  0.122000  0.064300  0.885600  1.0
  C  C318  1  0.763600  0.821300  0.885600  1.0
  C  C319  1  0.935700  0.236400  0.114400  1.0
  C  C320  1  0.178700  0.878000  0.114400  1.0
  C  C321  1  0.171200  0.065900  0.865800  1.0
  C  C322  1  0.694600  0.799900  0.865800  1.0
  C  C323  1  0.934100  0.305400  0.134200  1.0
  C  C324  1  0.200100  0.828800  0.134200  1.0
  C  C325  1  0.130900  0.071300  0.839600  1.0
  C  C326  1  0.708700  0.768300  0.839600  1.0
  C  C327  1  0.928700  0.291300  0.160400  1.0
  C  C328  1  0.231700  0.869100  0.160400  1.0
  C  C329  1  0.116600  0.074600  0.817600  1.0
  C  C330  1  0.701000  0.743000  0.817600  1.0
  C  C331  1  0.925400  0.299000  0.182400  1.0
  C  C332  1  0.257000  0.883400  0.182400  1.0
  C  C333  1  0.119100  0.066900  0.793200  1.0
  C  C334  1  0.674100  0.726300  0.793200  1.0
  C  C335  1  0.933100  0.325900  0.206800  1.0
  C  C336  1  0.273700  0.880900  0.206800  1.0
  C  C337  1  0.104200  0.073100  0.773600  1.0
  C  C338  1  0.669400  0.700500  0.773600  1.0
  C  C339  1  0.926900  0.330600  0.226400  1.0
  C  C340  1  0.299500  0.895800  0.226400  1.0
  C  C341  1  0.105700  0.065700  0.750600  1.0
  C  C342  1  0.644900  0.684900  0.750600  1.0
  C  C343  1  0.934300  0.355100  0.249400  1.0
  C  C344  1  0.315100  0.894300  0.249400  1.0
  C  C345  1  0.138800  0.049300  0.767200  1.0
  C  C346  1  0.628400  0.717900  0.767200  1.0
  C  C347  1  0.950700  0.371600  0.232800  1.0
  C  C348  1  0.282100  0.861200  0.232800  1.0
  C  C349  1  0.137300  0.055500  0.790000  1.0
  C  C350  1  0.652700  0.734500  0.790000  1.0
  C  C351  1  0.944500  0.347300  0.210000  1.0
  C  C352  1  0.265500  0.862700  0.210000  1.0
  C  C353  1  0.094300  0.970700  0.681000  1.0
  C  C354  1  0.586700  0.710300  0.681000  1.0
  C  C355  1  0.029300  0.413300  0.319000  1.0
  C  C356  1  0.289700  0.905700  0.319000  1.0
  C  C357  1  0.111500  0.995000  0.699600  1.0
  C  C358  1  0.588100  0.704600  0.699600  1.0
  C  C359  1  0.005000  0.411900  0.300400  1.0
  C  C360  1  0.295400  0.888500  0.300400  1.0
  C  C361  1  0.080200  0.010800  0.678000  1.0
  C  C362  1  0.597800  0.667200  0.678000  1.0
  C  C363  1  0.989200  0.402200  0.322000  1.0
  C  C364  1  0.332800  0.919800  0.322000  1.0
  C  C365  1  0.062600  0.986600  0.658400  1.0
  C  C366  1  0.595800  0.671800  0.658400  1.0
  C  C367  1  0.013400  0.404200  0.341600  1.0
  C  C368  1  0.328200  0.937400  0.341600  1.0
  C  C369  1  0.068900  0.966100  0.660400  1.0
  C  C370  1  0.591500  0.694300  0.660400  1.0
  C  C371  1  0.033900  0.408500  0.339600  1.0
  C  C372  1  0.305700  0.931100  0.339600  1.0
  C  C373  1  0.049200  0.940200  0.639400  1.0
  C  C374  1  0.590200  0.699200  0.639400  1.0
  C  C375  1  0.059800  0.409800  0.360600  1.0
  C  C376  1  0.300800  0.950800  0.360600  1.0
  C  C377  1  0.052500  0.917600  0.637200  1.0
  C  C378  1  0.584700  0.719600  0.637200  1.0
  C  C379  1  0.082400  0.415300  0.362800  1.0
  C  C380  1  0.280400  0.947500  0.362800  1.0
  C  C381  1  0.078900  0.910500  0.674000  1.0
  C  C382  1  0.595100  0.763500  0.674000  1.0
  C  C383  1  0.089500  0.404900  0.326000  1.0
  C  C384  1  0.236500  0.921100  0.326000  1.0
  C  C385  1  0.041100  0.857400  0.597400  1.0
  C  C386  1  0.556300  0.740000  0.597400  1.0
  C  C387  1  0.142600  0.443700  0.402600  1.0
  C  C388  1  0.260000  0.958900  0.402600  1.0
  C  C389  1  0.030700  0.896500  0.615200  1.0
  C  C390  1  0.584500  0.718700  0.615200  1.0
  C  C391  1  0.103500  0.415500  0.384800  1.0
  C  C392  1  0.281300  0.969300  0.384800  1.0
  C  C393  1  0.010000  0.902000  0.599400  1.0
  C  C394  1  0.589400  0.697400  0.599400  1.0
  C  C395  1  0.098000  0.410600  0.400600  1.0
  C  C396  1  0.302600  0.990000  0.400600  1.0
  C  C397  1  0.983900  0.883600  0.574600  1.0
  C  C398  1  0.590700  0.691000  0.574600  1.0
  C  C399  1  0.116400  0.409300  0.425400  1.0
  C  C400  1  0.309000  0.016100  0.425400  1.0
  C  C401  1  0.965000  0.892400  0.560800  1.0
  C  C402  1  0.595800  0.668400  0.560800  1.0
  C  C403  1  0.107600  0.404200  0.439200  1.0
  C  C404  1  0.331600  0.035000  0.439200  1.0
  C  C405  1  0.940600  0.875900  0.538200  1.0
  C  C406  1  0.597600  0.662300  0.538200  1.0
  C  C407  1  0.124100  0.402400  0.461800  1.0
  C  C408  1  0.337700  0.059400  0.461800  1.0
  C  C409  1  0.953000  0.841400  0.539800  1.0
  C  C410  1  0.586800  0.698400  0.539800  1.0
  C  C411  1  0.158600  0.413200  0.460200  1.0
  C  C412  1  0.301600  0.047000  0.460200  1.0
  C  C413  1  0.977400  0.857400  0.563200  1.0
  C  C414  1  0.585800  0.705800  0.563200  1.0
  C  C415  1  0.142600  0.414200  0.436800  1.0
  C  C416  1  0.294200  0.022600  0.436800  1.0
  C  C417  1  0.880100  0.818600  0.548800  1.0
  C  C418  1  0.668700  0.730200  0.548800  1.0
  C  C419  1  0.181400  0.331300  0.451200  1.0
  C  C420  1  0.269800  0.119900  0.451200  1.0
  C  C421  1  0.888500  0.818400  0.532600  1.0
  C  C422  1  0.644100  0.714200  0.532600  1.0
  C  C423  1  0.181600  0.355900  0.467400  1.0
  C  C424  1  0.285800  0.111500  0.467400  1.0
  C  C425  1  0.883900  0.858700  0.543400  1.0
  C  C426  1  0.659500  0.684700  0.543400  1.0
  C  C427  1  0.141300  0.340500  0.456600  1.0
  C  C428  1  0.315300  0.116100  0.456600  1.0
  C  C429  1  0.876500  0.860200  0.560800  1.0
  C  C430  1  0.684300  0.700600  0.560800  1.0
  C  C431  1  0.139800  0.315700  0.439200  1.0
  C  C432  1  0.299400  0.123500  0.439200  1.0
  C  C433  1  0.873100  0.839400  0.562800  1.0
  C  C434  1  0.689700  0.723400  0.562800  1.0
  C  C435  1  0.160600  0.310300  0.437200  1.0
  C  C436  1  0.276600  0.126900  0.437200  1.0
  C  C437  1  0.864100  0.841100  0.581000  1.0
  C  C438  1  0.716900  0.739900  0.581000  1.0
  C  C439  1  0.158900  0.283100  0.419000  1.0
  C  C440  1  0.260100  0.135900  0.419000  1.0
  C  C441  1  0.860800  0.822900  0.586200  1.0
  C  C442  1  0.725400  0.763300  0.586200  1.0
  C  C443  1  0.177100  0.274600  0.413800  1.0
  C  C444  1  0.236700  0.139200  0.413800  1.0
  C  C445  1  0.882200  0.792000  0.589800  1.0
  C  C446  1  0.707600  0.797800  0.589800  1.0
  C  C447  1  0.208000  0.292400  0.410200  1.0
  C  C448  1  0.202200  0.117800  0.410200  1.0
  C  C449  1  0.830200  0.791700  0.594400  1.0
  C  C450  1  0.764200  0.802700  0.594400  1.0
  C  C451  1  0.208300  0.235800  0.405600  1.0
  C  C452  1  0.197300  0.169800  0.405600  1.0
  C  C453  1  0.851900  0.829800  0.603800  1.0
  C  C454  1  0.751900  0.774000  0.603800  1.0
  C  C455  1  0.170200  0.248100  0.396200  1.0
  C  C456  1  0.226000  0.148100  0.396200  1.0
  C  C457  1  0.847900  0.853400  0.612400  1.0
  C  C458  1  0.764500  0.759000  0.612400  1.0
  C  C459  1  0.146600  0.235500  0.387600  1.0
  C  C460  1  0.241000  0.152100  0.387600  1.0
  C  C461  1  0.838500  0.866300  0.631400  1.0
  C  C462  1  0.792900  0.765100  0.631400  1.0
  C  C463  1  0.133700  0.207100  0.368600  1.0
  C  C464  1  0.234900  0.161500  0.368600  1.0
  C  C465  1  0.834600  0.889900  0.637200  1.0
  C  C466  1  0.802600  0.747300  0.637200  1.0
  C  C467  1  0.110100  0.197400  0.362800  1.0
  C  C468  1  0.252700  0.165400  0.362800  1.0
  C  C469  1  0.826800  0.902500  0.655400  1.0
  C  C470  1  0.828600  0.752900  0.655400  1.0
  C  C471  1  0.097500  0.171400  0.344600  1.0
  C  C472  1  0.247100  0.173200  0.344600  1.0
  C  C473  1  0.823000  0.868100  0.659600  1.0
  C  C474  1  0.836600  0.791500  0.659600  1.0
  C  C475  1  0.131900  0.163400  0.340400  1.0
  C  C476  1  0.208500  0.177000  0.340400  1.0
  C  C477  1  0.831800  0.855200  0.642400  1.0
  C  C478  1  0.810600  0.787200  0.642400  1.0
  C  C479  1  0.144800  0.189400  0.357600  1.0
  C  C480  1  0.212800  0.168200  0.357600  1.0
  C  C481  1  0.689100  0.707800  0.345000  1.0
  C  C482  1  0.655900  0.637200  0.345000  1.0
  C  C483  1  0.292200  0.344100  0.655000  1.0
  C  C484  1  0.362800  0.310900  0.655000  1.0
  C  C485  1  0.663100  0.703600  0.328800  1.0
  C  C486  1  0.665700  0.625200  0.328800  1.0
  C  C487  1  0.296400  0.334300  0.671200  1.0
  C  C488  1  0.374800  0.336900  0.671200  1.0
  C  C489  1  0.669700  0.747500  0.348600  1.0
  C  C490  1  0.678900  0.601100  0.348600  1.0
  C  C491  1  0.252500  0.321100  0.651400  1.0
  C  C492  1  0.398900  0.330300  0.651400  1.0
  C  C493  1  0.695900  0.752400  0.364200  1.0
  C  C494  1  0.668300  0.611800  0.364200  1.0
  C  C495  1  0.247600  0.331700  0.635800  1.0
  C  C496  1  0.388200  0.304100  0.635800  1.0
  C  C497  1  0.706200  0.732700  0.363800  1.0
  C  C498  1  0.657600  0.631100  0.363800  1.0
  C  C499  1  0.267300  0.342400  0.636200  1.0
  C  C500  1  0.368900  0.293800  0.636200  1.0
  C  C501  1  0.734700  0.738600  0.381800  1.0
  C  C502  1  0.647100  0.643200  0.381800  1.0
  C  C503  1  0.261400  0.352900  0.618200  1.0
  C  C504  1  0.356800  0.265300  0.618200  1.0
  C  C505  1  0.748000  0.721400  0.383200  1.0
  C  C506  1  0.635200  0.661800  0.383200  1.0
  C  C507  1  0.278600  0.364800  0.616800  1.0
  C  C508  1  0.338200  0.252000  0.616800  1.0
  C  C509  1  0.737100  0.677600  0.345600  1.0
  C  C510  1  0.608500  0.668000  0.345600  1.0
  C  C511  1  0.322400  0.391500  0.654400  1.0
  C  C512  1  0.332000  0.262900  0.654400  1.0
  C  C513  1  0.795200  0.709100  0.421800  1.0
  C  C514  1  0.626600  0.712700  0.421800  1.0
  C  C515  1  0.290900  0.373400  0.578200  1.0
  C  C516  1  0.287300  0.204800  0.578200  1.0
  C  C517  1  0.774400  0.732700  0.402000  1.0
  C  C518  1  0.627600  0.669300  0.402000  1.0
  C  C519  1  0.267300  0.372400  0.598000  1.0
  C  C520  1  0.330700  0.225600  0.598000  1.0
  C  C521  1  0.782200  0.759000  0.415800  1.0
  C  C522  1  0.633600  0.656800  0.415800  1.0
  C  C523  1  0.241000  0.366400  0.584200  1.0
  C  C524  1  0.343200  0.217800  0.584200  1.0
  C  C525  1  0.809100  0.776700  0.436400  1.0
  C  C526  1  0.627300  0.659700  0.436400  1.0
  C  C527  1  0.223300  0.372700  0.563600  1.0
  C  C528  1  0.340300  0.190900  0.563600  1.0
  C  C529  1  0.813600  0.803000  0.449000  1.0
  C  C530  1  0.635400  0.646000  0.449000  1.0
  C  C531  1  0.197000  0.364600  0.551000  1.0
  C  C532  1  0.354000  0.186400  0.551000  1.0
  C  C533  1  0.838300  0.819500  0.467200  1.0
  C  C534  1  0.628900  0.647700  0.467200  1.0
  C  C535  1  0.180500  0.371100  0.532800  1.0
  C  C536  1  0.352300  0.161700  0.532800  1.0
  C  C537  1  0.854900  0.785700  0.464800  1.0
  C  C538  1  0.609900  0.679100  0.464800  1.0
  C  C539  1  0.214300  0.390100  0.535200  1.0
  C  C540  1  0.320900  0.145100  0.535200  1.0
  C  C541  1  0.830500  0.768300  0.445200  1.0
  C  C542  1  0.614700  0.676900  0.445200  1.0
  C  C543  1  0.231700  0.385300  0.554800  1.0
  C  C544  1  0.323100  0.169500  0.554800  1.0
  C  C545  1  0.537900  0.781000  0.437000  1.0
  C  C546  1  0.899100  0.656000  0.437000  1.0
  C  C547  1  0.219000  0.100900  0.563000  1.0
  C  C548  1  0.344000  0.462100  0.563000  1.0
  C  C549  1  0.533100  0.799900  0.455600  1.0
  C  C550  1  0.922500  0.655700  0.455600  1.0
  C  C551  1  0.200100  0.077500  0.544400  1.0
  C  C552  1  0.344300  0.466900  0.544400  1.0
  C  C553  1  0.557700  0.831600  0.460000  1.0
  C  C554  1  0.902300  0.628400  0.460000  1.0
  C  C555  1  0.168400  0.097700  0.540000  1.0
  C  C556  1  0.371600  0.442300  0.540000  1.0
  C  C557  1  0.561700  0.813200  0.440200  1.0
  C  C558  1  0.878500  0.627000  0.440200  1.0
  C  C559  1  0.186800  0.121500  0.559800  1.0
  C  C560  1  0.373000  0.438300  0.559800  1.0
  C  C561  1  0.552800  0.787300  0.429200  1.0
  C  C562  1  0.876400  0.641900  0.429200  1.0
  C  C563  1  0.212700  0.123600  0.570800  1.0
  C  C564  1  0.358100  0.447200  0.570800  1.0
  C  C565  1  0.559000  0.767900  0.409400  1.0
  C  C566  1  0.850400  0.641500  0.409400  1.0
  C  C567  1  0.232100  0.149600  0.590600  1.0
  C  C568  1  0.358500  0.441000  0.590600  1.0
  C  C569  1  0.550900  0.741600  0.395800  1.0
  C  C570  1  0.844900  0.654200  0.395800  1.0
  C  C571  1  0.258400  0.155100  0.604200  1.0
  C  C572  1  0.345800  0.449100  0.604200  1.0
  C  C573  1  0.512900  0.711700  0.377800  1.0
  C  C574  1  0.864900  0.666100  0.377800  1.0
  C  C575  1  0.288300  0.135100  0.622200  1.0
  C  C576  1  0.333900  0.487100  0.622200  1.0
  C  C577  1  0.547500  0.686900  0.369000  1.0
  C  C578  1  0.821500  0.682100  0.369000  1.0
  C  C579  1  0.313100  0.178500  0.631000  1.0
  C  C580  1  0.317900  0.452500  0.631000  1.0
  C  C581  1  0.559300  0.728500  0.378200  1.0
  C  C582  1  0.818900  0.649700  0.378200  1.0
  C  C583  1  0.271500  0.181100  0.621800  1.0
  C  C584  1  0.350300  0.440700  0.621800  1.0
  C  C585  1  0.574300  0.744200  0.377800  1.0
  C  C586  1  0.803500  0.633600  0.377800  1.0
  C  C587  1  0.255800  0.196500  0.622200  1.0
  C  C588  1  0.366400  0.425700  0.622200  1.0
  C  C589  1  0.586000  0.736000  0.360800  1.0
  C  C590  1  0.774800  0.624800  0.360800  1.0
  C  C591  1  0.264000  0.225200  0.639200  1.0
  C  C592  1  0.375200  0.414000  0.639200  1.0
  C  C593  1  0.601600  0.754700  0.364000  1.0
  C  C594  1  0.762400  0.609300  0.364000  1.0
  C  C595  1  0.245300  0.237600  0.636000  1.0
  C  C596  1  0.390700  0.398400  0.636000  1.0
  C  C597  1  0.611600  0.747500  0.347600  1.0
  C  C598  1  0.736000  0.600100  0.347600  1.0
  C  C599  1  0.252500  0.264000  0.652400  1.0
  C  C600  1  0.399900  0.388400  0.652400  1.0
  C  C601  1  0.595000  0.704300  0.328200  1.0
  C  C602  1  0.733200  0.623900  0.328200  1.0
  C  C603  1  0.295700  0.266800  0.671800  1.0
  C  C604  1  0.376100  0.405000  0.671800  1.0
  C  C605  1  0.583400  0.710400  0.343000  1.0
  C  C606  1  0.759600  0.632600  0.343000  1.0
  C  C607  1  0.289600  0.240400  0.657000  1.0
  C  C608  1  0.367400  0.416600  0.657000  1.0
  C  C609  1  0.739800  0.869100  0.651000  1.0
  C  C610  1  0.911200  0.781900  0.651000  1.0
  C  C611  1  0.130900  0.088800  0.349000  1.0
  C  C612  1  0.218100  0.260200  0.349000  1.0
  C  C613  1  0.766100  0.879500  0.667200  1.0
  C  C614  1  0.901100  0.787700  0.667200  1.0
  C  C615  1  0.120500  0.098900  0.332800  1.0
  C  C616  1  0.212300  0.233900  0.332800  1.0
  C  C617  1  0.762400  0.905900  0.650600  1.0
  C  C618  1  0.888200  0.744700  0.650600  1.0
  C  C619  1  0.094100  0.111800  0.349400  1.0
  C  C620  1  0.255300  0.237600  0.349400  1.0
  C  C621  1  0.736100  0.896700  0.634800  1.0
  C  C622  1  0.898700  0.738100  0.634800  1.0
  C  C623  1  0.103300  0.101300  0.365200  1.0
  C  C624  1  0.261900  0.263900  0.365200  1.0
  C  C625  1  0.724100  0.876900  0.633400  1.0
  C  C626  1  0.909300  0.756500  0.633400  1.0
  C  C627  1  0.123100  0.090700  0.366600  1.0
  C  C628  1  0.243500  0.275900  0.366600  1.0
  C  C629  1  0.695500  0.866700  0.615600  1.0
  C  C630  1  0.920100  0.748900  0.615600  1.0
  C  C631  1  0.133300  0.079900  0.384400  1.0
  C  C632  1  0.251100  0.304500  0.384400  1.0
  C  C633  1  0.680600  0.847800  0.612400  1.0
  C  C634  1  0.931800  0.764600  0.612400  1.0
  C  C635  1  0.152200  0.068200  0.387600  1.0
  C  C636  1  0.235400  0.319400  0.387600  1.0
  C  C637  1  0.686000  0.835700  0.644400  1.0
  C  C638  1  0.958400  0.808700  0.644400  1.0
  C  C639  1  0.164300  0.041600  0.355600  1.0
  C  C640  1  0.191300  0.314000  0.355600  1.0
  C  C641  1  0.634500  0.800000  0.578000  1.0
  C  C642  1  0.943500  0.778000  0.578000  1.0
  C  C643  1  0.200000  0.056500  0.422000  1.0
  C  C644  1  0.222000  0.365500  0.422000  1.0
  C  C645  1  0.654500  0.842500  0.594400  1.0
  C  C646  1  0.939900  0.751900  0.594400  1.0
  C  C647  1  0.157500  0.060100  0.405600  1.0
  C  C648  1  0.248100  0.345500  0.405600  1.0
  C  C649  1  0.648300  0.857200  0.583200  1.0
  C  C650  1  0.934900  0.726000  0.583200  1.0
  C  C651  1  0.142800  0.065100  0.416800  1.0
  C  C652  1  0.274000  0.351700  0.416800  1.0
  C  C653  1  0.622100  0.856900  0.564200  1.0
  C  C654  1  0.942100  0.707300  0.564200  1.0
  C  C655  1  0.143100  0.057900  0.435800  1.0
  C  C656  1  0.292700  0.377900  0.435800  1.0
  C  C657  1  0.619200  0.872400  0.553800  1.0
  C  C658  1  0.934600  0.681400  0.553800  1.0
  C  C659  1  0.127600  0.065400  0.446200  1.0
  C  C660  1  0.318600  0.380800  0.446200  1.0
  C  C661  1  0.595200  0.872500  0.536400  1.0
  C  C662  1  0.941200  0.663900  0.536400  1.0
  C  C663  1  0.127500  0.058800  0.463600  1.0
  C  C664  1  0.336100  0.404800  0.463600  1.0
  C  C665  1  0.576000  0.840000  0.535400  1.0
  C  C666  1  0.959400  0.695400  0.535400  1.0
  C  C667  1  0.160000  0.040600  0.464600  1.0
  C  C668  1  0.304600  0.424000  0.464600  1.0
  C  C669  1  0.599700  0.839900  0.553800  1.0
  C  C670  1  0.954100  0.713900  0.553800  1.0
  C  C671  1  0.160100  0.045900  0.446200  1.0
  C  C672  1  0.286100  0.400300  0.446200  1.0
  C  C673  1  0.521200  0.890000  0.557600  1.0
  C  C674  1  0.036400  0.667600  0.557600  1.0
  C  C675  1  0.110000  0.963600  0.442400  1.0
  C  C676  1  0.332400  0.478800  0.442400  1.0
  C  C677  1  0.525000  0.872600  0.537000  1.0
  C  C678  1  0.012000  0.664400  0.537000  1.0
  C  C679  1  0.127400  0.988000  0.463000  1.0
  C  C680  1  0.335600  0.475000  0.463000  1.0
  C  C681  1  0.546900  0.905800  0.541000  1.0
  C  C682  1  0.994100  0.635200  0.541000  1.0
  C  C683  1  0.094200  0.005900  0.459000  1.0
  C  C684  1  0.364800  0.453100  0.459000  1.0
  C  C685  1  0.544700  0.923900  0.562600  1.0
  C  C686  1  0.017900  0.638700  0.562600  1.0
  C  C687  1  0.076100  0.982100  0.437400  1.0
  C  C688  1  0.361300  0.455300  0.437400  1.0
  C  C689  1  0.530500  0.916200  0.570400  1.0
  C  C690  1  0.039900  0.654200  0.570400  1.0
  C  C691  1  0.083800  0.960100  0.429600  1.0
  C  C692  1  0.345800  0.469500  0.429600  1.0
  C  C693  1  0.527700  0.936300  0.593400  1.0
  C  C694  1  0.065700  0.657100  0.593400  1.0
  C  C695  1  0.063700  0.934300  0.406600  1.0
  C  C696  1  0.342900  0.472300  0.406600  1.0
  C  C697  1  0.515100  0.932100  0.604200  1.0
  C  C698  1  0.089100  0.672100  0.604200  1.0
  C  C699  1  0.067900  0.910900  0.395800  1.0
  C  C700  1  0.327900  0.484900  0.395800  1.0
  C  C701  1  0.514800  0.896900  0.609600  1.0
  C  C702  1  0.094800  0.712700  0.609600  1.0
  C  C703  1  0.103100  0.905200  0.390400  1.0
  C  C704  1  0.287300  0.485200  0.390400  1.0
  C  C705  1  0.478100  0.950400  0.626800  1.0
  C  C706  1  0.148700  0.676400  0.626800  1.0
  C  C707  1  0.049600  0.851300  0.373200  1.0
  C  C708  1  0.323600  0.521900  0.373200  1.0
  C  C709  1  0.515100  0.954400  0.624800  1.0
  C  C710  1  0.109700  0.670400  0.624800  1.0
  C  C711  1  0.045600  0.890300  0.375200  1.0
  C  C712  1  0.329600  0.484900  0.375200  1.0
  C  C713  1  0.527600  0.976500  0.630400  1.0
  C  C714  1  0.102800  0.653900  0.630400  1.0
  C  C715  1  0.023500  0.897200  0.369600  1.0
  C  C716  1  0.346100  0.472400  0.369600  1.0
  C  C717  1  0.531000  0.003500  0.651400  1.0
  C  C718  1  0.120400  0.647900  0.651400  1.0
  C  C719  1  0.996500  0.879600  0.348600  1.0
  C  C720  1  0.352100  0.469000  0.348600  1.0
  C  C721  1  0.543500  0.023600  0.653600  1.0
  C  C722  1  0.110100  0.630000  0.653600  1.0
  C  C723  1  0.976400  0.889900  0.346400  1.0
  C  C724  1  0.370000  0.456500  0.346400  1.0
  C  C725  1  0.547700  0.048700  0.673600  1.0
  C  C726  1  0.125900  0.624900  0.673600  1.0
  C  C727  1  0.951300  0.874100  0.326400  1.0
  C  C728  1  0.375100  0.452300  0.326400  1.0
  C  C729  1  0.524700  0.035100  0.686800  1.0
  C  C730  1  0.162100  0.651700  0.686800  1.0
  C  C731  1  0.964900  0.837900  0.313200  1.0
  C  C732  1  0.348300  0.475300  0.313200  1.0
  C  C733  1  0.521000  0.009800  0.668000  1.0
  C  C734  1  0.147000  0.658200  0.668000  1.0
  C  C735  1  0.990200  0.853000  0.332000  1.0
  C  C736  1  0.341800  0.479000  0.332000  1.0
  C  C737  1  0.605900  0.094800  0.786800  1.0
  C  C738  1  0.180900  0.692000  0.786800  1.0
  C  C739  1  0.905200  0.819100  0.213200  1.0
  C  C740  1  0.308000  0.394100  0.213200  1.0
  C  C741  1  0.583000  0.090000  0.763200  1.0
  C  C742  1  0.180200  0.673200  0.763200  1.0
  C  C743  1  0.910000  0.819800  0.236800  1.0
  C  C744  1  0.326800  0.417000  0.236800  1.0
  C  C745  1  0.604200  0.100400  0.746600  1.0
  C  C746  1  0.142400  0.646200  0.746600  1.0
  C  C747  1  0.899600  0.857600  0.253400  1.0
  C  C748  1  0.353800  0.395800  0.253400  1.0
  C  C749  1  0.627700  0.104500  0.769400  1.0
  C  C750  1  0.141700  0.664900  0.769400  1.0
  C  C751  1  0.895500  0.858300  0.230600  1.0
  C  C752  1  0.335100  0.372300  0.230600  1.0
  C  C753  1  0.629100  0.103100  0.791000  1.0
  C  C754  1  0.161900  0.687900  0.791000  1.0
  C  C755  1  0.896900  0.838100  0.209000  1.0
  C  C756  1  0.312100  0.370900  0.209000  1.0
  C  C757  1  0.654700  0.108700  0.816000  1.0
  C  C758  1  0.161300  0.707300  0.816000  1.0
  C  C759  1  0.891300  0.838700  0.184000  1.0
  C  C760  1  0.292700  0.345300  0.184000  1.0
  C  C761  1  0.659500  0.107100  0.838400  1.0
  C  C762  1  0.178900  0.731300  0.838400  1.0
  C  C763  1  0.892900  0.821100  0.161600  1.0
  C  C764  1  0.268700  0.340500  0.161600  1.0
  C  C765  1  0.640400  0.085700  0.850400  1.0
  C  C766  1  0.210000  0.764700  0.850400  1.0
  C  C767  1  0.914300  0.790000  0.149600  1.0
  C  C768  1  0.235300  0.359600  0.149600  1.0
  C  C769  1  0.690300  0.127500  0.903000  1.0
  C  C770  1  0.212700  0.775500  0.903000  1.0
  C  C771  1  0.872500  0.787300  0.097000  1.0
  C  C772  1  0.224500  0.309700  0.097000  1.0
  C  C773  1  0.685300  0.113200  0.858400  1.0
  C  C774  1  0.173100  0.745200  0.858400  1.0
  C  C775  1  0.886800  0.826900  0.141600  1.0
  C  C776  1  0.254800  0.314700  0.141600  1.0
  C  C777  1  0.701300  0.119600  0.852000  1.0
  C  C778  1  0.150700  0.732400  0.852000  1.0
  C  C779  1  0.880400  0.849300  0.148000  1.0
  C  C780  1  0.267600  0.298700  0.148000  1.0
  C  C781  1  0.729900  0.126600  0.868800  1.0
  C  C782  1  0.138900  0.742200  0.868800  1.0
  C  C783  1  0.873400  0.861100  0.131200  1.0
  C  C784  1  0.257800  0.270100  0.131200  1.0
  C  C785  1  0.743100  0.133300  0.859600  1.0
  C  C786  1  0.116500  0.726300  0.859600  1.0
  C  C787  1  0.866700  0.883500  0.140400  1.0
  C  C788  1  0.273700  0.256900  0.140400  1.0
  C  C789  1  0.769400  0.139200  0.874400  1.0
  C  C790  1  0.105000  0.735200  0.874400  1.0
  C  C791  1  0.860800  0.895000  0.125600  1.0
  C  C792  1  0.264800  0.230600  0.125600  1.0
  C  C793  1  0.770900  0.135500  0.909400  1.0
  C  C794  1  0.138500  0.773900  0.909400  1.0
  C  C795  1  0.864500  0.861500  0.090600  1.0
  C  C796  1  0.226100  0.229100  0.090600  1.0
  C  C797  1  0.744400  0.128500  0.894600  1.0
  C  C798  1  0.150200  0.766100  0.894600  1.0
  C  C799  1  0.871500  0.849800  0.105400  1.0
  C  C800  1  0.233900  0.255600  0.105400  1.0
  C  C801  1  0.597500  0.293700  0.887800  1.0
  C  C802  1  0.290300  0.594100  0.887800  1.0
  C  C803  1  0.706300  0.709700  0.112200  1.0
  C  C804  1  0.405900  0.402500  0.112200  1.0
  C  C805  1  0.607300  0.319700  0.901200  1.0
  C  C806  1  0.293900  0.581500  0.901200  1.0
  C  C807  1  0.680300  0.706100  0.098800  1.0
  C  C808  1  0.418500  0.392700  0.098800  1.0
  C  C809  1  0.615300  0.312300  0.866800  1.0
  C  C810  1  0.251500  0.554500  0.866800  1.0
  C  C811  1  0.687700  0.748500  0.133200  1.0
  C  C812  1  0.445500  0.384700  0.133200  1.0
  C  C813  1  0.604900  0.286200  0.852200  1.0
  C  C814  1  0.247300  0.566000  0.852200  1.0
  C  C815  1  0.713800  0.752700  0.147800  1.0
  C  C816  1  0.434000  0.395100  0.147800  1.0
  C  C817  1  0.597000  0.276200  0.863400  1.0
  C  C818  1  0.266400  0.587200  0.863400  1.0
  C  C819  1  0.723800  0.733600  0.136600  1.0
  C  C820  1  0.412800  0.403000  0.136600  1.0
  C  C821  1  0.586400  0.247700  0.847600  1.0
  C  C822  1  0.261200  0.599900  0.847600  1.0
  C  C823  1  0.752300  0.738800  0.152400  1.0
  C  C824  1  0.400100  0.413600  0.152400  1.0
  C  C825  1  0.576700  0.234700  0.854800  1.0
  C  C826  1  0.278100  0.620100  0.854800  1.0
  C  C827  1  0.765300  0.721900  0.145200  1.0
  C  C828  1  0.379900  0.423300  0.145200  1.0
  C  C829  1  0.555400  0.256800  0.877600  1.0
  C  C830  1  0.322200  0.620800  0.877600  1.0
  C  C831  1  0.743200  0.677800  0.122400  1.0
  C  C832  1  0.379200  0.444600  0.122400  1.0
  C  C833  1  0.569100  0.190700  0.862200  1.0
  C  C834  1  0.293100  0.671500  0.862200  1.0
  C  C835  1  0.809300  0.706900  0.137800  1.0
  C  C836  1  0.328500  0.430900  0.137800  1.0
  C  C837  1  0.568300  0.208300  0.836000  1.0
  C  C838  1  0.267700  0.627700  0.836000  1.0
  C  C839  1  0.791700  0.732300  0.164000  1.0
  C  C840  1  0.372300  0.431700  0.164000  1.0
  C  C841  1  0.570700  0.200200  0.813400  1.0
  C  C842  1  0.242700  0.613200  0.813400  1.0
  C  C843  1  0.799800  0.757300  0.186600  1.0
  C  C844  1  0.386800  0.429300  0.186600  1.0
  C  C845  1  0.563200  0.173000  0.789400  1.0
  C  C846  1  0.226200  0.616400  0.789400  1.0
  C  C847  1  0.827000  0.773800  0.210600  1.0
  C  C848  1  0.383600  0.436800  0.210600  1.0
  C  C849  1  0.568700  0.168000  0.769200  1.0
  C  C850  1  0.200500  0.601200  0.769200  1.0
  C  C851  1  0.832000  0.799500  0.230800  1.0
  C  C852  1  0.398800  0.431300  0.230800  1.0
  C  C853  1  0.561500  0.143200  0.746600  1.0
  C  C854  1  0.185100  0.603400  0.746600  1.0
  C  C855  1  0.856800  0.814900  0.253400  1.0
  C  C856  1  0.396600  0.438500  0.253400  1.0
  C  C857  1  0.546800  0.127400  0.765000  1.0
  C  C858  1  0.218200  0.637600  0.765000  1.0
  C  C859  1  0.872600  0.781800  0.235000  1.0
  C  C860  1  0.362400  0.453200  0.235000  1.0
  C  C861  1  0.552900  0.151900  0.787400  1.0
  C  C862  1  0.234500  0.635500  0.787400  1.0
  C  C863  1  0.848100  0.765500  0.212600  1.0
  C  C864  1  0.364500  0.447100  0.212600  1.0
  C  C865  1  0.838100  0.422600  0.058600  1.0
  C  C866  1  0.220500  0.636000  0.058600  1.0
  C  C867  1  0.577400  0.779500  0.941400  1.0
  C  C868  1  0.364000  0.161900  0.941400  1.0
  C  C869  1  0.862600  0.423600  0.065200  1.0
  C  C870  1  0.202600  0.641600  0.065200  1.0
  C  C871  1  0.576400  0.797400  0.934800  1.0
  C  C872  1  0.358400  0.137400  0.934800  1.0
  C  C873  1  0.847400  0.400300  0.016600  1.0
  C  C874  1  0.169200  0.616300  0.016600  1.0
  C  C875  1  0.599700  0.830800  0.983400  1.0
  C  C876  1  0.383700  0.152600  0.983400  1.0
  C  C877  1  0.822400  0.397500  0.009000  1.0
  C  C878  1  0.186600  0.611500  0.009000  1.0
  C  C879  1  0.602500  0.813400  0.991000  1.0
  C  C880  1  0.388500  0.177600  0.991000  1.0
  C  C881  1  0.817300  0.410200  0.030000  1.0
  C  C882  1  0.212700  0.619800  0.030000  1.0
  C  C883  1  0.589800  0.787300  0.970000  1.0
  C  C884  1  0.380200  0.182700  0.970000  1.0
  C  C885  1  0.790100  0.407500  0.021200  1.0
  C  C886  1  0.231100  0.613700  0.021200  1.0
  C  C887  1  0.592500  0.768900  0.978800  1.0
  C  C888  1  0.386300  0.209900  0.978800  1.0
  C  C889  1  0.781580  0.417880  0.039160  1.0
  C  C890  1  0.257580  0.621280  0.039160  1.0
  C  C891  1  0.582120  0.742420  0.960840  1.0
  C  C892  1  0.378720  0.218420  0.960840  1.0
  C  C893  1  0.812400  0.456200  0.084800  1.0
  C  C894  1  0.272400  0.628600  0.084800  1.0
  C  C895  1  0.543800  0.727600  0.915200  1.0
  C  C896  1  0.371400  0.187600  0.915200  1.0
  C  C897  1  0.744200  0.415900  0.056800  1.0
  C  C898  1  0.312600  0.640900  0.056800  1.0
  C  C899  1  0.584100  0.687400  0.943200  1.0
  C  C900  1  0.359100  0.255800  0.943200  1.0
  C  C901  1  0.755300  0.412700  0.024800  1.0
  C  C902  1  0.269500  0.612100  0.024800  1.0
  C  C903  1  0.587300  0.730500  0.975200  1.0
  C  C904  1  0.387900  0.244700  0.975200  1.0
  C  C905  1  0.742600  0.398600  0.995400  1.0
  C  C906  1  0.252800  0.596800  0.995400  1.0
  C  C907  1  0.601400  0.747200  0.004600  1.0
  C  C908  1  0.403200  0.257400  0.004600  1.0
  C  C909  1  0.714300  0.389800  0.973800  1.0
  C  C910  1  0.259500  0.584000  0.973800  1.0
  C  C911  1  0.610200  0.740500  0.026200  1.0
  C  C912  1  0.416000  0.285700  0.026200  1.0
  C  C913  1  0.704700  0.376300  0.944600  1.0
  C  C914  1  0.239900  0.568300  0.944600  1.0
  C  C915  1  0.623700  0.760100  0.055400  1.0
  C  C916  1  0.431700  0.295300  0.055400  1.0
  C  C917  1  0.678700  0.367200  0.924400  1.0
  C  C918  1  0.245700  0.557200  0.924400  1.0
  C  C919  1  0.632800  0.754300  0.075600  1.0
  C  C920  1  0.442800  0.321300  0.075600  1.0
  C  C921  1  0.670900  0.387200  0.960400  1.0
  C  C922  1  0.289500  0.573200  0.960400  1.0
  C  C923  1  0.612800  0.710500  0.039600  1.0
  C  C924  1  0.426800  0.329100  0.039600  1.0
  C  C925  1  0.696800  0.395900  0.981400  1.0
  C  C926  1  0.284600  0.585500  0.981400  1.0
  C  C927  1  0.604100  0.715400  0.018600  1.0
  C  C928  1  0.414500  0.303200  0.018600  1.0
  C  C929  1  0.838800  0.212900  0.985400  1.0
  C  C930  1  0.146600  0.772500  0.985400  1.0
  C  C931  1  0.787100  0.853400  0.014600  1.0
  C  C932  1  0.227500  0.161200  0.014600  1.0
  C  C933  1  0.828100  0.186800  0.965000  1.0
  C  C934  1  0.136900  0.778200  0.965000  1.0
  C  C935  1  0.813200  0.863100  0.035000  1.0
  C  C936  1  0.221800  0.171900  0.035000  1.0
  C  C937  1  0.823900  0.192600  0.930200  1.0
  C  C938  1  0.106300  0.737600  0.930200  1.0
  C  C939  1  0.807400  0.893700  0.069800  1.0
  C  C940  1  0.262400  0.176100  0.069800  1.0
  C  C941  1  0.835300  0.218600  0.950000  1.0
  C  C942  1  0.114700  0.731400  0.950000  1.0
  C  C943  1  0.781400  0.885300  0.050000  1.0
  C  C944  1  0.268600  0.164700  0.050000  1.0
  C  C945  1  0.842100  0.229500  0.978000  1.0
  C  C946  1  0.135900  0.748500  0.978000  1.0
  C  C947  1  0.770500  0.864100  0.022000  1.0
  C  C948  1  0.251500  0.157900  0.022000  1.0
  C  C949  1  0.854000  0.258000  0.999200  1.0
  C  C950  1  0.145200  0.741200  0.999200  1.0
  C  C951  1  0.742000  0.854800  0.000800  1.0
  C  C952  1  0.258800  0.146000  0.000800  1.0
  C  C953  1  0.862200  0.271800  0.027600  1.0
  C  C954  1  0.165400  0.755800  0.027600  1.0
  C  C955  1  0.728200  0.834600  0.972400  1.0
  C  C956  1  0.244200  0.137800  0.972400  1.0
  C  C957  1  0.879300  0.263800  0.064600  1.0
  C  C958  1  0.185300  0.800800  0.064600  1.0
  C  C959  1  0.736200  0.814700  0.935400  1.0
  C  C960  1  0.199200  0.120700  0.935400  1.0
  C  C961  1  0.865500  0.326400  0.078800  1.0
  C  C962  1  0.213300  0.752400  0.078800  1.0
  C  C963  1  0.673600  0.786700  0.921200  1.0
  C  C964  1  0.247600  0.134500  0.921200  1.0
  C  C965  1  0.871900  0.298000  0.041600  1.0
  C  C966  1  0.169700  0.743600  0.041600  1.0
  C  C967  1  0.702000  0.830300  0.958400  1.0
  C  C968  1  0.256400  0.128100  0.958400  1.0
  C  C969  1  0.871800  0.305200  0.024400  1.0
  C  C970  1  0.152600  0.719200  0.024400  1.0
  C  C971  1  0.694800  0.847400  0.975600  1.0
  C  C972  1  0.280800  0.128200  0.975600  1.0
  C  C973  1  0.881100  0.331900  0.033000  1.0
  C  C974  1  0.151900  0.701100  0.033000  1.0
  C  C975  1  0.668100  0.848100  0.967000  1.0
  C  C976  1  0.298900  0.118900  0.967000  1.0
  C  C977  1  0.880400  0.335800  0.013200  1.0
  C  C978  1  0.132800  0.677400  0.013200  1.0
  C  C979  1  0.664200  0.867200  0.986800  1.0
  C  C980  1  0.322600  0.119600  0.986800  1.0
  C  C981  1  0.888000  0.360200  0.020400  1.0
  C  C982  1  0.132400  0.660200  0.020400  1.0
  C  C983  1  0.639800  0.867600  0.979600  1.0
  C  C984  1  0.339800  0.112000  0.979600  1.0
  C  C985  1  0.900500  0.377500  0.067400  1.0
  C  C986  1  0.166900  0.689900  0.067400  1.0
  C  C987  1  0.622500  0.833100  0.932600  1.0
  C  C988  1  0.310100  0.099500  0.932600  1.0
  C  C989  1  0.892000  0.353500  0.060800  1.0
  C  C990  1  0.168800  0.707300  0.060800  1.0
  C  C991  1  0.646500  0.831200  0.939200  1.0
  C  C992  1  0.292700  0.108000  0.939200  1.0
  C  C993  1  0.978400  0.437400  0.098200  1.0
  C  C994  1  0.119800  0.660800  0.098200  1.0
  C  C995  1  0.562600  0.880200  0.901800  1.0
  C  C996  1  0.339200  0.021600  0.901800  1.0
  C  C997  1  0.953100  0.435400  0.088800  1.0
  C  C998  1  0.135700  0.653400  0.088800  1.0
  C  C999  1  0.564600  0.864300  0.911200  1.0
  C  C1000  1  0.346600  0.046900  0.911200  1.0
  C  C1001  1  0.940400  0.410500  0.041000  1.0
  C  C1002  1  0.100600  0.630500  0.041000  1.0
  C  C1003  1  0.589500  0.899400  0.959000  1.0
  C  C1004  1  0.369500  0.059600  0.959000  1.0
  C  C1005  1  0.965600  0.413800  0.049600  1.0
  C  C1006  1  0.084000  0.635800  0.049600  1.0
  C  C1007  1  0.586200  0.916000  0.950400  1.0
  C  C1008  1  0.364200  0.034400  0.950400  1.0
  C  C1009  1  0.985100  0.425500  0.078400  1.0
  C  C1010  1  0.093300  0.652900  0.078400  1.0
  C  C1011  1  0.574500  0.906700  0.921600  1.0
  C  C1012  1  0.347100  0.014900  0.921600  1.0
  C  C1013  1  0.012300  0.427100  0.087200  1.0
  C  C1014  1  0.074900  0.660100  0.087200  1.0
  C  C1015  1  0.572900  0.925100  0.912800  1.0
  C  C1016  1  0.339900  0.987700  0.912800  1.0
  C  C1017  1  0.033900  0.439600  0.114800  1.0
  C  C1018  1  0.080900  0.675200  0.114800  1.0
  C  C1019  1  0.560400  0.919100  0.885200  1.0
  C  C1020  1  0.324800  0.966100  0.885200  1.0
  C  C1021  1  0.035100  0.443400  0.154200  1.0
  C  C1022  1  0.119100  0.710800  0.154200  1.0
  C  C1023  1  0.556600  0.880900  0.845800  1.0
  C  C1024  1  0.289200  0.964900  0.845800  1.0
  C  C1025  1  0.088400  0.471500  0.164800  1.0
  C  C1026  1  0.076400  0.693300  0.164800  1.0
  C  C1027  1  0.528500  0.923600  0.835200  1.0
  C  C1028  1  0.306700  0.911600  0.835200  1.0
  C  C1029  1  0.056380  0.437480  0.115960  1.0
  C  C1030  1  0.059580  0.678480  0.115960  1.0
  C  C1031  1  0.562520  0.940420  0.884040  1.0
  C  C1032  1  0.321520  0.943620  0.884040  1.0
  C  C1033  1  0.052800  0.423600  0.089400  1.0
  C  C1034  1  0.036600  0.665800  0.089400  1.0
  C  C1035  1  0.576400  0.963400  0.910600  1.0
  C  C1036  1  0.334200  0.947200  0.910600  1.0
  C  C1037  1  0.073100  0.418700  0.083400  1.0
  C  C1038  1  0.010300  0.664700  0.083400  1.0
  C  C1039  1  0.581300  0.989700  0.916600  1.0
  C  C1040  1  0.335300  0.926900  0.916600  1.0
  C  C1041  1  0.066000  0.403600  0.055200  1.0
  C  C1042  1  0.989200  0.651600  0.055200  1.0
  C  C1043  1  0.596400  0.010800  0.944800  1.0
  C  C1044  1  0.348400  0.934000  0.944800  1.0
  C  C1045  1  0.084500  0.398600  0.049200  1.0
  C  C1046  1  0.964700  0.650600  0.049200  1.0
  C  C1047  1  0.601400  0.035300  0.950800  1.0
  C  C1048  1  0.349400  0.915500  0.950800  1.0
  C  C1049  1  0.116800  0.421000  0.098000  1.0
  C  C1050  1  0.981200  0.677000  0.098000  1.0
  C  C1051  1  0.579000  0.018800  0.902000  1.0
  C  C1052  1  0.323000  0.883200  0.902000  1.0
  C  C1053  1  0.099100  0.427000  0.105000  1.0
  C  C1054  1  0.005900  0.678000  0.105000  1.0
  C  C1055  1  0.573000  0.994100  0.895000  1.0
  C  C1056  1  0.322000  0.900900  0.895000  1.0
  C  C1057  1  0.132300  0.337200  0.050000  1.0
  C  C1058  1  0.917700  0.712800  0.050000  1.0
  C  C1059  1  0.662800  0.082300  0.950000  1.0
  C  C1060  1  0.287200  0.867700  0.950000  1.0
  C  C1061  1  0.132700  0.361500  0.056000  1.0
  C  C1062  1  0.923300  0.694500  0.056000  1.0
  C  C1063  1  0.638500  0.076700  0.944000  1.0
  C  C1064  1  0.305500  0.867300  0.944000  1.0
  C  C1065  1  0.095700  0.344600  0.010400  1.0
  C  C1066  1  0.914700  0.665800  0.010400  1.0
  C  C1067  1  0.655400  0.085300  0.989600  1.0
  C  C1068  1  0.334200  0.904300  0.989600  1.0
  C  C1069  1  0.095300  0.320000  0.003200  1.0
  C  C1070  1  0.907900  0.683200  0.003200  1.0
  C  C1071  1  0.680000  0.092100  0.996800  1.0
  C  C1072  1  0.316800  0.904700  0.996800  1.0
  C  C1073  1  0.113000  0.315800  0.023600  1.0
  C  C1074  1  0.910600  0.707800  0.023600  1.0
  C  C1075  1  0.684200  0.089400  0.976400  1.0
  C  C1076  1  0.292200  0.887000  0.976400  1.0
  C  C1077  1  0.111600  0.288800  0.015400  1.0
  C  C1078  1  0.903800  0.726600  0.015400  1.0
  C  C1079  1  0.711200  0.096200  0.984600  1.0
  C  C1080  1  0.273400  0.888400  0.984600  1.0
  C  C1081  1  0.128300  0.281300  0.032400  1.0
  C  C1082  1  0.904100  0.751100  0.032400  1.0
  C  C1083  1  0.718700  0.095900  0.967600  1.0
  C  C1084  1  0.248900  0.871700  0.967600  1.0
  C  C1085  1  0.149500  0.303700  0.083400  1.0
  C  C1086  1  0.933900  0.779700  0.083400  1.0
  C  C1087  1  0.696300  0.066100  0.916600  1.0
  C  C1088  1  0.220300  0.850500  0.916600  1.0
  C  C1089  1  0.160500  0.245900  0.042800  1.0
  C  C1090  1  0.882300  0.796900  0.042800  1.0
  C  C1091  1  0.754100  0.117700  0.957200  1.0
  C  C1092  1  0.203100  0.839500  0.957200  1.0
  C  C1093  1  0.121800  0.254900  0.019200  1.0
  C  C1094  1  0.897400  0.764300  0.019200  1.0
  C  C1095  1  0.745100  0.102600  0.980800  1.0
  C  C1096  1  0.235700  0.878200  0.980800  1.0
  C  C1097  1  0.100200  0.241300  0.991400  1.0
  C  C1098  1  0.891200  0.750100  0.991400  1.0
  C  C1099  1  0.758700  0.108800  0.008600  1.0
  C  C1100  1  0.249900  0.899800  0.008600  1.0
  C  C1101  1  0.088000  0.212900  0.971800  1.0
  C  C1102  1  0.883800  0.758900  0.971800  1.0
  C  C1103  1  0.787100  0.116200  0.028200  1.0
  C  C1104  1  0.241100  0.912000  0.028200  1.0
  C  C1105  1  0.066600  0.202200  0.943800  1.0
  C  C1106  1  0.877200  0.741600  0.943800  1.0
  C  C1107  1  0.797800  0.122800  0.056200  1.0
  C  C1108  1  0.258400  0.933400  0.056200  1.0
  C  C1109  1  0.054600  0.176100  0.925600  1.0
  C  C1110  1  0.871000  0.749500  0.925600  1.0
  C  C1111  1  0.823900  0.129000  0.074400  1.0
  C  C1112  1  0.250500  0.945400  0.074400  1.0
  C  C1113  1  0.086000  0.169900  0.959600  1.0
  C  C1114  1  0.873600  0.789700  0.959600  1.0
  C  C1115  1  0.830100  0.126400  0.040400  1.0
  C  C1116  1  0.210300  0.914000  0.040400  1.0
  C  C1117  1  0.097900  0.195900  0.979000  1.0
  C  C1118  1  0.881100  0.783100  0.979000  1.0
  C  C1119  1  0.804100  0.118900  0.021000  1.0
  C  C1120  1  0.216900  0.902100  0.021000  1.0
  C  C1121  1  0.256200  0.347700  0.976800  1.0
  C  C1122  1  0.720600  0.629100  0.976800  1.0
  C  C1123  1  0.652300  0.279400  0.023200  1.0
  C  C1124  1  0.370900  0.743800  0.023200  1.0
  C  C1125  1  0.263100  0.337700  0.957400  1.0
  C  C1126  1  0.694300  0.619700  0.957400  1.0
  C  C1127  1  0.662300  0.305700  0.042600  1.0
  C  C1128  1  0.380300  0.736900  0.042600  1.0
  C  C1129  1  0.220600  0.323600  0.919200  1.0
  C  C1130  1  0.698600  0.595600  0.919200  1.0
  C  C1131  1  0.676400  0.301400  0.080800  1.0
  C  C1132  1  0.404400  0.779400  0.080800  1.0
  C  C1133  1  0.212600  0.332800  0.937600  1.0
  C  C1134  1  0.725000  0.604800  0.937600  1.0
  C  C1135  1  0.667200  0.275000  0.062400  1.0
  C  C1136  1  0.395200  0.787400  0.062400  1.0
  C  C1137  1  0.230500  0.345700  0.967200  1.0
  C  C1138  1  0.736700  0.621500  0.967200  1.0
  C  C1139  1  0.654300  0.263300  0.032800  1.0
  C  C1140  1  0.378500  0.769500  0.032800  1.0
  C  C1141  1  0.221900  0.357800  0.987000  1.0
  C  C1142  1  0.765100  0.629200  0.987000  1.0
  C  C1143  1  0.642200  0.234900  0.013000  1.0
  C  C1144  1  0.370800  0.778100  0.013000  1.0
  C  C1145  1  0.236600  0.369700  0.016400  1.0
  C  C1146  1  0.779800  0.646700  0.016400  1.0
  C  C1147  1  0.630300  0.220200  0.983600  1.0
  C  C1148  1  0.353300  0.763400  0.983600  1.0
  C  C1149  1  0.280400  0.396200  0.054600  1.0
  C  C1150  1  0.774200  0.658400  0.054600  1.0
  C  C1151  1  0.603800  0.225800  0.945400  1.0
  C  C1152  1  0.341600  0.719600  0.945400  1.0
  C  C1153  1  0.225400  0.381500  0.068800  1.0
  C  C1154  1  0.843400  0.687300  0.068800  1.0
  C  C1155  1  0.618500  0.156600  0.931200  1.0
  C  C1156  1  0.312700  0.774600  0.931200  1.0
  C  C1157  1  0.222930  0.377930  0.028860  1.0
  C  C1158  1  0.805930  0.650930  0.028860  1.0
  C  C1159  1  0.622070  0.194070  0.971140  1.0
  C  C1160  1  0.349070  0.777070  0.971140  1.0
  C  C1161  1  0.197000  0.371200  0.009400  1.0
  C  C1162  1  0.812400  0.638200  0.009400  1.0
  C  C1163  1  0.628800  0.187600  0.990600  1.0
  C  C1164  1  0.361800  0.803000  0.990600  1.0
  C  C1165  1  0.177000  0.376600  0.015800  1.0
  C  C1166  1  0.838800  0.639200  0.015800  1.0
  C  C1167  1  0.623400  0.161200  0.984200  1.0
  C  C1168  1  0.360800  0.823000  0.984200  1.0
  C  C1169  1  0.151700  0.369800  0.993600  1.0
  C  C1170  1  0.841900  0.623800  0.993600  1.0
  C  C1171  1  0.630200  0.158100  0.006400  1.0
  C  C1172  1  0.376200  0.848300  0.006400  1.0
  C  C1173  1  0.132800  0.373400  0.998800  1.0
  C  C1174  1  0.866000  0.625400  0.998800  1.0
  C  C1175  1  0.626600  0.134000  0.001200  1.0
  C  C1176  1  0.374600  0.867200  0.001200  1.0
  C  C1177  1  0.163300  0.394000  0.048000  1.0
  C  C1178  1  0.884700  0.654000  0.048000  1.0
  C  C1179  1  0.606000  0.115300  0.952000  1.0
  C  C1180  1  0.346000  0.836700  0.952000  1.0
  C  C1181  1  0.182600  0.389800  0.043600  1.0
  C  C1182  1  0.861000  0.653800  0.043600  1.0
  C  C1183  1  0.610200  0.139000  0.956400  1.0
  C  C1184  1  0.346200  0.817400  0.956400  1.0
  C  C1185  1  0.201200  0.103500  0.783800  1.0
  C  C1186  1  0.582600  0.680300  0.783800  1.0
  C  C1187  1  0.896500  0.417400  0.216200  1.0
  C  C1188  1  0.319700  0.798800  0.216200  1.0
  C  C1189  1  0.182600  0.079700  0.764200  1.0
  C  C1190  1  0.581600  0.684500  0.764200  1.0
  C  C1191  1  0.920300  0.418400  0.235800  1.0
  C  C1192  1  0.315500  0.817400  0.235800  1.0
  C  C1193  1  0.150200  0.098900  0.759400  1.0
  C  C1194  1  0.609200  0.660500  0.759400  1.0
  C  C1195  1  0.901100  0.390800  0.240600  1.0
  C  C1196  1  0.339500  0.849800  0.240600  1.0
  C  C1197  1  0.168000  0.123000  0.777800  1.0
  C  C1198  1  0.609800  0.654800  0.777800  1.0
  C  C1199  1  0.877000  0.390200  0.222200  1.0
  C  C1200  1  0.345200  0.832000  0.222200  1.0
  C  C1201  1  0.194200  0.125800  0.791600  1.0
  C  C1202  1  0.597400  0.665800  0.791600  1.0
  C  C1203  1  0.874200  0.402600  0.208400  1.0
  C  C1204  1  0.334200  0.805800  0.208400  1.0
  C  C1205  1  0.213200  0.152100  0.812600  1.0
  C  C1206  1  0.599400  0.660500  0.812600  1.0
  C  C1207  1  0.847900  0.400600  0.187400  1.0
  C  C1208  1  0.339500  0.786800  0.187400  1.0
  C  C1209  1  0.239600  0.158300  0.827200  1.0
  C  C1210  1  0.587600  0.668900  0.827200  1.0
  C  C1211  1  0.841700  0.412400  0.172800  1.0
  C  C1212  1  0.331100  0.760400  0.172800  1.0
  C  C1213  1  0.252300  0.125400  0.800200  1.0
  C  C1214  1  0.547900  0.674800  0.800200  1.0
  C  C1215  1  0.874600  0.452100  0.199800  1.0
  C  C1216  1  0.325200  0.747700  0.199800  1.0
  C  C1217  1  0.294900  0.191100  0.880800  1.0
  C  C1218  1  0.585900  0.689700  0.880800  1.0
  C  C1219  1  0.808900  0.414100  0.119200  1.0
  C  C1220  1  0.310300  0.705100  0.119200  1.0
  C  C1221  1  0.252200  0.184400  0.844600  1.0
  C  C1222  1  0.592400  0.660200  0.844600  1.0
  C  C1223  1  0.815600  0.407600  0.155400  1.0
  C  C1224  1  0.339800  0.747800  0.155400  1.0
  C  C1225  1  0.236000  0.199200  0.844800  1.0
  C  C1226  1  0.608800  0.645600  0.844800  1.0
  C  C1227  1  0.800800  0.391200  0.155200  1.0
  C  C1228  1  0.354400  0.764000  0.155200  1.0
  C  C1229  1  0.243500  0.227800  0.861800  1.0
  C  C1230  1  0.618300  0.634000  0.861800  1.0
  C  C1231  1  0.772200  0.381700  0.138200  1.0
  C  C1232  1  0.366000  0.756500  0.138200  1.0
  C  C1233  1  0.224600  0.239900  0.859600  1.0
  C  C1234  1  0.635000  0.619700  0.859600  1.0
  C  C1235  1  0.760100  0.365000  0.140400  1.0
  C  C1236  1  0.380300  0.775400  0.140400  1.0
  C  C1237  1  0.231000  0.266200  0.874800  1.0
  C  C1238  1  0.643800  0.608600  0.874800  1.0
  C  C1239  1  0.733800  0.356200  0.125200  1.0
  C  C1240  1  0.391400  0.769000  0.125200  1.0
  C  C1241  1  0.274600  0.270000  0.895200  1.0
  C  C1242  1  0.620600  0.625200  0.895200  1.0
  C  C1243  1  0.730000  0.379400  0.104800  1.0
  C  C1244  1  0.374800  0.725400  0.104800  1.0
  C  C1245  1  0.310200  0.309300  0.880800  1.0
  C  C1246  1  0.570600  0.571500  0.880800  1.0
  C  C1247  1  0.690700  0.429400  0.119200  1.0
  C  C1248  1  0.428500  0.689800  0.119200  1.0
  C  C1249  1  0.302400  0.312700  0.898600  1.0
  C  C1250  1  0.596200  0.585900  0.898600  1.0
  C  C1251  1  0.687300  0.403800  0.101400  1.0
  C  C1252  1  0.414100  0.697600  0.101400  1.0
  C  C1253  1  0.264400  0.317800  0.870200  1.0
  C  C1254  1  0.605800  0.552400  0.870200  1.0
  C  C1255  1  0.682200  0.394200  0.129800  1.0
  C  C1256  1  0.447600  0.735600  0.129800  1.0
  C  C1257  1  0.271900  0.315600  0.852600  1.0
  C  C1258  1  0.580700  0.537000  0.852600  1.0
  C  C1259  1  0.684400  0.419300  0.147400  1.0
  C  C1260  1  0.463000  0.728100  0.147400  1.0
  C  C1261  1  0.294500  0.309800  0.856600  1.0
  C  C1262  1  0.562100  0.546800  0.856600  1.0
  C  C1263  1  0.690200  0.437900  0.143400  1.0
  C  C1264  1  0.453200  0.705500  0.143400  1.0
  C  C1265  1  0.302000  0.306700  0.836800  1.0
  C  C1266  1  0.534800  0.530100  0.836800  1.0
  C  C1267  1  0.693300  0.465200  0.163200  1.0
  C  C1268  1  0.469900  0.698000  0.163200  1.0
  C  C1269  1  0.324000  0.302100  0.838400  1.0
  C  C1270  1  0.514400  0.536300  0.838400  1.0
  C  C1271  1  0.697900  0.485600  0.161600  1.0
  C  C1272  1  0.463700  0.676000  0.161600  1.0
  C  C1273  1  0.351300  0.279700  0.855200  1.0
  C  C1274  1  0.503900  0.575500  0.855200  1.0
  C  C1275  1  0.720300  0.496100  0.144800  1.0
  C  C1276  1  0.424500  0.648700  0.144800  1.0
  C  C1277  1  0.368900  0.312500  0.831000  1.0
  C  C1278  1  0.462100  0.518500  0.831000  1.0
  C  C1279  1  0.687500  0.537900  0.169000  1.0
  C  C1280  1  0.481500  0.631100  0.169000  1.0
  C  C1281  1  0.325500  0.300000  0.816800  1.0
  C  C1282  1  0.491300  0.516800  0.816800  1.0
  C  C1283  1  0.700000  0.508700  0.183200  1.0
  C  C1284  1  0.483200  0.674500  0.183200  1.0
  C  C1285  1  0.304700  0.302900  0.797800  1.0
  C  C1286  1  0.493100  0.494900  0.797800  1.0
  C  C1287  1  0.697100  0.506900  0.202200  1.0
  C  C1288  1  0.505100  0.695300  0.202200  1.0
  C  C1289  1  0.300900  0.302800  0.773000  1.0
  C  C1290  1  0.472100  0.470200  0.773000  1.0
  C  C1291  1  0.697200  0.527900  0.227000  1.0
  C  C1292  1  0.529800  0.699100  0.227000  1.0
  C  C1293  1  0.279300  0.307700  0.757000  1.0
  C  C1294  1  0.477700  0.449300  0.757000  1.0
  C  C1295  1  0.692300  0.522300  0.243000  1.0
  C  C1296  1  0.550700  0.720700  0.243000  1.0
  C  C1297  1  0.275100  0.306900  0.733400  1.0
  C  C1298  1  0.458300  0.426500  0.733400  1.0
  C  C1299  1  0.693100  0.541700  0.266600  1.0
  C  C1300  1  0.573500  0.724900  0.266600  1.0
  C  C1301  1  0.314200  0.299600  0.742600  1.0
  C  C1302  1  0.428400  0.443000  0.742600  1.0
  C  C1303  1  0.700400  0.571600  0.257400  1.0
  C  C1304  1  0.557000  0.685800  0.257400  1.0
  C  C1305  1  0.318900  0.299600  0.765800  1.0
  C  C1306  1  0.446900  0.466200  0.765800  1.0
  C  C1307  1  0.700400  0.553100  0.234200  1.0
  C  C1308  1  0.533800  0.681100  0.234200  1.0
  C  C1309  1  0.175400  0.025000  0.561800  1.0
  C  C1310  1  0.386400  0.536800  0.561800  1.0
  C  C1311  1  0.975000  0.613600  0.438200  1.0
  C  C1312  1  0.463200  0.824600  0.438200  1.0
  C  C1313  1  0.172000  0.027100  0.540200  1.0
  C  C1314  1  0.368200  0.513100  0.540200  1.0
  C  C1315  1  0.972900  0.631800  0.459800  1.0
  C  C1316  1  0.486900  0.828000  0.459800  1.0
  C  C1317  1  0.138800  0.044500  0.538400  1.0
  C  C1318  1  0.399600  0.493900  0.538400  1.0
  C  C1319  1  0.955500  0.600400  0.461600  1.0
  C  C1320  1  0.506100  0.861200  0.461600  1.0
  C  C1321  1  0.142500  0.044100  0.561200  1.0
  C  C1322  1  0.418700  0.517100  0.561200  1.0
  C  C1323  1  0.955900  0.581300  0.438800  1.0
  C  C1324  1  0.482900  0.857500  0.438800  1.0
  C  C1325  1  0.160200  0.033200  0.572600  1.0
  C  C1326  1  0.412400  0.539400  0.572600  1.0
  C  C1327  1  0.966800  0.587600  0.427400  1.0
  C  C1328  1  0.460600  0.839800  0.427400  1.0
  C  C1329  1  0.163300  0.032300  0.596600  1.0
  C  C1330  1  0.433300  0.564300  0.596600  1.0
  C  C1331  1  0.967700  0.566700  0.403400  1.0
  C  C1332  1  0.435700  0.836700  0.403400  1.0
  C  C1333  1  0.180000  0.022400  0.610400  1.0
  C  C1334  1  0.430400  0.588000  0.610400  1.0
  C  C1335  1  0.977600  0.569600  0.389600  1.0
  C  C1336  1  0.412000  0.820000  0.389600  1.0
  C  C1337  1  0.221100  0.027400  0.616800  1.0
  C  C1338  1  0.395700  0.589400  0.616800  1.0
  C  C1339  1  0.972600  0.604300  0.383200  1.0
  C  C1340  1  0.410600  0.778900  0.383200  1.0
  C  C1341  1  0.187900  0.989200  0.637800  1.0
  C  C1342  1  0.449900  0.648600  0.637800  1.0
  C  C1343  1  0.010800  0.550100  0.362200  1.0
  C  C1344  1  0.351400  0.812100  0.362200  1.0
  C  C1345  1  0.177600  0.023000  0.631000  1.0
  C  C1346  1  0.453400  0.608000  0.631000  1.0
  C  C1347  1  0.977000  0.546600  0.369000  1.0
  C  C1348  1  0.392000  0.822400  0.369000  1.0
  C  C1349  1  0.159000  0.033400  0.633600  1.0
  C  C1350  1  0.474600  0.600200  0.633600  1.0
  C  C1351  1  0.966600  0.525400  0.366400  1.0
  C  C1352  1  0.399800  0.841000  0.366400  1.0
  C  C1353  1  0.151700  0.036700  0.653600  1.0
  C  C1354  1  0.501900  0.616900  0.653600  1.0
  C  C1355  1  0.963300  0.498100  0.346400  1.0
  C  C1356  1  0.383100  0.848300  0.346400  1.0
  C  C1357  1  0.131700  0.046800  0.652800  1.0
  C  C1358  1  0.521100  0.606000  0.652800  1.0
  C  C1359  1  0.953200  0.478900  0.347200  1.0
  C  C1360  1  0.394000  0.868300  0.347200  1.0
  C  C1361  1  0.125300  0.050800  0.671800  1.0
  C  C1362  1  0.546500  0.621000  0.671800  1.0
  C  C1363  1  0.949200  0.453500  0.328200  1.0
  C  C1364  1  0.379000  0.874700  0.328200  1.0
  C  C1365  1  0.155000  0.032200  0.690000  1.0
  C  C1366  1  0.535000  0.657800  0.690000  1.0
  C  C1367  1  0.967800  0.465000  0.310000  1.0
  C  C1368  1  0.342200  0.845000  0.310000  1.0
  C  C1369  1  0.162900  0.028900  0.672400  1.0
  C  C1370  1  0.509500  0.643500  0.672400  1.0
  C  C1371  1  0.971100  0.490500  0.327600  1.0
  C  C1372  1  0.356500  0.837100  0.327600  1.0
  C  C1373  1  0.914200  0.800100  0.441400  1.0
  C  C1374  1  0.527200  0.641300  0.441400  1.0
  C  C1375  1  0.199900  0.472800  0.558600  1.0
  C  C1376  1  0.358700  0.085800  0.558600  1.0
  C  C1377  1  0.908900  0.805100  0.461400  1.0
  C  C1378  1  0.552500  0.656300  0.461400  1.0
  C  C1379  1  0.194900  0.447500  0.538600  1.0
  C  C1380  1  0.343700  0.091100  0.538600  1.0
  C  C1381  1  0.891600  0.836700  0.457000  1.0
  C  C1382  1  0.565400  0.620300  0.457000  1.0
  C  C1383  1  0.163300  0.434600  0.543000  1.0
  C  C1384  1  0.379700  0.108400  0.543000  1.0
  C  C1385  1  0.895800  0.831700  0.436200  1.0
  C  C1386  1  0.540400  0.604500  0.436200  1.0
  C  C1387  1  0.168300  0.459600  0.563800  1.0
  C  C1388  1  0.395500  0.104200  0.563800  1.0
  C  C1389  1  0.908400  0.813900  0.428800  1.0
  C  C1390  1  0.520400  0.614900  0.428800  1.0
  C  C1391  1  0.186100  0.479600  0.571200  1.0
  C  C1392  1  0.385100  0.091600  0.571200  1.0
  C  C1393  1  0.913200  0.809200  0.406600  1.0
  C  C1394  1  0.493400  0.597400  0.406600  1.0
  C  C1395  1  0.190800  0.506600  0.593400  1.0
  C  C1396  1  0.402600  0.086800  0.593400  1.0
  C  C1397  1  0.924300  0.791700  0.396000  1.0
  C  C1398  1  0.471700  0.604300  0.396000  1.0
  C  C1399  1  0.208300  0.528300  0.604000  1.0
  C  C1400  1  0.395700  0.075700  0.604000  1.0
  C  C1401  1  0.920700  0.750500  0.389400  1.0
  C  C1402  1  0.468700  0.638900  0.389400  1.0
  C  C1403  1  0.249500  0.531300  0.610600  1.0
  C  C1404  1  0.361100  0.079300  0.610600  1.0
  C  C1405  1  0.961800  0.777700  0.375400  1.0
  C  C1406  1  0.413600  0.597700  0.375400  1.0
  C  C1407  1  0.222300  0.586400  0.624600  1.0
  C  C1408  1  0.402300  0.038200  0.624600  1.0
  C  C1409  1  0.926300  0.791800  0.375600  1.0
  C  C1410  1  0.449300  0.583800  0.375600  1.0
  C  C1411  1  0.208200  0.550700  0.624400  1.0
  C  C1412  1  0.416200  0.073700  0.624400  1.0
  C  C1413  1  0.916900  0.809400  0.369800  1.0
  C  C1414  1  0.452900  0.560400  0.369800  1.0
  C  C1415  1  0.190600  0.547100  0.630200  1.0
  C  C1416  1  0.439600  0.083100  0.630200  1.0
  C  C1417  1  0.916600  0.814600  0.349400  1.0
  C  C1418  1  0.432800  0.534800  0.349400  1.0
  C  C1419  1  0.185400  0.567200  0.650600  1.0
  C  C1420  1  0.465200  0.083400  0.650600  1.0
  C  C1421  1  0.907300  0.834000  0.347200  1.0
  C  C1422  1  0.439900  0.513200  0.347200  1.0
  C  C1423  1  0.166000  0.560100  0.652800  1.0
  C  C1424  1  0.486800  0.092700  0.652800  1.0
  C  C1425  1  0.906000  0.838500  0.327800  1.0
  C  C1426  1  0.421800  0.489300  0.327800  1.0
  C  C1427  1  0.161500  0.578200  0.672200  1.0
  C  C1428  1  0.510700  0.094000  0.672200  1.0
  C  C1429  1  0.926000  0.807700  0.315000  1.0
  C  C1430  1  0.389000  0.507300  0.315000  1.0
  C  C1431  1  0.192300  0.611000  0.685000  1.0
  C  C1432  1  0.492700  0.074000  0.685000  1.0
  C  C1433  1  0.926767  0.801867  0.333333  1.0
  C  C1434  1  0.406567  0.531467  0.333333  1.0
  C  C1435  1  0.198133  0.593433  0.666667  1.0
  C  C1436  1  0.468533  0.073233  0.666667  1.0
  C  C1437  1  0.644300  0.677100  0.131800  1.0
  C  C1438  1  0.487500  0.454700  0.131800  1.0
  C  C1439  1  0.322900  0.512500  0.868200  1.0
  C  C1440  1  0.545300  0.355700  0.868200  1.0
  C  C1441  1  0.644100  0.683900  0.114400  1.0
  C  C1442  1  0.470300  0.430500  0.114400  1.0
  C  C1443  1  0.316100  0.529700  0.885600  1.0
  C  C1444  1  0.569500  0.355900  0.885600  1.0
  C  C1445  1  0.635100  0.721400  0.137000  1.0
  C  C1446  1  0.501900  0.415600  0.137000  1.0
  C  C1447  1  0.278600  0.498100  0.863000  1.0
  C  C1448  1  0.584400  0.364900  0.863000  1.0
  C  C1449  1  0.636600  0.716100  0.156000  1.0
  C  C1450  1  0.519400  0.439900  0.156000  1.0
  C  C1451  1  0.283900  0.480600  0.844000  1.0
  C  C1452  1  0.560100  0.363400  0.844000  1.0
  C  C1453  1  0.639700  0.692800  0.152600  1.0
  C  C1454  1  0.512900  0.459800  0.152600  1.0
  C  C1455  1  0.307200  0.487100  0.847400  1.0
  C  C1456  1  0.540200  0.360300  0.847400  1.0
  C  C1457  1  0.640300  0.687000  0.172800  1.0
  C  C1458  1  0.532500  0.485800  0.172800  1.0
  C  C1459  1  0.313000  0.467500  0.827200  1.0
  C  C1460  1  0.514200  0.359700  0.827200  1.0
  C  C1461  1  0.644100  0.665600  0.173200  1.0
  C  C1462  1  0.529100  0.507600  0.173200  1.0
  C  C1463  1  0.334400  0.470900  0.826800  1.0
  C  C1464  1  0.492400  0.355900  0.826800  1.0
  C  C1465  1  0.670900  0.640400  0.163600  1.0
  C  C1466  1  0.492700  0.523200  0.163600  1.0
  C  C1467  1  0.359600  0.507300  0.836400  1.0
  C  C1468  1  0.476800  0.329100  0.836400  1.0
  C  C1469  1  0.628200  0.621300  0.178400  1.0
  C  C1470  1  0.550200  0.557100  0.178400  1.0
  C  C1471  1  0.378700  0.449800  0.821600  1.0
  C  C1472  1  0.442900  0.371800  0.821600  1.0
  C  C1473  1  0.642200  0.664900  0.193400  1.0
  C  C1474  1  0.551200  0.528500  0.193400  1.0
  C  C1475  1  0.335100  0.448800  0.806600  1.0
  C  C1476  1  0.471500  0.357800  0.806600  1.0
  C  C1477  1  0.636700  0.685600  0.209000  1.0
  C  C1478  1  0.572300  0.523400  0.209000  1.0
  C  C1479  1  0.314400  0.427700  0.791000  1.0
  C  C1480  1  0.476600  0.363300  0.791000  1.0
  C  C1481  1  0.631800  0.689800  0.231000  1.0
  C  C1482  1  0.599200  0.541200  0.231000  1.0
  C  C1483  1  0.310200  0.400800  0.769000  1.0
  C  C1484  1  0.458800  0.368200  0.769000  1.0
  C  C1485  1  0.627200  0.712400  0.245600  1.0
  C  C1486  1  0.618400  0.533200  0.245600  1.0
  C  C1487  1  0.287600  0.381600  0.754400  1.0
  C  C1488  1  0.466800  0.372800  0.754400  1.0
  C  C1489  1  0.621800  0.716200  0.265200  1.0
  C  C1490  1  0.643400  0.549000  0.265200  1.0
  C  C1491  1  0.283800  0.356600  0.734800  1.0
  C  C1492  1  0.451000  0.378200  0.734800  1.0
  C  C1493  1  0.629300  0.678200  0.260400  1.0
  C  C1494  1  0.631100  0.582200  0.260400  1.0
  C  C1495  1  0.321800  0.368900  0.739600  1.0
  C  C1496  1  0.417800  0.370700  0.739600  1.0
  C  C1497  1  0.633300  0.672800  0.239400  1.0
  C  C1498  1  0.606100  0.566600  0.239400  1.0
  C  C1499  1  0.327200  0.393900  0.760600  1.0
  C  C1500  1  0.433400  0.366700  0.760600  1.0
  C  C1501  1  0.554000  0.687500  0.042200  1.0
  C  C1502  1  0.488200  0.354700  0.042200  1.0
  C  C1503  1  0.312500  0.511800  0.957800  1.0
  C  C1504  1  0.645300  0.446000  0.957800  1.0
  C  C1505  1  0.579000  0.692200  0.049600  1.0
  C  C1506  1  0.470600  0.357400  0.049600  1.0
  C  C1507  1  0.307800  0.529400  0.950400  1.0
  C  C1508  1  0.642600  0.421000  0.950400  1.0
  C  C1509  1  0.591000  0.733200  0.089600  1.0
  C  C1510  1  0.498600  0.356400  0.089600  1.0
  C  C1511  1  0.266800  0.501400  0.910400  1.0
  C  C1512  1  0.643600  0.409000  0.910400  1.0
  C  C1513  1  0.566600  0.728900  0.083600  1.0
  C  C1514  1  0.517000  0.354700  0.083600  1.0
  C  C1515  1  0.271100  0.483000  0.916400  1.0
  C  C1516  1  0.645300  0.433400  0.916400  1.0
  C  C1517  1  0.547100  0.706400  0.058800  1.0
  C  C1518  1  0.511700  0.352400  0.058800  1.0
  C  C1519  1  0.293600  0.488300  0.941200  1.0
  C  C1520  1  0.647600  0.452900  0.941200  1.0
  C  C1521  1  0.520600  0.702400  0.052400  1.0
  C  C1522  1  0.531800  0.350000  0.052400  1.0
  C  C1523  1  0.297600  0.468200  0.947600  1.0
  C  C1524  1  0.650000  0.479400  0.947600  1.0
  C  C1525  1  0.499500  0.681000  0.029600  1.0
  C  C1526  1  0.530100  0.348600  0.029600  1.0
  C  C1527  1  0.319000  0.469900  0.970400  1.0
  C  C1528  1  0.651400  0.500500  0.970400  1.0
  C  C1529  1  0.491700  0.635500  0.001400  1.0
  C  C1530  1  0.509700  0.365900  0.001400  1.0
  C  C1531  1  0.364500  0.490300  0.998600  1.0
  C  C1532  1  0.634100  0.508300  0.998600  1.0
  C  C1533  1  0.446300  0.646700  0.981400  1.0
  C  C1534  1  0.535100  0.334700  0.981400  1.0
  C  C1535  1  0.353300  0.464900  0.018600  1.0
  C  C1536  1  0.665300  0.553700  0.018600  1.0
  C  C1537  1  0.477400  0.682900  0.029200  1.0
  C  C1538  1  0.551800  0.346300  0.029200  1.0
  C  C1539  1  0.317100  0.448200  0.970800  1.0
  C  C1540  1  0.653700  0.522600  0.970800  1.0
  C  C1541  1  0.480900  0.706000  0.052000  1.0
  C  C1542  1  0.571100  0.346000  0.052000  1.0
  C  C1543  1  0.294000  0.428900  0.948000  1.0
  C  C1544  1  0.654000  0.519100  0.948000  1.0
  C  C1545  1  0.461100  0.713700  0.058200  1.0
  C  C1546  1  0.597100  0.344500  0.058200  1.0
  C  C1547  1  0.286300  0.402900  0.941800  1.0
  C  C1548  1  0.655500  0.538900  0.941800  1.0
  C  C1549  1  0.467700  0.738100  0.082000  1.0
  C  C1550  1  0.614300  0.343900  0.082000  1.0
  C  C1551  1  0.261900  0.385700  0.918000  1.0
  C  C1552  1  0.656100  0.532300  0.918000  1.0
  C  C1553  1  0.450100  0.745200  0.088800  1.0
  C  C1554  1  0.638700  0.343600  0.088800  1.0
  C  C1555  1  0.254800  0.361300  0.911200  1.0
  C  C1556  1  0.656400  0.549900  0.911200  1.0
  C  C1557  1  0.418300  0.706800  0.047400  1.0
  C  C1558  1  0.629100  0.340600  0.047400  1.0
  C  C1559  1  0.293200  0.370900  0.952600  1.0
  C  C1560  1  0.659400  0.581700  0.952600  1.0
  C  C1561  1  0.435600  0.698200  0.040600  1.0
  C  C1562  1  0.605000  0.342400  0.040600  1.0
  C  C1563  1  0.301800  0.395000  0.959400  1.0
  C  C1564  1  0.657600  0.564400  0.959400  1.0
  C  C1565  1  0.928800  0.622300  0.103200  1.0
  C  C1566  1  0.174400  0.480900  0.103200  1.0
  C  C1567  1  0.377700  0.825600  0.896800  1.0
  C  C1568  1  0.519100  0.071200  0.896800  1.0
  C  C1569  1  0.927000  0.639900  0.096000  1.0
  C  C1570  1  0.169000  0.456100  0.096000  1.0
  C  C1571  1  0.360100  0.831000  0.904000  1.0
  C  C1572  1  0.543900  0.073000  0.904000  1.0
  C  C1573  1  0.913900  0.607900  0.049400  1.0
  C  C1574  1  0.135500  0.441500  0.049400  1.0
  C  C1575  1  0.392100  0.864500  0.950600  1.0
  C  C1576  1  0.558500  0.086100  0.950600  1.0
  C  C1577  1  0.916600  0.589700  0.055800  1.0
  C  C1578  1  0.139200  0.466100  0.055800  1.0
  C  C1579  1  0.410300  0.860800  0.944200  1.0
  C  C1580  1  0.533900  0.083400  0.944200  1.0
  C  C1581  1  0.922800  0.596300  0.082600  1.0
  C  C1582  1  0.159800  0.486300  0.082600  1.0
  C  C1583  1  0.403700  0.840200  0.917400  1.0
  C  C1584  1  0.513700  0.077200  0.917400  1.0
  C  C1585  1  0.924600  0.576100  0.088800  1.0
  C  C1586  1  0.164200  0.512700  0.088800  1.0
  C  C1587  1  0.423900  0.835800  0.911200  1.0
  C  C1588  1  0.487300  0.075400  0.911200  1.0
  C  C1589  1  0.931600  0.579500  0.114400  1.0
  C  C1590  1  0.182800  0.534900  0.114400  1.0
  C  C1591  1  0.420500  0.817200  0.885600  1.0
  C  C1592  1  0.465100  0.068400  0.885600  1.0
  C  C1593  1  0.930800  0.608800  0.155600  1.0
  C  C1594  1  0.224800  0.546800  0.155600  1.0
  C  C1595  1  0.391200  0.775200  0.844400  1.0
  C  C1596  1  0.453200  0.069200  0.844400  1.0
  C  C1597  1  0.961100  0.560700  0.157400  1.0
  C  C1598  1  0.196300  0.596700  0.157400  1.0
  C  C1599  1  0.439300  0.803700  0.842600  1.0
  C  C1600  1  0.403300  0.038900  0.842600  1.0
  C  C1601  1  0.930900  0.557000  0.113400  1.0
  C  C1602  1  0.182500  0.556400  0.113400  1.0
  C  C1603  1  0.443000  0.817500  0.886600  1.0
  C  C1604  1  0.443600  0.069100  0.886600  1.0
  C  C1605  1  0.923200  0.535500  0.087000  1.0
  C  C1606  1  0.163800  0.551500  0.087000  1.0
  C  C1607  1  0.464500  0.836200  0.913000  1.0
  C  C1608  1  0.448500  0.076800  0.913000  1.0
  C  C1609  1  0.919100  0.508400  0.078600  1.0
  C  C1610  1  0.159500  0.570200  0.078600  1.0
  C  C1611  1  0.491600  0.840500  0.921400  1.0
  C  C1612  1  0.429800  0.080900  0.921400  1.0
  C  C1613  1  0.910900  0.488800  0.050600  1.0
  C  C1614  1  0.139700  0.561800  0.050600  1.0
  C  C1615  1  0.511200  0.860300  0.949400  1.0
  C  C1616  1  0.438200  0.089100  0.949400  1.0
  C  C1617  1  0.906100  0.463600  0.042200  1.0
  C  C1618  1  0.136100  0.578600  0.042200  1.0
  C  C1619  1  0.536400  0.863900  0.957800  1.0
  C  C1620  1  0.421400  0.093900  0.957800  1.0
  C  C1621  1  0.920800  0.476000  0.088600  1.0
  C  C1622  1  0.167800  0.612600  0.088600  1.0
  C  C1623  1  0.524000  0.832200  0.911400  1.0
  C  C1624  1  0.387400  0.079200  0.911400  1.0
  C  C1625  1  0.924300  0.501400  0.097600  1.0
  C  C1626  1  0.173300  0.596200  0.097600  1.0
  C  C1627  1  0.498600  0.826700  0.902400  1.0
  C  C1628  1  0.403800  0.075700  0.902400  1.0
  F  F1629  1  0.817600  0.878400  0.710200  1.0
  F  F1630  1  0.892600  0.831800  0.710200  1.0
  F  F1631  1  0.121600  0.107400  0.289800  1.0
  F  F1632  1  0.168200  0.182400  0.289800  1.0
  F  F1633  1  0.823600  0.838100  0.698400  1.0
  F  F1634  1  0.874800  0.860300  0.698400  1.0
  F  F1635  1  0.161900  0.125200  0.301600  1.0
  F  F1636  1  0.139700  0.176400  0.301600  1.0
  F  F1637  1  0.798300  0.852300  0.716800  1.0
  F  F1638  1  0.918500  0.864500  0.716800  1.0
  F  F1639  1  0.147700  0.081500  0.283200  1.0
  F  F1640  1  0.135500  0.201700  0.283200  1.0
  F  F1641  1  0.843000  0.871900  0.746600  1.0
  F  F1642  1  0.903600  0.874700  0.746600  1.0
  F  F1643  1  0.128100  0.096400  0.253400  1.0
  F  F1644  1  0.125300  0.157000  0.253400  1.0
  F  F1645  1  0.808600  0.953700  0.677800  1.0
  F  F1646  1  0.869200  0.724100  0.677800  1.0
  F  F1647  1  0.046300  0.130800  0.322200  1.0
  F  F1648  1  0.275900  0.191400  0.322200  1.0
  F  F1649  1  0.799100  0.992500  0.688800  1.0
  F  F1650  1  0.889700  0.696300  0.688800  1.0
  F  F1651  1  0.007500  0.110300  0.311200  1.0
  F  F1652  1  0.303700  0.200900  0.311200  1.0
  F  F1653  1  0.790500  0.963400  0.643000  1.0
  F  F1654  1  0.852500  0.679600  0.643000  1.0
  F  F1655  1  0.036600  0.147500  0.357000  1.0
  F  F1656  1  0.320400  0.209500  0.357000  1.0
  F  F1657  1  0.833100  0.986200  0.682800  1.0
  F  F1658  1  0.849700  0.696600  0.682800  1.0
  F  F1659  1  0.013800  0.150300  0.317200  1.0
  F  F1660  1  0.303400  0.166900  0.317200  1.0
  F  F1661  1  0.825300  0.132600  0.953800  1.0
  F  F1662  1  0.128500  0.821200  0.953800  1.0
  F  F1663  1  0.867400  0.871500  0.046200  1.0
  F  F1664  1  0.178800  0.174700  0.046200  1.0
  F  F1665  1  0.826800  0.104100  0.967800  1.0
  F  F1666  1  0.141000  0.863700  0.967800  1.0
  F  F1667  1  0.895900  0.859000  0.032200  1.0
  F  F1668  1  0.136300  0.173200  0.032200  1.0
  F  F1669  1  0.805200  0.134500  0.977000  1.0
  F  F1670  1  0.171800  0.842500  0.977000  1.0
  F  F1671  1  0.865500  0.828200  0.023000  1.0
  F  F1672  1  0.157500  0.194800  0.023000  1.0
  F  F1673  1  0.850300  0.148000  0.002800  1.0
  F  F1674  1  0.152500  0.854800  0.002800  1.0
  F  F1675  1  0.852000  0.847500  0.997200  1.0
  F  F1676  1  0.145200  0.149700  0.997200  1.0
  F  F1677  1  0.808500  0.151200  0.870600  1.0
  F  F1678  1  0.062100  0.719400  0.870600  1.0
  F  F1679  1  0.848800  0.937900  0.129400  1.0
  F  F1680  1  0.280600  0.191500  0.129400  1.0
  F  F1681  1  0.805100  0.182900  0.860600  1.0
  F  F1682  1  0.055500  0.677700  0.860600  1.0
  F  F1683  1  0.817100  0.944500  0.139400  1.0
  F  F1684  1  0.322300  0.194900  0.139400  1.0
  F  F1685  1  0.785300  0.139200  0.822800  1.0
  F  F1686  1  0.037500  0.683600  0.822800  1.0
  F  F1687  1  0.860800  0.962500  0.177200  1.0
  F  F1688  1  0.316400  0.214700  0.177200  1.0
  F  F1689  1  0.830300  0.156500  0.851600  1.0
  F  F1690  1  0.021300  0.695100  0.851600  1.0
  F  F1691  1  0.843500  0.978700  0.148400  1.0
  F  F1692  1  0.304900  0.169700  0.148400  1.0
  F  F1693  1  0.078400  0.116600  0.951600  1.0
  F  F1694  1  0.873200  0.835000  0.951600  1.0
  F  F1695  1  0.883400  0.126800  0.048400  1.0
  F  F1696  1  0.165000  0.921600  0.048400  1.0
  F  F1697  1  0.088000  0.084300  0.960000  1.0
  F  F1698  1  0.872000  0.875700  0.960000  1.0
  F  F1699  1  0.915700  0.128000  0.040000  1.0
  F  F1700  1  0.124300  0.912000  0.040000  1.0
  F  F1701  1  0.095000  0.125200  0.997400  1.0
  F  F1702  1  0.902400  0.872200  0.997400  1.0
  F  F1703  1  0.874800  0.097600  0.002600  1.0
  F  F1704  1  0.127800  0.905000  0.002600  1.0
  F  F1705  1  0.121400  0.119400  0.980000  1.0
  F  F1706  1  0.858600  0.860600  0.980000  1.0
  F  F1707  1  0.880600  0.141400  0.020000  1.0
  F  F1708  1  0.139400  0.878600  0.020000  1.0
  F  F1709  1  0.009300  0.139300  0.867800  1.0
  F  F1710  1  0.858500  0.728500  0.867800  1.0
  F  F1711  1  0.860700  0.141500  0.132200  1.0
  F  F1712  1  0.271500  0.990700  0.132200  1.0
  F  F1713  1  0.994400  0.169300  0.857200  1.0
  F  F1714  1  0.862800  0.687900  0.857200  1.0
  F  F1715  1  0.830700  0.137200  0.142800  1.0
  F  F1716  1  0.312100  0.005600  0.142800  1.0
  F  F1717  1  0.966200  0.128100  0.831000  1.0
  F  F1718  1  0.864800  0.702900  0.831000  1.0
  F  F1719  1  0.871900  0.135200  0.169000  1.0
  F  F1720  1  0.297100  0.033800  0.169000  1.0
  F  F1721  1  0.999200  0.133600  0.824800  1.0
  F  F1722  1  0.825600  0.691200  0.824800  1.0
  F  F1723  1  0.866400  0.174400  0.175200  1.0
  F  F1724  1  0.308800  0.000800  0.175200  1.0
  F  F1725  1  0.165600  0.021500  0.737000  1.0
  F  F1726  1  0.571400  0.715500  0.737000  1.0
  F  F1727  1  0.978500  0.428600  0.263000  1.0
  F  F1728  1  0.284500  0.834400  0.263000  1.0
  F  F1729  1  0.169800  0.982100  0.731400  1.0
  F  F1730  1  0.561600  0.749300  0.731400  1.0
  F  F1731  1  0.017900  0.438400  0.268600  1.0
  F  F1732  1  0.250700  0.830200  0.268600  1.0
  F  F1733  1  0.192100  0.020300  0.777600  1.0
  F  F1734  1  0.585500  0.757300  0.777600  1.0
  F  F1735  1  0.979700  0.414500  0.222400  1.0
  F  F1736  1  0.242700  0.807900  0.222400  1.0
  F  F1737  1  0.204400  0.012500  0.746000  1.0
  F  F1738  1  0.541600  0.733500  0.746000  1.0
  F  F1739  1  0.987500  0.458400  0.254000  1.0
  F  F1740  1  0.266500  0.795600  0.254000  1.0
  F  F1741  1  0.096500  0.069300  0.700600  1.0
  F  F1742  1  0.604100  0.631300  0.700600  1.0
  F  F1743  1  0.930700  0.395900  0.299400  1.0
  F  F1744  1  0.368700  0.903500  0.299400  1.0
  F  F1745  1  0.085900  0.107700  0.713800  1.0
  F  F1746  1  0.627900  0.606100  0.713800  1.0
  F  F1747  1  0.892300  0.372100  0.286200  1.0
  F  F1748  1  0.393900  0.914100  0.286200  1.0
  F  F1749  1  0.053600  0.068100  0.684200  1.0
  F  F1750  1  0.630600  0.616100  0.684200  1.0
  F  F1751  1  0.931900  0.369400  0.315800  1.0
  F  F1752  1  0.383900  0.946400  0.315800  1.0
  F  F1753  1  0.073400  0.078900  0.666200  1.0
  F  F1754  1  0.592800  0.587300  0.666200  1.0
  F  F1755  1  0.921100  0.407200  0.333800  1.0
  F  F1756  1  0.412700  0.926600  0.333800  1.0
  F  F1757  1  0.911300  0.787800  0.499600  1.0
  F  F1758  1  0.588300  0.711800  0.499600  1.0
  F  F1759  1  0.212200  0.411700  0.500400  1.0
  F  F1760  1  0.288200  0.088700  0.500400  1.0
  F  F1761  1  0.902100  0.743000  0.473200  1.0
  F  F1762  1  0.571100  0.730200  0.473200  1.0
  F  F1763  1  0.257000  0.428900  0.526800  1.0
  F  F1764  1  0.269800  0.097900  0.526800  1.0
  F  F1765  1  0.922900  0.766600  0.523200  1.0
  F  F1766  1  0.600300  0.756600  0.523200  1.0
  F  F1767  1  0.233400  0.399700  0.476800  1.0
  F  F1768  1  0.243400  0.077100  0.476800  1.0
  F  F1769  1  0.944800  0.769800  0.503400  1.0
  F  F1770  1  0.558600  0.733600  0.503400  1.0
  F  F1771  1  0.230200  0.441400  0.496600  1.0
  F  F1772  1  0.266400  0.055200  0.496600  1.0
  F  F1773  1  0.876000  0.872300  0.500800  1.0
  F  F1774  1  0.624800  0.628500  0.500800  1.0
  F  F1775  1  0.127700  0.375200  0.499200  1.0
  F  F1776  1  0.371500  0.124000  0.499200  1.0
  F  F1777  1  0.881900  0.916000  0.529800  1.0
  F  F1778  1  0.647900  0.613800  0.529800  1.0
  F  F1779  1  0.084000  0.352100  0.470200  1.0
  F  F1780  1  0.386200  0.118100  0.470200  1.0
  F  F1781  1  0.840000  0.886600  0.493600  1.0
  F  F1782  1  0.653600  0.607000  0.493600  1.0
  F  F1783  1  0.113400  0.346400  0.506400  1.0
  F  F1784  1  0.393000  0.160000  0.506400  1.0
  F  F1785  1  0.866200  0.897100  0.481400  1.0
  F  F1786  1  0.615200  0.584300  0.481400  1.0
  F  F1787  1  0.102900  0.384800  0.518600  1.0
  F  F1788  1  0.415700  0.133800  0.518600  1.0
  F  F1789  1  0.610100  0.665700  0.290000  1.0
  F  F1790  1  0.679900  0.624300  0.290000  1.0
  F  F1791  1  0.334300  0.320100  0.710000  1.0
  F  F1792  1  0.375700  0.389900  0.710000  1.0
  F  F1793  1  0.574300  0.629300  0.250200  1.0
  F  F1794  1  0.675900  0.620900  0.250200  1.0
  F  F1795  1  0.370700  0.324100  0.749800  1.0
  F  F1796  1  0.379100  0.425700  0.749800  1.0
  F  F1797  1  0.598800  0.632600  0.293800  1.0
  F  F1798  1  0.695000  0.661200  0.293800  1.0
  F  F1799  1  0.367400  0.305000  0.706200  1.0
  F  F1800  1  0.338800  0.401200  0.706200  1.0
  F  F1801  1  0.616000  0.625900  0.266600  1.0
  F  F1802  1  0.650600  0.640700  0.266600  1.0
  F  F1803  1  0.374100  0.349400  0.733400  1.0
  F  F1804  1  0.359300  0.384000  0.733400  1.0
  F  F1805  1  0.616700  0.764300  0.311800  1.0
  F  F1806  1  0.695100  0.547500  0.311800  1.0
  F  F1807  1  0.235700  0.304900  0.688200  1.0
  F  F1808  1  0.452500  0.383300  0.688200  1.0
  F  F1809  1  0.643300  0.805900  0.352200  1.0
  F  F1810  1  0.708900  0.546300  0.352200  1.0
  F  F1811  1  0.194100  0.291100  0.647800  1.0
  F  F1812  1  0.453700  0.356700  0.647800  1.0
  F  F1813  1  0.600100  0.798900  0.319400  1.0
  F  F1814  1  0.719300  0.520500  0.319400  1.0
  F  F1815  1  0.201100  0.280700  0.680600  1.0
  F  F1816  1  0.479500  0.399900  0.680600  1.0
  F  F1817  1  0.629500  0.795300  0.306200  1.0
  F  F1818  1  0.676700  0.510900  0.306200  1.0
  F  F1819  1  0.204700  0.323300  0.693800  1.0
  F  F1820  1  0.489100  0.370500  0.693800  1.0
  F  F1821  1  0.522200  0.813200  0.497800  1.0
  F  F1822  1  0.975600  0.684600  0.497800  1.0
  F  F1823  1  0.186800  0.024400  0.502200  1.0
  F  F1824  1  0.315400  0.477800  0.502200  1.0
  F  F1825  1  0.480300  0.786300  0.471600  1.0
  F  F1826  1  0.991300  0.685300  0.471600  1.0
  F  F1827  1  0.213700  0.008700  0.528400  1.0
  F  F1828  1  0.314700  0.519700  0.528400  1.0
  F  F1829  1  0.505800  0.809000  0.522000  1.0
  F  F1830  1  0.016200  0.713000  0.522000  1.0
  F  F1831  1  0.191000  0.983800  0.478000  1.0
  F  F1832  1  0.287000  0.494200  0.478000  1.0
  F  F1833  1  0.515800  0.774600  0.494600  1.0
  F  F1834  1  0.978800  0.720000  0.494600  1.0
  F  F1835  1  0.225400  0.021200  0.505400  1.0
  F  F1836  1  0.280000  0.484200  0.505400  1.0
  F  F1837  1  0.565200  0.891300  0.501600  1.0
  F  F1838  1  0.936400  0.610300  0.501600  1.0
  F  F1839  1  0.108700  0.063600  0.498400  1.0
  F  F1840  1  0.389700  0.434800  0.498400  1.0
  F  F1841  1  0.603500  0.924700  0.531400  1.0
  F  F1842  1  0.927900  0.606700  0.531400  1.0
  F  F1843  1  0.075300  0.072100  0.468600  1.0
  F  F1844  1  0.393300  0.396500  0.468600  1.0
  F  F1845  1  0.565100  0.928000  0.500200  1.0
  F  F1846  1  0.935100  0.572200  0.500200  1.0
  F  F1847  1  0.072000  0.064900  0.499800  1.0
  F  F1848  1  0.427800  0.434900  0.499800  1.0
  F  F1849  1  0.584700  0.899300  0.481800  1.0
  F  F1850  1  0.897100  0.582500  0.481800  1.0
  F  F1851  1  0.100700  0.102900  0.518200  1.0
  F  F1852  1  0.417500  0.415300  0.518200  1.0
  F  F1853  1  0.523000  0.072500  0.739200  1.0
  F  F1854  1  0.216200  0.666700  0.739200  1.0
  F  F1855  1  0.927500  0.783800  0.260800  1.0
  F  F1856  1  0.333300  0.477000  0.260800  1.0
  F  F1857  1  0.483700  0.061700  0.733200  1.0
  F  F1858  1  0.249500  0.671500  0.733200  1.0
  F  F1859  1  0.938300  0.750500  0.266800  1.0
  F  F1860  1  0.328500  0.516300  0.266800  1.0
  F  F1861  1  0.522100  0.082700  0.779000  1.0
  F  F1862  1  0.256900  0.696300  0.779000  1.0
  F  F1863  1  0.917300  0.743100  0.221000  1.0
  F  F1864  1  0.303700  0.477900  0.221000  1.0
  F  F1865  1  0.513300  0.039700  0.744000  1.0
  F  F1866  1  0.230700  0.704300  0.744000  1.0
  F  F1867  1  0.960300  0.769300  0.256000  1.0
  F  F1868  1  0.295700  0.486700  0.256000  1.0
  F  F1869  1  0.568900  0.109100  0.700000  1.0
  F  F1870  1  0.131100  0.590900  0.700000  1.0
  F  F1871  1  0.890900  0.868900  0.300000  1.0
  F  F1872  1  0.409100  0.431100  0.300000  1.0
  F  F1873  1  0.604400  0.133900  0.709400  1.0
  F  F1874  1  0.105000  0.575500  0.709400  1.0
  F  F1875  1  0.866100  0.895000  0.290600  1.0
  F  F1876  1  0.424500  0.395600  0.290600  1.0
  F  F1877  1  0.563100  0.135900  0.683200  1.0
  F  F1878  1  0.120100  0.547300  0.683200  1.0
  F  F1879  1  0.864100  0.879900  0.316800  1.0
  F  F1880  1  0.452700  0.436900  0.316800  1.0
  F  F1881  1  0.573800  0.098700  0.662400  1.0
  F  F1882  1  0.088600  0.563700  0.662400  1.0
  F  F1883  1  0.901300  0.911400  0.337600  1.0
  F  F1884  1  0.436300  0.426200  0.337600  1.0
  F  F1885  1  0.615300  0.378400  0.953200  1.0
  F  F1886  1  0.337900  0.574800  0.953200  1.0
  F  F1887  1  0.621600  0.662100  0.046800  1.0
  F  F1888  1  0.425200  0.384700  0.046800  1.0
  F  F1889  1  0.580200  0.374400  0.956800  1.0
  F  F1890  1  0.376600  0.582400  0.956800  1.0
  F  F1891  1  0.625600  0.623400  0.043200  1.0
  F  F1892  1  0.417600  0.419800  0.043200  1.0
  F  F1893  1  0.619700  0.406800  0.997000  1.0
  F  F1894  1  0.377300  0.590200  0.997000  1.0
  F  F1895  1  0.593200  0.622700  0.003000  1.0
  F  F1896  1  0.409800  0.380300  0.003000  1.0
  F  F1897  1  0.615500  0.363400  0.980400  1.0
  F  F1898  1  0.364900  0.617000  0.980400  1.0
  F  F1899  1  0.636600  0.635100  0.019600  1.0
  F  F1900  1  0.383000  0.384500  0.019600  1.0
  F  F1901  1  0.636800  0.353200  0.868400  1.0
  F  F1902  1  0.231600  0.515200  0.868400  1.0
  F  F1903  1  0.646800  0.768400  0.131600  1.0
  F  F1904  1  0.484800  0.363200  0.131600  1.0
  F  F1905  1  0.667000  0.358900  0.858600  1.0
  F  F1906  1  0.191600  0.499700  0.858600  1.0
  F  F1907  1  0.641100  0.808400  0.141400  1.0
  F  F1908  1  0.500300  0.333000  0.141400  1.0
  F  F1909  1  0.626100  0.362100  0.833600  1.0
  F  F1910  1  0.207500  0.471500  0.833600  1.0
  F  F1911  1  0.637900  0.792500  0.166400  1.0
  F  F1912  1  0.528500  0.373900  0.166400  1.0
  F  F1913  1  0.630800  0.322000  0.824600  1.0
  F  F1914  1  0.193800  0.502600  0.824600  1.0
  F  F1915  1  0.678000  0.806200  0.175400  1.0
  F  F1916  1  0.497400  0.369200  0.175400  1.0
  F  F1917  1  0.923900  0.443000  0.111200  1.0
  F  F1918  1  0.187300  0.668200  0.111200  1.0
  F  F1919  1  0.557000  0.812700  0.888800  1.0
  F  F1920  1  0.331800  0.076100  0.888800  1.0
  F  F1921  1  0.909200  0.455100  0.141400  1.0
  F  F1922  1  0.232200  0.686300  0.141400  1.0
  F  F1923  1  0.544900  0.767800  0.858600  1.0
  F  F1924  1  0.313700  0.090800  0.858600  1.0
  F  F1925  1  0.951500  0.475800  0.160200  1.0
  F  F1926  1  0.208700  0.684400  0.160200  1.0
  F  F1927  1  0.524200  0.791300  0.839800  1.0
  F  F1928  1  0.315600  0.048500  0.839800  1.0
  F  F1929  1  0.939600  0.432900  0.145600  1.0
  F  F1930  1  0.206000  0.712700  0.145600  1.0
  F  F1931  1  0.567100  0.794000  0.854400  1.0
  F  F1932  1  0.287300  0.060400  0.854400  1.0
  F  F1933  1  0.881900  0.398900  0.998200  1.0
  F  F1934  1  0.116300  0.599300  0.998200  1.0
  F  F1935  1  0.601100  0.883700  0.001800  1.0
  F  F1936  1  0.400700  0.118100  0.001800  1.0
  F  F1937  1  0.898300  0.395700  0.971200  1.0
  F  F1938  1  0.072900  0.575500  0.971200  1.0
  F  F1939  1  0.604300  0.927100  0.028800  1.0
  F  F1940  1  0.424500  0.101700  0.028800  1.0
  F  F1941  1  0.857100  0.399700  0.957200  1.0
  F  F1942  1  0.100100  0.557500  0.957200  1.0
  F  F1943  1  0.600300  0.899900  0.042800  1.0
  F  F1944  1  0.442500  0.142900  0.042800  1.0
  F  F1945  1  0.864700  0.361400  0.952400  1.0
  F  F1946  1  0.087700  0.591000  0.952400  1.0
  F  F1947  1  0.638600  0.912300  0.047600  1.0
  F  F1948  1  0.409000  0.135300  0.047600  1.0
  F  F1949  1  0.171300  0.429700  0.118400  1.0
  F  F1950  1  0.947100  0.688700  0.118400  1.0
  F  F1951  1  0.570300  0.052900  0.881600  1.0
  F  F1952  1  0.311300  0.828700  0.881600  1.0
  F  F1953  1  0.182600  0.436400  0.162200  1.0
  F  F1954  1  0.979600  0.725800  0.162200  1.0
  F  F1955  1  0.563600  0.020400  0.837800  1.0
  F  F1956  1  0.274200  0.817400  0.837800  1.0
  F  F1957  1  0.210600  0.459700  0.160800  1.0
  F  F1958  1  0.950200  0.701100  0.160800  1.0
  F  F1959  1  0.540300  0.049800  0.839200  1.0
  F  F1960  1  0.298900  0.789400  0.839200  1.0
  F  F1961  1  0.204300  0.415600  0.141000  1.0
  F  F1962  1  0.936700  0.725400  0.141000  1.0
  F  F1963  1  0.584400  0.063300  0.859000  1.0
  F  F1964  1  0.274600  0.795700  0.859000  1.0
  F  F1965  1  0.098200  0.387200  0.002400  1.0
  F  F1966  1  0.904200  0.615200  0.002400  1.0
  F  F1967  1  0.612800  0.095800  0.997600  1.0
  F  F1968  1  0.384800  0.901800  0.997600  1.0
  F  F1969  1  0.084700  0.369500  0.954600  1.0
  F  F1970  1  0.869900  0.585100  0.954600  1.0
  F  F1971  1  0.630500  0.130100  0.045400  1.0
  F  F1972  1  0.414900  0.915300  0.045400  1.0
  F  F1973  1  0.059300  0.389200  0.970800  1.0
  F  F1974  1  0.911500  0.581600  0.970800  1.0
  F  F1975  1  0.610800  0.088500  0.029200  1.0
  F  F1976  1  0.418400  0.940700  0.029200  1.0
  F  F1977  1  0.062900  0.349700  0.964800  1.0
  F  F1978  1  0.901900  0.615100  0.964800  1.0
  F  F1979  1  0.650300  0.098100  0.035200  1.0
  F  F1980  1  0.384900  0.937100  0.035200  1.0
  F  F1981  1  0.315400  0.328400  0.953400  1.0
  F  F1982  1  0.638000  0.625000  0.953400  1.0
  F  F1983  1  0.671600  0.362000  0.046600  1.0
  F  F1984  1  0.375000  0.684600  0.046600  1.0
  F  F1985  1  0.343200  0.334400  0.998200  1.0
  F  F1986  1  0.655000  0.663800  0.998200  1.0
  F  F1987  1  0.665600  0.345000  0.001800  1.0
  F  F1988  1  0.336200  0.656800  0.001800  1.0
  F  F1989  1  0.359700  0.348100  0.979400  1.0
  F  F1990  1  0.619700  0.631300  0.979400  1.0
  F  F1991  1  0.651900  0.380300  0.020600  1.0
  F  F1992  1  0.368700  0.640300  0.020600  1.0
  F  F1993  1  0.343700  0.304000  0.958400  1.0
  F  F1994  1  0.614700  0.654400  0.958400  1.0
  F  F1995  1  0.696000  0.385300  0.041600  1.0
  F  F1996  1  0.345600  0.656300  0.041600  1.0
  F  F1997  1  0.211500  0.310400  0.869400  1.0
  F  F1998  1  0.657900  0.559000  0.869400  1.0
  F  F1999  1  0.689600  0.342100  0.130600  1.0
  F  F2000  1  0.441000  0.788500  0.130600  1.0
  F  F2001  1  0.183700  0.304100  0.824400  1.0
  F  F2002  1  0.640700  0.520300  0.824400  1.0
  F  F2003  1  0.695900  0.359300  0.175600  1.0
  F  F2004  1  0.479700  0.816300  0.175600  1.0
  F  F2005  1  0.177900  0.328500  0.861800  1.0
  F  F2006  1  0.683900  0.533300  0.861800  1.0
  F  F2007  1  0.671500  0.316100  0.138200  1.0
  F  F2008  1  0.466700  0.822100  0.138200  1.0
  F  F2009  1  0.168800  0.283900  0.839600  1.0
  F  F2010  1  0.670800  0.555700  0.839600  1.0
  F  F2011  1  0.716100  0.329200  0.160400  1.0
  F  F2012  1  0.444300  0.831200  0.160400  1.0
  N  N2013  1  0.809800  0.107900  0.886600  1.0
  N  N2014  1  0.076800  0.778700  0.886600  1.0
  N  N2015  1  0.892100  0.923200  0.113400  1.0
  N  N2016  1  0.221300  0.190200  0.113400  1.0
  N  N2017  1  0.813800  0.933400  0.732400  1.0
  N  N2018  1  0.918600  0.799000  0.732400  1.0
  N  N2019  1  0.066600  0.081400  0.267600  1.0
  N  N2020  1  0.201000  0.186200  0.267600  1.0
  N  N2021  1  0.026900  0.137200  0.927600  1.0
  N  N2022  1  0.900700  0.790400  0.927600  1.0
  N  N2023  1  0.862800  0.099300  0.072400  1.0
  N  N2024  1  0.209600  0.973100  0.072400  1.0
  N  N2025  1  0.857000  0.140700  0.929600  1.0
  N  N2026  1  0.072600  0.788900  0.929600  1.0
  N  N2027  1  0.859300  0.927400  0.070400  1.0
  N  N2028  1  0.211100  0.143000  0.070400  1.0
  N  N2029  1  0.848100  0.932700  0.720400  1.0
  N  N2030  1  0.872300  0.787700  0.720400  1.0
  N  N2031  1  0.067300  0.127700  0.279600  1.0
  N  N2032  1  0.212300  0.151900  0.279600  1.0
  N  N2033  1  0.022200  0.091300  0.885000  1.0
  N  N2034  1  0.862800  0.793700  0.885000  1.0
  N  N2035  1  0.908700  0.137200  0.115000  1.0
  N  N2036  1  0.206300  0.977800  0.115000  1.0
  N  N2037  1  0.068600  0.121300  0.897800  1.0
  N  N2038  1  0.829200  0.776500  0.897800  1.0
  N  N2039  1  0.878700  0.170800  0.102200  1.0
  N  N2040  1  0.223500  0.931400  0.102200  1.0
  N  N2041  1  0.123300  0.054600  0.748200  1.0
  N  N2042  1  0.624900  0.693600  0.748200  1.0
  N  N2043  1  0.945400  0.375100  0.251800  1.0
  N  N2044  1  0.306400  0.876700  0.251800  1.0
  N  N2045  1  0.104200  0.014400  0.697600  1.0
  N  N2046  1  0.593400  0.683200  0.697600  1.0
  N  N2047  1  0.985600  0.406600  0.302400  1.0
  N  N2048  1  0.316800  0.895800  0.302400  1.0
  N  N2049  1  0.935300  0.850700  0.527600  1.0
  N  N2050  1  0.592300  0.676900  0.527600  1.0
  N  N2051  1  0.149300  0.407700  0.472400  1.0
  N  N2052  1  0.323100  0.064700  0.472400  1.0
  N  N2053  1  0.890500  0.838300  0.530400  1.0
  N  N2054  1  0.639900  0.692100  0.530400  1.0
  N  N2055  1  0.161700  0.360100  0.469600  1.0
  N  N2056  1  0.307900  0.109500  0.469600  1.0
  N  N2057  1  0.820500  0.891100  0.665400  1.0
  N  N2058  1  0.844900  0.774300  0.665400  1.0
  N  N2059  1  0.108900  0.155100  0.334600  1.0
  N  N2060  1  0.225700  0.179500  0.334600  1.0
  N  N2061  1  0.654000  0.723300  0.330600  1.0
  N  N2062  1  0.676600  0.607300  0.330600  1.0
  N  N2063  1  0.276700  0.323400  0.669400  1.0
  N  N2064  1  0.392700  0.346000  0.669400  1.0
  N  N2065  1  0.858200  0.810700  0.475400  1.0
  N  N2066  1  0.617200  0.664700  0.475400  1.0
  N  N2067  1  0.189300  0.382800  0.524600  1.0
  N  N2068  1  0.335300  0.141800  0.524600  1.0
  N  N2069  1  0.542800  0.824600  0.466400  1.0
  N  N2070  1  0.923600  0.641800  0.466400  1.0
  N  N2071  1  0.175400  0.076400  0.533600  1.0
  N  N2072  1  0.358200  0.457200  0.533600  1.0
  N  N2073  1  0.608900  0.722800  0.331000  1.0
  N  N2074  1  0.722100  0.608200  0.331000  1.0
  N  N2075  1  0.277200  0.277900  0.669000  1.0
  N  N2076  1  0.391800  0.391100  0.669000  1.0
  N  N2077  1  0.776700  0.897800  0.667000  1.0
  N  N2078  1  0.890300  0.769200  0.667000  1.0
  N  N2079  1  0.102200  0.109700  0.333000  1.0
  N  N2080  1  0.230800  0.223300  0.333000  1.0
  N  N2081  1  0.574200  0.856000  0.527000  1.0
  N  N2082  1  0.952800  0.671000  0.527000  1.0
  N  N2083  1  0.144000  0.047200  0.473000  1.0
  N  N2084  1  0.329000  0.425800  0.473000  1.0
  N  N2085  1  0.537800  0.880800  0.529400  1.0
  N  N2086  1  0.991600  0.648600  0.529400  1.0
  N  N2087  1  0.119200  0.008400  0.470600  1.0
  N  N2088  1  0.351400  0.462200  0.470600  1.0
  N  N2089  1  0.537600  0.053900  0.689000  1.0
  N  N2090  1  0.151400  0.635100  0.689000  1.0
  N  N2091  1  0.946100  0.848600  0.311000  1.0
  N  N2092  1  0.364900  0.462400  0.311000  1.0
  N  N2093  1  0.582500  0.092600  0.743600  1.0
  N  N2094  1  0.161100  0.651000  0.743600  1.0
  N  N2095  1  0.907400  0.838900  0.256400  1.0
  N  N2096  1  0.349000  0.417500  0.256400  1.0
  N  N2097  1  0.782700  0.140900  0.899200  1.0
  N  N2098  1  0.116500  0.758300  0.899200  1.0
  N  N2099  1  0.859100  0.883500  0.100800  1.0
  N  N2100  1  0.241700  0.217300  0.100800  1.0
  N  N2101  1  0.615700  0.328400  0.890400  1.0
  N  N2102  1  0.274700  0.562000  0.890400  1.0
  N  N2103  1  0.671600  0.725300  0.109600  1.0
  N  N2104  1  0.438000  0.384300  0.109600  1.0
  N  N2105  1  0.551400  0.123600  0.745400  1.0
  N  N2106  1  0.194000  0.621800  0.745400  1.0
  N  N2107  1  0.876400  0.806000  0.254600  1.0
  N  N2108  1  0.378200  0.448600  0.254600  1.0
  N  N2109  1  0.866700  0.412100  0.044200  1.0
  N  N2110  1  0.177500  0.632100  0.044200  1.0
  N  N2111  1  0.587900  0.822500  0.955800  1.0
  N  N2112  1  0.367900  0.133300  0.955800  1.0
  N  N2113  1  0.662500  0.374300  0.932600  1.0
  N  N2114  1  0.270100  0.558300  0.932600  1.0
  N  N2115  1  0.625700  0.729900  0.067400  1.0
  N  N2116  1  0.441700  0.337500  0.067400  1.0
  N  N2117  1  0.821400  0.177200  0.938200  1.0
  N  N2118  1  0.116800  0.761000  0.938200  1.0
  N  N2119  1  0.822800  0.883200  0.061800  1.0
  N  N2120  1  0.239000  0.178600  0.061800  1.0
  N  N2121  1  0.898700  0.380400  0.047400  1.0
  N  N2122  1  0.148700  0.667000  0.047400  1.0
  N  N2123  1  0.619600  0.851300  0.952600  1.0
  N  N2124  1  0.333000  0.101300  0.952600  1.0
  N  N2125  1  0.934800  0.422300  0.060600  1.0
  N  N2126  1  0.125800  0.638300  0.060600  1.0
  N  N2127  1  0.577700  0.874200  0.939400  1.0
  N  N2128  1  0.361700  0.065200  0.939400  1.0
  N  N2129  1  0.109200  0.407300  0.070600  1.0
  N  N2130  1  0.961400  0.663300  0.070600  1.0
  N  N2131  1  0.592700  0.038600  0.929400  1.0
  N  N2132  1  0.336700  0.890800  0.929400  1.0
  N  N2133  1  0.114700  0.364700  0.036200  1.0
  N  N2134  1  0.921500  0.671500  0.036200  1.0
  N  N2135  1  0.635300  0.078500  0.963800  1.0
  N  N2136  1  0.328500  0.885300  0.963800  1.0
  N  N2137  1  0.064800  0.160500  0.933400  1.0
  N  N2138  1  0.868600  0.772900  0.933400  1.0
  N  N2139  1  0.839500  0.131400  0.066600  1.0
  N  N2140  1  0.227100  0.935200  0.066600  1.0
  N  N2141  1  0.245300  0.325700  0.929400  1.0
  N  N2142  1  0.684100  0.603700  0.929400  1.0
  N  N2143  1  0.674300  0.315900  0.070600  1.0
  N  N2144  1  0.396300  0.754700  0.070600  1.0
  N  N2145  1  0.139000  0.386900  0.025800  1.0
  N  N2146  1  0.886800  0.638900  0.025800  1.0
  N  N2147  1  0.613100  0.113200  0.974200  1.0
  N  N2148  1  0.361100  0.861000  0.974200  1.0
  N  N2149  1  0.157700  0.077900  0.752400  1.0
  N  N2150  1  0.594700  0.674500  0.752400  1.0
  N  N2151  1  0.922100  0.405300  0.247600  1.0
  N  N2152  1  0.325500  0.842300  0.247600  1.0
  N  N2153  1  0.255700  0.280600  0.892200  1.0
  N  N2154  1  0.636500  0.611600  0.892200  1.0
  N  N2155  1  0.719400  0.363500  0.107800  1.0
  N  N2156  1  0.388400  0.744300  0.107800  1.0
  N  N2157  1  0.279900  0.317100  0.893000  1.0
  N  N2158  1  0.613100  0.575900  0.893000  1.0
  N  N2159  1  0.682900  0.386900  0.107000  1.0
  N  N2160  1  0.424100  0.720100  0.107000  1.0
  N  N2161  1  0.292600  0.303300  0.727000  1.0
  N  N2162  1  0.434400  0.423700  0.727000  1.0
  N  N2163  1  0.696700  0.565600  0.273000  1.0
  N  N2164  1  0.576300  0.707400  0.273000  1.0
  N  N2165  1  0.154100  0.036900  0.529200  1.0
  N  N2166  1  0.375100  0.492300  0.529200  1.0
  N  N2167  1  0.963100  0.624900  0.470800  1.0
  N  N2168  1  0.507700  0.845900  0.470800  1.0
  N  N2169  1  0.136400  0.042800  0.689200  1.0
  N  N2170  1  0.552800  0.646400  0.689200  1.0
  N  N2171  1  0.957200  0.447200  0.310800  1.0
  N  N2172  1  0.353600  0.863600  0.310800  1.0
  N  N2173  1  0.897800  0.823200  0.468800  1.0
  N  N2174  1  0.571000  0.645600  0.468800  1.0
  N  N2175  1  0.176800  0.429000  0.531200  1.0
  N  N2176  1  0.354400  0.102200  0.531200  1.0
  N  N2177  1  0.916000  0.825900  0.312800  1.0
  N  N2178  1  0.396800  0.486900  0.312800  1.0
  N  N2179  1  0.174100  0.603200  0.687200  1.0
  N  N2180  1  0.513100  0.084000  0.687200  1.0
  N  N2181  1  0.639800  0.705800  0.117400  1.0
  N  N2182  1  0.477600  0.411600  0.117400  1.0
  N  N2183  1  0.294200  0.522400  0.882600  1.0
  N  N2184  1  0.588400  0.360200  0.882600  1.0
  N  N2185  1  0.623900  0.699700  0.273000  1.0
  N  N2186  1  0.649100  0.573300  0.273000  1.0
  N  N2187  1  0.300300  0.350900  0.727000  1.0
  N  N2188  1  0.426700  0.376100  0.727000  1.0
  N  N2189  1  0.596800  0.714600  0.073000  1.0
  N  N2190  1  0.476200  0.358400  0.073000  1.0
  N  N2191  1  0.285400  0.523800  0.927000  1.0
  N  N2192  1  0.641600  0.403200  0.927000  1.0
  N  N2193  1  0.425700  0.730000  0.070800  1.0
  N  N2194  1  0.645100  0.340800  0.070800  1.0
  N  N2195  1  0.270000  0.354900  0.929200  1.0
  N  N2196  1  0.659200  0.574300  0.929200  1.0
  N  N2197  1  0.919800  0.632500  0.069600  1.0
  N  N2198  1  0.149800  0.437100  0.069600  1.0
  N  N2199  1  0.367500  0.850200  0.930400  1.0
  N  N2200  1  0.562900  0.080200  0.930400  1.0
  N  N2201  1  0.912400  0.457800  0.061400  1.0
  N  N2202  1  0.149000  0.603600  0.061400  1.0
  N  N2203  1  0.542200  0.851000  0.938600  1.0
  N  N2204  1  0.396400  0.087600  0.938600  1.0
  O  O2205  1  0.802700  0.014300  0.859400  1.0
  O  O2206  1  0.056700  0.845100  0.859400  1.0
  O  O2207  1  0.985700  0.943300  0.140600  1.0
  O  O2208  1  0.154900  0.197300  0.140600  1.0
  O  O2209  1  0.803500  0.967000  0.817400  1.0
  O  O2210  1  0.013900  0.850400  0.817400  1.0
  O  O2211  1  0.033000  0.986100  0.182600  1.0
  O  O2212  1  0.149600  0.196500  0.182600  1.0
  O  O2213  1  0.000800  0.161100  0.999400  1.0
  O  O2214  1  0.998600  0.838300  0.999400  1.0
  O  O2215  1  0.838900  0.001400  0.000600  1.0
  O  O2216  1  0.161700  0.999200  0.000600  1.0
  O  O2217  1  0.954800  0.161900  0.000000  1.0
  O  O2218  1  0.045200  0.838100  0.000000  1.0
  O  O2219  1  0.838100  0.954800  1.000000  1.0
  O  O2220  1  0.161900  0.045200  0.000000  1.0
  O  O2221  1  0.943500  0.950800  0.796000  1.0
  O  O2222  1  0.852500  0.845200  0.796000  1.0
  O  O2223  1  0.049200  0.147500  0.204000  1.0
  O  O2224  1  0.154800  0.056500  0.204000  1.0
  O  O2225  1  0.990600  0.993600  0.840200  1.0
  O  O2226  1  0.849600  0.846600  0.840200  1.0
  O  O2227  1  0.006400  0.150400  0.159800  1.0
  O  O2228  1  0.153400  0.009400  0.159800  1.0
  O  O2229  1  0.134500  0.078200  0.881600  1.0
  O  O2230  1  0.747100  0.803400  0.881600  1.0
  O  O2231  1  0.921800  0.252900  0.118400  1.0
  O  O2232  1  0.196600  0.865500  0.118400  1.0
  O  O2233  1  0.149400  0.060300  0.841200  1.0
  O  O2234  1  0.691800  0.780900  0.841200  1.0
  O  O2235  1  0.939700  0.308200  0.158800  1.0
  O  O2236  1  0.219100  0.850600  0.158800  1.0
  O  O2237  1  0.074900  0.917100  0.655400  1.0
  O  O2238  1  0.580500  0.738300  0.655400  1.0
  O  O2239  1  0.082900  0.419500  0.344600  1.0
  O  O2240  1  0.261700  0.925100  0.344600  1.0
  O  O2241  1  0.029400  0.872700  0.609000  1.0
  O  O2242  1  0.579600  0.736300  0.609000  1.0
  O  O2243  1  0.127300  0.420400  0.391000  1.0
  O  O2244  1  0.263700  0.970600  0.391000  1.0
  O  O2245  1  0.865700  0.800800  0.574800  1.0
  O  O2246  1  0.709100  0.774000  0.574800  1.0
  O  O2247  1  0.199200  0.290900  0.425200  1.0
  O  O2248  1  0.226000  0.134300  0.425200  1.0
  O  O2249  1  0.847500  0.815400  0.612000  1.0
  O  O2250  1  0.764500  0.796600  0.612000  1.0
  O  O2251  1  0.184600  0.235500  0.388000  1.0
  O  O2252  1  0.203400  0.152500  0.388000  1.0
  O  O2253  1  0.736000  0.696300  0.367600  1.0
  O  O2254  1  0.631600  0.671300  0.367600  1.0
  O  O2255  1  0.303700  0.368400  0.632400  1.0
  O  O2256  1  0.328700  0.264000  0.632400  1.0
  O  O2257  1  0.791200  0.719900  0.406800  1.0
  O  O2258  1  0.615600  0.686900  0.406800  1.0
  O  O2259  1  0.280100  0.384400  0.593200  1.0
  O  O2260  1  0.313100  0.208800  0.593200  1.0
  O  O2261  1  0.535900  0.730500  0.399200  1.0
  O  O2262  1  0.863300  0.668700  0.399200  1.0
  O  O2263  1  0.269500  0.136700  0.600800  1.0
  O  O2264  1  0.331300  0.464100  0.600800  1.0
  O  O2265  1  0.554200  0.703000  0.363000  1.0
  O  O2266  1  0.808800  0.660000  0.363000  1.0
  O  O2267  1  0.297000  0.191200  0.637000  1.0
  O  O2268  1  0.340000  0.445800  0.637000  1.0
  O  O2269  1  0.691100  0.836600  0.626400  1.0
  O  O2270  1  0.935300  0.789800  0.626400  1.0
  O  O2271  1  0.163400  0.064700  0.373600  1.0
  O  O2272  1  0.210200  0.308900  0.373600  1.0
  O  O2273  1  0.636300  0.825200  0.588400  1.0
  O  O2274  1  0.952100  0.763200  0.588400  1.0
  O  O2275  1  0.174800  0.047900  0.411600  1.0
  O  O2276  1  0.236800  0.363700  0.411600  1.0
  O  O2277  1  0.504400  0.908400  0.595400  1.0
  O  O2278  1  0.091000  0.687000  0.595400  1.0
  O  O2279  1  0.091600  0.909000  0.404600  1.0
  O  O2280  1  0.313000  0.495600  0.404600  1.0
  O  O2281  1  0.503900  0.955300  0.638200  1.0
  O  O2282  1  0.134300  0.682900  0.638200  1.0
  O  O2283  1  0.044700  0.865700  0.361800  1.0
  O  O2284  1  0.317100  0.496100  0.361800  1.0
  O  O2285  1  0.640400  0.099700  0.839600  1.0
  O  O2286  1  0.199200  0.739900  0.839600  1.0
  O  O2287  1  0.900300  0.800800  0.160400  1.0
  O  O2288  1  0.260100  0.359600  0.160400  1.0
  O  O2289  1  0.694600  0.113300  0.882000  1.0
  O  O2290  1  0.187400  0.768700  0.882000  1.0
  O  O2291  1  0.886700  0.812600  0.118000  1.0
  O  O2292  1  0.231300  0.305400  0.118000  1.0
  O  O2293  1  0.575000  0.247200  0.877400  1.0
  O  O2294  1  0.302400  0.630200  0.877400  1.0
  O  O2295  1  0.752800  0.697600  0.122600  1.0
  O  O2296  1  0.369800  0.425000  0.122600  1.0
  O  O2297  1  0.558200  0.191800  0.838600  1.0
  O  O2298  1  0.280400  0.646800  0.838600  1.0
  O  O2299  1  0.808200  0.719600  0.161400  1.0
  O  O2300  1  0.353200  0.441800  0.161400  1.0
  O  O2301  1  0.797840  0.431340  0.067680  1.0
  O  O2302  1  0.269840  0.636340  0.067680  1.0
  O  O2303  1  0.568660  0.730160  0.932320  1.0
  O  O2304  1  0.363660  0.202160  0.932320  1.0
  O  O2305  1  0.742500  0.420300  0.037400  1.0
  O  O2306  1  0.294900  0.617100  0.037400  1.0
  O  O2307  1  0.579700  0.705100  0.962600  1.0
  O  O2308  1  0.382900  0.257500  0.962600  1.0
  O  O2309  1  0.859900  0.260300  0.039600  1.0
  O  O2310  1  0.179700  0.779300  0.039600  1.0
  O  O2311  1  0.739700  0.820300  0.960400  1.0
  O  O2312  1  0.220700  0.140100  0.960400  1.0
  O  O2313  1  0.880600  0.315200  0.069000  1.0
  O  O2314  1  0.188400  0.753800  0.069000  1.0
  O  O2315  1  0.684800  0.811600  0.931000  1.0
  O  O2316  1  0.246200  0.119400  0.931000  1.0
  O  O2317  1  0.032500  0.452000  0.137600  1.0
  O  O2318  1  0.105100  0.685600  0.137600  1.0
  O  O2319  1  0.548000  0.894900  0.862400  1.0
  O  O2320  1  0.314400  0.967500  0.862400  1.0
  O  O2321  1  0.079700  0.447900  0.140200  1.0
  O  O2322  1  0.060500  0.692300  0.140200  1.0
  O  O2323  1  0.552100  0.939500  0.859800  1.0
  O  O2324  1  0.307700  0.920300  0.859800  1.0
  O  O2325  1  0.147900  0.298300  0.059400  1.0
  O  O2326  1  0.911500  0.761100  0.059400  1.0
  O  O2327  1  0.701700  0.088500  0.940600  1.0
  O  O2328  1  0.238900  0.852100  0.940600  1.0
  O  O2329  1  0.134900  0.243000  0.031200  1.0
  O  O2330  1  0.896300  0.788200  0.031200  1.0
  O  O2331  1  0.757000  0.103700  0.968800  1.0
  O  O2332  1  0.211800  0.865100  0.968800  1.0
  O  O2333  1  0.261900  0.373400  0.030800  1.0
  O  O2334  1  0.768900  0.657400  0.030800  1.0
  O  O2335  1  0.626600  0.231100  0.969200  1.0
  O  O2336  1  0.342600  0.738100  0.969200  1.0
  O  O2337  1  0.233100  0.389900  0.057000  1.0
  O  O2338  1  0.823900  0.667100  0.057000  1.0
  O  O2339  1  0.610100  0.176100  0.943000  1.0
  O  O2340  1  0.332900  0.766900  0.943000  1.0
  O  O2341  1  0.251100  0.140100  0.823400  1.0
  O  O2342  1  0.572300  0.683300  0.823400  1.0
  O  O2343  1  0.859900  0.427700  0.176600  1.0
  O  O2344  1  0.316700  0.748900  0.176600  1.0
  O  O2345  1  0.277600  0.195000  0.860600  1.0
  O  O2346  1  0.583000  0.665600  0.860600  1.0
  O  O2347  1  0.805000  0.417000  0.139400  1.0
  O  O2348  1  0.334400  0.722400  0.139400  1.0
  O  O2349  1  0.341900  0.299800  0.859200  1.0
  O  O2350  1  0.517300  0.559400  0.859200  1.0
  O  O2351  1  0.700200  0.482700  0.140800  1.0
  O  O2352  1  0.440600  0.658100  0.140800  1.0
  O  O2353  1  0.345100  0.295700  0.814000  1.0
  O  O2354  1  0.468900  0.518300  0.814000  1.0
  O  O2355  1  0.704300  0.531100  0.186000  1.0
  O  O2356  1  0.481700  0.654900  0.186000  1.0
  O  O2357  1  0.196600  0.013200  0.604000  1.0
  O  O2358  1  0.407400  0.590800  0.604000  1.0
  O  O2359  1  0.986800  0.592600  0.396000  1.0
  O  O2360  1  0.409200  0.803400  0.396000  1.0
  O  O2361  1  0.191500  0.014400  0.647000  1.0
  O  O2362  1  0.455500  0.632600  0.647000  1.0
  O  O2363  1  0.985600  0.544500  0.353000  1.0
  O  O2364  1  0.367400  0.808500  0.353000  1.0
  O  O2365  1  0.932200  0.776300  0.405000  1.0
  O  O2366  1  0.472800  0.628700  0.405000  1.0
  O  O2367  1  0.223700  0.527200  0.595000  1.0
  O  O2368  1  0.371300  0.067800  0.595000  1.0
  O  O2369  1  0.936700  0.776700  0.362400  1.0
  O  O2370  1  0.425700  0.585700  0.362400  1.0
  O  O2371  1  0.223300  0.574300  0.637600  1.0
  O  O2372  1  0.414300  0.063300  0.637600  1.0
  O  O2373  1  0.649300  0.647500  0.155400  1.0
  O  O2374  1  0.506100  0.507900  0.155400  1.0
  O  O2375  1  0.352500  0.493900  0.844600  1.0
  O  O2376  1  0.492100  0.350700  0.844600  1.0
  O  O2377  1  0.644800  0.645800  0.197400  1.0
  O  O2378  1  0.552600  0.551600  0.197400  1.0
  O  O2379  1  0.354200  0.447400  0.802600  1.0
  O  O2380  1  0.448400  0.355200  0.802600  1.0
  O  O2381  1  0.501100  0.660200  0.010400  1.0
  O  O2382  1  0.509300  0.350200  0.010400  1.0
  O  O2383  1  0.339800  0.490700  0.989600  1.0
  O  O2384  1  0.649800  0.498900  0.989600  1.0
  O  O2385  1  0.454500  0.664800  0.009000  1.0
  O  O2386  1  0.554500  0.344200  0.009000  1.0
  O  O2387  1  0.335200  0.445500  0.991000  1.0
  O  O2388  1  0.655800  0.545500  0.991000  1.0
  O  O2389  1  0.938800  0.602800  0.137800  1.0
  O  O2390  1  0.199000  0.535000  0.137800  1.0
  O  O2391  1  0.397200  0.801000  0.862200  1.0
  O  O2392  1  0.465000  0.061200  0.862200  1.0
  O  O2393  1  0.936900  0.555500  0.135600  1.0
  O  O2394  1  0.198700  0.580100  0.135600  1.0
  O  O2395  1  0.444500  0.801300  0.864400  1.0
  O  O2396  1  0.419900  0.063100  0.864400  1.0
  Pd  Pd2397  1  0.815000  0.912200  0.695200  1.0
  Pd  Pd2398  1  0.880200  0.783000  0.695200  1.0
  Pd  Pd2399  1  0.087800  0.119800  0.304800  1.0
  Pd  Pd2400  1  0.217000  0.185000  0.304800  1.0
  Pd  Pd2401  1  0.820100  0.143300  0.915200  1.0
  Pd  Pd2402  1  0.095100  0.771900  0.915200  1.0
  Pd  Pd2403  1  0.856700  0.904900  0.084800  1.0
  Pd  Pd2404  1  0.228100  0.179900  0.084800  1.0
  Pd  Pd2405  1  0.046700  0.124300  0.909600  1.0
  Pd  Pd2406  1  0.862900  0.785300  0.909600  1.0
  Pd  Pd2407  1  0.875700  0.137100  0.090400  1.0
  Pd  Pd2408  1  0.214700  0.953300  0.090400  1.0
  Pd  Pd2409  1  0.132800  0.044700  0.718000  1.0
  Pd  Pd2410  1  0.585200  0.673300  0.718000  1.0
  Pd  Pd2411  1  0.955300  0.414800  0.282000  1.0
  Pd  Pd2412  1  0.326700  0.867200  0.282000  1.0
  Pd  Pd2413  1  0.895500  0.827900  0.497800  1.0
  Pd  Pd2414  1  0.602300  0.669900  0.497800  1.0
  Pd  Pd2415  1  0.172100  0.397700  0.502200  1.0
  Pd  Pd2416  1  0.330100  0.104500  0.502200  1.0
  Pd  Pd2417  1  0.617900  0.714100  0.300000  1.0
  Pd  Pd2418  1  0.682100  0.585900  0.300000  1.0
  Pd  Pd2419  1  0.285900  0.317900  0.700000  1.0
  Pd  Pd2420  1  0.414100  0.382100  0.700000  1.0
  Pd  Pd2421  1  0.545300  0.854500  0.503000  1.0
  Pd  Pd2422  1  0.957700  0.648500  0.503000  1.0
  Pd  Pd2423  1  0.145500  0.042300  0.497000  1.0
  Pd  Pd2424  1  0.351500  0.454700  0.497000  1.0
  Pd  Pd2425  1  0.547000  0.090700  0.721000  1.0
  Pd  Pd2426  1  0.174000  0.630300  0.721000  1.0
  Pd  Pd2427  1  0.909300  0.826000  0.279000  1.0
  Pd  Pd2428  1  0.369700  0.453000  0.279000  1.0
  Pd  Pd2429  1  0.628800  0.369000  0.914400  1.0
  Pd  Pd2430  1  0.285600  0.545400  0.914400  1.0
  Pd  Pd2431  1  0.631000  0.714400  0.085600  1.0
  Pd  Pd2432  1  0.454600  0.371200  0.085600  1.0
  Pd  Pd2433  1  0.905100  0.420400  0.056200  1.0
  Pd  Pd2434  1  0.151100  0.635800  0.056200  1.0
  Pd  Pd2435  1  0.579600  0.848900  0.943800  1.0
  Pd  Pd2436  1  0.364200  0.094900  0.943800  1.0
  Pd  Pd2437  1  0.137600  0.405200  0.062800  1.0
  Pd  Pd2438  1  0.925200  0.657600  0.062800  1.0
  Pd  Pd2439  1  0.594800  0.074800  0.937200  1.0
  Pd  Pd2440  1  0.342400  0.862400  0.937200  1.0
  Pd  Pd2441  1  0.266000  0.319100  0.912000  1.0
  Pd  Pd2442  1  0.646000  0.592900  0.912000  1.0
  Pd  Pd2443  1  0.680900  0.354000  0.088000  1.0
  Pd  Pd2444  1  0.407100  0.734000  0.088000  1.0
  Se  Se2445  1  0.805000  0.024000  0.804000  1.0
  Se  Se2446  1  0.999000  0.780000  0.804000  1.0
  Se  Se2447  1  0.976000  0.001000  0.196000  1.0
  Se  Se2448  1  0.220000  0.195000  0.196000  1.0
  Se  Se2449  1  0.941000  0.145000  0.928000  1.0
  Se  Se2450  1  0.987000  0.783000  0.928000  1.0
  Se  Se2451  1  0.855000  0.013000  0.072000  1.0
  Se  Se2452  1  0.217000  0.059000  0.072000  1.0
  Se  Se2453  1  0.937900  0.011900  0.801800  1.0
  Se  Se2454  1  0.863900  0.789900  0.801800  1.0
  Se  Se2455  1  0.988100  0.136100  0.198200  1.0
  Se  Se2456  1  0.210100  0.062100  0.198200  1.0
  Se  Se2457  1  0.093300  0.088300  0.820600  1.0
  Se  Se2458  1  0.727300  0.732300  0.820600  1.0
  Se  Se2459  1  0.911700  0.272700  0.179400  1.0
  Se  Se2460  1  0.267700  0.906700  0.179400  1.0
  Se  Se2461  1  0.014100  0.929100  0.608200  1.0
  Se  Se2462  1  0.594100  0.679100  0.608200  1.0
  Se  Se2463  1  0.070900  0.405900  0.391800  1.0
  Se  Se2464  1  0.320900  0.985900  0.391800  1.0
  Se  Se2465  1  0.856400  0.865400  0.600800  1.0
  Se  Se2466  1  0.744400  0.735400  0.600800  1.0
  Se  Se2467  1  0.134600  0.255600  0.399200  1.0
  Se  Se2468  1  0.264600  0.143600  0.399200  1.0
  Se  Se2469  1  0.756400  0.771400  0.404800  1.0
  Se  Se2470  1  0.648400  0.633400  0.404800  1.0
  Se  Se2471  1  0.228600  0.351600  0.595200  1.0
  Se  Se2472  1  0.366600  0.243600  0.595200  1.0
  Se  Se2473  1  0.575400  0.774400  0.396800  1.0
  Se  Se2474  1  0.821400  0.622400  0.396800  1.0
  Se  Se2475  1  0.225600  0.178600  0.603200  1.0
  Se  Se2476  1  0.377600  0.424600  0.603200  1.0
  Se  Se2477  1  0.678000  0.879000  0.596000  1.0
  Se  Se2478  1  0.918000  0.717000  0.596000  1.0
  Se  Se2479  1  0.121000  0.082000  0.404000  1.0
  Se  Se2480  1  0.283000  0.322000  0.404000  1.0
  Se  Se2481  1  0.543500  0.975500  0.613000  1.0
  Se  Se2482  1  0.069500  0.637500  0.613000  1.0
  Se  Se2483  1  0.024500  0.930500  0.387000  1.0
  Se  Se2484  1  0.362500  0.456500  0.387000  1.0
  Se  Se2485  1  0.685100  0.120100  0.824200  1.0
  Se  Se2486  1  0.139100  0.704100  0.824200  1.0
  Se  Se2487  1  0.879900  0.860900  0.175800  1.0
  Se  Se2488  1  0.295900  0.314900  0.175800  1.0
  Se  Se2489  1  0.586000  0.227000  0.822000  1.0
  Se  Se2490  1  0.236000  0.595000  0.822000  1.0
  Se  Se2491  1  0.773000  0.764000  0.178000  1.0
  Se  Se2492  1  0.405000  0.414000  0.178000  1.0
  Se  Se2493  1  0.761400  0.393400  0.988800  1.0
  Se  Se2494  1  0.227400  0.595400  0.988800  1.0
  Se  Se2495  1  0.606600  0.772600  0.011200  1.0
  Se  Se2496  1  0.404600  0.238600  0.011200  1.0
  Se  Se2497  1  0.862700  0.288700  0.997400  1.0
  Se  Se2498  1  0.134700  0.708700  0.997400  1.0
  Se  Se2499  1  0.711300  0.865300  0.002600  1.0
  Se  Se2500  1  0.291300  0.137300  0.002600  1.0
  Se  Se2501  1  0.021900  0.411900  0.059800  1.0
  Se  Se2502  1  0.037900  0.647900  0.059800  1.0
  Se  Se2503  1  0.588100  0.962100  0.940200  1.0
  Se  Se2504  1  0.352100  0.978100  0.940200  1.0
  Se  Se2505  1  0.096700  0.267700  0.989400  1.0
  Se  Se2506  1  0.892700  0.721700  0.989400  1.0
  Se  Se2507  1  0.732300  0.107300  0.010600  1.0
  Se  Se2508  1  0.278300  0.903300  0.010600  1.0
  Se  Se2509  1  0.207000  0.363000  0.988000  1.0
  Se  Se2510  1  0.781000  0.625000  0.988000  1.0
  Se  Se2511  1  0.637000  0.219000  0.012000  1.0
  Se  Se2512  1  0.375000  0.793000  0.012000  1.0
  Se  Se2513  1  0.205700  0.178700  0.819400  1.0
  Se  Se2514  1  0.613700  0.640700  0.819400  1.0
  Se  Se2515  1  0.821300  0.386300  0.180600  1.0
  Se  Se2516  1  0.359300  0.794300  0.180600  1.0
  Se  Se2517  1  0.282500  0.304500  0.801000  1.0
  Se  Se2518  1  0.518500  0.496500  0.801000  1.0
  Se  Se2519  1  0.695500  0.481500  0.199000  1.0
  Se  Se2520  1  0.503500  0.717500  0.199000  1.0
  Se  Se2521  1  0.144600  0.039600  0.607200  1.0
  Se  Se2522  1  0.462600  0.567600  0.607200  1.0
  Se  Se2523  1  0.960400  0.537400  0.392800  1.0
  Se  Se2524  1  0.432400  0.855400  0.392800  1.0
  Se  Se2525  1  0.904200  0.830200  0.390400  1.0
  Se  Se2526  1  0.486200  0.560200  0.390400  1.0
  Se  Se2527  1  0.169800  0.513800  0.609600  1.0
  Se  Se2528  1  0.439800  0.095800  0.609600  1.0
  Se  Se2529  1  0.642400  0.706400  0.198800  1.0
  Se  Se2530  1  0.556400  0.492400  0.198800  1.0
  Se  Se2531  1  0.293600  0.443600  0.801200  1.0
  Se  Se2532  1  0.507600  0.357600  0.801200  1.0
  Se  Se2533  1  0.508800  0.719800  0.065600  1.0
  Se  Se2534  1  0.556800  0.345800  0.065600  1.0
  Se  Se2535  1  0.280200  0.443200  0.934400  1.0
  Se  Se2536  1  0.654200  0.491200  0.934400  1.0
  Se  Se2537  1  0.919200  0.542200  0.062400  1.0
  Se  Se2538  1  0.143200  0.520200  0.062400  1.0
  Se  Se2539  1  0.457800  0.856800  0.937600  1.0
  Se  Se2540  1  0.479800  0.080800  0.937600  1.0
