
#######################################################################
#
#                 Cambridge Crystallographic Data Centre
#                                CCDC 
#
#######################################################################
#
# If this CIF has been generated from an entry in the Cambridge 
# Structural Database, then it will include bibliographic, chemical, 
# crystal, experimental, refinement or atomic coordinate data resulting 
# from the CCDC's data processing and validation procedures.
#
#######################################################################

data_SIHJID
_chemical_formula_moiety         
'C888 H768 N120 O24 Pd12 48+,48(C1 F3 O3 S1 1-),90(H2 O1)'
_chemical_name_systematic        
'tetracosakis(\m~2~-N,N,N-trimethyl(4-((4-(phenyldiazenyl)benzyl)oxy)-3,5-bis(pyridin-4-ylethynyl)phenyl)methanaminium)-dodeca-palladium octatetrakis(trifluoromethanesulfonate) hydrate'
_symmetry_cell_setting           cubic
_symmetry_space_group_name_H-M   'F m -3 m'
_symmetry_Int_Tables_number      225
_space_group_name_Hall           '-F 4 2 3'
loop_
_symmetry_equiv_pos_site_id
_symmetry_equiv_pos_as_xyz
1 x,y,z
2 z,x,y
3 y,z,x
4 y,x,-z
5 y,-x,z
6 -y,x,z
7 x,z,-y
8 -x,z,y
9 x,-z,y
10 z,y,-x
11 z,-y,x
12 -z,y,x
13 x,1/2+y,1/2+z
14 z,1/2+x,1/2+y
15 y,1/2+z,1/2+x
16 y,1/2+x,1/2-z
17 y,1/2-x,1/2+z
18 -y,1/2+x,1/2+z
19 x,1/2+z,1/2-y
20 -x,1/2+z,1/2+y
21 x,1/2-z,1/2+y
22 z,1/2+y,1/2-x
23 z,1/2-y,1/2+x
24 -z,1/2+y,1/2+x
25 1/2+x,y,1/2+z
26 1/2+z,x,1/2+y
27 1/2+y,z,1/2+x
28 1/2+y,x,1/2-z
29 1/2+y,-x,1/2+z
30 1/2-y,x,1/2+z
31 1/2+x,z,1/2-y
32 1/2-x,z,1/2+y
33 1/2+x,-z,1/2+y
34 1/2+z,y,1/2-x
35 1/2+z,-y,1/2+x
36 1/2-z,y,1/2+x
37 1/2+x,1/2+y,z
38 1/2+z,1/2+x,y
39 1/2+y,1/2+z,x
40 1/2+y,1/2+x,-z
41 1/2+y,1/2-x,z
42 1/2-y,1/2+x,z
43 1/2+x,1/2+z,-y
44 1/2-x,1/2+z,y
45 1/2+x,1/2-z,y
46 1/2+z,1/2+y,-x
47 1/2+z,1/2-y,x
48 1/2-z,1/2+y,x
49 -x,-y,z
50 -x,y,-z
51 x,-y,-z
52 z,-x,-y
53 -z,-x,y
54 -z,x,-y
55 -y,z,-x
56 y,-z,-x
57 -y,-z,x
58 -y,-x,-z
59 -x,-z,-y
60 -z,-y,-x
61 -x,1/2-y,1/2+z
62 -x,1/2+y,1/2-z
63 x,1/2-y,1/2-z
64 z,1/2-x,1/2-y
65 -z,1/2-x,1/2+y
66 -z,1/2+x,1/2-y
67 -y,1/2+z,1/2-x
68 y,1/2-z,1/2-x
69 -y,1/2-z,1/2+x
70 -y,1/2-x,1/2-z
71 -x,1/2-z,1/2-y
72 -z,1/2-y,1/2-x
73 1/2-x,-y,1/2+z
74 1/2-x,y,1/2-z
75 1/2+x,-y,1/2-z
76 1/2+z,-x,1/2-y
77 1/2-z,-x,1/2+y
78 1/2-z,x,1/2-y
79 1/2-y,z,1/2-x
80 1/2+y,-z,1/2-x
81 1/2-y,-z,1/2+x
82 1/2-y,-x,1/2-z
83 1/2-x,-z,1/2-y
84 1/2-z,-y,1/2-x
85 1/2-x,1/2-y,z
86 1/2-x,1/2+y,-z
87 1/2+x,1/2-y,-z
88 1/2+z,1/2-x,-y
89 1/2-z,1/2-x,y
90 1/2-z,1/2+x,-y
91 1/2-y,1/2+z,-x
92 1/2+y,1/2-z,-x
93 1/2-y,1/2-z,x
94 1/2-y,1/2-x,-z
95 1/2-x,1/2-z,-y
96 1/2-z,1/2-y,-x
97 -x,-y,-z
98 -z,-x,-y
99 -y,-z,-x
100 -y,-x,z
101 -y,x,-z
102 y,-x,-z
103 -x,-z,y
104 x,-z,-y
105 -x,z,-y
106 -z,-y,x
107 -z,y,-x
108 z,-y,-x
109 -x,1/2-y,1/2-z
110 -z,1/2-x,1/2-y
111 -y,1/2-z,1/2-x
112 -y,1/2-x,1/2+z
113 -y,1/2+x,1/2-z
114 y,1/2-x,1/2-z
115 -x,1/2-z,1/2+y
116 x,1/2-z,1/2-y
117 -x,1/2+z,1/2-y
118 -z,1/2-y,1/2+x
119 -z,1/2+y,1/2-x
120 z,1/2-y,1/2-x
121 1/2-x,-y,1/2-z
122 1/2-z,-x,1/2-y
123 1/2-y,-z,1/2-x
124 1/2-y,-x,1/2+z
125 1/2-y,x,1/2-z
126 1/2+y,-x,1/2-z
127 1/2-x,-z,1/2+y
128 1/2+x,-z,1/2-y
129 1/2-x,z,1/2-y
130 1/2-z,-y,1/2+x
131 1/2-z,y,1/2-x
132 1/2+z,-y,1/2-x
133 1/2-x,1/2-y,-z
134 1/2-z,1/2-x,-y
135 1/2-y,1/2-z,-x
136 1/2-y,1/2-x,z
137 1/2-y,1/2+x,-z
138 1/2+y,1/2-x,-z
139 1/2-x,1/2-z,y
140 1/2+x,1/2-z,-y
141 1/2-x,1/2+z,-y
142 1/2-z,1/2-y,x
143 1/2-z,1/2+y,-x
144 1/2+z,1/2-y,-x
145 x,y,-z
146 x,-y,z
147 -x,y,z
148 -z,x,y
149 z,x,-y
150 z,-x,y
151 y,-z,x
152 -y,z,x
153 y,z,-x
154 y,x,z
155 x,z,y
156 z,y,x
157 x,1/2+y,1/2-z
158 x,1/2-y,1/2+z
159 -x,1/2+y,1/2+z
160 -z,1/2+x,1/2+y
161 z,1/2+x,1/2-y
162 z,1/2-x,1/2+y
163 y,1/2-z,1/2+x
164 -y,1/2+z,1/2+x
165 y,1/2+z,1/2-x
166 y,1/2+x,1/2+z
167 x,1/2+z,1/2+y
168 z,1/2+y,1/2+x
169 1/2+x,y,1/2-z
170 1/2+x,-y,1/2+z
171 1/2-x,y,1/2+z
172 1/2-z,x,1/2+y
173 1/2+z,x,1/2-y
174 1/2+z,-x,1/2+y
175 1/2+y,-z,1/2+x
176 1/2-y,z,1/2+x
177 1/2+y,z,1/2-x
178 1/2+y,x,1/2+z
179 1/2+x,z,1/2+y
180 1/2+z,y,1/2+x
181 1/2+x,1/2+y,-z
182 1/2+x,1/2-y,z
183 1/2-x,1/2+y,z
184 1/2-z,1/2+x,y
185 1/2+z,1/2+x,-y
186 1/2+z,1/2-x,y
187 1/2+y,1/2-z,x
188 1/2-y,1/2+z,x
189 1/2+y,1/2+z,-x
190 1/2+y,1/2+x,z
191 1/2+x,1/2+z,y
192 1/2+z,1/2+y,x
_cell_length_a                   61.794(7)
_cell_length_b                   61.794(7)
_cell_length_c                   61.794(7)
_cell_angle_alpha                90
_cell_angle_beta                 90
_cell_angle_gamma                90
_cell_volume                     235960
_exptl_crystal_colour            red
_exptl_crystal_description       block
_chemical_melting_point          'above 160 deg.C (dec.)'
_cell_formula_units_Z            12
_exptl_crystal_recrystallization_method 1,4-dioxane/acetonitrile
loop_
_atom_site_label
_atom_site_type_symbol
_atom_site_fract_x
_atom_site_fract_y
_atom_site_fract_z
Pd1 Pd 0.20095(6) 0.0000 0.20095(6)
N1 N 0.2177(4) 0.0237(4) 0.1846(4)
C1 C 0.2366(7) 0.0329(5) 0.1909(6)
C2 C 0.2474(7) 0.0470(5) 0.1791(6)
C3 C 0.2397(8) 0.0521(8) 0.1619(9)
C4 C 0.2211(6) 0.0454(5) 0.1515(7)
C5 C 0.2115(6) 0.0312(6) 0.1666(7)
C6 C 0.2618(7) 0.0789(7) 0.1368(8)
C7 C 0.2550(8) 0.0684(7) 0.1465(8)
C8 C 0.3063(5) 0.0984(3) 0.0984(3)
C9 C 0.2960(5) 0.0874(3) 0.1131(3)
C10 C 0.2757(6) 0.0911(3) 0.1169(3)
C11 C 0.2655(6) 0.1059(3) 0.1059(3)
O1 O 0.2439(6) 0.1083(3) 0.1083(3)
N2 N 0.3339(11) 0.0766(6) 0.0766(6)
C12 C 0.3639(13) 0.0722(9) 0.0722(9)
C13 C 0.3296(6) 0.0941(7) 0.0941(7)
Pd1A Pd 0.20095(6) 0.20095(6) 0.0000
Pd1C Pd 0.0000 0.20095(6) -0.20095(6)
Pd1RC Pd -0.20095(6) 0.0000 -0.20095(6)
Pd1SC Pd -0.20095(6) -0.20095(6) 0.0000
Pd1D Pd 0.0000 -0.20095(6) 0.20095(6)
Pd1H Pd 0.20095(6) -0.20095(6) 0.0000
Pd1TC Pd 0.0000 -0.20095(6) -0.20095(6)
Pd1G Pd -0.20095(6) 0.20095(6) 0.0000
Pd1B Pd 0.0000 0.20095(6) 0.20095(6)
Pd1I Pd 0.20095(6) 0.0000 -0.20095(6)
Pd1K Pd -0.20095(6) 0.0000 0.20095(6)
N1XE N 0.2177(4) 0.1846(4) 0.0237(4)
N1RE N 0.1846(4) 0.2177(4) -0.0237(4)
N1C N 0.0237(4) 0.2177(4) -0.1846(4)
N1BB N -0.0237(4) 0.1846(4) -0.2177(4)
N1BD N -0.1846(4) 0.0237(4) -0.2177(4)
N1RC N -0.2177(4) -0.0237(4) -0.1846(4)
N1FB N -0.2177(4) -0.1846(4) -0.0237(4)
N1ZA N -0.1846(4) -0.2177(4) 0.0237(4)
N1UC N -0.0237(4) -0.2177(4) 0.1846(4)
N1TE N 0.0237(4) -0.1846(4) 0.2177(4)
N1J N 0.1846(4) -0.0237(4) 0.2177(4)
N1OE N 0.2177(4) -0.0237(4) 0.1846(4)
N1H N 0.2177(4) -0.1846(4) 0.0237(4)
N1YA N 0.1846(4) -0.2177(4) -0.0237(4)
N1WC N 0.0237(4) -0.2177(4) -0.1846(4)
N1TC N -0.0237(4) -0.1846(4) -0.2177(4)
N1GB N -0.1846(4) -0.0237(4) -0.2177(4)
N1WA N -0.2177(4) 0.0237(4) -0.1846(4)
N1ZC N -0.2177(4) 0.1846(4) -0.0237(4)
N1QE N -0.1846(4) 0.2177(4) 0.0237(4)
N1E N -0.0237(4) 0.2177(4) 0.1846(4)
N1B N 0.0237(4) 0.1846(4) 0.2177(4)
N1YE N 0.1846(4) 0.0237(4) 0.2177(4)
N1WE N 0.0237(4) 0.2177(4) 0.1846(4)
N1A N 0.1846(4) 0.2177(4) 0.0237(4)
N1F N 0.2177(4) 0.1846(4) -0.0237(4)
N1NE N 0.2177(4) 0.0237(4) -0.1846(4)
N1CD N 0.1846(4) -0.0237(4) -0.2177(4)
N1CB N 0.0237(4) -0.1846(4) -0.2177(4)
N1EB N -0.0237(4) -0.2177(4) -0.1846(4)
N1SC N -0.1846(4) -0.2177(4) -0.0237(4)
N1XC N -0.2177(4) -0.1846(4) 0.0237(4)
N1VA N -0.2177(4) -0.0237(4) 0.1846(4)
N1K N -0.1846(4) 0.0237(4) 0.2177(4)
N1UE N -0.0237(4) 0.1846(4) 0.2177(4)
N1PE N -0.2177(4) 0.0237(4) 0.1846(4)
N1G N -0.2177(4) 0.1846(4) 0.0237(4)
N1AB N -0.1846(4) 0.2177(4) -0.0237(4)
N1VC N -0.0237(4) 0.2177(4) -0.1846(4)
N1VE N 0.0237(4) 0.1846(4) -0.2177(4)
N1I N 0.1846(4) 0.0237(4) -0.2177(4)
N1XA N 0.2177(4) -0.0237(4) -0.1846(4)
N1YC N 0.2177(4) -0.1846(4) -0.0237(4)
N1SE N 0.1846(4) -0.2177(4) 0.0237(4)
N1D N 0.0237(4) -0.2177(4) 0.1846(4)
N1DB N -0.0237(4) -0.1846(4) 0.2177(4)
N1AD N -0.1846(4) -0.0237(4) 0.2177(4)
C1XE C 0.2366(7) 0.1909(6) 0.0329(5)
C1RE C 0.1909(6) 0.2366(7) -0.0329(5)
C1C C 0.0329(5) 0.2366(7) -0.1909(6)
C1BB C -0.0329(5) 0.1909(6) -0.2366(7)
C1BD C -0.1909(6) 0.0329(5) -0.2366(7)
C1RC C -0.2366(7) -0.0329(5) -0.1909(6)
C1FB C -0.2366(7) -0.1909(6) -0.0329(5)
C1ZA C -0.1909(6) -0.2366(7) 0.0329(5)
C1UC C -0.0329(5) -0.2366(7) 0.1909(6)
C1TE C 0.0329(5) -0.1909(6) 0.2366(7)
C1J C 0.1909(6) -0.0329(5) 0.2366(7)
C1OE C 0.2366(7) -0.0329(5) 0.1909(6)
C1H C 0.2366(7) -0.1909(6) 0.0329(5)
C1YA C 0.1909(6) -0.2366(7) -0.0329(5)
C1WC C 0.0329(5) -0.2366(7) -0.1909(6)
C1TC C -0.0329(5) -0.1909(6) -0.2366(7)
C1GB C -0.1909(6) -0.0329(5) -0.2366(7)
C1WA C -0.2366(7) 0.0329(5) -0.1909(6)
C1ZC C -0.2366(7) 0.1909(6) -0.0329(5)
C1QE C -0.1909(6) 0.2366(7) 0.0329(5)
C1E C -0.0329(5) 0.2366(7) 0.1909(6)
C1B C 0.0329(5) 0.1909(6) 0.2366(7)
C1YE C 0.1909(6) 0.0329(5) 0.2366(7)
C1WE C 0.0329(5) 0.2366(7) 0.1909(6)
C1A C 0.1909(6) 0.2366(7) 0.0329(5)
C1F C 0.2366(7) 0.1909(6) -0.0329(5)
C1NE C 0.2366(7) 0.0329(5) -0.1909(6)
C1CD C 0.1909(6) -0.0329(5) -0.2366(7)
C1CB C 0.0329(5) -0.1909(6) -0.2366(7)
C1EB C -0.0329(5) -0.2366(7) -0.1909(6)
C1SC C -0.1909(6) -0.2366(7) -0.0329(5)
C1XC C -0.2366(7) -0.1909(6) 0.0329(5)
C1VA C -0.2366(7) -0.0329(5) 0.1909(6)
C1K C -0.1909(6) 0.0329(5) 0.2366(7)
C1UE C -0.0329(5) 0.1909(6) 0.2366(7)
C1PE C -0.2366(7) 0.0329(5) 0.1909(6)
C1G C -0.2366(7) 0.1909(6) 0.0329(5)
C1AB C -0.1909(6) 0.2366(7) -0.0329(5)
C1VC C -0.0329(5) 0.2366(7) -0.1909(6)
C1VE C 0.0329(5) 0.1909(6) -0.2366(7)
C1I C 0.1909(6) 0.0329(5) -0.2366(7)
C1XA C 0.2366(7) -0.0329(5) -0.1909(6)
C1YC C 0.2366(7) -0.1909(6) -0.0329(5)
C1SE C 0.1909(6) -0.2366(7) 0.0329(5)
C1D C 0.0329(5) -0.2366(7) 0.1909(6)
C1DB C -0.0329(5) -0.1909(6) 0.2366(7)
C1AD C -0.1909(6) -0.0329(5) 0.2366(7)
C2XE C 0.2474(7) 0.1791(6) 0.0470(5)
C2RE C 0.1791(6) 0.2474(7) -0.0470(5)
C2C C 0.0470(5) 0.2474(7) -0.1791(6)
C2BB C -0.0470(5) 0.1791(6) -0.2474(7)
C2BD C -0.1791(6) 0.0470(5) -0.2474(7)
C2RC C -0.2474(7) -0.0470(5) -0.1791(6)
C2FB C -0.2474(7) -0.1791(6) -0.0470(5)
C2ZA C -0.1791(6) -0.2474(7) 0.0470(5)
C2UC C -0.0470(5) -0.2474(7) 0.1791(6)
C2TE C 0.0470(5) -0.1791(6) 0.2474(7)
C2J C 0.1791(6) -0.0470(5) 0.2474(7)
C2OE C 0.2474(7) -0.0470(5) 0.1791(6)
C2H C 0.2474(7) -0.1791(6) 0.0470(5)
C2YA C 0.1791(6) -0.2474(7) -0.0470(5)
C2WC C 0.0470(5) -0.2474(7) -0.1791(6)
C2TC C -0.0470(5) -0.1791(6) -0.2474(7)
C2GB C -0.1791(6) -0.0470(5) -0.2474(7)
C2WA C -0.2474(7) 0.0470(5) -0.1791(6)
C2ZC C -0.2474(7) 0.1791(6) -0.0470(5)
C2QE C -0.1791(6) 0.2474(7) 0.0470(5)
C2E C -0.0470(5) 0.2474(7) 0.1791(6)
C2B C 0.0470(5) 0.1791(6) 0.2474(7)
C2YE C 0.1791(6) 0.0470(5) 0.2474(7)
C2WE C 0.0470(5) 0.2474(7) 0.1791(6)
C2A C 0.1791(6) 0.2474(7) 0.0470(5)
C2F C 0.2474(7) 0.1791(6) -0.0470(5)
C2NE C 0.2474(7) 0.0470(5) -0.1791(6)
C2CD C 0.1791(6) -0.0470(5) -0.2474(7)
C2CB C 0.0470(5) -0.1791(6) -0.2474(7)
C2EB C -0.0470(5) -0.2474(7) -0.1791(6)
C2SC C -0.1791(6) -0.2474(7) -0.0470(5)
C2XC C -0.2474(7) -0.1791(6) 0.0470(5)
C2VA C -0.2474(7) -0.0470(5) 0.1791(6)
C2K C -0.1791(6) 0.0470(5) 0.2474(7)
C2UE C -0.0470(5) 0.1791(6) 0.2474(7)
C2PE C -0.2474(7) 0.0470(5) 0.1791(6)
C2G C -0.2474(7) 0.1791(6) 0.0470(5)
C2AB C -0.1791(6) 0.2474(7) -0.0470(5)
C2VC C -0.0470(5) 0.2474(7) -0.1791(6)
C2VE C 0.0470(5) 0.1791(6) -0.2474(7)
C2I C 0.1791(6) 0.0470(5) -0.2474(7)
C2XA C 0.2474(7) -0.0470(5) -0.1791(6)
C2YC C 0.2474(7) -0.1791(6) -0.0470(5)
C2SE C 0.1791(6) -0.2474(7) 0.0470(5)
C2D C 0.0470(5) -0.2474(7) 0.1791(6)
C2DB C -0.0470(5) -0.1791(6) 0.2474(7)
C2AD C -0.1791(6) -0.0470(5) 0.2474(7)
C3XE C 0.2397(8) 0.1619(9) 0.0521(8)
C3RE C 0.1619(9) 0.2397(8) -0.0521(8)
C3C C 0.0521(8) 0.2397(8) -0.1619(9)
C3BB C -0.0521(8) 0.1619(9) -0.2397(8)
C3BD C -0.1619(9) 0.0521(8) -0.2397(8)
C3RC C -0.2397(8) -0.0521(8) -0.1619(9)
C3FB C -0.2397(8) -0.1619(9) -0.0521(8)
C3ZA C -0.1619(9) -0.2397(8) 0.0521(8)
C3UC C -0.0521(8) -0.2397(8) 0.1619(9)
C3TE C 0.0521(8) -0.1619(9) 0.2397(8)
C3J C 0.1619(9) -0.0521(8) 0.2397(8)
C3OE C 0.2397(8) -0.0521(8) 0.1619(9)
C3H C 0.2397(8) -0.1619(9) 0.0521(8)
C3YA C 0.1619(9) -0.2397(8) -0.0521(8)
C3WC C 0.0521(8) -0.2397(8) -0.1619(9)
C3TC C -0.0521(8) -0.1619(9) -0.2397(8)
C3GB C -0.1619(9) -0.0521(8) -0.2397(8)
C3WA C -0.2397(8) 0.0521(8) -0.1619(9)
C3ZC C -0.2397(8) 0.1619(9) -0.0521(8)
C3QE C -0.1619(9) 0.2397(8) 0.0521(8)
C3E C -0.0521(8) 0.2397(8) 0.1619(9)
C3B C 0.0521(8) 0.1619(9) 0.2397(8)
C3YE C 0.1619(9) 0.0521(8) 0.2397(8)
C3WE C 0.0521(8) 0.2397(8) 0.1619(9)
C3A C 0.1619(9) 0.2397(8) 0.0521(8)
C3F C 0.2397(8) 0.1619(9) -0.0521(8)
C3NE C 0.2397(8) 0.0521(8) -0.1619(9)
C3CD C 0.1619(9) -0.0521(8) -0.2397(8)
C3CB C 0.0521(8) -0.1619(9) -0.2397(8)
C3EB C -0.0521(8) -0.2397(8) -0.1619(9)
C3SC C -0.1619(9) -0.2397(8) -0.0521(8)
C3XC C -0.2397(8) -0.1619(9) 0.0521(8)
C3VA C -0.2397(8) -0.0521(8) 0.1619(9)
C3K C -0.1619(9) 0.0521(8) 0.2397(8)
C3UE C -0.0521(8) 0.1619(9) 0.2397(8)
C3PE C -0.2397(8) 0.0521(8) 0.1619(9)
C3G C -0.2397(8) 0.1619(9) 0.0521(8)
C3AB C -0.1619(9) 0.2397(8) -0.0521(8)
C3VC C -0.0521(8) 0.2397(8) -0.1619(9)
C3VE C 0.0521(8) 0.1619(9) -0.2397(8)
C3I C 0.1619(9) 0.0521(8) -0.2397(8)
C3XA C 0.2397(8) -0.0521(8) -0.1619(9)
C3YC C 0.2397(8) -0.1619(9) -0.0521(8)
C3SE C 0.1619(9) -0.2397(8) 0.0521(8)
C3D C 0.0521(8) -0.2397(8) 0.1619(9)
C3DB C -0.0521(8) -0.1619(9) 0.2397(8)
C3AD C -0.1619(9) -0.0521(8) 0.2397(8)
C4RE C 0.1515(7) 0.2211(6) -0.0454(5)
C4BB C -0.0454(5) 0.1515(7) -0.2211(6)
C4RC C -0.2211(6) -0.0454(5) -0.1515(7)
C4ZA C -0.1515(7) -0.2211(6) 0.0454(5)
C4TE C 0.0454(5) -0.1515(7) 0.2211(6)
C4OE C 0.2211(6) -0.0454(5) 0.1515(7)
C4YA C 0.1515(7) -0.2211(6) -0.0454(5)
C4TC C -0.0454(5) -0.1515(7) -0.2211(6)
C4WA C -0.2211(6) 0.0454(5) -0.1515(7)
C4QE C -0.1515(7) 0.2211(6) 0.0454(5)
C4B C 0.0454(5) 0.1515(7) 0.2211(6)
C4YE C 0.1515(7) 0.0454(5) 0.2211(6)
C4WE C 0.0454(5) 0.2211(6) 0.1515(7)
C4F C 0.2211(6) 0.1515(7) -0.0454(5)
C4CD C 0.1515(7) -0.0454(5) -0.2211(6)
C4EB C -0.0454(5) -0.2211(6) -0.1515(7)
C4XC C -0.2211(6) -0.1515(7) 0.0454(5)
C4K C -0.1515(7) 0.0454(5) 0.2211(6)
C4UE C -0.0454(5) 0.1515(7) 0.2211(6)
C4PE C -0.2211(6) 0.0454(5) 0.1515(7)
C4AB C -0.1515(7) 0.2211(6) -0.0454(5)
C4VE C 0.0454(5) 0.1515(7) -0.2211(6)
C4XA C 0.2211(6) -0.0454(5) -0.1515(7)
C4SE C 0.1515(7) -0.2211(6) 0.0454(5)
C4DB C -0.0454(5) -0.1515(7) 0.2211(6)
C4AD C -0.1515(7) -0.0454(5) 0.2211(6)
C4D C 0.0454(5) -0.2211(6) 0.1515(7)
C4YC C 0.2211(6) -0.1515(7) -0.0454(5)
C4I C 0.1515(7) 0.0454(5) -0.2211(6)
C4VC C -0.0454(5) 0.2211(6) -0.1515(7)
C4G C -0.2211(6) 0.1515(7) 0.0454(5)
C4VA C -0.2211(6) -0.0454(5) 0.1515(7)
C4SC C -0.1515(7) -0.2211(6) -0.0454(5)
C4CB C 0.0454(5) -0.1515(7) -0.2211(6)
C4NE C 0.2211(6) 0.0454(5) -0.1515(7)
C4A C 0.1515(7) 0.2211(6) 0.0454(5)
C4E C -0.0454(5) 0.2211(6) 0.1515(7)
C4ZC C -0.2211(6) 0.1515(7) -0.0454(5)
C4GB C -0.1515(7) -0.0454(5) -0.2211(6)
C4WC C 0.0454(5) -0.2211(6) -0.1515(7)
C4H C 0.2211(6) -0.1515(7) 0.0454(5)
C4J C 0.1515(7) -0.0454(5) 0.2211(6)
C4UC C -0.0454(5) -0.2211(6) 0.1515(7)
C4FB C -0.2211(6) -0.1515(7) -0.0454(5)
C4BD C -0.1515(7) 0.0454(5) -0.2211(6)
C4C C 0.0454(5) 0.2211(6) -0.1515(7)
C4XE C 0.2211(6) 0.1515(7) 0.0454(5)
C5RE C 0.1666(7) 0.2115(6) -0.0312(6)
C5BB C -0.0312(6) 0.1666(7) -0.2115(6)
C5RC C -0.2115(6) -0.0312(6) -0.1666(7)
C5ZA C -0.1666(7) -0.2115(6) 0.0312(6)
C5TE C 0.0312(6) -0.1666(7) 0.2115(6)
C5OE C 0.2115(6) -0.0312(6) 0.1666(7)
C5YA C 0.1666(7) -0.2115(6) -0.0312(6)
C5TC C -0.0312(6) -0.1666(7) -0.2115(6)
C5WA C -0.2115(6) 0.0312(6) -0.1666(7)
C5QE C -0.1666(7) 0.2115(6) 0.0312(6)
C5B C 0.0312(6) 0.1666(7) 0.2115(6)
C5YE C 0.1666(7) 0.0312(6) 0.2115(6)
C5WE C 0.0312(6) 0.2115(6) 0.1666(7)
C5F C 0.2115(6) 0.1666(7) -0.0312(6)
C5CD C 0.1666(7) -0.0312(6) -0.2115(6)
C5EB C -0.0312(6) -0.2115(6) -0.1666(7)
C5XC C -0.2115(6) -0.1666(7) 0.0312(6)
C5K C -0.1666(7) 0.0312(6) 0.2115(6)
C5UE C -0.0312(6) 0.1666(7) 0.2115(6)
C5PE C -0.2115(6) 0.0312(6) 0.1666(7)
C5AB C -0.1666(7) 0.2115(6) -0.0312(6)
C5VE C 0.0312(6) 0.1666(7) -0.2115(6)
C5XA C 0.2115(6) -0.0312(6) -0.1666(7)
C5SE C 0.1666(7) -0.2115(6) 0.0312(6)
C5DB C -0.0312(6) -0.1666(7) 0.2115(6)
C5AD C -0.1666(7) -0.0312(6) 0.2115(6)
C5D C 0.0312(6) -0.2115(6) 0.1666(7)
C5YC C 0.2115(6) -0.1666(7) -0.0312(6)
C5I C 0.1666(7) 0.0312(6) -0.2115(6)
C5VC C -0.0312(6) 0.2115(6) -0.1666(7)
C5G C -0.2115(6) 0.1666(7) 0.0312(6)
C5VA C -0.2115(6) -0.0312(6) 0.1666(7)
C5SC C -0.1666(7) -0.2115(6) -0.0312(6)
C5CB C 0.0312(6) -0.1666(7) -0.2115(6)
C5NE C 0.2115(6) 0.0312(6) -0.1666(7)
C5A C 0.1666(7) 0.2115(6) 0.0312(6)
C5E C -0.0312(6) 0.2115(6) 0.1666(7)
C5ZC C -0.2115(6) 0.1666(7) -0.0312(6)
C5GB C -0.1666(7) -0.0312(6) -0.2115(6)
C5WC C 0.0312(6) -0.2115(6) -0.1666(7)
C5H C 0.2115(6) -0.1666(7) 0.0312(6)
C5J C 0.1666(7) -0.0312(6) 0.2115(6)
C5UC C -0.0312(6) -0.2115(6) 0.1666(7)
C5FB C -0.2115(6) -0.1666(7) -0.0312(6)
C5BD C -0.1666(7) 0.0312(6) -0.2115(6)
C5C C 0.0312(6) 0.2115(6) -0.1666(7)
C5XE C 0.2115(6) 0.1666(7) 0.0312(6)
C6XE C 0.2618(7) 0.1368(8) 0.0789(7)
C6RE C 0.1368(8) 0.2618(7) -0.0789(7)
C6C C 0.0789(7) 0.2618(7) -0.1368(8)
C6BB C -0.0789(7) 0.1368(8) -0.2618(7)
C6BD C -0.1368(8) 0.0789(7) -0.2618(7)
C6RC C -0.2618(7) -0.0789(7) -0.1368(8)
C6FB C -0.2618(7) -0.1368(8) -0.0789(7)
C6ZA C -0.1368(8) -0.2618(7) 0.0789(7)
C6UC C -0.0789(7) -0.2618(7) 0.1368(8)
C6TE C 0.0789(7) -0.1368(8) 0.2618(7)
C6J C 0.1368(8) -0.0789(7) 0.2618(7)
C6OE C 0.2618(7) -0.0789(7) 0.1368(8)
C6H C 0.2618(7) -0.1368(8) 0.0789(7)
C6YA C 0.1368(8) -0.2618(7) -0.0789(7)
C6WC C 0.0789(7) -0.2618(7) -0.1368(8)
C6TC C -0.0789(7) -0.1368(8) -0.2618(7)
C6GB C -0.1368(8) -0.0789(7) -0.2618(7)
C6WA C -0.2618(7) 0.0789(7) -0.1368(8)
C6ZC C -0.2618(7) 0.1368(8) -0.0789(7)
C6QE C -0.1368(8) 0.2618(7) 0.0789(7)
C6E C -0.0789(7) 0.2618(7) 0.1368(8)
C6B C 0.0789(7) 0.1368(8) 0.2618(7)
C6YE C 0.1368(8) 0.0789(7) 0.2618(7)
C6WE C 0.0789(7) 0.2618(7) 0.1368(8)
C6A C 0.1368(8) 0.2618(7) 0.0789(7)
C6F C 0.2618(7) 0.1368(8) -0.0789(7)
C6NE C 0.2618(7) 0.0789(7) -0.1368(8)
C6CD C 0.1368(8) -0.0789(7) -0.2618(7)
C6CB C 0.0789(7) -0.1368(8) -0.2618(7)
C6EB C -0.0789(7) -0.2618(7) -0.1368(8)
C6SC C -0.1368(8) -0.2618(7) -0.0789(7)
C6XC C -0.2618(7) -0.1368(8) 0.0789(7)
C6VA C -0.2618(7) -0.0789(7) 0.1368(8)
C6K C -0.1368(8) 0.0789(7) 0.2618(7)
C6UE C -0.0789(7) 0.1368(8) 0.2618(7)
C6PE C -0.2618(7) 0.0789(7) 0.1368(8)
C6G C -0.2618(7) 0.1368(8) 0.0789(7)
C6AB C -0.1368(8) 0.2618(7) -0.0789(7)
C6VC C -0.0789(7) 0.2618(7) -0.1368(8)
C6VE C 0.0789(7) 0.1368(8) -0.2618(7)
C6I C 0.1368(8) 0.0789(7) -0.2618(7)
C6XA C 0.2618(7) -0.0789(7) -0.1368(8)
C6YC C 0.2618(7) -0.1368(8) -0.0789(7)
C6SE C 0.1368(8) -0.2618(7) 0.0789(7)
C6D C 0.0789(7) -0.2618(7) 0.1368(8)
C6DB C -0.0789(7) -0.1368(8) 0.2618(7)
C6AD C -0.1368(8) -0.0789(7) 0.2618(7)
C7XE C 0.2550(8) 0.1465(8) 0.0684(7)
C7RE C 0.1465(8) 0.2550(8) -0.0684(7)
C7C C 0.0684(7) 0.2550(8) -0.1465(8)
C7BB C -0.0684(7) 0.1465(8) -0.2550(8)
C7BD C -0.1465(8) 0.0684(7) -0.2550(8)
C7RC C -0.2550(8) -0.0684(7) -0.1465(8)
C7FB C -0.2550(8) -0.1465(8) -0.0684(7)
C7ZA C -0.1465(8) -0.2550(8) 0.0684(7)
C7UC C -0.0684(7) -0.2550(8) 0.1465(8)
C7TE C 0.0684(7) -0.1465(8) 0.2550(8)
C7J C 0.1465(8) -0.0684(7) 0.2550(8)
C7OE C 0.2550(8) -0.0684(7) 0.1465(8)
C7H C 0.2550(8) -0.1465(8) 0.0684(7)
C7YA C 0.1465(8) -0.2550(8) -0.0684(7)
C7WC C 0.0684(7) -0.2550(8) -0.1465(8)
C7TC C -0.0684(7) -0.1465(8) -0.2550(8)
C7GB C -0.1465(8) -0.0684(7) -0.2550(8)
C7WA C -0.2550(8) 0.0684(7) -0.1465(8)
C7ZC C -0.2550(8) 0.1465(8) -0.0684(7)
C7QE C -0.1465(8) 0.2550(8) 0.0684(7)
C7E C -0.0684(7) 0.2550(8) 0.1465(8)
C7B C 0.0684(7) 0.1465(8) 0.2550(8)
C7YE C 0.1465(8) 0.0684(7) 0.2550(8)
C7WE C 0.0684(7) 0.2550(8) 0.1465(8)
C7A C 0.1465(8) 0.2550(8) 0.0684(7)
C7F C 0.2550(8) 0.1465(8) -0.0684(7)
C7NE C 0.2550(8) 0.0684(7) -0.1465(8)
C7CD C 0.1465(8) -0.0684(7) -0.2550(8)
C7CB C 0.0684(7) -0.1465(8) -0.2550(8)
C7EB C -0.0684(7) -0.2550(8) -0.1465(8)
C7SC C -0.1465(8) -0.2550(8) -0.0684(7)
C7XC C -0.2550(8) -0.1465(8) 0.0684(7)
C7VA C -0.2550(8) -0.0684(7) 0.1465(8)
C7K C -0.1465(8) 0.0684(7) 0.2550(8)
C7UE C -0.0684(7) 0.1465(8) 0.2550(8)
C7PE C -0.2550(8) 0.0684(7) 0.1465(8)
C7G C -0.2550(8) 0.1465(8) 0.0684(7)
C7AB C -0.1465(8) 0.2550(8) -0.0684(7)
C7VC C -0.0684(7) 0.2550(8) -0.1465(8)
C7VE C 0.0684(7) 0.1465(8) -0.2550(8)
C7I C 0.1465(8) 0.0684(7) -0.2550(8)
C7XA C 0.2550(8) -0.0684(7) -0.1465(8)
C7YC C 0.2550(8) -0.1465(8) -0.0684(7)
C7SE C 0.1465(8) -0.2550(8) 0.0684(7)
C7D C 0.0684(7) -0.2550(8) 0.1465(8)
C7DB C -0.0684(7) -0.1465(8) 0.2550(8)
C7AD C -0.1465(8) -0.0684(7) 0.2550(8)
C8C C 0.0984(3) 0.3063(5) -0.0984(3)
C8BD C -0.0984(3) 0.0984(3) -0.3063(5)
C8RC C -0.3063(5) -0.0984(3) -0.0984(3)
C8UC C -0.0984(3) -0.3063(5) 0.0984(3)
C8J C 0.0984(3) -0.0984(3) 0.3063(5)
C8H C 0.3063(5) -0.0984(3) 0.0984(3)
C8WC C 0.0984(3) -0.3063(5) -0.0984(3)
C8TC C -0.0984(3) -0.0984(3) -0.3063(5)
C8ZC C -0.3063(5) 0.0984(3) -0.0984(3)
C8E C -0.0984(3) 0.3063(5) 0.0984(3)
C8B C 0.0984(3) 0.0984(3) 0.3063(5)
C8A C 0.0984(3) 0.3063(5) 0.0984(3)
C8F C 0.3063(5) 0.0984(3) -0.0984(3)
C8CD C 0.0984(3) -0.0984(3) -0.3063(5)
C8SC C -0.0984(3) -0.3063(5) -0.0984(3)
C8XC C -0.3063(5) -0.0984(3) 0.0984(3)
C8K C -0.0984(3) 0.0984(3) 0.3063(5)
C8G C -0.3063(5) 0.0984(3) 0.0984(3)
C8VC C -0.0984(3) 0.3063(5) -0.0984(3)
C8I C 0.0984(3) 0.0984(3) -0.3063(5)
C8YC C 0.3063(5) -0.0984(3) -0.0984(3)
C8D C 0.0984(3) -0.3063(5) 0.0984(3)
C8AD C -0.0984(3) -0.0984(3) 0.3063(5)
C9XE C 0.2960(5) 0.1131(3) 0.0874(3)
C9RE C 0.1131(3) 0.2960(5) -0.0874(3)
C9C C 0.0874(3) 0.2960(5) -0.1131(3)
C9BB C -0.0874(3) 0.1131(3) -0.2960(5)
C9BD C -0.1131(3) 0.0874(3) -0.2960(5)
C9RC C -0.2960(5) -0.0874(3) -0.1131(3)
C9FB C -0.2960(5) -0.1131(3) -0.0874(3)
C9ZA C -0.1131(3) -0.2960(5) 0.0874(3)
C9UC C -0.0874(3) -0.2960(5) 0.1131(3)
C9TE C 0.0874(3) -0.1131(3) 0.2960(5)
C9J C 0.1131(3) -0.0874(3) 0.2960(5)
C9OE C 0.2960(5) -0.0874(3) 0.1131(3)
C9H C 0.2960(5) -0.1131(3) 0.0874(3)
C9YA C 0.1131(3) -0.2960(5) -0.0874(3)
C9WC C 0.0874(3) -0.2960(5) -0.1131(3)
C9TC C -0.0874(3) -0.1131(3) -0.2960(5)
C9GB C -0.1131(3) -0.0874(3) -0.2960(5)
C9WA C -0.2960(5) 0.0874(3) -0.1131(3)
C9ZC C -0.2960(5) 0.1131(3) -0.0874(3)
C9QE C -0.1131(3) 0.2960(5) 0.0874(3)
C9E C -0.0874(3) 0.2960(5) 0.1131(3)
C9B C 0.0874(3) 0.1131(3) 0.2960(5)
C9YE C 0.1131(3) 0.0874(3) 0.2960(5)
C9WE C 0.0874(3) 0.2960(5) 0.1131(3)
C9A C 0.1131(3) 0.2960(5) 0.0874(3)
C9F C 0.2960(5) 0.1131(3) -0.0874(3)
C9NE C 0.2960(5) 0.0874(3) -0.1131(3)
C9CD C 0.1131(3) -0.0874(3) -0.2960(5)
C9CB C 0.0874(3) -0.1131(3) -0.2960(5)
C9EB C -0.0874(3) -0.2960(5) -0.1131(3)
C9SC C -0.1131(3) -0.2960(5) -0.0874(3)
C9XC C -0.2960(5) -0.1131(3) 0.0874(3)
C9VA C -0.2960(5) -0.0874(3) 0.1131(3)
C9K C -0.1131(3) 0.0874(3) 0.2960(5)
C9UE C -0.0874(3) 0.1131(3) 0.2960(5)
C9PE C -0.2960(5) 0.0874(3) 0.1131(3)
C9G C -0.2960(5) 0.1131(3) 0.0874(3)
C9AB C -0.1131(3) 0.2960(5) -0.0874(3)
C9VC C -0.0874(3) 0.2960(5) -0.1131(3)
C9VE C 0.0874(3) 0.1131(3) -0.2960(5)
C9I C 0.1131(3) 0.0874(3) -0.2960(5)
C9XA C 0.2960(5) -0.0874(3) -0.1131(3)
C9YC C 0.2960(5) -0.1131(3) -0.0874(3)
C9SE C 0.1131(3) -0.2960(5) 0.0874(3)
C9D C 0.0874(3) -0.2960(5) 0.1131(3)
C9DB C -0.0874(3) -0.1131(3) 0.2960(5)
C9AD C -0.1131(3) -0.0874(3) 0.2960(5)
C10XE C 0.2757(6) 0.1169(3) 0.0911(3)
C10RE C 0.1169(3) 0.2757(6) -0.0911(3)
C10C C 0.0911(3) 0.2757(6) -0.1169(3)
C10BB C -0.0911(3) 0.1169(3) -0.2757(6)
C10BD C -0.1169(3) 0.0911(3) -0.2757(6)
C10RC C -0.2757(6) -0.0911(3) -0.1169(3)
C10FB C -0.2757(6) -0.1169(3) -0.0911(3)
C10ZA C -0.1169(3) -0.2757(6) 0.0911(3)
C10UC C -0.0911(3) -0.2757(6) 0.1169(3)
C10TE C 0.0911(3) -0.1169(3) 0.2757(6)
C10J C 0.1169(3) -0.0911(3) 0.2757(6)
C10OE C 0.2757(6) -0.0911(3) 0.1169(3)
C10H C 0.2757(6) -0.1169(3) 0.0911(3)
C10YA C 0.1169(3) -0.2757(6) -0.0911(3)
C10WC C 0.0911(3) -0.2757(6) -0.1169(3)
C10TC C -0.0911(3) -0.1169(3) -0.2757(6)
C10GB C -0.1169(3) -0.0911(3) -0.2757(6)
C10WA C -0.2757(6) 0.0911(3) -0.1169(3)
C10ZC C -0.2757(6) 0.1169(3) -0.0911(3)
C10QE C -0.1169(3) 0.2757(6) 0.0911(3)
C10E C -0.0911(3) 0.2757(6) 0.1169(3)
C10B C 0.0911(3) 0.1169(3) 0.2757(6)
C10YE C 0.1169(3) 0.0911(3) 0.2757(6)
C10WE C 0.0911(3) 0.2757(6) 0.1169(3)
C10A C 0.1169(3) 0.2757(6) 0.0911(3)
C10F C 0.2757(6) 0.1169(3) -0.0911(3)
C10NE C 0.2757(6) 0.0911(3) -0.1169(3)
C10CD C 0.1169(3) -0.0911(3) -0.2757(6)
C10CB C 0.0911(3) -0.1169(3) -0.2757(6)
C10EB C -0.0911(3) -0.2757(6) -0.1169(3)
C10SC C -0.1169(3) -0.2757(6) -0.0911(3)
C10XC C -0.2757(6) -0.1169(3) 0.0911(3)
C10VA C -0.2757(6) -0.0911(3) 0.1169(3)
C10K C -0.1169(3) 0.0911(3) 0.2757(6)
C10UE C -0.0911(3) 0.1169(3) 0.2757(6)
C10PE C -0.2757(6) 0.0911(3) 0.1169(3)
C10G C -0.2757(6) 0.1169(3) 0.0911(3)
C10AB C -0.1169(3) 0.2757(6) -0.0911(3)
C10VC C -0.0911(3) 0.2757(6) -0.1169(3)
C10VE C 0.0911(3) 0.1169(3) -0.2757(6)
C10I C 0.1169(3) 0.0911(3) -0.2757(6)
C10XA C 0.2757(6) -0.0911(3) -0.1169(3)
C10YC C 0.2757(6) -0.1169(3) -0.0911(3)
C10SE C 0.1169(3) -0.2757(6) 0.0911(3)
C10D C 0.0911(3) -0.2757(6) 0.1169(3)
C10DB C -0.0911(3) -0.1169(3) 0.2757(6)
C10AD C -0.1169(3) -0.0911(3) 0.2757(6)
C11C C 0.1059(3) 0.2655(6) -0.1059(3)
C11BD C -0.1059(3) 0.1059(3) -0.2655(6)
C11RC C -0.2655(6) -0.1059(3) -0.1059(3)
C11UC C -0.1059(3) -0.2655(6) 0.1059(3)
C11J C 0.1059(3) -0.1059(3) 0.2655(6)
C11H C 0.2655(6) -0.1059(3) 0.1059(3)
C11WC C 0.1059(3) -0.2655(6) -0.1059(3)
C11TC C -0.1059(3) -0.1059(3) -0.2655(6)
C11ZC C -0.2655(6) 0.1059(3) -0.1059(3)
C11E C -0.1059(3) 0.2655(6) 0.1059(3)
C11B C 0.1059(3) 0.1059(3) 0.2655(6)
C11A C 0.1059(3) 0.2655(6) 0.1059(3)
C11F C 0.2655(6) 0.1059(3) -0.1059(3)
C11CD C 0.1059(3) -0.1059(3) -0.2655(6)
C11SC C -0.1059(3) -0.2655(6) -0.1059(3)
C11XC C -0.2655(6) -0.1059(3) 0.1059(3)
C11K C -0.1059(3) 0.1059(3) 0.2655(6)
C11G C -0.2655(6) 0.1059(3) 0.1059(3)
C11VC C -0.1059(3) 0.2655(6) -0.1059(3)
C11I C 0.1059(3) 0.1059(3) -0.2655(6)
C11YC C 0.2655(6) -0.1059(3) -0.1059(3)
C11D C 0.1059(3) -0.2655(6) 0.1059(3)
C11AD C -0.1059(3) -0.1059(3) 0.2655(6)
O1B O 0.1083(3) 0.1083(3) 0.2439(6)
O1K O -0.1083(3) 0.1083(3) 0.2439(6)
O1AD O -0.1083(3) -0.1083(3) 0.2439(6)
O1D O 0.1083(3) -0.2439(6) 0.1083(3)
O1YC O 0.2439(6) -0.1083(3) -0.1083(3)
O1I O 0.1083(3) 0.1083(3) -0.2439(6)
O1VC O -0.1083(3) 0.2439(6) -0.1083(3)
O1G O -0.2439(6) 0.1083(3) 0.1083(3)
O1XC O -0.2439(6) -0.1083(3) 0.1083(3)
O1SC O -0.1083(3) -0.2439(6) -0.1083(3)
O1CD O 0.1083(3) -0.1083(3) -0.2439(6)
O1F O 0.2439(6) 0.1083(3) -0.1083(3)
O1A O 0.1083(3) 0.2439(6) 0.1083(3)
O1E O -0.1083(3) 0.2439(6) 0.1083(3)
O1ZC O -0.2439(6) 0.1083(3) -0.1083(3)
O1TC O -0.1083(3) -0.1083(3) -0.2439(6)
O1WC O 0.1083(3) -0.2439(6) -0.1083(3)
O1H O 0.2439(6) -0.1083(3) 0.1083(3)
O1J O 0.1083(3) -0.1083(3) 0.2439(6)
O1UC O -0.1083(3) -0.2439(6) 0.1083(3)
O1RC O -0.2439(6) -0.1083(3) -0.1083(3)
O1BD O -0.1083(3) 0.1083(3) -0.2439(6)
O1C O 0.1083(3) 0.2439(6) -0.1083(3)
N2C N 0.0766(6) 0.3339(11) -0.0766(6)
N2BD N -0.0766(6) 0.0766(6) -0.3339(11)
N2RC N -0.3339(11) -0.0766(6) -0.0766(6)
N2UC N -0.0766(6) -0.3339(11) 0.0766(6)
N2J N 0.0766(6) -0.0766(6) 0.3339(11)
N2H N 0.3339(11) -0.0766(6) 0.0766(6)
N2WC N 0.0766(6) -0.3339(11) -0.0766(6)
N2TC N -0.0766(6) -0.0766(6) -0.3339(11)
N2ZC N -0.3339(11) 0.0766(6) -0.0766(6)
N2E N -0.0766(6) 0.3339(11) 0.0766(6)
N2B N 0.0766(6) 0.0766(6) 0.3339(11)
N2A N 0.0766(6) 0.3339(11) 0.0766(6)
N2F N 0.3339(11) 0.0766(6) -0.0766(6)
N2CD N 0.0766(6) -0.0766(6) -0.3339(11)
N2SC N -0.0766(6) -0.3339(11) -0.0766(6)
N2XC N -0.3339(11) -0.0766(6) 0.0766(6)
N2K N -0.0766(6) 0.0766(6) 0.3339(11)
N2G N -0.3339(11) 0.0766(6) 0.0766(6)
N2VC N -0.0766(6) 0.3339(11) -0.0766(6)
N2I N 0.0766(6) 0.0766(6) -0.3339(11)
N2YC N 0.3339(11) -0.0766(6) -0.0766(6)
N2D N 0.0766(6) -0.3339(11) 0.0766(6)
N2AD N -0.0766(6) -0.0766(6) 0.3339(11)
C12C C 0.0722(9) 0.3639(13) -0.0722(9)
C12BD C -0.0722(9) 0.0722(9) -0.3639(13)
C12RC C -0.3639(13) -0.0722(9) -0.0722(9)
C12UC C -0.0722(9) -0.3639(13) 0.0722(9)
C12J C 0.0722(9) -0.0722(9) 0.3639(13)
C12H C 0.3639(13) -0.0722(9) 0.0722(9)
C12WC C 0.0722(9) -0.3639(13) -0.0722(9)
C12TC C -0.0722(9) -0.0722(9) -0.3639(13)
C12ZC C -0.3639(13) 0.0722(9) -0.0722(9)
C12E C -0.0722(9) 0.3639(13) 0.0722(9)
C12B C 0.0722(9) 0.0722(9) 0.3639(13)
C12A C 0.0722(9) 0.3639(13) 0.0722(9)
C12F C 0.3639(13) 0.0722(9) -0.0722(9)
C12CD C 0.0722(9) -0.0722(9) -0.3639(13)
C12SC C -0.0722(9) -0.3639(13) -0.0722(9)
C12XC C -0.3639(13) -0.0722(9) 0.0722(9)
C12K C -0.0722(9) 0.0722(9) 0.3639(13)
C12G C -0.3639(13) 0.0722(9) 0.0722(9)
C12VC C -0.0722(9) 0.3639(13) -0.0722(9)
C12I C 0.0722(9) 0.0722(9) -0.3639(13)
C12YC C 0.3639(13) -0.0722(9) -0.0722(9)
C12D C 0.0722(9) -0.3639(13) 0.0722(9)
C12AD C -0.0722(9) -0.0722(9) 0.3639(13)
C13C C 0.0941(7) 0.3296(6) -0.0941(7)
C13BD C -0.0941(7) 0.0941(7) -0.3296(6)
C13RC C -0.3296(6) -0.0941(7) -0.0941(7)
C13UC C -0.0941(7) -0.3296(6) 0.0941(7)
C13J C 0.0941(7) -0.0941(7) 0.3296(6)
C13H C 0.3296(6) -0.0941(7) 0.0941(7)
C13WC C 0.0941(7) -0.3296(6) -0.0941(7)
C13TC C -0.0941(7) -0.0941(7) -0.3296(6)
C13ZC C -0.3296(6) 0.0941(7) -0.0941(7)
C13E C -0.0941(7) 0.3296(6) 0.0941(7)
C13B C 0.0941(7) 0.0941(7) 0.3296(6)
C13A C 0.0941(7) 0.3296(6) 0.0941(7)
C13F C 0.3296(6) 0.0941(7) -0.0941(7)
C13CD C 0.0941(7) -0.0941(7) -0.3296(6)
C13SC C -0.0941(7) -0.3296(6) -0.0941(7)
C13XC C -0.3296(6) -0.0941(7) 0.0941(7)
C13K C -0.0941(7) 0.0941(7) 0.3296(6)
C13G C -0.3296(6) 0.0941(7) 0.0941(7)
C13VC C -0.0941(7) 0.3296(6) -0.0941(7)
C13I C 0.0941(7) 0.0941(7) -0.3296(6)
C13YC C 0.3296(6) -0.0941(7) -0.0941(7)
C13D C 0.0941(7) -0.3296(6) 0.0941(7)
C13AD C -0.0941(7) -0.0941(7) 0.3296(6)
loop_
_geom_bond_atom_site_label_1
_geom_bond_atom_site_label_2
_geom_bond_site_symmetry_1
_geom_bond_site_symmetry_2
Pd1 N1 1_555 1_555
N1 C1 1_555 1_555
C1 C2 1_555 1_555
C2 C3 1_555 1_555
C3 C4 1_555 1_555
C4 C5 1_555 1_555
C5 N1 1_555 1_555
C6 C7 1_555 1_555
C7 C3 1_555 1_555
C8 C9 1_555 1_555
C9 C10 1_555 1_555
C10 C6 1_555 1_555
C11 C10 1_555 1_555
O1 C11 1_555 1_555
N2 C12 1_555 1_555
C13 C8 1_555 1_555
Pd1A N1XE 1_555 1_555
Pd1C N1C 1_555 1_555
Pd1RC N1BD 1_555 1_555
Pd1SC N1FB 1_555 1_555
Pd1D N1UC 1_555 1_555
Pd1H N1H 1_555 1_555
Pd1TC N1WC 1_555 1_555
Pd1G N1ZC 1_555 1_555
Pd1B N1E 1_555 1_555
Pd1I N1NE 1_555 1_555
Pd1K N1VA 1_555 1_555
N1XE C1XE 1_555 1_555
N1RE Pd1A 1_555 1_555
N1C C1C 1_555 1_555
N1BB Pd1C 1_555 1_555
N1BD C1BD 1_555 1_555
N1RC Pd1RC 1_555 1_555
N1FB C1FB 1_555 1_555
N1ZA Pd1SC 1_555 1_555
N1UC C1UC 1_555 1_555
N1TE Pd1D 1_555 1_555
N1J Pd1 1_555 1_555
N1OE Pd1 1_555 1_555
N1H C1H 1_555 1_555
N1YA Pd1H 1_555 1_555
N1WC C1WC 1_555 1_555
N1TC Pd1TC 1_555 1_555
N1GB Pd1RC 1_555 1_555
N1WA Pd1RC 1_555 1_555
N1ZC C1ZC 1_555 1_555
N1QE Pd1G 1_555 1_555
N1E C1E 1_555 1_555
N1B Pd1B 1_555 1_555
N1YE Pd1 1_555 1_555
N1WE Pd1B 1_555 1_555
N1A Pd1A 1_555 1_555
N1F Pd1A 1_555 1_555
N1NE C1NE 1_555 1_555
N1CD Pd1I 1_555 1_555
N1CB Pd1TC 1_555 1_555
N1EB Pd1TC 1_555 1_555
N1SC Pd1SC 1_555 1_555
N1XC Pd1SC 1_555 1_555
N1VA C1VA 1_555 1_555
N1K Pd1K 1_555 1_555
N1UE Pd1B 1_555 1_555
N1PE Pd1K 1_555 1_555
N1G Pd1G 1_555 1_555
N1AB Pd1G 1_555 1_555
N1VC Pd1C 1_555 1_555
N1VE Pd1C 1_555 1_555
N1I Pd1I 1_555 1_555
N1XA Pd1I 1_555 1_555
N1YC Pd1H 1_555 1_555
N1SE Pd1H 1_555 1_555
N1D Pd1D 1_555 1_555
N1DB Pd1D 1_555 1_555
N1AD Pd1K 1_555 1_555
C1XE C2XE 1_555 1_555
C1RE N1RE 1_555 1_555
C1C C2C 1_555 1_555
C1BB N1BB 1_555 1_555
C1BD C2BD 1_555 1_555
C1RC N1RC 1_555 1_555
C1FB C2FB 1_555 1_555
C1ZA N1ZA 1_555 1_555
C1UC C2UC 1_555 1_555
C1TE N1TE 1_555 1_555
C1J N1J 1_555 1_555
C1OE N1OE 1_555 1_555
C1H C2H 1_555 1_555
C1YA N1YA 1_555 1_555
C1WC C2WC 1_555 1_555
C1TC N1TC 1_555 1_555
C1GB N1GB 1_555 1_555
C1WA N1WA 1_555 1_555
C1ZC C2ZC 1_555 1_555
C1QE N1QE 1_555 1_555
C1E C2E 1_555 1_555
C1B N1B 1_555 1_555
C1YE N1YE 1_555 1_555
C1WE N1WE 1_555 1_555
C1A N1A 1_555 1_555
C1F N1F 1_555 1_555
C1NE C2NE 1_555 1_555
C1CD N1CD 1_555 1_555
C1CB N1CB 1_555 1_555
C1EB N1EB 1_555 1_555
C1SC N1SC 1_555 1_555
C1XC N1XC 1_555 1_555
C1VA C2VA 1_555 1_555
C1K N1K 1_555 1_555
C1UE N1UE 1_555 1_555
C1PE N1PE 1_555 1_555
C1G N1G 1_555 1_555
C1AB N1AB 1_555 1_555
C1VC N1VC 1_555 1_555
C1VE N1VE 1_555 1_555
C1I N1I 1_555 1_555
C1XA N1XA 1_555 1_555
C1YC N1YC 1_555 1_555
C1SE N1SE 1_555 1_555
C1D N1D 1_555 1_555
C1DB N1DB 1_555 1_555
C1AD N1AD 1_555 1_555
C2XE C3XE 1_555 1_555
C2RE C1RE 1_555 1_555
C2C C3C 1_555 1_555
C2BB C1BB 1_555 1_555
C2BD C3BD 1_555 1_555
C2RC C1RC 1_555 1_555
C2FB C3FB 1_555 1_555
C2ZA C1ZA 1_555 1_555
C2UC C3UC 1_555 1_555
C2TE C1TE 1_555 1_555
C2J C1J 1_555 1_555
C2OE C1OE 1_555 1_555
C2H C3H 1_555 1_555
C2YA C1YA 1_555 1_555
C2WC C3WC 1_555 1_555
C2TC C1TC 1_555 1_555
C2GB C1GB 1_555 1_555
C2WA C1WA 1_555 1_555
C2ZC C3ZC 1_555 1_555
C2QE C1QE 1_555 1_555
C2E C3E 1_555 1_555
C2B C1B 1_555 1_555
C2YE C1YE 1_555 1_555
C2WE C1WE 1_555 1_555
C2A C1A 1_555 1_555
C2F C1F 1_555 1_555
C2NE C3NE 1_555 1_555
C2CD C1CD 1_555 1_555
C2CB C1CB 1_555 1_555
C2EB C1EB 1_555 1_555
C2SC C1SC 1_555 1_555
C2XC C1XC 1_555 1_555
C2VA C3VA 1_555 1_555
C2K C1K 1_555 1_555
C2UE C1UE 1_555 1_555
C2PE C1PE 1_555 1_555
C2G C1G 1_555 1_555
C2AB C1AB 1_555 1_555
C2VC C1VC 1_555 1_555
C2VE C1VE 1_555 1_555
C2I C1I 1_555 1_555
C2XA C1XA 1_555 1_555
C2YC C1YC 1_555 1_555
C2SE C1SE 1_555 1_555
C2D C1D 1_555 1_555
C2DB C1DB 1_555 1_555
C2AD C1AD 1_555 1_555
C3XE C4XE 1_555 1_555
C3RE C2RE 1_555 1_555
C3C C4C 1_555 1_555
C3BB C2BB 1_555 1_555
C3BD C4BD 1_555 1_555
C3RC C2RC 1_555 1_555
C3FB C4FB 1_555 1_555
C3ZA C2ZA 1_555 1_555
C3UC C4UC 1_555 1_555
C3TE C2TE 1_555 1_555
C3J C2J 1_555 1_555
C3OE C2OE 1_555 1_555
C3H C4H 1_555 1_555
C3YA C2YA 1_555 1_555
C3WC C4WC 1_555 1_555
C3TC C2TC 1_555 1_555
C3GB C2GB 1_555 1_555
C3WA C2WA 1_555 1_555
C3ZC C4ZC 1_555 1_555
C3QE C2QE 1_555 1_555
C3E C4E 1_555 1_555
C3B C2B 1_555 1_555
C3YE C2YE 1_555 1_555
C3WE C2WE 1_555 1_555
C3A C2A 1_555 1_555
C3F C2F 1_555 1_555
C3NE C4NE 1_555 1_555
C3CD C2CD 1_555 1_555
C3CB C2CB 1_555 1_555
C3EB C2EB 1_555 1_555
C3SC C2SC 1_555 1_555
C3XC C2XC 1_555 1_555
C3VA C4VA 1_555 1_555
C3K C2K 1_555 1_555
C3UE C2UE 1_555 1_555
C3PE C2PE 1_555 1_555
C3G C2G 1_555 1_555
C3AB C2AB 1_555 1_555
C3VC C2VC 1_555 1_555
C3VE C2VE 1_555 1_555
C3I C2I 1_555 1_555
C3XA C2XA 1_555 1_555
C3YC C2YC 1_555 1_555
C3SE C2SE 1_555 1_555
C3D C2D 1_555 1_555
C3DB C2DB 1_555 1_555
C3AD C2AD 1_555 1_555
C4RE C3RE 1_555 1_555
C4BB C3BB 1_555 1_555
C4RC C3RC 1_555 1_555
C4ZA C3ZA 1_555 1_555
C4TE C3TE 1_555 1_555
C4OE C3OE 1_555 1_555
C4YA C3YA 1_555 1_555
C4TC C3TC 1_555 1_555
C4WA C3WA 1_555 1_555
C4QE C3QE 1_555 1_555
C4B C3B 1_555 1_555
C4YE C3YE 1_555 1_555
C4WE C3WE 1_555 1_555
C4F C3F 1_555 1_555
C4CD C3CD 1_555 1_555
C4EB C3EB 1_555 1_555
C4XC C3XC 1_555 1_555
C4K C3K 1_555 1_555
C4UE C3UE 1_555 1_555
C4PE C3PE 1_555 1_555
C4AB C3AB 1_555 1_555
C4VE C3VE 1_555 1_555
C4XA C3XA 1_555 1_555
C4SE C3SE 1_555 1_555
C4DB C3DB 1_555 1_555
C4AD C3AD 1_555 1_555
C4D C3D 1_555 1_555
C4YC C3YC 1_555 1_555
C4I C3I 1_555 1_555
C4VC C3VC 1_555 1_555
C4G C3G 1_555 1_555
C4VA C5VA 1_555 1_555
C4SC C3SC 1_555 1_555
C4CB C3CB 1_555 1_555
C4NE C5NE 1_555 1_555
C4A C3A 1_555 1_555
C4E C5E 1_555 1_555
C4ZC C5ZC 1_555 1_555
C4GB C3GB 1_555 1_555
C4WC C5WC 1_555 1_555
C4H C5H 1_555 1_555
C4J C3J 1_555 1_555
C4UC C5UC 1_555 1_555
C4FB C5FB 1_555 1_555
C4BD C5BD 1_555 1_555
C4C C5C 1_555 1_555
C4XE C5XE 1_555 1_555
C5RE N1RE 1_555 1_555
C5BB N1BB 1_555 1_555
C5RC N1RC 1_555 1_555
C5ZA N1ZA 1_555 1_555
C5TE N1TE 1_555 1_555
C5OE N1OE 1_555 1_555
C5YA N1YA 1_555 1_555
C5TC N1TC 1_555 1_555
C5WA N1WA 1_555 1_555
C5QE N1QE 1_555 1_555
C5B N1B 1_555 1_555
C5YE N1YE 1_555 1_555
C5WE N1WE 1_555 1_555
C5F N1F 1_555 1_555
C5CD N1CD 1_555 1_555
C5EB N1EB 1_555 1_555
C5XC N1XC 1_555 1_555
C5K N1K 1_555 1_555
C5UE N1UE 1_555 1_555
C5PE N1PE 1_555 1_555
C5AB N1AB 1_555 1_555
C5VE N1VE 1_555 1_555
C5XA N1XA 1_555 1_555
C5SE N1SE 1_555 1_555
C5DB N1DB 1_555 1_555
C5AD N1AD 1_555 1_555
C5D N1D 1_555 1_555
C5YC N1YC 1_555 1_555
C5I N1I 1_555 1_555
C5VC N1VC 1_555 1_555
C5G N1G 1_555 1_555
C5VA N1VA 1_555 1_555
C5SC N1SC 1_555 1_555
C5CB N1CB 1_555 1_555
C5NE N1NE 1_555 1_555
C5A N1A 1_555 1_555
C5E N1E 1_555 1_555
C5ZC N1ZC 1_555 1_555
C5GB N1GB 1_555 1_555
C5WC N1WC 1_555 1_555
C5H N1H 1_555 1_555
C5J N1J 1_555 1_555
C5UC N1UC 1_555 1_555
C5FB N1FB 1_555 1_555
C5BD N1BD 1_555 1_555
C5C N1C 1_555 1_555
C5XE N1XE 1_555 1_555
C6XE C7XE 1_555 1_555
C6RE C7RE 1_555 1_555
C6C C7C 1_555 1_555
C6BB C7BB 1_555 1_555
C6BD C7BD 1_555 1_555
C6RC C7RC 1_555 1_555
C6FB C7FB 1_555 1_555
C6ZA C7ZA 1_555 1_555
C6UC C7UC 1_555 1_555
C6TE C7TE 1_555 1_555
C6J C7J 1_555 1_555
C6OE C7OE 1_555 1_555
C6H C7H 1_555 1_555
C6YA C7YA 1_555 1_555
C6WC C7WC 1_555 1_555
C6TC C7TC 1_555 1_555
C6GB C7GB 1_555 1_555
C6WA C7WA 1_555 1_555
C6ZC C7ZC 1_555 1_555
C6QE C7QE 1_555 1_555
C6E C7E 1_555 1_555
C6B C7B 1_555 1_555
C6YE C7YE 1_555 1_555
C6WE C7WE 1_555 1_555
C6A C7A 1_555 1_555
C6F C7F 1_555 1_555
C6NE C7NE 1_555 1_555
C6CD C7CD 1_555 1_555
C6CB C7CB 1_555 1_555
C6EB C7EB 1_555 1_555
C6SC C7SC 1_555 1_555
C6XC C7XC 1_555 1_555
C6VA C7VA 1_555 1_555
C6K C7K 1_555 1_555
C6UE C7UE 1_555 1_555
C6PE C7PE 1_555 1_555
C6G C7G 1_555 1_555
C6AB C7AB 1_555 1_555
C6VC C7VC 1_555 1_555
C6VE C7VE 1_555 1_555
C6I C7I 1_555 1_555
C6XA C7XA 1_555 1_555
C6YC C7YC 1_555 1_555
C6SE C7SE 1_555 1_555
C6D C7D 1_555 1_555
C6DB C7DB 1_555 1_555
C6AD C7AD 1_555 1_555
C7XE C3XE 1_555 1_555
C7RE C3RE 1_555 1_555
C7C C3C 1_555 1_555
C7BB C3BB 1_555 1_555
C7BD C3BD 1_555 1_555
C7RC C3RC 1_555 1_555
C7FB C3FB 1_555 1_555
C7ZA C3ZA 1_555 1_555
C7UC C3UC 1_555 1_555
C7TE C3TE 1_555 1_555
C7J C3J 1_555 1_555
C7OE C3OE 1_555 1_555
C7H C3H 1_555 1_555
C7YA C3YA 1_555 1_555
C7WC C3WC 1_555 1_555
C7TC C3TC 1_555 1_555
C7GB C3GB 1_555 1_555
C7WA C3WA 1_555 1_555
C7ZC C3ZC 1_555 1_555
C7QE C3QE 1_555 1_555
C7E C3E 1_555 1_555
C7B C3B 1_555 1_555
C7YE C3YE 1_555 1_555
C7WE C3WE 1_555 1_555
C7A C3A 1_555 1_555
C7F C3F 1_555 1_555
C7NE C3NE 1_555 1_555
C7CD C3CD 1_555 1_555
C7CB C3CB 1_555 1_555
C7EB C3EB 1_555 1_555
C7SC C3SC 1_555 1_555
C7XC C3XC 1_555 1_555
C7VA C3VA 1_555 1_555
C7K C3K 1_555 1_555
C7UE C3UE 1_555 1_555
C7PE C3PE 1_555 1_555
C7G C3G 1_555 1_555
C7AB C3AB 1_555 1_555
C7VC C3VC 1_555 1_555
C7VE C3VE 1_555 1_555
C7I C3I 1_555 1_555
C7XA C3XA 1_555 1_555
C7YC C3YC 1_555 1_555
C7SE C3SE 1_555 1_555
C7D C3D 1_555 1_555
C7DB C3DB 1_555 1_555
C7AD C3AD 1_555 1_555
C8C C9RE 1_555 1_555
C8BD C9BB 1_555 1_555
C8RC C9RC 1_555 1_555
C8UC C9ZA 1_555 1_555
C8J C9TE 1_555 1_555
C8H C9OE 1_555 1_555
C8WC C9YA 1_555 1_555
C8TC C9TC 1_555 1_555
C8ZC C9WA 1_555 1_555
C8E C9QE 1_555 1_555
C8B C9B 1_555 1_555
C8A C9WE 1_555 1_555
C8F C9F 1_555 1_555
C8CD C9CD 1_555 1_555
C8SC C9EB 1_555 1_555
C8XC C9XC 1_555 1_555
C8K C9K 1_555 1_555
C8G C9PE 1_555 1_555
C8VC C9AB 1_555 1_555
C8I C9VE 1_555 1_555
C8YC C9XA 1_555 1_555
C8D C9SE 1_555 1_555
C8AD C9DB 1_555 1_555
C9XE C8 1_555 1_555
C9RE C10RE 1_555 1_555
C9C C8C 1_555 1_555
C9BB C10BB 1_555 1_555
C9BD C8BD 1_555 1_555
C9RC C10RC 1_555 1_555
C9FB C8RC 1_555 1_555
C9ZA C10ZA 1_555 1_555
C9UC C8UC 1_555 1_555
C9TE C10TE 1_555 1_555
C9J C8J 1_555 1_555
C9OE C10OE 1_555 1_555
C9H C8H 1_555 1_555
C9YA C10YA 1_555 1_555
C9WC C8WC 1_555 1_555
C9TC C10TC 1_555 1_555
C9GB C8TC 1_555 1_555
C9WA C10WA 1_555 1_555
C9ZC C8ZC 1_555 1_555
C9QE C10QE 1_555 1_555
C9E C8E 1_555 1_555
C9B C10B 1_555 1_555
C9YE C8B 1_555 1_555
C9WE C10WE 1_555 1_555
C9A C8A 1_555 1_555
C9F C10F 1_555 1_555
C9NE C8F 1_555 1_555
C9CD C10CD 1_555 1_555
C9CB C8CD 1_555 1_555
C9EB C10EB 1_555 1_555
C9SC C8SC 1_555 1_555
C9XC C10XC 1_555 1_555
C9VA C8XC 1_555 1_555
C9K C10K 1_555 1_555
C9UE C8K 1_555 1_555
C9PE C10PE 1_555 1_555
C9G C8G 1_555 1_555
C9AB C10AB 1_555 1_555
C9VC C8VC 1_555 1_555
C9VE C10VE 1_555 1_555
C9I C8I 1_555 1_555
C9XA C10XA 1_555 1_555
C9YC C8YC 1_555 1_555
C9SE C10SE 1_555 1_555
C9D C8D 1_555 1_555
C9DB C10DB 1_555 1_555
C9AD C8AD 1_555 1_555
C10XE C11 1_555 1_555
C10RE C6RE 1_555 1_555
C10C C6C 1_555 1_555
C10BB C6BB 1_555 1_555
C10BD C6BD 1_555 1_555
C10RC C6RC 1_555 1_555
C10FB C6FB 1_555 1_555
C10ZA C6ZA 1_555 1_555
C10UC C6UC 1_555 1_555
C10TE C6TE 1_555 1_555
C10J C6J 1_555 1_555
C10OE C6OE 1_555 1_555
C10H C6H 1_555 1_555
C10YA C6YA 1_555 1_555
C10WC C6WC 1_555 1_555
C10TC C6TC 1_555 1_555
C10GB C6GB 1_555 1_555
C10WA C6WA 1_555 1_555
C10ZC C6ZC 1_555 1_555
C10QE C6QE 1_555 1_555
C10E C6E 1_555 1_555
C10B C6B 1_555 1_555
C10YE C6YE 1_555 1_555
C10WE C6WE 1_555 1_555
C10A C6A 1_555 1_555
C10F C6F 1_555 1_555
C10NE C6NE 1_555 1_555
C10CD C6CD 1_555 1_555
C10CB C6CB 1_555 1_555
C10EB C6EB 1_555 1_555
C10SC C6SC 1_555 1_555
C10XC C6XC 1_555 1_555
C10VA C6VA 1_555 1_555
C10K C6K 1_555 1_555
C10UE C6UE 1_555 1_555
C10PE C6PE 1_555 1_555
C10G C6G 1_555 1_555
C10AB C6AB 1_555 1_555
C10VC C6VC 1_555 1_555
C10VE C6VE 1_555 1_555
C10I C6I 1_555 1_555
C10XA C6XA 1_555 1_555
C10YC C6YC 1_555 1_555
C10SE C6SE 1_555 1_555
C10D C6D 1_555 1_555
C10DB C6DB 1_555 1_555
C10AD C6AD 1_555 1_555
C11C C10RE 1_555 1_555
C11BD C10BB 1_555 1_555
C11RC C10RC 1_555 1_555
C11UC C10ZA 1_555 1_555
C11J C10TE 1_555 1_555
C11H C10OE 1_555 1_555
C11WC C10YA 1_555 1_555
C11TC C10TC 1_555 1_555
C11ZC C10WA 1_555 1_555
C11E C10QE 1_555 1_555
C11B C10B 1_555 1_555
C11A C10WE 1_555 1_555
C11F C10F 1_555 1_555
C11CD C10CD 1_555 1_555
C11SC C10EB 1_555 1_555
C11XC C10XC 1_555 1_555
C11K C10K 1_555 1_555
C11G C10PE 1_555 1_555
C11VC C10AB 1_555 1_555
C11I C10VE 1_555 1_555
C11YC C10XA 1_555 1_555
C11D C10SE 1_555 1_555
C11AD C10DB 1_555 1_555
O1B C11B 1_555 1_555
O1K C11K 1_555 1_555
O1AD C11AD 1_555 1_555
O1D C11D 1_555 1_555
O1YC C11YC 1_555 1_555
O1I C11I 1_555 1_555
O1VC C11VC 1_555 1_555
O1G C11G 1_555 1_555
O1XC C11XC 1_555 1_555
O1SC C11SC 1_555 1_555
O1CD C11CD 1_555 1_555
O1F C11F 1_555 1_555
O1A C11A 1_555 1_555
O1E C11E 1_555 1_555
O1ZC C11ZC 1_555 1_555
O1TC C11TC 1_555 1_555
O1WC C11WC 1_555 1_555
O1H C11H 1_555 1_555
O1J C11J 1_555 1_555
O1UC C11UC 1_555 1_555
O1RC C11RC 1_555 1_555
O1BD C11BD 1_555 1_555
O1C C11C 1_555 1_555
N2C C12C 1_555 1_555
N2BD C12BD 1_555 1_555
N2RC C12RC 1_555 1_555
N2UC C12UC 1_555 1_555
N2J C12J 1_555 1_555
N2H C12H 1_555 1_555
N2WC C12WC 1_555 1_555
N2TC C12TC 1_555 1_555
N2ZC C12ZC 1_555 1_555
N2E C12E 1_555 1_555
N2B C12B 1_555 1_555
N2A C12A 1_555 1_555
N2F C12F 1_555 1_555
N2CD C12CD 1_555 1_555
N2SC C12SC 1_555 1_555
N2XC C12XC 1_555 1_555
N2K C12K 1_555 1_555
N2G C12G 1_555 1_555
N2VC C12VC 1_555 1_555
N2I C12I 1_555 1_555
N2YC C12YC 1_555 1_555
N2D C12D 1_555 1_555
N2AD C12AD 1_555 1_555
C13C C8C 1_555 1_555
C13BD C8BD 1_555 1_555
C13RC C8RC 1_555 1_555
C13UC C8UC 1_555 1_555
C13J C8J 1_555 1_555
C13H C8H 1_555 1_555
C13WC C8WC 1_555 1_555
C13TC C8TC 1_555 1_555
C13ZC C8ZC 1_555 1_555
C13E C8E 1_555 1_555
C13B C8B 1_555 1_555
C13A C8A 1_555 1_555
C13F C8F 1_555 1_555
C13CD C8CD 1_555 1_555
C13SC C8SC 1_555 1_555
C13XC C8XC 1_555 1_555
C13K C8K 1_555 1_555
C13G C8G 1_555 1_555
C13VC C8VC 1_555 1_555
C13I C8I 1_555 1_555
C13YC C8YC 1_555 1_555
C13D C8D 1_555 1_555
C13AD C8AD 1_555 1_555
N2 C13 1_555 1_555
C4RE C5RE 1_555 1_555
C4BB C5BB 1_555 1_555
C4RC C5RC 1_555 1_555
C4ZA C5ZA 1_555 1_555
C4TE C5TE 1_555 1_555
C4OE C5OE 1_555 1_555
C4YA C5YA 1_555 1_555
C4TC C5TC 1_555 1_555
C4WA C5WA 1_555 1_555
C4QE C5QE 1_555 1_555
C4B C5B 1_555 1_555
C4YE C5YE 1_555 1_555
C4WE C5WE 1_555 1_555
C4F C5F 1_555 1_555
C4CD C5CD 1_555 1_555
C4EB C5EB 1_555 1_555
C4XC C5XC 1_555 1_555
C4K C5K 1_555 1_555
C4UE C5UE 1_555 1_555
C4PE C5PE 1_555 1_555
C4AB C5AB 1_555 1_555
C4VE C5VE 1_555 1_555
C4XA C5XA 1_555 1_555
C4SE C5SE 1_555 1_555
C4DB C5DB 1_555 1_555
C4AD C5AD 1_555 1_555
C4D C5D 1_555 1_555
C4YC C5YC 1_555 1_555
C4I C5I 1_555 1_555
C4VC C5VC 1_555 1_555
C4G C5G 1_555 1_555
C4SC C5SC 1_555 1_555
C4CB C5CB 1_555 1_555
C4A C5A 1_555 1_555
C4GB C5GB 1_555 1_555
C4J C5J 1_555 1_555
C6XE C10XE 1_555 1_555
C9XE C10XE 1_555 1_555
C9C C10C 1_555 1_555
C9BD C10BD 1_555 1_555
C9FB C10FB 1_555 1_555
C9UC C10UC 1_555 1_555
C9J C10J 1_555 1_555
C9H C10H 1_555 1_555
C9WC C10WC 1_555 1_555
C9GB C10GB 1_555 1_555
C9ZC C10ZC 1_555 1_555
C9E C10E 1_555 1_555
C9YE C10YE 1_555 1_555
C9A C10A 1_555 1_555
C9NE C10NE 1_555 1_555
C9CB C10CB 1_555 1_555
C9SC C10SC 1_555 1_555
C9VA C10VA 1_555 1_555
C9UE C10UE 1_555 1_555
C9G C10G 1_555 1_555
C9VC C10VC 1_555 1_555
C9I C10I 1_555 1_555
C9YC C10YC 1_555 1_555
C9D C10D 1_555 1_555
C9AD C10AD 1_555 1_555
C10C C11C 1_555 1_555
C10BD C11BD 1_555 1_555
C10FB C11RC 1_555 1_555
C10UC C11UC 1_555 1_555
C10J C11J 1_555 1_555
C10H C11H 1_555 1_555
C10WC C11WC 1_555 1_555
C10GB C11TC 1_555 1_555
C10ZC C11ZC 1_555 1_555
C10E C11E 1_555 1_555
C10YE C11B 1_555 1_555
C10A C11A 1_555 1_555
C10NE C11F 1_555 1_555
C10CB C11CD 1_555 1_555
C10SC C11SC 1_555 1_555
C10VA C11XC 1_555 1_555
C10UE C11K 1_555 1_555
C10G C11G 1_555 1_555
C10VC C11VC 1_555 1_555
C10I C11I 1_555 1_555
C10YC C11YC 1_555 1_555
C10D C11D 1_555 1_555
C10AD C11AD 1_555 1_555
N2C C13C 1_555 1_555
N2BD C13BD 1_555 1_555
N2RC C13RC 1_555 1_555
N2UC C13UC 1_555 1_555
N2J C13J 1_555 1_555
N2H C13H 1_555 1_555
N2WC C13WC 1_555 1_555
N2TC C13TC 1_555 1_555
N2ZC C13ZC 1_555 1_555
N2E C13E 1_555 1_555
N2B C13B 1_555 1_555
N2A C13A 1_555 1_555
N2F C13F 1_555 1_555
N2CD C13CD 1_555 1_555
N2SC C13SC 1_555 1_555
N2XC C13XC 1_555 1_555
N2K C13K 1_555 1_555
N2G C13G 1_555 1_555
N2VC C13VC 1_555 1_555
N2I C13I 1_555 1_555
N2YC C13YC 1_555 1_555
N2D C13D 1_555 1_555
N2AD C13AD 1_555 1_555

#END
