
#######################################################################
#
#                 Cambridge Crystallographic Data Centre
#                                CCDC 
#
#######################################################################
#
# If this CIF has been generated from an entry in the Cambridge 
# Structural Database, then it will include bibliographic, chemical, 
# crystal, experimental, refinement or atomic coordinate data resulting 
# from the CCDC's data processing and validation procedures.
#
#######################################################################

data_SIHWAJ
_chemical_formula_moiety         
'C128 H108 N12 Pd2 S4 4+,6(C4 H10 O1),4(B1 F4 1-)'
_chemical_name_systematic        
'tetrakis(\m~2~-10-Hexyl-3,7-bis(pyridin-3-ylethynyl)-10H-phenothiazine)-di-palladium(ii) tetrakis(tetrafluoroborate) diethyl ether solvate'
_symmetry_cell_setting           tetragonal
_symmetry_space_group_name_H-M   'P 4/n n c'
_symmetry_Int_Tables_number      126
_space_group_name_Hall           '-P 4a 2bc'
loop_
_symmetry_equiv_pos_site_id
_symmetry_equiv_pos_as_xyz
1 x,y,z
2 1/2-x,1/2-y,z
3 1/2-y,x,z
4 y,1/2-x,z
5 1/2-x,y,1/2-z
6 x,1/2-y,1/2-z
7 y,x,1/2-z
8 1/2-y,1/2-x,1/2-z
9 -x,-y,-z
10 1/2+x,1/2+y,-z
11 1/2+y,-x,-z
12 -y,1/2+x,-z
13 1/2+x,-y,1/2+z
14 -x,1/2+y,1/2+z
15 -y,-x,1/2+z
16 1/2+y,1/2+x,1/2+z
_cell_length_a                   21.122(2)
_cell_length_b                   21.122(2)
_cell_length_c                   34.263(3)
_cell_angle_alpha                90
_cell_angle_beta                 90
_cell_angle_gamma                90
_cell_volume                     15286.1
_exptl_crystal_colour            colorless
_exptl_crystal_description       Block
_cell_formula_units_Z            4
loop_
_atom_site_label
_atom_site_type_symbol
_atom_site_fract_x
_atom_site_fract_y
_atom_site_fract_z
C33 C 0.5231(6) 0.4700(5) 0.8202(3)
H28 H 0.5513 0.4341 0.8251
H29 H 0.4841 0.4648 0.8354
H30 H 0.5442 0.5094 0.8281
C34 C 0.5072(7) 0.4729(6) 0.7774(3)
H31 H 0.4734 0.5046 0.7729
H32 H 0.5450 0.4859 0.7623
O1 O 0.4860(5) 0.4108(4) 0.7645(2)
C35 C 0.4877(8) 0.3953(7) 0.7230(3)
H33 H 0.5319 0.3952 0.7133
H34 H 0.4632 0.4267 0.7078
C36 C 0.4595(8) 0.3318(7) 0.7187(4)
H35 H 0.4420 0.3271 0.6924
H36 H 0.4256 0.3264 0.7380
H37 H 0.4921 0.2995 0.7230
C37 C 0.6023(6) 0.3245(7) 0.8000(3)
H38 H 0.6211 0.3104 0.7753
H39 H 0.5775 0.3629 0.7955
H40 H 0.5747 0.2911 0.8103
C38 C 0.6540(6) 0.3381(8) 0.8289(3)
H41 H 0.6796 0.2996 0.8335
H42 H 0.6822 0.3718 0.8188
O2 O 0.6239(4) 0.3588(4) 0.8656(2)
C39 C 0.6654(5) 0.3572(6) 0.8999(3)
H43 H 0.6751 0.3128 0.9070
H44 H 0.7056 0.3793 0.8942
C40 C 0.6330(5) 0.3878(7) 0.9312(3)
H45 H 0.6606 0.3892 0.9542
H46 H 0.5944 0.3642 0.9375
H47 H 0.6219 0.4311 0.9234
Pd1 Pd 0.7500 0.7500 0.879156(8)
Pd2 Pd 0.7500 0.7500 0.364993(10)
N1 N 0.72161(9) 0.65834(9) 0.87763(5)
N2 N 0.71809(11) 0.65988(11) 0.36678(6)
C1 C 0.71573(11) 0.62295(11) 0.91020(7)
H1 H 0.7241 0.6415 0.9349
C2 C 0.69761(12) 0.55976(11) 0.90807(7)
H2 H 0.6937 0.5354 0.9313
C3 C 0.68530(12) 0.53229(11) 0.87219(7)
H3 H 0.6729 0.4891 0.8705
C4 C 0.69147(11) 0.56908(11) 0.83844(7)
C5 C 0.70970(10) 0.63239(11) 0.84260(6)
H4 H 0.7138 0.6579 0.8199
C6 C 0.68005(12) 0.54389(11) 0.80039(7)
C7 C 0.67281(13) 0.52256(12) 0.76820(8)
S1 S 0.61921(18) 0.54066(15) 0.62095(10)
C8 C 0.6475(5) 0.4967(2) 0.66115(13)
C9 C 0.6526(5) 0.5273(3) 0.69700(15)
H5 H 0.6458 0.5717 0.6986
C10 C 0.6677(5) 0.4929(2) 0.73062(12)
C11 C 0.67974(19) 0.4279(2) 0.72699(11)
H6 H 0.6899 0.4039 0.7496
C12 C 0.6770(2) 0.39821(17) 0.69111(10)
H7 H 0.6871 0.3545 0.6892
C13 C 0.65963(17) 0.43144(17) 0.65753(10)
N3 N 0.65412(16) 0.40053(14) 0.62156(9)
C14 C 0.6489(3) 0.3304(4) 0.6205(2)
H8 H 0.6830 0.3108 0.6362
H9 H 0.6523 0.3148 0.5933
C15 C 0.5824(3) 0.3132(3) 0.63805(17)
H10 H 0.5757 0.2671 0.6351
H11 H 0.5831 0.3227 0.6664
C16 C 0.5249(4) 0.3484(4) 0.6194(2)
H12 H 0.4853 0.3318 0.6309
H13 H 0.5277 0.3940 0.6259
C17 C 0.5222(3) 0.3410(3) 0.57536(18)
H14 H 0.5270 0.2957 0.5686
H15 H 0.5579 0.3644 0.5634
C18 C 0.4600(7) 0.3656(9) 0.5585(3)
H16 H 0.4248 0.3421 0.5708
H17 H 0.4555 0.4107 0.5659
C19 C 0.4532(5) 0.3607(5) 0.5159(3)
H18 H 0.4546 0.4031 0.5044
H19 H 0.4126 0.3406 0.5097
H20 H 0.4879 0.3351 0.5053
C20 C 0.6533(5) 0.4972(2) 0.58239(15)
C21 C 0.6620(4) 0.5275(3) 0.54695(16)
H21 H 0.6532 0.5715 0.5447
C22 C 0.6836(5) 0.4940(2) 0.51451(12)
C23 C 0.70111(18) 0.42993(19) 0.51882(11)
H22 H 0.7180 0.4071 0.4973
C24 C 0.69348(18) 0.40052(17) 0.55457(10)
H23 H 0.7064 0.3577 0.5576
C25 C 0.6672(2) 0.43238(19) 0.58633(11)
C26 C 0.68774(14) 0.52133(13) 0.47644(8)
C27 C 0.68943(14) 0.54211(13) 0.44383(8)
C28 C 0.69311(14) 0.56920(13) 0.40580(7)
C29 C 0.67643(19) 0.53559(15) 0.37222(8)
H24 H 0.6620 0.4931 0.3739
C30 C 0.6814(2) 0.56530(17) 0.33672(9)
H25 H 0.6706 0.5431 0.3135
C31 C 0.70221(19) 0.62751(16) 0.33448(8)
H26 H 0.7053 0.6475 0.3097
C32 C 0.71347(12) 0.63162(12) 0.40168(7)
H27 H 0.7245 0.6549 0.4244
N1A N 0.77839(9) 0.84166(9) 0.87763(5)
N2A N 0.78191(11) 0.84012(11) 0.36678(6)
C1A C 0.78427(11) 0.87705(11) 0.91020(7)
H1A H 0.7759 0.8585 0.9349
C2A C 0.80239(12) 0.94024(11) 0.90807(7)
H2A H 0.8063 0.9646 0.9313
C3A C 0.81470(12) 0.96771(11) 0.87219(7)
H3A H 0.8271 1.0109 0.8705
C4A C 0.80853(11) 0.93092(11) 0.83844(7)
C5A C 0.79030(10) 0.86761(11) 0.84260(6)
H4A H 0.7862 0.8421 0.8199
C6A C 0.81995(12) 0.95611(11) 0.80039(7)
C7A C 0.82719(13) 0.97744(12) 0.76820(8)
S1A S 0.88079(18) 0.95934(15) 0.62095(10)
C8A C 0.8525(5) 1.0033(2) 0.66115(13)
C9A C 0.8474(5) 0.9727(3) 0.69700(15)
H5A H 0.8542 0.9283 0.6986
C10A C 0.8323(5) 1.0071(2) 0.73062(12)
C11A C 0.82026(19) 1.0721(2) 0.72699(11)
H6A H 0.8101 1.0961 0.7496
C12A C 0.8230(2) 1.10179(17) 0.69111(10)
H7A H 0.8129 1.1455 0.6892
C13A C 0.84037(17) 1.06856(17) 0.65753(10)
N3A N 0.84588(16) 1.09947(14) 0.62156(9)
C14A C 0.8511(3) 1.1696(4) 0.6205(2)
H8A H 0.8170 1.1892 0.6362
H9A H 0.8477 1.1852 0.5933
C15A C 0.9176(3) 1.1868(3) 0.63805(17)
H10A H 0.9243 1.2329 0.6351
H11A H 0.9169 1.1773 0.6664
C16A C 0.9751(4) 1.1516(4) 0.6194(2)
H12A H 1.0147 1.1682 0.6309
H13A H 0.9723 1.1060 0.6259
C17A C 0.9778(3) 1.1590(3) 0.57536(18)
H14A H 0.9730 1.2043 0.5686
H15A H 0.9421 1.1356 0.5634
C18A C 1.0400(7) 1.1344(9) 0.5585(3)
H16A H 1.0752 1.1579 0.5708
H17A H 1.0445 1.0893 0.5659
C19A C 1.0468(5) 1.1393(5) 0.5159(3)
H18A H 1.0454 1.0969 0.5044
H19A H 1.0874 1.1594 0.5097
H20A H 1.0121 1.1649 0.5053
C20A C 0.8467(5) 1.0028(2) 0.58239(15)
C21A C 0.8380(4) 0.9725(3) 0.54695(16)
H21A H 0.8468 0.9285 0.5447
C22A C 0.8164(5) 1.0060(2) 0.51451(12)
C23A C 0.79889(18) 1.07007(19) 0.51882(11)
H22A H 0.7820 1.0929 0.4973
C24A C 0.80652(18) 1.09948(17) 0.55457(10)
H23A H 0.7936 1.1423 0.5576
C25A C 0.8328(2) 1.06762(19) 0.58633(11)
C26A C 0.81226(14) 0.97867(13) 0.47644(8)
C27A C 0.81057(14) 0.95789(13) 0.44383(8)
C28A C 0.80689(14) 0.93080(13) 0.40580(7)
C29A C 0.82357(19) 0.96441(15) 0.37222(8)
H24A H 0.8380 1.0069 0.3739
C30A C 0.8186(2) 0.93470(17) 0.33672(9)
H25A H 0.8294 0.9569 0.3135
C31A C 0.79779(19) 0.87249(16) 0.33448(8)
H26A H 0.7947 0.8525 0.3097
C32A C 0.78653(12) 0.86838(12) 0.40168(7)
H27A H 0.7755 0.8451 0.4244
N1B N 0.84166(9) 0.72161(9) 0.87763(5)
N2B N 0.84012(11) 0.71809(11) 0.36678(6)
C1B C 0.87705(11) 0.71573(11) 0.91020(7)
H1B H 0.8585 0.7241 0.9349
C2B C 0.94024(11) 0.69761(12) 0.90807(7)
H2B H 0.9646 0.6937 0.9313
C3B C 0.96771(11) 0.68530(12) 0.87219(7)
H3B H 1.0109 0.6729 0.8705
C4B C 0.93092(11) 0.69147(11) 0.83844(7)
C5B C 0.86761(11) 0.70970(10) 0.84260(6)
H4B H 0.8421 0.7138 0.8199
C6B C 0.95611(11) 0.68005(12) 0.80039(7)
C7B C 0.97744(12) 0.67281(13) 0.76820(8)
S1B S 0.95934(15) 0.61921(18) 0.62095(10)
C8B C 1.0033(2) 0.6475(5) 0.66115(13)
C9B C 0.9727(3) 0.6526(5) 0.69700(15)
H5B H 0.9283 0.6458 0.6986
C10B C 1.0071(2) 0.6677(5) 0.73062(12)
C11B C 1.0721(2) 0.67974(19) 0.72699(11)
H6B H 1.0961 0.6899 0.7496
C12B C 1.10179(17) 0.6770(2) 0.69111(10)
H7B H 1.1455 0.6871 0.6892
C13B C 1.06856(17) 0.65963(17) 0.65753(10)
N3B N 1.09947(14) 0.65412(16) 0.62156(9)
C14B C 1.1696(4) 0.6489(3) 0.6205(2)
H8B H 1.1892 0.6830 0.6362
H9B H 1.1852 0.6523 0.5933
C15B C 1.1868(3) 0.5824(3) 0.63805(17)
H10B H 1.2329 0.5757 0.6351
H11B H 1.1773 0.5831 0.6664
C16B C 1.1516(4) 0.5249(4) 0.6194(2)
H12B H 1.1682 0.4853 0.6309
H13B H 1.1060 0.5277 0.6259
C17B C 1.1590(3) 0.5222(3) 0.57536(18)
H14B H 1.2043 0.5270 0.5686
H15B H 1.1356 0.5579 0.5634
C18B C 1.1344(9) 0.4600(7) 0.5585(3)
H16B H 1.1579 0.4248 0.5708
H17B H 1.0893 0.4555 0.5659
C19B C 1.1393(5) 0.4532(5) 0.5159(3)
H18B H 1.0969 0.4546 0.5044
H19B H 1.1594 0.4126 0.5097
H20B H 1.1649 0.4879 0.5053
C20B C 1.0028(2) 0.6533(5) 0.58239(15)
C21B C 0.9725(3) 0.6620(4) 0.54695(16)
H21B H 0.9285 0.6532 0.5447
C22B C 1.0060(2) 0.6836(5) 0.51451(12)
C23B C 1.07007(19) 0.70111(18) 0.51882(11)
H22B H 1.0929 0.7180 0.4973
C24B C 1.09948(17) 0.69348(18) 0.55457(10)
H23B H 1.1423 0.7064 0.5576
C25B C 1.06762(19) 0.6672(2) 0.58633(11)
C26B C 0.97867(13) 0.68774(14) 0.47644(8)
C27B C 0.95789(13) 0.68943(14) 0.44383(8)
C28B C 0.93080(13) 0.69311(14) 0.40580(7)
C29B C 0.96441(15) 0.67643(19) 0.37222(8)
H24B H 1.0069 0.6620 0.3739
C30B C 0.93470(17) 0.6814(2) 0.33672(9)
H25B H 0.9569 0.6706 0.3135
C31B C 0.87249(16) 0.70221(19) 0.33448(8)
H26B H 0.8525 0.7053 0.3097
C32B C 0.86838(12) 0.71347(12) 0.40168(7)
H27B H 0.8451 0.7245 0.4244
N1C N 0.65834(9) 0.77839(9) 0.87763(5)
N2C N 0.65988(11) 0.78191(11) 0.36678(6)
C1C C 0.62295(11) 0.78427(11) 0.91020(7)
H1C H 0.6415 0.7759 0.9349
C2C C 0.55976(11) 0.80239(12) 0.90807(7)
H2C H 0.5354 0.8063 0.9313
C3C C 0.53229(11) 0.81470(12) 0.87219(7)
H3C H 0.4891 0.8271 0.8705
C4C C 0.56908(11) 0.80853(11) 0.83844(7)
C5C C 0.63239(11) 0.79030(10) 0.84260(6)
H4C H 0.6579 0.7862 0.8199
C6C C 0.54389(11) 0.81995(12) 0.80039(7)
C7C C 0.52256(12) 0.82719(13) 0.76820(8)
S1C S 0.54066(15) 0.88079(18) 0.62095(10)
C8C C 0.4967(2) 0.8525(5) 0.66115(13)
C9C C 0.5273(3) 0.8474(5) 0.69700(15)
H5C H 0.5717 0.8542 0.6986
C10C C 0.4929(2) 0.8323(5) 0.73062(12)
C11C C 0.4279(2) 0.82026(19) 0.72699(11)
H6C H 0.4039 0.8101 0.7496
C12C C 0.39821(17) 0.8230(2) 0.69111(10)
H7C H 0.3545 0.8129 0.6892
C13C C 0.43144(17) 0.84037(17) 0.65753(10)
N3C N 0.40053(14) 0.84588(16) 0.62156(9)
C14C C 0.3304(4) 0.8511(3) 0.6205(2)
H8C H 0.3108 0.8170 0.6362
H9C H 0.3148 0.8477 0.5933
C15C C 0.3132(3) 0.9176(3) 0.63805(17)
H10C H 0.2671 0.9243 0.6351
H11C H 0.3227 0.9169 0.6664
C16C C 0.3484(4) 0.9751(4) 0.6194(2)
H12C H 0.3318 1.0147 0.6309
H13C H 0.3940 0.9723 0.6259
C17C C 0.3410(3) 0.9778(3) 0.57536(18)
H14C H 0.2957 0.9730 0.5686
H15C H 0.3644 0.9421 0.5634
C18C C 0.3656(9) 1.0400(7) 0.5585(3)
H16C H 0.3421 1.0752 0.5708
H17C H 0.4107 1.0445 0.5659
C19C C 0.3607(5) 1.0468(5) 0.5159(3)
H18C H 0.4031 1.0454 0.5044
H19C H 0.3406 1.0874 0.5097
H20C H 0.3351 1.0121 0.5053
C20C C 0.4972(2) 0.8467(5) 0.58239(15)
C21C C 0.5275(3) 0.8380(4) 0.54695(16)
H21C H 0.5715 0.8468 0.5447
C22C C 0.4940(2) 0.8164(5) 0.51451(12)
C23C C 0.42993(19) 0.79889(18) 0.51882(11)
H22C H 0.4071 0.7820 0.4973
C24C C 0.40052(17) 0.80652(18) 0.55457(10)
H23C H 0.3577 0.7936 0.5576
C25C C 0.43238(19) 0.8328(2) 0.58633(11)
C26C C 0.52133(13) 0.81226(14) 0.47644(8)
C27C C 0.54211(13) 0.81057(14) 0.44383(8)
C28C C 0.56920(13) 0.80689(14) 0.40580(7)
C29C C 0.53559(15) 0.82357(19) 0.37222(8)
H24C H 0.4931 0.8380 0.3739
C30C C 0.56530(17) 0.8186(2) 0.33672(9)
H25C H 0.5431 0.8294 0.3135
C31C C 0.62751(16) 0.79779(19) 0.33448(8)
H26C H 0.6475 0.7947 0.3097
C32C C 0.63162(12) 0.78653(12) 0.40168(7)
H27C H 0.6549 0.7755 0.4244
S2? S 0.61921(18) 0.54066(15) 0.62095(10)
C41? C 0.6475(5) 0.4967(2) 0.66115(13)
C42? C 0.6526(5) 0.5273(3) 0.69700(15)
H48? H 0.6458 0.5717 0.6986
C43? C 0.6677(5) 0.4929(2) 0.73062(12)
C44? C 0.67974(19) 0.4279(2) 0.72699(11)
H49? H 0.6899 0.4039 0.7496
C45? C 0.6770(2) 0.39821(17) 0.69111(10)
H50? H 0.6871 0.3545 0.6892
C46? C 0.65963(17) 0.43144(17) 0.65753(10)
N4? N 0.65412(16) 0.40053(14) 0.62156(9)
C47? C 0.6315(5) 0.3344(6) 0.6209(5)
H51? H 0.6175 0.3223 0.6475
H52? H 0.6670 0.3063 0.6135
C48? C 0.5736(4) 0.3235(4) 0.5908(2)
H53? H 0.5909 0.3253 0.5640
H54? H 0.5572 0.2801 0.5949
C49? C 0.5148(4) 0.3718(5) 0.5933(3)
H55? H 0.4971 0.3693 0.6200
H56? H 0.5315 0.4152 0.5898
C50? C 0.4592(10) 0.3626(14) 0.5639(4)
H57? H 0.4242 0.3912 0.5715
H58? H 0.4435 0.3186 0.5662
C51? C 0.4771(7) 0.3759(7) 0.5192(4)
H59? H 0.5100 0.3452 0.5111
H60? H 0.4392 0.3680 0.5029
C52? C 0.5015(8) 0.4438(7) 0.5105(5)
H61? H 0.5397 0.4520 0.5259
H62? H 0.4688 0.4747 0.5174
H63? H 0.5115 0.4475 0.4826
C53? C 0.6533(5) 0.4972(2) 0.58239(15)
C54? C 0.6620(4) 0.5275(3) 0.54695(16)
H64? H 0.6532 0.5715 0.5447
C55? C 0.6836(5) 0.4940(2) 0.51451(12)
C56? C 0.70111(18) 0.42993(19) 0.51882(11)
H65? H 0.7180 0.4071 0.4973
C57? C 0.69348(18) 0.40052(17) 0.55457(10)
H66? H 0.7064 0.3577 0.5576
C58? C 0.6672(2) 0.43238(19) 0.58633(11)
S3? S 0.6260(9) 0.5462(8) 0.6200(5)
C59? C 0.646(3) 0.5003(9) 0.6610(6)
C60? C 0.656(3) 0.5298(13) 0.6968(7)
H67? H 0.6576 0.5747 0.6982
C61? C 0.663(3) 0.4938(12) 0.7308(6)
C62? C 0.6595(11) 0.4275(11) 0.7287(6)
H68? H 0.6621 0.4028 0.7519
C63? C 0.6524(10) 0.3984(9) 0.6928(5)
H69? H 0.6539 0.3535 0.6913
C64? C 0.6430(11) 0.4338(9) 0.6588(5)
N5? N 0.6330(9) 0.4053(8) 0.6222(4)
C65? C 0.6146(9) 0.3378(8) 0.6195(7)
H70? H 0.6300 0.3141 0.6426
H71? H 0.6327 0.3183 0.5957
C66? C 0.5375(9) 0.3369(13) 0.6178(6)
H72? H 0.5204 0.3785 0.6096
H73? H 0.5218 0.3037 0.5998
C67? C 0.5201(9) 0.3215(11) 0.6618(5)
H74? H 0.5228 0.2751 0.6653
H75? H 0.5529 0.3408 0.6786
C68? C 0.4534(10) 0.3439(13) 0.6772(6)
H76? H 0.4193 0.3216 0.6629
H77? H 0.4483 0.3899 0.6729
C69? C 0.4484(13) 0.3283(17) 0.7228(7)
H78? H 0.4129 0.2986 0.7276
H79? H 0.4400 0.3677 0.7376
C70? C 0.5141(12) 0.2971(16) 0.7373(6)
H80? H 0.5127 0.2908 0.7657
H81? H 0.5494 0.3253 0.7308
H82? H 0.5201 0.2561 0.7244
C71? C 0.655(3) 0.4990(10) 0.5815(7)
C72? C 0.669(2) 0.5255(13) 0.5455(7)
H83? H 0.6677 0.5702 0.5426
C73? C 0.684(2) 0.4872(12) 0.5132(6)
C74? C 0.6847(11) 0.4211(10) 0.5200(6)
H84? H 0.6940 0.3936 0.4988
C75? C 0.6723(10) 0.3950(9) 0.5559(5)
H85? H 0.6755 0.3505 0.5593
C76? C 0.6551(14) 0.4331(9) 0.5873(5)
C77? C 0.5556(8) 0.4262(7) 0.8050(4)
H86? H 0.5344 0.4505 0.8255
H87? H 0.5251 0.3978 0.7925
H88? H 0.5731 0.4553 0.7854
C78? C 0.6067(16) 0.389(2) 0.8220(8)
H89? H 0.6476 0.4043 0.8115
H90? H 0.6017 0.3442 0.8142
O3? O 0.6083(15) 0.3928(17) 0.8654(7)
C79? C 0.663(2) 0.351(4) 0.8769(11)
H91? H 0.6666 0.3150 0.8588
H92? H 0.7029 0.3757 0.8762
C80? C 0.650(2) 0.329(2) 0.9169(11)
H93? H 0.6883 0.3103 0.9280
H94? H 0.6161 0.2972 0.9163
H95? H 0.6364 0.3649 0.9331
B1? B 0.7507(11) 0.2529(11) 0.5064(3)
F1? F 0.6928(9) 0.2558(11) 0.5261(4)
F2? F 0.7985(8) 0.2463(11) 0.5339(4)
F3? F 0.7516(8) 0.2027(7) 0.4799(6)
F4? F 0.7625(7) 0.3104(6) 0.4875(4)
C81? C 0.5580(6) 0.4515(6) 0.9384(4)
H96? H 0.5552 0.4613 0.9663
H97? H 0.5177 0.4334 0.9295
H98? H 0.5669 0.4903 0.9237
C82? C 0.6113(6) 0.4037(7) 0.9315(4)
H99? H 0.6523 0.4212 0.9405
H100? H 0.6028 0.3640 0.9459
O4? O 0.6128(4) 0.3918(4) 0.8897(2)
C83? C 0.6670(8) 0.3478(9) 0.8826(3)
H101? H 0.6634 0.3094 0.8990
H102? H 0.7079 0.3688 0.8881
C84? C 0.6610(9) 0.3316(10) 0.8397(3)
H103? H 0.6801 0.2900 0.8348
H104? H 0.6829 0.3637 0.8241
H105? H 0.6161 0.3305 0.8324
B2? B 0.7573(11) 0.7307(8) 0.2491(6)
F5? F 0.8206(8) 0.7130(8) 0.2476(10)
F6? F 0.7204(8) 0.6771(9) 0.2437(11)
F7? F 0.7450(16) 0.7740(7) 0.2191(5)
F8? F 0.744(3) 0.7580(15) 0.2851(4)
B3? B 0.7454(10) 0.7217(6) 0.7510(7)
F9? F 0.6869(10) 0.6910(9) 0.7524(16)
F10? F 0.7496(19) 0.7647(9) 0.7819(7)
F11? F 0.7939(7) 0.6768(7) 0.7546(7)
F12? F 0.752(3) 0.7526(15) 0.7151(7)
B4? B 0.7458(10) 0.7320(5) 0.9996(3)
F13? F 0.7456(18) 0.7502(13) 1.03872(10)
F14? F 0.6847(6) 0.7143(7) 0.9878(6)
F15? F 0.7634(7) 0.7822(4) 0.9761(2)
F16? F 0.7878(7) 0.6821(6) 0.9944(6)
B5? B 0.7259(7) 0.2494(8) 0.7603(4)
F17? F 0.7648(7) 0.2428(7) 0.7980(3)
F18? F 0.7540(10) 0.1994(8) 0.7401(5)
F19? F 0.6630(5) 0.2384(5) 0.7616(4)
F20? F 0.7451(12) 0.3057(8) 0.7474(6)
loop_
_geom_bond_atom_site_label_1
_geom_bond_atom_site_label_2
_geom_bond_site_symmetry_1
_geom_bond_site_symmetry_2
Pd1 N1 1_555 1_555
Pd2 N2 1_555 1_555
N1 C1 1_555 1_555
N2 C31 1_555 1_555
C1 H1 1_555 1_555
C2 C1 1_555 1_555
H2 C2 1_555 1_555
C3 C2 1_555 1_555
H3 C3 1_555 1_555
C4 C3 1_555 1_555
C5 N1 1_555 1_555
H4 C5 1_555 1_555
C6 C4 1_555 1_555
C7 C6 1_555 1_555
S1 C8 1_555 1_555
C8 C9 1_555 1_555
C9 H5 1_555 1_555
C10 C7 1_555 1_555
C11 C10 1_555 1_555
H6 C11 1_555 1_555
C12 C11 1_555 1_555
H7 C12 1_555 1_555
C13 C8 1_555 1_555
N3 C13 1_555 1_555
C14 N3 1_555 1_555
H8 C14 1_555 1_555
H9 C14 1_555 1_555
C15 C14 1_555 1_555
H10 C15 1_555 1_555
H11 C15 1_555 1_555
C16 C15 1_555 1_555
H12 C16 1_555 1_555
H13 C16 1_555 1_555
C17 C16 1_555 1_555
H14 C17 1_555 1_555
H15 C17 1_555 1_555
C18 C17 1_555 1_555
H16 C18 1_555 1_555
H17 C18 1_555 1_555
C19 C18 1_555 1_555
H18 C19 1_555 1_555
H19 C19 1_555 1_555
H20 C19 1_555 1_555
C20 S1 1_555 1_555
C21 C20 1_555 1_555
H21 C21 1_555 1_555
C22 C21 1_555 1_555
C23 C22 1_555 1_555
H22 C23 1_555 1_555
C24 C23 1_555 1_555
H23 C24 1_555 1_555
C25 N3 1_555 1_555
C26 C22 1_555 1_555
C27 C26 1_555 1_555
C28 C27 1_555 1_555
C29 C28 1_555 1_555
H24 C29 1_555 1_555
C30 C29 1_555 1_555
H25 C30 1_555 1_555
C31 C30 1_555 1_555
H26 C31 1_555 1_555
C32 N2 1_555 1_555
H27 C32 1_555 1_555
C33 H28 1_555 1_555
H29 C33 1_555 1_555
H30 C33 1_555 1_555
C34 C33 1_555 1_555
H31 C34 1_555 1_555
H32 C34 1_555 1_555
O1 C34 1_555 1_555
C35 O1 1_555 1_555
H33 C35 1_555 1_555
H34 C35 1_555 1_555
C36 C35 1_555 1_555
H35 C36 1_555 1_555
H36 C36 1_555 1_555
H37 C36 1_555 1_555
C37 H38 1_555 1_555
H39 C37 1_555 1_555
H40 C37 1_555 1_555
C38 C37 1_555 1_555
H41 C38 1_555 1_555
H42 C38 1_555 1_555
O2 C38 1_555 1_555
C39 O2 1_555 1_555
H43 C39 1_555 1_555
H44 C39 1_555 1_555
C40 C39 1_555 1_555
H45 C40 1_555 1_555
H46 C40 1_555 1_555
H47 C40 1_555 1_555
N1A Pd1 1_555 1_555
N2A Pd2 1_555 1_555
C1A N1A 1_555 1_555
H1A C1A 1_555 1_555
C2A C1A 1_555 1_555
H2A C2A 1_555 1_555
C3A C2A 1_555 1_555
H3A C3A 1_555 1_555
C4A C3A 1_555 1_555
C5A N1A 1_555 1_555
H4A C5A 1_555 1_555
C6A C4A 1_555 1_555
C7A C6A 1_555 1_555
S1A C8A 1_555 1_555
C8A C9A 1_555 1_555
C9A H5A 1_555 1_555
C10A C7A 1_555 1_555
C11A C10A 1_555 1_555
H6A C11A 1_555 1_555
C12A C11A 1_555 1_555
H7A C12A 1_555 1_555
C13A C8A 1_555 1_555
N3A C13A 1_555 1_555
C14A N3A 1_555 1_555
H8A C14A 1_555 1_555
H9A C14A 1_555 1_555
C15A C14A 1_555 1_555
H10A C15A 1_555 1_555
H11A C15A 1_555 1_555
C16A C15A 1_555 1_555
H12A C16A 1_555 1_555
H13A C16A 1_555 1_555
C17A C16A 1_555 1_555
H14A C17A 1_555 1_555
H15A C17A 1_555 1_555
C18A C17A 1_555 1_555
H16A C18A 1_555 1_555
H17A C18A 1_555 1_555
C19A C18A 1_555 1_555
H18A C19A 1_555 1_555
H19A C19A 1_555 1_555
H20A C19A 1_555 1_555
C20A S1A 1_555 1_555
C21A C20A 1_555 1_555
H21A C21A 1_555 1_555
C22A C21A 1_555 1_555
C23A C22A 1_555 1_555
H22A C23A 1_555 1_555
C24A C23A 1_555 1_555
H23A C24A 1_555 1_555
C25A N3A 1_555 1_555
C26A C22A 1_555 1_555
C27A C26A 1_555 1_555
C28A C27A 1_555 1_555
C29A C28A 1_555 1_555
H24A C29A 1_555 1_555
C30A C29A 1_555 1_555
H25A C30A 1_555 1_555
C31A N2A 1_555 1_555
H26A C31A 1_555 1_555
C32A N2A 1_555 1_555
H27A C32A 1_555 1_555
N1B Pd1 1_555 1_555
N2B Pd2 1_555 1_555
C1B N1B 1_555 1_555
H1B C1B 1_555 1_555
C2B C1B 1_555 1_555
H2B C2B 1_555 1_555
C3B C2B 1_555 1_555
H3B C3B 1_555 1_555
C4B C3B 1_555 1_555
C5B N1B 1_555 1_555
H4B C5B 1_555 1_555
C6B C4B 1_555 1_555
C7B C6B 1_555 1_555
S1B C8B 1_555 1_555
C8B C9B 1_555 1_555
C9B H5B 1_555 1_555
C10B C7B 1_555 1_555
C11B C10B 1_555 1_555
H6B C11B 1_555 1_555
C12B C11B 1_555 1_555
H7B C12B 1_555 1_555
C13B C8B 1_555 1_555
N3B C13B 1_555 1_555
C14B N3B 1_555 1_555
H8B C14B 1_555 1_555
H9B C14B 1_555 1_555
C15B C14B 1_555 1_555
H10B C15B 1_555 1_555
H11B C15B 1_555 1_555
C16B C15B 1_555 1_555
H12B C16B 1_555 1_555
H13B C16B 1_555 1_555
C17B C16B 1_555 1_555
H14B C17B 1_555 1_555
H15B C17B 1_555 1_555
C18B C17B 1_555 1_555
H16B C18B 1_555 1_555
H17B C18B 1_555 1_555
C19B C18B 1_555 1_555
H18B C19B 1_555 1_555
H19B C19B 1_555 1_555
H20B C19B 1_555 1_555
C20B S1B 1_555 1_555
C21B C20B 1_555 1_555
H21B C21B 1_555 1_555
C22B C21B 1_555 1_555
C23B C22B 1_555 1_555
H22B C23B 1_555 1_555
C24B C23B 1_555 1_555
H23B C24B 1_555 1_555
C25B N3B 1_555 1_555
C26B C22B 1_555 1_555
C27B C26B 1_555 1_555
C28B C27B 1_555 1_555
C29B C28B 1_555 1_555
H24B C29B 1_555 1_555
C30B C29B 1_555 1_555
H25B C30B 1_555 1_555
C31B N2B 1_555 1_555
H26B C31B 1_555 1_555
C32B N2B 1_555 1_555
H27B C32B 1_555 1_555
N1C Pd1 1_555 1_555
N2C Pd2 1_555 1_555
C1C N1C 1_555 1_555
H1C C1C 1_555 1_555
C2C C1C 1_555 1_555
H2C C2C 1_555 1_555
C3C C2C 1_555 1_555
H3C C3C 1_555 1_555
C4C C3C 1_555 1_555
C5C N1C 1_555 1_555
H4C C5C 1_555 1_555
C6C C4C 1_555 1_555
C7C C6C 1_555 1_555
S1C C8C 1_555 1_555
C8C C9C 1_555 1_555
C9C H5C 1_555 1_555
C10C C7C 1_555 1_555
C11C C10C 1_555 1_555
H6C C11C 1_555 1_555
C12C C11C 1_555 1_555
H7C C12C 1_555 1_555
C13C C8C 1_555 1_555
N3C C13C 1_555 1_555
C14C N3C 1_555 1_555
H8C C14C 1_555 1_555
H9C C14C 1_555 1_555
C15C C14C 1_555 1_555
H10C C15C 1_555 1_555
H11C C15C 1_555 1_555
C16C C15C 1_555 1_555
H12C C16C 1_555 1_555
H13C C16C 1_555 1_555
C17C C16C 1_555 1_555
H14C C17C 1_555 1_555
H15C C17C 1_555 1_555
C18C C17C 1_555 1_555
H16C C18C 1_555 1_555
H17C C18C 1_555 1_555
C19C C18C 1_555 1_555
H18C C19C 1_555 1_555
H19C C19C 1_555 1_555
H20C C19C 1_555 1_555
C20C S1C 1_555 1_555
C21C C20C 1_555 1_555
H21C C21C 1_555 1_555
C22C C21C 1_555 1_555
C23C C22C 1_555 1_555
H22C C23C 1_555 1_555
C24C C23C 1_555 1_555
H23C C24C 1_555 1_555
C25C N3C 1_555 1_555
C26C C22C 1_555 1_555
C27C C26C 1_555 1_555
C28C C27C 1_555 1_555
C29C C28C 1_555 1_555
H24C C29C 1_555 1_555
C30C C29C 1_555 1_555
H25C C30C 1_555 1_555
C31C N2C 1_555 1_555
H26C C31C 1_555 1_555
C32C N2C 1_555 1_555
H27C C32C 1_555 1_555
C4 C5 1_555 1_555
C9 C10 1_555 1_555
C12 C13 1_555 1_555
C20 C25 1_555 1_555
C24 C25 1_555 1_555
C28 C32 1_555 1_555
C4A C5A 1_555 1_555
C9A C10A 1_555 1_555
C12A C13A 1_555 1_555
C20A C25A 1_555 1_555
C24A C25A 1_555 1_555
C28A C32A 1_555 1_555
C30A C31A 1_555 1_555
C4B C5B 1_555 1_555
C9B C10B 1_555 1_555
C12B C13B 1_555 1_555
C20B C25B 1_555 1_555
C24B C25B 1_555 1_555
C28B C32B 1_555 1_555
C30B C31B 1_555 1_555
C4C C5C 1_555 1_555
C9C C10C 1_555 1_555
C12C C13C 1_555 1_555
C20C C25C 1_555 1_555
C24C C25C 1_555 1_555
C28C C32C 1_555 1_555
C30C C31C 1_555 1_555

#END
