# generated using pymatgen
data_B27H216Pd4C256S8N24(O4F59)2
_symmetry_space_group_name_H-M   'P 1'
_cell_length_a   21.95600000
_cell_length_b   21.95600000
_cell_length_c   32.71300000
_cell_angle_alpha   90.00000000
_cell_angle_beta   90.00000000
_cell_angle_gamma   90.00000000
_symmetry_Int_Tables_number   1
_chemical_formula_structural   B27H216Pd4C256S8N24(O4F59)2
_chemical_formula_sum   'B54 H432 Pd8 C512 S16 N48 O16 F236'
_cell_volume   15769.82296437
_cell_formula_units_Z   2
loop_
 _symmetry_equiv_pos_site_id
 _symmetry_equiv_pos_as_xyz
  1  'x, y, z'
loop_
 _atom_site_type_symbol
 _atom_site_label
 _atom_site_symmetry_multiplicity
 _atom_site_fract_x
 _atom_site_fract_y
 _atom_site_fract_z
 _atom_site_occupancy
  B  B1  1  0.032300  0.990100  0.501900  1
  B  B2  1  0.967700  0.009900  0.501900  1
  B  B3  1  0.009900  0.032300  0.501900  1
  B  B4  1  0.990100  0.967700  0.501900  1
  B  B5  1  0.967700  0.990100  0.498100  1
  B  B6  1  0.032300  0.009900  0.498100  1
  B  B7  1  0.990100  0.032300  0.498100  1
  B  B8  1  0.009900  0.967700  0.498100  1
  B  B9  1  0.532300  0.490100  0.001900  1
  B  B10  1  0.467700  0.509900  0.001900  1
  B  B11  1  0.509900  0.532300  0.001900  1
  B  B12  1  0.490100  0.467700  0.001900  1
  B  B13  1  0.467700  0.490100  0.998100  1
  B  B14  1  0.532300  0.509900  0.998100  1
  B  B15  1  0.490100  0.532300  0.998100  1
  B  B16  1  0.509900  0.467700  0.998100  1
  B  B17  1  0.500000  0.500000  0.500000  1
  B  B18  1  0.000000  0.000000  0.000000  1
  B  B19  1  0.993000  0.027300  0.244400  1
  B  B20  1  0.007000  0.972700  0.244400  1
  B  B21  1  0.972700  0.993000  0.244400  1
  B  B22  1  0.027300  0.007000  0.244400  1
  B  B23  1  0.007000  0.027300  0.755600  1
  B  B24  1  0.993000  0.972700  0.755600  1
  B  B25  1  0.027300  0.993000  0.755600  1
  B  B26  1  0.972700  0.007000  0.755600  1
  B  B27  1  0.493000  0.527300  0.744400  1
  B  B28  1  0.507000  0.472700  0.744400  1
  B  B29  1  0.472700  0.493000  0.744400  1
  B  B30  1  0.527300  0.507000  0.744400  1
  B  B31  1  0.507000  0.527300  0.255600  1
  B  B32  1  0.493000  0.472700  0.255600  1
  B  B33  1  0.527300  0.493000  0.255600  1
  B  B34  1  0.472700  0.507000  0.255600  1
  B  B35  1  0.961100  0.500900  0.498100  1
  B  B36  1  0.038900  0.499100  0.498100  1
  B  B37  1  0.499100  0.961100  0.498100  1
  B  B38  1  0.500900  0.038900  0.498100  1
  B  B39  1  0.038900  0.500900  0.501900  1
  B  B40  1  0.961100  0.499100  0.501900  1
  B  B41  1  0.500900  0.961100  0.501900  1
  B  B42  1  0.499100  0.038900  0.501900  1
  B  B43  1  0.461100  0.000900  0.998100  1
  B  B44  1  0.538900  0.999100  0.998100  1
  B  B45  1  0.999100  0.461100  0.998100  1
  B  B46  1  0.000900  0.538900  0.998100  1
  B  B47  1  0.538900  0.000900  0.001900  1
  B  B48  1  0.461100  0.999100  0.001900  1
  B  B49  1  0.000900  0.461100  0.001900  1
  B  B50  1  0.999100  0.538900  0.001900  1
  B  B51  1  0.000000  0.500000  0.250000  1
  B  B52  1  0.500000  0.000000  0.250000  1
  B  B53  1  0.000000  0.500000  0.750000  1
  B  B54  1  0.500000  0.000000  0.750000  1
  H  H55  1  0.045000  0.091000  0.691200  1.0
  H  H56  1  0.955000  0.909000  0.691200  1.0
  H  H57  1  0.909000  0.045000  0.691200  1.0
  H  H58  1  0.091000  0.955000  0.691200  1.0
  H  H59  1  0.955000  0.091000  0.308800  1.0
  H  H60  1  0.045000  0.909000  0.308800  1.0
  H  H61  1  0.091000  0.045000  0.308800  1.0
  H  H62  1  0.909000  0.955000  0.308800  1.0
  H  H63  1  0.545000  0.591000  0.191200  1.0
  H  H64  1  0.455000  0.409000  0.191200  1.0
  H  H65  1  0.409000  0.545000  0.191200  1.0
  H  H66  1  0.591000  0.455000  0.191200  1.0
  H  H67  1  0.455000  0.591000  0.808800  1.0
  H  H68  1  0.545000  0.409000  0.808800  1.0
  H  H69  1  0.591000  0.545000  0.808800  1.0
  H  H70  1  0.409000  0.455000  0.808800  1.0
  H  H71  1  0.082800  0.188100  0.691400  1.0
  H  H72  1  0.917200  0.811900  0.691400  1.0
  H  H73  1  0.811900  0.082800  0.691400  1.0
  H  H74  1  0.188100  0.917200  0.691400  1.0
  H  H75  1  0.917200  0.188100  0.308600  1.0
  H  H76  1  0.082800  0.811900  0.308600  1.0
  H  H77  1  0.188100  0.082800  0.308600  1.0
  H  H78  1  0.811900  0.917200  0.308600  1.0
  H  H79  1  0.582800  0.688100  0.191400  1.0
  H  H80  1  0.417200  0.311900  0.191400  1.0
  H  H81  1  0.311900  0.582800  0.191400  1.0
  H  H82  1  0.688100  0.417200  0.191400  1.0
  H  H83  1  0.417200  0.688100  0.808600  1.0
  H  H84  1  0.582800  0.311900  0.808600  1.0
  H  H85  1  0.688100  0.582800  0.808600  1.0
  H  H86  1  0.311900  0.417200  0.808600  1.0
  H  H87  1  0.094700  0.242000  0.629800  1.0
  H  H88  1  0.905300  0.758000  0.629800  1.0
  H  H89  1  0.758000  0.094700  0.629800  1.0
  H  H90  1  0.242000  0.905300  0.629800  1.0
  H  H91  1  0.905300  0.242000  0.370200  1.0
  H  H92  1  0.094700  0.758000  0.370200  1.0
  H  H93  1  0.242000  0.094700  0.370200  1.0
  H  H94  1  0.758000  0.905300  0.370200  1.0
  H  H95  1  0.594700  0.742000  0.129800  1.0
  H  H96  1  0.405300  0.258000  0.129800  1.0
  H  H97  1  0.258000  0.594700  0.129800  1.0
  H  H98  1  0.742000  0.405300  0.129800  1.0
  H  H99  1  0.405300  0.742000  0.870200  1.0
  H  H100  1  0.594700  0.258000  0.870200  1.0
  H  H101  1  0.742000  0.594700  0.870200  1.0
  H  H102  1  0.258000  0.405300  0.870200  1.0
  H  H103  1  0.030100  0.096000  0.572200  1.0
  H  H104  1  0.969900  0.904000  0.572200  1.0
  H  H105  1  0.904000  0.030100  0.572200  1.0
  H  H106  1  0.096000  0.969900  0.572200  1.0
  H  H107  1  0.969900  0.096000  0.427800  1.0
  H  H108  1  0.030100  0.904000  0.427800  1.0
  H  H109  1  0.096000  0.030100  0.427800  1.0
  H  H110  1  0.904000  0.969900  0.427800  1.0
  H  H111  1  0.530100  0.596000  0.072200  1.0
  H  H112  1  0.469900  0.404000  0.072200  1.0
  H  H113  1  0.404000  0.530100  0.072200  1.0
  H  H114  1  0.596000  0.469900  0.072200  1.0
  H  H115  1  0.469900  0.596000  0.927800  1.0
  H  H116  1  0.530100  0.404000  0.927800  1.0
  H  H117  1  0.596000  0.530100  0.927800  1.0
  H  H118  1  0.404000  0.469900  0.927800  1.0
  H  H119  1  0.073500  0.342300  0.507100  1.0
  H  H120  1  0.926500  0.657700  0.507100  1.0
  H  H121  1  0.657700  0.073500  0.507100  1.0
  H  H122  1  0.342300  0.926500  0.507100  1.0
  H  H123  1  0.926500  0.342300  0.492900  1.0
  H  H124  1  0.073500  0.657700  0.492900  1.0
  H  H125  1  0.342300  0.073500  0.492900  1.0
  H  H126  1  0.657700  0.926500  0.492900  1.0
  H  H127  1  0.573500  0.842300  0.007100  1.0
  H  H128  1  0.426500  0.157700  0.007100  1.0
  H  H129  1  0.157700  0.573500  0.007100  1.0
  H  H130  1  0.842300  0.426500  0.007100  1.0
  H  H131  1  0.426500  0.842300  0.992900  1.0
  H  H132  1  0.573500  0.157700  0.992900  1.0
  H  H133  1  0.842300  0.573500  0.992900  1.0
  H  H134  1  0.157700  0.426500  0.992900  1.0
  H  H135  1  0.079800  0.394900  0.445700  1.0
  H  H136  1  0.920200  0.605100  0.445700  1.0
  H  H137  1  0.605100  0.079800  0.445700  1.0
  H  H138  1  0.394900  0.920200  0.445700  1.0
  H  H139  1  0.920200  0.394900  0.554300  1.0
  H  H140  1  0.079800  0.605100  0.554300  1.0
  H  H141  1  0.394900  0.079800  0.554300  1.0
  H  H142  1  0.605100  0.920200  0.554300  1.0
  H  H143  1  0.579800  0.894900  0.945700  1.0
  H  H144  1  0.420200  0.105100  0.945700  1.0
  H  H145  1  0.105100  0.579800  0.945700  1.0
  H  H146  1  0.894900  0.420200  0.945700  1.0
  H  H147  1  0.420200  0.894900  0.054300  1.0
  H  H148  1  0.579800  0.105100  0.054300  1.0
  H  H149  1  0.894900  0.579800  0.054300  1.0
  H  H150  1  0.105100  0.420200  0.054300  1.0
  H  H151  1  0.089900  0.181000  0.446900  1.0
  H  H152  1  0.910100  0.819000  0.446900  1.0
  H  H153  1  0.819000  0.089900  0.446900  1.0
  H  H154  1  0.181000  0.910100  0.446900  1.0
  H  H155  1  0.910100  0.181000  0.553100  1.0
  H  H156  1  0.089900  0.819000  0.553100  1.0
  H  H157  1  0.181000  0.089900  0.553100  1.0
  H  H158  1  0.819000  0.910100  0.553100  1.0
  H  H159  1  0.589900  0.681000  0.946900  1.0
  H  H160  1  0.410100  0.319000  0.946900  1.0
  H  H161  1  0.319000  0.589900  0.946900  1.0
  H  H162  1  0.681000  0.410100  0.946900  1.0
  H  H163  1  0.410100  0.681000  0.053100  1.0
  H  H164  1  0.589900  0.319000  0.053100  1.0
  H  H165  1  0.681000  0.589900  0.053100  1.0
  H  H166  1  0.319000  0.410100  0.053100  1.0
  H  H167  1  0.072700  0.442800  0.358300  1.0
  H  H168  1  0.927300  0.557200  0.358300  1.0
  H  H169  1  0.557200  0.072700  0.358300  1.0
  H  H170  1  0.442800  0.927300  0.358300  1.0
  H  H171  1  0.927300  0.442800  0.641700  1.0
  H  H172  1  0.072700  0.557200  0.641700  1.0
  H  H173  1  0.442800  0.072700  0.641700  1.0
  H  H174  1  0.557200  0.927300  0.641700  1.0
  H  H175  1  0.572700  0.942800  0.858300  1.0
  H  H176  1  0.427300  0.057200  0.858300  1.0
  H  H177  1  0.057200  0.572700  0.858300  1.0
  H  H178  1  0.942800  0.427300  0.858300  1.0
  H  H179  1  0.427300  0.942800  0.141700  1.0
  H  H180  1  0.572700  0.057200  0.141700  1.0
  H  H181  1  0.942800  0.572700  0.141700  1.0
  H  H182  1  0.057200  0.427300  0.141700  1.0
  H  H183  1  0.112700  0.433800  0.399200  1.0
  H  H184  1  0.887300  0.566200  0.399200  1.0
  H  H185  1  0.566200  0.112700  0.399200  1.0
  H  H186  1  0.433800  0.887300  0.399200  1.0
  H  H187  1  0.887300  0.433800  0.600800  1.0
  H  H188  1  0.112700  0.566200  0.600800  1.0
  H  H189  1  0.433800  0.112700  0.600800  1.0
  H  H190  1  0.566200  0.887300  0.600800  1.0
  H  H191  1  0.612700  0.933800  0.899200  1.0
  H  H192  1  0.387300  0.066200  0.899200  1.0
  H  H193  1  0.066200  0.612700  0.899200  1.0
  H  H194  1  0.933800  0.387300  0.899200  1.0
  H  H195  1  0.387300  0.933800  0.100800  1.0
  H  H196  1  0.612700  0.066200  0.100800  1.0
  H  H197  1  0.933800  0.612700  0.100800  1.0
  H  H198  1  0.066200  0.387300  0.100800  1.0
  H  H199  1  0.173300  0.466000  0.342100  1.0
  H  H200  1  0.826700  0.534000  0.342100  1.0
  H  H201  1  0.534000  0.173300  0.342100  1.0
  H  H202  1  0.466000  0.826700  0.342100  1.0
  H  H203  1  0.826700  0.466000  0.657900  1.0
  H  H204  1  0.173300  0.534000  0.657900  1.0
  H  H205  1  0.466000  0.173300  0.657900  1.0
  H  H206  1  0.534000  0.826700  0.657900  1.0
  H  H207  1  0.673300  0.966000  0.842100  1.0
  H  H208  1  0.326700  0.034000  0.842100  1.0
  H  H209  1  0.034000  0.673300  0.842100  1.0
  H  H210  1  0.966000  0.326700  0.842100  1.0
  H  H211  1  0.326700  0.966000  0.157900  1.0
  H  H212  1  0.673300  0.034000  0.157900  1.0
  H  H213  1  0.966000  0.673300  0.157900  1.0
  H  H214  1  0.034000  0.326700  0.157900  1.0
  H  H215  1  0.155200  0.404400  0.319000  1.0
  H  H216  1  0.844800  0.595600  0.319000  1.0
  H  H217  1  0.595600  0.155200  0.319000  1.0
  H  H218  1  0.404400  0.844800  0.319000  1.0
  H  H219  1  0.844800  0.404400  0.681000  1.0
  H  H220  1  0.155200  0.595600  0.681000  1.0
  H  H221  1  0.404400  0.155200  0.681000  1.0
  H  H222  1  0.595600  0.844800  0.681000  1.0
  H  H223  1  0.655200  0.904400  0.819000  1.0
  H  H224  1  0.344800  0.095600  0.819000  1.0
  H  H225  1  0.095600  0.655200  0.819000  1.0
  H  H226  1  0.904400  0.344800  0.819000  1.0
  H  H227  1  0.344800  0.904400  0.181000  1.0
  H  H228  1  0.655200  0.095600  0.181000  1.0
  H  H229  1  0.904400  0.655200  0.181000  1.0
  H  H230  1  0.095600  0.344800  0.181000  1.0
  H  H231  1  0.255100  0.397700  0.350100  1.0
  H  H232  1  0.744900  0.602300  0.350100  1.0
  H  H233  1  0.602300  0.255100  0.350100  1.0
  H  H234  1  0.397700  0.744900  0.350100  1.0
  H  H235  1  0.744900  0.397700  0.649900  1.0
  H  H236  1  0.255100  0.602300  0.649900  1.0
  H  H237  1  0.397700  0.255100  0.649900  1.0
  H  H238  1  0.602300  0.744900  0.649900  1.0
  H  H239  1  0.755100  0.897700  0.850100  1.0
  H  H240  1  0.244900  0.102300  0.850100  1.0
  H  H241  1  0.102300  0.755100  0.850100  1.0
  H  H242  1  0.897700  0.244900  0.850100  1.0
  H  H243  1  0.244900  0.897700  0.149900  1.0
  H  H244  1  0.755100  0.102300  0.149900  1.0
  H  H245  1  0.897700  0.755100  0.149900  1.0
  H  H246  1  0.102300  0.244900  0.149900  1.0
  H  H247  1  0.210400  0.345500  0.367100  1.0
  H  H248  1  0.789600  0.654500  0.367100  1.0
  H  H249  1  0.654500  0.210400  0.367100  1.0
  H  H250  1  0.345500  0.789600  0.367100  1.0
  H  H251  1  0.789600  0.345500  0.632900  1.0
  H  H252  1  0.210400  0.654500  0.632900  1.0
  H  H253  1  0.345500  0.210400  0.632900  1.0
  H  H254  1  0.654500  0.789600  0.632900  1.0
  H  H255  1  0.710400  0.845500  0.867100  1.0
  H  H256  1  0.289600  0.154500  0.867100  1.0
  H  H257  1  0.154500  0.710400  0.867100  1.0
  H  H258  1  0.845500  0.289600  0.867100  1.0
  H  H259  1  0.289600  0.845500  0.132900  1.0
  H  H260  1  0.710400  0.154500  0.132900  1.0
  H  H261  1  0.845500  0.710400  0.132900  1.0
  H  H262  1  0.154500  0.289600  0.132900  1.0
  H  H263  1  0.218600  0.460800  0.409900  1.0
  H  H264  1  0.781400  0.539200  0.409900  1.0
  H  H265  1  0.539200  0.218600  0.409900  1.0
  H  H266  1  0.460800  0.781400  0.409900  1.0
  H  H267  1  0.781400  0.460800  0.590100  1.0
  H  H268  1  0.218600  0.539200  0.590100  1.0
  H  H269  1  0.460800  0.218600  0.590100  1.0
  H  H270  1  0.539200  0.781400  0.590100  1.0
  H  H271  1  0.718600  0.960800  0.909900  1.0
  H  H272  1  0.281400  0.039200  0.909900  1.0
  H  H273  1  0.039200  0.718600  0.909900  1.0
  H  H274  1  0.960800  0.281400  0.909900  1.0
  H  H275  1  0.281400  0.960800  0.090100  1.0
  H  H276  1  0.718600  0.039200  0.090100  1.0
  H  H277  1  0.960800  0.718600  0.090100  1.0
  H  H278  1  0.039200  0.281400  0.090100  1.0
  H  H279  1  0.193000  0.398200  0.428400  1.0
  H  H280  1  0.807000  0.601800  0.428400  1.0
  H  H281  1  0.601800  0.193000  0.428400  1.0
  H  H282  1  0.398200  0.807000  0.428400  1.0
  H  H283  1  0.807000  0.398200  0.571600  1.0
  H  H284  1  0.193000  0.601800  0.571600  1.0
  H  H285  1  0.398200  0.193000  0.571600  1.0
  H  H286  1  0.601800  0.807000  0.571600  1.0
  H  H287  1  0.693000  0.898200  0.928400  1.0
  H  H288  1  0.307000  0.101800  0.928400  1.0
  H  H289  1  0.101800  0.693000  0.928400  1.0
  H  H290  1  0.898200  0.307000  0.928400  1.0
  H  H291  1  0.307000  0.898200  0.071600  1.0
  H  H292  1  0.693000  0.101800  0.071600  1.0
  H  H293  1  0.898200  0.693000  0.071600  1.0
  H  H294  1  0.101800  0.307000  0.071600  1.0
  H  H295  1  0.297600  0.358200  0.421700  1.0
  H  H296  1  0.702400  0.641800  0.421700  1.0
  H  H297  1  0.641800  0.297600  0.421700  1.0
  H  H298  1  0.358200  0.702400  0.421700  1.0
  H  H299  1  0.702400  0.358200  0.578300  1.0
  H  H300  1  0.297600  0.641800  0.578300  1.0
  H  H301  1  0.358200  0.297600  0.578300  1.0
  H  H302  1  0.641800  0.702400  0.578300  1.0
  H  H303  1  0.797600  0.858200  0.921700  1.0
  H  H304  1  0.202400  0.141800  0.921700  1.0
  H  H305  1  0.141800  0.797600  0.921700  1.0
  H  H306  1  0.858200  0.202400  0.921700  1.0
  H  H307  1  0.202400  0.858200  0.078300  1.0
  H  H308  1  0.797600  0.141800  0.078300  1.0
  H  H309  1  0.858200  0.797600  0.078300  1.0
  H  H310  1  0.141800  0.202400  0.078300  1.0
  H  H311  1  0.318500  0.426800  0.413300  1.0
  H  H312  1  0.681500  0.573200  0.413300  1.0
  H  H313  1  0.573200  0.318500  0.413300  1.0
  H  H314  1  0.426800  0.681500  0.413300  1.0
  H  H315  1  0.681500  0.426800  0.586700  1.0
  H  H316  1  0.318500  0.573200  0.586700  1.0
  H  H317  1  0.426800  0.318500  0.586700  1.0
  H  H318  1  0.573200  0.681500  0.586700  1.0
  H  H319  1  0.818500  0.926800  0.913300  1.0
  H  H320  1  0.181500  0.073200  0.913300  1.0
  H  H321  1  0.073200  0.818500  0.913300  1.0
  H  H322  1  0.926800  0.181500  0.913300  1.0
  H  H323  1  0.181500  0.926800  0.086700  1.0
  H  H324  1  0.818500  0.073200  0.086700  1.0
  H  H325  1  0.926800  0.818500  0.086700  1.0
  H  H326  1  0.073200  0.181500  0.086700  1.0
  H  H327  1  0.302600  0.455300  0.478800  1.0
  H  H328  1  0.697400  0.544700  0.478800  1.0
  H  H329  1  0.544700  0.302600  0.478800  1.0
  H  H330  1  0.455300  0.697400  0.478800  1.0
  H  H331  1  0.697400  0.455300  0.521200  1.0
  H  H332  1  0.302600  0.544700  0.521200  1.0
  H  H333  1  0.455300  0.302600  0.521200  1.0
  H  H334  1  0.544700  0.697400  0.521200  1.0
  H  H335  1  0.802600  0.955300  0.978800  1.0
  H  H336  1  0.197400  0.044700  0.978800  1.0
  H  H337  1  0.044700  0.802600  0.978800  1.0
  H  H338  1  0.955300  0.197400  0.978800  1.0
  H  H339  1  0.197400  0.955300  0.021200  1.0
  H  H340  1  0.802600  0.044700  0.021200  1.0
  H  H341  1  0.955300  0.802600  0.021200  1.0
  H  H342  1  0.044700  0.197400  0.021200  1.0
  H  H343  1  0.326900  0.387200  0.484600  1.0
  H  H344  1  0.673100  0.612800  0.484600  1.0
  H  H345  1  0.612800  0.326900  0.484600  1.0
  H  H346  1  0.387200  0.673100  0.484600  1.0
  H  H347  1  0.673100  0.387200  0.515400  1.0
  H  H348  1  0.326900  0.612800  0.515400  1.0
  H  H349  1  0.387200  0.326900  0.515400  1.0
  H  H350  1  0.612800  0.673100  0.515400  1.0
  H  H351  1  0.826900  0.887200  0.984600  1.0
  H  H352  1  0.173100  0.112800  0.984600  1.0
  H  H353  1  0.112800  0.826900  0.984600  1.0
  H  H354  1  0.887200  0.173100  0.984600  1.0
  H  H355  1  0.173100  0.887200  0.015400  1.0
  H  H356  1  0.826900  0.112800  0.015400  1.0
  H  H357  1  0.887200  0.826900  0.015400  1.0
  H  H358  1  0.112800  0.173100  0.015400  1.0
  H  H359  1  0.255500  0.401200  0.487200  1.0
  H  H360  1  0.744500  0.598800  0.487200  1.0
  H  H361  1  0.598800  0.255500  0.487200  1.0
  H  H362  1  0.401200  0.744500  0.487200  1.0
  H  H363  1  0.744500  0.401200  0.512800  1.0
  H  H364  1  0.255500  0.598800  0.512800  1.0
  H  H365  1  0.401200  0.255500  0.512800  1.0
  H  H366  1  0.598800  0.744500  0.512800  1.0
  H  H367  1  0.755500  0.901200  0.987200  1.0
  H  H368  1  0.244500  0.098800  0.987200  1.0
  H  H369  1  0.098800  0.755500  0.987200  1.0
  H  H370  1  0.901200  0.244500  0.987200  1.0
  H  H371  1  0.244500  0.901200  0.012800  1.0
  H  H372  1  0.755500  0.098800  0.012800  1.0
  H  H373  1  0.901200  0.755500  0.012800  1.0
  H  H374  1  0.098800  0.244500  0.012800  1.0
  H  H375  1  0.055000  0.398700  0.303200  1.0
  H  H376  1  0.945000  0.601300  0.303200  1.0
  H  H377  1  0.601300  0.055000  0.303200  1.0
  H  H378  1  0.398700  0.945000  0.303200  1.0
  H  H379  1  0.945000  0.398700  0.696800  1.0
  H  H380  1  0.055000  0.601300  0.696800  1.0
  H  H381  1  0.398700  0.055000  0.696800  1.0
  H  H382  1  0.601300  0.945000  0.696800  1.0
  H  H383  1  0.555000  0.898700  0.803200  1.0
  H  H384  1  0.445000  0.101300  0.803200  1.0
  H  H385  1  0.101300  0.555000  0.803200  1.0
  H  H386  1  0.898700  0.445000  0.803200  1.0
  H  H387  1  0.445000  0.898700  0.196800  1.0
  H  H388  1  0.555000  0.101300  0.196800  1.0
  H  H389  1  0.898700  0.555000  0.196800  1.0
  H  H390  1  0.101300  0.445000  0.196800  1.0
  H  H391  1  0.017300  0.349400  0.245900  1.0
  H  H392  1  0.982700  0.650600  0.245900  1.0
  H  H393  1  0.650600  0.017300  0.245900  1.0
  H  H394  1  0.349400  0.982700  0.245900  1.0
  H  H395  1  0.982700  0.349400  0.754100  1.0
  H  H396  1  0.017300  0.650600  0.754100  1.0
  H  H397  1  0.349400  0.017300  0.754100  1.0
  H  H398  1  0.650600  0.982700  0.754100  1.0
  H  H399  1  0.517300  0.849400  0.745900  1.0
  H  H400  1  0.482700  0.150600  0.745900  1.0
  H  H401  1  0.150600  0.517300  0.745900  1.0
  H  H402  1  0.849400  0.482700  0.745900  1.0
  H  H403  1  0.482700  0.849400  0.254100  1.0
  H  H404  1  0.517300  0.150600  0.254100  1.0
  H  H405  1  0.849400  0.517300  0.254100  1.0
  H  H406  1  0.150600  0.482700  0.254100  1.0
  H  H407  1  0.058200  0.186500  0.294000  1.0
  H  H408  1  0.941800  0.813500  0.294000  1.0
  H  H409  1  0.813500  0.058200  0.294000  1.0
  H  H410  1  0.186500  0.941800  0.294000  1.0
  H  H411  1  0.941800  0.186500  0.706000  1.0
  H  H412  1  0.058200  0.813500  0.706000  1.0
  H  H413  1  0.186500  0.058200  0.706000  1.0
  H  H414  1  0.813500  0.941800  0.706000  1.0
  H  H415  1  0.558200  0.686500  0.794000  1.0
  H  H416  1  0.441800  0.313500  0.794000  1.0
  H  H417  1  0.313500  0.558200  0.794000  1.0
  H  H418  1  0.686500  0.441800  0.794000  1.0
  H  H419  1  0.441800  0.686500  0.206000  1.0
  H  H420  1  0.558200  0.313500  0.206000  1.0
  H  H421  1  0.686500  0.558200  0.206000  1.0
  H  H422  1  0.313500  0.441800  0.206000  1.0
  H  H423  1  0.935300  0.250800  0.130200  1.0
  H  H424  1  0.064700  0.749200  0.130200  1.0
  H  H425  1  0.749200  0.935300  0.130200  1.0
  H  H426  1  0.250800  0.064700  0.130200  1.0
  H  H427  1  0.064700  0.250800  0.869800  1.0
  H  H428  1  0.935300  0.749200  0.869800  1.0
  H  H429  1  0.250800  0.935300  0.869800  1.0
  H  H430  1  0.749200  0.064700  0.869800  1.0
  H  H431  1  0.435300  0.750800  0.630200  1.0
  H  H432  1  0.564700  0.249200  0.630200  1.0
  H  H433  1  0.249200  0.435300  0.630200  1.0
  H  H434  1  0.750800  0.564700  0.630200  1.0
  H  H435  1  0.564700  0.750800  0.369800  1.0
  H  H436  1  0.435300  0.249200  0.369800  1.0
  H  H437  1  0.750800  0.435300  0.369800  1.0
  H  H438  1  0.249200  0.564700  0.369800  1.0
  H  H439  1  0.908600  0.194900  0.072400  1.0
  H  H440  1  0.091400  0.805100  0.072400  1.0
  H  H441  1  0.805100  0.908600  0.072400  1.0
  H  H442  1  0.194900  0.091400  0.072400  1.0
  H  H443  1  0.091400  0.194900  0.927600  1.0
  H  H444  1  0.908600  0.805100  0.927600  1.0
  H  H445  1  0.194900  0.908600  0.927600  1.0
  H  H446  1  0.805100  0.091400  0.927600  1.0
  H  H447  1  0.408600  0.694900  0.572400  1.0
  H  H448  1  0.591400  0.305100  0.572400  1.0
  H  H449  1  0.305100  0.408600  0.572400  1.0
  H  H450  1  0.694900  0.591400  0.572400  1.0
  H  H451  1  0.591400  0.694900  0.427600  1.0
  H  H452  1  0.408600  0.305100  0.427600  1.0
  H  H453  1  0.694900  0.408600  0.427600  1.0
  H  H454  1  0.305100  0.591400  0.427600  1.0
  H  H455  1  0.940800  0.095600  0.066600  1.0
  H  H456  1  0.059200  0.904400  0.066600  1.0
  H  H457  1  0.904400  0.940800  0.066600  1.0
  H  H458  1  0.095600  0.059200  0.066600  1.0
  H  H459  1  0.059200  0.095600  0.933400  1.0
  H  H460  1  0.940800  0.904400  0.933400  1.0
  H  H461  1  0.095600  0.940800  0.933400  1.0
  H  H462  1  0.904400  0.059200  0.933400  1.0
  H  H463  1  0.440800  0.595600  0.566600  1.0
  H  H464  1  0.559200  0.404400  0.566600  1.0
  H  H465  1  0.404400  0.440800  0.566600  1.0
  H  H466  1  0.595600  0.559200  0.566600  1.0
  H  H467  1  0.559200  0.595600  0.433400  1.0
  H  H468  1  0.440800  0.404400  0.433400  1.0
  H  H469  1  0.595600  0.440800  0.433400  1.0
  H  H470  1  0.404400  0.559200  0.433400  1.0
  H  H471  1  0.013800  0.099200  0.176200  1.0
  H  H472  1  0.986200  0.900800  0.176200  1.0
  H  H473  1  0.900800  0.013800  0.176200  1.0
  H  H474  1  0.099200  0.986200  0.176200  1.0
  H  H475  1  0.986200  0.099200  0.823800  1.0
  H  H476  1  0.013800  0.900800  0.823800  1.0
  H  H477  1  0.099200  0.013800  0.823800  1.0
  H  H478  1  0.900800  0.986200  0.823800  1.0
  H  H479  1  0.513800  0.599200  0.676200  1.0
  H  H480  1  0.486200  0.400800  0.676200  1.0
  H  H481  1  0.400800  0.513800  0.676200  1.0
  H  H482  1  0.599200  0.486200  0.676200  1.0
  H  H483  1  0.486200  0.599200  0.323800  1.0
  H  H484  1  0.513800  0.400800  0.323800  1.0
  H  H485  1  0.599200  0.513800  0.323800  1.0
  H  H486  1  0.400800  0.486200  0.323800  1.0
  Pd  Pd487  1  0.000000  0.000000  0.631770  1
  Pd  Pd488  1  0.000000  0.000000  0.368230  1
  Pd  Pd489  1  0.500000  0.500000  0.131770  1
  Pd  Pd490  1  0.500000  0.500000  0.868230  1
  Pd  Pd491  1  0.000000  0.000000  0.118770  1
  Pd  Pd492  1  0.000000  0.000000  0.881230  1
  Pd  Pd493  1  0.500000  0.500000  0.618770  1
  Pd  Pd494  1  0.500000  0.500000  0.381230  1
  C  C495  1  0.049400  0.112100  0.666030  1.0
  C  C496  1  0.950600  0.887900  0.666030  1.0
  C  C497  1  0.887900  0.049400  0.666030  1.0
  C  C498  1  0.112100  0.950600  0.666030  1.0
  C  C499  1  0.950600  0.112100  0.333970  1.0
  C  C500  1  0.049400  0.887900  0.333970  1.0
  C  C501  1  0.112100  0.049400  0.333970  1.0
  C  C502  1  0.887900  0.950600  0.333970  1.0
  C  C503  1  0.549400  0.612100  0.166030  1.0
  C  C504  1  0.450600  0.387900  0.166030  1.0
  C  C505  1  0.387900  0.549400  0.166030  1.0
  C  C506  1  0.612100  0.450600  0.166030  1.0
  C  C507  1  0.450600  0.612100  0.833970  1.0
  C  C508  1  0.549400  0.387900  0.833970  1.0
  C  C509  1  0.612100  0.549400  0.833970  1.0
  C  C510  1  0.387900  0.450600  0.833970  1.0
  C  C511  1  0.071900  0.169500  0.666200  1.0
  C  C512  1  0.928100  0.830500  0.666200  1.0
  C  C513  1  0.830500  0.071900  0.666200  1.0
  C  C514  1  0.169500  0.928100  0.666200  1.0
  C  C515  1  0.928100  0.169500  0.333800  1.0
  C  C516  1  0.071900  0.830500  0.333800  1.0
  C  C517  1  0.169500  0.071900  0.333800  1.0
  C  C518  1  0.830500  0.928100  0.333800  1.0
  C  C519  1  0.571900  0.669500  0.166200  1.0
  C  C520  1  0.428100  0.330500  0.166200  1.0
  C  C521  1  0.330500  0.571900  0.166200  1.0
  C  C522  1  0.669500  0.428100  0.166200  1.0
  C  C523  1  0.428100  0.669500  0.833800  1.0
  C  C524  1  0.571900  0.330500  0.833800  1.0
  C  C525  1  0.669500  0.571900  0.833800  1.0
  C  C526  1  0.330500  0.428100  0.833800  1.0
  C  C527  1  0.079500  0.201500  0.629700  1.0
  C  C528  1  0.920500  0.798500  0.629700  1.0
  C  C529  1  0.798500  0.079500  0.629700  1.0
  C  C530  1  0.201500  0.920500  0.629700  1.0
  C  C531  1  0.920500  0.201500  0.370300  1.0
  C  C532  1  0.079500  0.798500  0.370300  1.0
  C  C533  1  0.201500  0.079500  0.370300  1.0
  C  C534  1  0.798500  0.920500  0.370300  1.0
  C  C535  1  0.579500  0.701500  0.129700  1.0
  C  C536  1  0.420500  0.298500  0.129700  1.0
  C  C537  1  0.298500  0.579500  0.129700  1.0
  C  C538  1  0.701500  0.420500  0.129700  1.0
  C  C539  1  0.420500  0.701500  0.870300  1.0
  C  C540  1  0.579500  0.298500  0.870300  1.0
  C  C541  1  0.701500  0.579500  0.870300  1.0
  C  C542  1  0.298500  0.420500  0.870300  1.0
  C  C543  1  0.064400  0.173500  0.593700  1.0
  C  C544  1  0.935600  0.826500  0.593700  1.0
  C  C545  1  0.826500  0.064400  0.593700  1.0
  C  C546  1  0.173500  0.935600  0.593700  1.0
  C  C547  1  0.935600  0.173500  0.406300  1.0
  C  C548  1  0.064400  0.826500  0.406300  1.0
  C  C549  1  0.173500  0.064400  0.406300  1.0
  C  C550  1  0.826500  0.935600  0.406300  1.0
  C  C551  1  0.564400  0.673500  0.093700  1.0
  C  C552  1  0.435600  0.326500  0.093700  1.0
  C  C553  1  0.326500  0.564400  0.093700  1.0
  C  C554  1  0.673500  0.435600  0.093700  1.0
  C  C555  1  0.435600  0.673500  0.906300  1.0
  C  C556  1  0.564400  0.326500  0.906300  1.0
  C  C557  1  0.673500  0.564400  0.906300  1.0
  C  C558  1  0.326500  0.435600  0.906300  1.0
  C  C559  1  0.041300  0.115800  0.596800  1.0
  C  C560  1  0.958700  0.884200  0.596800  1.0
  C  C561  1  0.884200  0.041300  0.596800  1.0
  C  C562  1  0.115800  0.958700  0.596800  1.0
  C  C563  1  0.958700  0.115800  0.403200  1.0
  C  C564  1  0.041300  0.884200  0.403200  1.0
  C  C565  1  0.115800  0.041300  0.403200  1.0
  C  C566  1  0.884200  0.958700  0.403200  1.0
  C  C567  1  0.541300  0.615800  0.096800  1.0
  C  C568  1  0.458700  0.384200  0.096800  1.0
  C  C569  1  0.384200  0.541300  0.096800  1.0
  C  C570  1  0.615800  0.458700  0.096800  1.0
  C  C571  1  0.458700  0.615800  0.903200  1.0
  C  C572  1  0.541300  0.384200  0.903200  1.0
  C  C573  1  0.615800  0.541300  0.903200  1.0
  C  C574  1  0.384200  0.458700  0.903200  1.0
  C  C575  1  0.070400  0.202400  0.555600  1.0
  C  C576  1  0.929600  0.797600  0.555600  1.0
  C  C577  1  0.797600  0.070400  0.555600  1.0
  C  C578  1  0.202400  0.929600  0.555600  1.0
  C  C579  1  0.929600  0.202400  0.444400  1.0
  C  C580  1  0.070400  0.797600  0.444400  1.0
  C  C581  1  0.202400  0.070400  0.444400  1.0
  C  C582  1  0.797600  0.929600  0.444400  1.0
  C  C583  1  0.570400  0.702400  0.055600  1.0
  C  C584  1  0.429600  0.297600  0.055600  1.0
  C  C585  1  0.297600  0.570400  0.055600  1.0
  C  C586  1  0.702400  0.429600  0.055600  1.0
  C  C587  1  0.429600  0.702400  0.944400  1.0
  C  C588  1  0.570400  0.297600  0.944400  1.0
  C  C589  1  0.702400  0.570400  0.944400  1.0
  C  C590  1  0.297600  0.429600  0.944400  1.0
  C  C591  1  0.075000  0.228000  0.523800  1.0
  C  C592  1  0.925000  0.772000  0.523800  1.0
  C  C593  1  0.772000  0.075000  0.523800  1.0
  C  C594  1  0.228000  0.925000  0.523800  1.0
  C  C595  1  0.925000  0.228000  0.476200  1.0
  C  C596  1  0.075000  0.772000  0.476200  1.0
  C  C597  1  0.228000  0.075000  0.476200  1.0
  C  C598  1  0.772000  0.925000  0.476200  1.0
  C  C599  1  0.575000  0.728000  0.023800  1.0
  C  C600  1  0.425000  0.272000  0.023800  1.0
  C  C601  1  0.272000  0.575000  0.023800  1.0
  C  C602  1  0.728000  0.425000  0.023800  1.0
  C  C603  1  0.425000  0.728000  0.976200  1.0
  C  C604  1  0.575000  0.272000  0.976200  1.0
  C  C605  1  0.728000  0.575000  0.976200  1.0
  C  C606  1  0.272000  0.425000  0.976200  1.0
  C  C607  1  0.078900  0.256700  0.483500  1.0
  C  C608  1  0.921100  0.743300  0.483500  1.0
  C  C609  1  0.743300  0.078900  0.483500  1.0
  C  C610  1  0.256700  0.921100  0.483500  1.0
  C  C611  1  0.921100  0.256700  0.516500  1.0
  C  C612  1  0.078900  0.743300  0.516500  1.0
  C  C613  1  0.256700  0.078900  0.516500  1.0
  C  C614  1  0.743300  0.921100  0.516500  1.0
  C  C615  1  0.578900  0.756700  0.983500  1.0
  C  C616  1  0.421100  0.243300  0.983500  1.0
  C  C617  1  0.243300  0.578900  0.983500  1.0
  C  C618  1  0.756700  0.421100  0.983500  1.0
  C  C619  1  0.421100  0.756700  0.016500  1.0
  C  C620  1  0.578900  0.243300  0.016500  1.0
  C  C621  1  0.756700  0.578900  0.016500  1.0
  C  C622  1  0.243300  0.421100  0.016500  1.0
  C  C623  1  0.077400  0.320300  0.482300  1.0
  C  C624  1  0.922600  0.679700  0.482300  1.0
  C  C625  1  0.679700  0.077400  0.482300  1.0
  C  C626  1  0.320300  0.922600  0.482300  1.0
  C  C627  1  0.922600  0.320300  0.517700  1.0
  C  C628  1  0.077400  0.679700  0.517700  1.0
  C  C629  1  0.320300  0.077400  0.517700  1.0
  C  C630  1  0.679700  0.922600  0.517700  1.0
  C  C631  1  0.577400  0.820300  0.982300  1.0
  C  C632  1  0.422600  0.179700  0.982300  1.0
  C  C633  1  0.179700  0.577400  0.982300  1.0
  C  C634  1  0.820300  0.422600  0.982300  1.0
  C  C635  1  0.422600  0.820300  0.017700  1.0
  C  C636  1  0.577400  0.179700  0.017700  1.0
  C  C637  1  0.820300  0.577400  0.017700  1.0
  C  C638  1  0.179700  0.422600  0.017700  1.0
  C  C639  1  0.081500  0.351700  0.446100  1.0
  C  C640  1  0.918500  0.648300  0.446100  1.0
  C  C641  1  0.648300  0.081500  0.446100  1.0
  C  C642  1  0.351700  0.918500  0.446100  1.0
  C  C643  1  0.918500  0.351700  0.553900  1.0
  C  C644  1  0.081500  0.648300  0.553900  1.0
  C  C645  1  0.351700  0.081500  0.553900  1.0
  C  C646  1  0.648300  0.918500  0.553900  1.0
  C  C647  1  0.581500  0.851700  0.946100  1.0
  C  C648  1  0.418500  0.148300  0.946100  1.0
  C  C649  1  0.148300  0.581500  0.946100  1.0
  C  C650  1  0.851700  0.418500  0.946100  1.0
  C  C651  1  0.418500  0.851700  0.053900  1.0
  C  C652  1  0.581500  0.148300  0.053900  1.0
  C  C653  1  0.851700  0.581500  0.053900  1.0
  C  C654  1  0.148300  0.418500  0.053900  1.0
  C  C655  1  0.088100  0.318500  0.409700  1.0
  C  C656  1  0.911900  0.681500  0.409700  1.0
  C  C657  1  0.681500  0.088100  0.409700  1.0
  C  C658  1  0.318500  0.911900  0.409700  1.0
  C  C659  1  0.911900  0.318500  0.590300  1.0
  C  C660  1  0.088100  0.681500  0.590300  1.0
  C  C661  1  0.318500  0.088100  0.590300  1.0
  C  C662  1  0.681500  0.911900  0.590300  1.0
  C  C663  1  0.588100  0.818500  0.909700  1.0
  C  C664  1  0.411900  0.181500  0.909700  1.0
  C  C665  1  0.181500  0.588100  0.909700  1.0
  C  C666  1  0.818500  0.411900  0.909700  1.0
  C  C667  1  0.411900  0.818500  0.090300  1.0
  C  C668  1  0.588100  0.181500  0.090300  1.0
  C  C669  1  0.818500  0.588100  0.090300  1.0
  C  C670  1  0.181500  0.411900  0.090300  1.0
  C  C671  1  0.092300  0.255300  0.410900  1.0
  C  C672  1  0.907700  0.744700  0.410900  1.0
  C  C673  1  0.744700  0.092300  0.410900  1.0
  C  C674  1  0.255300  0.907700  0.410900  1.0
  C  C675  1  0.907700  0.255300  0.589100  1.0
  C  C676  1  0.092300  0.744700  0.589100  1.0
  C  C677  1  0.255300  0.092300  0.589100  1.0
  C  C678  1  0.744700  0.907700  0.589100  1.0
  C  C679  1  0.592300  0.755300  0.910900  1.0
  C  C680  1  0.407700  0.244700  0.910900  1.0
  C  C681  1  0.244700  0.592300  0.910900  1.0
  C  C682  1  0.755300  0.407700  0.910900  1.0
  C  C683  1  0.407700  0.755300  0.089100  1.0
  C  C684  1  0.592300  0.244700  0.089100  1.0
  C  C685  1  0.755300  0.592300  0.089100  1.0
  C  C686  1  0.244700  0.407700  0.089100  1.0
  C  C687  1  0.087500  0.224200  0.446700  1.0
  C  C688  1  0.912500  0.775800  0.446700  1.0
  C  C689  1  0.775800  0.087500  0.446700  1.0
  C  C690  1  0.224200  0.912500  0.446700  1.0
  C  C691  1  0.912500  0.224200  0.553300  1.0
  C  C692  1  0.087500  0.775800  0.553300  1.0
  C  C693  1  0.224200  0.087500  0.553300  1.0
  C  C694  1  0.775800  0.912500  0.553300  1.0
  C  C695  1  0.587500  0.724200  0.946700  1.0
  C  C696  1  0.412500  0.275800  0.946700  1.0
  C  C697  1  0.275800  0.587500  0.946700  1.0
  C  C698  1  0.724200  0.412500  0.946700  1.0
  C  C699  1  0.412500  0.724200  0.053300  1.0
  C  C700  1  0.587500  0.275800  0.053300  1.0
  C  C701  1  0.724200  0.587500  0.053300  1.0
  C  C702  1  0.275800  0.412500  0.053300  1.0
  C  C703  1  0.105900  0.418900  0.371000  1.0
  C  C704  1  0.894100  0.581100  0.371000  1.0
  C  C705  1  0.581100  0.105900  0.371000  1.0
  C  C706  1  0.418900  0.894100  0.371000  1.0
  C  C707  1  0.894100  0.418900  0.629000  1.0
  C  C708  1  0.105900  0.581100  0.629000  1.0
  C  C709  1  0.418900  0.105900  0.629000  1.0
  C  C710  1  0.581100  0.894100  0.629000  1.0
  C  C711  1  0.605900  0.918900  0.871000  1.0
  C  C712  1  0.394100  0.081100  0.871000  1.0
  C  C713  1  0.081100  0.605900  0.871000  1.0
  C  C714  1  0.918900  0.394100  0.871000  1.0
  C  C715  1  0.394100  0.918900  0.129000  1.0
  C  C716  1  0.605900  0.081100  0.129000  1.0
  C  C717  1  0.918900  0.605900  0.129000  1.0
  C  C718  1  0.081100  0.394100  0.129000  1.0
  C  C719  1  0.162800  0.422600  0.346200  1.0
  C  C720  1  0.837200  0.577400  0.346200  1.0
  C  C721  1  0.577400  0.162800  0.346200  1.0
  C  C722  1  0.422600  0.837200  0.346200  1.0
  C  C723  1  0.837200  0.422600  0.653800  1.0
  C  C724  1  0.162800  0.577400  0.653800  1.0
  C  C725  1  0.422600  0.162800  0.653800  1.0
  C  C726  1  0.577400  0.837200  0.653800  1.0
  C  C727  1  0.662800  0.922600  0.846200  1.0
  C  C728  1  0.337200  0.077400  0.846200  1.0
  C  C729  1  0.077400  0.662800  0.846200  1.0
  C  C730  1  0.922600  0.337200  0.846200  1.0
  C  C731  1  0.337200  0.922600  0.153800  1.0
  C  C732  1  0.662800  0.077400  0.153800  1.0
  C  C733  1  0.922600  0.662800  0.153800  1.0
  C  C734  1  0.077400  0.337200  0.153800  1.0
  C  C735  1  0.217600  0.390000  0.366100  1.0
  C  C736  1  0.782400  0.610000  0.366100  1.0
  C  C737  1  0.610000  0.217600  0.366100  1.0
  C  C738  1  0.390000  0.782400  0.366100  1.0
  C  C739  1  0.782400  0.390000  0.633900  1.0
  C  C740  1  0.217600  0.610000  0.633900  1.0
  C  C741  1  0.390000  0.217600  0.633900  1.0
  C  C742  1  0.610000  0.782400  0.633900  1.0
  C  C743  1  0.717600  0.890000  0.866100  1.0
  C  C744  1  0.282400  0.110000  0.866100  1.0
  C  C745  1  0.110000  0.717600  0.866100  1.0
  C  C746  1  0.890000  0.282400  0.866100  1.0
  C  C747  1  0.282400  0.890000  0.133900  1.0
  C  C748  1  0.717600  0.110000  0.133900  1.0
  C  C749  1  0.890000  0.717600  0.133900  1.0
  C  C750  1  0.110000  0.282400  0.133900  1.0
  C  C751  1  0.224600  0.416100  0.410400  1.0
  C  C752  1  0.775400  0.583900  0.410400  1.0
  C  C753  1  0.583900  0.224600  0.410400  1.0
  C  C754  1  0.416100  0.775400  0.410400  1.0
  C  C755  1  0.775400  0.416100  0.589600  1.0
  C  C756  1  0.224600  0.583900  0.589600  1.0
  C  C757  1  0.416100  0.224600  0.589600  1.0
  C  C758  1  0.583900  0.775400  0.589600  1.0
  C  C759  1  0.724600  0.916100  0.910400  1.0
  C  C760  1  0.275400  0.083900  0.910400  1.0
  C  C761  1  0.083900  0.724600  0.910400  1.0
  C  C762  1  0.916100  0.275400  0.910400  1.0
  C  C763  1  0.275400  0.916100  0.089600  1.0
  C  C764  1  0.724600  0.083900  0.089600  1.0
  C  C765  1  0.916100  0.724600  0.089600  1.0
  C  C766  1  0.083900  0.275400  0.089600  1.0
  C  C767  1  0.288000  0.401400  0.427600  1.0
  C  C768  1  0.712000  0.598600  0.427600  1.0
  C  C769  1  0.598600  0.288000  0.427600  1.0
  C  C770  1  0.401400  0.712000  0.427600  1.0
  C  C771  1  0.712000  0.401400  0.572400  1.0
  C  C772  1  0.288000  0.598600  0.572400  1.0
  C  C773  1  0.401400  0.288000  0.572400  1.0
  C  C774  1  0.598600  0.712000  0.572400  1.0
  C  C775  1  0.788000  0.901400  0.927600  1.0
  C  C776  1  0.212000  0.098600  0.927600  1.0
  C  C777  1  0.098600  0.788000  0.927600  1.0
  C  C778  1  0.901400  0.212000  0.927600  1.0
  C  C779  1  0.212000  0.901400  0.072400  1.0
  C  C780  1  0.788000  0.098600  0.072400  1.0
  C  C781  1  0.901400  0.788000  0.072400  1.0
  C  C782  1  0.098600  0.212000  0.072400  1.0
  C  C783  1  0.293800  0.412300  0.473700  1.0
  C  C784  1  0.706200  0.587700  0.473700  1.0
  C  C785  1  0.587700  0.293800  0.473700  1.0
  C  C786  1  0.412300  0.706200  0.473700  1.0
  C  C787  1  0.706200  0.412300  0.526300  1.0
  C  C788  1  0.293800  0.587700  0.526300  1.0
  C  C789  1  0.412300  0.293800  0.526300  1.0
  C  C790  1  0.587700  0.706200  0.526300  1.0
  C  C791  1  0.793800  0.912300  0.973700  1.0
  C  C792  1  0.206200  0.087700  0.973700  1.0
  C  C793  1  0.087700  0.793800  0.973700  1.0
  C  C794  1  0.912300  0.206200  0.973700  1.0
  C  C795  1  0.206200  0.912300  0.026300  1.0
  C  C796  1  0.793800  0.087700  0.026300  1.0
  C  C797  1  0.912300  0.793800  0.026300  1.0
  C  C798  1  0.087700  0.206200  0.026300  1.0
  C  C799  1  0.074100  0.322400  0.335300  1.0
  C  C800  1  0.925900  0.677600  0.335300  1.0
  C  C801  1  0.677600  0.074100  0.335300  1.0
  C  C802  1  0.322400  0.925900  0.335300  1.0
  C  C803  1  0.925900  0.322400  0.664700  1.0
  C  C804  1  0.074100  0.677600  0.664700  1.0
  C  C805  1  0.322400  0.074100  0.664700  1.0
  C  C806  1  0.677600  0.925900  0.664700  1.0
  C  C807  1  0.574100  0.822400  0.835300  1.0
  C  C808  1  0.425900  0.177600  0.835300  1.0
  C  C809  1  0.177600  0.574100  0.835300  1.0
  C  C810  1  0.822400  0.425900  0.835300  1.0
  C  C811  1  0.425900  0.822400  0.164700  1.0
  C  C812  1  0.574100  0.177600  0.164700  1.0
  C  C813  1  0.822400  0.574100  0.164700  1.0
  C  C814  1  0.177600  0.425900  0.164700  1.0
  C  C815  1  0.076500  0.258400  0.331800  1.0
  C  C816  1  0.923500  0.741600  0.331800  1.0
  C  C817  1  0.741600  0.076500  0.331800  1.0
  C  C818  1  0.258400  0.923500  0.331800  1.0
  C  C819  1  0.923500  0.258400  0.668200  1.0
  C  C820  1  0.076500  0.741600  0.668200  1.0
  C  C821  1  0.258400  0.076500  0.668200  1.0
  C  C822  1  0.741600  0.923500  0.668200  1.0
  C  C823  1  0.576500  0.758400  0.831800  1.0
  C  C824  1  0.423500  0.241600  0.831800  1.0
  C  C825  1  0.241600  0.576500  0.831800  1.0
  C  C826  1  0.758400  0.423500  0.831800  1.0
  C  C827  1  0.423500  0.758400  0.168200  1.0
  C  C828  1  0.576500  0.241600  0.168200  1.0
  C  C829  1  0.758400  0.576500  0.168200  1.0
  C  C830  1  0.241600  0.423500  0.168200  1.0
  C  C831  1  0.054100  0.355400  0.302400  1.0
  C  C832  1  0.945900  0.644600  0.302400  1.0
  C  C833  1  0.644600  0.054100  0.302400  1.0
  C  C834  1  0.355400  0.945900  0.302400  1.0
  C  C835  1  0.945900  0.355400  0.697600  1.0
  C  C836  1  0.054100  0.644600  0.697600  1.0
  C  C837  1  0.355400  0.054100  0.697600  1.0
  C  C838  1  0.644600  0.945900  0.697600  1.0
  C  C839  1  0.554100  0.855400  0.802400  1.0
  C  C840  1  0.445900  0.144600  0.802400  1.0
  C  C841  1  0.144600  0.554100  0.802400  1.0
  C  C842  1  0.855400  0.445900  0.802400  1.0
  C  C843  1  0.445900  0.855400  0.197600  1.0
  C  C844  1  0.554100  0.144600  0.197600  1.0
  C  C845  1  0.855400  0.554100  0.197600  1.0
  C  C846  1  0.144600  0.445900  0.197600  1.0
  C  C847  1  0.032600  0.325600  0.267900  1.0
  C  C848  1  0.967400  0.674400  0.267900  1.0
  C  C849  1  0.674400  0.032600  0.267900  1.0
  C  C850  1  0.325600  0.967400  0.267900  1.0
  C  C851  1  0.967400  0.325600  0.732100  1.0
  C  C852  1  0.032600  0.674400  0.732100  1.0
  C  C853  1  0.325600  0.032600  0.732100  1.0
  C  C854  1  0.674400  0.967400  0.732100  1.0
  C  C855  1  0.532600  0.825600  0.767900  1.0
  C  C856  1  0.467400  0.174400  0.767900  1.0
  C  C857  1  0.174400  0.532600  0.767900  1.0
  C  C858  1  0.825600  0.467400  0.767900  1.0
  C  C859  1  0.467400  0.825600  0.232100  1.0
  C  C860  1  0.532600  0.174400  0.232100  1.0
  C  C861  1  0.825600  0.532600  0.232100  1.0
  C  C862  1  0.174400  0.467400  0.232100  1.0
  C  C863  1  0.032500  0.262800  0.264100  1.0
  C  C864  1  0.967500  0.737200  0.264100  1.0
  C  C865  1  0.737200  0.032500  0.264100  1.0
  C  C866  1  0.262800  0.967500  0.264100  1.0
  C  C867  1  0.967500  0.262800  0.735900  1.0
  C  C868  1  0.032500  0.737200  0.735900  1.0
  C  C869  1  0.262800  0.032500  0.735900  1.0
  C  C870  1  0.737200  0.967500  0.735900  1.0
  C  C871  1  0.532500  0.762800  0.764100  1.0
  C  C872  1  0.467500  0.237200  0.764100  1.0
  C  C873  1  0.237200  0.532500  0.764100  1.0
  C  C874  1  0.762800  0.467500  0.764100  1.0
  C  C875  1  0.467500  0.762800  0.235900  1.0
  C  C876  1  0.532500  0.237200  0.235900  1.0
  C  C877  1  0.762800  0.532500  0.235900  1.0
  C  C878  1  0.237200  0.467500  0.235900  1.0
  C  C879  1  0.056000  0.229600  0.296100  1.0
  C  C880  1  0.944000  0.770400  0.296100  1.0
  C  C881  1  0.770400  0.056000  0.296100  1.0
  C  C882  1  0.229600  0.944000  0.296100  1.0
  C  C883  1  0.944000  0.229600  0.703900  1.0
  C  C884  1  0.056000  0.770400  0.703900  1.0
  C  C885  1  0.229600  0.056000  0.703900  1.0
  C  C886  1  0.770400  0.944000  0.703900  1.0
  C  C887  1  0.556000  0.729600  0.796100  1.0
  C  C888  1  0.444000  0.270400  0.796100  1.0
  C  C889  1  0.270400  0.556000  0.796100  1.0
  C  C890  1  0.729600  0.444000  0.796100  1.0
  C  C891  1  0.444000  0.729600  0.203900  1.0
  C  C892  1  0.556000  0.270400  0.203900  1.0
  C  C893  1  0.729600  0.556000  0.203900  1.0
  C  C894  1  0.270400  0.444000  0.203900  1.0
  C  C895  1  0.009400  0.232900  0.227800  1.0
  C  C896  1  0.990600  0.767100  0.227800  1.0
  C  C897  1  0.767100  0.009400  0.227800  1.0
  C  C898  1  0.232900  0.990600  0.227800  1.0
  C  C899  1  0.990600  0.232900  0.772200  1.0
  C  C900  1  0.009400  0.767100  0.772200  1.0
  C  C901  1  0.232900  0.009400  0.772200  1.0
  C  C902  1  0.767100  0.990600  0.772200  1.0
  C  C903  1  0.509400  0.732900  0.727800  1.0
  C  C904  1  0.490600  0.267100  0.727800  1.0
  C  C905  1  0.267100  0.509400  0.727800  1.0
  C  C906  1  0.732900  0.490600  0.727800  1.0
  C  C907  1  0.490600  0.732900  0.272200  1.0
  C  C908  1  0.509400  0.267100  0.272200  1.0
  C  C909  1  0.732900  0.509400  0.272200  1.0
  C  C910  1  0.267100  0.490600  0.272200  1.0
  C  C911  1  0.993000  0.209300  0.197200  1.0
  C  C912  1  0.007000  0.790700  0.197200  1.0
  C  C913  1  0.790700  0.993000  0.197200  1.0
  C  C914  1  0.209300  0.007000  0.197200  1.0
  C  C915  1  0.007000  0.209300  0.802800  1.0
  C  C916  1  0.993000  0.790700  0.802800  1.0
  C  C917  1  0.209300  0.993000  0.802800  1.0
  C  C918  1  0.790700  0.007000  0.802800  1.0
  C  C919  1  0.493000  0.709300  0.697200  1.0
  C  C920  1  0.507000  0.290700  0.697200  1.0
  C  C921  1  0.290700  0.493000  0.697200  1.0
  C  C922  1  0.709300  0.507000  0.697200  1.0
  C  C923  1  0.507000  0.709300  0.302800  1.0
  C  C924  1  0.493000  0.290700  0.302800  1.0
  C  C925  1  0.709300  0.493000  0.302800  1.0
  C  C926  1  0.290700  0.507000  0.302800  1.0
  C  C927  1  0.975800  0.179700  0.159900  1.0
  C  C928  1  0.024200  0.820300  0.159900  1.0
  C  C929  1  0.820300  0.975800  0.159900  1.0
  C  C930  1  0.179700  0.024200  0.159900  1.0
  C  C931  1  0.024200  0.179700  0.840100  1.0
  C  C932  1  0.975800  0.820300  0.840100  1.0
  C  C933  1  0.179700  0.975800  0.840100  1.0
  C  C934  1  0.820300  0.024200  0.840100  1.0
  C  C935  1  0.475800  0.679700  0.659900  1.0
  C  C936  1  0.524200  0.320300  0.659900  1.0
  C  C937  1  0.320300  0.475800  0.659900  1.0
  C  C938  1  0.679700  0.524200  0.659900  1.0
  C  C939  1  0.524200  0.679700  0.340100  1.0
  C  C940  1  0.475800  0.320300  0.340100  1.0
  C  C941  1  0.679700  0.475800  0.340100  1.0
  C  C942  1  0.320300  0.524200  0.340100  1.0
  C  C943  1  0.945600  0.208900  0.128100  1.0
  C  C944  1  0.054400  0.791100  0.128100  1.0
  C  C945  1  0.791100  0.945600  0.128100  1.0
  C  C946  1  0.208900  0.054400  0.128100  1.0
  C  C947  1  0.054400  0.208900  0.871900  1.0
  C  C948  1  0.945600  0.791100  0.871900  1.0
  C  C949  1  0.208900  0.945600  0.871900  1.0
  C  C950  1  0.791100  0.054400  0.871900  1.0
  C  C951  1  0.445600  0.708900  0.628100  1.0
  C  C952  1  0.554400  0.291100  0.628100  1.0
  C  C953  1  0.291100  0.445600  0.628100  1.0
  C  C954  1  0.708900  0.554400  0.628100  1.0
  C  C955  1  0.554400  0.708900  0.371900  1.0
  C  C956  1  0.445600  0.291100  0.371900  1.0
  C  C957  1  0.708900  0.445600  0.371900  1.0
  C  C958  1  0.291100  0.554400  0.371900  1.0
  C  C959  1  0.931100  0.176500  0.093900  1.0
  C  C960  1  0.068900  0.823500  0.093900  1.0
  C  C961  1  0.823500  0.931100  0.093900  1.0
  C  C962  1  0.176500  0.068900  0.093900  1.0
  C  C963  1  0.068900  0.176500  0.906100  1.0
  C  C964  1  0.931100  0.823500  0.906100  1.0
  C  C965  1  0.176500  0.931100  0.906100  1.0
  C  C966  1  0.823500  0.068900  0.906100  1.0
  C  C967  1  0.431100  0.676500  0.593900  1.0
  C  C968  1  0.568900  0.323500  0.593900  1.0
  C  C969  1  0.323500  0.431100  0.593900  1.0
  C  C970  1  0.676500  0.568900  0.593900  1.0
  C  C971  1  0.568900  0.676500  0.406100  1.0
  C  C972  1  0.431100  0.323500  0.406100  1.0
  C  C973  1  0.676500  0.431100  0.406100  1.0
  C  C974  1  0.323500  0.568900  0.406100  1.0
  C  C975  1  0.949100  0.117600  0.091000  1.0
  C  C976  1  0.050900  0.882400  0.091000  1.0
  C  C977  1  0.882400  0.949100  0.091000  1.0
  C  C978  1  0.117600  0.050900  0.091000  1.0
  C  C979  1  0.050900  0.117600  0.909000  1.0
  C  C980  1  0.949100  0.882400  0.909000  1.0
  C  C981  1  0.117600  0.949100  0.909000  1.0
  C  C982  1  0.882400  0.050900  0.909000  1.0
  C  C983  1  0.449100  0.617600  0.591000  1.0
  C  C984  1  0.550900  0.382400  0.591000  1.0
  C  C985  1  0.382400  0.449100  0.591000  1.0
  C  C986  1  0.617600  0.550900  0.591000  1.0
  C  C987  1  0.550900  0.617600  0.409000  1.0
  C  C988  1  0.449100  0.382400  0.409000  1.0
  C  C989  1  0.617600  0.449100  0.409000  1.0
  C  C990  1  0.382400  0.550900  0.409000  1.0
  C  C991  1  0.992200  0.119500  0.155060  1.0
  C  C992  1  0.007800  0.880500  0.155060  1.0
  C  C993  1  0.880500  0.992200  0.155060  1.0
  C  C994  1  0.119500  0.007800  0.155060  1.0
  C  C995  1  0.007800  0.119500  0.844940  1.0
  C  C996  1  0.992200  0.880500  0.844940  1.0
  C  C997  1  0.119500  0.992200  0.844940  1.0
  C  C998  1  0.880500  0.007800  0.844940  1.0
  C  C999  1  0.492200  0.619500  0.655060  1.0
  C  C1000  1  0.507800  0.380500  0.655060  1.0
  C  C1001  1  0.380500  0.492200  0.655060  1.0
  C  C1002  1  0.619500  0.507800  0.655060  1.0
  C  C1003  1  0.507800  0.619500  0.344940  1.0
  C  C1004  1  0.492200  0.380500  0.344940  1.0
  C  C1005  1  0.619500  0.492200  0.344940  1.0
  C  C1006  1  0.380500  0.507800  0.344940  1.0
  S  S1007  1  0.111470  0.211960  0.368470  1.0
  S  S1008  1  0.888530  0.788040  0.368470  1.0
  S  S1009  1  0.788040  0.111470  0.368470  1.0
  S  S1010  1  0.211960  0.888530  0.368470  1.0
  S  S1011  1  0.888530  0.211960  0.631530  1.0
  S  S1012  1  0.111470  0.788040  0.631530  1.0
  S  S1013  1  0.211960  0.111470  0.631530  1.0
  S  S1014  1  0.788040  0.888530  0.631530  1.0
  S  S1015  1  0.611470  0.711960  0.868470  1.0
  S  S1016  1  0.388530  0.288040  0.868470  1.0
  S  S1017  1  0.288040  0.611470  0.868470  1.0
  S  S1018  1  0.711960  0.388530  0.868470  1.0
  S  S1019  1  0.388530  0.711960  0.131530  1.0
  S  S1020  1  0.611470  0.288040  0.131530  1.0
  S  S1021  1  0.711960  0.611470  0.131530  1.0
  S  S1022  1  0.288040  0.388530  0.131530  1.0
  N  N1023  1  0.033300  0.084900  0.631750  1.0
  N  N1024  1  0.966700  0.915100  0.631750  1.0
  N  N1025  1  0.915100  0.033300  0.631750  1.0
  N  N1026  1  0.084900  0.966700  0.631750  1.0
  N  N1027  1  0.966700  0.084900  0.368250  1.0
  N  N1028  1  0.033300  0.915100  0.368250  1.0
  N  N1029  1  0.084900  0.033300  0.368250  1.0
  N  N1030  1  0.915100  0.966700  0.368250  1.0
  N  N1031  1  0.533300  0.584900  0.131750  1.0
  N  N1032  1  0.466700  0.415100  0.131750  1.0
  N  N1033  1  0.415100  0.533300  0.131750  1.0
  N  N1034  1  0.584900  0.466700  0.131750  1.0
  N  N1035  1  0.466700  0.584900  0.868250  1.0
  N  N1036  1  0.533300  0.415100  0.868250  1.0
  N  N1037  1  0.584900  0.533300  0.868250  1.0
  N  N1038  1  0.415100  0.466700  0.868250  1.0
  N  N1039  1  0.090800  0.349200  0.370700  1.0
  N  N1040  1  0.909200  0.650800  0.370700  1.0
  N  N1041  1  0.650800  0.090800  0.370700  1.0
  N  N1042  1  0.349200  0.909200  0.370700  1.0
  N  N1043  1  0.909200  0.349200  0.629300  1.0
  N  N1044  1  0.090800  0.650800  0.629300  1.0
  N  N1045  1  0.349200  0.090800  0.629300  1.0
  N  N1046  1  0.650800  0.909200  0.629300  1.0
  N  N1047  1  0.590800  0.849200  0.870700  1.0
  N  N1048  1  0.409200  0.150800  0.870700  1.0
  N  N1049  1  0.150800  0.590800  0.870700  1.0
  N  N1050  1  0.849200  0.409200  0.870700  1.0
  N  N1051  1  0.409200  0.849200  0.129300  1.0
  N  N1052  1  0.590800  0.150800  0.129300  1.0
  N  N1053  1  0.849200  0.590800  0.129300  1.0
  N  N1054  1  0.150800  0.409200  0.129300  1.0
  N  N1055  1  0.978100  0.089900  0.121330  1.0
  N  N1056  1  0.021900  0.910100  0.121330  1.0
  N  N1057  1  0.910100  0.978100  0.121330  1.0
  N  N1058  1  0.089900  0.021900  0.121330  1.0
  N  N1059  1  0.021900  0.089900  0.878670  1.0
  N  N1060  1  0.978100  0.910100  0.878670  1.0
  N  N1061  1  0.089900  0.978100  0.878670  1.0
  N  N1062  1  0.910100  0.021900  0.878670  1.0
  N  N1063  1  0.478100  0.589900  0.621330  1.0
  N  N1064  1  0.521900  0.410100  0.621330  1.0
  N  N1065  1  0.410100  0.478100  0.621330  1.0
  N  N1066  1  0.589900  0.521900  0.621330  1.0
  N  N1067  1  0.521900  0.589900  0.378670  1.0
  N  N1068  1  0.478100  0.410100  0.378670  1.0
  N  N1069  1  0.589900  0.478100  0.378670  1.0
  N  N1070  1  0.410100  0.521900  0.378670  1.0
  O  O1071  1  0.179700  0.217500  0.361590  1.0
  O  O1072  1  0.820300  0.782500  0.361590  1.0
  O  O1073  1  0.782500  0.179700  0.361590  1.0
  O  O1074  1  0.217500  0.820300  0.361590  1.0
  O  O1075  1  0.820300  0.217500  0.638410  1.0
  O  O1076  1  0.179700  0.782500  0.638410  1.0
  O  O1077  1  0.217500  0.179700  0.638410  1.0
  O  O1078  1  0.782500  0.820300  0.638410  1.0
  O  O1079  1  0.679700  0.717500  0.861590  1.0
  O  O1080  1  0.320300  0.282500  0.861590  1.0
  O  O1081  1  0.282500  0.679700  0.861590  1.0
  O  O1082  1  0.717500  0.320300  0.861590  1.0
  O  O1083  1  0.320300  0.717500  0.138410  1.0
  O  O1084  1  0.679700  0.282500  0.138410  1.0
  O  O1085  1  0.717500  0.679700  0.138410  1.0
  O  O1086  1  0.282500  0.320300  0.138410  1.0
  F  F1087  1  0.051000  0.931500  0.502700  1
  F  F1088  1  0.949000  0.068500  0.502700  1
  F  F1089  1  0.068500  0.051000  0.502700  1
  F  F1090  1  0.931500  0.949000  0.502700  1
  F  F1091  1  0.949000  0.931500  0.497300  1
  F  F1092  1  0.051000  0.068500  0.497300  1
  F  F1093  1  0.931500  0.051000  0.497300  1
  F  F1094  1  0.068500  0.949000  0.497300  1
  F  F1095  1  0.551000  0.431500  0.002700  1
  F  F1096  1  0.449000  0.568500  0.002700  1
  F  F1097  1  0.568500  0.551000  0.002700  1
  F  F1098  1  0.431500  0.449000  0.002700  1
  F  F1099  1  0.449000  0.431500  0.997300  1
  F  F1100  1  0.551000  0.568500  0.997300  1
  F  F1101  1  0.431500  0.551000  0.997300  1
  F  F1102  1  0.568500  0.449000  0.997300  1
  F  F1103  1  0.081600  0.027200  0.504300  1
  F  F1104  1  0.918400  0.972800  0.504300  1
  F  F1105  1  0.972800  0.081600  0.504300  1
  F  F1106  1  0.027200  0.918400  0.504300  1
  F  F1107  1  0.918400  0.027200  0.495700  1
  F  F1108  1  0.081600  0.972800  0.495700  1
  F  F1109  1  0.027200  0.081600  0.495700  1
  F  F1110  1  0.972800  0.918400  0.495700  1
  F  F1111  1  0.581600  0.527200  0.004300  1
  F  F1112  1  0.418400  0.472800  0.004300  1
  F  F1113  1  0.472800  0.581600  0.004300  1
  F  F1114  1  0.527200  0.418400  0.004300  1
  F  F1115  1  0.418400  0.527200  0.995700  1
  F  F1116  1  0.581600  0.472800  0.995700  1
  F  F1117  1  0.527200  0.581600  0.995700  1
  F  F1118  1  0.472800  0.418400  0.995700  1
  F  F1119  1  0.438100  0.480900  0.499500  1
  F  F1120  1  0.561900  0.519100  0.499500  1
  F  F1121  1  0.519100  0.438100  0.499500  1
  F  F1122  1  0.480900  0.561900  0.499500  1
  F  F1123  1  0.561900  0.480900  0.500500  1
  F  F1124  1  0.438100  0.519100  0.500500  1
  F  F1125  1  0.480900  0.438100  0.500500  1
  F  F1126  1  0.519100  0.561900  0.500500  1
  F  F1127  1  0.938100  0.980900  0.999500  1
  F  F1128  1  0.061900  0.019100  0.999500  1
  F  F1129  1  0.019100  0.938100  0.999500  1
  F  F1130  1  0.980900  0.061900  0.999500  1
  F  F1131  1  0.061900  0.980900  0.000500  1
  F  F1132  1  0.938100  0.019100  0.000500  1
  F  F1133  1  0.980900  0.938100  0.000500  1
  F  F1134  1  0.019100  0.061900  0.000500  1
  F  F1135  1  0.513000  0.517200  0.537700  1
  F  F1136  1  0.487000  0.482800  0.537700  1
  F  F1137  1  0.482800  0.513000  0.537700  1
  F  F1138  1  0.517200  0.487000  0.537700  1
  F  F1139  1  0.487000  0.517200  0.462300  1
  F  F1140  1  0.513000  0.482800  0.462300  1
  F  F1141  1  0.517200  0.513000  0.462300  1
  F  F1142  1  0.482800  0.487000  0.462300  1
  F  F1143  1  0.013000  0.017200  0.037700  1
  F  F1144  1  0.987000  0.982800  0.037700  1
  F  F1145  1  0.982800  0.013000  0.037700  1
  F  F1146  1  0.017200  0.987000  0.037700  1
  F  F1147  1  0.987000  0.017200  0.962300  1
  F  F1148  1  0.013000  0.982800  0.962300  1
  F  F1149  1  0.017200  0.013000  0.962300  1
  F  F1150  1  0.982800  0.987000  0.962300  1
  F  F1151  1  0.506000  0.543400  0.471900  1
  F  F1152  1  0.494000  0.456600  0.471900  1
  F  F1153  1  0.456600  0.506000  0.471900  1
  F  F1154  1  0.543400  0.494000  0.471900  1
  F  F1155  1  0.494000  0.543400  0.528100  1
  F  F1156  1  0.506000  0.456600  0.528100  1
  F  F1157  1  0.543400  0.506000  0.528100  1
  F  F1158  1  0.456600  0.494000  0.528100  1
  F  F1159  1  0.006000  0.043400  0.971900  1
  F  F1160  1  0.994000  0.956600  0.971900  1
  F  F1161  1  0.956600  0.006000  0.971900  1
  F  F1162  1  0.043400  0.994000  0.971900  1
  F  F1163  1  0.994000  0.043400  0.028100  1
  F  F1164  1  0.006000  0.956600  0.028100  1
  F  F1165  1  0.043400  0.006000  0.028100  1
  F  F1166  1  0.956600  0.994000  0.028100  1
  F  F1167  1  0.532100  0.448200  0.489400  1
  F  F1168  1  0.467900  0.551800  0.489400  1
  F  F1169  1  0.551800  0.532100  0.489400  1
  F  F1170  1  0.448200  0.467900  0.489400  1
  F  F1171  1  0.467900  0.448200  0.510600  1
  F  F1172  1  0.532100  0.551800  0.510600  1
  F  F1173  1  0.448200  0.532100  0.510600  1
  F  F1174  1  0.551800  0.467900  0.510600  1
  F  F1175  1  0.032100  0.948200  0.989400  1
  F  F1176  1  0.967900  0.051800  0.989400  1
  F  F1177  1  0.051800  0.032100  0.989400  1
  F  F1178  1  0.948200  0.967900  0.989400  1
  F  F1179  1  0.967900  0.948200  0.010600  1
  F  F1180  1  0.032100  0.051800  0.010600  1
  F  F1181  1  0.948200  0.032100  0.010600  1
  F  F1182  1  0.051800  0.967900  0.010600  1
  F  F1183  1  0.000000  0.000000  0.467000  1
  F  F1184  1  0.000000  0.000000  0.533000  1
  F  F1185  1  0.500000  0.500000  0.967000  1
  F  F1186  1  0.500000  0.500000  0.033000  1
  F  F1187  1  0.000000  0.000000  0.537000  1
  F  F1188  1  0.000000  0.000000  0.463000  1
  F  F1189  1  0.500000  0.500000  0.037000  1
  F  F1190  1  0.500000  0.500000  0.963000  1
  F  F1191  1  0.004500  0.999100  0.209740  1
  F  F1192  1  0.995500  0.000900  0.209740  1
  F  F1193  1  0.000900  0.004500  0.209740  1
  F  F1194  1  0.999100  0.995500  0.209740  1
  F  F1195  1  0.995500  0.999100  0.790260  1
  F  F1196  1  0.004500  0.000900  0.790260  1
  F  F1197  1  0.999100  0.004500  0.790260  1
  F  F1198  1  0.000900  0.995500  0.790260  1
  F  F1199  1  0.504500  0.499100  0.709740  1
  F  F1200  1  0.495500  0.500900  0.709740  1
  F  F1201  1  0.500900  0.504500  0.709740  1
  F  F1202  1  0.499100  0.495500  0.709740  1
  F  F1203  1  0.495500  0.499100  0.290260  1
  F  F1204  1  0.504500  0.500900  0.290260  1
  F  F1205  1  0.499100  0.504500  0.290260  1
  F  F1206  1  0.500900  0.495500  0.290260  1
  F  F1207  1  0.000000  0.000000  0.279250  1
  F  F1208  1  0.000000  0.000000  0.720750  1
  F  F1209  1  0.500000  0.500000  0.779250  1
  F  F1210  1  0.500000  0.500000  0.220750  1
  F  F1211  1  0.934200  0.051300  0.242700  1
  F  F1212  1  0.065800  0.948700  0.242700  1
  F  F1213  1  0.948700  0.934200  0.242700  1
  F  F1214  1  0.051300  0.065800  0.242700  1
  F  F1215  1  0.065800  0.051300  0.757300  1
  F  F1216  1  0.934200  0.948700  0.757300  1
  F  F1217  1  0.051300  0.934200  0.757300  1
  F  F1218  1  0.948700  0.065800  0.757300  1
  F  F1219  1  0.434200  0.551300  0.742700  1
  F  F1220  1  0.565800  0.448700  0.742700  1
  F  F1221  1  0.448700  0.434200  0.742700  1
  F  F1222  1  0.551300  0.565800  0.742700  1
  F  F1223  1  0.565800  0.551300  0.257300  1
  F  F1224  1  0.434200  0.448700  0.257300  1
  F  F1225  1  0.551300  0.434200  0.257300  1
  F  F1226  1  0.448700  0.565800  0.257300  1
  F  F1227  1  0.029300  0.079100  0.248500  1
  F  F1228  1  0.970700  0.920900  0.248500  1
  F  F1229  1  0.920900  0.029300  0.248500  1
  F  F1230  1  0.079100  0.970700  0.248500  1
  F  F1231  1  0.970700  0.079100  0.751500  1
  F  F1232  1  0.029300  0.920900  0.751500  1
  F  F1233  1  0.079100  0.029300  0.751500  1
  F  F1234  1  0.920900  0.970700  0.751500  1
  F  F1235  1  0.529300  0.579100  0.748500  1
  F  F1236  1  0.470700  0.420900  0.748500  1
  F  F1237  1  0.420900  0.529300  0.748500  1
  F  F1238  1  0.579100  0.470700  0.748500  1
  F  F1239  1  0.470700  0.579100  0.251500  1
  F  F1240  1  0.529300  0.420900  0.251500  1
  F  F1241  1  0.579100  0.529300  0.251500  1
  F  F1242  1  0.420900  0.470700  0.251500  1
  F  F1243  1  0.999300  0.458700  0.513000  1
  F  F1244  1  0.000700  0.541300  0.513000  1
  F  F1245  1  0.541300  0.999300  0.513000  1
  F  F1246  1  0.458700  0.000700  0.513000  1
  F  F1247  1  0.000700  0.458700  0.487000  1
  F  F1248  1  0.999300  0.541300  0.487000  1
  F  F1249  1  0.458700  0.999300  0.487000  1
  F  F1250  1  0.541300  0.000700  0.487000  1
  F  F1251  1  0.499300  0.958700  0.013000  1
  F  F1252  1  0.500700  0.041300  0.013000  1
  F  F1253  1  0.041300  0.499300  0.013000  1
  F  F1254  1  0.958700  0.500700  0.013000  1
  F  F1255  1  0.500700  0.958700  0.987000  1
  F  F1256  1  0.499300  0.041300  0.987000  1
  F  F1257  1  0.958700  0.499300  0.987000  1
  F  F1258  1  0.041300  0.500700  0.987000  1
  F  F1259  1  0.903900  0.490900  0.512100  1
  F  F1260  1  0.096100  0.509100  0.512100  1
  F  F1261  1  0.509100  0.903900  0.512100  1
  F  F1262  1  0.490900  0.096100  0.512100  1
  F  F1263  1  0.096100  0.490900  0.487900  1
  F  F1264  1  0.903900  0.509100  0.487900  1
  F  F1265  1  0.490900  0.903900  0.487900  1
  F  F1266  1  0.509100  0.096100  0.487900  1
  F  F1267  1  0.403900  0.990900  0.012100  1
  F  F1268  1  0.596100  0.009100  0.012100  1
  F  F1269  1  0.009100  0.403900  0.012100  1
  F  F1270  1  0.990900  0.596100  0.012100  1
  F  F1271  1  0.596100  0.990900  0.987900  1
  F  F1272  1  0.403900  0.009100  0.987900  1
  F  F1273  1  0.990900  0.403900  0.987900  1
  F  F1274  1  0.009100  0.596100  0.987900  1
  F  F1275  1  0.979700  0.556300  0.510400  1
  F  F1276  1  0.020300  0.443700  0.510400  1
  F  F1277  1  0.443700  0.979700  0.510400  1
  F  F1278  1  0.556300  0.020300  0.510400  1
  F  F1279  1  0.020300  0.556300  0.489600  1
  F  F1280  1  0.979700  0.443700  0.489600  1
  F  F1281  1  0.556300  0.979700  0.489600  1
  F  F1282  1  0.443700  0.020300  0.489600  1
  F  F1283  1  0.479700  0.056300  0.010400  1
  F  F1284  1  0.520300  0.943700  0.010400  1
  F  F1285  1  0.943700  0.479700  0.010400  1
  F  F1286  1  0.056300  0.520300  0.010400  1
  F  F1287  1  0.520300  0.056300  0.989600  1
  F  F1288  1  0.479700  0.943700  0.989600  1
  F  F1289  1  0.056300  0.479700  0.989600  1
  F  F1290  1  0.943700  0.520300  0.989600  1
  F  F1291  1  0.051210  0.500200  0.274480  1
  F  F1292  1  0.948790  0.499800  0.274480  1
  F  F1293  1  0.499800  0.051210  0.274480  1
  F  F1294  1  0.500200  0.948790  0.274480  1
  F  F1295  1  0.948790  0.500200  0.725520  1
  F  F1296  1  0.051210  0.499800  0.725520  1
  F  F1297  1  0.500200  0.051210  0.725520  1
  F  F1298  1  0.499800  0.948790  0.725520  1
  F  F1299  1  0.551210  0.000200  0.774480  1
  F  F1300  1  0.448790  0.999800  0.774480  1
  F  F1301  1  0.999800  0.551210  0.774480  1
  F  F1302  1  0.000200  0.448790  0.774480  1
  F  F1303  1  0.448790  0.000200  0.225520  1
  F  F1304  1  0.551210  0.999800  0.225520  1
  F  F1305  1  0.000200  0.551210  0.225520  1
  F  F1306  1  0.999800  0.448790  0.225520  1
  F  F1307  1  0.963100  0.500600  0.457000  1
  F  F1308  1  0.036900  0.499400  0.457000  1
  F  F1309  1  0.499400  0.963100  0.457000  1
  F  F1310  1  0.500600  0.036900  0.457000  1
  F  F1311  1  0.036900  0.500600  0.543000  1
  F  F1312  1  0.963100  0.499400  0.543000  1
  F  F1313  1  0.500600  0.963100  0.543000  1
  F  F1314  1  0.499400  0.036900  0.543000  1
  F  F1315  1  0.463100  0.000600  0.957000  1
  F  F1316  1  0.536900  0.999400  0.957000  1
  F  F1317  1  0.999400  0.463100  0.957000  1
  F  F1318  1  0.000600  0.536900  0.957000  1
  F  F1319  1  0.536900  0.000600  0.043000  1
  F  F1320  1  0.463100  0.999400  0.043000  1
  F  F1321  1  0.000600  0.463100  0.043000  1
  F  F1322  1  0.999400  0.536900  0.043000  1
