
#######################################################################
#
#                 Cambridge Crystallographic Data Centre
#                                CCDC 
#
#######################################################################
#
# If this CIF has been generated from an entry in the Cambridge 
# Structural Database, then it will include bibliographic, chemical, 
# crystal, experimental, refinement or atomic coordinate data resulting 
# from the CCDC's data processing and validation procedures.
#
#######################################################################

data_SIHWEN
_chemical_formula_moiety         'C128 H108 N12 O4 Pd2 S4 4+,4(B1 F4 1-)'
_chemical_name_systematic        
'tetrakis(\m~2~-10-Hexyl-3,7-bis(pyridin-3-ylethynyl)-10H-phenothiazine 5-oxide)-di-palladium(ii) tetrakis(tetrafluoroborate) unknown solvate'
_symmetry_cell_setting           tetragonal
_symmetry_space_group_name_H-M   'I 4 2 2'
_symmetry_Int_Tables_number      97
_space_group_name_Hall           'I 4 2'
loop_
_symmetry_equiv_pos_site_id
_symmetry_equiv_pos_as_xyz
1 x,y,z
2 -x,-y,z
3 -y,x,z
4 y,-x,z
5 -x,y,-z
6 x,-y,-z
7 y,x,-z
8 -y,-x,-z
9 1/2+x,1/2+y,1/2+z
10 1/2-x,1/2-y,1/2+z
11 1/2-y,1/2+x,1/2+z
12 1/2+y,1/2-x,1/2+z
13 1/2-x,1/2+y,1/2-z
14 1/2+x,1/2-y,1/2-z
15 1/2+y,1/2+x,1/2-z
16 1/2-y,1/2-x,1/2-z
_cell_length_a                   21.956(2)
_cell_length_b                   21.956(2)
_cell_length_c                   32.713(4)
_cell_angle_alpha                90
_cell_angle_beta                 90
_cell_angle_gamma                90
_cell_volume                     15769.8
_exptl_crystal_colour            colorless
_exptl_crystal_description       Block
_cell_formula_units_Z            4
loop_
_atom_site_label
_atom_site_type_symbol
_atom_site_fract_x
_atom_site_fract_y
_atom_site_fract_z
Pd1 Pd 0.0000 0.0000 0.63177(2)
N1 N 0.0333(2) 0.0849(2) 0.63175(14)
C1 C 0.0494(3) 0.1121(3) 0.66603(19)
H1 H 0.0450 0.0910 0.6912
C2 C 0.0719(4) 0.1695(4) 0.6662(2)
H2 H 0.0828 0.1881 0.6914
C3 C 0.0795(4) 0.2015(3) 0.6297(3)
H3 H 0.0947 0.2420 0.6298
C4 C 0.0644(3) 0.1735(3) 0.5937(2)
C5 C 0.0413(3) 0.1158(3) 0.5968(2)
H4 H 0.0301 0.0960 0.5722
C6 C 0.0704(4) 0.2024(4) 0.5556(2)
C7 C 0.0750(4) 0.2280(4) 0.5238(3)
C8 C 0.0789(4) 0.2567(4) 0.4835(2)
C9 C 0.0774(5) 0.3203(4) 0.4823(3)
H5 H 0.0735 0.3423 0.5071
C10 C 0.0815(5) 0.3517(4) 0.4461(2)
H6 H 0.0798 0.3949 0.4457
C11 C 0.0881(4) 0.3185(3) 0.4097(2)
C12 C 0.0923(3) 0.2553(3) 0.4109(2)
C13 C 0.0875(4) 0.2242(4) 0.4467(3)
H7 H 0.0899 0.1810 0.4469
N2 N 0.0908(4) 0.3492(3) 0.3707(2)
C14 C 0.1059(6) 0.4189(4) 0.3710(3)
H8 H 0.0727 0.4428 0.3583
H9 H 0.1127 0.4338 0.3992
C15 C 0.1628(6) 0.4226(6) 0.3462(4)
H10 H 0.1733 0.4660 0.3421
H11 H 0.1552 0.4044 0.3190
C16 C 0.2176(7) 0.3900(7) 0.3661(4)
H12 H 0.2551 0.3977 0.3501
H13 H 0.2104 0.3455 0.3671
C17 C 0.2246(8) 0.4161(9) 0.4104(5)
H14 H 0.2186 0.4608 0.4099
H15 H 0.1930 0.3982 0.4284
C18 C 0.2880(8) 0.4014(9) 0.4276(5)
H16 H 0.2976 0.3582 0.4217
H17 H 0.3185 0.4268 0.4133
C19 C 0.2938(10) 0.4123(11) 0.4737(5)
H18 H 0.3026 0.4553 0.4788
H19 H 0.3269 0.3872 0.4846
H20 H 0.2555 0.4012 0.4872
C20 C 0.0741(4) 0.3224(4) 0.3353(3)
C21 C 0.0765(4) 0.2584(4) 0.3318(2)
S1 S 0.11147(11) 0.21196(9) 0.36847(8)
O1 O 0.1797(3) 0.2175(3) 0.36159(19)
C22 C 0.0541(4) 0.3554(4) 0.3024(2)
H21 H 0.0550 0.3987 0.3032
C23 C 0.0326(4) 0.3256(4) 0.2679(3)
H22 H 0.0173 0.3494 0.2459
C24 C 0.0325(4) 0.2628(4) 0.2641(3)
C25 C 0.0560(4) 0.2296(4) 0.2961(2)
H23 H 0.0582 0.1865 0.2940
C26 C 0.0094(5) 0.2329(4) 0.2278(2)
C27 C -0.0070(5) 0.2093(4) 0.1972(2)
C28 C -0.0242(4) 0.1797(4) 0.1599(3)
C29 C -0.0544(4) 0.2089(4) 0.1281(3)
H24 H -0.0647 0.2508 0.1302
C30 C -0.0689(5) 0.1765(4) 0.0939(3)
H25 H -0.0914 0.1949 0.0724
C31 C -0.0509(4) 0.1176(4) 0.0910(2)
H26 H -0.0592 0.0956 0.0666
N3 N -0.0219(2) 0.0899(3) 0.12133(17)
C32 C -0.0078(4) 0.1195(3) 0.15506(19)
H27 H 0.0138 0.0992 0.1762
Pd2 Pd 0.0000 0.0000 0.11877(3)
N1A N -0.0333(2) -0.0849(2) 0.63175(14)
C1A C -0.0494(3) -0.1121(3) 0.66603(19)
H1A H -0.0450 -0.0910 0.6912
C2A C -0.0719(4) -0.1695(4) 0.6662(2)
H2A H -0.0828 -0.1881 0.6914
C3A C -0.0795(4) -0.2015(3) 0.6297(3)
H3A H -0.0947 -0.2420 0.6298
C4A C -0.0644(3) -0.1735(3) 0.5937(2)
C5A C -0.0413(3) -0.1158(3) 0.5968(2)
H4A H -0.0301 -0.0960 0.5722
C6A C -0.0704(4) -0.2024(4) 0.5556(2)
C7A C -0.0750(4) -0.2280(4) 0.5238(3)
C8A C -0.0789(4) -0.2567(4) 0.4835(2)
C9A C -0.0774(5) -0.3203(4) 0.4823(3)
H5A H -0.0735 -0.3423 0.5071
C10A C -0.0815(5) -0.3517(4) 0.4461(2)
H6A H -0.0798 -0.3949 0.4457
C11A C -0.0881(4) -0.3185(3) 0.4097(2)
C12A C -0.0923(3) -0.2553(3) 0.4109(2)
C13A C -0.0875(4) -0.2242(4) 0.4467(3)
H7A H -0.0899 -0.1810 0.4469
N2A N -0.0908(4) -0.3492(3) 0.3707(2)
C14A C -0.1059(6) -0.4189(4) 0.3710(3)
H8A H -0.0727 -0.4428 0.3583
H9A H -0.1127 -0.4338 0.3992
C15A C -0.1628(6) -0.4226(6) 0.3462(4)
H10A H -0.1733 -0.4660 0.3421
H11A H -0.1552 -0.4044 0.3190
C16A C -0.2176(7) -0.3900(7) 0.3661(4)
H12A H -0.2551 -0.3977 0.3501
H13A H -0.2104 -0.3455 0.3671
C17A C -0.2246(8) -0.4161(9) 0.4104(5)
H14A H -0.2186 -0.4608 0.4099
H15A H -0.1930 -0.3982 0.4284
C18A C -0.2880(8) -0.4014(9) 0.4276(5)
H16A H -0.2976 -0.3582 0.4217
H17A H -0.3185 -0.4268 0.4133
C19A C -0.2938(10) -0.4123(11) 0.4737(5)
H18A H -0.3026 -0.4553 0.4788
H19A H -0.3269 -0.3872 0.4846
H20A H -0.2555 -0.4012 0.4872
C20A C -0.0741(4) -0.3224(4) 0.3353(3)
C21A C -0.0765(4) -0.2584(4) 0.3318(2)
S1A S -0.11147(11) -0.21196(9) 0.36847(8)
O1A O -0.1797(3) -0.2175(3) 0.36159(19)
C22A C -0.0541(4) -0.3554(4) 0.3024(2)
H21A H -0.0550 -0.3987 0.3032
C23A C -0.0326(4) -0.3256(4) 0.2679(3)
H22A H -0.0173 -0.3494 0.2459
C24A C -0.0325(4) -0.2628(4) 0.2641(3)
C25A C -0.0560(4) -0.2296(4) 0.2961(2)
H23A H -0.0582 -0.1865 0.2940
C26A C -0.0094(5) -0.2329(4) 0.2278(2)
C27A C 0.0070(5) -0.2093(4) 0.1972(2)
C28A C 0.0242(4) -0.1797(4) 0.1599(3)
C29A C 0.0544(4) -0.2089(4) 0.1281(3)
H24A H 0.0647 -0.2508 0.1302
C30A C 0.0689(5) -0.1765(4) 0.0939(3)
H25A H 0.0914 -0.1949 0.0724
C31A C 0.0509(4) -0.1176(4) 0.0910(2)
H26A H 0.0592 -0.0956 0.0666
N3A N 0.0219(2) -0.0899(3) 0.12133(17)
C32A C 0.0078(4) -0.1195(3) 0.15506(19)
H27A H -0.0138 -0.0992 0.1762
N1B N -0.0849(2) 0.0333(2) 0.63175(14)
C1B C -0.1121(3) 0.0494(3) 0.66603(19)
H1B H -0.0910 0.0450 0.6912
C2B C -0.1695(4) 0.0719(4) 0.6662(2)
H2B H -0.1881 0.0828 0.6914
C3B C -0.2015(3) 0.0795(4) 0.6297(3)
H3B H -0.2420 0.0947 0.6298
C4B C -0.1735(3) 0.0644(3) 0.5937(2)
C5B C -0.1158(3) 0.0413(3) 0.5968(2)
H4B H -0.0960 0.0301 0.5722
C6B C -0.2024(4) 0.0704(4) 0.5556(2)
C7B C -0.2280(4) 0.0750(4) 0.5238(3)
C8B C -0.2567(4) 0.0789(4) 0.4835(2)
C9B C -0.3203(4) 0.0774(5) 0.4823(3)
H5B H -0.3423 0.0735 0.5071
C10B C -0.3517(4) 0.0815(5) 0.4461(2)
H6B H -0.3949 0.0798 0.4457
C11B C -0.3185(3) 0.0881(4) 0.4097(2)
C12B C -0.2553(3) 0.0923(3) 0.4109(2)
C13B C -0.2242(4) 0.0875(4) 0.4467(3)
H7B H -0.1810 0.0899 0.4469
N2B N -0.3492(3) 0.0908(4) 0.3707(2)
C14B C -0.4189(4) 0.1059(6) 0.3710(3)
H8B H -0.4428 0.0727 0.3583
H9B H -0.4338 0.1127 0.3992
C15B C -0.4226(6) 0.1628(6) 0.3462(4)
H10B H -0.4660 0.1733 0.3421
H11B H -0.4044 0.1552 0.3190
C16B C -0.3900(7) 0.2176(7) 0.3661(4)
H12B H -0.3977 0.2551 0.3501
H13B H -0.3455 0.2104 0.3671
C17B C -0.4161(9) 0.2246(8) 0.4104(5)
H14B H -0.4608 0.2186 0.4099
H15B H -0.3982 0.1930 0.4284
C18B C -0.4014(9) 0.2880(8) 0.4276(5)
H16B H -0.3582 0.2976 0.4217
H17B H -0.4268 0.3185 0.4133
C19B C -0.4123(11) 0.2938(10) 0.4737(5)
H18B H -0.4553 0.3026 0.4788
H19B H -0.3872 0.3269 0.4846
H20B H -0.4012 0.2555 0.4872
C20B C -0.3224(4) 0.0741(4) 0.3353(3)
C21B C -0.2584(4) 0.0765(4) 0.3318(2)
S1B S -0.21196(9) 0.11147(11) 0.36847(8)
O1B O -0.2175(3) 0.1797(3) 0.36159(19)
C22B C -0.3554(4) 0.0541(4) 0.3024(2)
H21B H -0.3987 0.0550 0.3032
C23B C -0.3256(4) 0.0326(4) 0.2679(3)
H22B H -0.3494 0.0173 0.2459
C24B C -0.2628(4) 0.0325(4) 0.2641(3)
C25B C -0.2296(4) 0.0560(4) 0.2961(2)
H23B H -0.1865 0.0582 0.2940
C26B C -0.2329(4) 0.0094(5) 0.2278(2)
C27B C -0.2093(4) -0.0070(5) 0.1972(2)
C28B C -0.1797(4) -0.0242(4) 0.1599(3)
C29B C -0.2089(4) -0.0544(4) 0.1281(3)
H24B H -0.2508 -0.0647 0.1302
C30B C -0.1765(4) -0.0689(5) 0.0939(3)
H25B H -0.1949 -0.0914 0.0724
C31B C -0.1176(4) -0.0509(4) 0.0910(2)
H26B H -0.0956 -0.0592 0.0666
N3B N -0.0899(3) -0.0219(2) 0.12133(17)
C32B C -0.1195(3) -0.0078(4) 0.15506(19)
H27B H -0.0992 0.0138 0.1762
N1C N 0.0849(2) -0.0333(2) 0.63175(14)
C1C C 0.1121(3) -0.0494(3) 0.66603(19)
H1C H 0.0910 -0.0450 0.6912
C2C C 0.1695(4) -0.0719(4) 0.6662(2)
H2C H 0.1881 -0.0828 0.6914
C3C C 0.2015(3) -0.0795(4) 0.6297(3)
H3C H 0.2420 -0.0947 0.6298
C4C C 0.1735(3) -0.0644(3) 0.5937(2)
C5C C 0.1158(3) -0.0413(3) 0.5968(2)
H4C H 0.0960 -0.0301 0.5722
C6C C 0.2024(4) -0.0704(4) 0.5556(2)
C7C C 0.2280(4) -0.0750(4) 0.5238(3)
C8C C 0.2567(4) -0.0789(4) 0.4835(2)
C9C C 0.3203(4) -0.0774(5) 0.4823(3)
H5C H 0.3423 -0.0735 0.5071
C10C C 0.3517(4) -0.0815(5) 0.4461(2)
H6C H 0.3949 -0.0798 0.4457
C11C C 0.3185(3) -0.0881(4) 0.4097(2)
C12C C 0.2553(3) -0.0923(3) 0.4109(2)
C13C C 0.2242(4) -0.0875(4) 0.4467(3)
H7C H 0.1810 -0.0899 0.4469
N2C N 0.3492(3) -0.0908(4) 0.3707(2)
C14C C 0.4189(4) -0.1059(6) 0.3710(3)
H8C H 0.4428 -0.0727 0.3583
H9C H 0.4338 -0.1127 0.3992
C15C C 0.4226(6) -0.1628(6) 0.3462(4)
H10C H 0.4660 -0.1733 0.3421
H11C H 0.4044 -0.1552 0.3190
C16C C 0.3900(7) -0.2176(7) 0.3661(4)
H12C H 0.3977 -0.2551 0.3501
H13C H 0.3455 -0.2104 0.3671
C17C C 0.4161(9) -0.2246(8) 0.4104(5)
H14C H 0.4608 -0.2186 0.4099
H15C H 0.3982 -0.1930 0.4284
C18C C 0.4014(9) -0.2880(8) 0.4276(5)
H16C H 0.3582 -0.2976 0.4217
H17C H 0.4268 -0.3185 0.4133
C19C C 0.4123(11) -0.2938(10) 0.4737(5)
H18C H 0.4553 -0.3026 0.4788
H19C H 0.3872 -0.3269 0.4846
H20C H 0.4012 -0.2555 0.4872
C20C C 0.3224(4) -0.0741(4) 0.3353(3)
C21C C 0.2584(4) -0.0765(4) 0.3318(2)
S1C S 0.21196(9) -0.11147(11) 0.36847(8)
O1C O 0.2175(3) -0.1797(3) 0.36159(19)
C22C C 0.3554(4) -0.0541(4) 0.3024(2)
H21C H 0.3987 -0.0550 0.3032
C23C C 0.3256(4) -0.0326(4) 0.2679(3)
H22C H 0.3494 -0.0173 0.2459
C24C C 0.2628(4) -0.0325(4) 0.2641(3)
C25C C 0.2296(4) -0.0560(4) 0.2961(2)
H23C H 0.1865 -0.0582 0.2940
C26C C 0.2329(4) -0.0094(5) 0.2278(2)
C27C C 0.2093(4) 0.0070(5) 0.1972(2)
C28C C 0.1797(4) 0.0242(4) 0.1599(3)
C29C C 0.2089(4) 0.0544(4) 0.1281(3)
H24C H 0.2508 0.0647 0.1302
C30C C 0.1765(4) 0.0689(5) 0.0939(3)
H25C H 0.1949 0.0914 0.0724
C31C C 0.1176(4) 0.0509(4) 0.0910(2)
H26C H 0.0956 0.0592 0.0666
N3C N 0.0899(3) 0.0219(2) 0.12133(17)
C32C C 0.1195(3) 0.0078(4) 0.15506(19)
H27C H 0.0992 -0.0138 0.1762
B1? B 0.0323(9) -0.0099(11) 0.5019(11)
F1? F 0.0510(11) -0.0685(9) 0.5027(11)
F2? F 0.0816(9) 0.0272(11) 0.5043(10)
B2? B 0.5000 0.5000 0.5000
F3? F 0.4381(7) 0.4809(12) 0.4995(17)
F4? F 0.513(2) 0.5172(15) 0.5377(4)
F5? F 0.506(2) 0.5434(11) 0.4719(6)
F6? F 0.5321(11) 0.4482(11) 0.4894(10)
F7? F 0.0000 0.0000 0.4670(10)
F8? F 0.0000 0.0000 0.5370(10)
B3? B -0.0070(12) 0.0273(8) 0.2444(4)
F9? F 0.0045(17) -0.0009(13) 0.20974(19)
F10? F 0.0000 0.0000 0.27925(18)
F11? F -0.0658(8) 0.0513(7) 0.2427(5)
F12? F 0.0293(8) 0.0791(7) 0.2485(6)
B4? B -0.0389(12) 0.5009(14) 0.4981(7)
F13? F -0.0007(14) 0.4587(16) 0.5130(9)
F14? F -0.0961(10) 0.4909(16) 0.5121(8)
F15? F -0.0203(13) 0.5563(14) 0.5104(11)
B5? B 0.0000 0.5000 0.2500
F16? F 0.05121(18) 0.5002(3) 0.27448(14)
F17? F -0.0369(10) 0.5006(15) 0.4570(5)
loop_
_geom_bond_atom_site_label_1
_geom_bond_atom_site_label_2
_geom_bond_site_symmetry_1
_geom_bond_site_symmetry_2
Pd1 N1 1_555 1_555
N1 C1 1_555 1_555
C1 H1 1_555 1_555
C2 C1 1_555 1_555
H2 C2 1_555 1_555
C3 C2 1_555 1_555
H3 C3 1_555 1_555
C4 C3 1_555 1_555
C5 N1 1_555 1_555
H4 C5 1_555 1_555
C6 C4 1_555 1_555
C7 C6 1_555 1_555
C8 C7 1_555 1_555
C9 C8 1_555 1_555
H5 C9 1_555 1_555
C10 C9 1_555 1_555
H6 C10 1_555 1_555
C11 C10 1_555 1_555
C12 C11 1_555 1_555
C13 C8 1_555 1_555
H7 C13 1_555 1_555
N2 C11 1_555 1_555
C14 N2 1_555 1_555
H8 C14 1_555 1_555
H9 C14 1_555 1_555
C15 C14 1_555 1_555
H10 C15 1_555 1_555
H11 C15 1_555 1_555
C16 C15 1_555 1_555
H12 C16 1_555 1_555
H13 C16 1_555 1_555
C17 C16 1_555 1_555
H14 C17 1_555 1_555
H15 C17 1_555 1_555
C18 C17 1_555 1_555
H16 C18 1_555 1_555
H17 C18 1_555 1_555
C19 C18 1_555 1_555
H18 C19 1_555 1_555
H19 C19 1_555 1_555
H20 C19 1_555 1_555
C20 N2 1_555 1_555
C21 C20 1_555 1_555
S1 C12 1_555 1_555
O1 S1 1_555 1_555
C22 C20 1_555 1_555
H21 C22 1_555 1_555
C23 C22 1_555 1_555
H22 C23 1_555 1_555
C24 C23 1_555 1_555
C25 C21 1_555 1_555
H23 C25 1_555 1_555
C26 C24 1_555 1_555
C27 C26 1_555 1_555
C28 C27 1_555 1_555
C29 C28 1_555 1_555
H24 C29 1_555 1_555
C30 C29 1_555 1_555
H25 C30 1_555 1_555
C31 C30 1_555 1_555
H26 C31 1_555 1_555
N3 C31 1_555 1_555
C32 C28 1_555 1_555
H27 C32 1_555 1_555
Pd2 N3 1_555 1_555
N1A Pd1 1_555 1_555
C1A N1A 1_555 1_555
H1A C1A 1_555 1_555
C2A C1A 1_555 1_555
H2A C2A 1_555 1_555
C3A C2A 1_555 1_555
H3A C3A 1_555 1_555
C4A C3A 1_555 1_555
C5A N1A 1_555 1_555
H4A C5A 1_555 1_555
C6A C4A 1_555 1_555
C7A C6A 1_555 1_555
C8A C7A 1_555 1_555
C9A C8A 1_555 1_555
H5A C9A 1_555 1_555
C10A C9A 1_555 1_555
H6A C10A 1_555 1_555
C11A C10A 1_555 1_555
C12A C11A 1_555 1_555
C13A C8A 1_555 1_555
H7A C13A 1_555 1_555
N2A C11A 1_555 1_555
C14A N2A 1_555 1_555
H8A C14A 1_555 1_555
H9A C14A 1_555 1_555
C15A C14A 1_555 1_555
H10A C15A 1_555 1_555
H11A C15A 1_555 1_555
C16A C15A 1_555 1_555
H12A C16A 1_555 1_555
H13A C16A 1_555 1_555
C17A C16A 1_555 1_555
H14A C17A 1_555 1_555
H15A C17A 1_555 1_555
C18A C17A 1_555 1_555
H16A C18A 1_555 1_555
H17A C18A 1_555 1_555
C19A C18A 1_555 1_555
H18A C19A 1_555 1_555
H19A C19A 1_555 1_555
H20A C19A 1_555 1_555
C20A N2A 1_555 1_555
C21A C20A 1_555 1_555
S1A C12A 1_555 1_555
O1A S1A 1_555 1_555
C22A C20A 1_555 1_555
H21A C22A 1_555 1_555
C23A C22A 1_555 1_555
H22A C23A 1_555 1_555
C24A C23A 1_555 1_555
C25A C21A 1_555 1_555
H23A C25A 1_555 1_555
C26A C24A 1_555 1_555
C27A C26A 1_555 1_555
C28A C27A 1_555 1_555
C29A C28A 1_555 1_555
H24A C29A 1_555 1_555
C30A C29A 1_555 1_555
H25A C30A 1_555 1_555
C31A C30A 1_555 1_555
H26A C31A 1_555 1_555
N3A Pd2 1_555 1_555
C32A C28A 1_555 1_555
H27A C32A 1_555 1_555
N1B Pd1 1_555 1_555
C1B N1B 1_555 1_555
H1B C1B 1_555 1_555
C2B C1B 1_555 1_555
H2B C2B 1_555 1_555
C3B C2B 1_555 1_555
H3B C3B 1_555 1_555
C4B C3B 1_555 1_555
C5B N1B 1_555 1_555
H4B C5B 1_555 1_555
C6B C4B 1_555 1_555
C7B C6B 1_555 1_555
C8B C7B 1_555 1_555
C9B C8B 1_555 1_555
H5B C9B 1_555 1_555
C10B C9B 1_555 1_555
H6B C10B 1_555 1_555
C11B C10B 1_555 1_555
C12B C11B 1_555 1_555
C13B C8B 1_555 1_555
H7B C13B 1_555 1_555
N2B C11B 1_555 1_555
C14B N2B 1_555 1_555
H8B C14B 1_555 1_555
H9B C14B 1_555 1_555
C15B C14B 1_555 1_555
H10B C15B 1_555 1_555
H11B C15B 1_555 1_555
C16B C15B 1_555 1_555
H12B C16B 1_555 1_555
H13B C16B 1_555 1_555
C17B C16B 1_555 1_555
H14B C17B 1_555 1_555
H15B C17B 1_555 1_555
C18B C17B 1_555 1_555
H16B C18B 1_555 1_555
H17B C18B 1_555 1_555
C19B C18B 1_555 1_555
H18B C19B 1_555 1_555
H19B C19B 1_555 1_555
H20B C19B 1_555 1_555
C20B N2B 1_555 1_555
C21B C20B 1_555 1_555
S1B C12B 1_555 1_555
O1B S1B 1_555 1_555
C22B C20B 1_555 1_555
H21B C22B 1_555 1_555
C23B C22B 1_555 1_555
H22B C23B 1_555 1_555
C24B C23B 1_555 1_555
C25B C21B 1_555 1_555
H23B C25B 1_555 1_555
C26B C24B 1_555 1_555
C27B C26B 1_555 1_555
C28B C27B 1_555 1_555
C29B C28B 1_555 1_555
H24B C29B 1_555 1_555
C30B C29B 1_555 1_555
H25B C30B 1_555 1_555
C31B C30B 1_555 1_555
H26B C31B 1_555 1_555
N3B Pd2 1_555 1_555
C32B C28B 1_555 1_555
H27B C32B 1_555 1_555
N1C Pd1 1_555 1_555
C1C N1C 1_555 1_555
H1C C1C 1_555 1_555
C2C C1C 1_555 1_555
H2C C2C 1_555 1_555
C3C C2C 1_555 1_555
H3C C3C 1_555 1_555
C4C C3C 1_555 1_555
C5C N1C 1_555 1_555
H4C C5C 1_555 1_555
C6C C4C 1_555 1_555
C7C C6C 1_555 1_555
C8C C7C 1_555 1_555
C9C C8C 1_555 1_555
H5C C9C 1_555 1_555
C10C C9C 1_555 1_555
H6C C10C 1_555 1_555
C11C C10C 1_555 1_555
C12C C11C 1_555 1_555
C13C C8C 1_555 1_555
H7C C13C 1_555 1_555
N2C C11C 1_555 1_555
C14C N2C 1_555 1_555
H8C C14C 1_555 1_555
H9C C14C 1_555 1_555
C15C C14C 1_555 1_555
H10C C15C 1_555 1_555
H11C C15C 1_555 1_555
C16C C15C 1_555 1_555
H12C C16C 1_555 1_555
H13C C16C 1_555 1_555
C17C C16C 1_555 1_555
H14C C17C 1_555 1_555
H15C C17C 1_555 1_555
C18C C17C 1_555 1_555
H16C C18C 1_555 1_555
H17C C18C 1_555 1_555
C19C C18C 1_555 1_555
H18C C19C 1_555 1_555
H19C C19C 1_555 1_555
H20C C19C 1_555 1_555
C20C N2C 1_555 1_555
C21C C20C 1_555 1_555
S1C C12C 1_555 1_555
O1C S1C 1_555 1_555
C22C C20C 1_555 1_555
H21C C22C 1_555 1_555
C23C C22C 1_555 1_555
H22C C23C 1_555 1_555
C24C C23C 1_555 1_555
C25C C21C 1_555 1_555
H23C C25C 1_555 1_555
C26C C24C 1_555 1_555
C27C C26C 1_555 1_555
C28C C27C 1_555 1_555
C29C C28C 1_555 1_555
H24C C29C 1_555 1_555
C30C C29C 1_555 1_555
H25C C30C 1_555 1_555
C31C C30C 1_555 1_555
H26C C31C 1_555 1_555
N3C Pd2 1_555 1_555
C32C C28C 1_555 1_555
H27C C32C 1_555 1_555
C4 C5 1_555 1_555
C12 C13 1_555 1_555
C21 S1 1_555 1_555
C24 C25 1_555 1_555
N3 C32 1_555 1_555
C4A C5A 1_555 1_555
C12A C13A 1_555 1_555
C21A S1A 1_555 1_555
C24A C25A 1_555 1_555
C31A N3A 1_555 1_555
N3A C32A 1_555 1_555
C4B C5B 1_555 1_555
C12B C13B 1_555 1_555
C21B S1B 1_555 1_555
C24B C25B 1_555 1_555
C31B N3B 1_555 1_555
N3B C32B 1_555 1_555
C4C C5C 1_555 1_555
C12C C13C 1_555 1_555
C21C S1C 1_555 1_555
C24C C25C 1_555 1_555
C31C N3C 1_555 1_555
N3C C32C 1_555 1_555

#END
