# generated using pymatgen
data_B10H198PdC144S4N8(OF5)8
_symmetry_space_group_name_H-M   'P 1'
_cell_length_a   21.12200000
_cell_length_b   21.12200000
_cell_length_c   34.26300000
_cell_angle_alpha   90.00000000
_cell_angle_beta   90.00000000
_cell_angle_gamma   90.00000000
_symmetry_Int_Tables_number   1
_chemical_formula_structural   B10H198PdC144S4N8(OF5)8
_chemical_formula_sum   'B80 H1584 Pd8 C1152 S32 N64 O64 F320'
_cell_volume   15286.05658249
_cell_formula_units_Z   8
loop_
 _symmetry_equiv_pos_site_id
 _symmetry_equiv_pos_as_xyz
  1  'x, y, z'
loop_
 _atom_site_type_symbol
 _atom_site_label
 _atom_site_symmetry_multiplicity
 _atom_site_fract_x
 _atom_site_fract_y
 _atom_site_fract_z
 _atom_site_occupancy
  B  B1  1  0.750700  0.252900  0.506400  1
  B  B2  1  0.749300  0.247100  0.506400  1
  B  B3  1  0.247100  0.750700  0.506400  1
  B  B4  1  0.252900  0.749300  0.506400  1
  B  B5  1  0.749300  0.252900  0.993600  1
  B  B6  1  0.750700  0.247100  0.993600  1
  B  B7  1  0.252900  0.750700  0.993600  1
  B  B8  1  0.247100  0.749300  0.993600  1
  B  B9  1  0.249300  0.747100  0.493600  1
  B  B10  1  0.250700  0.752900  0.493600  1
  B  B11  1  0.752900  0.249300  0.493600  1
  B  B12  1  0.747100  0.250700  0.493600  1
  B  B13  1  0.250700  0.747100  0.006400  1
  B  B14  1  0.249300  0.752900  0.006400  1
  B  B15  1  0.747100  0.249300  0.006400  1
  B  B16  1  0.752900  0.250700  0.006400  1
  B  B17  1  0.757300  0.730700  0.249100  1
  B  B18  1  0.742700  0.769300  0.249100  1
  B  B19  1  0.769300  0.757300  0.249100  1
  B  B20  1  0.730700  0.742700  0.249100  1
  B  B21  1  0.742700  0.730700  0.250900  1
  B  B22  1  0.757300  0.769300  0.250900  1
  B  B23  1  0.730700  0.757300  0.250900  1
  B  B24  1  0.769300  0.742700  0.250900  1
  B  B25  1  0.242700  0.269300  0.750900  1
  B  B26  1  0.257300  0.230700  0.750900  1
  B  B27  1  0.230700  0.242700  0.750900  1
  B  B28  1  0.269300  0.257300  0.750900  1
  B  B29  1  0.257300  0.269300  0.749100  1
  B  B30  1  0.242700  0.230700  0.749100  1
  B  B31  1  0.269300  0.242700  0.749100  1
  B  B32  1  0.230700  0.257300  0.749100  1
  B  B33  1  0.745400  0.721700  0.751000  1
  B  B34  1  0.754600  0.778300  0.751000  1
  B  B35  1  0.778300  0.745400  0.751000  1
  B  B36  1  0.721700  0.754600  0.751000  1
  B  B37  1  0.754600  0.721700  0.749000  1
  B  B38  1  0.745400  0.778300  0.749000  1
  B  B39  1  0.721700  0.745400  0.749000  1
  B  B40  1  0.778300  0.754600  0.749000  1
  B  B41  1  0.254600  0.278300  0.249000  1
  B  B42  1  0.245400  0.221700  0.249000  1
  B  B43  1  0.221700  0.254600  0.249000  1
  B  B44  1  0.278300  0.245400  0.249000  1
  B  B45  1  0.245400  0.278300  0.251000  1
  B  B46  1  0.254600  0.221700  0.251000  1
  B  B47  1  0.278300  0.254600  0.251000  1
  B  B48  1  0.221700  0.245400  0.251000  1
  B  B49  1  0.745800  0.732000  0.999600  1
  B  B50  1  0.754200  0.768000  0.999600  1
  B  B51  1  0.768000  0.745800  0.999600  1
  B  B52  1  0.732000  0.754200  0.999600  1
  B  B53  1  0.754200  0.732000  0.500400  1
  B  B54  1  0.745800  0.768000  0.500400  1
  B  B55  1  0.732000  0.745800  0.500400  1
  B  B56  1  0.768000  0.754200  0.500400  1
  B  B57  1  0.254200  0.268000  0.000400  1
  B  B58  1  0.245800  0.232000  0.000400  1
  B  B59  1  0.232000  0.254200  0.000400  1
  B  B60  1  0.268000  0.245800  0.000400  1
  B  B61  1  0.245800  0.268000  0.499600  1
  B  B62  1  0.254200  0.232000  0.499600  1
  B  B63  1  0.268000  0.254200  0.499600  1
  B  B64  1  0.232000  0.245800  0.499600  1
  B  B65  1  0.725900  0.249400  0.760300  1
  B  B66  1  0.774100  0.250600  0.760300  1
  B  B67  1  0.250600  0.725900  0.760300  1
  B  B68  1  0.249400  0.774100  0.760300  1
  B  B69  1  0.774100  0.249400  0.739700  1
  B  B70  1  0.725900  0.250600  0.739700  1
  B  B71  1  0.249400  0.725900  0.739700  1
  B  B72  1  0.250600  0.774100  0.739700  1
  B  B73  1  0.274100  0.750600  0.239700  1
  B  B74  1  0.225900  0.749400  0.239700  1
  B  B75  1  0.749400  0.274100  0.239700  1
  B  B76  1  0.750600  0.225900  0.239700  1
  B  B77  1  0.225900  0.750600  0.260300  1
  B  B78  1  0.274100  0.749400  0.260300  1
  B  B79  1  0.750600  0.274100  0.260300  1
  B  B80  1  0.749400  0.225900  0.260300  1
  H  H81  1  0.551300  0.434100  0.825100  1
  H  H82  1  0.948700  0.065900  0.825100  1
  H  H83  1  0.065900  0.551300  0.825100  1
  H  H84  1  0.434100  0.948700  0.825100  1
  H  H85  1  0.948700  0.434100  0.674900  1
  H  H86  1  0.551300  0.065900  0.674900  1
  H  H87  1  0.434100  0.551300  0.674900  1
  H  H88  1  0.065900  0.948700  0.674900  1
  H  H89  1  0.448700  0.565900  0.174900  1
  H  H90  1  0.051300  0.934100  0.174900  1
  H  H91  1  0.934100  0.448700  0.174900  1
  H  H92  1  0.565900  0.051300  0.174900  1
  H  H93  1  0.051300  0.565900  0.325100  1
  H  H94  1  0.448700  0.934100  0.325100  1
  H  H95  1  0.565900  0.448700  0.325100  1
  H  H96  1  0.934100  0.051300  0.325100  1
  H  H97  1  0.484100  0.464800  0.835400  1
  H  H98  1  0.015900  0.035200  0.835400  1
  H  H99  1  0.035200  0.484100  0.835400  1
  H  H100  1  0.464800  0.015900  0.835400  1
  H  H101  1  0.015900  0.464800  0.664600  1
  H  H102  1  0.484100  0.035200  0.664600  1
  H  H103  1  0.464800  0.484100  0.664600  1
  H  H104  1  0.035200  0.015900  0.664600  1
  H  H105  1  0.515900  0.535200  0.164600  1
  H  H106  1  0.984100  0.964800  0.164600  1
  H  H107  1  0.964800  0.515900  0.164600  1
  H  H108  1  0.535200  0.984100  0.164600  1
  H  H109  1  0.984100  0.535200  0.335400  1
  H  H110  1  0.515900  0.964800  0.335400  1
  H  H111  1  0.535200  0.515900  0.335400  1
  H  H112  1  0.964800  0.984100  0.335400  1
  H  H113  1  0.544200  0.509400  0.828100  1
  H  H114  1  0.955800  0.990600  0.828100  1
  H  H115  1  0.990600  0.544200  0.828100  1
  H  H116  1  0.509400  0.955800  0.828100  1
  H  H117  1  0.955800  0.509400  0.671900  1
  H  H118  1  0.544200  0.990600  0.671900  1
  H  H119  1  0.509400  0.544200  0.671900  1
  H  H120  1  0.990600  0.955800  0.671900  1
  H  H121  1  0.455800  0.490600  0.171900  1
  H  H122  1  0.044200  0.009400  0.171900  1
  H  H123  1  0.009400  0.455800  0.171900  1
  H  H124  1  0.490600  0.044200  0.171900  1
  H  H125  1  0.044200  0.490600  0.328100  1
  H  H126  1  0.455800  0.009400  0.328100  1
  H  H127  1  0.490600  0.455800  0.328100  1
  H  H128  1  0.009400  0.044200  0.328100  1
  H  H129  1  0.473400  0.504600  0.772900  1
  H  H130  1  0.026600  0.995400  0.772900  1
  H  H131  1  0.995400  0.473400  0.772900  1
  H  H132  1  0.504600  0.026600  0.772900  1
  H  H133  1  0.026600  0.504600  0.727100  1
  H  H134  1  0.473400  0.995400  0.727100  1
  H  H135  1  0.504600  0.473400  0.727100  1
  H  H136  1  0.995400  0.026600  0.727100  1
  H  H137  1  0.526600  0.495400  0.227100  1
  H  H138  1  0.973400  0.004600  0.227100  1
  H  H139  1  0.004600  0.526600  0.227100  1
  H  H140  1  0.495400  0.973400  0.227100  1
  H  H141  1  0.973400  0.495400  0.272900  1
  H  H142  1  0.526600  0.004600  0.272900  1
  H  H143  1  0.495400  0.526600  0.272900  1
  H  H144  1  0.004600  0.973400  0.272900  1
  H  H145  1  0.545000  0.485900  0.762300  1
  H  H146  1  0.955000  0.014100  0.762300  1
  H  H147  1  0.014100  0.545000  0.762300  1
  H  H148  1  0.485900  0.955000  0.762300  1
  H  H149  1  0.955000  0.485900  0.737700  1
  H  H150  1  0.545000  0.014100  0.737700  1
  H  H151  1  0.485900  0.545000  0.737700  1
  H  H152  1  0.014100  0.955000  0.737700  1
  H  H153  1  0.455000  0.514100  0.237700  1
  H  H154  1  0.045000  0.985900  0.237700  1
  H  H155  1  0.985900  0.455000  0.237700  1
  H  H156  1  0.514100  0.045000  0.237700  1
  H  H157  1  0.045000  0.514100  0.262300  1
  H  H158  1  0.455000  0.985900  0.262300  1
  H  H159  1  0.514100  0.455000  0.262300  1
  H  H160  1  0.985900  0.045000  0.262300  1
  H  H161  1  0.531900  0.395200  0.713300  1
  H  H162  1  0.968100  0.104800  0.713300  1
  H  H163  1  0.104800  0.531900  0.713300  1
  H  H164  1  0.395200  0.968100  0.713300  1
  H  H165  1  0.968100  0.395200  0.786700  1
  H  H166  1  0.531900  0.104800  0.786700  1
  H  H167  1  0.395200  0.531900  0.786700  1
  H  H168  1  0.104800  0.968100  0.786700  1
  H  H169  1  0.468100  0.604800  0.286700  1
  H  H170  1  0.031900  0.895200  0.286700  1
  H  H171  1  0.895200  0.468100  0.286700  1
  H  H172  1  0.604800  0.031900  0.286700  1
  H  H173  1  0.031900  0.604800  0.213300  1
  H  H174  1  0.468100  0.895200  0.213300  1
  H  H175  1  0.604800  0.468100  0.213300  1
  H  H176  1  0.895200  0.031900  0.213300  1
  H  H177  1  0.463200  0.426700  0.707800  1
  H  H178  1  0.036800  0.073300  0.707800  1
  H  H179  1  0.073300  0.463200  0.707800  1
  H  H180  1  0.426700  0.036800  0.707800  1
  H  H181  1  0.036800  0.426700  0.792200  1
  H  H182  1  0.463200  0.073300  0.792200  1
  H  H183  1  0.426700  0.463200  0.792200  1
  H  H184  1  0.073300  0.036800  0.792200  1
  H  H185  1  0.536800  0.573300  0.292200  1
  H  H186  1  0.963200  0.926700  0.292200  1
  H  H187  1  0.926700  0.536800  0.292200  1
  H  H188  1  0.573300  0.963200  0.292200  1
  H  H189  1  0.963200  0.573300  0.207800  1
  H  H190  1  0.536800  0.926700  0.207800  1
  H  H191  1  0.573300  0.536800  0.207800  1
  H  H192  1  0.926700  0.963200  0.207800  1
  H  H193  1  0.442000  0.327100  0.692400  1
  H  H194  1  0.058000  0.172900  0.692400  1
  H  H195  1  0.172900  0.442000  0.692400  1
  H  H196  1  0.327100  0.058000  0.692400  1
  H  H197  1  0.058000  0.327100  0.807600  1
  H  H198  1  0.442000  0.172900  0.807600  1
  H  H199  1  0.327100  0.442000  0.807600  1
  H  H200  1  0.172900  0.058000  0.807600  1
  H  H201  1  0.558000  0.672900  0.307600  1
  H  H202  1  0.942000  0.827100  0.307600  1
  H  H203  1  0.827100  0.558000  0.307600  1
  H  H204  1  0.672900  0.942000  0.307600  1
  H  H205  1  0.942000  0.672900  0.192400  1
  H  H206  1  0.558000  0.827100  0.192400  1
  H  H207  1  0.672900  0.558000  0.192400  1
  H  H208  1  0.827100  0.942000  0.192400  1
  H  H209  1  0.425600  0.326400  0.738000  1
  H  H210  1  0.074400  0.173600  0.738000  1
  H  H211  1  0.173600  0.425600  0.738000  1
  H  H212  1  0.326400  0.074400  0.738000  1
  H  H213  1  0.074400  0.326400  0.762000  1
  H  H214  1  0.425600  0.173600  0.762000  1
  H  H215  1  0.326400  0.425600  0.762000  1
  H  H216  1  0.173600  0.074400  0.762000  1
  H  H217  1  0.574400  0.673600  0.262000  1
  H  H218  1  0.925600  0.826400  0.262000  1
  H  H219  1  0.826400  0.574400  0.262000  1
  H  H220  1  0.673600  0.925600  0.262000  1
  H  H221  1  0.925600  0.673600  0.238000  1
  H  H222  1  0.574400  0.826400  0.238000  1
  H  H223  1  0.673600  0.574400  0.238000  1
  H  H224  1  0.826400  0.925600  0.238000  1
  H  H225  1  0.492100  0.299500  0.723000  1
  H  H226  1  0.007900  0.200500  0.723000  1
  H  H227  1  0.200500  0.492100  0.723000  1
  H  H228  1  0.299500  0.007900  0.723000  1
  H  H229  1  0.007900  0.299500  0.777000  1
  H  H230  1  0.492100  0.200500  0.777000  1
  H  H231  1  0.299500  0.492100  0.777000  1
  H  H232  1  0.200500  0.007900  0.777000  1
  H  H233  1  0.507900  0.700500  0.277000  1
  H  H234  1  0.992100  0.799500  0.277000  1
  H  H235  1  0.799500  0.507900  0.277000  1
  H  H236  1  0.700500  0.992100  0.277000  1
  H  H237  1  0.992100  0.700500  0.223000  1
  H  H238  1  0.507900  0.799500  0.223000  1
  H  H239  1  0.700500  0.507900  0.223000  1
  H  H240  1  0.799500  0.992100  0.223000  1
  H  H241  1  0.621100  0.310400  0.775300  1
  H  H242  1  0.878900  0.189600  0.775300  1
  H  H243  1  0.189600  0.621100  0.775300  1
  H  H244  1  0.310400  0.878900  0.775300  1
  H  H245  1  0.878900  0.310400  0.724700  1
  H  H246  1  0.621100  0.189600  0.724700  1
  H  H247  1  0.310400  0.621100  0.724700  1
  H  H248  1  0.189600  0.878900  0.724700  1
  H  H249  1  0.378900  0.689600  0.224700  1
  H  H250  1  0.121100  0.810400  0.224700  1
  H  H251  1  0.810400  0.378900  0.224700  1
  H  H252  1  0.689600  0.121100  0.224700  1
  H  H253  1  0.121100  0.689600  0.275300  1
  H  H254  1  0.378900  0.810400  0.275300  1
  H  H255  1  0.689600  0.378900  0.275300  1
  H  H256  1  0.810400  0.121100  0.275300  1
  H  H257  1  0.577500  0.362900  0.795500  1
  H  H258  1  0.922500  0.137100  0.795500  1
  H  H259  1  0.137100  0.577500  0.795500  1
  H  H260  1  0.362900  0.922500  0.795500  1
  H  H261  1  0.922500  0.362900  0.704500  1
  H  H262  1  0.577500  0.137100  0.704500  1
  H  H263  1  0.362900  0.577500  0.704500  1
  H  H264  1  0.137100  0.922500  0.704500  1
  H  H265  1  0.422500  0.637100  0.204500  1
  H  H266  1  0.077500  0.862900  0.204500  1
  H  H267  1  0.862900  0.422500  0.204500  1
  H  H268  1  0.637100  0.077500  0.204500  1
  H  H269  1  0.077500  0.637100  0.295500  1
  H  H270  1  0.422500  0.862900  0.295500  1
  H  H271  1  0.637100  0.422500  0.295500  1
  H  H272  1  0.862900  0.077500  0.295500  1
  H  H273  1  0.574700  0.291100  0.810300  1
  H  H274  1  0.925300  0.208900  0.810300  1
  H  H275  1  0.208900  0.574700  0.810300  1
  H  H276  1  0.291100  0.925300  0.810300  1
  H  H277  1  0.925300  0.291100  0.689700  1
  H  H278  1  0.574700  0.208900  0.689700  1
  H  H279  1  0.291100  0.574700  0.689700  1
  H  H280  1  0.208900  0.925300  0.689700  1
  H  H281  1  0.425300  0.708900  0.189700  1
  H  H282  1  0.074700  0.791100  0.189700  1
  H  H283  1  0.791100  0.425300  0.189700  1
  H  H284  1  0.708900  0.074700  0.189700  1
  H  H285  1  0.074700  0.708900  0.310300  1
  H  H286  1  0.425300  0.791100  0.310300  1
  H  H287  1  0.708900  0.425300  0.310300  1
  H  H288  1  0.791100  0.074700  0.310300  1
  H  H289  1  0.679600  0.299600  0.833500  1
  H  H290  1  0.820400  0.200400  0.833500  1
  H  H291  1  0.200400  0.679600  0.833500  1
  H  H292  1  0.299600  0.820400  0.833500  1
  H  H293  1  0.820400  0.299600  0.666500  1
  H  H294  1  0.679600  0.200400  0.666500  1
  H  H295  1  0.299600  0.679600  0.666500  1
  H  H296  1  0.200400  0.820400  0.666500  1
  H  H297  1  0.320400  0.700400  0.166500  1
  H  H298  1  0.179600  0.799600  0.166500  1
  H  H299  1  0.799600  0.320400  0.166500  1
  H  H300  1  0.700400  0.179600  0.166500  1
  H  H301  1  0.179600  0.700400  0.333500  1
  H  H302  1  0.320400  0.799600  0.333500  1
  H  H303  1  0.700400  0.320400  0.333500  1
  H  H304  1  0.799600  0.179600  0.333500  1
  H  H305  1  0.682200  0.371800  0.818800  1
  H  H306  1  0.817800  0.128200  0.818800  1
  H  H307  1  0.128200  0.682200  0.818800  1
  H  H308  1  0.371800  0.817800  0.818800  1
  H  H309  1  0.817800  0.371800  0.681200  1
  H  H310  1  0.682200  0.128200  0.681200  1
  H  H311  1  0.371800  0.682200  0.681200  1
  H  H312  1  0.128200  0.817800  0.681200  1
  H  H313  1  0.317800  0.628200  0.181200  1
  H  H314  1  0.182200  0.871800  0.181200  1
  H  H315  1  0.871800  0.317800  0.181200  1
  H  H316  1  0.628200  0.182200  0.181200  1
  H  H317  1  0.182200  0.628200  0.318800  1
  H  H318  1  0.317800  0.871800  0.318800  1
  H  H319  1  0.628200  0.317800  0.318800  1
  H  H320  1  0.871800  0.182200  0.318800  1
  H  H321  1  0.675100  0.312800  0.907000  1
  H  H322  1  0.824900  0.187200  0.907000  1
  H  H323  1  0.187200  0.675100  0.907000  1
  H  H324  1  0.312800  0.824900  0.907000  1
  H  H325  1  0.824900  0.312800  0.593000  1
  H  H326  1  0.675100  0.187200  0.593000  1
  H  H327  1  0.312800  0.675100  0.593000  1
  H  H328  1  0.187200  0.824900  0.593000  1
  H  H329  1  0.324900  0.687200  0.093000  1
  H  H330  1  0.175100  0.812800  0.093000  1
  H  H331  1  0.812800  0.324900  0.093000  1
  H  H332  1  0.687200  0.175100  0.093000  1
  H  H333  1  0.175100  0.687200  0.407000  1
  H  H334  1  0.324900  0.812800  0.407000  1
  H  H335  1  0.687200  0.324900  0.407000  1
  H  H336  1  0.812800  0.175100  0.407000  1
  H  H337  1  0.705600  0.379300  0.894200  1
  H  H338  1  0.794400  0.120700  0.894200  1
  H  H339  1  0.120700  0.705600  0.894200  1
  H  H340  1  0.379300  0.794400  0.894200  1
  H  H341  1  0.794400  0.379300  0.605800  1
  H  H342  1  0.705600  0.120700  0.605800  1
  H  H343  1  0.379300  0.705600  0.605800  1
  H  H344  1  0.120700  0.794400  0.605800  1
  H  H345  1  0.294400  0.620700  0.105800  1
  H  H346  1  0.205600  0.879300  0.105800  1
  H  H347  1  0.879300  0.294400  0.105800  1
  H  H348  1  0.620700  0.205600  0.105800  1
  H  H349  1  0.205600  0.620700  0.394200  1
  H  H350  1  0.294400  0.879300  0.394200  1
  H  H351  1  0.620700  0.294400  0.394200  1
  H  H352  1  0.879300  0.205600  0.394200  1
  H  H353  1  0.660600  0.389200  0.954200  1
  H  H354  1  0.839400  0.110800  0.954200  1
  H  H355  1  0.110800  0.660600  0.954200  1
  H  H356  1  0.389200  0.839400  0.954200  1
  H  H357  1  0.839400  0.389200  0.545800  1
  H  H358  1  0.660600  0.110800  0.545800  1
  H  H359  1  0.389200  0.660600  0.545800  1
  H  H360  1  0.110800  0.839400  0.545800  1
  H  H361  1  0.339400  0.610800  0.045800  1
  H  H362  1  0.160600  0.889200  0.045800  1
  H  H363  1  0.889200  0.339400  0.045800  1
  H  H364  1  0.610800  0.160600  0.045800  1
  H  H365  1  0.160600  0.610800  0.454200  1
  H  H366  1  0.339400  0.889200  0.454200  1
  H  H367  1  0.610800  0.339400  0.454200  1
  H  H368  1  0.889200  0.160600  0.454200  1
  H  H369  1  0.594400  0.364200  0.937500  1
  H  H370  1  0.905600  0.135800  0.937500  1
  H  H371  1  0.135800  0.594400  0.937500  1
  H  H372  1  0.364200  0.905600  0.937500  1
  H  H373  1  0.905600  0.364200  0.562500  1
  H  H374  1  0.594400  0.135800  0.562500  1
  H  H375  1  0.364200  0.594400  0.562500  1
  H  H376  1  0.135800  0.905600  0.562500  1
  H  H377  1  0.405600  0.635800  0.062500  1
  H  H378  1  0.094400  0.864200  0.062500  1
  H  H379  1  0.864200  0.405600  0.062500  1
  H  H380  1  0.635800  0.094400  0.062500  1
  H  H381  1  0.094400  0.635800  0.437500  1
  H  H382  1  0.405600  0.864200  0.437500  1
  H  H383  1  0.635800  0.405600  0.437500  1
  H  H384  1  0.864200  0.094400  0.437500  1
  H  H385  1  0.621900  0.431100  0.923400  1
  H  H386  1  0.878100  0.068900  0.923400  1
  H  H387  1  0.068900  0.621900  0.923400  1
  H  H388  1  0.431100  0.878100  0.923400  1
  H  H389  1  0.878100  0.431100  0.576600  1
  H  H390  1  0.621900  0.068900  0.576600  1
  H  H391  1  0.431100  0.621900  0.576600  1
  H  H392  1  0.068900  0.878100  0.576600  1
  H  H393  1  0.378100  0.568900  0.076600  1
  H  H394  1  0.121900  0.931100  0.076600  1
  H  H395  1  0.931100  0.378100  0.076600  1
  H  H396  1  0.568900  0.121900  0.076600  1
  H  H397  1  0.121900  0.568900  0.423400  1
  H  H398  1  0.378100  0.931100  0.423400  1
  H  H399  1  0.568900  0.378100  0.423400  1
  H  H400  1  0.931100  0.121900  0.423400  1
  H  H401  1  0.617500  0.322300  0.647500  1
  H  H402  1  0.882500  0.177700  0.647500  1
  H  H403  1  0.177700  0.617500  0.647500  1
  H  H404  1  0.322300  0.882500  0.647500  1
  H  H405  1  0.882500  0.322300  0.852500  1
  H  H406  1  0.617500  0.177700  0.852500  1
  H  H407  1  0.322300  0.617500  0.852500  1
  H  H408  1  0.177700  0.882500  0.852500  1
  H  H409  1  0.382500  0.677700  0.352500  1
  H  H410  1  0.117500  0.822300  0.352500  1
  H  H411  1  0.822300  0.382500  0.352500  1
  H  H412  1  0.677700  0.117500  0.352500  1
  H  H413  1  0.117500  0.677700  0.147500  1
  H  H414  1  0.382500  0.822300  0.147500  1
  H  H415  1  0.677700  0.382500  0.147500  1
  H  H416  1  0.822300  0.117500  0.147500  1
  H  H417  1  0.667000  0.306300  0.613500  1
  H  H418  1  0.833000  0.193700  0.613500  1
  H  H419  1  0.193700  0.667000  0.613500  1
  H  H420  1  0.306300  0.833000  0.613500  1
  H  H421  1  0.833000  0.306300  0.886500  1
  H  H422  1  0.667000  0.193700  0.886500  1
  H  H423  1  0.306300  0.667000  0.886500  1
  H  H424  1  0.193700  0.833000  0.886500  1
  H  H425  1  0.333000  0.693700  0.386500  1
  H  H426  1  0.167000  0.806300  0.386500  1
  H  H427  1  0.806300  0.333000  0.386500  1
  H  H428  1  0.693700  0.167000  0.386500  1
  H  H429  1  0.167000  0.693700  0.113500  1
  H  H430  1  0.333000  0.806300  0.113500  1
  H  H431  1  0.693700  0.333000  0.113500  1
  H  H432  1  0.806300  0.167000  0.113500  1
  H  H433  1  0.590900  0.325300  0.564000  1
  H  H434  1  0.909100  0.174700  0.564000  1
  H  H435  1  0.174700  0.590900  0.564000  1
  H  H436  1  0.325300  0.909100  0.564000  1
  H  H437  1  0.909100  0.325300  0.936000  1
  H  H438  1  0.590900  0.174700  0.936000  1
  H  H439  1  0.325300  0.590900  0.936000  1
  H  H440  1  0.174700  0.909100  0.936000  1
  H  H441  1  0.409100  0.674700  0.436000  1
  H  H442  1  0.090900  0.825300  0.436000  1
  H  H443  1  0.825300  0.409100  0.436000  1
  H  H444  1  0.674700  0.090900  0.436000  1
  H  H445  1  0.090900  0.674700  0.064000  1
  H  H446  1  0.409100  0.825300  0.064000  1
  H  H447  1  0.674700  0.409100  0.064000  1
  H  H448  1  0.825300  0.090900  0.064000  1
  H  H449  1  0.557200  0.280100  0.594900  1
  H  H450  1  0.942800  0.219900  0.594900  1
  H  H451  1  0.219900  0.557200  0.594900  1
  H  H452  1  0.280100  0.942800  0.594900  1
  H  H453  1  0.942800  0.280100  0.905100  1
  H  H454  1  0.557200  0.219900  0.905100  1
  H  H455  1  0.280100  0.557200  0.905100  1
  H  H456  1  0.219900  0.942800  0.905100  1
  H  H457  1  0.442800  0.719900  0.405100  1
  H  H458  1  0.057200  0.780100  0.405100  1
  H  H459  1  0.780100  0.442800  0.405100  1
  H  H460  1  0.719900  0.057200  0.405100  1
  H  H461  1  0.057200  0.719900  0.094900  1
  H  H462  1  0.442800  0.780100  0.094900  1
  H  H463  1  0.719900  0.442800  0.094900  1
  H  H464  1  0.780100  0.057200  0.094900  1
  H  H465  1  0.497100  0.369300  0.620000  1
  H  H466  1  0.002900  0.130700  0.620000  1
  H  H467  1  0.130700  0.497100  0.620000  1
  H  H468  1  0.369300  0.002900  0.620000  1
  H  H469  1  0.002900  0.369300  0.880000  1
  H  H470  1  0.497100  0.130700  0.880000  1
  H  H471  1  0.369300  0.497100  0.880000  1
  H  H472  1  0.130700  0.002900  0.880000  1
  H  H473  1  0.502900  0.630700  0.380000  1
  H  H474  1  0.997100  0.869300  0.380000  1
  H  H475  1  0.869300  0.502900  0.380000  1
  H  H476  1  0.630700  0.997100  0.380000  1
  H  H477  1  0.997100  0.630700  0.120000  1
  H  H478  1  0.502900  0.869300  0.120000  1
  H  H479  1  0.630700  0.502900  0.120000  1
  H  H480  1  0.869300  0.997100  0.120000  1
  H  H481  1  0.531500  0.415200  0.589800  1
  H  H482  1  0.968500  0.084800  0.589800  1
  H  H483  1  0.084800  0.531500  0.589800  1
  H  H484  1  0.415200  0.968500  0.589800  1
  H  H485  1  0.968500  0.415200  0.910200  1
  H  H486  1  0.531500  0.084800  0.910200  1
  H  H487  1  0.415200  0.531500  0.910200  1
  H  H488  1  0.084800  0.968500  0.910200  1
  H  H489  1  0.468500  0.584800  0.410200  1
  H  H490  1  0.031500  0.915200  0.410200  1
  H  H491  1  0.915200  0.468500  0.410200  1
  H  H492  1  0.584800  0.031500  0.410200  1
  H  H493  1  0.031500  0.584800  0.089800  1
  H  H494  1  0.468500  0.915200  0.089800  1
  H  H495  1  0.584800  0.468500  0.089800  1
  H  H496  1  0.915200  0.031500  0.089800  1
  H  H497  1  0.424200  0.391200  0.571500  1
  H  H498  1  0.075800  0.108800  0.571500  1
  H  H499  1  0.108800  0.424200  0.571500  1
  H  H500  1  0.391200  0.075800  0.571500  1
  H  H501  1  0.075800  0.391200  0.928500  1
  H  H502  1  0.424200  0.108800  0.928500  1
  H  H503  1  0.391200  0.424200  0.928500  1
  H  H504  1  0.108800  0.075800  0.928500  1
  H  H505  1  0.575800  0.608800  0.428500  1
  H  H506  1  0.924200  0.891200  0.428500  1
  H  H507  1  0.891200  0.575800  0.428500  1
  H  H508  1  0.608800  0.924200  0.428500  1
  H  H509  1  0.924200  0.608800  0.071500  1
  H  H510  1  0.575800  0.891200  0.071500  1
  H  H511  1  0.608800  0.575800  0.071500  1
  H  H512  1  0.891200  0.924200  0.071500  1
  H  H513  1  0.443500  0.318600  0.566200  1
  H  H514  1  0.056500  0.181400  0.566200  1
  H  H515  1  0.181400  0.443500  0.566200  1
  H  H516  1  0.318600  0.056500  0.566200  1
  H  H517  1  0.056500  0.318600  0.933800  1
  H  H518  1  0.443500  0.181400  0.933800  1
  H  H519  1  0.318600  0.443500  0.933800  1
  H  H520  1  0.181400  0.056500  0.933800  1
  H  H521  1  0.556500  0.681400  0.433800  1
  H  H522  1  0.943500  0.818600  0.433800  1
  H  H523  1  0.818600  0.556500  0.433800  1
  H  H524  1  0.681400  0.943500  0.433800  1
  H  H525  1  0.943500  0.681400  0.066200  1
  H  H526  1  0.556500  0.818600  0.066200  1
  H  H527  1  0.681400  0.556500  0.066200  1
  H  H528  1  0.818600  0.943500  0.066200  1
  H  H529  1  0.510000  0.345200  0.511100  1
  H  H530  1  0.990000  0.154800  0.511100  1
  H  H531  1  0.154800  0.510000  0.511100  1
  H  H532  1  0.345200  0.990000  0.511100  1
  H  H533  1  0.990000  0.345200  0.988900  1
  H  H534  1  0.510000  0.154800  0.988900  1
  H  H535  1  0.345200  0.510000  0.988900  1
  H  H536  1  0.154800  0.990000  0.988900  1
  H  H537  1  0.490000  0.654800  0.488900  1
  H  H538  1  0.010000  0.845200  0.488900  1
  H  H539  1  0.845200  0.490000  0.488900  1
  H  H540  1  0.654800  0.010000  0.488900  1
  H  H541  1  0.010000  0.654800  0.011100  1
  H  H542  1  0.490000  0.845200  0.011100  1
  H  H543  1  0.654800  0.490000  0.011100  1
  H  H544  1  0.845200  0.010000  0.011100  1
  H  H545  1  0.439200  0.368000  0.502900  1
  H  H546  1  0.060800  0.132000  0.502900  1
  H  H547  1  0.132000  0.439200  0.502900  1
  H  H548  1  0.368000  0.060800  0.502900  1
  H  H549  1  0.060800  0.368000  0.997100  1
  H  H550  1  0.439200  0.132000  0.997100  1
  H  H551  1  0.368000  0.439200  0.997100  1
  H  H552  1  0.132000  0.060800  0.997100  1
  H  H553  1  0.560800  0.632000  0.497100  1
  H  H554  1  0.939200  0.868000  0.497100  1
  H  H555  1  0.868000  0.560800  0.497100  1
  H  H556  1  0.632000  0.939200  0.497100  1
  H  H557  1  0.939200  0.632000  0.002900  1
  H  H558  1  0.560800  0.868000  0.002900  1
  H  H559  1  0.632000  0.560800  0.002900  1
  H  H560  1  0.868000  0.939200  0.002900  1
  H  H561  1  0.539700  0.452000  0.525900  1
  H  H562  1  0.960300  0.048000  0.525900  1
  H  H563  1  0.048000  0.539700  0.525900  1
  H  H564  1  0.452000  0.960300  0.525900  1
  H  H565  1  0.960300  0.452000  0.974100  1
  H  H566  1  0.539700  0.048000  0.974100  1
  H  H567  1  0.452000  0.539700  0.974100  1
  H  H568  1  0.048000  0.960300  0.974100  1
  H  H569  1  0.460300  0.548000  0.474100  1
  H  H570  1  0.039700  0.952000  0.474100  1
  H  H571  1  0.952000  0.460300  0.474100  1
  H  H572  1  0.548000  0.039700  0.474100  1
  H  H573  1  0.039700  0.548000  0.025900  1
  H  H574  1  0.460300  0.952000  0.025900  1
  H  H575  1  0.548000  0.460300  0.025900  1
  H  H576  1  0.952000  0.039700  0.025900  1
  H  H577  1  0.468800  0.474700  0.517400  1
  H  H578  1  0.031200  0.025300  0.517400  1
  H  H579  1  0.025300  0.468800  0.517400  1
  H  H580  1  0.474700  0.031200  0.517400  1
  H  H581  1  0.031200  0.474700  0.982600  1
  H  H582  1  0.468800  0.025300  0.982600  1
  H  H583  1  0.474700  0.468800  0.982600  1
  H  H584  1  0.025300  0.031200  0.982600  1
  H  H585  1  0.531200  0.525300  0.482600  1
  H  H586  1  0.968800  0.974700  0.482600  1
  H  H587  1  0.974700  0.531200  0.482600  1
  H  H588  1  0.525300  0.968800  0.482600  1
  H  H589  1  0.968800  0.525300  0.017400  1
  H  H590  1  0.531200  0.974700  0.017400  1
  H  H591  1  0.525300  0.531200  0.017400  1
  H  H592  1  0.974700  0.968800  0.017400  1
  H  H593  1  0.511500  0.447500  0.482600  1
  H  H594  1  0.988500  0.052500  0.482600  1
  H  H595  1  0.052500  0.511500  0.482600  1
  H  H596  1  0.447500  0.988500  0.482600  1
  H  H597  1  0.988500  0.447500  0.017400  1
  H  H598  1  0.511500  0.052500  0.017400  1
  H  H599  1  0.447500  0.511500  0.017400  1
  H  H600  1  0.052500  0.988500  0.017400  1
  H  H601  1  0.488500  0.552500  0.517400  1
  H  H602  1  0.011500  0.947500  0.517400  1
  H  H603  1  0.947500  0.488500  0.517400  1
  H  H604  1  0.552500  0.011500  0.517400  1
  H  H605  1  0.011500  0.552500  0.982600  1
  H  H606  1  0.488500  0.947500  0.982600  1
  H  H607  1  0.552500  0.488500  0.982600  1
  H  H608  1  0.947500  0.011500  0.982600  1
  H  H609  1  0.657600  0.574700  0.698200  1
  H  H610  1  0.842400  0.925300  0.698200  1
  H  H611  1  0.925300  0.657600  0.698200  1
  H  H612  1  0.574700  0.842400  0.698200  1
  H  H613  1  0.842400  0.574700  0.801800  1
  H  H614  1  0.657600  0.925300  0.801800  1
  H  H615  1  0.574700  0.657600  0.801800  1
  H  H616  1  0.925300  0.842400  0.801800  1
  H  H617  1  0.342400  0.425300  0.301800  1
  H  H618  1  0.157600  0.074700  0.301800  1
  H  H619  1  0.074700  0.342400  0.301800  1
  H  H620  1  0.425300  0.157600  0.301800  1
  H  H621  1  0.157600  0.425300  0.198200  1
  H  H622  1  0.342400  0.074700  0.198200  1
  H  H623  1  0.425300  0.342400  0.198200  1
  H  H624  1  0.074700  0.157600  0.198200  1
  H  H625  1  0.662100  0.402800  0.751900  1
  H  H626  1  0.837900  0.097200  0.751900  1
  H  H627  1  0.097200  0.662100  0.751900  1
  H  H628  1  0.402800  0.837900  0.751900  1
  H  H629  1  0.837900  0.402800  0.748100  1
  H  H630  1  0.662100  0.097200  0.748100  1
  H  H631  1  0.402800  0.662100  0.748100  1
  H  H632  1  0.097200  0.837900  0.748100  1
  H  H633  1  0.337900  0.597200  0.248100  1
  H  H634  1  0.162100  0.902800  0.248100  1
  H  H635  1  0.902800  0.337900  0.248100  1
  H  H636  1  0.597200  0.162100  0.248100  1
  H  H637  1  0.162100  0.597200  0.251900  1
  H  H638  1  0.337900  0.902800  0.251900  1
  H  H639  1  0.597200  0.337900  0.251900  1
  H  H640  1  0.902800  0.162100  0.251900  1
  H  H641  1  0.653900  0.353500  0.691300  1
  H  H642  1  0.846100  0.146500  0.691300  1
  H  H643  1  0.146500  0.653900  0.691300  1
  H  H644  1  0.353500  0.846100  0.691300  1
  H  H645  1  0.846100  0.353500  0.808700  1
  H  H646  1  0.653900  0.146500  0.808700  1
  H  H647  1  0.353500  0.653900  0.808700  1
  H  H648  1  0.146500  0.846100  0.808700  1
  H  H649  1  0.346100  0.646500  0.308700  1
  H  H650  1  0.153900  0.853500  0.308700  1
  H  H651  1  0.853500  0.346100  0.308700  1
  H  H652  1  0.646500  0.153900  0.308700  1
  H  H653  1  0.153900  0.646500  0.191300  1
  H  H654  1  0.346100  0.853500  0.191300  1
  H  H655  1  0.646500  0.346100  0.191300  1
  H  H656  1  0.853500  0.153900  0.191300  1
  H  H657  1  0.630000  0.314100  0.642600  1
  H  H658  1  0.870000  0.185900  0.642600  1
  H  H659  1  0.185900  0.630000  0.642600  1
  H  H660  1  0.314100  0.870000  0.642600  1
  H  H661  1  0.870000  0.314100  0.857400  1
  H  H662  1  0.630000  0.185900  0.857400  1
  H  H663  1  0.314100  0.630000  0.857400  1
  H  H664  1  0.185900  0.870000  0.857400  1
  H  H665  1  0.370000  0.685900  0.357400  1
  H  H666  1  0.130000  0.814100  0.357400  1
  H  H667  1  0.814100  0.370000  0.357400  1
  H  H668  1  0.685900  0.130000  0.357400  1
  H  H669  1  0.130000  0.685900  0.142600  1
  H  H670  1  0.370000  0.814100  0.142600  1
  H  H671  1  0.685900  0.370000  0.142600  1
  H  H672  1  0.814100  0.130000  0.142600  1
  H  H673  1  0.632700  0.318300  0.595700  1
  H  H674  1  0.867300  0.181700  0.595700  1
  H  H675  1  0.181700  0.632700  0.595700  1
  H  H676  1  0.318300  0.867300  0.595700  1
  H  H677  1  0.867300  0.318300  0.904300  1
  H  H678  1  0.632700  0.181700  0.904300  1
  H  H679  1  0.318300  0.632700  0.904300  1
  H  H680  1  0.181700  0.867300  0.904300  1
  H  H681  1  0.367300  0.681700  0.404300  1
  H  H682  1  0.132700  0.818300  0.404300  1
  H  H683  1  0.818300  0.367300  0.404300  1
  H  H684  1  0.681700  0.132700  0.404300  1
  H  H685  1  0.132700  0.681700  0.095700  1
  H  H686  1  0.367300  0.818300  0.095700  1
  H  H687  1  0.681700  0.367300  0.095700  1
  H  H688  1  0.818300  0.132700  0.095700  1
  H  H689  1  0.520400  0.378500  0.609600  1
  H  H690  1  0.979600  0.121500  0.609600  1
  H  H691  1  0.121500  0.520400  0.609600  1
  H  H692  1  0.378500  0.979600  0.609600  1
  H  H693  1  0.979600  0.378500  0.890400  1
  H  H694  1  0.520400  0.121500  0.890400  1
  H  H695  1  0.378500  0.520400  0.890400  1
  H  H696  1  0.121500  0.979600  0.890400  1
  H  H697  1  0.479600  0.621500  0.390400  1
  H  H698  1  0.020400  0.878500  0.390400  1
  H  H699  1  0.878500  0.479600  0.390400  1
  H  H700  1  0.621500  0.020400  0.390400  1
  H  H701  1  0.020400  0.621500  0.109600  1
  H  H702  1  0.479600  0.878500  0.109600  1
  H  H703  1  0.621500  0.479600  0.109600  1
  H  H704  1  0.878500  0.020400  0.109600  1
  H  H705  1  0.521800  0.303700  0.599800  1
  H  H706  1  0.978200  0.196300  0.599800  1
  H  H707  1  0.196300  0.521800  0.599800  1
  H  H708  1  0.303700  0.978200  0.599800  1
  H  H709  1  0.978200  0.303700  0.900200  1
  H  H710  1  0.521800  0.196300  0.900200  1
  H  H711  1  0.303700  0.521800  0.900200  1
  H  H712  1  0.196300  0.978200  0.900200  1
  H  H713  1  0.478200  0.696300  0.400200  1
  H  H714  1  0.021800  0.803700  0.400200  1
  H  H715  1  0.803700  0.478200  0.400200  1
  H  H716  1  0.696300  0.021800  0.400200  1
  H  H717  1  0.021800  0.696300  0.099800  1
  H  H718  1  0.478200  0.803700  0.099800  1
  H  H719  1  0.696300  0.478200  0.099800  1
  H  H720  1  0.803700  0.021800  0.099800  1
  H  H721  1  0.522800  0.275100  0.665300  1
  H  H722  1  0.977200  0.224900  0.665300  1
  H  H723  1  0.224900  0.522800  0.665300  1
  H  H724  1  0.275100  0.977200  0.665300  1
  H  H725  1  0.977200  0.275100  0.834700  1
  H  H726  1  0.522800  0.224900  0.834700  1
  H  H727  1  0.275100  0.522800  0.834700  1
  H  H728  1  0.224900  0.977200  0.834700  1
  H  H729  1  0.477200  0.724900  0.334700  1
  H  H730  1  0.022800  0.775100  0.334700  1
  H  H731  1  0.775100  0.477200  0.334700  1
  H  H732  1  0.724900  0.022800  0.334700  1
  H  H733  1  0.022800  0.724900  0.165300  1
  H  H734  1  0.477200  0.775100  0.165300  1
  H  H735  1  0.724900  0.477200  0.165300  1
  H  H736  1  0.775100  0.022800  0.165300  1
  H  H737  1  0.552900  0.340800  0.678600  1
  H  H738  1  0.947100  0.159200  0.678600  1
  H  H739  1  0.159200  0.552900  0.678600  1
  H  H740  1  0.340800  0.947100  0.678600  1
  H  H741  1  0.947100  0.340800  0.821400  1
  H  H742  1  0.552900  0.159200  0.821400  1
  H  H743  1  0.340800  0.552900  0.821400  1
  H  H744  1  0.159200  0.947100  0.821400  1
  H  H745  1  0.447100  0.659200  0.321400  1
  H  H746  1  0.052900  0.840800  0.321400  1
  H  H747  1  0.840800  0.447100  0.321400  1
  H  H748  1  0.659200  0.052900  0.321400  1
  H  H749  1  0.052900  0.659200  0.178600  1
  H  H750  1  0.447100  0.840800  0.178600  1
  H  H751  1  0.659200  0.447100  0.178600  1
  H  H752  1  0.840800  0.052900  0.178600  1
  H  H753  1  0.419300  0.321600  0.662900  1
  H  H754  1  0.080700  0.178400  0.662900  1
  H  H755  1  0.178400  0.419300  0.662900  1
  H  H756  1  0.321600  0.080700  0.662900  1
  H  H757  1  0.080700  0.321600  0.837100  1
  H  H758  1  0.419300  0.178400  0.837100  1
  H  H759  1  0.321600  0.419300  0.837100  1
  H  H760  1  0.178400  0.080700  0.837100  1
  H  H761  1  0.580700  0.678400  0.337100  1
  H  H762  1  0.919300  0.821600  0.337100  1
  H  H763  1  0.821600  0.580700  0.337100  1
  H  H764  1  0.678400  0.919300  0.337100  1
  H  H765  1  0.919300  0.678400  0.162900  1
  H  H766  1  0.580700  0.821600  0.162900  1
  H  H767  1  0.678400  0.580700  0.162900  1
  H  H768  1  0.821600  0.919300  0.162900  1
  H  H769  1  0.448300  0.389900  0.672900  1
  H  H770  1  0.051700  0.110100  0.672900  1
  H  H771  1  0.110100  0.448300  0.672900  1
  H  H772  1  0.389900  0.051700  0.672900  1
  H  H773  1  0.051700  0.389900  0.827100  1
  H  H774  1  0.448300  0.110100  0.827100  1
  H  H775  1  0.389900  0.448300  0.827100  1
  H  H776  1  0.110100  0.051700  0.827100  1
  H  H777  1  0.551700  0.610100  0.327100  1
  H  H778  1  0.948300  0.889900  0.327100  1
  H  H779  1  0.889900  0.551700  0.327100  1
  H  H780  1  0.610100  0.948300  0.327100  1
  H  H781  1  0.948300  0.610100  0.172900  1
  H  H782  1  0.551700  0.889900  0.172900  1
  H  H783  1  0.610100  0.551700  0.172900  1
  H  H784  1  0.889900  0.948300  0.172900  1
  H  H785  1  0.412900  0.298600  0.727600  1
  H  H786  1  0.087100  0.201400  0.727600  1
  H  H787  1  0.201400  0.412900  0.727600  1
  H  H788  1  0.298600  0.087100  0.727600  1
  H  H789  1  0.087100  0.298600  0.772400  1
  H  H790  1  0.412900  0.201400  0.772400  1
  H  H791  1  0.298600  0.412900  0.772400  1
  H  H792  1  0.201400  0.087100  0.772400  1
  H  H793  1  0.587100  0.701400  0.272400  1
  H  H794  1  0.912900  0.798600  0.272400  1
  H  H795  1  0.798600  0.587100  0.272400  1
  H  H796  1  0.701400  0.912900  0.272400  1
  H  H797  1  0.912900  0.701400  0.227600  1
  H  H798  1  0.587100  0.798600  0.227600  1
  H  H799  1  0.701400  0.587100  0.227600  1
  H  H800  1  0.798600  0.912900  0.227600  1
  H  H801  1  0.440000  0.367700  0.737600  1
  H  H802  1  0.060000  0.132300  0.737600  1
  H  H803  1  0.132300  0.440000  0.737600  1
  H  H804  1  0.367700  0.060000  0.737600  1
  H  H805  1  0.060000  0.367700  0.762400  1
  H  H806  1  0.440000  0.132300  0.762400  1
  H  H807  1  0.367700  0.440000  0.762400  1
  H  H808  1  0.132300  0.060000  0.762400  1
  H  H809  1  0.560000  0.632300  0.262400  1
  H  H810  1  0.940000  0.867700  0.262400  1
  H  H811  1  0.867700  0.560000  0.262400  1
  H  H812  1  0.632300  0.940000  0.262400  1
  H  H813  1  0.940000  0.632300  0.237600  1
  H  H814  1  0.560000  0.867700  0.237600  1
  H  H815  1  0.632300  0.560000  0.237600  1
  H  H816  1  0.867700  0.940000  0.237600  1
  H  H817  1  0.512700  0.290800  0.765700  1
  H  H818  1  0.987300  0.209200  0.765700  1
  H  H819  1  0.209200  0.512700  0.765700  1
  H  H820  1  0.290800  0.987300  0.765700  1
  H  H821  1  0.987300  0.290800  0.734300  1
  H  H822  1  0.512700  0.209200  0.734300  1
  H  H823  1  0.290800  0.512700  0.734300  1
  H  H824  1  0.209200  0.987300  0.734300  1
  H  H825  1  0.487300  0.709200  0.234300  1
  H  H826  1  0.012700  0.790800  0.234300  1
  H  H827  1  0.790800  0.487300  0.234300  1
  H  H828  1  0.709200  0.012700  0.234300  1
  H  H829  1  0.012700  0.709200  0.265700  1
  H  H830  1  0.487300  0.790800  0.265700  1
  H  H831  1  0.709200  0.487300  0.265700  1
  H  H832  1  0.790800  0.012700  0.265700  1
  H  H833  1  0.549400  0.325300  0.730800  1
  H  H834  1  0.950600  0.174700  0.730800  1
  H  H835  1  0.174700  0.549400  0.730800  1
  H  H836  1  0.325300  0.950600  0.730800  1
  H  H837  1  0.950600  0.325300  0.769200  1
  H  H838  1  0.549400  0.174700  0.769200  1
  H  H839  1  0.325300  0.549400  0.769200  1
  H  H840  1  0.174700  0.950600  0.769200  1
  H  H841  1  0.450600  0.674700  0.269200  1
  H  H842  1  0.049400  0.825300  0.269200  1
  H  H843  1  0.825300  0.450600  0.269200  1
  H  H844  1  0.674700  0.049400  0.269200  1
  H  H845  1  0.049400  0.674700  0.230800  1
  H  H846  1  0.450600  0.825300  0.230800  1
  H  H847  1  0.674700  0.450600  0.230800  1
  H  H848  1  0.825300  0.049400  0.230800  1
  H  H849  1  0.520100  0.256100  0.724400  1
  H  H850  1  0.979900  0.243900  0.724400  1
  H  H851  1  0.243900  0.520100  0.724400  1
  H  H852  1  0.256100  0.979900  0.724400  1
  H  H853  1  0.979900  0.256100  0.775600  1
  H  H854  1  0.520100  0.243900  0.775600  1
  H  H855  1  0.256100  0.520100  0.775600  1
  H  H856  1  0.243900  0.979900  0.775600  1
  H  H857  1  0.479900  0.743900  0.275600  1
  H  H858  1  0.020100  0.756100  0.275600  1
  H  H859  1  0.756100  0.479900  0.275600  1
  H  H860  1  0.743900  0.020100  0.275600  1
  H  H861  1  0.020100  0.743900  0.224400  1
  H  H862  1  0.479900  0.756100  0.224400  1
  H  H863  1  0.743900  0.479900  0.224400  1
  H  H864  1  0.756100  0.020100  0.224400  1
  H  H865  1  0.667700  0.570200  0.542600  1
  H  H866  1  0.832300  0.929800  0.542600  1
  H  H867  1  0.929800  0.667700  0.542600  1
  H  H868  1  0.570200  0.832300  0.542600  1
  H  H869  1  0.832300  0.570200  0.957400  1
  H  H870  1  0.667700  0.929800  0.957400  1
  H  H871  1  0.570200  0.667700  0.957400  1
  H  H872  1  0.929800  0.832300  0.957400  1
  H  H873  1  0.332300  0.429800  0.457400  1
  H  H874  1  0.167700  0.070200  0.457400  1
  H  H875  1  0.070200  0.332300  0.457400  1
  H  H876  1  0.429800  0.167700  0.457400  1
  H  H877  1  0.167700  0.429800  0.042600  1
  H  H878  1  0.332300  0.070200  0.042600  1
  H  H879  1  0.429800  0.332300  0.042600  1
  H  H880  1  0.070200  0.167700  0.042600  1
  H  H881  1  0.694000  0.393600  0.498800  1
  H  H882  1  0.806000  0.106400  0.498800  1
  H  H883  1  0.106400  0.694000  0.498800  1
  H  H884  1  0.393600  0.806000  0.498800  1
  H  H885  1  0.806000  0.393600  0.001200  1
  H  H886  1  0.694000  0.106400  0.001200  1
  H  H887  1  0.393600  0.694000  0.001200  1
  H  H888  1  0.106400  0.806000  0.001200  1
  H  H889  1  0.306000  0.606400  0.501200  1
  H  H890  1  0.194000  0.893600  0.501200  1
  H  H891  1  0.893600  0.306000  0.501200  1
  H  H892  1  0.606400  0.194000  0.501200  1
  H  H893  1  0.194000  0.606400  0.998800  1
  H  H894  1  0.306000  0.893600  0.998800  1
  H  H895  1  0.606400  0.306000  0.998800  1
  H  H896  1  0.893600  0.194000  0.998800  1
  H  H897  1  0.675500  0.350500  0.559300  1
  H  H898  1  0.824500  0.149500  0.559300  1
  H  H899  1  0.149500  0.675500  0.559300  1
  H  H900  1  0.350500  0.824500  0.559300  1
  H  H901  1  0.824500  0.350500  0.940700  1
  H  H902  1  0.675500  0.149500  0.940700  1
  H  H903  1  0.350500  0.675500  0.940700  1
  H  H904  1  0.149500  0.824500  0.940700  1
  H  H905  1  0.324500  0.649500  0.440700  1
  H  H906  1  0.175500  0.850500  0.440700  1
  H  H907  1  0.850500  0.324500  0.440700  1
  H  H908  1  0.649500  0.175500  0.440700  1
  H  H909  1  0.175500  0.649500  0.059300  1
  H  H910  1  0.324500  0.850500  0.059300  1
  H  H911  1  0.649500  0.324500  0.059300  1
  H  H912  1  0.850500  0.175500  0.059300  1
  H  H913  1  0.534400  0.450500  0.825500  1
  H  H914  1  0.965600  0.049500  0.825500  1
  H  H915  1  0.049500  0.534400  0.825500  1
  H  H916  1  0.450500  0.965600  0.825500  1
  H  H917  1  0.965600  0.450500  0.674500  1
  H  H918  1  0.534400  0.049500  0.674500  1
  H  H919  1  0.450500  0.534400  0.674500  1
  H  H920  1  0.049500  0.965600  0.674500  1
  H  H921  1  0.465600  0.549500  0.174500  1
  H  H922  1  0.034400  0.950500  0.174500  1
  H  H923  1  0.950500  0.465600  0.174500  1
  H  H924  1  0.549500  0.034400  0.174500  1
  H  H925  1  0.034400  0.549500  0.325500  1
  H  H926  1  0.465600  0.950500  0.325500  1
  H  H927  1  0.549500  0.465600  0.325500  1
  H  H928  1  0.950500  0.034400  0.325500  1
  H  H929  1  0.525100  0.397800  0.792500  1
  H  H930  1  0.974900  0.102200  0.792500  1
  H  H931  1  0.102200  0.525100  0.792500  1
  H  H932  1  0.397800  0.974900  0.792500  1
  H  H933  1  0.974900  0.397800  0.707500  1
  H  H934  1  0.525100  0.102200  0.707500  1
  H  H935  1  0.397800  0.525100  0.707500  1
  H  H936  1  0.102200  0.974900  0.707500  1
  H  H937  1  0.474900  0.602200  0.207500  1
  H  H938  1  0.025100  0.897800  0.207500  1
  H  H939  1  0.897800  0.474900  0.207500  1
  H  H940  1  0.602200  0.025100  0.207500  1
  H  H941  1  0.025100  0.602200  0.292500  1
  H  H942  1  0.474900  0.897800  0.292500  1
  H  H943  1  0.602200  0.474900  0.292500  1
  H  H944  1  0.897800  0.025100  0.292500  1
  H  H945  1  0.573100  0.455300  0.785400  1
  H  H946  1  0.926900  0.044700  0.785400  1
  H  H947  1  0.044700  0.573100  0.785400  1
  H  H948  1  0.455300  0.926900  0.785400  1
  H  H949  1  0.926900  0.455300  0.714600  1
  H  H950  1  0.573100  0.044700  0.714600  1
  H  H951  1  0.455300  0.573100  0.714600  1
  H  H952  1  0.044700  0.926900  0.714600  1
  H  H953  1  0.426900  0.544700  0.214600  1
  H  H954  1  0.073100  0.955300  0.214600  1
  H  H955  1  0.955300  0.426900  0.214600  1
  H  H956  1  0.544700  0.073100  0.214600  1
  H  H957  1  0.073100  0.544700  0.285400  1
  H  H958  1  0.426900  0.955300  0.285400  1
  H  H959  1  0.544700  0.426900  0.285400  1
  H  H960  1  0.955300  0.073100  0.285400  1
  H  H961  1  0.647600  0.404300  0.811500  1
  H  H962  1  0.852400  0.095700  0.811500  1
  H  H963  1  0.095700  0.647600  0.811500  1
  H  H964  1  0.404300  0.852400  0.811500  1
  H  H965  1  0.852400  0.404300  0.688500  1
  H  H966  1  0.647600  0.095700  0.688500  1
  H  H967  1  0.404300  0.647600  0.688500  1
  H  H968  1  0.095700  0.852400  0.688500  1
  H  H969  1  0.352400  0.595700  0.188500  1
  H  H970  1  0.147600  0.904300  0.188500  1
  H  H971  1  0.904300  0.352400  0.188500  1
  H  H972  1  0.595700  0.147600  0.188500  1
  H  H973  1  0.147600  0.595700  0.311500  1
  H  H974  1  0.352400  0.904300  0.311500  1
  H  H975  1  0.595700  0.352400  0.311500  1
  H  H976  1  0.904300  0.147600  0.311500  1
  H  H977  1  0.601700  0.344200  0.814200  1
  H  H978  1  0.898300  0.155800  0.814200  1
  H  H979  1  0.155800  0.601700  0.814200  1
  H  H980  1  0.344200  0.898300  0.814200  1
  H  H981  1  0.898300  0.344200  0.685800  1
  H  H982  1  0.601700  0.155800  0.685800  1
  H  H983  1  0.344200  0.601700  0.685800  1
  H  H984  1  0.155800  0.898300  0.685800  1
  H  H985  1  0.398300  0.655800  0.185800  1
  H  H986  1  0.101700  0.844200  0.185800  1
  H  H987  1  0.844200  0.398300  0.185800  1
  H  H988  1  0.655800  0.101700  0.185800  1
  H  H989  1  0.101700  0.655800  0.314200  1
  H  H990  1  0.398300  0.844200  0.314200  1
  H  H991  1  0.655800  0.398300  0.314200  1
  H  H992  1  0.844200  0.101700  0.314200  1
  H  H993  1  0.666667  0.315000  0.858800  1
  H  H994  1  0.833333  0.185000  0.858800  1
  H  H995  1  0.185000  0.666667  0.858800  1
  H  H996  1  0.315000  0.833333  0.858800  1
  H  H997  1  0.833333  0.315000  0.641200  1
  H  H998  1  0.666667  0.185000  0.641200  1
  H  H999  1  0.315000  0.666667  0.641200  1
  H  H1000  1  0.185000  0.833333  0.641200  1
  H  H1001  1  0.333333  0.685000  0.141200  1
  H  H1002  1  0.166667  0.815000  0.141200  1
  H  H1003  1  0.815000  0.333333  0.141200  1
  H  H1004  1  0.685000  0.166667  0.141200  1
  H  H1005  1  0.166667  0.685000  0.358800  1
  H  H1006  1  0.333333  0.815000  0.358800  1
  H  H1007  1  0.685000  0.333333  0.358800  1
  H  H1008  1  0.815000  0.166667  0.358800  1
  H  H1009  1  0.702900  0.375700  0.876200  1
  H  H1010  1  0.797100  0.124300  0.876200  1
  H  H1011  1  0.124300  0.702900  0.876200  1
  H  H1012  1  0.375700  0.797100  0.876200  1
  H  H1013  1  0.797100  0.375700  0.623800  1
  H  H1014  1  0.702900  0.124300  0.623800  1
  H  H1015  1  0.375700  0.702900  0.623800  1
  H  H1016  1  0.124300  0.797100  0.623800  1
  H  H1017  1  0.297100  0.624300  0.123800  1
  H  H1018  1  0.202900  0.875700  0.123800  1
  H  H1019  1  0.875700  0.297100  0.123800  1
  H  H1020  1  0.624300  0.202900  0.123800  1
  H  H1021  1  0.202900  0.624300  0.376200  1
  H  H1022  1  0.297100  0.875700  0.376200  1
  H  H1023  1  0.624300  0.297100  0.376200  1
  H  H1024  1  0.875700  0.202900  0.376200  1
  H  H1025  1  0.688300  0.310300  0.928000  1
  H  H1026  1  0.811700  0.189700  0.928000  1
  H  H1027  1  0.189700  0.688300  0.928000  1
  H  H1028  1  0.310300  0.811700  0.928000  1
  H  H1029  1  0.811700  0.310300  0.572000  1
  H  H1030  1  0.688300  0.189700  0.572000  1
  H  H1031  1  0.310300  0.688300  0.572000  1
  H  H1032  1  0.189700  0.811700  0.572000  1
  H  H1033  1  0.311700  0.689700  0.072000  1
  H  H1034  1  0.188300  0.810300  0.072000  1
  H  H1035  1  0.810300  0.311700  0.072000  1
  H  H1036  1  0.689700  0.188300  0.072000  1
  H  H1037  1  0.188300  0.689700  0.428000  1
  H  H1038  1  0.311700  0.810300  0.428000  1
  H  H1039  1  0.689700  0.311700  0.428000  1
  H  H1040  1  0.810300  0.188300  0.428000  1
  H  H1041  1  0.616100  0.297200  0.916300  1
  H  H1042  1  0.883900  0.202800  0.916300  1
  H  H1043  1  0.202800  0.616100  0.916300  1
  H  H1044  1  0.297200  0.883900  0.916300  1
  H  H1045  1  0.883900  0.297200  0.583700  1
  H  H1046  1  0.616100  0.202800  0.583700  1
  H  H1047  1  0.297200  0.616100  0.583700  1
  H  H1048  1  0.202800  0.883900  0.583700  1
  H  H1049  1  0.383900  0.702800  0.083700  1
  H  H1050  1  0.116100  0.797200  0.083700  1
  H  H1051  1  0.797200  0.383900  0.083700  1
  H  H1052  1  0.702800  0.116100  0.083700  1
  H  H1053  1  0.116100  0.702800  0.416300  1
  H  H1054  1  0.383900  0.797200  0.416300  1
  H  H1055  1  0.702800  0.383900  0.416300  1
  H  H1056  1  0.797200  0.116100  0.416300  1
  H  H1057  1  0.636400  0.364900  0.933100  1
  H  H1058  1  0.863600  0.135100  0.933100  1
  H  H1059  1  0.135100  0.636400  0.933100  1
  H  H1060  1  0.364900  0.863600  0.933100  1
  H  H1061  1  0.863600  0.364900  0.566900  1
  H  H1062  1  0.636400  0.135100  0.566900  1
  H  H1063  1  0.364900  0.636400  0.566900  1
  H  H1064  1  0.135100  0.863600  0.566900  1
  H  H1065  1  0.363600  0.635100  0.066900  1
  H  H1066  1  0.136400  0.864900  0.066900  1
  H  H1067  1  0.864900  0.363600  0.066900  1
  H  H1068  1  0.635100  0.136400  0.066900  1
  H  H1069  1  0.136400  0.635100  0.433100  1
  H  H1070  1  0.363600  0.864900  0.433100  1
  H  H1071  1  0.635100  0.363600  0.433100  1
  H  H1072  1  0.864900  0.136400  0.433100  1
  H  H1073  1  0.555200  0.461300  0.966300  1
  H  H1074  1  0.944800  0.038700  0.966300  1
  H  H1075  1  0.038700  0.555200  0.966300  1
  H  H1076  1  0.461300  0.944800  0.966300  1
  H  H1077  1  0.944800  0.461300  0.533700  1
  H  H1078  1  0.555200  0.038700  0.533700  1
  H  H1079  1  0.461300  0.555200  0.533700  1
  H  H1080  1  0.038700  0.944800  0.533700  1
  H  H1081  1  0.444800  0.538700  0.033700  1
  H  H1082  1  0.055200  0.961300  0.033700  1
  H  H1083  1  0.961300  0.444800  0.033700  1
  H  H1084  1  0.538700  0.055200  0.033700  1
  H  H1085  1  0.055200  0.538700  0.466300  1
  H  H1086  1  0.444800  0.961300  0.466300  1
  H  H1087  1  0.538700  0.444800  0.466300  1
  H  H1088  1  0.961300  0.055200  0.466300  1
  H  H1089  1  0.517700  0.433400  0.929500  1
  H  H1090  1  0.982300  0.066600  0.929500  1
  H  H1091  1  0.066600  0.517700  0.929500  1
  H  H1092  1  0.433400  0.982300  0.929500  1
  H  H1093  1  0.982300  0.433400  0.570500  1
  H  H1094  1  0.517700  0.066600  0.570500  1
  H  H1095  1  0.433400  0.517700  0.570500  1
  H  H1096  1  0.066600  0.982300  0.570500  1
  H  H1097  1  0.482300  0.566600  0.070500  1
  H  H1098  1  0.017700  0.933400  0.070500  1
  H  H1099  1  0.933400  0.482300  0.070500  1
  H  H1100  1  0.566600  0.017700  0.070500  1
  H  H1101  1  0.017700  0.566600  0.429500  1
  H  H1102  1  0.482300  0.933400  0.429500  1
  H  H1103  1  0.566600  0.482300  0.429500  1
  H  H1104  1  0.933400  0.017700  0.429500  1
  H  H1105  1  0.566900  0.490300  0.923700  1
  H  H1106  1  0.933100  0.009700  0.923700  1
  H  H1107  1  0.009700  0.566900  0.923700  1
  H  H1108  1  0.490300  0.933100  0.923700  1
  H  H1109  1  0.933100  0.490300  0.576300  1
  H  H1110  1  0.566900  0.009700  0.576300  1
  H  H1111  1  0.490300  0.566900  0.576300  1
  H  H1112  1  0.009700  0.933100  0.576300  1
  H  H1113  1  0.433100  0.509700  0.076300  1
  H  H1114  1  0.066900  0.990300  0.076300  1
  H  H1115  1  0.990300  0.433100  0.076300  1
  H  H1116  1  0.509700  0.066900  0.076300  1
  H  H1117  1  0.066900  0.509700  0.423700  1
  H  H1118  1  0.433100  0.990300  0.423700  1
  H  H1119  1  0.509700  0.433100  0.423700  1
  H  H1120  1  0.990300  0.066900  0.423700  1
  H  H1121  1  0.652300  0.421200  0.940500  1
  H  H1122  1  0.847700  0.078800  0.940500  1
  H  H1123  1  0.078800  0.652300  0.940500  1
  H  H1124  1  0.421200  0.847700  0.940500  1
  H  H1125  1  0.847700  0.421200  0.559500  1
  H  H1126  1  0.652300  0.078800  0.559500  1
  H  H1127  1  0.421200  0.652300  0.559500  1
  H  H1128  1  0.078800  0.847700  0.559500  1
  H  H1129  1  0.347700  0.578800  0.059500  1
  H  H1130  1  0.152300  0.921200  0.059500  1
  H  H1131  1  0.921200  0.347700  0.059500  1
  H  H1132  1  0.578800  0.152300  0.059500  1
  H  H1133  1  0.152300  0.578800  0.440500  1
  H  H1134  1  0.347700  0.921200  0.440500  1
  H  H1135  1  0.578800  0.347700  0.440500  1
  H  H1136  1  0.921200  0.152300  0.440500  1
  H  H1137  1  0.602800  0.364000  0.945900  1
  H  H1138  1  0.897200  0.136000  0.945900  1
  H  H1139  1  0.136000  0.602800  0.945900  1
  H  H1140  1  0.364000  0.897200  0.945900  1
  H  H1141  1  0.897200  0.364000  0.554100  1
  H  H1142  1  0.602800  0.136000  0.554100  1
  H  H1143  1  0.364000  0.602800  0.554100  1
  H  H1144  1  0.136000  0.897200  0.554100  1
  H  H1145  1  0.397200  0.636000  0.054100  1
  H  H1146  1  0.102800  0.864000  0.054100  1
  H  H1147  1  0.864000  0.397200  0.054100  1
  H  H1148  1  0.636000  0.102800  0.054100  1
  H  H1149  1  0.102800  0.636000  0.445900  1
  H  H1150  1  0.397200  0.864000  0.445900  1
  H  H1151  1  0.636000  0.397200  0.445900  1
  H  H1152  1  0.864000  0.102800  0.445900  1
  H  H1153  1  0.663400  0.309400  0.899000  1
  H  H1154  1  0.836600  0.190600  0.899000  1
  H  H1155  1  0.190600  0.663400  0.899000  1
  H  H1156  1  0.309400  0.836600  0.899000  1
  H  H1157  1  0.836600  0.309400  0.601000  1
  H  H1158  1  0.663400  0.190600  0.601000  1
  H  H1159  1  0.309400  0.663400  0.601000  1
  H  H1160  1  0.190600  0.836600  0.601000  1
  H  H1161  1  0.336600  0.690600  0.101000  1
  H  H1162  1  0.163400  0.809400  0.101000  1
  H  H1163  1  0.809400  0.336600  0.101000  1
  H  H1164  1  0.690600  0.163400  0.101000  1
  H  H1165  1  0.163400  0.690600  0.399000  1
  H  H1166  1  0.336600  0.809400  0.399000  1
  H  H1167  1  0.690600  0.336600  0.399000  1
  H  H1168  1  0.809400  0.163400  0.399000  1
  H  H1169  1  0.707900  0.368800  0.888100  1
  H  H1170  1  0.792100  0.131200  0.888100  1
  H  H1171  1  0.131200  0.707900  0.888100  1
  H  H1172  1  0.368800  0.792100  0.888100  1
  H  H1173  1  0.792100  0.368800  0.611900  1
  H  H1174  1  0.707900  0.131200  0.611900  1
  H  H1175  1  0.368800  0.707900  0.611900  1
  H  H1176  1  0.131200  0.792100  0.611900  1
  H  H1177  1  0.292100  0.631200  0.111900  1
  H  H1178  1  0.207900  0.868800  0.111900  1
  H  H1179  1  0.868800  0.292100  0.111900  1
  H  H1180  1  0.631200  0.207900  0.111900  1
  H  H1181  1  0.207900  0.631200  0.388100  1
  H  H1182  1  0.292100  0.868800  0.388100  1
  H  H1183  1  0.631200  0.292100  0.388100  1
  H  H1184  1  0.868800  0.207900  0.388100  1
  H  H1185  1  0.680100  0.290000  0.834800  1
  H  H1186  1  0.819900  0.210000  0.834800  1
  H  H1187  1  0.210000  0.680100  0.834800  1
  H  H1188  1  0.290000  0.819900  0.834800  1
  H  H1189  1  0.819900  0.290000  0.665200  1
  H  H1190  1  0.680100  0.210000  0.665200  1
  H  H1191  1  0.290000  0.680100  0.665200  1
  H  H1192  1  0.210000  0.819900  0.665200  1
  H  H1193  1  0.319900  0.710000  0.165200  1
  H  H1194  1  0.180100  0.790000  0.165200  1
  H  H1195  1  0.790000  0.319900  0.165200  1
  H  H1196  1  0.710000  0.180100  0.165200  1
  H  H1197  1  0.180100  0.710000  0.334800  1
  H  H1198  1  0.319900  0.790000  0.334800  1
  H  H1199  1  0.710000  0.319900  0.334800  1
  H  H1200  1  0.790000  0.180100  0.334800  1
  H  H1201  1  0.682900  0.363700  0.824100  1
  H  H1202  1  0.817100  0.136300  0.824100  1
  H  H1203  1  0.136300  0.682900  0.824100  1
  H  H1204  1  0.363700  0.817100  0.824100  1
  H  H1205  1  0.817100  0.363700  0.675900  1
  H  H1206  1  0.682900  0.136300  0.675900  1
  H  H1207  1  0.363700  0.682900  0.675900  1
  H  H1208  1  0.136300  0.817100  0.675900  1
  H  H1209  1  0.317100  0.636300  0.175900  1
  H  H1210  1  0.182900  0.863700  0.175900  1
  H  H1211  1  0.863700  0.317100  0.175900  1
  H  H1212  1  0.636300  0.182900  0.175900  1
  H  H1213  1  0.182900  0.636300  0.324100  1
  H  H1214  1  0.317100  0.863700  0.324100  1
  H  H1215  1  0.636300  0.317100  0.324100  1
  H  H1216  1  0.863700  0.182900  0.324100  1
  H  H1217  1  0.616100  0.330500  0.832400  1
  H  H1218  1  0.883900  0.169500  0.832400  1
  H  H1219  1  0.169500  0.616100  0.832400  1
  H  H1220  1  0.330500  0.883900  0.832400  1
  H  H1221  1  0.883900  0.330500  0.667600  1
  H  H1222  1  0.616100  0.169500  0.667600  1
  H  H1223  1  0.330500  0.616100  0.667600  1
  H  H1224  1  0.169500  0.883900  0.667600  1
  H  H1225  1  0.383900  0.669500  0.167600  1
  H  H1226  1  0.116100  0.830500  0.167600  1
  H  H1227  1  0.830500  0.383900  0.167600  1
  H  H1228  1  0.669500  0.116100  0.167600  1
  H  H1229  1  0.116100  0.669500  0.332400  1
  H  H1230  1  0.383900  0.830500  0.332400  1
  H  H1231  1  0.669500  0.383900  0.332400  1
  H  H1232  1  0.830500  0.116100  0.332400  1
  H  H1233  1  0.724100  0.641500  0.934900  1.0
  H  H1234  1  0.775900  0.858500  0.934900  1.0
  H  H1235  1  0.858500  0.724100  0.934900  1.0
  H  H1236  1  0.641500  0.775900  0.934900  1.0
  H  H1237  1  0.775900  0.641500  0.565100  1.0
  H  H1238  1  0.724100  0.858500  0.565100  1.0
  H  H1239  1  0.641500  0.724100  0.565100  1.0
  H  H1240  1  0.858500  0.775900  0.565100  1.0
  H  H1241  1  0.275900  0.358500  0.065100  1.0
  H  H1242  1  0.224100  0.141500  0.065100  1.0
  H  H1243  1  0.141500  0.275900  0.065100  1.0
  H  H1244  1  0.358500  0.224100  0.065100  1.0
  H  H1245  1  0.224100  0.358500  0.434900  1.0
  H  H1246  1  0.275900  0.141500  0.434900  1.0
  H  H1247  1  0.358500  0.275900  0.434900  1.0
  H  H1248  1  0.141500  0.224100  0.434900  1.0
  H  H1249  1  0.693700  0.535400  0.931300  1.0
  H  H1250  1  0.806300  0.964600  0.931300  1.0
  H  H1251  1  0.964600  0.693700  0.931300  1.0
  H  H1252  1  0.535400  0.806300  0.931300  1.0
  H  H1253  1  0.806300  0.535400  0.568700  1.0
  H  H1254  1  0.693700  0.964600  0.568700  1.0
  H  H1255  1  0.535400  0.693700  0.568700  1.0
  H  H1256  1  0.964600  0.806300  0.568700  1.0
  H  H1257  1  0.306300  0.464600  0.068700  1.0
  H  H1258  1  0.193700  0.035400  0.068700  1.0
  H  H1259  1  0.035400  0.306300  0.068700  1.0
  H  H1260  1  0.464600  0.193700  0.068700  1.0
  H  H1261  1  0.193700  0.464600  0.431300  1.0
  H  H1262  1  0.306300  0.035400  0.431300  1.0
  H  H1263  1  0.464600  0.306300  0.431300  1.0
  H  H1264  1  0.035400  0.193700  0.431300  1.0
  H  H1265  1  0.672900  0.489100  0.870500  1.0
  H  H1266  1  0.827100  0.010900  0.870500  1.0
  H  H1267  1  0.010900  0.672900  0.870500  1.0
  H  H1268  1  0.489100  0.827100  0.870500  1.0
  H  H1269  1  0.827100  0.489100  0.629500  1.0
  H  H1270  1  0.672900  0.010900  0.629500  1.0
  H  H1271  1  0.489100  0.672900  0.629500  1.0
  H  H1272  1  0.010900  0.827100  0.629500  1.0
  H  H1273  1  0.327100  0.510900  0.129500  1.0
  H  H1274  1  0.172900  0.989100  0.129500  1.0
  H  H1275  1  0.989100  0.327100  0.129500  1.0
  H  H1276  1  0.510900  0.172900  0.129500  1.0
  H  H1277  1  0.172900  0.510900  0.370500  1.0
  H  H1278  1  0.327100  0.989100  0.370500  1.0
  H  H1279  1  0.510900  0.327100  0.370500  1.0
  H  H1280  1  0.989100  0.172900  0.370500  1.0
  H  H1281  1  0.713800  0.657900  0.819900  1.0
  H  H1282  1  0.786200  0.842100  0.819900  1.0
  H  H1283  1  0.842100  0.713800  0.819900  1.0
  H  H1284  1  0.657900  0.786200  0.819900  1.0
  H  H1285  1  0.786200  0.657900  0.680100  1.0
  H  H1286  1  0.713800  0.842100  0.680100  1.0
  H  H1287  1  0.657900  0.713800  0.680100  1.0
  H  H1288  1  0.842100  0.786200  0.680100  1.0
  H  H1289  1  0.286200  0.342100  0.180100  1.0
  H  H1290  1  0.213800  0.157900  0.180100  1.0
  H  H1291  1  0.157900  0.286200  0.180100  1.0
  H  H1292  1  0.342100  0.213800  0.180100  1.0
  H  H1293  1  0.213800  0.342100  0.319900  1.0
  H  H1294  1  0.286200  0.157900  0.319900  1.0
  H  H1295  1  0.342100  0.286200  0.319900  1.0
  H  H1296  1  0.157900  0.213800  0.319900  1.0
  H  H1297  1  0.683000  0.310800  0.636200  1.0
  H  H1298  1  0.817000  0.189200  0.636200  1.0
  H  H1299  1  0.189200  0.683000  0.636200  1.0
  H  H1300  1  0.310800  0.817000  0.636200  1.0
  H  H1301  1  0.817000  0.310800  0.863800  1.0
  H  H1302  1  0.683000  0.189200  0.863800  1.0
  H  H1303  1  0.310800  0.683000  0.863800  1.0
  H  H1304  1  0.189200  0.817000  0.863800  1.0
  H  H1305  1  0.317000  0.689200  0.363800  1.0
  H  H1306  1  0.183000  0.810800  0.363800  1.0
  H  H1307  1  0.810800  0.317000  0.363800  1.0
  H  H1308  1  0.689200  0.183000  0.363800  1.0
  H  H1309  1  0.183000  0.689200  0.136200  1.0
  H  H1310  1  0.317000  0.810800  0.136200  1.0
  H  H1311  1  0.689200  0.317000  0.136200  1.0
  H  H1312  1  0.810800  0.183000  0.136200  1.0
  H  H1313  1  0.652300  0.314800  0.593300  1.0
  H  H1314  1  0.847700  0.185200  0.593300  1.0
  H  H1315  1  0.185200  0.652300  0.593300  1.0
  H  H1316  1  0.314800  0.847700  0.593300  1.0
  H  H1317  1  0.847700  0.314800  0.906700  1.0
  H  H1318  1  0.652300  0.185200  0.906700  1.0
  H  H1319  1  0.314800  0.652300  0.906700  1.0
  H  H1320  1  0.185200  0.847700  0.906700  1.0
  H  H1321  1  0.347700  0.685200  0.406700  1.0
  H  H1322  1  0.152300  0.814800  0.406700  1.0
  H  H1323  1  0.814800  0.347700  0.406700  1.0
  H  H1324  1  0.685200  0.152300  0.406700  1.0
  H  H1325  1  0.152300  0.685200  0.093300  1.0
  H  H1326  1  0.347700  0.814800  0.093300  1.0
  H  H1327  1  0.685200  0.347700  0.093300  1.0
  H  H1328  1  0.814800  0.152300  0.093300  1.0
  H  H1329  1  0.575700  0.267100  0.635100  1.0
  H  H1330  1  0.924300  0.232900  0.635100  1.0
  H  H1331  1  0.232900  0.575700  0.635100  1.0
  H  H1332  1  0.267100  0.924300  0.635100  1.0
  H  H1333  1  0.924300  0.267100  0.864900  1.0
  H  H1334  1  0.575700  0.232900  0.864900  1.0
  H  H1335  1  0.267100  0.575700  0.864900  1.0
  H  H1336  1  0.232900  0.924300  0.864900  1.0
  H  H1337  1  0.424300  0.732900  0.364900  1.0
  H  H1338  1  0.075700  0.767100  0.364900  1.0
  H  H1339  1  0.767100  0.424300  0.364900  1.0
  H  H1340  1  0.732900  0.075700  0.364900  1.0
  H  H1341  1  0.075700  0.732900  0.135100  1.0
  H  H1342  1  0.424300  0.767100  0.135100  1.0
  H  H1343  1  0.732900  0.424300  0.135100  1.0
  H  H1344  1  0.767100  0.075700  0.135100  1.0
  H  H1345  1  0.583100  0.322700  0.666400  1.0
  H  H1346  1  0.916900  0.177300  0.666400  1.0
  H  H1347  1  0.177300  0.583100  0.666400  1.0
  H  H1348  1  0.322700  0.916900  0.666400  1.0
  H  H1349  1  0.916900  0.322700  0.833600  1.0
  H  H1350  1  0.583100  0.177300  0.833600  1.0
  H  H1351  1  0.322700  0.583100  0.833600  1.0
  H  H1352  1  0.177300  0.916900  0.833600  1.0
  H  H1353  1  0.416900  0.677300  0.333600  1.0
  H  H1354  1  0.083100  0.822700  0.333600  1.0
  H  H1355  1  0.822700  0.416900  0.333600  1.0
  H  H1356  1  0.677300  0.083100  0.333600  1.0
  H  H1357  1  0.083100  0.677300  0.166400  1.0
  H  H1358  1  0.416900  0.822700  0.166400  1.0
  H  H1359  1  0.677300  0.416900  0.166400  1.0
  H  H1360  1  0.822700  0.083100  0.166400  1.0
  H  H1361  1  0.485300  0.331800  0.630900  1.0
  H  H1362  1  0.014700  0.168200  0.630900  1.0
  H  H1363  1  0.168200  0.485300  0.630900  1.0
  H  H1364  1  0.331800  0.014700  0.630900  1.0
  H  H1365  1  0.014700  0.331800  0.869100  1.0
  H  H1366  1  0.485300  0.168200  0.869100  1.0
  H  H1367  1  0.331800  0.485300  0.869100  1.0
  H  H1368  1  0.168200  0.014700  0.869100  1.0
  H  H1369  1  0.514700  0.668200  0.369100  1.0
  H  H1370  1  0.985300  0.831800  0.369100  1.0
  H  H1371  1  0.831800  0.514700  0.369100  1.0
  H  H1372  1  0.668200  0.985300  0.369100  1.0
  H  H1373  1  0.985300  0.668200  0.130900  1.0
  H  H1374  1  0.514700  0.831800  0.130900  1.0
  H  H1375  1  0.668200  0.514700  0.130900  1.0
  H  H1376  1  0.831800  0.985300  0.130900  1.0
  H  H1377  1  0.527700  0.394000  0.625900  1.0
  H  H1378  1  0.972300  0.106000  0.625900  1.0
  H  H1379  1  0.106000  0.527700  0.625900  1.0
  H  H1380  1  0.394000  0.972300  0.625900  1.0
  H  H1381  1  0.972300  0.394000  0.874100  1.0
  H  H1382  1  0.527700  0.106000  0.874100  1.0
  H  H1383  1  0.394000  0.527700  0.874100  1.0
  H  H1384  1  0.106000  0.972300  0.874100  1.0
  H  H1385  1  0.472300  0.606000  0.374100  1.0
  H  H1386  1  0.027700  0.894000  0.374100  1.0
  H  H1387  1  0.894000  0.472300  0.374100  1.0
  H  H1388  1  0.606000  0.027700  0.374100  1.0
  H  H1389  1  0.027700  0.606000  0.125900  1.0
  H  H1390  1  0.472300  0.894000  0.125900  1.0
  H  H1391  1  0.606000  0.472300  0.125900  1.0
  H  H1392  1  0.894000  0.027700  0.125900  1.0
  H  H1393  1  0.527000  0.295700  0.568600  1.0
  H  H1394  1  0.973000  0.204300  0.568600  1.0
  H  H1395  1  0.204300  0.527000  0.568600  1.0
  H  H1396  1  0.295700  0.973000  0.568600  1.0
  H  H1397  1  0.973000  0.295700  0.931400  1.0
  H  H1398  1  0.527000  0.204300  0.931400  1.0
  H  H1399  1  0.295700  0.527000  0.931400  1.0
  H  H1400  1  0.204300  0.973000  0.931400  1.0
  H  H1401  1  0.473000  0.704300  0.431400  1.0
  H  H1402  1  0.027000  0.795700  0.431400  1.0
  H  H1403  1  0.795700  0.473000  0.431400  1.0
  H  H1404  1  0.704300  0.027000  0.431400  1.0
  H  H1405  1  0.027000  0.704300  0.068600  1.0
  H  H1406  1  0.473000  0.795700  0.068600  1.0
  H  H1407  1  0.704300  0.473000  0.068600  1.0
  H  H1408  1  0.795700  0.027000  0.068600  1.0
  H  H1409  1  0.557900  0.364400  0.563400  1.0
  H  H1410  1  0.942100  0.135600  0.563400  1.0
  H  H1411  1  0.135600  0.557900  0.563400  1.0
  H  H1412  1  0.364400  0.942100  0.563400  1.0
  H  H1413  1  0.942100  0.364400  0.936600  1.0
  H  H1414  1  0.557900  0.135600  0.936600  1.0
  H  H1415  1  0.364400  0.557900  0.936600  1.0
  H  H1416  1  0.135600  0.942100  0.936600  1.0
  H  H1417  1  0.442100  0.635600  0.436600  1.0
  H  H1418  1  0.057900  0.864400  0.436600  1.0
  H  H1419  1  0.864400  0.442100  0.436600  1.0
  H  H1420  1  0.635600  0.057900  0.436600  1.0
  H  H1421  1  0.057900  0.635600  0.063400  1.0
  H  H1422  1  0.442100  0.864400  0.063400  1.0
  H  H1423  1  0.635600  0.442100  0.063400  1.0
  H  H1424  1  0.864400  0.057900  0.063400  1.0
  H  H1425  1  0.424800  0.342100  0.570800  1.0
  H  H1426  1  0.075200  0.157900  0.570800  1.0
  H  H1427  1  0.157900  0.424800  0.570800  1.0
  H  H1428  1  0.342100  0.075200  0.570800  1.0
  H  H1429  1  0.075200  0.342100  0.929200  1.0
  H  H1430  1  0.424800  0.157900  0.929200  1.0
  H  H1431  1  0.342100  0.424800  0.929200  1.0
  H  H1432  1  0.157900  0.075200  0.929200  1.0
  H  H1433  1  0.575200  0.657900  0.429200  1.0
  H  H1434  1  0.924800  0.842100  0.429200  1.0
  H  H1435  1  0.842100  0.575200  0.429200  1.0
  H  H1436  1  0.657900  0.924800  0.429200  1.0
  H  H1437  1  0.924800  0.657900  0.070800  1.0
  H  H1438  1  0.575200  0.842100  0.070800  1.0
  H  H1439  1  0.657900  0.575200  0.070800  1.0
  H  H1440  1  0.842100  0.924800  0.070800  1.0
  H  H1441  1  0.455500  0.410700  0.565900  1.0
  H  H1442  1  0.044500  0.089300  0.565900  1.0
  H  H1443  1  0.089300  0.455500  0.565900  1.0
  H  H1444  1  0.410700  0.044500  0.565900  1.0
  H  H1445  1  0.044500  0.410700  0.934100  1.0
  H  H1446  1  0.455500  0.089300  0.934100  1.0
  H  H1447  1  0.410700  0.455500  0.934100  1.0
  H  H1448  1  0.089300  0.044500  0.934100  1.0
  H  H1449  1  0.544500  0.589300  0.434100  1.0
  H  H1450  1  0.955500  0.910700  0.434100  1.0
  H  H1451  1  0.910700  0.544500  0.434100  1.0
  H  H1452  1  0.589300  0.955500  0.434100  1.0
  H  H1453  1  0.955500  0.589300  0.065900  1.0
  H  H1454  1  0.544500  0.910700  0.065900  1.0
  H  H1455  1  0.589300  0.544500  0.065900  1.0
  H  H1456  1  0.910700  0.955500  0.065900  1.0
  H  H1457  1  0.454600  0.403100  0.504400  1.0
  H  H1458  1  0.045400  0.096900  0.504400  1.0
  H  H1459  1  0.096900  0.454600  0.504400  1.0
  H  H1460  1  0.403100  0.045400  0.504400  1.0
  H  H1461  1  0.045400  0.403100  0.995600  1.0
  H  H1462  1  0.454600  0.096900  0.995600  1.0
  H  H1463  1  0.403100  0.454600  0.995600  1.0
  H  H1464  1  0.096900  0.045400  0.995600  1.0
  H  H1465  1  0.545400  0.596900  0.495600  1.0
  H  H1466  1  0.954600  0.903100  0.495600  1.0
  H  H1467  1  0.903100  0.545400  0.495600  1.0
  H  H1468  1  0.596900  0.954600  0.495600  1.0
  H  H1469  1  0.954600  0.596900  0.004400  1.0
  H  H1470  1  0.545400  0.903100  0.004400  1.0
  H  H1471  1  0.596900  0.545400  0.004400  1.0
  H  H1472  1  0.903100  0.954600  0.004400  1.0
  H  H1473  1  0.412600  0.340600  0.509700  1.0
  H  H1474  1  0.087400  0.159400  0.509700  1.0
  H  H1475  1  0.159400  0.412600  0.509700  1.0
  H  H1476  1  0.340600  0.087400  0.509700  1.0
  H  H1477  1  0.087400  0.340600  0.990300  1.0
  H  H1478  1  0.412600  0.159400  0.990300  1.0
  H  H1479  1  0.340600  0.412600  0.990300  1.0
  H  H1480  1  0.159400  0.087400  0.990300  1.0
  H  H1481  1  0.587400  0.659400  0.490300  1.0
  H  H1482  1  0.912600  0.840600  0.490300  1.0
  H  H1483  1  0.840600  0.587400  0.490300  1.0
  H  H1484  1  0.659400  0.912600  0.490300  1.0
  H  H1485  1  0.912600  0.659400  0.009700  1.0
  H  H1486  1  0.587400  0.840600  0.009700  1.0
  H  H1487  1  0.659400  0.587400  0.009700  1.0
  H  H1488  1  0.840600  0.912600  0.009700  1.0
  H  H1489  1  0.487900  0.335100  0.505300  1.0
  H  H1490  1  0.012100  0.164900  0.505300  1.0
  H  H1491  1  0.164900  0.487900  0.505300  1.0
  H  H1492  1  0.335100  0.012100  0.505300  1.0
  H  H1493  1  0.012100  0.335100  0.994700  1.0
  H  H1494  1  0.487900  0.164900  0.994700  1.0
  H  H1495  1  0.335100  0.487900  0.994700  1.0
  H  H1496  1  0.164900  0.012100  0.994700  1.0
  H  H1497  1  0.512100  0.664900  0.494700  1.0
  H  H1498  1  0.987900  0.835100  0.494700  1.0
  H  H1499  1  0.835100  0.512100  0.494700  1.0
  H  H1500  1  0.664900  0.987900  0.494700  1.0
  H  H1501  1  0.987900  0.664900  0.005300  1.0
  H  H1502  1  0.512100  0.835100  0.005300  1.0
  H  H1503  1  0.664900  0.512100  0.005300  1.0
  H  H1504  1  0.835100  0.987900  0.005300  1.0
  H  H1505  1  0.662000  0.493100  0.373900  1.0
  H  H1506  1  0.838000  0.006900  0.373900  1.0
  H  H1507  1  0.006900  0.662000  0.373900  1.0
  H  H1508  1  0.493100  0.838000  0.373900  1.0
  H  H1509  1  0.838000  0.493100  0.126100  1.0
  H  H1510  1  0.662000  0.006900  0.126100  1.0
  H  H1511  1  0.493100  0.662000  0.126100  1.0
  H  H1512  1  0.006900  0.838000  0.126100  1.0
  H  H1513  1  0.338000  0.506900  0.626100  1.0
  H  H1514  1  0.162000  0.993100  0.626100  1.0
  H  H1515  1  0.993100  0.338000  0.626100  1.0
  H  H1516  1  0.506900  0.162000  0.626100  1.0
  H  H1517  1  0.162000  0.506900  0.873900  1.0
  H  H1518  1  0.338000  0.993100  0.873900  1.0
  H  H1519  1  0.506900  0.338000  0.873900  1.0
  H  H1520  1  0.993100  0.162000  0.873900  1.0
  H  H1521  1  0.670600  0.543100  0.313500  1.0
  H  H1522  1  0.829400  0.956900  0.313500  1.0
  H  H1523  1  0.956900  0.670600  0.313500  1.0
  H  H1524  1  0.543100  0.829400  0.313500  1.0
  H  H1525  1  0.829400  0.543100  0.186500  1.0
  H  H1526  1  0.670600  0.956900  0.186500  1.0
  H  H1527  1  0.543100  0.670600  0.186500  1.0
  H  H1528  1  0.956900  0.829400  0.186500  1.0
  H  H1529  1  0.329400  0.456900  0.686500  1.0
  H  H1530  1  0.170600  0.043100  0.686500  1.0
  H  H1531  1  0.043100  0.329400  0.686500  1.0
  H  H1532  1  0.456900  0.170600  0.686500  1.0
  H  H1533  1  0.170600  0.456900  0.813500  1.0
  H  H1534  1  0.329400  0.043100  0.813500  1.0
  H  H1535  1  0.456900  0.329400  0.813500  1.0
  H  H1536  1  0.043100  0.170600  0.813500  1.0
  H  H1537  1  0.705300  0.647500  0.309700  1.0
  H  H1538  1  0.794700  0.852500  0.309700  1.0
  H  H1539  1  0.852500  0.705300  0.309700  1.0
  H  H1540  1  0.647500  0.794700  0.309700  1.0
  H  H1541  1  0.794700  0.647500  0.190300  1.0
  H  H1542  1  0.705300  0.852500  0.190300  1.0
  H  H1543  1  0.647500  0.705300  0.190300  1.0
  H  H1544  1  0.852500  0.794700  0.190300  1.0
  H  H1545  1  0.294700  0.352500  0.690300  1.0
  H  H1546  1  0.205300  0.147500  0.690300  1.0
  H  H1547  1  0.147500  0.294700  0.690300  1.0
  H  H1548  1  0.352500  0.205300  0.690300  1.0
  H  H1549  1  0.205300  0.352500  0.809700  1.0
  H  H1550  1  0.294700  0.147500  0.809700  1.0
  H  H1551  1  0.352500  0.294700  0.809700  1.0
  H  H1552  1  0.147500  0.205300  0.809700  1.0
  H  H1553  1  0.724500  0.654900  0.424400  1.0
  H  H1554  1  0.775500  0.845100  0.424400  1.0
  H  H1555  1  0.845100  0.724500  0.424400  1.0
  H  H1556  1  0.654900  0.775500  0.424400  1.0
  H  H1557  1  0.775500  0.654900  0.075600  1.0
  H  H1558  1  0.724500  0.845100  0.075600  1.0
  H  H1559  1  0.654900  0.724500  0.075600  1.0
  H  H1560  1  0.845100  0.775500  0.075600  1.0
  H  H1561  1  0.275500  0.345100  0.575600  1.0
  H  H1562  1  0.224500  0.154900  0.575600  1.0
  H  H1563  1  0.154900  0.275500  0.575600  1.0
  H  H1564  1  0.345100  0.224500  0.575600  1.0
  H  H1565  1  0.224500  0.345100  0.924400  1.0
  H  H1566  1  0.275500  0.154900  0.924400  1.0
  H  H1567  1  0.345100  0.275500  0.924400  1.0
  H  H1568  1  0.154900  0.224500  0.924400  1.0
  H  H1569  1  0.645800  0.571700  0.698600  1.0
  H  H1570  1  0.854200  0.928300  0.698600  1.0
  H  H1571  1  0.928300  0.645800  0.698600  1.0
  H  H1572  1  0.571700  0.854200  0.698600  1.0
  H  H1573  1  0.854200  0.571700  0.801400  1.0
  H  H1574  1  0.645800  0.928300  0.801400  1.0
  H  H1575  1  0.571700  0.645800  0.801400  1.0
  H  H1576  1  0.928300  0.854200  0.801400  1.0
  H  H1577  1  0.354200  0.428300  0.301400  1.0
  H  H1578  1  0.145800  0.071700  0.301400  1.0
  H  H1579  1  0.071700  0.354200  0.301400  1.0
  H  H1580  1  0.428300  0.145800  0.301400  1.0
  H  H1581  1  0.145800  0.428300  0.198600  1.0
  H  H1582  1  0.354200  0.071700  0.198600  1.0
  H  H1583  1  0.428300  0.354200  0.198600  1.0
  H  H1584  1  0.071700  0.145800  0.198600  1.0
  H  H1585  1  0.689900  0.403900  0.749600  1.0
  H  H1586  1  0.810100  0.096100  0.749600  1.0
  H  H1587  1  0.096100  0.689900  0.749600  1.0
  H  H1588  1  0.403900  0.810100  0.749600  1.0
  H  H1589  1  0.810100  0.403900  0.750400  1.0
  H  H1590  1  0.689900  0.096100  0.750400  1.0
  H  H1591  1  0.403900  0.689900  0.750400  1.0
  H  H1592  1  0.096100  0.810100  0.750400  1.0
  H  H1593  1  0.310100  0.596100  0.250400  1.0
  H  H1594  1  0.189900  0.903900  0.250400  1.0
  H  H1595  1  0.903900  0.310100  0.250400  1.0
  H  H1596  1  0.596100  0.189900  0.250400  1.0
  H  H1597  1  0.189900  0.596100  0.249600  1.0
  H  H1598  1  0.310100  0.903900  0.249600  1.0
  H  H1599  1  0.596100  0.310100  0.249600  1.0
  H  H1600  1  0.903900  0.189900  0.249600  1.0
  H  H1601  1  0.687100  0.354500  0.689200  1.0
  H  H1602  1  0.812900  0.145500  0.689200  1.0
  H  H1603  1  0.145500  0.687100  0.689200  1.0
  H  H1604  1  0.354500  0.812900  0.689200  1.0
  H  H1605  1  0.812900  0.354500  0.810800  1.0
  H  H1606  1  0.687100  0.145500  0.810800  1.0
  H  H1607  1  0.354500  0.687100  0.810800  1.0
  H  H1608  1  0.145500  0.812900  0.810800  1.0
  H  H1609  1  0.312900  0.645500  0.310800  1.0
  H  H1610  1  0.187100  0.854500  0.310800  1.0
  H  H1611  1  0.854500  0.312900  0.310800  1.0
  H  H1612  1  0.645500  0.187100  0.310800  1.0
  H  H1613  1  0.187100  0.645500  0.189200  1.0
  H  H1614  1  0.312900  0.854500  0.189200  1.0
  H  H1615  1  0.645500  0.312900  0.189200  1.0
  H  H1616  1  0.854500  0.187100  0.189200  1.0
  H  H1617  1  0.653200  0.571500  0.544700  1.0
  H  H1618  1  0.846800  0.928500  0.544700  1.0
  H  H1619  1  0.928500  0.653200  0.544700  1.0
  H  H1620  1  0.571500  0.846800  0.544700  1.0
  H  H1621  1  0.846800  0.571500  0.955300  1.0
  H  H1622  1  0.653200  0.928500  0.955300  1.0
  H  H1623  1  0.571500  0.653200  0.955300  1.0
  H  H1624  1  0.928500  0.846800  0.955300  1.0
  H  H1625  1  0.346800  0.428500  0.455300  1.0
  H  H1626  1  0.153200  0.071500  0.455300  1.0
  H  H1627  1  0.071500  0.346800  0.455300  1.0
  H  H1628  1  0.428500  0.153200  0.455300  1.0
  H  H1629  1  0.153200  0.428500  0.044700  1.0
  H  H1630  1  0.346800  0.071500  0.044700  1.0
  H  H1631  1  0.428500  0.346800  0.044700  1.0
  H  H1632  1  0.071500  0.153200  0.044700  1.0
  H  H1633  1  0.718000  0.407100  0.497300  1.0
  H  H1634  1  0.782000  0.092900  0.497300  1.0
  H  H1635  1  0.092900  0.718000  0.497300  1.0
  H  H1636  1  0.407100  0.782000  0.497300  1.0
  H  H1637  1  0.782000  0.407100  0.002700  1.0
  H  H1638  1  0.718000  0.092900  0.002700  1.0
  H  H1639  1  0.407100  0.718000  0.002700  1.0
  H  H1640  1  0.092900  0.782000  0.002700  1.0
  H  H1641  1  0.282000  0.592900  0.502700  1.0
  H  H1642  1  0.218000  0.907100  0.502700  1.0
  H  H1643  1  0.907100  0.282000  0.502700  1.0
  H  H1644  1  0.592900  0.218000  0.502700  1.0
  H  H1645  1  0.218000  0.592900  0.997300  1.0
  H  H1646  1  0.282000  0.907100  0.997300  1.0
  H  H1647  1  0.592900  0.282000  0.997300  1.0
  H  H1648  1  0.907100  0.218000  0.997300  1.0
  H  H1649  1  0.706400  0.357700  0.557600  1.0
  H  H1650  1  0.793600  0.142300  0.557600  1.0
  H  H1651  1  0.142300  0.706400  0.557600  1.0
  H  H1652  1  0.357700  0.793600  0.557600  1.0
  H  H1653  1  0.793600  0.357700  0.942400  1.0
  H  H1654  1  0.706400  0.142300  0.942400  1.0
  H  H1655  1  0.357700  0.706400  0.942400  1.0
  H  H1656  1  0.142300  0.793600  0.942400  1.0
  H  H1657  1  0.293600  0.642300  0.442400  1.0
  H  H1658  1  0.206400  0.857700  0.442400  1.0
  H  H1659  1  0.857700  0.293600  0.442400  1.0
  H  H1660  1  0.642300  0.206400  0.442400  1.0
  H  H1661  1  0.206400  0.642300  0.057600  1.0
  H  H1662  1  0.293600  0.857700  0.057600  1.0
  H  H1663  1  0.642300  0.293600  0.057600  1.0
  H  H1664  1  0.857700  0.206400  0.057600  1.0
  Pd  Pd1665  1  0.750000  0.750000  0.879156  1
  Pd  Pd1666  1  0.750000  0.750000  0.620844  1
  Pd  Pd1667  1  0.250000  0.250000  0.120844  1
  Pd  Pd1668  1  0.250000  0.250000  0.379156  1
  Pd  Pd1669  1  0.750000  0.750000  0.364993  1
  Pd  Pd1670  1  0.750000  0.750000  0.135007  1
  Pd  Pd1671  1  0.250000  0.250000  0.635007  1
  Pd  Pd1672  1  0.250000  0.250000  0.864993  1
  C  C1673  1  0.523100  0.470000  0.820200  1
  C  C1674  1  0.976900  0.030000  0.820200  1
  C  C1675  1  0.030000  0.523100  0.820200  1
  C  C1676  1  0.470000  0.976900  0.820200  1
  C  C1677  1  0.976900  0.470000  0.679800  1
  C  C1678  1  0.523100  0.030000  0.679800  1
  C  C1679  1  0.470000  0.523100  0.679800  1
  C  C1680  1  0.030000  0.976900  0.679800  1
  C  C1681  1  0.476900  0.530000  0.179800  1
  C  C1682  1  0.023100  0.970000  0.179800  1
  C  C1683  1  0.970000  0.476900  0.179800  1
  C  C1684  1  0.530000  0.023100  0.179800  1
  C  C1685  1  0.023100  0.530000  0.320200  1
  C  C1686  1  0.476900  0.970000  0.320200  1
  C  C1687  1  0.530000  0.476900  0.320200  1
  C  C1688  1  0.970000  0.023100  0.320200  1
  C  C1689  1  0.507200  0.472900  0.777400  1
  C  C1690  1  0.992800  0.027100  0.777400  1
  C  C1691  1  0.027100  0.507200  0.777400  1
  C  C1692  1  0.472900  0.992800  0.777400  1
  C  C1693  1  0.992800  0.472900  0.722600  1
  C  C1694  1  0.507200  0.027100  0.722600  1
  C  C1695  1  0.472900  0.507200  0.722600  1
  C  C1696  1  0.027100  0.992800  0.722600  1
  C  C1697  1  0.492800  0.527100  0.222600  1
  C  C1698  1  0.007200  0.972900  0.222600  1
  C  C1699  1  0.972900  0.492800  0.222600  1
  C  C1700  1  0.527100  0.007200  0.222600  1
  C  C1701  1  0.007200  0.527100  0.277400  1
  C  C1702  1  0.492800  0.972900  0.277400  1
  C  C1703  1  0.527100  0.492800  0.277400  1
  C  C1704  1  0.972900  0.007200  0.277400  1
  C  C1705  1  0.487700  0.395300  0.723000  1
  C  C1706  1  0.012300  0.104700  0.723000  1
  C  C1707  1  0.104700  0.487700  0.723000  1
  C  C1708  1  0.395300  0.012300  0.723000  1
  C  C1709  1  0.012300  0.395300  0.777000  1
  C  C1710  1  0.487700  0.104700  0.777000  1
  C  C1711  1  0.395300  0.487700  0.777000  1
  C  C1712  1  0.104700  0.012300  0.777000  1
  C  C1713  1  0.512300  0.604700  0.277000  1
  C  C1714  1  0.987700  0.895300  0.277000  1
  C  C1715  1  0.895300  0.512300  0.277000  1
  C  C1716  1  0.604700  0.987700  0.277000  1
  C  C1717  1  0.987700  0.604700  0.223000  1
  C  C1718  1  0.512300  0.895300  0.223000  1
  C  C1719  1  0.604700  0.512300  0.223000  1
  C  C1720  1  0.895300  0.987700  0.223000  1
  C  C1721  1  0.459500  0.331800  0.718700  1
  C  C1722  1  0.040500  0.168200  0.718700  1
  C  C1723  1  0.168200  0.459500  0.718700  1
  C  C1724  1  0.331800  0.040500  0.718700  1
  C  C1725  1  0.040500  0.331800  0.781300  1
  C  C1726  1  0.459500  0.168200  0.781300  1
  C  C1727  1  0.331800  0.459500  0.781300  1
  C  C1728  1  0.168200  0.040500  0.781300  1
  C  C1729  1  0.540500  0.668200  0.281300  1
  C  C1730  1  0.959500  0.831800  0.281300  1
  C  C1731  1  0.831800  0.540500  0.281300  1
  C  C1732  1  0.668200  0.959500  0.281300  1
  C  C1733  1  0.959500  0.668200  0.218700  1
  C  C1734  1  0.540500  0.831800  0.218700  1
  C  C1735  1  0.668200  0.540500  0.218700  1
  C  C1736  1  0.831800  0.959500  0.218700  1
  C  C1737  1  0.602300  0.324500  0.800000  1
  C  C1738  1  0.897700  0.175500  0.800000  1
  C  C1739  1  0.175500  0.602300  0.800000  1
  C  C1740  1  0.324500  0.897700  0.800000  1
  C  C1741  1  0.897700  0.324500  0.700000  1
  C  C1742  1  0.602300  0.175500  0.700000  1
  C  C1743  1  0.324500  0.602300  0.700000  1
  C  C1744  1  0.175500  0.897700  0.700000  1
  C  C1745  1  0.397700  0.675500  0.200000  1
  C  C1746  1  0.102300  0.824500  0.200000  1
  C  C1747  1  0.824500  0.397700  0.200000  1
  C  C1748  1  0.675500  0.102300  0.200000  1
  C  C1749  1  0.102300  0.675500  0.300000  1
  C  C1750  1  0.397700  0.824500  0.300000  1
  C  C1751  1  0.675500  0.397700  0.300000  1
  C  C1752  1  0.824500  0.102300  0.300000  1
  C  C1753  1  0.654000  0.338100  0.828900  1
  C  C1754  1  0.846000  0.161900  0.828900  1
  C  C1755  1  0.161900  0.654000  0.828900  1
  C  C1756  1  0.338100  0.846000  0.828900  1
  C  C1757  1  0.846000  0.338100  0.671100  1
  C  C1758  1  0.654000  0.161900  0.671100  1
  C  C1759  1  0.338100  0.654000  0.671100  1
  C  C1760  1  0.161900  0.846000  0.671100  1
  C  C1761  1  0.346000  0.661900  0.171100  1
  C  C1762  1  0.154000  0.838100  0.171100  1
  C  C1763  1  0.838100  0.346000  0.171100  1
  C  C1764  1  0.661900  0.154000  0.171100  1
  C  C1765  1  0.154000  0.661900  0.328900  1
  C  C1766  1  0.346000  0.838100  0.328900  1
  C  C1767  1  0.661900  0.346000  0.328900  1
  C  C1768  1  0.838100  0.154000  0.328900  1
  C  C1769  1  0.665400  0.357200  0.899900  1
  C  C1770  1  0.834600  0.142800  0.899900  1
  C  C1771  1  0.142800  0.665400  0.899900  1
  C  C1772  1  0.357200  0.834600  0.899900  1
  C  C1773  1  0.834600  0.357200  0.600100  1
  C  C1774  1  0.665400  0.142800  0.600100  1
  C  C1775  1  0.357200  0.665400  0.600100  1
  C  C1776  1  0.142800  0.834600  0.600100  1
  C  C1777  1  0.334600  0.642800  0.100100  1
  C  C1778  1  0.165400  0.857200  0.100100  1
  C  C1779  1  0.857200  0.334600  0.100100  1
  C  C1780  1  0.642800  0.165400  0.100100  1
  C  C1781  1  0.165400  0.642800  0.399900  1
  C  C1782  1  0.334600  0.857200  0.399900  1
  C  C1783  1  0.642800  0.334600  0.399900  1
  C  C1784  1  0.857200  0.165400  0.399900  1
  C  C1785  1  0.633000  0.387800  0.931200  1
  C  C1786  1  0.867000  0.112200  0.931200  1
  C  C1787  1  0.112200  0.633000  0.931200  1
  C  C1788  1  0.387800  0.867000  0.931200  1
  C  C1789  1  0.867000  0.387800  0.568800  1
  C  C1790  1  0.633000  0.112200  0.568800  1
  C  C1791  1  0.387800  0.633000  0.568800  1
  C  C1792  1  0.112200  0.867000  0.568800  1
  C  C1793  1  0.367000  0.612200  0.068800  1
  C  C1794  1  0.133000  0.887800  0.068800  1
  C  C1795  1  0.887800  0.367000  0.068800  1
  C  C1796  1  0.612200  0.133000  0.068800  1
  C  C1797  1  0.133000  0.612200  0.431200  1
  C  C1798  1  0.367000  0.887800  0.431200  1
  C  C1799  1  0.612200  0.367000  0.431200  1
  C  C1800  1  0.887800  0.133000  0.431200  1
  C  C1801  1  0.631500  0.334400  0.620900  1
  C  C1802  1  0.868500  0.165600  0.620900  1
  C  C1803  1  0.165600  0.631500  0.620900  1
  C  C1804  1  0.334400  0.868500  0.620900  1
  C  C1805  1  0.868500  0.334400  0.879100  1
  C  C1806  1  0.631500  0.165600  0.879100  1
  C  C1807  1  0.334400  0.631500  0.879100  1
  C  C1808  1  0.165600  0.868500  0.879100  1
  C  C1809  1  0.368500  0.665600  0.379100  1
  C  C1810  1  0.131500  0.834400  0.379100  1
  C  C1811  1  0.834400  0.368500  0.379100  1
  C  C1812  1  0.665600  0.131500  0.379100  1
  C  C1813  1  0.131500  0.665600  0.120900  1
  C  C1814  1  0.368500  0.834400  0.120900  1
  C  C1815  1  0.665600  0.368500  0.120900  1
  C  C1816  1  0.834400  0.131500  0.120900  1
  C  C1817  1  0.573600  0.323500  0.590800  1
  C  C1818  1  0.926400  0.176500  0.590800  1
  C  C1819  1  0.176500  0.573600  0.590800  1
  C  C1820  1  0.323500  0.926400  0.590800  1
  C  C1821  1  0.926400  0.323500  0.909200  1
  C  C1822  1  0.573600  0.176500  0.909200  1
  C  C1823  1  0.323500  0.573600  0.909200  1
  C  C1824  1  0.176500  0.926400  0.909200  1
  C  C1825  1  0.426400  0.676500  0.409200  1
  C  C1826  1  0.073600  0.823500  0.409200  1
  C  C1827  1  0.823500  0.426400  0.409200  1
  C  C1828  1  0.676500  0.073600  0.409200  1
  C  C1829  1  0.073600  0.676500  0.090800  1
  C  C1830  1  0.426400  0.823500  0.090800  1
  C  C1831  1  0.676500  0.426400  0.090800  1
  C  C1832  1  0.823500  0.073600  0.090800  1
  C  C1833  1  0.514800  0.371800  0.593300  1
  C  C1834  1  0.985200  0.128200  0.593300  1
  C  C1835  1  0.128200  0.514800  0.593300  1
  C  C1836  1  0.371800  0.985200  0.593300  1
  C  C1837  1  0.985200  0.371800  0.906700  1
  C  C1838  1  0.514800  0.128200  0.906700  1
  C  C1839  1  0.371800  0.514800  0.906700  1
  C  C1840  1  0.128200  0.985200  0.906700  1
  C  C1841  1  0.485200  0.628200  0.406700  1
  C  C1842  1  0.014800  0.871800  0.406700  1
  C  C1843  1  0.871800  0.485200  0.406700  1
  C  C1844  1  0.628200  0.014800  0.406700  1
  C  C1845  1  0.014800  0.628200  0.093300  1
  C  C1846  1  0.485200  0.871800  0.093300  1
  C  C1847  1  0.628200  0.485200  0.093300  1
  C  C1848  1  0.871800  0.014800  0.093300  1
  C  C1849  1  0.459200  0.362600  0.563900  1
  C  C1850  1  0.040800  0.137400  0.563900  1
  C  C1851  1  0.137400  0.459200  0.563900  1
  C  C1852  1  0.362600  0.040800  0.563900  1
  C  C1853  1  0.040800  0.362600  0.936100  1
  C  C1854  1  0.459200  0.137400  0.936100  1
  C  C1855  1  0.362600  0.459200  0.936100  1
  C  C1856  1  0.137400  0.040800  0.936100  1
  C  C1857  1  0.540800  0.637400  0.436100  1
  C  C1858  1  0.959200  0.862600  0.436100  1
  C  C1859  1  0.862600  0.540800  0.436100  1
  C  C1860  1  0.637400  0.959200  0.436100  1
  C  C1861  1  0.959200  0.637400  0.063900  1
  C  C1862  1  0.540800  0.862600  0.063900  1
  C  C1863  1  0.637400  0.540800  0.063900  1
  C  C1864  1  0.862600  0.959200  0.063900  1
  C  C1865  1  0.477100  0.375900  0.519200  1
  C  C1866  1  0.022900  0.124100  0.519200  1
  C  C1867  1  0.124100  0.477100  0.519200  1
  C  C1868  1  0.375900  0.022900  0.519200  1
  C  C1869  1  0.022900  0.375900  0.980800  1
  C  C1870  1  0.477100  0.124100  0.980800  1
  C  C1871  1  0.375900  0.477100  0.980800  1
  C  C1872  1  0.124100  0.022900  0.980800  1
  C  C1873  1  0.522900  0.624100  0.480800  1
  C  C1874  1  0.977100  0.875900  0.480800  1
  C  C1875  1  0.875900  0.522900  0.480800  1
  C  C1876  1  0.624100  0.977100  0.480800  1
  C  C1877  1  0.977100  0.624100  0.019200  1
  C  C1878  1  0.522900  0.875900  0.019200  1
  C  C1879  1  0.624100  0.522900  0.019200  1
  C  C1880  1  0.875900  0.977100  0.019200  1
  C  C1881  1  0.501500  0.443800  0.510500  1
  C  C1882  1  0.998500  0.056200  0.510500  1
  C  C1883  1  0.056200  0.501500  0.510500  1
  C  C1884  1  0.443800  0.998500  0.510500  1
  C  C1885  1  0.998500  0.443800  0.989500  1
  C  C1886  1  0.501500  0.056200  0.989500  1
  C  C1887  1  0.443800  0.501500  0.989500  1
  C  C1888  1  0.056200  0.998500  0.989500  1
  C  C1889  1  0.498500  0.556200  0.489500  1
  C  C1890  1  0.001500  0.943800  0.489500  1
  C  C1891  1  0.943800  0.498500  0.489500  1
  C  C1892  1  0.556200  0.001500  0.489500  1
  C  C1893  1  0.001500  0.556200  0.010500  1
  C  C1894  1  0.498500  0.943800  0.010500  1
  C  C1895  1  0.556200  0.498500  0.010500  1
  C  C1896  1  0.943800  0.001500  0.010500  1
  C  C1897  1  0.646000  0.500300  0.661000  1
  C  C1898  1  0.854000  0.999700  0.661000  1
  C  C1899  1  0.999700  0.646000  0.661000  1
  C  C1900  1  0.500300  0.854000  0.661000  1
  C  C1901  1  0.854000  0.500300  0.839000  1
  C  C1902  1  0.646000  0.999700  0.839000  1
  C  C1903  1  0.500300  0.646000  0.839000  1
  C  C1904  1  0.999700  0.854000  0.839000  1
  C  C1905  1  0.354000  0.499700  0.339000  1
  C  C1906  1  0.146000  0.000300  0.339000  1
  C  C1907  1  0.000300  0.354000  0.339000  1
  C  C1908  1  0.499700  0.146000  0.339000  1
  C  C1909  1  0.146000  0.499700  0.161000  1
  C  C1910  1  0.354000  0.000300  0.161000  1
  C  C1911  1  0.499700  0.354000  0.161000  1
  C  C1912  1  0.000300  0.146000  0.161000  1
  C  C1913  1  0.656000  0.529800  0.696800  1
  C  C1914  1  0.844000  0.970200  0.696800  1
  C  C1915  1  0.970200  0.656000  0.696800  1
  C  C1916  1  0.529800  0.844000  0.696800  1
  C  C1917  1  0.844000  0.529800  0.803200  1
  C  C1918  1  0.656000  0.970200  0.803200  1
  C  C1919  1  0.529800  0.656000  0.803200  1
  C  C1920  1  0.970200  0.844000  0.803200  1
  C  C1921  1  0.344000  0.470200  0.303200  1
  C  C1922  1  0.156000  0.029800  0.303200  1
  C  C1923  1  0.029800  0.344000  0.303200  1
  C  C1924  1  0.470200  0.156000  0.303200  1
  C  C1925  1  0.156000  0.470200  0.196800  1
  C  C1926  1  0.344000  0.029800  0.196800  1
  C  C1927  1  0.470200  0.344000  0.196800  1
  C  C1928  1  0.029800  0.156000  0.196800  1
  C  C1929  1  0.663000  0.493800  0.730800  1
  C  C1930  1  0.837000  0.006200  0.730800  1
  C  C1931  1  0.006200  0.663000  0.730800  1
  C  C1932  1  0.493800  0.837000  0.730800  1
  C  C1933  1  0.837000  0.493800  0.769200  1
  C  C1934  1  0.663000  0.006200  0.769200  1
  C  C1935  1  0.493800  0.663000  0.769200  1
  C  C1936  1  0.006200  0.837000  0.769200  1
  C  C1937  1  0.337000  0.506200  0.269200  1
  C  C1938  1  0.163000  0.993800  0.269200  1
  C  C1939  1  0.993800  0.337000  0.269200  1
  C  C1940  1  0.506200  0.163000  0.269200  1
  C  C1941  1  0.163000  0.506200  0.230800  1
  C  C1942  1  0.337000  0.993800  0.230800  1
  C  C1943  1  0.506200  0.337000  0.230800  1
  C  C1944  1  0.993800  0.163000  0.230800  1
  C  C1945  1  0.659500  0.427500  0.728700  1
  C  C1946  1  0.840500  0.072500  0.728700  1
  C  C1947  1  0.072500  0.659500  0.728700  1
  C  C1948  1  0.427500  0.840500  0.728700  1
  C  C1949  1  0.840500  0.427500  0.771300  1
  C  C1950  1  0.659500  0.072500  0.771300  1
  C  C1951  1  0.427500  0.659500  0.771300  1
  C  C1952  1  0.072500  0.840500  0.771300  1
  C  C1953  1  0.340500  0.572500  0.271300  1
  C  C1954  1  0.159500  0.927500  0.271300  1
  C  C1955  1  0.927500  0.340500  0.271300  1
  C  C1956  1  0.572500  0.159500  0.271300  1
  C  C1957  1  0.159500  0.572500  0.228700  1
  C  C1958  1  0.340500  0.927500  0.228700  1
  C  C1959  1  0.572500  0.340500  0.228700  1
  C  C1960  1  0.927500  0.159500  0.228700  1
  C  C1961  1  0.652400  0.398400  0.692800  1
  C  C1962  1  0.847600  0.101600  0.692800  1
  C  C1963  1  0.101600  0.652400  0.692800  1
  C  C1964  1  0.398400  0.847600  0.692800  1
  C  C1965  1  0.847600  0.398400  0.807200  1
  C  C1966  1  0.652400  0.101600  0.807200  1
  C  C1967  1  0.398400  0.652400  0.807200  1
  C  C1968  1  0.101600  0.847600  0.807200  1
  C  C1969  1  0.347600  0.601600  0.307200  1
  C  C1970  1  0.152400  0.898400  0.307200  1
  C  C1971  1  0.898400  0.347600  0.307200  1
  C  C1972  1  0.601600  0.152400  0.307200  1
  C  C1973  1  0.152400  0.601600  0.192800  1
  C  C1974  1  0.347600  0.898400  0.192800  1
  C  C1975  1  0.601600  0.347600  0.192800  1
  C  C1976  1  0.898400  0.152400  0.192800  1
  C  C1977  1  0.643000  0.433800  0.658800  1
  C  C1978  1  0.857000  0.066200  0.658800  1
  C  C1979  1  0.066200  0.643000  0.658800  1
  C  C1980  1  0.433800  0.857000  0.658800  1
  C  C1981  1  0.857000  0.433800  0.841200  1
  C  C1982  1  0.643000  0.066200  0.841200  1
  C  C1983  1  0.433800  0.643000  0.841200  1
  C  C1984  1  0.066200  0.857000  0.841200  1
  C  C1985  1  0.357000  0.566200  0.341200  1
  C  C1986  1  0.143000  0.933800  0.341200  1
  C  C1987  1  0.933800  0.357000  0.341200  1
  C  C1988  1  0.566200  0.143000  0.341200  1
  C  C1989  1  0.143000  0.566200  0.158800  1
  C  C1990  1  0.357000  0.933800  0.158800  1
  C  C1991  1  0.566200  0.357000  0.158800  1
  C  C1992  1  0.933800  0.143000  0.158800  1
  C  C1993  1  0.614600  0.337800  0.619500  1
  C  C1994  1  0.885400  0.162200  0.619500  1
  C  C1995  1  0.162200  0.614600  0.619500  1
  C  C1996  1  0.337800  0.885400  0.619500  1
  C  C1997  1  0.885400  0.337800  0.880500  1
  C  C1998  1  0.614600  0.162200  0.880500  1
  C  C1999  1  0.337800  0.614600  0.880500  1
  C  C2000  1  0.162200  0.885400  0.880500  1
  C  C2001  1  0.385400  0.662200  0.380500  1
  C  C2002  1  0.114600  0.837800  0.380500  1
  C  C2003  1  0.837800  0.385400  0.380500  1
  C  C2004  1  0.662200  0.114600  0.380500  1
  C  C2005  1  0.114600  0.662200  0.119500  1
  C  C2006  1  0.385400  0.837800  0.119500  1
  C  C2007  1  0.662200  0.385400  0.119500  1
  C  C2008  1  0.837800  0.114600  0.119500  1
  C  C2009  1  0.537500  0.336900  0.617800  1
  C  C2010  1  0.962500  0.163100  0.617800  1
  C  C2011  1  0.163100  0.537500  0.617800  1
  C  C2012  1  0.336900  0.962500  0.617800  1
  C  C2013  1  0.962500  0.336900  0.882200  1
  C  C2014  1  0.537500  0.163100  0.882200  1
  C  C2015  1  0.336900  0.537500  0.882200  1
  C  C2016  1  0.163100  0.962500  0.882200  1
  C  C2017  1  0.462500  0.663100  0.382200  1
  C  C2018  1  0.037500  0.836900  0.382200  1
  C  C2019  1  0.836900  0.462500  0.382200  1
  C  C2020  1  0.663100  0.037500  0.382200  1
  C  C2021  1  0.037500  0.663100  0.117800  1
  C  C2022  1  0.462500  0.836900  0.117800  1
  C  C2023  1  0.663100  0.462500  0.117800  1
  C  C2024  1  0.836900  0.037500  0.117800  1
  C  C2025  1  0.520100  0.321500  0.661800  1
  C  C2026  1  0.979900  0.178500  0.661800  1
  C  C2027  1  0.178500  0.520100  0.661800  1
  C  C2028  1  0.321500  0.979900  0.661800  1
  C  C2029  1  0.979900  0.321500  0.838200  1
  C  C2030  1  0.520100  0.178500  0.838200  1
  C  C2031  1  0.321500  0.520100  0.838200  1
  C  C2032  1  0.178500  0.979900  0.838200  1
  C  C2033  1  0.479900  0.678500  0.338200  1
  C  C2034  1  0.020100  0.821500  0.338200  1
  C  C2035  1  0.821500  0.479900  0.338200  1
  C  C2036  1  0.678500  0.020100  0.338200  1
  C  C2037  1  0.020100  0.678500  0.161800  1
  C  C2038  1  0.479900  0.821500  0.161800  1
  C  C2039  1  0.678500  0.479900  0.161800  1
  C  C2040  1  0.821500  0.020100  0.161800  1
  C  C2041  1  0.453400  0.343900  0.677200  1
  C  C2042  1  0.046600  0.156100  0.677200  1
  C  C2043  1  0.156100  0.453400  0.677200  1
  C  C2044  1  0.343900  0.046600  0.677200  1
  C  C2045  1  0.046600  0.343900  0.822800  1
  C  C2046  1  0.453400  0.156100  0.822800  1
  C  C2047  1  0.343900  0.453400  0.822800  1
  C  C2048  1  0.156100  0.046600  0.822800  1
  C  C2049  1  0.546600  0.656100  0.322800  1
  C  C2050  1  0.953400  0.843900  0.322800  1
  C  C2051  1  0.843900  0.546600  0.322800  1
  C  C2052  1  0.656100  0.953400  0.322800  1
  C  C2053  1  0.953400  0.656100  0.177200  1
  C  C2054  1  0.546600  0.843900  0.177200  1
  C  C2055  1  0.656100  0.546600  0.177200  1
  C  C2056  1  0.843900  0.953400  0.177200  1
  C  C2057  1  0.448400  0.328300  0.722800  1
  C  C2058  1  0.051600  0.171700  0.722800  1
  C  C2059  1  0.171700  0.448400  0.722800  1
  C  C2060  1  0.328300  0.051600  0.722800  1
  C  C2061  1  0.051600  0.328300  0.777200  1
  C  C2062  1  0.448400  0.171700  0.777200  1
  C  C2063  1  0.328300  0.448400  0.777200  1
  C  C2064  1  0.171700  0.051600  0.777200  1
  C  C2065  1  0.551600  0.671700  0.277200  1
  C  C2066  1  0.948400  0.828300  0.277200  1
  C  C2067  1  0.828300  0.551600  0.277200  1
  C  C2068  1  0.671700  0.948400  0.277200  1
  C  C2069  1  0.948400  0.671700  0.222800  1
  C  C2070  1  0.551600  0.828300  0.222800  1
  C  C2071  1  0.671700  0.551600  0.222800  1
  C  C2072  1  0.828300  0.948400  0.222800  1
  C  C2073  1  0.514100  0.297100  0.737300  1
  C  C2074  1  0.985900  0.202900  0.737300  1
  C  C2075  1  0.202900  0.514100  0.737300  1
  C  C2076  1  0.297100  0.985900  0.737300  1
  C  C2077  1  0.985900  0.297100  0.762700  1
  C  C2078  1  0.514100  0.202900  0.762700  1
  C  C2079  1  0.297100  0.514100  0.762700  1
  C  C2080  1  0.202900  0.985900  0.762700  1
  C  C2081  1  0.485900  0.702900  0.262700  1
  C  C2082  1  0.014100  0.797100  0.262700  1
  C  C2083  1  0.797100  0.485900  0.262700  1
  C  C2084  1  0.702900  0.014100  0.262700  1
  C  C2085  1  0.014100  0.702900  0.237300  1
  C  C2086  1  0.485900  0.797100  0.237300  1
  C  C2087  1  0.702900  0.485900  0.237300  1
  C  C2088  1  0.797100  0.014100  0.237300  1
  C  C2089  1  0.655000  0.499000  0.581500  1
  C  C2090  1  0.845000  0.001000  0.581500  1
  C  C2091  1  0.001000  0.655000  0.581500  1
  C  C2092  1  0.499000  0.845000  0.581500  1
  C  C2093  1  0.845000  0.499000  0.918500  1
  C  C2094  1  0.655000  0.001000  0.918500  1
  C  C2095  1  0.499000  0.655000  0.918500  1
  C  C2096  1  0.001000  0.845000  0.918500  1
  C  C2097  1  0.345000  0.501000  0.418500  1
  C  C2098  1  0.155000  0.999000  0.418500  1
  C  C2099  1  0.999000  0.345000  0.418500  1
  C  C2100  1  0.501000  0.155000  0.418500  1
  C  C2101  1  0.155000  0.501000  0.081500  1
  C  C2102  1  0.345000  0.999000  0.081500  1
  C  C2103  1  0.501000  0.345000  0.081500  1
  C  C2104  1  0.999000  0.155000  0.081500  1
  C  C2105  1  0.669000  0.525500  0.545500  1
  C  C2106  1  0.831000  0.974500  0.545500  1
  C  C2107  1  0.974500  0.669000  0.545500  1
  C  C2108  1  0.525500  0.831000  0.545500  1
  C  C2109  1  0.831000  0.525500  0.954500  1
  C  C2110  1  0.669000  0.974500  0.954500  1
  C  C2111  1  0.525500  0.669000  0.954500  1
  C  C2112  1  0.974500  0.831000  0.954500  1
  C  C2113  1  0.331000  0.474500  0.454500  1
  C  C2114  1  0.169000  0.025500  0.454500  1
  C  C2115  1  0.025500  0.331000  0.454500  1
  C  C2116  1  0.474500  0.169000  0.454500  1
  C  C2117  1  0.169000  0.474500  0.045500  1
  C  C2118  1  0.331000  0.025500  0.045500  1
  C  C2119  1  0.474500  0.331000  0.045500  1
  C  C2120  1  0.025500  0.169000  0.045500  1
  C  C2121  1  0.684000  0.487200  0.513200  1
  C  C2122  1  0.816000  0.012800  0.513200  1
  C  C2123  1  0.012800  0.684000  0.513200  1
  C  C2124  1  0.487200  0.816000  0.513200  1
  C  C2125  1  0.816000  0.487200  0.986800  1
  C  C2126  1  0.684000  0.012800  0.986800  1
  C  C2127  1  0.487200  0.684000  0.986800  1
  C  C2128  1  0.012800  0.816000  0.986800  1
  C  C2129  1  0.316000  0.512800  0.486800  1
  C  C2130  1  0.184000  0.987200  0.486800  1
  C  C2131  1  0.987200  0.316000  0.486800  1
  C  C2132  1  0.512800  0.184000  0.486800  1
  C  C2133  1  0.184000  0.512800  0.013200  1
  C  C2134  1  0.316000  0.987200  0.013200  1
  C  C2135  1  0.512800  0.316000  0.013200  1
  C  C2136  1  0.987200  0.184000  0.013200  1
  C  C2137  1  0.684700  0.421100  0.520000  1
  C  C2138  1  0.815300  0.078900  0.520000  1
  C  C2139  1  0.078900  0.684700  0.520000  1
  C  C2140  1  0.421100  0.815300  0.520000  1
  C  C2141  1  0.815300  0.421100  0.980000  1
  C  C2142  1  0.684700  0.078900  0.980000  1
  C  C2143  1  0.421100  0.684700  0.980000  1
  C  C2144  1  0.078900  0.815300  0.980000  1
  C  C2145  1  0.315300  0.578900  0.480000  1
  C  C2146  1  0.184700  0.921100  0.480000  1
  C  C2147  1  0.921100  0.315300  0.480000  1
  C  C2148  1  0.578900  0.184700  0.480000  1
  C  C2149  1  0.184700  0.578900  0.020000  1
  C  C2150  1  0.315300  0.921100  0.020000  1
  C  C2151  1  0.578900  0.315300  0.020000  1
  C  C2152  1  0.921100  0.184700  0.020000  1
  C  C2153  1  0.672300  0.395000  0.555900  1
  C  C2154  1  0.827700  0.105000  0.555900  1
  C  C2155  1  0.105000  0.672300  0.555900  1
  C  C2156  1  0.395000  0.827700  0.555900  1
  C  C2157  1  0.827700  0.395000  0.944100  1
  C  C2158  1  0.672300  0.105000  0.944100  1
  C  C2159  1  0.395000  0.672300  0.944100  1
  C  C2160  1  0.105000  0.827700  0.944100  1
  C  C2161  1  0.327700  0.605000  0.444100  1
  C  C2162  1  0.172300  0.895000  0.444100  1
  C  C2163  1  0.895000  0.327700  0.444100  1
  C  C2164  1  0.605000  0.172300  0.444100  1
  C  C2165  1  0.172300  0.605000  0.055900  1
  C  C2166  1  0.327700  0.895000  0.055900  1
  C  C2167  1  0.605000  0.327700  0.055900  1
  C  C2168  1  0.895000  0.172300  0.055900  1
  C  C2169  1  0.655100  0.433100  0.587300  1
  C  C2170  1  0.844900  0.066900  0.587300  1
  C  C2171  1  0.066900  0.655100  0.587300  1
  C  C2172  1  0.433100  0.844900  0.587300  1
  C  C2173  1  0.844900  0.433100  0.912700  1
  C  C2174  1  0.655100  0.066900  0.912700  1
  C  C2175  1  0.433100  0.655100  0.912700  1
  C  C2176  1  0.066900  0.844900  0.912700  1
  C  C2177  1  0.344900  0.566900  0.412700  1
  C  C2178  1  0.155100  0.933100  0.412700  1
  C  C2179  1  0.933100  0.344900  0.412700  1
  C  C2180  1  0.566900  0.155100  0.412700  1
  C  C2181  1  0.155100  0.566900  0.087300  1
  C  C2182  1  0.344900  0.933100  0.087300  1
  C  C2183  1  0.566900  0.344900  0.087300  1
  C  C2184  1  0.933100  0.155100  0.087300  1
  C  C2185  1  0.555600  0.426200  0.805000  1
  C  C2186  1  0.944400  0.073800  0.805000  1
  C  C2187  1  0.073800  0.555600  0.805000  1
  C  C2188  1  0.426200  0.944400  0.805000  1
  C  C2189  1  0.944400  0.426200  0.695000  1
  C  C2190  1  0.555600  0.073800  0.695000  1
  C  C2191  1  0.426200  0.555600  0.695000  1
  C  C2192  1  0.073800  0.944400  0.695000  1
  C  C2193  1  0.444400  0.573800  0.195000  1
  C  C2194  1  0.055600  0.926200  0.195000  1
  C  C2195  1  0.926200  0.444400  0.195000  1
  C  C2196  1  0.573800  0.055600  0.195000  1
  C  C2197  1  0.055600  0.573800  0.305000  1
  C  C2198  1  0.444400  0.926200  0.305000  1
  C  C2199  1  0.573800  0.444400  0.305000  1
  C  C2200  1  0.926200  0.055600  0.305000  1
  C  C2201  1  0.606700  0.389000  0.822000  1
  C  C2202  1  0.893300  0.111000  0.822000  1
  C  C2203  1  0.111000  0.606700  0.822000  1
  C  C2204  1  0.389000  0.893300  0.822000  1
  C  C2205  1  0.893300  0.389000  0.678000  1
  C  C2206  1  0.606700  0.111000  0.678000  1
  C  C2207  1  0.389000  0.606700  0.678000  1
  C  C2208  1  0.111000  0.893300  0.678000  1
  C  C2209  1  0.393300  0.611000  0.178000  1
  C  C2210  1  0.106700  0.889000  0.178000  1
  C  C2211  1  0.889000  0.393300  0.178000  1
  C  C2212  1  0.611000  0.106700  0.178000  1
  C  C2213  1  0.106700  0.611000  0.322000  1
  C  C2214  1  0.393300  0.889000  0.322000  1
  C  C2215  1  0.611000  0.393300  0.322000  1
  C  C2216  1  0.889000  0.106700  0.322000  1
  C  C2217  1  0.663000  0.351000  0.876900  1
  C  C2218  1  0.837000  0.149000  0.876900  1
  C  C2219  1  0.149000  0.663000  0.876900  1
  C  C2220  1  0.351000  0.837000  0.876900  1
  C  C2221  1  0.837000  0.351000  0.623100  1
  C  C2222  1  0.663000  0.149000  0.623100  1
  C  C2223  1  0.351000  0.663000  0.623100  1
  C  C2224  1  0.149000  0.837000  0.623100  1
  C  C2225  1  0.337000  0.649000  0.123100  1
  C  C2226  1  0.163000  0.851000  0.123100  1
  C  C2227  1  0.851000  0.337000  0.123100  1
  C  C2228  1  0.649000  0.163000  0.123100  1
  C  C2229  1  0.163000  0.649000  0.376900  1
  C  C2230  1  0.337000  0.851000  0.376900  1
  C  C2231  1  0.649000  0.337000  0.376900  1
  C  C2232  1  0.851000  0.163000  0.376900  1
  C  C2233  1  0.650000  0.329000  0.916900  1
  C  C2234  1  0.850000  0.171000  0.916900  1
  C  C2235  1  0.171000  0.650000  0.916900  1
  C  C2236  1  0.329000  0.850000  0.916900  1
  C  C2237  1  0.850000  0.329000  0.583100  1
  C  C2238  1  0.650000  0.171000  0.583100  1
  C  C2239  1  0.329000  0.650000  0.583100  1
  C  C2240  1  0.171000  0.850000  0.583100  1
  C  C2241  1  0.350000  0.671000  0.083100  1
  C  C2242  1  0.150000  0.829000  0.083100  1
  C  C2243  1  0.829000  0.350000  0.083100  1
  C  C2244  1  0.671000  0.150000  0.083100  1
  C  C2245  1  0.150000  0.671000  0.416900  1
  C  C2246  1  0.350000  0.829000  0.416900  1
  C  C2247  1  0.671000  0.350000  0.416900  1
  C  C2248  1  0.829000  0.150000  0.416900  1
  C  C2249  1  0.558000  0.451500  0.938400  1
  C  C2250  1  0.942000  0.048500  0.938400  1
  C  C2251  1  0.048500  0.558000  0.938400  1
  C  C2252  1  0.451500  0.942000  0.938400  1
  C  C2253  1  0.942000  0.451500  0.561600  1
  C  C2254  1  0.558000  0.048500  0.561600  1
  C  C2255  1  0.451500  0.558000  0.561600  1
  C  C2256  1  0.048500  0.942000  0.561600  1
  C  C2257  1  0.442000  0.548500  0.061600  1
  C  C2258  1  0.058000  0.951500  0.061600  1
  C  C2259  1  0.951500  0.442000  0.061600  1
  C  C2260  1  0.548500  0.058000  0.061600  1
  C  C2261  1  0.058000  0.548500  0.438400  1
  C  C2262  1  0.442000  0.951500  0.438400  1
  C  C2263  1  0.548500  0.442000  0.438400  1
  C  C2264  1  0.951500  0.058000  0.438400  1
  C  C2265  1  0.611300  0.403700  0.931500  1
  C  C2266  1  0.888700  0.096300  0.931500  1
  C  C2267  1  0.096300  0.611300  0.931500  1
  C  C2268  1  0.403700  0.888700  0.931500  1
  C  C2269  1  0.888700  0.403700  0.568500  1
  C  C2270  1  0.611300  0.096300  0.568500  1
  C  C2271  1  0.403700  0.611300  0.568500  1
  C  C2272  1  0.096300  0.888700  0.568500  1
  C  C2273  1  0.388700  0.596300  0.068500  1
  C  C2274  1  0.111300  0.903700  0.068500  1
  C  C2275  1  0.903700  0.388700  0.068500  1
  C  C2276  1  0.596300  0.111300  0.068500  1
  C  C2277  1  0.111300  0.596300  0.431500  1
  C  C2278  1  0.388700  0.903700  0.431500  1
  C  C2279  1  0.596300  0.388700  0.431500  1
  C  C2280  1  0.903700  0.111300  0.431500  1
  C  C2281  1  0.667000  0.347800  0.882600  1
  C  C2282  1  0.833000  0.152200  0.882600  1
  C  C2283  1  0.152200  0.667000  0.882600  1
  C  C2284  1  0.347800  0.833000  0.882600  1
  C  C2285  1  0.833000  0.347800  0.617400  1
  C  C2286  1  0.667000  0.152200  0.617400  1
  C  C2287  1  0.347800  0.667000  0.617400  1
  C  C2288  1  0.152200  0.833000  0.617400  1
  C  C2289  1  0.333000  0.652200  0.117400  1
  C  C2290  1  0.167000  0.847800  0.117400  1
  C  C2291  1  0.847800  0.333000  0.117400  1
  C  C2292  1  0.652200  0.167000  0.117400  1
  C  C2293  1  0.167000  0.652200  0.382600  1
  C  C2294  1  0.333000  0.847800  0.382600  1
  C  C2295  1  0.652200  0.333000  0.382600  1
  C  C2296  1  0.847800  0.167000  0.382600  1
  C  C2297  1  0.661000  0.331600  0.839700  1
  C  C2298  1  0.839000  0.168400  0.839700  1
  C  C2299  1  0.168400  0.661000  0.839700  1
  C  C2300  1  0.331600  0.839000  0.839700  1
  C  C2301  1  0.839000  0.331600  0.660300  1
  C  C2302  1  0.661000  0.168400  0.660300  1
  C  C2303  1  0.331600  0.661000  0.660300  1
  C  C2304  1  0.168400  0.839000  0.660300  1
  C  C2305  1  0.339000  0.668400  0.160300  1
  C  C2306  1  0.161000  0.831600  0.160300  1
  C  C2307  1  0.831600  0.339000  0.160300  1
  C  C2308  1  0.668400  0.161000  0.160300  1
  C  C2309  1  0.161000  0.668400  0.339700  1
  C  C2310  1  0.339000  0.831600  0.339700  1
  C  C2311  1  0.668400  0.339000  0.339700  1
  C  C2312  1  0.831600  0.161000  0.339700  1
  C  C2313  1  0.715730  0.622950  0.910200  1.0
  C  C2314  1  0.784270  0.877050  0.910200  1.0
  C  C2315  1  0.877050  0.715730  0.910200  1.0
  C  C2316  1  0.622950  0.784270  0.910200  1.0
  C  C2317  1  0.784270  0.622950  0.589800  1.0
  C  C2318  1  0.715730  0.877050  0.589800  1.0
  C  C2319  1  0.622950  0.715730  0.589800  1.0
  C  C2320  1  0.877050  0.784270  0.589800  1.0
  C  C2321  1  0.284270  0.377050  0.089800  1.0
  C  C2322  1  0.215730  0.122950  0.089800  1.0
  C  C2323  1  0.122950  0.284270  0.089800  1.0
  C  C2324  1  0.377050  0.215730  0.089800  1.0
  C  C2325  1  0.215730  0.377050  0.410200  1.0
  C  C2326  1  0.284270  0.122950  0.410200  1.0
  C  C2327  1  0.377050  0.284270  0.410200  1.0
  C  C2328  1  0.122950  0.215730  0.410200  1.0
  C  C2329  1  0.697610  0.559760  0.908070  1.0
  C  C2330  1  0.802390  0.940240  0.908070  1.0
  C  C2331  1  0.940240  0.697610  0.908070  1.0
  C  C2332  1  0.559760  0.802390  0.908070  1.0
  C  C2333  1  0.802390  0.559760  0.591930  1.0
  C  C2334  1  0.697610  0.940240  0.591930  1.0
  C  C2335  1  0.559760  0.697610  0.591930  1.0
  C  C2336  1  0.940240  0.802390  0.591930  1.0
  C  C2337  1  0.302390  0.440240  0.091930  1.0
  C  C2338  1  0.197610  0.059760  0.091930  1.0
  C  C2339  1  0.059760  0.302390  0.091930  1.0
  C  C2340  1  0.440240  0.197610  0.091930  1.0
  C  C2341  1  0.197610  0.440240  0.408070  1.0
  C  C2342  1  0.302390  0.059760  0.408070  1.0
  C  C2343  1  0.440240  0.302390  0.408070  1.0
  C  C2344  1  0.059760  0.197610  0.408070  1.0
  C  C2345  1  0.685300  0.532290  0.872190  1.0
  C  C2346  1  0.814700  0.967710  0.872190  1.0
  C  C2347  1  0.967710  0.685300  0.872190  1.0
  C  C2348  1  0.532290  0.814700  0.872190  1.0
  C  C2349  1  0.814700  0.532290  0.627810  1.0
  C  C2350  1  0.685300  0.967710  0.627810  1.0
  C  C2351  1  0.532290  0.685300  0.627810  1.0
  C  C2352  1  0.967710  0.814700  0.627810  1.0
  C  C2353  1  0.314700  0.467710  0.127810  1.0
  C  C2354  1  0.185300  0.032290  0.127810  1.0
  C  C2355  1  0.032290  0.314700  0.127810  1.0
  C  C2356  1  0.467710  0.185300  0.127810  1.0
  C  C2357  1  0.185300  0.467710  0.372190  1.0
  C  C2358  1  0.314700  0.032290  0.372190  1.0
  C  C2359  1  0.467710  0.314700  0.372190  1.0
  C  C2360  1  0.032290  0.185300  0.372190  1.0
  C  C2361  1  0.691470  0.569080  0.838440  1.0
  C  C2362  1  0.808530  0.930920  0.838440  1.0
  C  C2363  1  0.930920  0.691470  0.838440  1.0
  C  C2364  1  0.569080  0.808530  0.838440  1.0
  C  C2365  1  0.808530  0.569080  0.661560  1.0
  C  C2366  1  0.691470  0.930920  0.661560  1.0
  C  C2367  1  0.569080  0.691470  0.661560  1.0
  C  C2368  1  0.930920  0.808530  0.661560  1.0
  C  C2369  1  0.308530  0.430920  0.161560  1.0
  C  C2370  1  0.191470  0.069080  0.161560  1.0
  C  C2371  1  0.069080  0.308530  0.161560  1.0
  C  C2372  1  0.430920  0.191470  0.161560  1.0
  C  C2373  1  0.191470  0.430920  0.338440  1.0
  C  C2374  1  0.308530  0.069080  0.338440  1.0
  C  C2375  1  0.430920  0.308530  0.338440  1.0
  C  C2376  1  0.069080  0.191470  0.338440  1.0
  C  C2377  1  0.709700  0.632390  0.842600  1.0
  C  C2378  1  0.790300  0.867610  0.842600  1.0
  C  C2379  1  0.867610  0.709700  0.842600  1.0
  C  C2380  1  0.632390  0.790300  0.842600  1.0
  C  C2381  1  0.790300  0.632390  0.657400  1.0
  C  C2382  1  0.709700  0.867610  0.657400  1.0
  C  C2383  1  0.632390  0.709700  0.657400  1.0
  C  C2384  1  0.867610  0.790300  0.657400  1.0
  C  C2385  1  0.290300  0.367610  0.157400  1.0
  C  C2386  1  0.209700  0.132390  0.157400  1.0
  C  C2387  1  0.132390  0.290300  0.157400  1.0
  C  C2388  1  0.367610  0.209700  0.157400  1.0
  C  C2389  1  0.209700  0.367610  0.342600  1.0
  C  C2390  1  0.290300  0.132390  0.342600  1.0
  C  C2391  1  0.367610  0.290300  0.342600  1.0
  C  C2392  1  0.132390  0.209700  0.342600  1.0
  C  C2393  1  0.680050  0.543890  0.800390  1.0
  C  C2394  1  0.819950  0.956110  0.800390  1.0
  C  C2395  1  0.956110  0.680050  0.800390  1.0
  C  C2396  1  0.543890  0.819950  0.800390  1.0
  C  C2397  1  0.819950  0.543890  0.699610  1.0
  C  C2398  1  0.680050  0.956110  0.699610  1.0
  C  C2399  1  0.543890  0.680050  0.699610  1.0
  C  C2400  1  0.956110  0.819950  0.699610  1.0
  C  C2401  1  0.319950  0.456110  0.199610  1.0
  C  C2402  1  0.180050  0.043890  0.199610  1.0
  C  C2403  1  0.043890  0.319950  0.199610  1.0
  C  C2404  1  0.456110  0.180050  0.199610  1.0
  C  C2405  1  0.180050  0.456110  0.300390  1.0
  C  C2406  1  0.319950  0.043890  0.300390  1.0
  C  C2407  1  0.456110  0.319950  0.300390  1.0
  C  C2408  1  0.043890  0.180050  0.300390  1.0
  C  C2409  1  0.672810  0.522560  0.768200  1.0
  C  C2410  1  0.827190  0.977440  0.768200  1.0
  C  C2411  1  0.977440  0.672810  0.768200  1.0
  C  C2412  1  0.522560  0.827190  0.768200  1.0
  C  C2413  1  0.827190  0.522560  0.731800  1.0
  C  C2414  1  0.672810  0.977440  0.731800  1.0
  C  C2415  1  0.522560  0.672810  0.731800  1.0
  C  C2416  1  0.977440  0.827190  0.731800  1.0
  C  C2417  1  0.327190  0.477440  0.231800  1.0
  C  C2418  1  0.172810  0.022560  0.231800  1.0
  C  C2419  1  0.022560  0.327190  0.231800  1.0
  C  C2420  1  0.477440  0.172810  0.231800  1.0
  C  C2421  1  0.172810  0.477440  0.268200  1.0
  C  C2422  1  0.327190  0.022560  0.268200  1.0
  C  C2423  1  0.477440  0.327190  0.268200  1.0
  C  C2424  1  0.022560  0.172810  0.268200  1.0
  C  C2425  1  0.648900  0.330400  0.620500  1.0
  C  C2426  1  0.851100  0.169600  0.620500  1.0
  C  C2427  1  0.169600  0.648900  0.620500  1.0
  C  C2428  1  0.330400  0.851100  0.620500  1.0
  C  C2429  1  0.851100  0.330400  0.879500  1.0
  C  C2430  1  0.648900  0.169600  0.879500  1.0
  C  C2431  1  0.330400  0.648900  0.879500  1.0
  C  C2432  1  0.169600  0.851100  0.879500  1.0
  C  C2433  1  0.351100  0.669600  0.379500  1.0
  C  C2434  1  0.148900  0.830400  0.379500  1.0
  C  C2435  1  0.830400  0.351100  0.379500  1.0
  C  C2436  1  0.669600  0.148900  0.379500  1.0
  C  C2437  1  0.148900  0.669600  0.120500  1.0
  C  C2438  1  0.351100  0.830400  0.120500  1.0
  C  C2439  1  0.669600  0.351100  0.120500  1.0
  C  C2440  1  0.830400  0.148900  0.120500  1.0
  C  C2441  1  0.582400  0.313200  0.638050  1.0
  C  C2442  1  0.917600  0.186800  0.638050  1.0
  C  C2443  1  0.186800  0.582400  0.638050  1.0
  C  C2444  1  0.313200  0.917600  0.638050  1.0
  C  C2445  1  0.917600  0.313200  0.861950  1.0
  C  C2446  1  0.582400  0.186800  0.861950  1.0
  C  C2447  1  0.313200  0.582400  0.861950  1.0
  C  C2448  1  0.186800  0.917600  0.861950  1.0
  C  C2449  1  0.417600  0.686800  0.361950  1.0
  C  C2450  1  0.082400  0.813200  0.361950  1.0
  C  C2451  1  0.813200  0.417600  0.361950  1.0
  C  C2452  1  0.686800  0.082400  0.361950  1.0
  C  C2453  1  0.082400  0.686800  0.138050  1.0
  C  C2454  1  0.417600  0.813200  0.138050  1.0
  C  C2455  1  0.686800  0.417600  0.138050  1.0
  C  C2456  1  0.813200  0.082400  0.138050  1.0
  C  C2457  1  0.524900  0.348400  0.619400  1.0
  C  C2458  1  0.975100  0.151600  0.619400  1.0
  C  C2459  1  0.151600  0.524900  0.619400  1.0
  C  C2460  1  0.348400  0.975100  0.619400  1.0
  C  C2461  1  0.975100  0.348400  0.880600  1.0
  C  C2462  1  0.524900  0.151600  0.880600  1.0
  C  C2463  1  0.348400  0.524900  0.880600  1.0
  C  C2464  1  0.151600  0.975100  0.880600  1.0
  C  C2465  1  0.475100  0.651600  0.380600  1.0
  C  C2466  1  0.024900  0.848400  0.380600  1.0
  C  C2467  1  0.848400  0.475100  0.380600  1.0
  C  C2468  1  0.651600  0.024900  0.380600  1.0
  C  C2469  1  0.024900  0.651600  0.119400  1.0
  C  C2470  1  0.475100  0.848400  0.119400  1.0
  C  C2471  1  0.651600  0.475100  0.119400  1.0
  C  C2472  1  0.848400  0.024900  0.119400  1.0
  C  C2473  1  0.522200  0.341000  0.575360  1.0
  C  C2474  1  0.977800  0.159000  0.575360  1.0
  C  C2475  1  0.159000  0.522200  0.575360  1.0
  C  C2476  1  0.341000  0.977800  0.575360  1.0
  C  C2477  1  0.977800  0.341000  0.924640  1.0
  C  C2478  1  0.522200  0.159000  0.924640  1.0
  C  C2479  1  0.341000  0.522200  0.924640  1.0
  C  C2480  1  0.159000  0.977800  0.924640  1.0
  C  C2481  1  0.477800  0.659000  0.424640  1.0
  C  C2482  1  0.022200  0.841000  0.424640  1.0
  C  C2483  1  0.841000  0.477800  0.424640  1.0
  C  C2484  1  0.659000  0.022200  0.424640  1.0
  C  C2485  1  0.022200  0.659000  0.075360  1.0
  C  C2486  1  0.477800  0.841000  0.075360  1.0
  C  C2487  1  0.659000  0.477800  0.075360  1.0
  C  C2488  1  0.841000  0.022200  0.075360  1.0
  C  C2489  1  0.460000  0.365600  0.558500  1.0
  C  C2490  1  0.040000  0.134400  0.558500  1.0
  C  C2491  1  0.134400  0.460000  0.558500  1.0
  C  C2492  1  0.365600  0.040000  0.558500  1.0
  C  C2493  1  0.040000  0.365600  0.941500  1.0
  C  C2494  1  0.460000  0.134400  0.941500  1.0
  C  C2495  1  0.365600  0.460000  0.941500  1.0
  C  C2496  1  0.134400  0.040000  0.941500  1.0
  C  C2497  1  0.540000  0.634400  0.441500  1.0
  C  C2498  1  0.960000  0.865600  0.441500  1.0
  C  C2499  1  0.865600  0.540000  0.441500  1.0
  C  C2500  1  0.634400  0.960000  0.441500  1.0
  C  C2501  1  0.960000  0.634400  0.058500  1.0
  C  C2502  1  0.540000  0.865600  0.058500  1.0
  C  C2503  1  0.634400  0.540000  0.058500  1.0
  C  C2504  1  0.865600  0.960000  0.058500  1.0
  C  C2505  1  0.453200  0.360700  0.515900  1.0
  C  C2506  1  0.046800  0.139300  0.515900  1.0
  C  C2507  1  0.139300  0.453200  0.515900  1.0
  C  C2508  1  0.360700  0.046800  0.515900  1.0
  C  C2509  1  0.046800  0.360700  0.984100  1.0
  C  C2510  1  0.453200  0.139300  0.984100  1.0
  C  C2511  1  0.360700  0.453200  0.984100  1.0
  C  C2512  1  0.139300  0.046800  0.984100  1.0
  C  C2513  1  0.546800  0.639300  0.484100  1.0
  C  C2514  1  0.953200  0.860700  0.484100  1.0
  C  C2515  1  0.860700  0.546800  0.484100  1.0
  C  C2516  1  0.639300  0.953200  0.484100  1.0
  C  C2517  1  0.953200  0.639300  0.015900  1.0
  C  C2518  1  0.546800  0.860700  0.015900  1.0
  C  C2519  1  0.639300  0.546800  0.015900  1.0
  C  C2520  1  0.860700  0.953200  0.015900  1.0
  C  C2521  1  0.687740  0.521330  0.476440  1.0
  C  C2522  1  0.812260  0.978670  0.476440  1.0
  C  C2523  1  0.978670  0.687740  0.476440  1.0
  C  C2524  1  0.521330  0.812260  0.476440  1.0
  C  C2525  1  0.812260  0.521330  0.023560  1.0
  C  C2526  1  0.687740  0.978670  0.023560  1.0
  C  C2527  1  0.521330  0.687740  0.023560  1.0
  C  C2528  1  0.978670  0.812260  0.023560  1.0
  C  C2529  1  0.312260  0.478670  0.523560  1.0
  C  C2530  1  0.187740  0.021330  0.523560  1.0
  C  C2531  1  0.021330  0.312260  0.523560  1.0
  C  C2532  1  0.478670  0.187740  0.523560  1.0
  C  C2533  1  0.187740  0.478670  0.976440  1.0
  C  C2534  1  0.312260  0.021330  0.976440  1.0
  C  C2535  1  0.478670  0.312260  0.976440  1.0
  C  C2536  1  0.021330  0.187740  0.976440  1.0
  C  C2537  1  0.689430  0.542110  0.443830  1.0
  C  C2538  1  0.810570  0.957890  0.443830  1.0
  C  C2539  1  0.957890  0.689430  0.443830  1.0
  C  C2540  1  0.542110  0.810570  0.443830  1.0
  C  C2541  1  0.810570  0.542110  0.056170  1.0
  C  C2542  1  0.689430  0.957890  0.056170  1.0
  C  C2543  1  0.542110  0.689430  0.056170  1.0
  C  C2544  1  0.957890  0.810570  0.056170  1.0
  C  C2545  1  0.310570  0.457890  0.556170  1.0
  C  C2546  1  0.189430  0.042110  0.556170  1.0
  C  C2547  1  0.042110  0.310570  0.556170  1.0
  C  C2548  1  0.457890  0.189430  0.556170  1.0
  C  C2549  1  0.189430  0.457890  0.943830  1.0
  C  C2550  1  0.310570  0.042110  0.943830  1.0
  C  C2551  1  0.457890  0.310570  0.943830  1.0
  C  C2552  1  0.042110  0.189430  0.943830  1.0
  C  C2553  1  0.693110  0.569200  0.405800  1.0
  C  C2554  1  0.806890  0.930800  0.405800  1.0
  C  C2555  1  0.930800  0.693110  0.405800  1.0
  C  C2556  1  0.569200  0.806890  0.405800  1.0
  C  C2557  1  0.806890  0.569200  0.094200  1.0
  C  C2558  1  0.693110  0.930800  0.094200  1.0
  C  C2559  1  0.569200  0.693110  0.094200  1.0
  C  C2560  1  0.930800  0.806890  0.094200  1.0
  C  C2561  1  0.306890  0.430800  0.594200  1.0
  C  C2562  1  0.193110  0.069200  0.594200  1.0
  C  C2563  1  0.069200  0.306890  0.594200  1.0
  C  C2564  1  0.430800  0.193110  0.594200  1.0
  C  C2565  1  0.193110  0.430800  0.905800  1.0
  C  C2566  1  0.306890  0.069200  0.905800  1.0
  C  C2567  1  0.430800  0.306890  0.905800  1.0
  C  C2568  1  0.069200  0.193110  0.905800  1.0
  C  C2569  1  0.676430  0.535590  0.372220  1.0
  C  C2570  1  0.823570  0.964410  0.372220  1.0
  C  C2571  1  0.964410  0.676430  0.372220  1.0
  C  C2572  1  0.535590  0.823570  0.372220  1.0
  C  C2573  1  0.823570  0.535590  0.127780  1.0
  C  C2574  1  0.676430  0.964410  0.127780  1.0
  C  C2575  1  0.535590  0.676430  0.127780  1.0
  C  C2576  1  0.964410  0.823570  0.127780  1.0
  C  C2577  1  0.323570  0.464410  0.627780  1.0
  C  C2578  1  0.176430  0.035590  0.627780  1.0
  C  C2579  1  0.035590  0.323570  0.627780  1.0
  C  C2580  1  0.464410  0.176430  0.627780  1.0
  C  C2581  1  0.176430  0.464410  0.872220  1.0
  C  C2582  1  0.323570  0.035590  0.872220  1.0
  C  C2583  1  0.464410  0.323570  0.872220  1.0
  C  C2584  1  0.035590  0.176430  0.872220  1.0
  C  C2585  1  0.681400  0.565300  0.336720  1.0
  C  C2586  1  0.818600  0.934700  0.336720  1.0
  C  C2587  1  0.934700  0.681400  0.336720  1.0
  C  C2588  1  0.565300  0.818600  0.336720  1.0
  C  C2589  1  0.818600  0.565300  0.163280  1.0
  C  C2590  1  0.681400  0.934700  0.163280  1.0
  C  C2591  1  0.565300  0.681400  0.163280  1.0
  C  C2592  1  0.934700  0.818600  0.163280  1.0
  C  C2593  1  0.318600  0.434700  0.663280  1.0
  C  C2594  1  0.181400  0.065300  0.663280  1.0
  C  C2595  1  0.065300  0.318600  0.663280  1.0
  C  C2596  1  0.434700  0.181400  0.663280  1.0
  C  C2597  1  0.181400  0.434700  0.836720  1.0
  C  C2598  1  0.318600  0.065300  0.836720  1.0
  C  C2599  1  0.434700  0.318600  0.836720  1.0
  C  C2600  1  0.065300  0.181400  0.836720  1.0
  C  C2601  1  0.702210  0.627510  0.334480  1.0
  C  C2602  1  0.797790  0.872490  0.334480  1.0
  C  C2603  1  0.872490  0.702210  0.334480  1.0
  C  C2604  1  0.627510  0.797790  0.334480  1.0
  C  C2605  1  0.797790  0.627510  0.165520  1.0
  C  C2606  1  0.702210  0.872490  0.165520  1.0
  C  C2607  1  0.627510  0.702210  0.165520  1.0
  C  C2608  1  0.872490  0.797790  0.165520  1.0
  C  C2609  1  0.297790  0.372490  0.665520  1.0
  C  C2610  1  0.202210  0.127510  0.665520  1.0
  C  C2611  1  0.127510  0.297790  0.665520  1.0
  C  C2612  1  0.372490  0.202210  0.665520  1.0
  C  C2613  1  0.202210  0.372490  0.834480  1.0
  C  C2614  1  0.297790  0.127510  0.834480  1.0
  C  C2615  1  0.372490  0.297790  0.834480  1.0
  C  C2616  1  0.127510  0.202210  0.834480  1.0
  C  C2617  1  0.713470  0.631620  0.401680  1.0
  C  C2618  1  0.786530  0.868380  0.401680  1.0
  C  C2619  1  0.868380  0.713470  0.401680  1.0
  C  C2620  1  0.631620  0.786530  0.401680  1.0
  C  C2621  1  0.786530  0.631620  0.098320  1.0
  C  C2622  1  0.713470  0.868380  0.098320  1.0
  C  C2623  1  0.631620  0.713470  0.098320  1.0
  C  C2624  1  0.868380  0.786530  0.098320  1.0
  C  C2625  1  0.286530  0.368380  0.598320  1.0
  C  C2626  1  0.213470  0.131620  0.598320  1.0
  C  C2627  1  0.131620  0.286530  0.598320  1.0
  C  C2628  1  0.368380  0.213470  0.598320  1.0
  C  C2629  1  0.213470  0.368380  0.901680  1.0
  C  C2630  1  0.286530  0.131620  0.901680  1.0
  C  C2631  1  0.368380  0.286530  0.901680  1.0
  C  C2632  1  0.131620  0.213470  0.901680  1.0
  C  C2633  1  0.647500  0.496700  0.661150  1.0
  C  C2634  1  0.852500  0.003300  0.661150  1.0
  C  C2635  1  0.003300  0.647500  0.661150  1.0
  C  C2636  1  0.496700  0.852500  0.661150  1.0
  C  C2637  1  0.852500  0.496700  0.838850  1.0
  C  C2638  1  0.647500  0.003300  0.838850  1.0
  C  C2639  1  0.496700  0.647500  0.838850  1.0
  C  C2640  1  0.003300  0.852500  0.838850  1.0
  C  C2641  1  0.352500  0.503300  0.338850  1.0
  C  C2642  1  0.147500  0.996700  0.338850  1.0
  C  C2643  1  0.996700  0.352500  0.338850  1.0
  C  C2644  1  0.503300  0.147500  0.338850  1.0
  C  C2645  1  0.147500  0.503300  0.161150  1.0
  C  C2646  1  0.352500  0.996700  0.161150  1.0
  C  C2647  1  0.503300  0.352500  0.161150  1.0
  C  C2648  1  0.996700  0.147500  0.161150  1.0
  C  C2649  1  0.652600  0.527300  0.697000  1.0
  C  C2650  1  0.847400  0.972700  0.697000  1.0
  C  C2651  1  0.972700  0.652600  0.697000  1.0
  C  C2652  1  0.527300  0.847400  0.697000  1.0
  C  C2653  1  0.847400  0.527300  0.803000  1.0
  C  C2654  1  0.652600  0.972700  0.803000  1.0
  C  C2655  1  0.527300  0.652600  0.803000  1.0
  C  C2656  1  0.972700  0.847400  0.803000  1.0
  C  C2657  1  0.347400  0.472700  0.303000  1.0
  C  C2658  1  0.152600  0.027300  0.303000  1.0
  C  C2659  1  0.027300  0.347400  0.303000  1.0
  C  C2660  1  0.472700  0.152600  0.303000  1.0
  C  C2661  1  0.152600  0.472700  0.197000  1.0
  C  C2662  1  0.347400  0.027300  0.197000  1.0
  C  C2663  1  0.472700  0.347400  0.197000  1.0
  C  C2664  1  0.027300  0.152600  0.197000  1.0
  C  C2665  1  0.667700  0.492900  0.730620  1.0
  C  C2666  1  0.832300  0.007100  0.730620  1.0
  C  C2667  1  0.007100  0.667700  0.730620  1.0
  C  C2668  1  0.492900  0.832300  0.730620  1.0
  C  C2669  1  0.832300  0.492900  0.769380  1.0
  C  C2670  1  0.667700  0.007100  0.769380  1.0
  C  C2671  1  0.492900  0.667700  0.769380  1.0
  C  C2672  1  0.007100  0.832300  0.769380  1.0
  C  C2673  1  0.332300  0.507100  0.269380  1.0
  C  C2674  1  0.167700  0.992900  0.269380  1.0
  C  C2675  1  0.992900  0.332300  0.269380  1.0
  C  C2676  1  0.507100  0.167700  0.269380  1.0
  C  C2677  1  0.167700  0.507100  0.230620  1.0
  C  C2678  1  0.332300  0.992900  0.230620  1.0
  C  C2679  1  0.507100  0.332300  0.230620  1.0
  C  C2680  1  0.992900  0.167700  0.230620  1.0
  C  C2681  1  0.679740  0.427900  0.726990  1.0
  C  C2682  1  0.820260  0.072100  0.726990  1.0
  C  C2683  1  0.072100  0.679740  0.726990  1.0
  C  C2684  1  0.427900  0.820260  0.726990  1.0
  C  C2685  1  0.820260  0.427900  0.773010  1.0
  C  C2686  1  0.679740  0.072100  0.773010  1.0
  C  C2687  1  0.427900  0.679740  0.773010  1.0
  C  C2688  1  0.072100  0.820260  0.773010  1.0
  C  C2689  1  0.320260  0.572100  0.273010  1.0
  C  C2690  1  0.179740  0.927900  0.273010  1.0
  C  C2691  1  0.927900  0.320260  0.273010  1.0
  C  C2692  1  0.572100  0.179740  0.273010  1.0
  C  C2693  1  0.179740  0.572100  0.226990  1.0
  C  C2694  1  0.320260  0.927900  0.226990  1.0
  C  C2695  1  0.572100  0.320260  0.226990  1.0
  C  C2696  1  0.927900  0.179740  0.226990  1.0
  C  C2697  1  0.677000  0.398210  0.691110  1.0
  C  C2698  1  0.823000  0.101790  0.691110  1.0
  C  C2699  1  0.101790  0.677000  0.691110  1.0
  C  C2700  1  0.398210  0.823000  0.691110  1.0
  C  C2701  1  0.823000  0.398210  0.808890  1.0
  C  C2702  1  0.677000  0.101790  0.808890  1.0
  C  C2703  1  0.398210  0.677000  0.808890  1.0
  C  C2704  1  0.101790  0.823000  0.808890  1.0
  C  C2705  1  0.323000  0.601790  0.308890  1.0
  C  C2706  1  0.177000  0.898210  0.308890  1.0
  C  C2707  1  0.898210  0.323000  0.308890  1.0
  C  C2708  1  0.601790  0.177000  0.308890  1.0
  C  C2709  1  0.177000  0.601790  0.191110  1.0
  C  C2710  1  0.323000  0.898210  0.191110  1.0
  C  C2711  1  0.601790  0.323000  0.191110  1.0
  C  C2712  1  0.898210  0.177000  0.191110  1.0
  C  C2713  1  0.659630  0.431440  0.657530  1.0
  C  C2714  1  0.840370  0.068560  0.657530  1.0
  C  C2715  1  0.068560  0.659630  0.657530  1.0
  C  C2716  1  0.431440  0.840370  0.657530  1.0
  C  C2717  1  0.840370  0.431440  0.842470  1.0
  C  C2718  1  0.659630  0.068560  0.842470  1.0
  C  C2719  1  0.431440  0.659630  0.842470  1.0
  C  C2720  1  0.068560  0.840370  0.842470  1.0
  C  C2721  1  0.340370  0.568560  0.342470  1.0
  C  C2722  1  0.159630  0.931440  0.342470  1.0
  C  C2723  1  0.931440  0.340370  0.342470  1.0
  C  C2724  1  0.568560  0.159630  0.342470  1.0
  C  C2725  1  0.159630  0.568560  0.157530  1.0
  C  C2726  1  0.340370  0.931440  0.157530  1.0
  C  C2727  1  0.568560  0.340370  0.157530  1.0
  C  C2728  1  0.931440  0.159630  0.157530  1.0
  C  C2729  1  0.653300  0.497200  0.582390  1.0
  C  C2730  1  0.846700  0.002800  0.582390  1.0
  C  C2731  1  0.002800  0.653300  0.582390  1.0
  C  C2732  1  0.497200  0.846700  0.582390  1.0
  C  C2733  1  0.846700  0.497200  0.917610  1.0
  C  C2734  1  0.653300  0.002800  0.917610  1.0
  C  C2735  1  0.497200  0.653300  0.917610  1.0
  C  C2736  1  0.002800  0.846700  0.917610  1.0
  C  C2737  1  0.346700  0.502800  0.417610  1.0
  C  C2738  1  0.153300  0.997200  0.417610  1.0
  C  C2739  1  0.997200  0.346700  0.417610  1.0
  C  C2740  1  0.502800  0.153300  0.417610  1.0
  C  C2741  1  0.153300  0.502800  0.082390  1.0
  C  C2742  1  0.346700  0.997200  0.082390  1.0
  C  C2743  1  0.502800  0.346700  0.082390  1.0
  C  C2744  1  0.997200  0.153300  0.082390  1.0
  C  C2745  1  0.662000  0.527500  0.546950  1.0
  C  C2746  1  0.838000  0.972500  0.546950  1.0
  C  C2747  1  0.972500  0.662000  0.546950  1.0
  C  C2748  1  0.527500  0.838000  0.546950  1.0
  C  C2749  1  0.838000  0.527500  0.953050  1.0
  C  C2750  1  0.662000  0.972500  0.953050  1.0
  C  C2751  1  0.527500  0.662000  0.953050  1.0
  C  C2752  1  0.972500  0.838000  0.953050  1.0
  C  C2753  1  0.338000  0.472500  0.453050  1.0
  C  C2754  1  0.162000  0.027500  0.453050  1.0
  C  C2755  1  0.027500  0.338000  0.453050  1.0
  C  C2756  1  0.472500  0.162000  0.453050  1.0
  C  C2757  1  0.162000  0.472500  0.046950  1.0
  C  C2758  1  0.338000  0.027500  0.046950  1.0
  C  C2759  1  0.472500  0.338000  0.046950  1.0
  C  C2760  1  0.027500  0.162000  0.046950  1.0
  C  C2761  1  0.683600  0.494000  0.514510  1.0
  C  C2762  1  0.816400  0.006000  0.514510  1.0
  C  C2763  1  0.006000  0.683600  0.514510  1.0
  C  C2764  1  0.494000  0.816400  0.514510  1.0
  C  C2765  1  0.816400  0.494000  0.985490  1.0
  C  C2766  1  0.683600  0.006000  0.985490  1.0
  C  C2767  1  0.494000  0.683600  0.985490  1.0
  C  C2768  1  0.006000  0.816400  0.985490  1.0
  C  C2769  1  0.316400  0.506000  0.485490  1.0
  C  C2770  1  0.183600  0.994000  0.485490  1.0
  C  C2771  1  0.994000  0.316400  0.485490  1.0
  C  C2772  1  0.506000  0.183600  0.485490  1.0
  C  C2773  1  0.183600  0.506000  0.014510  1.0
  C  C2774  1  0.316400  0.994000  0.014510  1.0
  C  C2775  1  0.506000  0.316400  0.014510  1.0
  C  C2776  1  0.994000  0.183600  0.014510  1.0
  C  C2777  1  0.701110  0.429930  0.518820  1.0
  C  C2778  1  0.798890  0.070070  0.518820  1.0
  C  C2779  1  0.070070  0.701110  0.518820  1.0
  C  C2780  1  0.429930  0.798890  0.518820  1.0
  C  C2781  1  0.798890  0.429930  0.981180  1.0
  C  C2782  1  0.701110  0.070070  0.981180  1.0
  C  C2783  1  0.429930  0.701110  0.981180  1.0
  C  C2784  1  0.070070  0.798890  0.981180  1.0
  C  C2785  1  0.298890  0.570070  0.481180  1.0
  C  C2786  1  0.201110  0.929930  0.481180  1.0
  C  C2787  1  0.929930  0.298890  0.481180  1.0
  C  C2788  1  0.570070  0.201110  0.481180  1.0
  C  C2789  1  0.201110  0.570070  0.018820  1.0
  C  C2790  1  0.298890  0.929930  0.018820  1.0
  C  C2791  1  0.570070  0.298890  0.018820  1.0
  C  C2792  1  0.929930  0.201110  0.018820  1.0
  C  C2793  1  0.693480  0.400520  0.554570  1.0
  C  C2794  1  0.806520  0.099480  0.554570  1.0
  C  C2795  1  0.099480  0.693480  0.554570  1.0
  C  C2796  1  0.400520  0.806520  0.554570  1.0
  C  C2797  1  0.806520  0.400520  0.945430  1.0
  C  C2798  1  0.693480  0.099480  0.945430  1.0
  C  C2799  1  0.400520  0.693480  0.945430  1.0
  C  C2800  1  0.099480  0.806520  0.945430  1.0
  C  C2801  1  0.306520  0.599480  0.445430  1.0
  C  C2802  1  0.193480  0.900520  0.445430  1.0
  C  C2803  1  0.900520  0.306520  0.445430  1.0
  C  C2804  1  0.599480  0.193480  0.445430  1.0
  C  C2805  1  0.193480  0.599480  0.054570  1.0
  C  C2806  1  0.306520  0.900520  0.054570  1.0
  C  C2807  1  0.599480  0.306520  0.054570  1.0
  C  C2808  1  0.900520  0.193480  0.054570  1.0
  C  C2809  1  0.667200  0.432380  0.586330  1.0
  C  C2810  1  0.832800  0.067620  0.586330  1.0
  C  C2811  1  0.067620  0.667200  0.586330  1.0
  C  C2812  1  0.432380  0.832800  0.586330  1.0
  C  C2813  1  0.832800  0.432380  0.913670  1.0
  C  C2814  1  0.667200  0.067620  0.913670  1.0
  C  C2815  1  0.432380  0.667200  0.913670  1.0
  C  C2816  1  0.067620  0.832800  0.913670  1.0
  C  C2817  1  0.332800  0.567620  0.413670  1.0
  C  C2818  1  0.167200  0.932380  0.413670  1.0
  C  C2819  1  0.932380  0.332800  0.413670  1.0
  C  C2820  1  0.567620  0.167200  0.413670  1.0
  C  C2821  1  0.167200  0.567620  0.086330  1.0
  C  C2822  1  0.332800  0.932380  0.086330  1.0
  C  C2823  1  0.567620  0.332800  0.086330  1.0
  C  C2824  1  0.932380  0.167200  0.086330  1.0
  S  S2825  1  0.626000  0.546200  0.620000  1
  S  S2826  1  0.874000  0.953800  0.620000  1
  S  S2827  1  0.953800  0.626000  0.620000  1
  S  S2828  1  0.546200  0.874000  0.620000  1
  S  S2829  1  0.874000  0.546200  0.880000  1
  S  S2830  1  0.626000  0.953800  0.880000  1
  S  S2831  1  0.546200  0.626000  0.880000  1
  S  S2832  1  0.953800  0.874000  0.880000  1
  S  S2833  1  0.374000  0.453800  0.380000  1
  S  S2834  1  0.126000  0.046200  0.380000  1
  S  S2835  1  0.046200  0.374000  0.380000  1
  S  S2836  1  0.453800  0.126000  0.380000  1
  S  S2837  1  0.126000  0.453800  0.120000  1
  S  S2838  1  0.374000  0.046200  0.120000  1
  S  S2839  1  0.453800  0.374000  0.120000  1
  S  S2840  1  0.046200  0.126000  0.120000  1
  S  S2841  1  0.619210  0.540660  0.620950  1.0
  S  S2842  1  0.880790  0.959340  0.620950  1.0
  S  S2843  1  0.959340  0.619210  0.620950  1.0
  S  S2844  1  0.540660  0.880790  0.620950  1.0
  S  S2845  1  0.880790  0.540660  0.879050  1.0
  S  S2846  1  0.619210  0.959340  0.879050  1.0
  S  S2847  1  0.540660  0.619210  0.879050  1.0
  S  S2848  1  0.959340  0.880790  0.879050  1.0
  S  S2849  1  0.380790  0.459340  0.379050  1.0
  S  S2850  1  0.119210  0.040660  0.379050  1.0
  S  S2851  1  0.040660  0.380790  0.379050  1.0
  S  S2852  1  0.459340  0.119210  0.379050  1.0
  S  S2853  1  0.119210  0.459340  0.120950  1.0
  S  S2854  1  0.380790  0.040660  0.120950  1.0
  S  S2855  1  0.459340  0.380790  0.120950  1.0
  S  S2856  1  0.040660  0.119210  0.120950  1.0
  N  N2857  1  0.633000  0.405300  0.622200  1
  N  N2858  1  0.867000  0.094700  0.622200  1
  N  N2859  1  0.094700  0.633000  0.622200  1
  N  N2860  1  0.405300  0.867000  0.622200  1
  N  N2861  1  0.867000  0.405300  0.877800  1
  N  N2862  1  0.633000  0.094700  0.877800  1
  N  N2863  1  0.405300  0.633000  0.877800  1
  N  N2864  1  0.094700  0.867000  0.877800  1
  N  N2865  1  0.367000  0.594700  0.377800  1
  N  N2866  1  0.133000  0.905300  0.377800  1
  N  N2867  1  0.905300  0.367000  0.377800  1
  N  N2868  1  0.594700  0.133000  0.377800  1
  N  N2869  1  0.133000  0.594700  0.122200  1
  N  N2870  1  0.367000  0.905300  0.122200  1
  N  N2871  1  0.594700  0.367000  0.122200  1
  N  N2872  1  0.905300  0.133000  0.122200  1
  N  N2873  1  0.721610  0.658340  0.877630  1.0
  N  N2874  1  0.778390  0.841660  0.877630  1.0
  N  N2875  1  0.841660  0.721610  0.877630  1.0
  N  N2876  1  0.658340  0.778390  0.877630  1.0
  N  N2877  1  0.778390  0.658340  0.622370  1.0
  N  N2878  1  0.721610  0.841660  0.622370  1.0
  N  N2879  1  0.658340  0.721610  0.622370  1.0
  N  N2880  1  0.841660  0.778390  0.622370  1.0
  N  N2881  1  0.278390  0.341660  0.122370  1.0
  N  N2882  1  0.221610  0.158340  0.122370  1.0
  N  N2883  1  0.158340  0.278390  0.122370  1.0
  N  N2884  1  0.341660  0.221610  0.122370  1.0
  N  N2885  1  0.221610  0.341660  0.377630  1.0
  N  N2886  1  0.278390  0.158340  0.377630  1.0
  N  N2887  1  0.341660  0.278390  0.377630  1.0
  N  N2888  1  0.158340  0.221610  0.377630  1.0
  N  N2889  1  0.718090  0.659880  0.366780  1.0
  N  N2890  1  0.781910  0.840120  0.366780  1.0
  N  N2891  1  0.840120  0.718090  0.366780  1.0
  N  N2892  1  0.659880  0.781910  0.366780  1.0
  N  N2893  1  0.781910  0.659880  0.133220  1.0
  N  N2894  1  0.718090  0.840120  0.133220  1.0
  N  N2895  1  0.659880  0.718090  0.133220  1.0
  N  N2896  1  0.840120  0.781910  0.133220  1.0
  N  N2897  1  0.281910  0.340120  0.633220  1.0
  N  N2898  1  0.218090  0.159880  0.633220  1.0
  N  N2899  1  0.159880  0.281910  0.633220  1.0
  N  N2900  1  0.340120  0.218090  0.633220  1.0
  N  N2901  1  0.218090  0.340120  0.866780  1.0
  N  N2902  1  0.281910  0.159880  0.866780  1.0
  N  N2903  1  0.340120  0.281910  0.866780  1.0
  N  N2904  1  0.159880  0.218090  0.866780  1.0
  N  N2905  1  0.654120  0.400530  0.621560  1.0
  N  N2906  1  0.845880  0.099470  0.621560  1.0
  N  N2907  1  0.099470  0.654120  0.621560  1.0
  N  N2908  1  0.400530  0.845880  0.621560  1.0
  N  N2909  1  0.845880  0.400530  0.878440  1.0
  N  N2910  1  0.654120  0.099470  0.878440  1.0
  N  N2911  1  0.400530  0.654120  0.878440  1.0
  N  N2912  1  0.099470  0.845880  0.878440  1.0
  N  N2913  1  0.345880  0.599470  0.378440  1.0
  N  N2914  1  0.154120  0.900530  0.378440  1.0
  N  N2915  1  0.900530  0.345880  0.378440  1.0
  N  N2916  1  0.599470  0.154120  0.378440  1.0
  N  N2917  1  0.154120  0.599470  0.121560  1.0
  N  N2918  1  0.345880  0.900530  0.121560  1.0
  N  N2919  1  0.599470  0.345880  0.121560  1.0
  N  N2920  1  0.900530  0.154120  0.121560  1.0
  O  O2921  1  0.486000  0.410800  0.764500  1
  O  O2922  1  0.014000  0.089200  0.764500  1
  O  O2923  1  0.089200  0.486000  0.764500  1
  O  O2924  1  0.410800  0.014000  0.764500  1
  O  O2925  1  0.014000  0.410800  0.735500  1
  O  O2926  1  0.486000  0.089200  0.735500  1
  O  O2927  1  0.410800  0.486000  0.735500  1
  O  O2928  1  0.089200  0.014000  0.735500  1
  O  O2929  1  0.514000  0.589200  0.235500  1
  O  O2930  1  0.986000  0.910800  0.235500  1
  O  O2931  1  0.910800  0.514000  0.235500  1
  O  O2932  1  0.589200  0.986000  0.235500  1
  O  O2933  1  0.986000  0.589200  0.264500  1
  O  O2934  1  0.514000  0.910800  0.264500  1
  O  O2935  1  0.589200  0.514000  0.264500  1
  O  O2936  1  0.910800  0.986000  0.264500  1
  O  O2937  1  0.623900  0.358800  0.865600  1
  O  O2938  1  0.876100  0.141200  0.865600  1
  O  O2939  1  0.141200  0.623900  0.865600  1
  O  O2940  1  0.358800  0.876100  0.865600  1
  O  O2941  1  0.876100  0.358800  0.634400  1
  O  O2942  1  0.623900  0.141200  0.634400  1
  O  O2943  1  0.358800  0.623900  0.634400  1
  O  O2944  1  0.141200  0.876100  0.634400  1
  O  O2945  1  0.376100  0.641200  0.134400  1
  O  O2946  1  0.123900  0.858800  0.134400  1
  O  O2947  1  0.858800  0.376100  0.134400  1
  O  O2948  1  0.641200  0.123900  0.134400  1
  O  O2949  1  0.123900  0.641200  0.365600  1
  O  O2950  1  0.376100  0.858800  0.365600  1
  O  O2951  1  0.641200  0.376100  0.365600  1
  O  O2952  1  0.858800  0.123900  0.365600  1
  O  O2953  1  0.608300  0.392800  0.865400  1
  O  O2954  1  0.891700  0.107200  0.865400  1
  O  O2955  1  0.107200  0.608300  0.865400  1
  O  O2956  1  0.392800  0.891700  0.865400  1
  O  O2957  1  0.891700  0.392800  0.634600  1
  O  O2958  1  0.608300  0.107200  0.634600  1
  O  O2959  1  0.392800  0.608300  0.634600  1
  O  O2960  1  0.107200  0.891700  0.634600  1
  O  O2961  1  0.391700  0.607200  0.134600  1
  O  O2962  1  0.108300  0.892800  0.134600  1
  O  O2963  1  0.892800  0.391700  0.134600  1
  O  O2964  1  0.607200  0.108300  0.134600  1
  O  O2965  1  0.108300  0.607200  0.365400  1
  O  O2966  1  0.391700  0.892800  0.365400  1
  O  O2967  1  0.607200  0.391700  0.365400  1
  O  O2968  1  0.892800  0.108300  0.365400  1
  O  O2969  1  0.612800  0.391800  0.889700  1
  O  O2970  1  0.887200  0.108200  0.889700  1
  O  O2971  1  0.108200  0.612800  0.889700  1
  O  O2972  1  0.391800  0.887200  0.889700  1
  O  O2973  1  0.887200  0.391800  0.610300  1
  O  O2974  1  0.612800  0.108200  0.610300  1
  O  O2975  1  0.391800  0.612800  0.610300  1
  O  O2976  1  0.108200  0.887200  0.610300  1
  O  O2977  1  0.387200  0.608200  0.110300  1
  O  O2978  1  0.112800  0.891800  0.110300  1
  O  O2979  1  0.891800  0.387200  0.110300  1
  O  O2980  1  0.608200  0.112800  0.110300  1
  O  O2981  1  0.112800  0.608200  0.389700  1
  O  O2982  1  0.387200  0.891800  0.389700  1
  O  O2983  1  0.608200  0.387200  0.389700  1
  O  O2984  1  0.891800  0.112800  0.389700  1
  F  F2985  1  0.692800  0.255800  0.526100  1
  F  F2986  1  0.807200  0.244200  0.526100  1
  F  F2987  1  0.244200  0.692800  0.526100  1
  F  F2988  1  0.255800  0.807200  0.526100  1
  F  F2989  1  0.807200  0.255800  0.973900  1
  F  F2990  1  0.692800  0.244200  0.973900  1
  F  F2991  1  0.255800  0.692800  0.973900  1
  F  F2992  1  0.244200  0.807200  0.973900  1
  F  F2993  1  0.307200  0.744200  0.473900  1
  F  F2994  1  0.192800  0.755800  0.473900  1
  F  F2995  1  0.755800  0.307200  0.473900  1
  F  F2996  1  0.744200  0.192800  0.473900  1
  F  F2997  1  0.192800  0.744200  0.026100  1
  F  F2998  1  0.307200  0.755800  0.026100  1
  F  F2999  1  0.744200  0.307200  0.026100  1
  F  F3000  1  0.755800  0.192800  0.026100  1
  F  F3001  1  0.798500  0.246300  0.533900  1
  F  F3002  1  0.701500  0.253700  0.533900  1
  F  F3003  1  0.253700  0.798500  0.533900  1
  F  F3004  1  0.246300  0.701500  0.533900  1
  F  F3005  1  0.701500  0.246300  0.966100  1
  F  F3006  1  0.798500  0.253700  0.966100  1
  F  F3007  1  0.246300  0.798500  0.966100  1
  F  F3008  1  0.253700  0.701500  0.966100  1
  F  F3009  1  0.201500  0.753700  0.466100  1
  F  F3010  1  0.298500  0.746300  0.466100  1
  F  F3011  1  0.746300  0.201500  0.466100  1
  F  F3012  1  0.753700  0.298500  0.466100  1
  F  F3013  1  0.298500  0.753700  0.033900  1
  F  F3014  1  0.201500  0.746300  0.033900  1
  F  F3015  1  0.753700  0.201500  0.033900  1
  F  F3016  1  0.746300  0.298500  0.033900  1
  F  F3017  1  0.751600  0.202700  0.479900  1
  F  F3018  1  0.748400  0.297300  0.479900  1
  F  F3019  1  0.297300  0.751600  0.479900  1
  F  F3020  1  0.202700  0.748400  0.479900  1
  F  F3021  1  0.748400  0.202700  0.020100  1
  F  F3022  1  0.751600  0.297300  0.020100  1
  F  F3023  1  0.202700  0.751600  0.020100  1
  F  F3024  1  0.297300  0.748400  0.020100  1
  F  F3025  1  0.248400  0.797300  0.520100  1
  F  F3026  1  0.251600  0.702700  0.520100  1
  F  F3027  1  0.702700  0.248400  0.520100  1
  F  F3028  1  0.797300  0.251600  0.520100  1
  F  F3029  1  0.251600  0.797300  0.979900  1
  F  F3030  1  0.248400  0.702700  0.979900  1
  F  F3031  1  0.797300  0.248400  0.979900  1
  F  F3032  1  0.702700  0.251600  0.979900  1
  F  F3033  1  0.762500  0.310400  0.487500  1
  F  F3034  1  0.737500  0.189600  0.487500  1
  F  F3035  1  0.189600  0.762500  0.487500  1
  F  F3036  1  0.310400  0.737500  0.487500  1
  F  F3037  1  0.737500  0.310400  0.012500  1
  F  F3038  1  0.762500  0.189600  0.012500  1
  F  F3039  1  0.310400  0.762500  0.012500  1
  F  F3040  1  0.189600  0.737500  0.012500  1
  F  F3041  1  0.237500  0.689600  0.512500  1
  F  F3042  1  0.262500  0.810400  0.512500  1
  F  F3043  1  0.810400  0.237500  0.512500  1
  F  F3044  1  0.689600  0.262500  0.512500  1
  F  F3045  1  0.262500  0.689600  0.987500  1
  F  F3046  1  0.237500  0.810400  0.987500  1
  F  F3047  1  0.689600  0.237500  0.987500  1
  F  F3048  1  0.810400  0.262500  0.987500  1
  F  F3049  1  0.820600  0.713000  0.247600  1
  F  F3050  1  0.679400  0.787000  0.247600  1
  F  F3051  1  0.787000  0.820600  0.247600  1
  F  F3052  1  0.713000  0.679400  0.247600  1
  F  F3053  1  0.679400  0.713000  0.252400  1
  F  F3054  1  0.820600  0.787000  0.252400  1
  F  F3055  1  0.713000  0.820600  0.252400  1
  F  F3056  1  0.787000  0.679400  0.252400  1
  F  F3057  1  0.179400  0.287000  0.752400  1
  F  F3058  1  0.320600  0.213000  0.752400  1
  F  F3059  1  0.213000  0.179400  0.752400  1
  F  F3060  1  0.287000  0.320600  0.752400  1
  F  F3061  1  0.320600  0.287000  0.747600  1
  F  F3062  1  0.179400  0.213000  0.747600  1
  F  F3063  1  0.287000  0.179400  0.747600  1
  F  F3064  1  0.213000  0.320600  0.747600  1
  F  F3065  1  0.720400  0.677100  0.243700  1
  F  F3066  1  0.779600  0.822900  0.243700  1
  F  F3067  1  0.822900  0.720400  0.243700  1
  F  F3068  1  0.677100  0.779600  0.243700  1
  F  F3069  1  0.779600  0.677100  0.256300  1
  F  F3070  1  0.720400  0.822900  0.256300  1
  F  F3071  1  0.677100  0.720400  0.256300  1
  F  F3072  1  0.822900  0.779600  0.256300  1
  F  F3073  1  0.279600  0.322900  0.756300  1
  F  F3074  1  0.220400  0.177100  0.756300  1
  F  F3075  1  0.177100  0.279600  0.756300  1
  F  F3076  1  0.322900  0.220400  0.756300  1
  F  F3077  1  0.220400  0.322900  0.743700  1
  F  F3078  1  0.279600  0.177100  0.743700  1
  F  F3079  1  0.322900  0.279600  0.743700  1
  F  F3080  1  0.177100  0.220400  0.743700  1
  F  F3081  1  0.745000  0.774000  0.219100  1
  F  F3082  1  0.755000  0.726000  0.219100  1
  F  F3083  1  0.726000  0.745000  0.219100  1
  F  F3084  1  0.774000  0.755000  0.219100  1
  F  F3085  1  0.755000  0.774000  0.280900  1
  F  F3086  1  0.745000  0.726000  0.280900  1
  F  F3087  1  0.774000  0.745000  0.280900  1
  F  F3088  1  0.726000  0.755000  0.280900  1
  F  F3089  1  0.255000  0.226000  0.780900  1
  F  F3090  1  0.245000  0.274000  0.780900  1
  F  F3091  1  0.274000  0.255000  0.780900  1
  F  F3092  1  0.226000  0.245000  0.780900  1
  F  F3093  1  0.245000  0.226000  0.719100  1
  F  F3094  1  0.255000  0.274000  0.719100  1
  F  F3095  1  0.226000  0.255000  0.719100  1
  F  F3096  1  0.274000  0.245000  0.719100  1
  F  F3097  1  0.744000  0.758000  0.285100  1
  F  F3098  1  0.756000  0.742000  0.285100  1
  F  F3099  1  0.742000  0.744000  0.285100  1
  F  F3100  1  0.758000  0.756000  0.285100  1
  F  F3101  1  0.756000  0.758000  0.214900  1
  F  F3102  1  0.744000  0.742000  0.214900  1
  F  F3103  1  0.758000  0.744000  0.214900  1
  F  F3104  1  0.742000  0.756000  0.214900  1
  F  F3105  1  0.256000  0.242000  0.714900  1
  F  F3106  1  0.244000  0.258000  0.714900  1
  F  F3107  1  0.258000  0.256000  0.714900  1
  F  F3108  1  0.242000  0.244000  0.714900  1
  F  F3109  1  0.244000  0.242000  0.785100  1
  F  F3110  1  0.256000  0.258000  0.785100  1
  F  F3111  1  0.242000  0.256000  0.785100  1
  F  F3112  1  0.258000  0.244000  0.785100  1
  F  F3113  1  0.686900  0.691000  0.752400  1
  F  F3114  1  0.813100  0.809000  0.752400  1
  F  F3115  1  0.809000  0.686900  0.752400  1
  F  F3116  1  0.691000  0.813100  0.752400  1
  F  F3117  1  0.813100  0.691000  0.747600  1
  F  F3118  1  0.686900  0.809000  0.747600  1
  F  F3119  1  0.691000  0.686900  0.747600  1
  F  F3120  1  0.809000  0.813100  0.747600  1
  F  F3121  1  0.313100  0.309000  0.247600  1
  F  F3122  1  0.186900  0.191000  0.247600  1
  F  F3123  1  0.191000  0.313100  0.247600  1
  F  F3124  1  0.309000  0.186900  0.247600  1
  F  F3125  1  0.186900  0.309000  0.252400  1
  F  F3126  1  0.313100  0.191000  0.252400  1
  F  F3127  1  0.309000  0.313100  0.252400  1
  F  F3128  1  0.191000  0.186900  0.252400  1
  F  F3129  1  0.749600  0.764700  0.781900  1
  F  F3130  1  0.750400  0.735300  0.781900  1
  F  F3131  1  0.735300  0.749600  0.781900  1
  F  F3132  1  0.764700  0.750400  0.781900  1
  F  F3133  1  0.750400  0.764700  0.718100  1
  F  F3134  1  0.749600  0.735300  0.718100  1
  F  F3135  1  0.764700  0.749600  0.718100  1
  F  F3136  1  0.735300  0.750400  0.718100  1
  F  F3137  1  0.250400  0.235300  0.218100  1
  F  F3138  1  0.249600  0.264700  0.218100  1
  F  F3139  1  0.264700  0.250400  0.218100  1
  F  F3140  1  0.235300  0.249600  0.218100  1
  F  F3141  1  0.249600  0.235300  0.281900  1
  F  F3142  1  0.250400  0.264700  0.281900  1
  F  F3143  1  0.235300  0.250400  0.281900  1
  F  F3144  1  0.264700  0.249600  0.281900  1
  F  F3145  1  0.793900  0.676800  0.754600  1
  F  F3146  1  0.706100  0.823200  0.754600  1
  F  F3147  1  0.823200  0.793900  0.754600  1
  F  F3148  1  0.676800  0.706100  0.754600  1
  F  F3149  1  0.706100  0.676800  0.745400  1
  F  F3150  1  0.793900  0.823200  0.745400  1
  F  F3151  1  0.676800  0.793900  0.745400  1
  F  F3152  1  0.823200  0.706100  0.745400  1
  F  F3153  1  0.206100  0.323200  0.245400  1
  F  F3154  1  0.293900  0.176800  0.245400  1
  F  F3155  1  0.176800  0.206100  0.245400  1
  F  F3156  1  0.323200  0.293900  0.245400  1
  F  F3157  1  0.293900  0.323200  0.254600  1
  F  F3158  1  0.206100  0.176800  0.254600  1
  F  F3159  1  0.323200  0.206100  0.254600  1
  F  F3160  1  0.176800  0.293900  0.254600  1
  F  F3161  1  0.752000  0.752600  0.715100  1
  F  F3162  1  0.748000  0.747400  0.715100  1
  F  F3163  1  0.747400  0.752000  0.715100  1
  F  F3164  1  0.752600  0.748000  0.715100  1
  F  F3165  1  0.748000  0.752600  0.784900  1
  F  F3166  1  0.752000  0.747400  0.784900  1
  F  F3167  1  0.752600  0.752000  0.784900  1
  F  F3168  1  0.747400  0.748000  0.784900  1
  F  F3169  1  0.248000  0.247400  0.284900  1
  F  F3170  1  0.252000  0.252600  0.284900  1
  F  F3171  1  0.252600  0.248000  0.284900  1
  F  F3172  1  0.247400  0.252000  0.284900  1
  F  F3173  1  0.252000  0.247400  0.215100  1
  F  F3174  1  0.248000  0.252600  0.215100  1
  F  F3175  1  0.247400  0.248000  0.215100  1
  F  F3176  1  0.252600  0.252000  0.215100  1
  F  F3177  1  0.745600  0.750200  0.038720  1
  F  F3178  1  0.754400  0.749800  0.038720  1
  F  F3179  1  0.749800  0.745600  0.038720  1
  F  F3180  1  0.750200  0.754400  0.038720  1
  F  F3181  1  0.754400  0.750200  0.461280  1
  F  F3182  1  0.745600  0.749800  0.461280  1
  F  F3183  1  0.750200  0.745600  0.461280  1
  F  F3184  1  0.749800  0.754400  0.461280  1
  F  F3185  1  0.254400  0.249800  0.961280  1
  F  F3186  1  0.245600  0.250200  0.961280  1
  F  F3187  1  0.250200  0.254400  0.961280  1
  F  F3188  1  0.249800  0.245600  0.961280  1
  F  F3189  1  0.245600  0.249800  0.538720  1
  F  F3190  1  0.254400  0.250200  0.538720  1
  F  F3191  1  0.249800  0.254400  0.538720  1
  F  F3192  1  0.250200  0.245600  0.538720  1
  F  F3193  1  0.684700  0.714300  0.987800  1
  F  F3194  1  0.815300  0.785700  0.987800  1
  F  F3195  1  0.785700  0.684700  0.987800  1
  F  F3196  1  0.714300  0.815300  0.987800  1
  F  F3197  1  0.815300  0.714300  0.512200  1
  F  F3198  1  0.684700  0.785700  0.512200  1
  F  F3199  1  0.714300  0.684700  0.512200  1
  F  F3200  1  0.785700  0.815300  0.512200  1
  F  F3201  1  0.315300  0.285700  0.012200  1
  F  F3202  1  0.184700  0.214300  0.012200  1
  F  F3203  1  0.214300  0.315300  0.012200  1
  F  F3204  1  0.285700  0.184700  0.012200  1
  F  F3205  1  0.184700  0.285700  0.487800  1
  F  F3206  1  0.315300  0.214300  0.487800  1
  F  F3207  1  0.285700  0.315300  0.487800  1
  F  F3208  1  0.214300  0.184700  0.487800  1
  F  F3209  1  0.763400  0.782200  0.976100  1
  F  F3210  1  0.736600  0.717800  0.976100  1
  F  F3211  1  0.717800  0.763400  0.976100  1
  F  F3212  1  0.782200  0.736600  0.976100  1
  F  F3213  1  0.736600  0.782200  0.523900  1
  F  F3214  1  0.763400  0.717800  0.523900  1
  F  F3215  1  0.782200  0.763400  0.523900  1
  F  F3216  1  0.717800  0.736600  0.523900  1
  F  F3217  1  0.236600  0.217800  0.023900  1
  F  F3218  1  0.263400  0.282200  0.023900  1
  F  F3219  1  0.282200  0.236600  0.023900  1
  F  F3220  1  0.217800  0.263400  0.023900  1
  F  F3221  1  0.263400  0.217800  0.476100  1
  F  F3222  1  0.236600  0.282200  0.476100  1
  F  F3223  1  0.217800  0.236600  0.476100  1
  F  F3224  1  0.282200  0.263400  0.476100  1
  F  F3225  1  0.787800  0.682100  0.994400  1
  F  F3226  1  0.712200  0.817900  0.994400  1
  F  F3227  1  0.817900  0.787800  0.994400  1
  F  F3228  1  0.682100  0.712200  0.994400  1
  F  F3229  1  0.712200  0.682100  0.505600  1
  F  F3230  1  0.787800  0.817900  0.505600  1
  F  F3231  1  0.682100  0.787800  0.505600  1
  F  F3232  1  0.817900  0.712200  0.505600  1
  F  F3233  1  0.212200  0.317900  0.005600  1
  F  F3234  1  0.287800  0.182100  0.005600  1
  F  F3235  1  0.182100  0.212200  0.005600  1
  F  F3236  1  0.317900  0.287800  0.005600  1
  F  F3237  1  0.287800  0.317900  0.494400  1
  F  F3238  1  0.212200  0.182100  0.494400  1
  F  F3239  1  0.317900  0.212200  0.494400  1
  F  F3240  1  0.182100  0.287800  0.494400  1
  F  F3241  1  0.764800  0.242800  0.798000  1
  F  F3242  1  0.735200  0.257200  0.798000  1
  F  F3243  1  0.257200  0.764800  0.798000  1
  F  F3244  1  0.242800  0.735200  0.798000  1
  F  F3245  1  0.735200  0.242800  0.702000  1
  F  F3246  1  0.764800  0.257200  0.702000  1
  F  F3247  1  0.242800  0.764800  0.702000  1
  F  F3248  1  0.257200  0.735200  0.702000  1
  F  F3249  1  0.235200  0.757200  0.202000  1
  F  F3250  1  0.264800  0.742800  0.202000  1
  F  F3251  1  0.742800  0.235200  0.202000  1
  F  F3252  1  0.757200  0.264800  0.202000  1
  F  F3253  1  0.264800  0.757200  0.298000  1
  F  F3254  1  0.235200  0.742800  0.298000  1
  F  F3255  1  0.757200  0.235200  0.298000  1
  F  F3256  1  0.742800  0.264800  0.298000  1
  F  F3257  1  0.754000  0.199400  0.740100  1
  F  F3258  1  0.746000  0.300600  0.740100  1
  F  F3259  1  0.300600  0.754000  0.740100  1
  F  F3260  1  0.199400  0.746000  0.740100  1
  F  F3261  1  0.746000  0.199400  0.759900  1
  F  F3262  1  0.754000  0.300600  0.759900  1
  F  F3263  1  0.199400  0.754000  0.759900  1
  F  F3264  1  0.300600  0.746000  0.759900  1
  F  F3265  1  0.246000  0.800600  0.259900  1
  F  F3266  1  0.254000  0.699400  0.259900  1
  F  F3267  1  0.699400  0.246000  0.259900  1
  F  F3268  1  0.800600  0.254000  0.259900  1
  F  F3269  1  0.254000  0.800600  0.240100  1
  F  F3270  1  0.246000  0.699400  0.240100  1
  F  F3271  1  0.800600  0.246000  0.240100  1
  F  F3272  1  0.699400  0.254000  0.240100  1
  F  F3273  1  0.663000  0.238400  0.761600  1
  F  F3274  1  0.837000  0.261600  0.761600  1
  F  F3275  1  0.261600  0.663000  0.761600  1
  F  F3276  1  0.238400  0.837000  0.761600  1
  F  F3277  1  0.837000  0.238400  0.738400  1
  F  F3278  1  0.663000  0.261600  0.738400  1
  F  F3279  1  0.238400  0.663000  0.738400  1
  F  F3280  1  0.261600  0.837000  0.738400  1
  F  F3281  1  0.337000  0.761600  0.238400  1
  F  F3282  1  0.163000  0.738400  0.238400  1
  F  F3283  1  0.738400  0.337000  0.238400  1
  F  F3284  1  0.761600  0.163000  0.238400  1
  F  F3285  1  0.163000  0.761600  0.261600  1
  F  F3286  1  0.337000  0.738400  0.261600  1
  F  F3287  1  0.761600  0.337000  0.261600  1
  F  F3288  1  0.738400  0.163000  0.261600  1
  F  F3289  1  0.745100  0.305700  0.747400  1
  F  F3290  1  0.754900  0.194300  0.747400  1
  F  F3291  1  0.194300  0.745100  0.747400  1
  F  F3292  1  0.305700  0.754900  0.747400  1
  F  F3293  1  0.754900  0.305700  0.752600  1
  F  F3294  1  0.745100  0.194300  0.752600  1
  F  F3295  1  0.305700  0.745100  0.752600  1
  F  F3296  1  0.194300  0.754900  0.752600  1
  F  F3297  1  0.254900  0.694300  0.252600  1
  F  F3298  1  0.245100  0.805700  0.252600  1
  F  F3299  1  0.805700  0.254900  0.252600  1
  F  F3300  1  0.694300  0.245100  0.252600  1
  F  F3301  1  0.245100  0.694300  0.247400  1
  F  F3302  1  0.254900  0.805700  0.247400  1
  F  F3303  1  0.694300  0.254900  0.247400  1
  F  F3304  1  0.805700  0.245100  0.247400  1
