# generated using pymatgen
data_Ni3H334C203S7N6Cl37O19
_symmetry_space_group_name_H-M   'P 1'
_cell_length_a   17.16800000
_cell_length_b   19.06000000
_cell_length_c   25.35580000
_cell_angle_alpha   67.97400000
_cell_angle_beta   83.13300000
_cell_angle_gamma   82.95900000
_symmetry_Int_Tables_number   1
_chemical_formula_structural   Ni3H334C203S7N6Cl37O19
_chemical_formula_sum   'Ni6 H668 C406 S14 N12 Cl74 O38'
_cell_volume   7608.94801738
_cell_formula_units_Z   2
loop_
 _symmetry_equiv_pos_site_id
 _symmetry_equiv_pos_as_xyz
  1  'x, y, z'
loop_
 _atom_site_type_symbol
 _atom_site_label
 _atom_site_symmetry_multiplicity
 _atom_site_fract_x
 _atom_site_fract_y
 _atom_site_fract_z
 _atom_site_occupancy
  Ni  Ni1  1  0.335980  0.480530  0.089460  1
  Ni  Ni2  1  0.664020  0.519470  0.910540  1
  Ni  Ni3  1  0.148950  0.079910  0.309960  1
  Ni  Ni4  1  0.851050  0.920090  0.690040  1
  Ni  Ni5  1  0.147650  0.439820  0.418640  1
  Ni  Ni6  1  0.852350  0.560180  0.581360  1
  H  H7  1  0.060400  0.283900  0.209200  1
  H  H8  1  0.939600  0.716100  0.790800  1
  H  H9  1  0.015800  0.388200  0.323000  1
  H  H10  1  0.984200  0.611800  0.677000  1
  H  H11  1  0.119300  0.498000  0.166600  1
  H  H12  1  0.880700  0.502000  0.833400  1
  H  H13  1  0.412200  0.298800  0.218200  1
  H  H14  1  0.587800  0.701200  0.781800  1
  H  H15  1  0.305900  0.163100  0.365900  1
  H  H16  1  0.694100  0.836900  0.634100  1
  H  H17  1  0.354500  0.373900  0.347800  1
  H  H18  1  0.645500  0.626100  0.652200  1
  H  H19  1  0.155200  0.428900  0.963100  1
  H  H20  1  0.844800  0.571100  0.036900  1
  H  H21  1  0.019500  0.354000  0.110400  1
  H  H22  1  0.980500  0.646000  0.889600  1
  H  H23  1  0.927600  0.432900  0.014300  1
  H  H24  1  0.072400  0.567100  0.985700  1
  H  H25  1  0.928900  0.351800  0.065200  1
  H  H26  1  0.071100  0.648200  0.934800  1
  H  H27  1  0.899400  0.361600  0.005100  1
  H  H28  1  0.100600  0.638400  0.994900  1
  H  H29  1  0.087800  0.265000  0.003300  1
  H  H30  1  0.912200  0.735000  0.996700  1
  H  H31  1  0.996800  0.260200  0.998300  1
  H  H32  1  0.003200  0.739800  0.001700  1
  H  H33  1  0.026500  0.250100  0.058400  1
  H  H34  1  0.973500  0.749900  0.941600  1
  H  H35  1  0.013300  0.456300  0.932000  1
  H  H36  1  0.986700  0.543700  0.068000  1
  H  H37  1  0.983000  0.385600  0.923300  1
  H  H38  1  0.017000  0.614400  0.076700  1
  H  H39  1  0.075400  0.391300  0.922700  1
  H  H40  1  0.924600  0.608700  0.077300  1
  H  H41  1  0.264600  0.495100  0.955100  1
  H  H42  1  0.735400  0.504900  0.044900  1
  H  H43  1  0.330600  0.580600  0.897900  1
  H  H44  1  0.669400  0.419400  0.102100  1
  H  H45  1  0.531200  0.627300  0.988300  1
  H  H46  1  0.468800  0.372700  0.011700  1
  H  H47  1  0.380800  0.695300  0.757200  1
  H  H48  1  0.619200  0.304700  0.242800  1
  H  H49  1  0.320300  0.682300  0.812500  1
  H  H50  1  0.679700  0.317700  0.187500  1
  H  H51  1  0.373200  0.611600  0.803800  1
  H  H52  1  0.626800  0.388400  0.196200  1
  H  H53  1  0.637000  0.750100  0.871800  1
  H  H54  1  0.363000  0.249900  0.128200  1
  H  H55  1  0.634600  0.667200  0.920400  1
  H  H56  1  0.365400  0.332800  0.079600  1
  H  H57  1  0.582500  0.737800  0.929800  1
  H  H58  1  0.417500  0.262200  0.070200  1
  H  H59  1  0.507900  0.583500  0.075300  1
  H  H60  1  0.492100  0.416500  0.924700  1
  H  H61  1  0.488800  0.414400  0.309500  1
  H  H62  1  0.511200  0.585600  0.690500  1
  H  H63  1  0.558400  0.572500  0.160800  1
  H  H64  1  0.441600  0.427500  0.839200  1
  H  H65  1  0.667200  0.570900  0.202200  1
  H  H66  1  0.332800  0.429100  0.797800  1
  H  H67  1  0.672400  0.600500  0.252900  1
  H  H68  1  0.327600  0.399500  0.747100  1
  H  H69  1  0.601600  0.632900  0.212200  1
  H  H70  1  0.398400  0.367100  0.787800  1
  H  H71  1  0.503400  0.595100  0.296800  1
  H  H72  1  0.496600  0.404900  0.703200  1
  H  H73  1  0.575600  0.566400  0.336400  1
  H  H74  1  0.424400  0.433600  0.663600  1
  H  H75  1  0.509800  0.510400  0.343000  1
  H  H76  1  0.490200  0.489600  0.657000  1
  H  H77  1  0.673500  0.439200  0.272400  1
  H  H78  1  0.326500  0.560800  0.727600  1
  H  H79  1  0.613000  0.415800  0.328100  1
  H  H80  1  0.387000  0.584200  0.671900  1
  H  H81  1  0.678800  0.471800  0.321400  1
  H  H82  1  0.321200  0.528200  0.678600  1
  H  H83  1  0.869200  0.098900  0.400500  1
  H  H84  1  0.130800  0.901100  0.599500  1
  H  H85  1  0.900400  0.321700  0.335300  1
  H  H86  1  0.099600  0.678300  0.664700  1
  H  H87  1  0.958600  0.012100  0.378100  1
  H  H88  1  0.041400  0.987900  0.621900  1
  H  H89  1  0.968100  0.906900  0.369500  1
  H  H90  1  0.031900  0.093100  0.630500  1
  H  H91  1  0.234600  0.839500  0.325700  1
  H  H92  1  0.765400  0.160500  0.674300  1
  H  H93  1  0.886600  0.741200  0.390500  1
  H  H94  1  0.113400  0.258800  0.609500  1
  H  H95  1  0.903500  0.820900  0.341000  1
  H  H96  1  0.096500  0.179100  0.659000  1
  H  H97  1  0.902400  0.811500  0.406500  1
  H  H98  1  0.097600  0.188500  0.593500  1
  H  H99  1  0.230900  0.637600  0.381900  1
  H  H100  1  0.769100  0.362400  0.618100  1
  H  H101  1  0.233100  0.695500  0.413900  1
  H  H102  1  0.766900  0.304500  0.586100  1
  H  H103  1  0.264500  0.718600  0.348000  1
  H  H104  1  0.735500  0.281400  0.652000  1
  H  H105  1  0.288900  0.940400  0.275000  1
  H  H106  1  0.711100  0.059600  0.725000  1
  H  H107  1  0.481800  0.174000  0.234100  1
  H  H108  1  0.518200  0.826000  0.765900  1
  H  H109  1  0.411700  0.981700  0.232500  1
  H  H110  1  0.588300  0.018300  0.767500  1
  H  H111  1  0.013900  0.696700  0.298300  1
  H  H112  1  0.986100  0.303300  0.701700  1
  H  H113  1  0.020700  0.594200  0.185900  1
  H  H114  1  0.979300  0.405800  0.814100  1
  H  H115  1  0.950400  0.845500  0.180000  1
  H  H116  1  0.049600  0.154500  0.820000  1
  H  H117  1  0.016600  0.807300  0.224100  1
  H  H118  1  0.983400  0.192700  0.775900  1
  H  H119  1  0.927500  0.785700  0.242300  1
  H  H120  1  0.072500  0.214300  0.757700  1
  H  H121  1  0.889900  0.768500  0.138800  1
  H  H122  1  0.110100  0.231500  0.861200  1
  H  H123  1  0.869400  0.708100  0.201300  1
  H  H124  1  0.130600  0.291900  0.798700  1
  H  H125  1  0.917900  0.680500  0.153600  1
  H  H126  1  0.082100  0.319500  0.846400  1
  H  H127  1  0.031800  0.802000  0.107700  1
  H  H128  1  0.968200  0.198000  0.892300  1
  H  H129  1  0.059700  0.714000  0.122300  1
  H  H130  1  0.940300  0.286000  0.877700  1
  H  H131  1  0.098400  0.761600  0.151100  1
  H  H132  1  0.901600  0.238400  0.848900  1
  H  H133  1  0.044300  0.627800  0.392800  1
  H  H134  1  0.955700  0.372200  0.607200  1
  H  H135  1  0.033500  0.630700  0.472500  1
  H  H136  1  0.966500  0.369300  0.527500  1
  H  H137  1  0.167900  0.416400  0.600900  1
  H  H138  1  0.832100  0.583600  0.399100  1
  H  H139  1  0.972700  0.734000  0.560000  1
  H  H140  1  0.027300  0.266000  0.440000  1
  H  H141  1  0.946400  0.683100  0.528400  1
  H  H142  1  0.053600  0.316900  0.471600  1
  H  H143  1  0.024700  0.726800  0.505200  1
  H  H144  1  0.975300  0.273200  0.494800  1
  H  H145  1  0.150100  0.460800  0.721100  1
  H  H146  1  0.849900  0.539200  0.278900  1
  H  H147  1  0.205800  0.448200  0.669500  1
  H  H148  1  0.794200  0.551800  0.330500  1
  H  H149  1  0.124700  0.408900  0.690100  1
  H  H150  1  0.875300  0.591100  0.309900  1
  H  H151  1  0.204100  0.338800  0.564100  1
  H  H152  1  0.795900  0.661200  0.435900  1
  H  H153  1  0.356800  0.147100  0.457000  1
  H  H154  1  0.643200  0.852900  0.543000  1
  H  H155  1  0.262900  0.216300  0.583800  1
  H  H156  1  0.737100  0.783700  0.416200  1
  H  H157  1  0.305400  0.013700  0.542400  1
  H  H158  1  0.694600  0.986300  0.457600  1
  H  H159  1  0.378900  0.982900  0.580600  1
  H  H160  1  0.621100  0.017100  0.419400  1
  H  H161  1  0.390600  0.042200  0.516500  1
  H  H162  1  0.609400  0.957800  0.483500  1
  H  H163  1  0.420100  0.139400  0.595500  1
  H  H164  1  0.579900  0.860600  0.404500  1
  H  H165  1  0.453100  0.109700  0.545200  1
  H  H166  1  0.546900  0.890300  0.454800  1
  H  H167  1  0.441400  0.050500  0.609300  1
  H  H168  1  0.558600  0.949500  0.390700  1
  H  H169  1  0.287900  0.126900  0.638400  1
  H  H170  1  0.712100  0.873100  0.361600  1
  H  H171  1  0.324200  0.040400  0.661600  1
  H  H172  1  0.675800  0.959600  0.338400  1
  H  H173  1  0.241300  0.061800  0.634000  1
  H  H174  1  0.758700  0.938200  0.366000  1
  H  H175  1  0.773100  0.118300  0.447800  1
  H  H176  1  0.226900  0.881700  0.552200  1
  H  H177  1  0.730700  0.155400  0.389600  1
  H  H178  1  0.269300  0.844600  0.610400  1
  H  H179  1  0.695300  0.175000  0.444200  1
  H  H180  1  0.304700  0.825000  0.555800  1
  H  H181  1  0.781600  0.338000  0.357700  1
  H  H182  1  0.218400  0.662000  0.642300  1
  H  H183  1  0.701500  0.304500  0.391600  1
  H  H184  1  0.298500  0.695500  0.608400  1
  H  H185  1  0.736300  0.286200  0.336300  1
  H  H186  1  0.263700  0.713800  0.663700  1
  H  H187  1  0.844200  0.194800  0.483500  1
  H  H188  1  0.155800  0.805200  0.516500  1
  H  H189  1  0.765500  0.249800  0.481600  1
  H  H190  1  0.234500  0.750200  0.518400  1
  H  H191  1  0.845700  0.284200  0.448500  1
  H  H192  1  0.154300  0.715800  0.551500  1
  H  H193  1  0.532300  0.951600  0.234500  1
  H  H194  1  0.467700  0.048400  0.765500  1
  H  H195  1  0.595400  0.986500  0.257200  1
  H  H196  1  0.404600  0.013500  0.742800  1
  H  H197  1  0.614300  0.974000  0.197800  1
  H  H198  1  0.385700  0.026000  0.802200  1
  H  H199  1  0.495400  0.115900  0.109000  1
  H  H200  1  0.504600  0.884100  0.891000  1
  H  H201  1  0.482700  0.027200  0.135600  1
  H  H202  1  0.517300  0.972800  0.864400  1
  H  H203  1  0.568300  0.054500  0.109900  1
  H  H204  1  0.431700  0.945500  0.890100  1
  H  H205  1  0.555200  0.173600  0.149200  1
  H  H206  1  0.444800  0.826400  0.850800  1
  H  H207  1  0.629000  0.117200  0.141500  1
  H  H208  1  0.371000  0.882800  0.858500  1
  H  H209  1  0.613000  0.134000  0.199300  1
  H  H210  1  0.387000  0.866000  0.800700  1
  H  H211  1  0.225700  0.066100  0.456000  1
  H  H212  1  0.774300  0.933900  0.544000  1
  H  H213  1  0.151400  0.101900  0.419100  1
  H  H214  1  0.848600  0.898100  0.580900  1
  H  H215  1  0.149700  0.019700  0.468700  1
  H  H216  1  0.850300  0.980300  0.531300  1
  H  H217  1  0.991100  0.125700  0.512300  1
  H  H218  1  0.008900  0.874300  0.487700  1
  H  H219  1  0.025000  0.052100  0.498100  1
  H  H220  1  0.975000  0.947900  0.501900  1
  H  H221  1  0.026800  0.134700  0.449000  1
  H  H222  1  0.973200  0.865300  0.551000  1
  H  H223  1  0.137000  0.225000  0.354000  1
  H  H224  1  0.863000  0.775000  0.646000  1
  H  H225  1  0.169000  0.284000  0.357000  1
  H  H226  1  0.831000  0.716000  0.643000  1
  H  H227  1  0.613700  0.684500  0.351800  1
  H  H228  1  0.386300  0.315500  0.648200  1
  H  H229  1  0.586600  0.747800  0.293200  1
  H  H230  1  0.413400  0.252200  0.706800  1
  H  H231  1  0.618400  0.772600  0.339900  1
  H  H232  1  0.381600  0.227400  0.660100  1
  H  H233  1  0.769800  0.837100  0.217500  1
  H  H234  1  0.230200  0.162900  0.782500  1
  H  H235  1  0.708700  0.857600  0.263500  1
  H  H236  1  0.291300  0.142400  0.736500  1
  H  H237  1  0.677500  0.832500  0.216700  1
  H  H238  1  0.322500  0.167500  0.783300  1
  H  H239  1  0.835400  0.310100  0.172400  1
  H  H240  1  0.164600  0.689900  0.827600  1
  H  H241  1  0.806700  0.333100  0.226600  1
  H  H242  1  0.193300  0.666900  0.773400  1
  H  H243  1  0.898800  0.321000  0.209500  1
  H  H244  1  0.101200  0.679000  0.790500  1
  H  H245  1  0.870300  0.526900  0.183400  1
  H  H246  1  0.129700  0.473100  0.816600  1
  H  H247  1  0.916600  0.447800  0.218000  1
  H  H248  1  0.083400  0.552200  0.782000  1
  H  H249  1  0.824100  0.462000  0.232600  1
  H  H250  1  0.175900  0.538000  0.767400  1
  H  H251  1  0.292900  0.987300  0.388000  1
  H  H252  1  0.707100  0.012700  0.612000  1
  H  H253  1  0.295700  0.945300  0.455600  1
  H  H254  1  0.704300  0.054700  0.544400  1
  H  H255  1  0.545000  0.254300  0.351000  1
  H  H256  1  0.455000  0.745700  0.649000  1
  H  H257  1  0.476800  0.206500  0.346400  1
  H  H258  1  0.523200  0.793500  0.653600  1
  H  H259  1  0.379000  0.405200  0.587800  1
  H  H260  1  0.621000  0.594800  0.412200  1
  H  H261  1  0.301100  0.421500  0.554700  1
  H  H262  1  0.698900  0.578500  0.445300  1
  H  H263  1  0.410000  0.533500  0.536500  1
  H  H264  1  0.590000  0.466500  0.463500  1
  H  H265  1  0.325500  0.531700  0.571400  1
  H  H266  1  0.674500  0.468300  0.428600  1
  H  H267  1  0.261500  0.555900  0.485400  1
  H  H268  1  0.738500  0.444100  0.514600  1
  H  H269  1  0.317100  0.622700  0.474600  1
  H  H270  1  0.682900  0.377300  0.525400  1
  H  H271  1  0.341100  0.574300  0.398100  1
  H  H272  1  0.658900  0.425700  0.601900  1
  H  H273  1  0.419300  0.563300  0.429900  1
  H  H274  1  0.580700  0.436700  0.570100  1
  H  H275  1  0.407100  0.451900  0.415600  1
  H  H276  1  0.592900  0.548100  0.584400  1
  H  H277  1  0.319100  0.447200  0.444800  1
  H  H278  1  0.680900  0.552800  0.555200  1
  H  H279  1  0.398300  0.358600  0.511200  1
  H  H280  1  0.601700  0.641400  0.488800  1
  H  H281  1  0.459300  0.419900  0.503100  1
  H  H282  1  0.540700  0.580100  0.496900  1
  H  H283  1  0.383900  0.162600  0.011200  1
  H  H284  1  0.616100  0.837400  0.988800  1
  H  H285  1  0.460600  0.143300  0.974900  1
  H  H286  1  0.539400  0.856700  0.025100  1
  H  H287  1  0.380200  0.150800  0.900200  1
  H  H288  1  0.619800  0.849200  0.099800  1
  H  H289  1  0.349000  0.088600  0.959400  1
  H  H290  1  0.651000  0.911400  0.040600  1
  H  H291  1  0.241100  0.175900  0.910500  1
  H  H292  1  0.758900  0.824100  0.089500  1
  H  H293  1  0.245000  0.176200  0.973200  1
  H  H294  1  0.755000  0.823800  0.026800  1
  H  H295  1  0.307800  0.288200  0.869800  1
  H  H296  1  0.692200  0.711800  0.130200  1
  H  H297  1  0.229800  0.303100  0.906800  1
  H  H298  1  0.770200  0.696900  0.093200  1
  H  H299  1  0.307400  0.287500  0.983000  1
  H  H300  1  0.692600  0.712500  0.017000  1
  H  H301  1  0.334600  0.356100  0.926000  1
  H  H302  1  0.665400  0.643900  0.074000  1
  H  H303  1  0.441400  0.266700  0.902800  1
  H  H304  1  0.558600  0.733300  0.097200  1
  H  H305  1  0.454400  0.272000  0.962900  1
  H  H306  1  0.545600  0.728000  0.037100  1
  H  H307  1  0.765200  0.067000  0.281700  1
  H  H308  1  0.234800  0.933000  0.718300  1
  H  H309  1  0.853600  0.044500  0.300000  1
  H  H310  1  0.146400  0.955500  0.700000  1
  H  H311  1  0.795600  0.029200  0.203900  1
  H  H312  1  0.204400  0.970800  0.796100  1
  H  H313  1  0.825000  0.960700  0.259200  1
  H  H314  1  0.175000  0.039300  0.740800  1
  H  H315  1  0.919300  0.983800  0.177700  1
  H  H316  1  0.080700  0.016200  0.822300  1
  H  H317  1  0.955200  0.986300  0.232400  1
  H  H318  1  0.044800  0.013700  0.767600  1
  H  H319  1  0.997400  0.089400  0.154800  1
  H  H320  1  0.002600  0.910600  0.845200  1
  H  H321  1  0.910200  0.114800  0.134600  1
  H  H322  1  0.089800  0.885200  0.865400  1
  H  H323  1  0.939200  0.196600  0.176000  1
  H  H324  1  0.060800  0.803400  0.824000  1
  H  H325  1  0.966200  0.127400  0.231800  1
  H  H326  1  0.033800  0.872600  0.768200  1
  H  H327  1  0.837800  0.176400  0.255200  1
  H  H328  1  0.162200  0.823600  0.744800  1
  H  H329  1  0.804600  0.169600  0.201000  1
  H  H330  1  0.195400  0.830400  0.799000  1
  H  H331  1  0.621400  0.285600  0.981000  1
  H  H332  1  0.378600  0.714400  0.019000  1
  H  H333  1  0.662400  0.297400  0.918600  1
  H  H334  1  0.337600  0.702600  0.081400  1
  H  H335  1  0.619500  0.168900  0.984100  1
  H  H336  1  0.380500  0.831100  0.015900  1
  H  H337  1  0.693800  0.175400  0.939000  1
  H  H338  1  0.306200  0.824600  0.061000  1
  H  H339  1  0.744500  0.091800  0.010600  1
  H  H340  1  0.255500  0.908200  0.989400  1
  H  H341  1  0.686900  0.117500  0.055300  1
  H  H342  1  0.313100  0.882500  0.944700  1
  H  H343  1  0.834500  0.169500  0.006300  1
  H  H344  1  0.165500  0.830500  0.993700  1
  H  H345  1  0.805500  0.133700  0.072700  1
  H  H346  1  0.194500  0.866300  0.927300  1
  H  H347  1  0.717500  0.249500  0.062800  1
  H  H348  1  0.282500  0.750500  0.937200  1
  H  H349  1  0.807000  0.271300  0.044700  1
  H  H350  1  0.193000  0.728700  0.955300  1
  H  H351  1  0.786300  0.295600  0.946900  1
  H  H352  1  0.213700  0.704400  0.053100  1
  H  H353  1  0.729700  0.352100  0.970900  1
  H  H354  1  0.270300  0.647900  0.029100  1
  H  H355  1  0.408300  0.470600  0.519200  1
  H  H356  1  0.591700  0.529400  0.480800  1
  H  H357  1  0.319900  0.445600  0.530600  1
  H  H358  1  0.680100  0.554400  0.469400  1
  H  H359  1  0.270800  0.572000  0.531000  1
  H  H360  1  0.729200  0.428000  0.469000  1
  H  H361  1  0.328100  0.529400  0.581200  1
  H  H362  1  0.671900  0.470600  0.418800  1
  H  H363  1  0.436700  0.596300  0.519000  1
  H  H364  1  0.563300  0.403700  0.481000  1
  H  H365  1  0.368200  0.654800  0.531400  1
  H  H366  1  0.631800  0.345200  0.468600  1
  H  H367  1  0.315000  0.675400  0.441800  1
  H  H368  1  0.685000  0.324600  0.558200  1
  H  H369  1  0.404400  0.697500  0.430000  1
  H  H370  1  0.595600  0.302500  0.570000  1
  H  H371  1  0.449300  0.576900  0.424300  1
  H  H372  1  0.550700  0.423100  0.575700  1
  H  H373  1  0.385400  0.618200  0.378800  1
  H  H374  1  0.614600  0.381800  0.621200  1
  H  H375  1  0.286200  0.543200  0.441900  1
  H  H376  1  0.713800  0.456800  0.558100  1
  H  H377  1  0.358600  0.488100  0.429900  1
  H  H378  1  0.641400  0.511900  0.570100  1
  H  H379  1  0.949600  0.961700  0.243000  1
  H  H380  1  0.050400  0.038300  0.757000  1
  H  H381  1  0.964700  0.042700  0.243800  1
  H  H382  1  0.035300  0.957300  0.756200  1
  H  H383  1  0.970000  0.049200  0.146500  1
  H  H384  1  0.030000  0.950800  0.853500  1
  H  H385  1  0.881700  0.024400  0.157200  1
  H  H386  1  0.118300  0.975600  0.842800  1
  H  H387  1  0.924800  0.164200  0.161300  1
  H  H388  1  0.075200  0.835800  0.838700  1
  H  H389  1  0.878600  0.159300  0.111700  1
  H  H390  1  0.121400  0.840700  0.888300  1
  H  H391  1  0.767200  0.120900  0.174700  1
  H  H392  1  0.232800  0.879100  0.825300  1
  H  H393  1  0.790900  0.197300  0.178600  1
  H  H394  1  0.209100  0.802700  0.821400  1
  H  H395  1  0.760000  0.104000  0.271600  1
  H  H396  1  0.240000  0.896000  0.728400  1
  H  H397  1  0.847400  0.129100  0.265300  1
  H  H398  1  0.152600  0.870900  0.734700  1
  H  H399  1  0.852200  0.993900  0.307400  1
  H  H400  1  0.147800  0.006100  0.692600  1
  H  H401  1  0.810200  0.990800  0.255200  1
  H  H402  1  0.189800  0.009200  0.744800  1
  H  H403  1  0.874100  0.032800  0.305400  1
  H  H404  1  0.125900  0.967200  0.694600  1
  H  H405  1  0.794900  0.057300  0.273200  1
  H  H406  1  0.205100  0.942700  0.726800  1
  H  H407  1  0.853200  0.947000  0.260700  1
  H  H408  1  0.146800  0.053000  0.739300  1
  H  H409  1  0.935700  0.983400  0.238300  1
  H  H410  1  0.064300  0.016600  0.761700  1
  H  H411  1  0.875200  0.988300  0.158600  1
  H  H412  1  0.124800  0.011700  0.841400  1
  H  H413  1  0.795800  0.029200  0.177600  1
  H  H414  1  0.204200  0.970800  0.822400  1
  H  H415  1  0.862700  0.121700  0.104000  1
  H  H416  1  0.137300  0.878300  0.896000  1
  H  H417  1  0.942100  0.096300  0.136000  1
  H  H418  1  0.057900  0.903700  0.864000  1
  H  H419  1  0.803000  0.173600  0.169900  1
  H  H420  1  0.197000  0.826400  0.830100  1
  H  H421  1  0.887100  0.207000  0.148900  1
  H  H422  1  0.112900  0.793000  0.851100  1
  H  H423  1  0.940100  0.126800  0.233000  1
  H  H424  1  0.059900  0.873200  0.767000  1
  H  H425  1  0.859100  0.166500  0.250900  1
  H  H426  1  0.140900  0.833500  0.749100  1
  H  H427  1  0.754900  0.166900  0.946000  1
  H  H428  1  0.245100  0.833100  0.054000  1
  H  H429  1  0.774600  0.246500  0.897500  1
  H  H430  1  0.225400  0.753500  0.102500  1
  H  H431  1  0.634300  0.235700  0.912300  1
  H  H432  1  0.365700  0.764300  0.087700  1
  H  H433  1  0.655400  0.307200  0.925000  1
  H  H434  1  0.344600  0.692800  0.075000  1
  H  H435  1  0.567200  0.235600  0.002300  1
  H  H436  1  0.432800  0.764400  0.997700  1
  H  H437  1  0.625900  0.160200  0.012700  1
  H  H438  1  0.374100  0.839800  0.987300  1
  H  H439  1  0.664100  0.294100  0.028600  1
  H  H440  1  0.335900  0.705900  0.971400  1
  H  H441  1  0.643900  0.216800  0.079900  1
  H  H442  1  0.356100  0.783200  0.920100  1
  H  H443  1  0.759000  0.152900  0.053800  1
  H  H444  1  0.241000  0.847100  0.946200  1
  H  H445  1  0.781500  0.225100  0.064800  1
  H  H446  1  0.218500  0.774900  0.935200  1
  H  H447  1  0.796100  0.295700  0.965700  1
  H  H448  1  0.203900  0.704300  0.034300  1
  H  H449  1  0.849200  0.216900  0.977800  1
  H  H450  1  0.150800  0.783100  0.022200  1
  H  H451  1  0.134100  0.981100  0.918300  1
  H  H452  1  0.865900  0.018900  0.081700  1
  H  H453  1  0.064000  0.043600  0.920500  1
  H  H454  1  0.936000  0.956400  0.079500  1
  H  H455  1  0.183600  0.097300  0.909400  1
  H  H456  1  0.816400  0.902700  0.090600  1
  H  H457  1  0.214700  0.028300  0.963900  1
  H  H458  1  0.785300  0.971700  0.036100  1
  H  H459  1  0.169500  0.133500  0.992000  1
  H  H460  1  0.830500  0.866500  0.008000  1
  H  H461  1  0.085400  0.139300  0.968400  1
  H  H462  1  0.914600  0.860700  0.031600  1
  H  H463  1  0.074800  0.076200  0.068700  1
  H  H464  1  0.925200  0.923800  0.931300  1
  H  H465  1  0.145500  0.015000  0.064500  1
  H  H466  1  0.854500  0.985000  0.935500  1
  H  H467  1  0.992600  0.029100  0.024000  1
  H  H468  1  0.007400  0.970900  0.976000  1
  H  H469  1  0.026000  0.959500  0.077100  1
  H  H470  1  0.974000  0.040500  0.922900  1
  H  H471  1  0.117900  0.917100  0.017200  1
  H  H472  1  0.882100  0.082900  0.982800  1
  H  H473  1  0.033700  0.928600  0.992500  1
  H  H474  1  0.966300  0.071400  0.007500  1
  H  H475  1  0.761600  0.119200  0.432000  1
  H  H476  1  0.238400  0.880800  0.568000  1
  H  H477  1  0.696300  0.174600  0.451000  1
  H  H478  1  0.303700  0.825400  0.549000  1
  H  H479  1  0.775000  0.144400  0.483600  1
  H  H480  1  0.225000  0.855600  0.516400  1
  H  H481  1  0.731800  0.221600  0.332000  1
  H  H482  1  0.268200  0.778400  0.668000  1
  H  H483  1  0.755500  0.306200  0.316400  1
  H  H484  1  0.244500  0.693800  0.683600  1
  H  H485  1  0.680100  0.276900  0.359500  1
  H  H486  1  0.319900  0.723100  0.640500  1
  H  H487  1  0.734900  0.305200  0.438600  1
  H  H488  1  0.265100  0.694800  0.561400  1
  H  H489  1  0.795800  0.343700  0.385300  1
  H  H490  1  0.204200  0.656300  0.614700  1
  H  H491  1  0.827400  0.292900  0.446100  1
  H  H492  1  0.172600  0.707100  0.553900  1
  H  H493  1  0.553800  0.946200  0.232300  1
  H  H494  1  0.446200  0.053800  0.767700  1
  H  H495  1  0.608300  0.978900  0.174100  1
  H  H496  1  0.391700  0.021100  0.825900  1
  H  H497  1  0.516400  0.973600  0.172200  1
  H  H498  1  0.483600  0.026400  0.827800  1
  H  H499  1  0.528300  0.167100  0.134000  1
  H  H500  1  0.471700  0.832900  0.866000  1
  H  H501  1  0.502400  0.103200  0.114500  1
  H  H502  1  0.497600  0.896800  0.885500  1
  H  H503  1  0.593800  0.110900  0.116300  1
  H  H504  1  0.406200  0.889100  0.883700  1
  H  H505  1  0.605000  0.052300  0.264600  1
  H  H506  1  0.395000  0.947700  0.735400  1
  H  H507  1  0.590500  0.138800  0.222600  1
  H  H508  1  0.409500  0.861200  0.777400  1
  H  H509  1  0.656200  0.082800  0.204700  1
  H  H510  1  0.343800  0.917200  0.795300  1
  H  H511  1  0.260400  0.040700  0.534800  1
  H  H512  1  0.739600  0.959300  0.465200  1
  H  H513  1  0.220600  0.047800  0.593200  1
  H  H514  1  0.779400  0.952200  0.406800  1
  H  H515  1  0.288100  0.981400  0.594700  1
  H  H516  1  0.711900  0.018600  0.405300  1
  H  H517  1  0.420600  0.057300  0.509200  1
  H  H518  1  0.579400  0.942700  0.490800  1
  H  H519  1  0.436000  0.002700  0.573300  1
  H  H520  1  0.564000  0.997300  0.426700  1
  H  H521  1  0.466100  0.086000  0.547800  1
  H  H522  1  0.533900  0.914000  0.452200  1
  H  H523  1  0.371100  0.031200  0.647800  1
  H  H524  1  0.628900  0.968800  0.352200  1
  H  H525  1  0.306900  0.100500  0.645400  1
  H  H526  1  0.693100  0.899500  0.354600  1
  H  H527  1  0.396300  0.116400  0.622000  1
  H  H528  1  0.603700  0.883600  0.378000  1
  H  H529  1  0.180700  0.130900  0.457400  1
  H  H530  1  0.819300  0.869100  0.542600  1
  H  H531  1  0.120000  0.141400  0.410700  1
  H  H532  1  0.880000  0.858600  0.589300  1
  H  H533  1  0.122800  0.985600  0.513600  1
  H  H534  1  0.877200  0.014400  0.486400  1
  H  H535  1  0.110900  0.032200  0.447500  1
  H  H536  1  0.889100  0.967800  0.552500  1
  H  H537  1  0.317300  0.540000  0.328100  1
  H  H538  1  0.682700  0.460000  0.671900  1
  H  H539  1  0.265200  0.498500  0.302300  1
  H  H540  1  0.734800  0.501500  0.697700  1
  H  H541  1  0.233900  0.579600  0.305400  1
  H  H542  1  0.766100  0.420400  0.694600  1
  H  H543  1  0.278200  0.627200  0.139700  1
  H  H544  1  0.721800  0.372800  0.860300  1
  H  H545  1  0.208800  0.633700  0.186200  1
  H  H546  1  0.791200  0.366300  0.813800  1
  H  H547  1  0.241600  0.552200  0.184500  1
  H  H548  1  0.758400  0.447800  0.815500  1
  H  H549  1  0.306600  0.570100  0.314400  1
  H  H550  1  0.693400  0.429900  0.685600  1
  H  H551  1  0.357700  0.563300  0.259200  1
  H  H552  1  0.642300  0.436700  0.740800  1
  H  H553  1  0.291400  0.506200  0.291100  1
  H  H554  1  0.708600  0.493800  0.708900  1
  H  H555  1  0.230600  0.605700  0.148600  1
  H  H556  1  0.769400  0.394300  0.851400  1
  H  H557  1  0.251500  0.526500  0.198800  1
  H  H558  1  0.748500  0.473500  0.801200  1
  H  H559  1  0.317500  0.584900  0.169900  1
  H  H560  1  0.682500  0.415100  0.830100  1
  H  H561  1  0.287600  0.483300  0.240500  1
  H  H562  1  0.712400  0.516700  0.759500  1
  H  H563  1  0.203500  0.502800  0.268600  1
  H  H564  1  0.796500  0.497200  0.731400  1
  H  H565  1  0.607600  0.734000  0.360800  1
  H  H566  1  0.392400  0.266000  0.639200  1
  H  H567  1  0.633400  0.681600  0.323900  1
  H  H568  1  0.366600  0.318400  0.676100  1
  H  H569  1  0.582800  0.761100  0.296900  1
  H  H570  1  0.417200  0.238900  0.703100  1
  H  H571  1  0.772000  0.793200  0.205100  1
  H  H572  1  0.228000  0.206800  0.794900  1
  H  H573  1  0.678300  0.796100  0.206200  1
  H  H574  1  0.321700  0.203900  0.793800  1
  H  H575  1  0.728700  0.716400  0.233000  1
  H  H576  1  0.271300  0.283600  0.767000  1
  H  H577  1  0.749300  0.730800  0.239100  1
  H  H578  1  0.250700  0.269200  0.760900  1
  H  H579  1  0.750800  0.807200  0.251300  1
  H  H580  1  0.249200  0.192800  0.748700  1
  H  H581  1  0.662200  0.833900  0.295800  1
  H  H582  1  0.337800  0.166100  0.704200  1
  H  H583  1  0.626100  0.809300  0.250600  1
  H  H584  1  0.373900  0.190700  0.749400  1
  H  H585  1  0.829100  0.311800  0.204800  1
  H  H586  1  0.170900  0.688200  0.795200  1
  H  H587  1  0.897400  0.336400  0.230500  1
  H  H588  1  0.102600  0.663600  0.769500  1
  H  H589  1  0.898100  0.358100  0.163000  1
  H  H590  1  0.101900  0.641900  0.837000  1
  H  H591  1  0.872700  0.549700  0.172800  1
  H  H592  1  0.127300  0.450300  0.827200  1
  H  H593  1  0.919200  0.497500  0.140400  1
  H  H594  1  0.080800  0.502500  0.859600  1
  H  H595  1  0.925800  0.475100  0.207300  1
  H  H596  1  0.074200  0.524900  0.792700  1
  H  H597  1  0.937200  0.454000  0.153800  1
  H  H598  1  0.062800  0.546000  0.846200  1
  H  H599  1  0.907900  0.424600  0.220400  1
  H  H600  1  0.092100  0.575400  0.779600  1
  H  H601  1  0.165100  0.248300  0.099800  1
  H  H602  1  0.834900  0.751700  0.900200  1
  H  H603  1  0.200100  0.225700  0.160100  1
  H  H604  1  0.799900  0.774300  0.839900  1
  H  H605  1  0.231600  0.147300  0.182500  1
  H  H606  1  0.768400  0.852700  0.817500  1
  H  H607  1  0.192200  0.232800  0.164000  1
  H  H608  1  0.807800  0.767200  0.836000  1
  H  H609  1  0.416900  0.710500  0.237000  1
  H  H610  1  0.583100  0.289500  0.763000  1
  H  H611  1  0.367300  0.789300  0.204700  1
  H  H612  1  0.632700  0.210700  0.795300  1
  H  H613  1  0.429800  0.682000  0.267200  1
  H  H614  1  0.570200  0.318000  0.732800  1
  H  H615  1  0.358400  0.736800  0.234700  1
  H  H616  1  0.641600  0.263200  0.765300  1
  H  H617  1  0.309500  0.838300  0.332800  1
  H  H618  1  0.690500  0.161700  0.667200  1
  H  H619  1  0.346700  0.758400  0.374600  1
  H  H620  1  0.653300  0.241600  0.625400  1
  H  H621  1  0.204000  0.844100  0.158500  1
  H  H622  1  0.796000  0.155900  0.841500  1
  H  H623  1  0.197500  0.924800  0.107400  1
  H  H624  1  0.802500  0.075200  0.892600  1
  H  H625  1  0.297900  0.949100  0.145100  1
  H  H626  1  0.702100  0.050900  0.854900  1
  H  H627  1  0.306200  0.879300  0.124000  1
  H  H628  1  0.693800  0.120700  0.876000  1
  H  H629  1  0.239000  0.992300  0.098000  1
  H  H630  1  0.761000  0.007700  0.902000  1
  H  H631  1  0.201400  0.012900  0.151800  1
  H  H632  1  0.798600  0.987100  0.848200  1
  H  H633  1  0.490400  0.255200  0.348400  1
  H  H634  1  0.509600  0.744800  0.651600  1
  H  H635  1  0.583000  0.240800  0.352600  1
  H  H636  1  0.417000  0.759200  0.647400  1
  H  H637  1  0.454300  0.250300  0.502300  1
  H  H638  1  0.545700  0.749700  0.497700  1
  H  H639  1  0.399500  0.327500  0.492600  1
  H  H640  1  0.600500  0.672500  0.507400  1
  H  H641  1  0.512500  0.314400  0.429000  1
  H  H642  1  0.487500  0.685600  0.571000  1
  H  H643  1  0.437900  0.273200  0.466600  1
  H  H644  1  0.562100  0.726800  0.533400  1
  H  H645  1  0.293500  0.389200  0.908500  1
  H  H646  1  0.706500  0.610800  0.091500  1
  H  H647  1  0.265000  0.330700  0.969800  1
  H  H648  1  0.735000  0.669300  0.030200  1
  H  H649  1  0.256000  0.279100  0.991900  1
  H  H650  1  0.744000  0.720900  0.008100  1
  H  H651  1  0.327400  0.233600  0.968200  1
  H  H652  1  0.672600  0.766400  0.031800  1
  H  H653  1  0.247000  0.320900  0.173000  1
  H  H654  1  0.753000  0.679100  0.827000  1
  H  H655  1  0.260000  0.261000  0.221000  1
  H  H656  1  0.740000  0.739000  0.779000  1
  H  H657  1  0.225300  0.650800  0.343900  1
  H  H658  1  0.774700  0.349200  0.656100  1
  H  H659  1  0.260800  0.719700  0.352000  1
  H  H660  1  0.739200  0.280300  0.648000  1
  H  H661  1  0.222200  0.733000  0.294200  1
  H  H662  1  0.777800  0.267000  0.705800  1
  H  H663  1  0.113000  0.005700  0.001500  1.0
  H  H664  1  0.887000  0.994300  0.998500  1.0
  H  H665  1  0.097600  0.089100  0.954300  1.0
  H  H666  1  0.902400  0.910900  0.045700  1.0
  H  H667  1  0.031000  0.082600  0.044900  1.0
  H  H668  1  0.969000  0.917400  0.955100  1.0
  H  H669  1  0.968900  0.102400  0.997800  1.0
  H  H670  1  0.031100  0.897600  0.002200  1.0
  H  H671  1  0.924300  0.005000  0.083200  1.0
  H  H672  1  0.075700  0.995000  0.916800  1.0
  H  H673  1  0.004200  0.952900  0.080700  1.0
  H  H674  1  0.995800  0.047100  0.919300  1.0
  C  C675  1  0.093600  0.391300  0.178100  1
  C  C676  1  0.906400  0.608700  0.821900  1
  C  C677  1  0.061900  0.327400  0.218700  1
  C  C678  1  0.938100  0.672600  0.781300  1
  C  C679  1  0.032300  0.325100  0.272700  1
  C  C680  1  0.967700  0.674900  0.727300  1
  C  C681  1  0.035400  0.389100  0.286100  1
  C  C682  1  0.964600  0.610900  0.713900  1
  C  C683  1  0.066300  0.454000  0.246700  1
  C  C684  1  0.933700  0.546000  0.753300  1
  C  C685  1  0.096400  0.454200  0.193300  1
  C  C686  1  0.903600  0.545800  0.806700  1
  C  C687  1  0.388300  0.346800  0.278900  1
  C  C688  1  0.611700  0.653200  0.721100  1
  C  C689  1  0.390500  0.290100  0.256100  1
  C  C690  1  0.609500  0.709900  0.743900  1
  C  C691  1  0.360500  0.220700  0.289200  1
  C  C692  1  0.639500  0.779300  0.710800  1
  C  C693  1  0.327300  0.210000  0.343800  1
  C  C694  1  0.672700  0.790000  0.656200  1
  C  C695  1  0.324200  0.265700  0.367300  1
  C  C696  1  0.675800  0.734300  0.632700  1
  C  C697  1  0.355900  0.334800  0.332900  1
  C  C698  1  0.644100  0.665200  0.667100  1
  C  C699  1  0.118300  0.396000  0.118500  1
  C  C700  1  0.881700  0.604000  0.881500  1
  C  C701  1  0.189100  0.426700  0.089000  1
  C  C702  1  0.810900  0.573300  0.911000  1
  C  C703  1  0.200500  0.440900  0.030400  1
  C  C704  1  0.799500  0.559100  0.969600  1
  C  C705  1  0.145700  0.419200  0.002800  1
  C  C706  1  0.854300  0.580800  0.997200  1
  C  C707  1  0.079100  0.384600  0.031800  1
  C  C708  1  0.920900  0.615400  0.968200  1
  C  C709  1  0.066200  0.375400  0.089800  1
  C  C710  1  0.933800  0.624600  0.910200  1
  C  C711  1  0.019200  0.358800  0.003400  1
  C  C712  1  0.980800  0.641200  0.996600  1
  C  C713  1  0.936600  0.377900  0.023800  1
  C  C714  1  0.063400  0.622100  0.976200  1
  C  C715  1  0.033800  0.276700  0.017000  1
  C  C716  1  0.966200  0.723300  0.983000  1
  C  C717  1  0.023100  0.401800  0.939800  1
  C  C718  1  0.976900  0.598200  0.060200  1
  C  C719  1  0.262800  0.483900  0.995000  1
  C  C720  1  0.737200  0.516100  0.005000  1
  C  C721  1  0.373500  0.556900  0.975600  1
  C  C722  1  0.626500  0.443100  0.024400  1
  C  C723  1  0.370700  0.590700  0.916200  1
  C  C724  1  0.629300  0.409300  0.083800  1
  C  C725  1  0.427600  0.639000  0.884700  1
  C  C726  1  0.572400  0.361000  0.115300  1
  C  C727  1  0.486600  0.652400  0.912300  1
  C  C728  1  0.513400  0.347600  0.087700  1
  C  C729  1  0.489800  0.618700  0.970200  1
  C  C730  1  0.510200  0.381300  0.029800  1
  C  C731  1  0.431100  0.571500  0.002400  1
  C  C732  1  0.568900  0.428500  0.997600  1
  C  C733  1  0.371800  0.665600  0.798000  1
  C  C734  1  0.628200  0.334400  0.202000  1
  C  C735  1  0.603500  0.715100  0.901600  1
  C  C736  1  0.396500  0.284900  0.098400  1
  C  C737  1  0.470300  0.547600  0.094100  1
  C  C738  1  0.529700  0.452400  0.905900  1
  C  C739  1  0.470700  0.512500  0.154100  1
  C  C740  1  0.529300  0.487500  0.845900  1
  C  C741  1  0.418400  0.455800  0.185800  1
  C  C742  1  0.581600  0.544200  0.814200  1
  C  C743  1  0.430700  0.416100  0.244600  1
  C  C744  1  0.569300  0.583900  0.755400  1
  C  C745  1  0.483700  0.440100  0.269700  1
  C  C746  1  0.516300  0.559900  0.730300  1
  C  C747  1  0.531000  0.501100  0.239400  1
  C  C748  1  0.469000  0.498900  0.760600  1
  C  C749  1  0.525000  0.533700  0.182700  1
  C  C750  1  0.475000  0.466300  0.817300  1
  C  C751  1  0.587100  0.524000  0.271700  1
  C  C752  1  0.412900  0.476000  0.728300  1
  C  C753  1  0.636600  0.587900  0.231100  1
  C  C754  1  0.363400  0.412100  0.768900  1
  C  C755  1  0.539800  0.551400  0.315900  1
  C  C756  1  0.460200  0.448600  0.684100  1
  C  C757  1  0.643000  0.456800  0.300900  1
  C  C758  1  0.357000  0.543200  0.699100  1
  C  C759  1  0.990600  0.258900  0.313300  1
  C  C760  1  0.009400  0.741100  0.686700  1
  C  C761  1  0.023100  0.183700  0.321800  1
  C  C762  1  0.976900  0.816300  0.678200  1
  C  C763  1  0.973400  0.124000  0.353600  1
  C  C764  1  0.026600  0.876000  0.646400  1
  C  C765  1  0.900300  0.139900  0.379300  1
  C  C766  1  0.099700  0.860100  0.620700  1
  C  C767  1  0.871500  0.211700  0.375200  1
  C  C768  1  0.128500  0.788300  0.624800  1
  C  C769  1  0.919300  0.270800  0.340200  1
  C  C770  1  0.080700  0.729200  0.659800  1
  C  C771  1  0.793100  0.229300  0.404500  1
  C  C772  1  0.206900  0.770700  0.595500  1
  C  C773  1  0.995400  0.048400  0.358300  1
  C  C774  1  0.004600  0.951600  0.641700  1
  C  C775  1  0.077100  0.948000  0.341800  1
  C  C776  1  0.922900  0.052000  0.658200  1
  C  C777  1  0.021700  0.893900  0.359800  1
  C  C778  1  0.978300  0.106100  0.640200  1
  C  C779  1  0.047500  0.821000  0.363000  1
  C  C780  1  0.952500  0.179000  0.637000  1
  C  C781  1  0.125400  0.799900  0.352500  1
  C  C782  1  0.874600  0.200100  0.647500  1
  C  C783  1  0.180800  0.853400  0.333800  1
  C  C784  1  0.819200  0.146600  0.666200  1
  C  C785  1  0.154100  0.929000  0.327200  1
  C  C786  1  0.845900  0.071000  0.672800  1
  C  C787  1  0.916300  0.786000  0.379200  1
  C  C788  1  0.083700  0.214000  0.620800  1
  C  C789  1  0.225200  0.691300  0.377500  1
  C  C790  1  0.774800  0.308700  0.622500  1
  C  C791  1  0.272700  0.985900  0.281900  1
  C  C792  1  0.727300  0.014100  0.718100  1
  C  C793  1  0.327100  0.042300  0.264600  1
  C  C794  1  0.672900  0.957700  0.735400  1
  C  C795  1  0.308000  0.109900  0.276600  1
  C  C796  1  0.692000  0.890100  0.723400  1
  C  C797  1  0.371100  0.157300  0.267400  1
  C  C798  1  0.628900  0.842700  0.732600  1
  C  C799  1  0.441900  0.140500  0.241300  1
  C  C800  1  0.558100  0.859500  0.758700  1
  C  C801  1  0.460000  0.077200  0.224400  1
  C  C802  1  0.540000  0.922800  0.775600  1
  C  C803  1  0.401100  0.027700  0.239500  1
  C  C804  1  0.598900  0.972300  0.760500  1
  C  C805  1  0.538300  0.062000  0.194000  1
  C  C806  1  0.461700  0.938000  0.806000  1
  C  C807  1  0.059500  0.524900  0.260000  1
  C  C808  1  0.940500  0.475100  0.740000  1
  C  C809  1  0.079600  0.520600  0.314300  1
  C  C810  1  0.920400  0.479400  0.685700  1
  C  C811  1  0.056700  0.585900  0.328500  1
  C  C812  1  0.943300  0.414100  0.671500  1
  C  C813  1  0.026600  0.653400  0.287900  1
  C  C814  1  0.973400  0.346600  0.712100  1
  C  C815  1  0.014800  0.659700  0.233900  1
  C  C816  1  0.985200  0.340300  0.766100  1
  C  C817  1  0.030800  0.592300  0.222500  1
  C  C818  1  0.969200  0.407700  0.777500  1
  C  C819  1  0.986100  0.733300  0.187700  1
  C  C820  1  0.013900  0.266700  0.812300  1
  C  C821  1  0.968500  0.799000  0.210700  1
  C  C822  1  0.031500  0.201000  0.789300  1
  C  C823  1  0.908800  0.721500  0.168600  1
  C  C824  1  0.091200  0.278500  0.831400  1
  C  C825  1  0.049700  0.754700  0.137700  1
  C  C826  1  0.950300  0.245300  0.862300  1
  C  C827  1  0.063700  0.583800  0.384700  1
  C  C828  1  0.936300  0.416200  0.615300  1
  C  C829  1  0.095300  0.528900  0.481500  1
  C  C830  1  0.904700  0.471100  0.518500  1
  C  C831  1  0.060800  0.587700  0.498500  1
  C  C832  1  0.939200  0.412300  0.501500  1
  C  C833  1  0.066700  0.582900  0.553800  1
  C  C834  1  0.933300  0.417100  0.446200  1
  C  C835  1  0.107800  0.518500  0.591400  1
  C  C836  1  0.892200  0.481500  0.408600  1
  C  C837  1  0.141000  0.459900  0.575000  1
  C  C838  1  0.859000  0.540100  0.425000  1
  C  C839  1  0.134100  0.466100  0.518300  1
  C  C840  1  0.865900  0.533900  0.481700  1
  C  C841  1  0.991600  0.699900  0.539500  1
  C  C842  1  0.008400  0.300100  0.460500  1
  C  C843  1  0.151100  0.454200  0.684500  1
  C  C844  1  0.848900  0.545800  0.315500  1
  C  C845  1  0.202500  0.348500  0.524700  1
  C  C846  1  0.797500  0.651500  0.475300  1
  C  C847  1  0.238700  0.292200  0.504700  1
  C  C848  1  0.761300  0.707800  0.495300  1
  C  C849  1  0.248500  0.304800  0.444900  1
  C  C850  1  0.751500  0.695200  0.555100  1
  C  C851  1  0.297800  0.250600  0.428300  1
  C  C852  1  0.702200  0.749400  0.571700  1
  C  C853  1  0.325600  0.183800  0.469200  1
  C  C854  1  0.674400  0.816200  0.530800  1
  C  C855  1  0.309600  0.167500  0.528400  1
  C  C856  1  0.690400  0.832500  0.471600  1
  C  C857  1  0.269800  0.223700  0.544400  1
  C  C858  1  0.730200  0.776300  0.455600  1
  C  C859  1  0.337200  0.090400  0.571600  1
  C  C860  1  0.662800  0.909600  0.428400  1
  C  C861  1  0.354500  0.027000  0.551000  1
  C  C862  1  0.645500  0.973000  0.449000  1
  C  C863  1  0.420200  0.098100  0.581300  1
  C  C864  1  0.579800  0.901900  0.418700  1
  C  C865  1  0.293500  0.078800  0.632100  1
  C  C866  1  0.706500  0.921200  0.367900  1
  C  C867  1  0.743900  0.163900  0.423100  1
  C  C868  1  0.256100  0.836100  0.576900  1
  C  C869  1  0.749900  0.294400  0.369900  1
  C  C870  1  0.250100  0.705600  0.630100  1
  C  C871  1  0.814100  0.240600  0.459800  1
  C  C872  1  0.185900  0.759400  0.540200  1
  C  C873  1  0.572700  0.987800  0.223100  1
  C  C874  1  0.427300  0.012200  0.776900  1
  C  C875  1  0.519300  0.065200  0.130700  1
  C  C876  1  0.480700  0.934800  0.869300  1
  C  C877  1  0.588100  0.127300  0.168800  1
  C  C878  1  0.411900  0.872700  0.831200  1
  C  C879  1  0.168100  0.070400  0.457100  1
  C  C880  1  0.831900  0.929600  0.542900  1
  C  C881  1  0.031700  0.105600  0.489800  1
  C  C882  1  0.968300  0.894400  0.510200  1
  C  C883  1  0.720300  0.824700  0.241200  1
  C  C884  1  0.279700  0.175300  0.758800  1
  C  C885  1  0.847000  0.339300  0.194700  1
  C  C886  1  0.153000  0.660700  0.805300  1
  C  C887  1  0.866700  0.472000  0.201900  1
  C  C888  1  0.133300  0.528000  0.798100  1
  C  C889  1  0.327000  0.955300  0.418500  1
  C  C890  1  0.673000  0.044700  0.581500  1
  C  C891  1  0.530100  0.202500  0.359000  1
  C  C892  1  0.469900  0.797500  0.641000  1
  C  C893  1  0.355900  0.434800  0.551100  1
  C  C894  1  0.644100  0.565200  0.448900  1
  C  C895  1  0.355400  0.520000  0.539400  1
  C  C896  1  0.644600  0.480000  0.460600  1
  C  C897  1  0.316700  0.567800  0.482600  1
  C  C898  1  0.683300  0.432200  0.517400  1
  C  C899  1  0.366000  0.546700  0.434500  1
  C  C900  1  0.634000  0.453300  0.565500  1
  C  C901  1  0.371900  0.462100  0.446300  1
  C  C902  1  0.628100  0.537900  0.553700  1
  C  C903  1  0.403000  0.412800  0.503800  1
  C  C904  1  0.597000  0.587200  0.496200  1
  C  C905  1  0.408400  0.172300  0.972000  1
  C  C906  1  0.591600  0.827700  0.028000  1
  C  C907  1  0.355200  0.143400  0.938900  1
  C  C908  1  0.644800  0.856600  0.061100  1
  C  C909  1  0.273000  0.189400  0.934700  1
  C  C910  1  0.727000  0.810600  0.065300  1
  C  C911  1  0.282600  0.275100  0.909100  1
  C  C912  1  0.717400  0.724900  0.090900  1
  C  C913  1  0.331200  0.300500  0.943300  1
  C  C914  1  0.668800  0.699500  0.056700  1
  C  C915  1  0.418700  0.255800  0.942500  1
  C  C916  1  0.581300  0.744200  0.057500  1
  C  C917  1  0.821200  0.065400  0.266900  1
  C  C918  1  0.178800  0.934600  0.733100  1
  C  C919  1  0.834500  0.013000  0.233000  1
  C  C920  1  0.165500  0.987000  0.767000  1
  C  C921  1  0.917100  0.012600  0.203300  1
  C  C922  1  0.082900  0.987400  0.796700  1
  C  C923  1  0.941100  0.092600  0.168500  1
  C  C924  1  0.058900  0.907400  0.831500  1
  C  C925  1  0.928400  0.144400  0.201900  1
  C  C926  1  0.071600  0.855600  0.798100  1
  C  C927  1  0.842100  0.145700  0.230800  1
  C  C928  1  0.157900  0.854300  0.769200  1
  C  C929  1  0.668900  0.271000  0.959900  1
  C  C930  1  0.331100  0.729000  0.040100  1
  C  C931  1  0.673600  0.185100  0.974000  1
  C  C932  1  0.326400  0.814900  0.026000  1
  C  C933  1  0.722500  0.136500  0.020200  1
  C  C934  1  0.277500  0.863500  0.979800  1
  C  C935  1  0.789000  0.167500  0.034600  1
  C  C936  1  0.211000  0.832500  0.965400  1
  C  C937  1  0.763100  0.250500  0.034800  1
  C  C938  1  0.236900  0.749500  0.965200  1
  C  C939  1  0.741100  0.298400  0.974500  1
  C  C940  1  0.258900  0.701600  0.025500  1
  C  C941  1  0.353000  0.489200  0.512700  1
  C  C942  1  0.647000  0.510800  0.487300  1
  C  C943  1  0.326000  0.551800  0.539300  1
  C  C944  1  0.674000  0.448200  0.460700  1
  C  C945  1  0.381000  0.616900  0.513000  1
  C  C946  1  0.619000  0.383100  0.487000  1
  C  C947  1  0.370000  0.655000  0.447800  1
  C  C948  1  0.630000  0.345000  0.552200  1
  C  C949  1  0.393000  0.594800  0.420100  1
  C  C950  1  0.607000  0.405200  0.579900  1
  C  C951  1  0.342000  0.526000  0.448000  1
  C  C952  1  0.658000  0.474000  0.552000  1
  C  C953  1  0.928000  0.015000  0.233100  1
  C  C954  1  0.072000  0.985000  0.766900  1
  C  C955  1  0.918000  0.052000  0.168000  1
  C  C956  1  0.082000  0.948000  0.832000  1
  C  C957  1  0.886000  0.136000  0.153000  1
  C  C958  1  0.114000  0.864000  0.847000  1
  C  C959  1  0.808000  0.143000  0.187100  1
  C  C960  1  0.192000  0.857000  0.812900  1
  C  C961  1  0.813000  0.102000  0.251600  1
  C  C962  1  0.187000  0.898000  0.748400  1
  C  C963  1  0.847000  0.018600  0.265800  1
  C  C964  1  0.153000  0.981400  0.734200  1
  C  C965  1  0.853000  0.052100  0.267400  1
  C  C966  1  0.147000  0.947900  0.732600  1
  C  C967  1  0.878000  0.994800  0.238600  1
  C  C968  1  0.122000  0.005200  0.761400  1
  C  C969  1  0.854000  0.024900  0.177000  1
  C  C970  1  0.146000  0.975100  0.823000  1
  C  C971  1  0.884000  0.102300  0.141900  1
  C  C972  1  0.116000  0.897700  0.858100  1
  C  C973  1  0.861000  0.160200  0.170700  1
  C  C974  1  0.139000  0.839800  0.829300  1
  C  C975  1  0.882000  0.130100  0.232600  1
  C  C976  1  0.118000  0.869900  0.767400  1
  C  C977  1  0.750000  0.222000  0.936600  1
  C  C978  1  0.250000  0.778000  0.063400  1
  C  C979  1  0.661200  0.251000  0.938100  1
  C  C980  1  0.338800  0.749000  0.061900  1
  C  C981  1  0.623300  0.216000  0.000500  1
  C  C982  1  0.376700  0.784000  0.999500  1
  C  C983  1  0.668300  0.238000  0.040500  1
  C  C984  1  0.331700  0.762000  0.959500  1
  C  C985  1  0.754400  0.209000  0.039400  1
  C  C986  1  0.245600  0.791000  0.960600  1
  C  C987  1  0.794400  0.240000  0.978100  1
  C  C988  1  0.205600  0.760000  0.021900  1
  C  C989  1  0.108000  0.011000  0.941300  1
  C  C990  1  0.892000  0.989000  0.058700  1
  C  C991  1  0.167000  0.060000  0.947400  1
  C  C992  1  0.833000  0.940000  0.052600  1
  C  C993  1  0.130000  0.103600  0.986700  1
  C  C994  1  0.870000  0.896400  0.013300  1
  C  C995  1  0.100000  0.048000  0.044900  1
  C  C996  1  0.900000  0.952000  0.955100  1
  C  C997  1  0.041000  0.997000  0.039000  1
  C  C998  1  0.959000  0.003000  0.961000  1
  C  C999  1  0.075000  0.956000  0.998900  1
  C  C1000  1  0.925000  0.044000  0.001100  1
  C  C1001  1  0.753000  0.160700  0.446500  1
  C  C1002  1  0.247000  0.839300  0.553500  1
  C  C1003  1  0.733500  0.262100  0.346700  1
  C  C1004  1  0.266500  0.737900  0.653300  1
  C  C1005  1  0.787300  0.298800  0.420000  1
  C  C1006  1  0.212700  0.701200  0.580000  1
  C  C1007  1  0.555700  0.983400  0.193100  1
  C  C1008  1  0.444300  0.016600  0.806900  1
  C  C1009  1  0.540900  0.115200  0.134800  1
  C  C1010  1  0.459100  0.884800  0.865200  1
  C  C1011  1  0.604200  0.086400  0.224600  1
  C  C1012  1  0.395800  0.913600  0.775400  1
  C  C1013  1  0.270000  0.034400  0.573800  1
  C  C1014  1  0.730000  0.965600  0.426200  1
  C  C1015  1  0.424000  0.055000  0.548000  1
  C  C1016  1  0.576000  0.945000  0.452000  1
  C  C1017  1  0.354000  0.084200  0.625700  1
  C  C1018  1  0.646000  0.915800  0.374300  1
  C  C1019  1  0.136200  0.109100  0.449200  1
  C  C1020  1  0.863800  0.890900  0.550800  1
  C  C1021  1  0.126000  0.036000  0.483000  1
  C  C1022  1  0.874000  0.964000  0.517000  1
  C  C1023  1  0.280700  0.548000  0.299200  1
  C  C1024  1  0.719300  0.452000  0.700800  1
  C  C1025  1  0.255900  0.602900  0.179000  1
  C  C1026  1  0.744100  0.397100  0.821000  1
  C  C1027  1  0.305600  0.558300  0.280100  1
  C  C1028  1  0.694400  0.441700  0.719900  1
  C  C1029  1  0.261000  0.580300  0.181900  1
  C  C1030  1  0.739000  0.419700  0.818100  1
  C  C1031  1  0.254700  0.523100  0.251100  1
  C  C1032  1  0.745300  0.476900  0.748900  1
  C  C1033  1  0.724500  0.771000  0.227100  1
  C  C1034  1  0.275500  0.229000  0.772900  1
  C  C1035  1  0.732900  0.755000  0.267000  1
  C  C1036  1  0.267100  0.245000  0.733000  1
  C  C1037  1  0.673000  0.802000  0.272000  1
  C  C1038  1  0.327000  0.198000  0.728000  1
  C  C1039  1  0.864000  0.351400  0.198000  1
  C  C1040  1  0.136000  0.648600  0.802000  1
  C  C1041  1  0.891000  0.497000  0.176000  1
  C  C1042  1  0.109000  0.503000  0.824000  1
  C  C1043  1  0.891300  0.437200  0.181600  1
  C  C1044  1  0.108700  0.562800  0.818400  1
  C  C1045  1  0.182800  0.204800  0.133600  1
  C  C1046  1  0.817200  0.795200  0.866400  1
  C  C1047  1  0.195900  0.185000  0.156000  1
  C  C1048  1  0.804100  0.815000  0.844000  1
  C  C1049  1  0.415300  0.766000  0.225000  1
  C  C1050  1  0.584700  0.234000  0.775000  1
  C  C1051  1  0.413000  0.735000  0.243900  1
  C  C1052  1  0.587000  0.265000  0.756100  1
  C  C1053  1  0.360000  0.808000  0.345000  1
  C  C1054  1  0.640000  0.192000  0.655000  1
  C  C1055  1  0.206400  0.899000  0.148000  1
  C  C1056  1  0.793600  0.101000  0.852000  1
  C  C1057  1  0.293000  0.894000  0.158000  1
  C  C1058  1  0.707000  0.106000  0.842000  1
  C  C1059  1  0.206000  0.974000  0.134000  1
  C  C1060  1  0.794000  0.026000  0.866000  1
  C  C1061  1  0.532000  0.228200  0.374700  1
  C  C1062  1  0.468000  0.771800  0.625300  1
  C  C1063  1  0.454000  0.304000  0.497300  1
  C  C1064  1  0.546000  0.696000  0.502700  1
  C  C1065  1  0.476000  0.310000  0.463000  1
  C  C1066  1  0.524000  0.690000  0.537000  1
  C  C1067  1  0.292700  0.334500  0.932300  1
  C  C1068  1  0.707300  0.665500  0.067700  1
  C  C1069  1  0.293000  0.282000  0.958300  1
  C  C1070  1  0.707000  0.718000  0.041700  1
  C  C1071  1  0.219000  0.705700  0.335600  1
  C  C1072  1  0.781000  0.294300  0.664400  1
  C  C1073  1  0.624100  0.734100  0.322500  1.0
  C  C1074  1  0.375900  0.265900  0.677500  1.0
  C  C1075  1  0.072200  0.042800  0.979400  1.0
  C  C1076  1  0.927800  0.957200  0.020600  1.0
  C  C1077  1  0.007500  0.062600  0.020100  1.0
  C  C1078  1  0.992500  0.937400  0.979900  1.0
  C  C1079  1  0.965700  0.991600  0.057100  1.0
  C  C1080  1  0.034300  0.008400  0.942900  1.0
  S  S1081  1  0.126800  0.113700  0.507750  1
  S  S1082  1  0.873200  0.886300  0.492250  1
  S  S1083  1  0.729200  0.728900  0.288000  1
  S  S1084  1  0.270800  0.271100  0.712000  1
  S  S1085  1  0.846950  0.434840  0.151350  1
  S  S1086  1  0.153050  0.565160  0.848650  1
  S  S1087  1  0.328500  0.594400  0.228500  1
  S  S1088  1  0.671500  0.405600  0.771500  1
  S  S1089  1  0.232500  0.624600  0.234300  1
  S  S1090  1  0.767500  0.375400  0.765700  1
  S  S1091  1  0.714400  0.781400  0.296000  1
  S  S1092  1  0.285600  0.218600  0.704000  1
  S  S1093  1  0.805900  0.441500  0.192100  1
  S  S1094  1  0.194100  0.558500  0.807900  1
  N  N1095  1  0.316700  0.508600  0.013400  1
  N  N1096  1  0.683300  0.491400  0.986600  1
  N  N1097  1  0.424100  0.535800  0.062400  1
  N  N1098  1  0.575900  0.464200  0.937600  1
  N  N1099  1  0.061100  0.024100  0.338100  1
  N  N1100  1  0.938900  0.975900  0.661900  1
  N  N1101  1  0.202500  0.991500  0.306300  1
  N  N1102  1  0.797500  0.008500  0.693700  1
  N  N1103  1  0.094500  0.526300  0.425500  1
  N  N1104  1  0.905500  0.473700  0.574500  1
  N  N1105  1  0.167300  0.411900  0.494600  1
  N  N1106  1  0.832700  0.588100  0.505400  1
  Cl  Cl1107  1  0.403800  0.002300  0.416500  1
  Cl  Cl1108  1  0.596200  0.997700  0.583500  1
  Cl  Cl1109  1  0.357400  0.867200  0.409200  1
  Cl  Cl1110  1  0.642600  0.132800  0.590800  1
  Cl  Cl1111  1  0.600200  0.154100  0.322900  1
  Cl  Cl1112  1  0.399800  0.845900  0.677100  1
  Cl  Cl1113  1  0.531900  0.148800  0.430600  1
  Cl  Cl1114  1  0.468100  0.851200  0.569400  1
  Cl  Cl1115  1  0.163800  0.012100  0.453600  1
  Cl  Cl1116  1  0.836200  0.987900  0.546400  1
  Cl  Cl1117  1  0.225000  0.062000  0.472000  1
  Cl  Cl1118  1  0.775000  0.938000  0.528000  1
  Cl  Cl1119  1  0.301600  0.541200  0.303100  1
  Cl  Cl1120  1  0.698400  0.458800  0.696900  1
  Cl  Cl1121  1  0.237800  0.603500  0.188000  1
  Cl  Cl1122  1  0.762200  0.396500  0.812000  1
  Cl  Cl1123  1  0.778900  0.702000  0.331600  1
  Cl  Cl1124  1  0.221100  0.298000  0.668400  1
  Cl  Cl1125  1  0.628000  0.762000  0.278800  1
  Cl  Cl1126  1  0.372000  0.238000  0.721200  1
  Cl  Cl1127  1  0.685700  0.705000  0.318000  1
  Cl  Cl1128  1  0.314300  0.295000  0.682000  1
  Cl  Cl1129  1  0.756000  0.833800  0.222500  1
  Cl  Cl1130  1  0.244000  0.166200  0.777500  1
  Cl  Cl1131  1  0.813200  0.512000  0.167400  1
  Cl  Cl1132  1  0.186800  0.488000  0.832600  1
  Cl  Cl1133  1  0.857800  0.354800  0.176300  1
  Cl  Cl1134  1  0.142200  0.645200  0.823700  1
  Cl  Cl1135  1  0.262200  0.155300  0.111900  1
  Cl  Cl1136  1  0.737800  0.844700  0.888100  1
  Cl  Cl1137  1  0.234900  0.203400  0.084700  1
  Cl  Cl1138  1  0.765100  0.796600  0.915300  1
  Cl  Cl1139  1  0.498800  0.799900  0.180800  1
  Cl  Cl1140  1  0.501200  0.200100  0.819200  1
  Cl  Cl1141  1  0.474600  0.763300  0.179200  1
  Cl  Cl1142  1  0.525400  0.236700  0.820800  1
  Cl  Cl1143  1  0.413300  0.855900  0.374700  1
  Cl  Cl1144  1  0.586700  0.144100  0.625300  1
  Cl  Cl1145  1  0.301900  0.916000  0.159000  1
  Cl  Cl1146  1  0.698100  0.084000  0.841000  1
  Cl  Cl1147  1  0.129200  0.932300  0.189100  1
  Cl  Cl1148  1  0.870800  0.067700  0.810900  1
  Cl  Cl1149  1  0.193800  0.875700  0.183700  1
  Cl  Cl1150  1  0.806200  0.124300  0.816300  1
  Cl  Cl1151  1  0.364300  0.845000  0.209000  1
  Cl  Cl1152  1  0.635700  0.155000  0.791000  1
  Cl  Cl1153  1  0.110100  0.961000  0.120000  1
  Cl  Cl1154  1  0.889900  0.039000  0.880000  1
  Cl  Cl1155  1  0.253000  0.888100  0.181200  1
  Cl  Cl1156  1  0.747000  0.111900  0.818800  1
  Cl  Cl1157  1  0.523500  0.266300  0.425800  1
  Cl  Cl1158  1  0.476500  0.733700  0.574200  1
  Cl  Cl1159  1  0.525900  0.134100  0.392100  1
  Cl  Cl1160  1  0.474100  0.865900  0.607900  1
  Cl  Cl1161  1  0.513100  0.350000  0.435800  1
  Cl  Cl1162  1  0.486900  0.650000  0.564200  1
  Cl  Cl1163  1  0.486700  0.310000  0.559300  1
  Cl  Cl1164  1  0.513300  0.690000  0.440700  1
  Cl  Cl1165  1  0.531000  0.273000  0.525000  1
  Cl  Cl1166  1  0.469000  0.727000  0.475000  1
  Cl  Cl1167  1  0.425000  0.399600  0.454800  1
  Cl  Cl1168  1  0.575000  0.600400  0.545200  1
  Cl  Cl1169  1  0.389200  0.295600  0.943000  1
  Cl  Cl1170  1  0.610800  0.704400  0.057000  1
  Cl  Cl1171  1  0.350700  0.359700  0.939900  1
  Cl  Cl1172  1  0.649300  0.640300  0.060100  1
  Cl  Cl1173  1  0.056100  0.102800  0.501600  1.0
  Cl  Cl1174  1  0.943900  0.897200  0.498400  1.0
  Cl  Cl1175  1  0.101500  0.151700  0.167500  1.0
  Cl  Cl1176  1  0.898500  0.848300  0.832500  1.0
  Cl  Cl1177  1  0.238500  0.291600  0.899600  1.0
  Cl  Cl1178  1  0.761500  0.708400  0.100400  1.0
  Cl  Cl1179  1  0.414700  0.792200  0.285300  1.0
  Cl  Cl1180  1  0.585300  0.207800  0.714700  1.0
  O  O1181  1  0.240900  0.438300  0.117730  1
  O  O1182  1  0.759100  0.561700  0.882270  1
  O  O1183  1  0.431100  0.676200  0.827510  1
  O  O1184  1  0.568900  0.323800  0.172490  1
  O  O1185  1  0.539700  0.700600  0.876500  1
  O  O1186  1  0.460300  0.299400  0.123500  1
  O  O1187  1  0.362000  0.439300  0.163930  1
  O  O1188  1  0.638000  0.560700  0.836070  1
  O  O1189  1  0.094600  0.171300  0.303300  1
  O  O1190  1  0.905400  0.828700  0.696700  1
  O  O1191  1  0.998000  0.763200  0.378400  1
  O  O1192  1  0.002000  0.236800  0.621600  1
  O  O1193  1  0.143200  0.725500  0.360200  1
  O  O1194  1  0.856800  0.274500  0.639800  1
  O  O1195  1  0.238000  0.131400  0.293600  1
  O  O1196  1  0.762000  0.868600  0.706400  1
  O  O1197  1  0.116400  0.459500  0.347080  1
  O  O1198  1  0.883600  0.540500  0.652920  1
  O  O1199  1  0.036100  0.635900  0.575340  1
  O  O1200  1  0.963900  0.364100  0.424660  1
  O  O1201  1  0.111300  0.519100  0.645080  1
  O  O1202  1  0.888700  0.480900  0.354920  1
  O  O1203  1  0.213200  0.362600  0.407050  1
  O  O1204  1  0.786800  0.637400  0.592950  1
  O  O1205  1  0.135800  0.057100  0.566000  1
  O  O1206  1  0.864200  0.942900  0.434000  1
  O  O1207  1  0.143200  0.246800  0.376600  1
  O  O1208  1  0.856800  0.753200  0.623400  1
  O  O1209  1  0.323100  0.671500  0.228600  1
  O  O1210  1  0.676900  0.328500  0.771400  1
  O  O1211  1  0.274500  0.695200  0.214900  1
  O  O1212  1  0.725500  0.304800  0.785100  1
  O  O1213  1  0.242400  0.273100  0.189300  1
  O  O1214  1  0.757600  0.726900  0.810700  1
  O  O1215  1  0.774800  0.725400  0.333900  1.0
  O  O1216  1  0.225200  0.274600  0.666100  1.0
  O  O1217  1  0.762600  0.465100  0.139400  1.0
  O  O1218  1  0.237400  0.534900  0.860600  1.0
