
#######################################################################
#
#                 Cambridge Crystallographic Data Centre
#                                CCDC 
#
#######################################################################
#
# If this CIF has been generated from an entry in the Cambridge 
# Structural Database, then it will include bibliographic, chemical, 
# crystal, experimental, refinement or atomic coordinate data resulting 
# from the CCDC's data processing and validation procedures.
#
#######################################################################

data_SIWLOB
_chemical_formula_moiety         
'C102 H102 N6 Ni3 O12,4(C6 H12),3(C2 H6 O1 S1),5(C1 H2 Cl2),H2 O1'
_chemical_name_systematic        
'(\m-6,21,31,46,53,68-hexa-tert-butyl-13,14,38,39,60,61-hexamethoxy-10,17,35,42,57,64-hexaazatridecacyclo[24.24.20.1^3,49^.1^4,8^.1^19,23^.1^24,28^.1^29,33^.1^44,48^.1^51,55^.1^66,70^.0^11,16^.0^36,41^.0^58,63^]octaheptaconta-1,3(73),4(78),5,7,9,11,13,15,17,19(77),20,22,24(76),25,27,29(75),30,32,34,36,38,40,42,44(74),45,47,49,51(72),52,54,56,58,60,62,64,66,68,70-nonatriacontaene-71,72,74,75,77,78-hexolato)-tri-nickel cyclohexane dimethyl sulfoxide dichloromethane solvate monohydrate'
_symmetry_cell_setting           triclinic
_symmetry_space_group_name_H-M   'P -1'
_symmetry_Int_Tables_number      2
_space_group_name_Hall           '-P 1'
loop_
_symmetry_equiv_pos_site_id
_symmetry_equiv_pos_as_xyz
1 x,y,z
2 -x,-y,-z
_cell_length_a                   17.1680(6)
_cell_length_b                   19.0600(7)
_cell_length_c                   25.3558(9)
_cell_angle_alpha                67.974(2)
_cell_angle_beta                 83.133(2)
_cell_angle_gamma                82.959(2)
_cell_volume                     7608.95
_exptl_crystal_colour            'dark red'
_exptl_crystal_description       prismatic
_cell_formula_units_Z            2
_chemical_properties_physical    Efflorescent
loop_
_atom_site_label
_atom_site_type_symbol
_atom_site_fract_x
_atom_site_fract_y
_atom_site_fract_z
Ni1 Ni 0.33598(5) 0.48053(4) 0.08946(3)
Ni2 Ni 0.14895(5) 0.07991(4) 0.30996(4)
Ni3 Ni 0.14765(6) 0.43982(4) 0.41864(3)
C1 C 0.0936(4) 0.3913(3) 0.1781(2)
C2 C 0.0619(3) 0.3274(3) 0.2187(2)
H1 H 0.0604 0.2839 0.2092
C3 C 0.0323(4) 0.3251(3) 0.2727(2)
C4 C 0.0354(4) 0.3891(3) 0.2861(2)
H2 H 0.0158 0.3882 0.3230
C5 C 0.0663(4) 0.4540(3) 0.2467(2)
C6 C 0.0964(4) 0.4542(3) 0.1933(2)
H3 H 0.1193 0.4980 0.1666
C7 C 0.3883(4) 0.3468(3) 0.2789(3)
C8 C 0.3905(4) 0.2901(3) 0.2561(3)
H4 H 0.4122 0.2988 0.2182
C9 C 0.3605(4) 0.2207(3) 0.2892(3)
C10 C 0.3273(4) 0.2100(3) 0.3438(3)
H5 H 0.3059 0.1631 0.3659
C11 C 0.3242(4) 0.2657(3) 0.3673(3)
C12 C 0.3559(4) 0.3348(3) 0.3329(3)
H6 H 0.3545 0.3739 0.3478
C13 C 0.1183(4) 0.3960(3) 0.1185(2)
C14 C 0.1891(4) 0.4267(3) 0.0890(2)
C15 C 0.2005(4) 0.4409(3) 0.0304(2)
C16 C 0.1457(4) 0.4192(4) 0.0028(3)
H7 H 0.1552 0.4289 -0.0369
C17 C 0.0791(4) 0.3846(3) 0.0318(2)
C18 C 0.0662(4) 0.3754(3) 0.0898(2)
H8 H 0.0195 0.3540 0.1104
O1 O 0.2409(3) 0.4383(2) 0.11773(16)
C19 C 0.0192(5) 0.3588(4) 0.0034(3)
C20 C -0.0634(6) 0.3779(8) 0.0238(5)
H9 H -0.0724 0.4329 0.0143
H10 H -0.0711 0.3518 0.0652
H11 H -0.1006 0.3616 0.0051
C21 C 0.0338(7) 0.2767(5) 0.0170(5)
H12 H 0.0878 0.2650 0.0033
H13 H -0.0032 0.2602 -0.0017
H14 H 0.0265 0.2501 0.0584
C22 C 0.0231(7) 0.4018(6) -0.0602(3)
H15 H 0.0133 0.4563 -0.0680
H16 H -0.0170 0.3856 -0.0767
H17 H 0.0754 0.3913 -0.0773
C23 C 0.2628(4) 0.4839(3) -0.0050(2)
H18 H 0.2646 0.4951 -0.0449
N1 N 0.3167(3) 0.5086(3) 0.0134(2)
C24 C 0.3735(4) 0.5569(3) -0.0244(3)
C25 C 0.3707(4) 0.5907(3) -0.0838(3)
H19 H 0.3306 0.5806 -0.1021
C26 C 0.4276(4) 0.6390(3) -0.1153(3)
C27 C 0.4866(4) 0.6524(3) -0.0877(3)
C28 C 0.4898(4) 0.6187(3) -0.0298(3)
H20 H 0.5312 0.6273 -0.0117
C29 C 0.4311(4) 0.5715(3) 0.0024(3)
O2 O 0.4311(3) 0.6762(3) -0.17249(19)
C30 C 0.3718(5) 0.6656(4) -0.2020(3)
H21 H 0.3808 0.6953 -0.2428
H22 H 0.3203 0.6823 -0.1875
H23 H 0.3732 0.6116 -0.1962
O3 O 0.5397(3) 0.7006(2) -0.1235(2)
C31 C 0.6035(5) 0.7151(4) -0.0984(3)
H24 H 0.6370 0.7501 -0.1282
H25 H 0.6346 0.6672 -0.0796
H26 H 0.5825 0.7378 -0.0702
N2 N 0.4241(3) 0.5358(2) 0.0624(2)
C32 C 0.4703(4) 0.5476(3) 0.0941(3)
H27 H 0.5079 0.5835 0.0753
C33 C 0.4707(4) 0.5125(3) 0.1541(3)
C34 C 0.4184(4) 0.4558(3) 0.1858(3)
C35 C 0.4307(4) 0.4161(3) 0.2446(3)
C36 C 0.4837(4) 0.4401(3) 0.2697(3)
H28 H 0.4888 0.4144 0.3095
C37 C 0.5310(4) 0.5011(3) 0.2394(3)
C38 C 0.5250(4) 0.5337(3) 0.1827(3)
H29 H 0.5584 0.5725 0.1608
O4 O 0.3620(3) 0.4393(2) 0.16393(17)
C39 C 0.5871(5) 0.5240(4) 0.2717(3)
C40 C 0.6366(5) 0.5879(4) 0.2311(4)
H30 H 0.6672 0.5709 0.2022
H31 H 0.6724 0.6005 0.2529
H32 H 0.6016 0.6329 0.2122
C41 C 0.5398(6) 0.5514(5) 0.3159(4)
H33 H 0.5034 0.5951 0.2968
H34 H 0.5756 0.5664 0.3364
H35 H 0.5098 0.5104 0.3430
C42 C 0.6430(5) 0.4568(4) 0.3009(4)
H36 H 0.6735 0.4392 0.2724
H37 H 0.6130 0.4158 0.3281
H38 H 0.6788 0.4718 0.3214
C43 C -0.0094(4) 0.2589(3) 0.3133(2)
C44 C 0.0231(4) 0.1837(3) 0.3218(2)
C45 C -0.0266(4) 0.1240(3) 0.3536(2)
C46 C -0.0997(4) 0.1399(3) 0.3793(2)
H39 H -0.1308 0.0989 0.4005
C47 C -0.1285(4) 0.2117(3) 0.3752(3)
C48 C -0.0807(4) 0.2708(3) 0.3402(2)
H40 H -0.0996 0.3217 0.3353
O5 O 0.0946(3) 0.1713(2) 0.30330(17)
C49 C -0.2069(5) 0.2293(4) 0.4045(3)
C50 C -0.0046(4) 0.0484(3) 0.3583(2)
H41 H -0.0414 0.0121 0.3781
N3 N 0.0611(3) 0.0241(2) 0.3381(2)
C51 C 0.0771(5) -0.0520(3) 0.3418(3)
C52 C 0.0217(4) -0.1061(3) 0.3598(3)
H42 H -0.0319 -0.0931 0.3695
C53 C 0.0475(5) -0.1790(4) 0.3630(3)
C54 C 0.1254(6) -0.2001(4) 0.3525(4)
C55 C 0.1808(5) -0.1466(4) 0.3338(4)
H43 H 0.2346 -0.1605 0.3257
C56 C 0.1541(5) -0.0710(4) 0.3272(4)
N4 N 0.2025(4) -0.0085(3) 0.3063(3)
O6 O -0.0020(4) -0.2368(2) 0.3784(2)
C57 C -0.0837(5) -0.2140(4) 0.3792(4)
H44 H -0.1134 -0.2588 0.3905
H45 H -0.0965 -0.1791 0.3410
H46 H -0.0976 -0.1885 0.4065
O7 O 0.1432(4) -0.2745(3) 0.3602(4)
C58 C 0.2252(13) -0.3087(11) 0.3775(10)
H47 H 0.2309 -0.3624 0.3819
H48 H 0.2331 -0.3045 0.4139
H49 H 0.2645 -0.2814 0.3480
C59 C 0.2727(5) -0.0141(4) 0.2819(4)
H50 H 0.2889 -0.0596 0.2750
C60 C 0.3271(5) 0.0423(4) 0.2646(4)
C61 C 0.3080(4) 0.1099(3) 0.2766(3)
C62 C 0.3711(4) 0.1573(3) 0.2674(3)
C63 C 0.4419(4) 0.1405(4) 0.2413(3)
H51 H 0.4818 0.1740 0.2341
C64 C 0.4600(5) 0.0772(4) 0.2244(4)
C65 C 0.4011(5) 0.0277(4) 0.2395(4)
H52 H 0.4117 -0.0183 0.2325
O8 O 0.2380(3) 0.1314(2) 0.2936(2)
C66 C 0.5383(5) 0.0620(5) 0.1940(4)
C67 C 0.0595(4) 0.5249(3) 0.2600(2)
C68 C 0.0796(4) 0.5206(3) 0.3143(2)
C69 C 0.0567(4) 0.5859(3) 0.3285(2)
C70 C 0.0266(5) 0.6534(3) 0.2879(3)
H53 H 0.0139 0.6967 0.2983
C71 C 0.0148(5) 0.6597(3) 0.2339(3)
C72 C 0.0308(4) 0.5923(3) 0.2225(3)
H54 H 0.0207 0.5942 0.1859
O9 O 0.1164(3) 0.4595(2) 0.34708(16)
C73 C -0.0139(7) 0.7333(4) 0.1877(3)
C74 C -0.0315(8) 0.7990(4) 0.2107(4)
H55 H -0.0496 0.8455 0.1800
H56 H 0.0166 0.8073 0.2241
H57 H -0.0725 0.7857 0.2423
C75 C -0.0912(7) 0.7215(5) 0.1686(4)
H58 H -0.1101 0.7685 0.1388
H59 H -0.1306 0.7081 0.2013
H60 H -0.0821 0.6805 0.1536
C76 C 0.0497(7) 0.7547(4) 0.1377(3)
H61 H 0.0318 0.8020 0.1077
H62 H 0.0597 0.7140 0.1223
H63 H 0.0984 0.7616 0.1511
C77 C 0.0637(4) 0.5838(3) 0.3847(2)
H64 H 0.0443 0.6278 0.3928
N5 N 0.0945(3) 0.5263(3) 0.4255(2)
C78 C 0.0953(4) 0.5289(3) 0.4815(2)
C79 C 0.0608(4) 0.5877(3) 0.4985(3)
H65 H 0.0335 0.6307 0.4725
C80 C 0.0667(4) 0.5829(4) 0.5538(3)
C81 C 0.1078(4) 0.5185(4) 0.5914(3)
C82 C 0.1410(4) 0.4599(4) 0.5750(3)
H66 H 0.1679 0.4164 0.6009
C83 C 0.1341(4) 0.4661(4) 0.5183(3)
O10 O 0.0361(3) 0.6359(3) 0.57534(19)
C84 C -0.0084(5) 0.6999(4) 0.5395(3)
H67 H -0.0273 0.7340 0.5600
H68 H -0.0536 0.6831 0.5284
H69 H 0.0247 0.7268 0.5052
O11 O 0.1113(3) 0.5191(3) 0.64508(19)
C85 C 0.1511(5) 0.4542(5) 0.6845(3)
H70 H 0.1501 0.4608 0.7211
H71 H 0.2058 0.4482 0.6695
H72 H 0.1247 0.4089 0.6901
N6 N 0.1673(3) 0.4119(3) 0.4946(2)
C86 C 0.2025(4) 0.3485(3) 0.5247(3)
H73 H 0.2041 0.3388 0.5641
C87 C 0.2387(4) 0.2922(3) 0.5047(3)
C88 C 0.2485(4) 0.3048(3) 0.4449(3)
C89 C 0.2978(5) 0.2506(3) 0.4283(3)
C90 C 0.3256(6) 0.1838(4) 0.4692(3)
H74 H 0.3568 0.1471 0.4570
C91 C 0.3096(6) 0.1675(4) 0.5284(3)
C92 C 0.2698(5) 0.2237(4) 0.5444(3)
H75 H 0.2629 0.2163 0.5838
O12 O 0.2132(3) 0.3626(2) 0.40705(17)
C93 C 0.3372(8) 0.0904(5) 0.5716(4)
C94 C 0.3545(15) 0.0270(9) 0.5510(9)
H76 H 0.3054 0.0137 0.5424
H77 H 0.3789 -0.0171 0.5806
H78 H 0.3906 0.0422 0.5165
C95 C 0.4202(14) 0.0981(12) 0.5813(10)
H79 H 0.4201 0.1394 0.5955
H80 H 0.4531 0.1097 0.5452
H81 H 0.4414 0.0505 0.6093
C96 C 0.2935(13) 0.0788(10) 0.6321(6)
H82 H 0.2879 0.1269 0.6384
H83 H 0.3242 0.0404 0.6616
H84 H 0.2413 0.0618 0.6340
C97 C -0.2561(11) 0.1639(11) 0.4231(8)
H85 H -0.2269 0.1183 0.4478
H86 H -0.2693 0.1554 0.3896
H87 H -0.3047 0.1750 0.4442
C98 C -0.2501(11) 0.2944(10) 0.3699(10)
H88 H -0.2184 0.3380 0.3577
H89 H -0.2985 0.3045 0.3916
H90 H -0.2637 0.2862 0.3363
C99 C -0.1859(11) 0.2406(13) 0.4598(9)
H91 H -0.1558 0.1948 0.4835
H92 H -0.2345 0.2498 0.4816
H93 H -0.1543 0.2842 0.4485
C100 C 0.5727(13) -0.0122(11) 0.2231(10)
H94 H 0.5323 -0.0484 0.2345
H95 H 0.5954 -0.0135 0.2572
H96 H 0.6143 -0.0260 0.1978
C101 C 0.5193(15) 0.0652(16) 0.1307(10)
H97 H 0.4954 0.1159 0.1090
H98 H 0.4827 0.0272 0.1356
H99 H 0.5683 0.0545 0.1099
C102 C 0.5881(13) 0.1273(12) 0.1688(12)
H100 H 0.5552 0.1736 0.1492
H101 H 0.6290 0.1172 0.1415
H102 H 0.6130 0.1340 0.1993
S1 S 0.1268(4) 0.1137(2) 0.50775(16)
O13 O 0.1358(7) 0.0571(5) 0.5660(4)
C103 C 0.1681(15) 0.0704(12) 0.4571(8)
H103 H 0.2257 0.0661 0.4560
H104 H 0.1514 0.1019 0.4191
H105 H 0.1497 0.0197 0.4687
C104 C 0.0317(11) 0.1056(15) 0.4898(11)
H106 H -0.0089 0.1257 0.5123
H107 H 0.0250 0.0521 0.4981
H108 H 0.0268 0.1347 0.4490
O14 O 0.1432(5) 0.2468(4) 0.3766(3)
H109 H 0.137(4) 0.225(4) 0.354(2)
H110 H 0.169(5) 0.284(3) 0.357(3)
S2 S -0.2708(3) 0.7289(2) 0.2880(2)
O15 O -0.2252(6) 0.7254(5) 0.3339(4)
C105 C -0.3759(7) 0.7341(12) 0.3225(8)
H111 H -0.3863 0.6845 0.3518
H112 H -0.4134 0.7478 0.2932
H113 H -0.3816 0.7726 0.3399
C106 C -0.2797(14) 0.8247(10) 0.2412(10)
H114 H -0.2302 0.8371 0.2175
H115 H -0.2913 0.8576 0.2635
H116 H -0.3225 0.8325 0.2167
S3 S -0.15305(18) 0.43484(18) 0.15135(11)
O16 O -0.2374(4) 0.4651(4) 0.1394(3)
C107 C -0.1530(10) 0.3393(7) 0.1947(7)
H117 H -0.1646 0.3101 0.1724
H118 H -0.1933 0.3331 0.2266
H119 H -0.1012 0.3210 0.2095
C108 C -0.1333(7) 0.4720(7) 0.2019(4)
H120 H -0.1297 0.5269 0.1834
H121 H -0.0834 0.4478 0.2180
H122 H -0.1759 0.4620 0.2326
Cl1 Cl 0.4038(6) 0.0023(5) 0.4165(5)
Cl2 Cl 0.3574(6) -0.1328(4) 0.4092(3)
C109 C 0.3270(13) -0.0447(11) 0.4185(10)
H123 H 0.2929 -0.0127 0.3880
H124 H 0.2957 -0.0547 0.4556
Cl3 Cl 0.6002(4) 0.1541(3) 0.3229(2)
Cl4 Cl 0.5319(5) 0.1488(7) 0.4306(4)
C110 C 0.5301(17) 0.2025(13) 0.3590(8)
H125 H 0.5450 0.2543 0.3510
H126 H 0.4768 0.2065 0.3464
C111 C 0.3559(16) 0.4348(11) 0.5511(7)
H127 H 0.3790 0.4052 0.5878
H128 H 0.3011 0.4215 0.5547
C112 C 0.3554(16) 0.5200(11) 0.5394(8)
H129 H 0.4100 0.5335 0.5365
H130 H 0.3255 0.5317 0.5714
C113 C 0.3167(15) 0.5678(11) 0.4826(9)
H131 H 0.2615 0.5559 0.4854
H132 H 0.3171 0.6227 0.4746
C114 C 0.366(2) 0.5467(11) 0.4345(8)
H133 H 0.3411 0.5743 0.3981
H134 H 0.4193 0.5633 0.4299
C115 C 0.3719(15) 0.4621(11) 0.4463(8)
H135 H 0.4071 0.4519 0.4156
H136 H 0.3191 0.4472 0.4448
C116 C 0.4030(14) 0.4128(11) 0.5038(10)
H137 H 0.3983 0.3586 0.5112
H138 H 0.4593 0.4199 0.5031
C117 C 0.4084(12) 0.1723(10) -0.0280(10)
H139 H 0.3839 0.1626 0.0112
H140 H 0.4606 0.1433 -0.0251
C118 C 0.3552(13) 0.1434(11) -0.0611(13)
H141 H 0.3802 0.1508 -0.0998
H142 H 0.3490 0.0886 -0.0406
C119 C 0.2730(12) 0.1894(11) -0.0653(12)
H143 H 0.2411 0.1759 -0.0895
H144 H 0.2450 0.1762 -0.0268
C120 C 0.2826(13) 0.2751(11) -0.0909(13)
H145 H 0.3078 0.2882 -0.1302
H146 H 0.2298 0.3031 -0.0932
C121 C 0.3312(13) 0.3005(10) -0.0567(12)
H147 H 0.3074 0.2875 -0.0170
H148 H 0.3346 0.3561 -0.0740
C122 C 0.4187(11) 0.2558(11) -0.0575(13)
H149 H 0.4414 0.2667 -0.0972
H150 H 0.4544 0.2720 -0.0371
C123 C -0.1788(13) 0.0654(10) 0.2669(8)
H151 H -0.2348 0.0670 0.2817
H152 H -0.1464 0.0445 0.3000
C124 C -0.1655(12) 0.0130(10) 0.2330(10)
H153 H -0.2044 0.0292 0.2039
H154 H -0.1750 -0.0393 0.2592
C125 C -0.0829(14) 0.0126(9) 0.2033(10)
H155 H -0.0807 -0.0162 0.1777
H156 H -0.0448 -0.0137 0.2324
C126 C -0.0589(13) 0.0926(9) 0.1685(9)
H157 H -0.0026 0.0894 0.1548
H158 H -0.0898 0.1148 0.1346
C127 C -0.0716(12) 0.1444(10) 0.2019(9)
H159 H -0.0608 0.1966 0.1760
H160 H -0.0338 0.1274 0.2318
C128 C -0.1579(12) 0.1457(9) 0.2308(9)
H161 H -0.1622 0.1764 0.2552
H162 H -0.1954 0.1696 0.2010
C129 C -0.3311(15) 0.2710(12) -0.0401(12)
H163 H -0.3786 0.2856 -0.0190
H164 H -0.3376 0.2974 -0.0814
C130 C -0.3264(17) 0.1851(13) -0.0260(15)
H165 H -0.3805 0.1689 -0.0159
H166 H -0.3062 0.1754 -0.0610
C131 C -0.2775(16) 0.1365(10) 0.0202(12)
H167 H -0.2555 0.0918 0.0106
H168 H -0.3131 0.1175 0.0553
C132 C -0.2110(17) 0.1675(13) 0.0346(15)
H169 H -0.1655 0.1695 0.0063
H170 H -0.1945 0.1337 0.0727
C133 C -0.2369(19) 0.2505(15) 0.0348(12)
H171 H -0.2825 0.2495 0.0628
H172 H -0.1930 0.2713 0.0447
C134 C -0.2589(16) 0.2984(10) -0.0255(11)
H173 H -0.2137 0.2956 -0.0531
H174 H -0.2703 0.3521 -0.0291
C135 C 0.0722(12) 0.0428(14) -0.0206(12)
H175 H 0.1130 0.0057 0.0015
H176 H 0.0976 0.0891 -0.0457
C136 C 0.0075(17) 0.0626(11) 0.0201(10)
H177 H 0.0310 0.0826 0.0449
H178 H -0.0311 0.1024 -0.0022
C137 C -0.0343(19) -0.0084(17) 0.0571(9)
H179 H -0.0757 0.0050 0.0832
H180 H 0.0042 -0.0471 0.0807
C135A C -0.0722(12) -0.0428(14) 0.0206(12)
H175A H -0.1130 -0.0057 -0.0015
H176A H -0.0976 -0.0891 0.0457
C136A C -0.0075(17) -0.0626(11) -0.0201(10)
H177A H -0.0310 -0.0826 -0.0449
H178A H 0.0311 -0.1024 0.0022
C137A C 0.0343(19) 0.0084(17) -0.0571(9)
H179A H 0.0757 -0.0050 -0.0832
H180A H -0.0042 0.0471 -0.0807
C138? C 0.353(2) 0.4892(11) 0.5127(10)
H181? H 0.4083 0.4706 0.5192
H182? H 0.3199 0.4456 0.5306
C139? C 0.326(2) 0.5518(16) 0.5393(10)
H183? H 0.2708 0.5720 0.5310
H184? H 0.3281 0.5294 0.5812
C140? C 0.381(2) 0.6169(15) 0.5130(11)
H185? H 0.4367 0.5963 0.5190
H186? H 0.3682 0.6548 0.5314
C141? C 0.370(3) 0.6550(12) 0.4478(12)
H187? H 0.3150 0.6754 0.4418
H188? H 0.4044 0.6975 0.4300
C142? C 0.393(2) 0.5948(16) 0.4201(10)
H189? H 0.4493 0.5769 0.4243
H190? H 0.3854 0.6182 0.3788
C143? C 0.342(3) 0.5260(17) 0.4480(11)
H191? H 0.2862 0.5432 0.4419
H192? H 0.3586 0.4881 0.4299
C144? C -0.072(2) 0.015(2) 0.2331(13)
H193? H -0.0504 -0.0383 0.2430
H194? H -0.0353 0.0427 0.2438
C145? C -0.082(2) 0.052(2) 0.1680(12)
H195? H -0.0300 0.0492 0.1465
H196? H -0.1183 0.0244 0.1572
C146? C -0.114(2) 0.136(2) 0.1530(13)
H197? H -0.0752 0.1642 0.1613
H198? H -0.1214 0.1593 0.1117
C147? C -0.192(2) 0.143(2) 0.1871(14)
H199? H -0.2328 0.1209 0.1747
H200? H -0.2091 0.1973 0.1786
C148? C -0.187(2) 0.102(2) 0.2516(13)
H201? H -0.2400 0.1040 0.2716
H202? H -0.1526 0.1291 0.2653
C149? C -0.153(2) 0.0186(19) 0.2658(13)
H203? H -0.1478 -0.0061 0.3074
H204? H -0.1898 -0.0092 0.2552
C150? C -0.147(3) 0.0521(15) 0.2674(9)
H205? H -0.1259 0.0328 0.3054
H206? H -0.2051 0.0573 0.2732
C151? C -0.122(2) -0.0052(12) 0.2386(11)
H207? H -0.1468 -0.0530 0.2607
H208? H -0.0643 -0.0166 0.2383
C152? C -0.146(2) 0.0249(14) 0.1770(11)
H209? H -0.1248 -0.0117 0.1586
H210? H -0.2042 0.0292 0.1776
C153? C -0.116(3) 0.1023(14) 0.1419(9)
H211? H -0.1373 0.1217 0.1040
H212? H -0.0579 0.0963 0.1360
C154? C -0.139(3) 0.1602(12) 0.1707(11)
H213? H -0.1970 0.1736 0.1699
H214? H -0.1129 0.2070 0.1489
C155? C -0.118(3) 0.1301(15) 0.2326(12)
H215? H -0.0599 0.1268 0.2330
H216? H -0.1409 0.1665 0.2509
C156? C -0.2500(16) 0.222(2) -0.0634(12)
H217? H -0.2451 0.1669 -0.0540
H218? H -0.2254 0.2465 -0.1025
C157? C -0.3388(16) 0.251(2) -0.0619(11)
H219? H -0.3657 0.2357 -0.0877
H220? H -0.3446 0.3072 -0.0750
C158? C -0.3767(14) 0.216(2) 0.0005(13)
H221? H -0.4328 0.2356 0.0023
H222? H -0.3741 0.1602 0.0127
C159? C -0.3317(17) 0.238(2) 0.0405(12)
H223? H -0.3359 0.2941 0.0286
H224? H -0.3561 0.2168 0.0799
C160? C -0.2456(17) 0.209(3) 0.0394(11)
H225? H -0.2410 0.1529 0.0538
H226? H -0.2185 0.2251 0.0648
C161? C -0.2056(14) 0.240(2) -0.0219(13)
H227? H -0.2039 0.2957 -0.0343
H228? H -0.1508 0.2169 -0.0222
C162? C 0.108(3) 0.011(2) -0.0587(14)
H229? H 0.1341 -0.0189 -0.0817
H230? H 0.0640 0.0436 -0.0795
C163? C 0.167(2) 0.060(2) -0.0526(16)
H231? H 0.1836 0.0973 -0.0906
H232? H 0.2147 0.0283 -0.0361
C164? C 0.130(3) 0.1036(19) -0.0133(17)
H233? H 0.1695 0.1335 -0.0080
H234? H 0.0854 0.1393 -0.0316
C165? C 0.100(3) 0.048(2) 0.0449(14)
H235? H 0.0748 0.0762 0.0687
H236? H 0.1455 0.0150 0.0645
C166? C 0.041(3) -0.003(2) 0.0390(17)
H237? H -0.0074 0.0291 0.0240
H238? H 0.0260 -0.0405 0.0771
C167? C 0.075(3) -0.044(2) -0.0011(19)
H239? H 0.1179 -0.0829 0.0172
H240? H 0.0337 -0.0714 -0.0075
C168? C -0.247(2) 0.1607(16) 0.4465(13)
H241? H -0.2384 0.1192 0.4320
H242? H -0.3037 0.1746 0.4510
H243? H -0.2250 0.1444 0.4836
C169? C -0.2665(16) 0.2621(16) 0.3467(11)
H244? H -0.2682 0.2216 0.3320
H245? H -0.2445 0.3062 0.3164
H246? H -0.3199 0.2769 0.3595
C170? C -0.2127(14) 0.2988(12) 0.4200(11)
H247? H -0.2651 0.3052 0.4386
H248? H -0.2042 0.3437 0.3853
H249? H -0.1726 0.2929 0.4461
C171? C 0.5557(18) -0.0166(13) 0.1931(13)
H250? H 0.5538 -0.0538 0.2323
H251? H 0.6083 -0.0211 0.1741
H252? H 0.5164 -0.0264 0.1722
C172? C 0.5409(14) 0.1152(14) 0.1348(9)
H253? H 0.5283 0.1671 0.1340
H254? H 0.5024 0.1032 0.1145
H255? H 0.5938 0.1109 0.1163
C173? C 0.6042(12) 0.0864(15) 0.2246(12)
H256? H 0.6050 0.0523 0.2646
H257? H 0.5905 0.1388 0.2226
H258? H 0.6562 0.0828 0.2047
C174? C 0.270(2) 0.0344(13) 0.5738(12)
H259? H 0.2604 0.0407 0.5348
H260? H 0.2206 0.0478 0.5932
H261? H 0.2881 -0.0186 0.5947
C175? C 0.424(2) 0.055(2) 0.5480(15)
H262? H 0.4206 0.0573 0.5092
H263? H 0.4360 0.0027 0.5733
H264? H 0.4661 0.0860 0.5478
C176? C 0.354(2) 0.0842(18) 0.6257(13)
H265? H 0.3711 0.0312 0.6478
H266? H 0.3069 0.1005 0.6454
H267? H 0.3963 0.1164 0.6220
Cl5? Cl 0.0561(5) 0.1028(5) 0.5016(4)
Cl6? Cl 0.1638(7) 0.0121(4) 0.4536(3)
C177? C 0.1362(15) 0.1091(11) 0.4492(11)
H268? H 0.1807 0.1309 0.4574
H269? H 0.1200 0.1414 0.4107
Cl7? Cl 0.0561(5) 0.1028(5) 0.5016(4)
Cl8? Cl 0.2250(13) 0.062(2) 0.472(2)
C178? C 0.126(2) 0.036(4) 0.483(6)
H270? H 0.1228 -0.0144 0.5136
H271? H 0.1109 0.0322 0.4475
S4? S 0.3285(4) 0.5944(3) 0.2285(3)
O17? O 0.3231(15) 0.6715(8) 0.2286(11)
C179? C 0.2807(19) 0.548(2) 0.2992(10)
H272? H 0.3173 0.5400 0.3281
H273? H 0.2652 0.4985 0.3023
H274? H 0.2339 0.5796 0.3054
C180? C 0.2559(17) 0.6029(19) 0.1790(14)
H275? H 0.2782 0.6272 0.1397
H276? H 0.2088 0.6337 0.1862
H277? H 0.2416 0.5522 0.1845
S5? S 0.2325(5) 0.6246(3) 0.2343(4)
O18? O 0.2745(15) 0.6952(10) 0.2149(11)
C181? C 0.3056(18) 0.5583(18) 0.2801(12)
H278? H 0.3066 0.5701 0.3144
H279? H 0.3577 0.5633 0.2592
H280? H 0.2914 0.5062 0.2911
C182? C 0.261(2) 0.5803(18) 0.1819(13)
H281? H 0.2306 0.6057 0.1486
H282? H 0.2515 0.5265 0.1988
H283? H 0.3175 0.5849 0.1699
Cl9? Cl 0.3016(10) 0.5412(7) 0.3031(5)
Cl10? Cl 0.2378(13) 0.6035(9) 0.1880(7)
C183? C 0.2547(17) 0.5231(13) 0.2511(10)
H284? H 0.2876 0.4833 0.2405
H285? H 0.2035 0.5028 0.2686
S6? S -0.2856(10) 0.7814(11) 0.2960(7)
O19? O -0.2252(6) 0.7254(5) 0.3339(4)
C184? C -0.3759(7) 0.7341(12) 0.3225(8)
H286? H -0.3924 0.7340 0.3608
H287? H -0.3666 0.6816 0.3239
H288? H -0.4172 0.7611 0.2969
C185? C -0.2755(18) 0.771(3) 0.2271(8)
H289? H -0.2280 0.7932 0.2051
H290? H -0.3217 0.7961 0.2062
H291? H -0.2713 0.7164 0.2330
Cl11? Cl -0.2211(19) 0.702(2) 0.3316(17)
Cl12? Cl -0.3720(15) 0.762(2) 0.2788(15)
C186? C -0.2671(19) 0.755(8) 0.267(2)
H292? H -0.2507 0.7308 0.2391
H293? H -0.2492 0.8072 0.2513
Cl13? Cl -0.3143(10) 0.7050(8) 0.3180(7)
Cl14? Cl -0.244(2) 0.8338(17) 0.2225(15)
C187? C -0.327(2) 0.8020(17) 0.272(2)
H294? H -0.3378 0.8339 0.2958
H295? H -0.3739 0.8093 0.2506
S7? S -0.1941(11) 0.4415(13) 0.1921(7)
O20? O -0.2374(4) 0.4651(4) 0.1394(3)
C188? C -0.136(3) 0.3514(17) 0.198(3)
H296? H -0.1709 0.3118 0.2048
H297? H -0.1026 0.3364 0.2305
H298? H -0.1019 0.3581 0.1630
C189? C -0.109(2) 0.497(2) 0.176(2)
H299? H -0.1273 0.5497 0.1728
H300? H -0.0808 0.4975 0.1404
H301? H -0.0742 0.4751 0.2073
Cl15? Cl -0.1868(5) 0.5120(5) 0.1674(3)
Cl16? Cl -0.1422(10) 0.3548(6) 0.1763(8)
C190? C -0.1087(13) 0.4372(11) 0.1816(15)
H302? H -0.0628 0.4540 0.1538
H303? H -0.0921 0.4246 0.2204
Cl17? Cl 0.2622(6) 0.1553(5) 0.1119(6)
Cl18? Cl 0.1015(3) 0.1517(3) 0.1675(2)
C191? C 0.1828(10) 0.2048(11) 0.1336(12)
H304? H 0.1651 0.2483 0.0998
H305? H 0.2001 0.2257 0.1601
Cl19? Cl 0.2349(5) 0.2034(7) 0.0847(4)
Cl20? Cl 0.1015(3) 0.1517(3) 0.1675(2)
C192? C 0.1959(14) 0.185(2) 0.1560(10)
H306? H 0.2316 0.1473 0.1825
H307? H 0.1922 0.2328 0.1640
Cl21? Cl 0.4147(5) -0.2078(5) 0.2853(4)
Cl22? Cl 0.4988(9) -0.2001(6) 0.1808(5)
C193? C 0.4153(19) -0.234(2) 0.2250(12)
H308? H 0.4169 -0.2895 0.2370
H309? H 0.3673 -0.2107 0.2047
Cl23? Cl 0.4147(5) -0.2078(5) 0.2853(4)
Cl24? Cl 0.4746(15) -0.2367(17) 0.1792(9)
C194? C 0.413(4) -0.265(3) 0.2439(19)
H310? H 0.4298 -0.3180 0.2672
H311? H 0.3584 -0.2632 0.2347
Cl25? Cl 0.4147(5) -0.2078(5) 0.2853(4)
Cl26? Cl 0.4133(16) -0.1441(14) 0.3747(8)
C195? C 0.360(3) -0.192(4) 0.345(2)
H312? H 0.3095 -0.1617 0.3328
H313? H 0.3467 -0.2416 0.3746
Cl27? Cl 0.3019(14) -0.084(3) 0.159(2)
Cl28? Cl 0.1292(14) -0.0677(15) 0.1891(11)
C196? C 0.2064(17) -0.101(4) 0.148(3)
H314? H 0.2040 -0.1559 0.1585
H315? H 0.1975 -0.0752 0.1074
Cl29? Cl 0.1938(16) -0.1243(19) 0.1837(14)
Cl30? Cl 0.3643(18) -0.155(3) 0.209(2)
C197? C 0.293(2) -0.106(9) 0.158(3)
H316? H 0.2979 -0.0509 0.1451
H317? H 0.3062 -0.1207 0.1240
Cl31? Cl 0.1101(18) -0.039(2) 0.120(2)
C198? C 0.206(4) -0.026(3) 0.134(5)
H318? H 0.2390 -0.0077 0.0980
H319? H 0.2014 0.0129 0.1518
Cl32? Cl 0.253(2) -0.1119(17) 0.1812(16)
Cl33? Cl 0.5235(4) 0.2663(4) 0.4258(3)
Cl34? Cl 0.5259(12) 0.1341(7) 0.3921(10)
C199? C 0.532(2) 0.2282(12) 0.3747(10)
H320? H 0.4904 0.2552 0.3484
H321? H 0.5830 0.2408 0.3526
Cl35? Cl 0.5131(11) 0.3500(9) 0.4358(5)
Cl36? Cl 0.4867(19) 0.3100(16) 0.5593(7)
C200? C 0.454(2) 0.304(2) 0.4973(9)
H322? H 0.4543 0.2503 0.5023
H323? H 0.3995 0.3275 0.4926
Cl37? Cl 0.531(3) 0.273(3) 0.525(2)
Cl38? Cl 0.425(2) 0.3996(19) 0.4548(17)
C201? C 0.476(7) 0.310(4) 0.463(4)
H324? H 0.5125 0.3144 0.4290
H325? H 0.4379 0.2732 0.4666
Cl39? Cl 0.3892(5) 0.2956(5) -0.0570(4)
Cl40? Cl 0.2385(5) 0.2916(6) -0.1004(5)
C202? C 0.2927(11) 0.3345(13) -0.0677(10)
H326? H 0.2935 0.3892 -0.0915
H327? H 0.2650 0.3307 -0.0302
Cl41? Cl 0.3507(14) 0.3597(17) -0.0601(13)
Cl42? Cl 0.2385(5) 0.2916(6) -0.1004(5)
C203? C 0.293(4) 0.282(3) -0.0417(18)
H328? H 0.2560 0.2791 -0.0081
H329? H 0.3274 0.2336 -0.0318
O21? O 0.2424(8) 0.2731(7) 0.1893(5)
H330? H 0.247(9) 0.3209(17) 0.173(4)
H331? H 0.260(8) 0.261(5) 0.221(3)
C204? C 0.2190(12) -0.2943(9) 0.3356(9)
H332? H 0.2253 -0.3492 0.3439
H333? H 0.2608 -0.2803 0.3520
H334? H 0.2222 -0.2670 0.2942
loop_
_geom_bond_atom_site_label_1
_geom_bond_atom_site_label_2
_geom_bond_site_symmetry_1
_geom_bond_site_symmetry_2
Ni1 O1 1_555 1_555
Ni2 O5 1_555 1_555
Ni3 O9 1_555 1_555
C1 C2 1_555 1_555
C2 H1 1_555 1_555
C3 C2 1_555 1_555
C4 C3 1_555 1_555
H2 C4 1_555 1_555
C5 C4 1_555 1_555
C6 C1 1_555 1_555
H3 C6 1_555 1_555
C7 C8 1_555 1_555
C8 H4 1_555 1_555
C9 C8 1_555 1_555
C10 C9 1_555 1_555
H5 C10 1_555 1_555
C11 C10 1_555 1_555
C12 C7 1_555 1_555
H6 C12 1_555 1_555
C13 C1 1_555 1_555
C14 C13 1_555 1_555
C15 C14 1_555 1_555
C16 C15 1_555 1_555
H7 C16 1_555 1_555
C17 C16 1_555 1_555
C18 C13 1_555 1_555
H8 C18 1_555 1_555
O1 C14 1_555 1_555
C19 C17 1_555 1_555
C20 C19 1_555 1_555
H9 C20 1_555 1_555
H10 C20 1_555 1_555
H11 C20 1_555 1_555
C21 C19 1_555 1_555
H12 C21 1_555 1_555
H13 C21 1_555 1_555
H14 C21 1_555 1_555
C22 C19 1_555 1_555
H15 C22 1_555 1_555
H16 C22 1_555 1_555
H17 C22 1_555 1_555
C23 C15 1_555 1_555
H18 C23 1_555 1_555
N1 Ni1 1_555 1_555
C24 N1 1_555 1_555
C25 C24 1_555 1_555
H19 C25 1_555 1_555
C26 C25 1_555 1_555
C27 C26 1_555 1_555
C28 C27 1_555 1_555
H20 C28 1_555 1_555
C29 C24 1_555 1_555
O2 C26 1_555 1_555
C30 O2 1_555 1_555
H21 C30 1_555 1_555
H22 C30 1_555 1_555
H23 C30 1_555 1_555
O3 C27 1_555 1_555
C31 O3 1_555 1_555
H24 C31 1_555 1_555
H25 C31 1_555 1_555
H26 C31 1_555 1_555
N2 Ni1 1_555 1_555
C32 N2 1_555 1_555
H27 C32 1_555 1_555
C33 C32 1_555 1_555
C34 C33 1_555 1_555
C35 C7 1_555 1_555
C36 C35 1_555 1_555
H28 C36 1_555 1_555
C37 C36 1_555 1_555
C38 C33 1_555 1_555
H29 C38 1_555 1_555
O4 Ni1 1_555 1_555
C39 C37 1_555 1_555
C40 C39 1_555 1_555
H30 C40 1_555 1_555
H31 C40 1_555 1_555
H32 C40 1_555 1_555
C41 C39 1_555 1_555
H33 C41 1_555 1_555
H34 C41 1_555 1_555
H35 C41 1_555 1_555
C42 C39 1_555 1_555
H36 C42 1_555 1_555
H37 C42 1_555 1_555
H38 C42 1_555 1_555
C43 C3 1_555 1_555
C44 C43 1_555 1_555
C45 C44 1_555 1_555
C46 C45 1_555 1_555
H39 C46 1_555 1_555
C47 C46 1_555 1_555
C48 C43 1_555 1_555
H40 C48 1_555 1_555
O5 C44 1_555 1_555
C49 C47 1_555 1_555
C50 C45 1_555 1_555
H41 C50 1_555 1_555
N3 Ni2 1_555 1_555
C51 N3 1_555 1_555
C52 C51 1_555 1_555
H42 C52 1_555 1_555
C53 C52 1_555 1_555
C54 C53 1_555 1_555
C55 C54 1_555 1_555
H43 C55 1_555 1_555
C56 C51 1_555 1_555
N4 Ni2 1_555 1_555
O6 C53 1_555 1_555
C57 O6 1_555 1_555
H44 C57 1_555 1_555
H45 C57 1_555 1_555
H46 C57 1_555 1_555
O7 C54 1_555 1_555
C58 O7 1_555 1_555
H47 C58 1_555 1_555
H48 C58 1_555 1_555
H49 C58 1_555 1_555
C59 N4 1_555 1_555
H50 C59 1_555 1_555
C60 C59 1_555 1_555
C61 C60 1_555 1_555
C62 C9 1_555 1_555
C63 C62 1_555 1_555
H51 C63 1_555 1_555
C64 C63 1_555 1_555
C65 C60 1_555 1_555
H52 C65 1_555 1_555
O8 Ni2 1_555 1_555
C66 C64 1_555 1_555
C67 C5 1_555 1_555
C68 C67 1_555 1_555
C69 C68 1_555 1_555
C70 C69 1_555 1_555
H53 C70 1_555 1_555
C71 C70 1_555 1_555
C72 C67 1_555 1_555
H54 C72 1_555 1_555
O9 C68 1_555 1_555
C73 C71 1_555 1_555
C74 C73 1_555 1_555
H55 C74 1_555 1_555
H56 C74 1_555 1_555
H57 C74 1_555 1_555
C75 C73 1_555 1_555
H58 C75 1_555 1_555
H59 C75 1_555 1_555
H60 C75 1_555 1_555
C76 C73 1_555 1_555
H61 C76 1_555 1_555
H62 C76 1_555 1_555
H63 C76 1_555 1_555
C77 C69 1_555 1_555
H64 C77 1_555 1_555
N5 Ni3 1_555 1_555
C78 N5 1_555 1_555
C79 C78 1_555 1_555
H65 C79 1_555 1_555
C80 C79 1_555 1_555
C81 C80 1_555 1_555
C82 C81 1_555 1_555
H66 C82 1_555 1_555
C83 C78 1_555 1_555
O10 C80 1_555 1_555
C84 O10 1_555 1_555
H67 C84 1_555 1_555
H68 C84 1_555 1_555
H69 C84 1_555 1_555
O11 C81 1_555 1_555
C85 O11 1_555 1_555
H70 C85 1_555 1_555
H71 C85 1_555 1_555
H72 C85 1_555 1_555
N6 Ni3 1_555 1_555
C86 N6 1_555 1_555
H73 C86 1_555 1_555
C87 C86 1_555 1_555
C88 C87 1_555 1_555
C89 C11 1_555 1_555
C90 C89 1_555 1_555
H74 C90 1_555 1_555
C91 C90 1_555 1_555
C92 C87 1_555 1_555
H75 C92 1_555 1_555
O12 Ni3 1_555 1_555
C93 C91 1_555 1_555
C94 C93 1_555 1_555
H76 C94 1_555 1_555
H77 C94 1_555 1_555
H78 C94 1_555 1_555
C95 C93 1_555 1_555
H79 C95 1_555 1_555
H80 C95 1_555 1_555
H81 C95 1_555 1_555
C96 C93 1_555 1_555
H82 C96 1_555 1_555
H83 C96 1_555 1_555
H84 C96 1_555 1_555
C97 C49 1_555 1_555
H85 C97 1_555 1_555
H86 C97 1_555 1_555
H87 C97 1_555 1_555
C98 C49 1_555 1_555
H88 C98 1_555 1_555
H89 C98 1_555 1_555
H90 C98 1_555 1_555
C99 C49 1_555 1_555
H91 C99 1_555 1_555
H92 C99 1_555 1_555
H93 C99 1_555 1_555
C100 C66 1_555 1_555
H94 C100 1_555 1_555
H95 C100 1_555 1_555
H96 C100 1_555 1_555
C101 C66 1_555 1_555
H97 C101 1_555 1_555
H98 C101 1_555 1_555
H99 C101 1_555 1_555
C102 C66 1_555 1_555
H100 C102 1_555 1_555
H101 C102 1_555 1_555
H102 C102 1_555 1_555
S1 O13 1_555 1_555
C103 S1 1_555 1_555
H103 C103 1_555 1_555
H104 C103 1_555 1_555
H105 C103 1_555 1_555
C104 S1 1_555 1_555
H106 C104 1_555 1_555
H107 C104 1_555 1_555
H108 C104 1_555 1_555
O14 H109 1_555 1_555
H110 O14 1_555 1_555
S2 O15 1_555 1_555
C105 S2 1_555 1_555
H111 C105 1_555 1_555
H112 C105 1_555 1_555
H113 C105 1_555 1_555
C106 S2 1_555 1_555
H114 C106 1_555 1_555
H115 C106 1_555 1_555
H116 C106 1_555 1_555
S3 O16 1_555 1_555
C107 S3 1_555 1_555
H117 C107 1_555 1_555
H118 C107 1_555 1_555
H119 C107 1_555 1_555
C108 S3 1_555 1_555
H120 C108 1_555 1_555
H121 C108 1_555 1_555
H122 C108 1_555 1_555
Cl1 C109 1_555 1_555
Cl2 C109 1_555 1_555
C109 H123 1_555 1_555
H124 C109 1_555 1_555
Cl3 C110 1_555 1_555
Cl4 C110 1_555 1_555
C110 H125 1_555 1_555
H126 C110 1_555 1_555
C111 H127 1_555 1_555
H128 C111 1_555 1_555
C112 C111 1_555 1_555
H129 C112 1_555 1_555
H130 C112 1_555 1_555
C113 C112 1_555 1_555
H131 C113 1_555 1_555
H132 C113 1_555 1_555
C114 C113 1_555 1_555
H133 C114 1_555 1_555
H134 C114 1_555 1_555
C115 C114 1_555 1_555
H135 C115 1_555 1_555
H136 C115 1_555 1_555
C116 C111 1_555 1_555
H137 C116 1_555 1_555
H138 C116 1_555 1_555
C117 H139 1_555 1_555
H140 C117 1_555 1_555
C118 C117 1_555 1_555
H141 C118 1_555 1_555
H142 C118 1_555 1_555
C119 C118 1_555 1_555
H143 C119 1_555 1_555
H144 C119 1_555 1_555
C120 C119 1_555 1_555
H145 C120 1_555 1_555
H146 C120 1_555 1_555
C121 C120 1_555 1_555
H147 C121 1_555 1_555
H148 C121 1_555 1_555
C122 C117 1_555 1_555
H149 C122 1_555 1_555
H150 C122 1_555 1_555
C123 H151 1_555 1_555
H152 C123 1_555 1_555
C124 C123 1_555 1_555
H153 C124 1_555 1_555
H154 C124 1_555 1_555
C125 C124 1_555 1_555
H155 C125 1_555 1_555
H156 C125 1_555 1_555
C126 C125 1_555 1_555
H157 C126 1_555 1_555
H158 C126 1_555 1_555
C127 C126 1_555 1_555
H159 C127 1_555 1_555
H160 C127 1_555 1_555
C128 C123 1_555 1_555
H161 C128 1_555 1_555
H162 C128 1_555 1_555
C129 H163 1_555 1_555
H164 C129 1_555 1_555
C130 C129 1_555 1_555
H165 C130 1_555 1_555
H166 C130 1_555 1_555
C131 C130 1_555 1_555
H167 C131 1_555 1_555
H168 C131 1_555 1_555
C132 C131 1_555 1_555
H169 C132 1_555 1_555
H170 C132 1_555 1_555
C133 C132 1_555 1_555
H171 C133 1_555 1_555
H172 C133 1_555 1_555
C134 C129 1_555 1_555
H173 C134 1_555 1_555
H174 C134 1_555 1_555
C135 H175 1_555 1_555
H176 C135 1_555 1_555
C136 C135 1_555 1_555
H177 C136 1_555 1_555
H178 C136 1_555 1_555
C137 C136 1_555 1_555
H179 C137 1_555 1_555
H180 C137 1_555 1_555
C135A C137 1_555 1_555
H175A C135A 1_555 1_555
H176A C135A 1_555 1_555
C136A C135A 1_555 1_555
H177A C136A 1_555 1_555
H178A C136A 1_555 1_555
C137A C135 1_555 1_555
H179A C137A 1_555 1_555
H180A C137A 1_555 1_555
C5 C6 1_555 1_555
C11 C12 1_555 1_555
C17 C18 1_555 1_555
C23 N1 1_555 1_555
C28 C29 1_555 1_555
C29 N2 1_555 1_555
C34 C35 1_555 1_555
C34 O4 1_555 1_555
C37 C38 1_555 1_555
C47 C48 1_555 1_555
C50 N3 1_555 1_555
C55 C56 1_555 1_555
C56 N4 1_555 1_555
C61 C62 1_555 1_555
C61 O8 1_555 1_555
C64 C65 1_555 1_555
C71 C72 1_555 1_555
C77 N5 1_555 1_555
C82 C83 1_555 1_555
C83 N6 1_555 1_555
C88 C89 1_555 1_555
C88 O12 1_555 1_555
C91 C92 1_555 1_555
C115 C116 1_555 1_555
C121 C122 1_555 1_555
C127 C128 1_555 1_555
C133 C134 1_555 1_555
C136A C137A 1_555 1_555

#END
