# generated using pymatgen
data_Ni3H247C165S5N12(Cl8O25)2
_symmetry_space_group_name_H-M   'P 1'
_cell_length_a   17.83100000
_cell_length_b   21.04500000
_cell_length_c   24.61500000
_cell_angle_alpha   106.80800000
_cell_angle_beta   108.96900000
_cell_angle_gamma   91.34900000
_symmetry_Int_Tables_number   1
_chemical_formula_structural   Ni3H247C165S5N12(Cl8O25)2
_chemical_formula_sum   'Ni6 H494 C330 S10 N24 Cl32 O100'
_cell_volume   8291.29503171
_cell_formula_units_Z   2
loop_
 _symmetry_equiv_pos_site_id
 _symmetry_equiv_pos_as_xyz
  1  'x, y, z'
loop_
 _atom_site_type_symbol
 _atom_site_label
 _atom_site_symmetry_multiplicity
 _atom_site_fract_x
 _atom_site_fract_y
 _atom_site_fract_z
 _atom_site_occupancy
  Ni  Ni1  1  0.063680  0.109410  0.131990  1
  Ni  Ni2  1  0.936320  0.890590  0.868010  1
  Ni  Ni3  1  0.420610  0.350830  0.414670  1
  Ni  Ni4  1  0.579390  0.649170  0.585330  1
  Ni  Ni5  1  0.150190  0.052870  0.452930  1
  Ni  Ni6  1  0.849810  0.947130  0.547070  1
  H  H7  1  0.348100  0.052900  0.400100  1
  H  H8  1  0.651900  0.947100  0.599900  1
  H  H9  1  0.232600  0.011600  0.220100  1
  H  H10  1  0.767400  0.988400  0.779900  1
  H  H11  1  0.416800  0.160200  0.308100  1
  H  H12  1  0.583200  0.839800  0.691900  1
  H  H13  1  0.205300  0.344600  0.443600  1
  H  H14  1  0.794700  0.655400  0.556400  1
  H  H15  1  0.035700  0.186000  0.388400  1
  H  H16  1  0.964300  0.814000  0.611600  1
  H  H17  1  0.058400  0.274300  0.267900  1
  H  H18  1  0.941600  0.725700  0.732100  1
  H  H19  1  0.284800  0.101400  0.039000  1
  H  H20  1  0.715200  0.898600  0.961000  1
  H  H21  1  0.426000  0.103500  0.204600  1
  H  H22  1  0.574000  0.896500  0.795400  1
  H  H23  1  0.441900  0.000200  0.074100  1
  H  H24  1  0.558100  0.999800  0.925900  1
  H  H25  1  0.493000  0.035400  0.144200  1
  H  H26  1  0.507000  0.964600  0.855800  1
  H  H27  1  0.529700  0.038500  0.093600  1
  H  H28  1  0.470300  0.961500  0.906400  1
  H  H29  1  0.552500  0.164400  0.134100  1
  H  H30  1  0.447500  0.835600  0.865900  1
  H  H31  1  0.518300  0.159900  0.185700  1
  H  H32  1  0.481700  0.840100  0.814300  1
  H  H33  1  0.481600  0.205900  0.144500  1
  H  H34  1  0.518400  0.794100  0.855500  1
  H  H35  1  0.386300  0.070900  0.007800  1
  H  H36  1  0.613700  0.929100  0.992200  1
  H  H37  1  0.473200  0.110800  0.027100  1
  H  H38  1  0.526800  0.889200  0.972900  1
  H  H39  1  0.400100  0.150900  0.034400  1
  H  H40  1  0.599900  0.849100  0.965600  1
  H  H41  1  0.148300  0.094100  0.012500  1
  H  H42  1  0.851700  0.905900  0.987500  1
  H  H43  1  0.046200  0.070500  0.936300  1
  H  H44  1  0.953800  0.929500  0.063700  1
  H  H45  1  0.817400  0.076300  0.992800  1
  H  H46  1  0.182600  0.923700  0.007200  1
  H  H47  1  0.954300  0.041700  0.779500  1
  H  H48  1  0.045700  0.958300  0.220500  1
  H  H49  1  0.999400  0.009200  0.830500  1
  H  H50  1  0.000600  0.990800  0.169500  1
  H  H51  1  0.012900  0.088500  0.844200  1
  H  H52  1  0.987100  0.911500  0.155800  1
  H  H53  1  0.668600  0.068700  0.857700  1
  H  H54  1  0.331400  0.931300  0.142300  1
  H  H55  1  0.721400  0.112000  0.925400  1
  H  H56  1  0.278600  0.888000  0.074600  1
  H  H57  1  0.706300  0.032200  0.907200  1
  H  H58  1  0.293700  0.967800  0.092800  1
  H  H59  1  0.850400  0.054900  0.077300  1
  H  H60  1  0.149600  0.945100  0.922700  1
  H  H61  1  0.897900  0.181900  0.321000  1
  H  H62  1  0.102100  0.818100  0.679000  1
  H  H63  1  0.790200  0.061700  0.151000  1
  H  H64  1  0.209800  0.938300  0.849000  1
  H  H65  1  0.648700  0.043100  0.214500  1
  H  H66  1  0.351300  0.956900  0.785500  1
  H  H67  1  0.720800  0.006900  0.199600  1
  H  H68  1  0.279200  0.993100  0.800400  1
  H  H69  1  0.680500  0.057900  0.165000  1
  H  H70  1  0.319500  0.942100  0.835000  1
  H  H71  1  0.755500  0.207400  0.291900  1
  H  H72  1  0.244500  0.792600  0.708100  1
  H  H73  1  0.669100  0.165100  0.269000  1
  H  H74  1  0.330900  0.834900  0.731000  1
  H  H75  1  0.703300  0.181300  0.221200  1
  H  H76  1  0.296700  0.818700  0.778800  1
  H  H77  1  0.811500  0.126000  0.345600  1
  H  H78  1  0.188500  0.874000  0.654400  1
  H  H79  1  0.802200  0.048200  0.308900  1
  H  H80  1  0.197800  0.951800  0.691100  1
  H  H81  1  0.726300  0.081200  0.320000  1
  H  H82  1  0.273700  0.918800  0.680000  1
  H  H83  1  0.629600  0.251700  0.555900  1
  H  H84  1  0.370400  0.748300  0.444100  1
  H  H85  1  0.493200  0.078900  0.448100  1
  H  H86  1  0.506800  0.921100  0.551900  1
  H  H87  1  0.687800  0.042500  0.538700  1
  H  H88  1  0.312200  0.957500  0.461300  1
  H  H89  1  0.691400  0.090000  0.499100  1
  H  H90  1  0.308600  0.910000  0.500900  1
  H  H91  1  0.614300  0.036400  0.478300  1
  H  H92  1  0.385700  0.963600  0.521700  1
  H  H93  1  0.595200  0.059900  0.598500  1
  H  H94  1  0.404800  0.940100  0.401500  1
  H  H95  1  0.520000  0.055700  0.539600  1
  H  H96  1  0.480000  0.944300  0.460400  1
  H  H97  1  0.541800  0.119900  0.598600  1
  H  H98  1  0.458200  0.880100  0.401400  1
  H  H99  1  0.716500  0.139300  0.629600  1
  H  H100  1  0.283500  0.860700  0.370400  1
  H  H101  1  0.662300  0.198800  0.630800  1
  H  H102  1  0.337700  0.801200  0.369200  1
  H  H103  1  0.720900  0.189600  0.592600  1
  H  H104  1  0.279100  0.810400  0.407400  1
  H  H105  1  0.613800  0.347500  0.524400  1
  H  H106  1  0.386200  0.652500  0.475600  1
  H  H107  1  0.685400  0.420200  0.508400  1
  H  H108  1  0.314600  0.579800  0.491600  1
  H  H109  1  0.512500  0.555100  0.417600  1
  H  H110  1  0.487500  0.444900  0.582400  1
  H  H111  1  0.870000  0.510700  0.546600  1
  H  H112  1  0.130000  0.489300  0.453400  1
  H  H113  1  0.807500  0.445600  0.503700  1
  H  H114  1  0.192500  0.554400  0.496300  1
  H  H115  1  0.805000  0.483500  0.569400  1
  H  H116  1  0.195000  0.516500  0.430600  1
  H  H117  1  0.651000  0.690800  0.443400  1
  H  H118  1  0.349000  0.309200  0.556600  1
  H  H119  1  0.579900  0.664400  0.461000  1
  H  H120  1  0.420100  0.335600  0.539000  1
  H  H121  1  0.587200  0.628200  0.396400  1
  H  H122  1  0.412800  0.371800  0.603600  1
  H  H123  1  0.397000  0.505600  0.373200  1
  H  H124  1  0.603000  0.494400  0.626800  1
  H  H125  1  0.077500  0.398000  0.293300  1
  H  H126  1  0.922500  0.602000  0.706700  1
  H  H127  1  0.270800  0.516700  0.313600  1
  H  H128  1  0.729200  0.483300  0.686400  1
  H  H129  1  0.190100  0.542800  0.231200  1
  H  H130  1  0.809900  0.457200  0.768800  1
  H  H131  1  0.181200  0.590500  0.292000  1
  H  H132  1  0.818800  0.409500  0.708000  1
  H  H133  1  0.113700  0.581900  0.227900  1
  H  H134  1  0.886300  0.418100  0.772100  1
  H  H135  1  0.017700  0.489100  0.291800  1
  H  H136  1  0.982300  0.510900  0.708200  1
  H  H137  1  0.010000  0.550000  0.264600  1
  H  H138  1  0.990000  0.450000  0.735400  1
  H  H139  1  0.076000  0.557900  0.329200  1
  H  H140  1  0.924000  0.442100  0.670800  1
  H  H141  1  0.101400  0.433900  0.173900  1
  H  H142  1  0.898600  0.566100  0.826100  1
  H  H143  1  0.025800  0.474200  0.169000  1
  H  H144  1  0.974200  0.525800  0.831000  1
  H  H145  1  0.032600  0.413500  0.196600  1
  H  H146  1  0.967400  0.586500  0.803400  1
  H  H147  1  0.092800  0.820100  0.294300  1
  H  H148  1  0.907200  0.179900  0.705700  1
  H  H149  1  0.241000  0.903200  0.234600  1
  H  H150  1  0.759000  0.096800  0.765400  1
  H  H151  1  0.080400  0.873700  0.388100  1
  H  H152  1  0.919600  0.126300  0.611900  1
  H  H153  1  0.081100  0.852300  0.466300  1
  H  H154  1  0.918900  0.147700  0.533700  1
  H  H155  1  0.081200  0.051500  0.614900  1
  H  H156  1  0.918800  0.948500  0.385100  1
  H  H157  1  0.021100  0.733100  0.522500  1
  H  H158  1  0.978900  0.266900  0.477500  1
  H  H159  1  0.089900  0.765900  0.506600  1
  H  H160  1  0.910100  0.234100  0.493400  1
  H  H161  1  0.997900  0.769200  0.471300  1
  H  H162  1  0.002100  0.230800  0.528700  1
  H  H163  1  0.025600  0.982800  0.713800  1
  H  H164  1  0.974400  0.017200  0.286200  1
  H  H165  1  0.012400  0.030300  0.672100  1
  H  H166  1  0.987600  0.969700  0.327900  1
  H  H167  1  0.100700  0.016200  0.705300  1
  H  H168  1  0.899300  0.983800  0.294700  1
  H  H169  1  0.138300  0.131900  0.602300  1
  H  H170  1  0.861700  0.868100  0.397700  1
  H  H171  1  0.164400  0.357400  0.530600  1
  H  H172  1  0.835600  0.642600  0.469400  1
  H  H173  1  0.167100  0.248700  0.640800  1
  H  H174  1  0.832900  0.751300  0.359200  1
  H  H175  1  0.201200  0.821900  0.153300  1
  H  H176  1  0.798800  0.178100  0.846700  1
  H  H177  1  0.190300  0.741900  0.133200  1
  H  H178  1  0.809700  0.258100  0.866800  1
  H  H179  1  0.260200  0.784300  0.194200  1
  H  H180  1  0.739800  0.215700  0.805800  1
  H  H181  1  0.057400  0.814100  0.142300  1
  H  H182  1  0.942600  0.185900  0.857700  1
  H  H183  1  0.025200  0.772800  0.177400  1
  H  H184  1  0.974800  0.227200  0.822600  1
  H  H185  1  0.055700  0.734500  0.123700  1
  H  H186  1  0.944300  0.265500  0.876300  1
  H  H187  1  0.149400  0.684200  0.193100  1
  H  H188  1  0.850600  0.315800  0.806900  1
  H  H189  1  0.117100  0.723000  0.245600  1
  H  H190  1  0.882900  0.277000  0.754400  1
  H  H191  1  0.210900  0.730800  0.256700  1
  H  H192  1  0.789100  0.269200  0.743300  1
  H  H193  1  0.235500  0.338100  0.720300  1
  H  H194  1  0.764500  0.661900  0.279700  1
  H  H195  1  0.141600  0.342100  0.703800  1
  H  H196  1  0.858400  0.657900  0.296200  1
  H  H197  1  0.204100  0.408500  0.741300  1
  H  H198  1  0.795900  0.591500  0.258700  1
  H  H199  1  0.126100  0.436900  0.601200  1
  H  H200  1  0.873900  0.563100  0.398800  1
  H  H201  1  0.139200  0.464700  0.671800  1
  H  H202  1  0.860800  0.535300  0.328200  1
  H  H203  1  0.073600  0.401600  0.628800  1
  H  H204  1  0.926400  0.598400  0.371200  1
  H  H205  1  0.314600  0.384300  0.675400  1
  H  H206  1  0.685400  0.615700  0.324600  1
  H  H207  1  0.285200  0.455200  0.698300  1
  H  H208  1  0.714800  0.544800  0.301700  1
  H  H209  1  0.277500  0.424500  0.628900  1
  H  H210  1  0.722500  0.575500  0.371100  1
  H  H211  1  0.296300  0.223800  0.412100  1
  H  H212  1  0.703700  0.776200  0.587900  1
  H  H213  1  0.247400  0.167900  0.418700  1
  H  H214  1  0.752600  0.832100  0.581300  1
  H  H215  1  0.128500  0.108000  0.275000  1
  H  H216  1  0.871500  0.892000  0.725000  1
  H  H217  1  0.148200  0.099500  0.337400  1
  H  H218  1  0.851800  0.900500  0.662600  1
  H  H219  1  0.202000  0.192300  0.263600  1
  H  H220  1  0.798000  0.807700  0.736400  1
  H  H221  1  0.268900  0.238000  0.318500  1
  H  H222  1  0.731100  0.762000  0.681500  1
  H  H223  1  0.119400  0.149000  0.779800  1
  H  H224  1  0.880600  0.851000  0.220200  1
  H  H225  1  0.151500  0.124400  0.834500  1
  H  H226  1  0.848500  0.875600  0.165500  1
  H  H227  1  0.186100  0.241800  0.776100  1
  H  H228  1  0.813900  0.758200  0.223900  1
  H  H229  1  0.261900  0.277500  0.828800  1
  H  H230  1  0.738100  0.722500  0.171200  1
  H  H231  1  0.265000  0.178800  0.912700  1
  H  H232  1  0.735000  0.821200  0.087300  1
  H  H233  1  0.309000  0.240200  0.910000  1
  H  H234  1  0.691000  0.759800  0.090000  1
  H  H235  1  0.993700  0.338400  0.394500  1
  H  H236  1  0.006300  0.661600  0.605500  1
  H  H237  1  0.393100  0.243200  0.259500  1
  H  H238  1  0.606900  0.756800  0.740500  1
  H  H239  1  0.416800  0.290300  0.225400  1
  H  H240  1  0.583200  0.709700  0.774600  1
  H  H241  1  0.404700  0.322800  0.288800  1
  H  H242  1  0.595300  0.677200  0.711200  1
  H  H243  1  0.662100  0.306300  0.313700  1
  H  H244  1  0.337900  0.693700  0.686300  1
  H  H245  1  0.652200  0.341400  0.378000  1
  H  H246  1  0.347800  0.658600  0.622000  1
  H  H247  1  0.734100  0.414800  0.357700  1
  H  H248  1  0.265900  0.585200  0.642300  1
  H  H249  1  0.653700  0.445600  0.360600  1
  H  H250  1  0.346300  0.554400  0.639400  1
  H  H251  1  0.663100  0.410700  0.296500  1
  H  H252  1  0.336900  0.589300  0.703500  1
  H  H253  1  0.722400  0.159300  0.443000  1
  H  H254  1  0.277600  0.840700  0.557000  1
  H  H255  1  0.723400  0.197700  0.395800  1
  H  H256  1  0.276600  0.802300  0.604200  1
  H  H257  1  0.649100  0.198200  0.418800  1
  H  H258  1  0.350900  0.801800  0.581200  1
  H  H259  1  0.795400  0.330500  0.597700  1
  H  H260  1  0.204600  0.669500  0.402300  1
  H  H261  1  0.863800  0.335900  0.569400  1
  H  H262  1  0.136200  0.664100  0.430600  1
  H  H263  1  0.919100  0.322400  0.664700  1
  H  H264  1  0.080900  0.677600  0.335300  1
  H  H265  1  0.929800  0.259500  0.614000  1
  H  H266  1  0.070200  0.740500  0.386000  1
  H  H267  1  0.861400  0.253400  0.641800  1
  H  H268  1  0.138600  0.746600  0.358200  1
  H  H269  1  0.144000  0.276000  0.168800  1
  H  H270  1  0.856000  0.724000  0.831200  1
  H  H271  1  0.216000  0.333000  0.214600  1
  H  H272  1  0.784000  0.667000  0.785400  1
  H  H273  1  0.228500  0.255800  0.202400  1
  H  H274  1  0.771500  0.744200  0.797600  1
  H  H275  1  0.215700  0.304100  0.031200  1
  H  H276  1  0.784300  0.695900  0.968800  1
  H  H277  1  0.221500  0.225700  0.021000  1
  H  H278  1  0.778500  0.774300  0.979000  1
  H  H279  1  0.126200  0.241700  0.938200  1
  H  H280  1  0.873800  0.758300  0.061800  1
  H  H281  1  0.079100  0.280100  0.980600  1
  H  H282  1  0.920900  0.719900  0.019400  1
  H  H283  1  0.085500  0.202000  0.970000  1
  H  H284  1  0.914500  0.798000  0.030000  1
  H  H285  1  0.254300  0.067100  0.662900  1
  H  H286  1  0.745700  0.932900  0.337100  1
  H  H287  1  0.255000  0.118300  0.725400  1
  H  H288  1  0.745000  0.881700  0.274600  1
  H  H289  1  0.327100  0.074800  0.724100  1
  H  H290  1  0.672900  0.925200  0.275900  1
  H  H291  1  0.429900  0.186700  0.640100  1
  H  H292  1  0.570100  0.813300  0.359900  1
  H  H293  1  0.350400  0.221500  0.622100  1
  H  H294  1  0.649600  0.778500  0.377900  1
  H  H295  1  0.388700  0.181600  0.539000  1
  H  H296  1  0.611300  0.818400  0.461000  1
  H  H297  1  0.305200  0.140400  0.527100  1
  H  H298  1  0.694800  0.859600  0.472900  1
  H  H299  1  0.386400  0.108000  0.545300  1
  H  H300  1  0.613600  0.892000  0.454700  1
  H  H301  1  0.004600  0.289700  0.111900  1
  H  H302  1  0.995400  0.710300  0.888100  1
  H  H303  1  0.950000  0.280900  0.043600  1
  H  H304  1  0.050000  0.719100  0.956400  1
  H  H305  1  0.980300  0.216900  0.062600  1
  H  H306  1  0.019700  0.783100  0.937400  1
  H  H307  1  0.794100  0.272500  0.143700  1
  H  H308  1  0.205900  0.727500  0.856300  1
  H  H309  1  0.844900  0.227900  0.182300  1
  H  H310  1  0.155100  0.772100  0.817700  1
  H  H311  1  0.823900  0.325200  0.247200  1
  H  H312  1  0.176100  0.674800  0.752800  1
  H  H313  1  0.865700  0.369400  0.219300  1
  H  H314  1  0.134300  0.630600  0.780700  1
  H  H315  1  0.917300  0.325500  0.257500  1
  H  H316  1  0.082700  0.674500  0.742500  1
  H  H317  1  0.464100  0.077000  0.873400  1
  H  H318  1  0.535900  0.923000  0.126600  1
  H  H319  1  0.437500  0.139600  0.850600  1
  H  H320  1  0.562500  0.860400  0.149400  1
  H  H321  1  0.396800  0.117100  0.892500  1
  H  H322  1  0.603200  0.882900  0.107500  1
  H  H323  1  0.666700  0.201100  0.019500  1
  H  H324  1  0.333300  0.798900  0.980500  1
  H  H325  1  0.604100  0.196800  0.053200  1
  H  H326  1  0.395900  0.803200  0.946800  1
  H  H327  1  0.712400  0.141000  0.087200  1
  H  H328  1  0.287600  0.859000  0.912800  1
  H  H329  1  0.694400  0.093400  0.019400  1
  H  H330  1  0.305600  0.906600  0.980600  1
  H  H331  1  0.632100  0.089100  0.053000  1
  H  H332  1  0.367900  0.910900  0.947000  1
  H  H333  1  0.555600  0.185200  0.848800  1
  H  H334  1  0.444400  0.814800  0.151200  1
  H  H335  1  0.536300  0.241400  0.815900  1
  H  H336  1  0.463700  0.758600  0.184100  1
  H  H337  1  0.626100  0.224900  0.839800  1
  H  H338  1  0.373900  0.775100  0.160200  1
  H  H339  1  0.568400  0.023800  0.702400  1
  H  H340  1  0.431600  0.976200  0.297600  1
  H  H341  1  0.493200  0.053900  0.666800  1
  H  H342  1  0.506800  0.946100  0.333200  1
  H  H343  1  0.453000  0.940700  0.657400  1
  H  H344  1  0.547000  0.059300  0.342600  1
  H  H345  1  0.406200  0.989500  0.694000  1
  H  H346  1  0.593800  0.010500  0.306000  1
  H  H347  1  0.481300  0.959300  0.729400  1
  H  H348  1  0.518700  0.040700  0.270600  1
  H  H349  1  0.521800  0.269100  0.627500  1
  H  H350  1  0.478200  0.730900  0.372500  1
  H  H351  1  0.512000  0.318600  0.687100  1
  H  H352  1  0.488000  0.681400  0.312900  1
  H  H353  1  0.566200  0.259500  0.692000  1
  H  H354  1  0.433800  0.740500  0.308000  1
  H  H355  1  0.691900  0.402000  0.779900  1
  H  H356  1  0.308100  0.598000  0.220100  1
  H  H357  1  0.651600  0.330000  0.773100  1
  H  H358  1  0.348400  0.670000  0.226900  1
  H  H359  1  0.597700  0.388800  0.765500  1
  H  H360  1  0.402300  0.611200  0.234500  1
  H  H361  1  0.124600  0.749000  0.111100  1
  H  H362  1  0.875400  0.251000  0.888900  1
  H  H363  1  0.177200  0.821100  0.142300  1
  H  H364  1  0.822800  0.178900  0.857700  1
  H  H365  1  0.083400  0.814300  0.131000  1
  H  H366  1  0.916600  0.185700  0.869000  1
  H  H367  1  0.078200  0.729300  0.232100  1
  H  H368  1  0.921800  0.270700  0.767900  1
  H  H369  1  0.070600  0.694000  0.163200  1
  H  H370  1  0.929400  0.306000  0.836800  1
  H  H371  1  0.025400  0.757600  0.180100  1
  H  H372  1  0.974600  0.242400  0.819900  1
  H  H373  1  0.228600  0.736700  0.259400  1
  H  H374  1  0.771400  0.263300  0.740600  1
  H  H375  1  0.271500  0.770000  0.224600  1
  H  H376  1  0.728500  0.230000  0.775400  1
  H  H377  1  0.213400  0.700800  0.189200  1
  H  H378  1  0.786600  0.299200  0.810800  1
  H  H379  1  0.068700  0.395100  0.630200  1
  H  H380  1  0.931300  0.604900  0.369800  1
  H  H381  1  0.121700  0.430000  0.699900  1
  H  H382  1  0.878300  0.570000  0.300100  1
  H  H383  1  0.093900  0.351000  0.674800  1
  H  H384  1  0.906100  0.649000  0.325200  1
  H  H385  1  0.183100  0.439400  0.597500  1
  H  H386  1  0.816900  0.560600  0.402500  1
  H  H387  1  0.271100  0.443900  0.644600  1
  H  H388  1  0.728900  0.556100  0.355400  1
  H  H389  1  0.203800  0.479500  0.667700  1
  H  H390  1  0.796200  0.520500  0.332300  1
  H  H391  1  0.265100  0.414800  0.736400  1
  H  H392  1  0.734900  0.585200  0.263600  1
  H  H393  1  0.303100  0.364800  0.693000  1
  H  H394  1  0.696900  0.635200  0.307000  1
  H  H395  1  0.238800  0.335800  0.715300  1
  H  H396  1  0.761200  0.664200  0.284700  1
  H  H397  1  0.989300  0.323100  0.376700  1
  H  H398  1  0.010700  0.676900  0.623300  1
  H  H399  1  0.782400  0.302100  0.126900  1
  H  H400  1  0.217600  0.697900  0.873100  1
  H  H401  1  0.583800  0.408700  0.141300  1
  H  H402  1  0.416200  0.591300  0.858700  1
  H  H403  1  0.806000  0.173400  0.038800  1
  H  H404  1  0.194000  0.826600  0.961200  1
  H  H405  1  0.758900  0.237300  0.040100  1
  H  H406  1  0.241100  0.762700  0.959900  1
  H  H407  1  0.719500  0.166900  0.989100  1
  H  H408  1  0.280500  0.833100  0.010900  1
  H  H409  1  0.587800  0.206700  0.060400  1
  H  H410  1  0.412200  0.793300  0.939600  1
  H  H411  1  0.623700  0.218900  0.012000  1
  H  H412  1  0.376300  0.781100  0.988000  1
  H  H413  1  0.655700  0.268200  0.080100  1
  H  H414  1  0.344300  0.731800  0.919900  1
  H  H415  1  0.822700  0.699200  0.115100  1
  H  H416  1  0.177300  0.300800  0.884900  1
  H  H417  1  0.916200  0.722100  0.133500  1
  H  H418  1  0.083800  0.277900  0.866500  1
  H  H419  1  0.862800  0.685900  0.064000  1
  H  H420  1  0.137200  0.314100  0.936000  1
  H  H421  1  0.917800  0.538400  0.168100  1
  H  H422  1  0.082200  0.461600  0.831900  1
  H  H423  1  0.858000  0.502100  0.100800  1
  H  H424  1  0.142000  0.497900  0.899200  1
  H  H425  1  0.835700  0.455500  0.167500  1
  H  H426  1  0.164300  0.544500  0.832500  1
  H  H427  1  0.816400  0.525600  0.203900  1
  H  H428  1  0.183600  0.474400  0.796100  1
  H  H429  1  0.758700  0.486800  0.136200  1
  H  H430  1  0.241300  0.513200  0.863800  1
  H  H431  1  0.573200  0.993000  0.702100  1
  H  H432  1  0.426800  0.007000  0.297900  1
  H  H433  1  0.468600  0.439400  0.716300  1
  H  H434  1  0.531400  0.560600  0.283700  1
  H  H435  1  0.553400  0.483200  0.757500  1
  H  H436  1  0.446600  0.516800  0.242500  1
  H  H437  1  0.520400  0.425100  0.777100  1
  H  H438  1  0.479600  0.574900  0.222900  1
  H  H439  1  0.703700  0.405500  0.757200  1
  H  H440  1  0.296300  0.594500  0.242800  1
  H  H441  1  0.657900  0.433200  0.803700  1
  H  H442  1  0.342100  0.566800  0.196300  1
  H  H443  1  0.668400  0.475300  0.761300  1
  H  H444  1  0.331600  0.524700  0.238700  1
  H  H445  1  0.418900  0.316500  0.782200  1
  H  H446  1  0.581100  0.683500  0.217800  1
  H  H447  1  0.506200  0.357000  0.821100  1
  H  H448  1  0.493800  0.643000  0.178900  1
  H  H449  1  0.428800  0.394900  0.817100  1
  H  H450  1  0.571200  0.605100  0.182900  1
  H  H451  1  0.462300  0.438100  0.955100  1
  H  H452  1  0.537700  0.561900  0.044900  1
  H  H453  1  0.396200  0.440600  0.893800  1
  H  H454  1  0.603800  0.559400  0.106200  1
  H  H455  1  0.489100  0.451000  0.902800  1
  H  H456  1  0.510900  0.549000  0.097200  1
  H  H457  1  0.398800  0.358500  0.763700  1
  H  H458  1  0.601200  0.641500  0.236300  1
  H  H459  1  0.430600  0.313600  0.806900  1
  H  H460  1  0.569400  0.686400  0.193100  1
  H  H461  1  0.485600  0.379300  0.815100  1
  H  H462  1  0.514400  0.620700  0.184900  1
  H  H463  1  0.483700  0.413600  0.949400  1
  H  H464  1  0.516300  0.586400  0.050600  1
  H  H465  1  0.530700  0.410700  0.903500  1
  H  H466  1  0.469300  0.589300  0.096500  1
  H  H467  1  0.485600  0.343400  0.902300  1
  H  H468  1  0.514400  0.656600  0.097700  1
  H  H469  1  0.347100  0.092700  0.548900  1
  H  H470  1  0.652900  0.907300  0.451100  1
  H  H471  1  0.406900  0.153300  0.553100  1
  H  H472  1  0.593100  0.846700  0.446900  1
  H  H473  1  0.312300  0.153800  0.526800  1
  H  H474  1  0.687700  0.846200  0.473200  1
  H  H475  1  0.287100  0.197500  0.702600  1
  H  H476  1  0.712900  0.802500  0.297400  1
  H  H477  1  0.375700  0.179600  0.730500  1
  H  H478  1  0.624300  0.820400  0.269500  1
  H  H479  1  0.289000  0.122200  0.757200  1
  H  H480  1  0.711000  0.877800  0.242800  1
  H  H481  1  0.320400  0.069200  0.711000  1
  H  H482  1  0.679600  0.930800  0.289000  1
  H  H483  1  0.232900  0.090600  0.687800  1
  H  H484  1  0.767100  0.909400  0.312200  1
  H  H485  1  0.091400  0.557700  0.069400  1
  H  H486  1  0.908600  0.442300  0.930600  1
  H  H487  1  0.087700  0.513400  0.111700  1
  H  H488  1  0.912300  0.486600  0.888300  1
  H  H489  1  0.066300  0.478400  0.040500  1
  H  H490  1  0.933700  0.521600  0.959500  1
  H  H491  1  0.317200  0.537200  0.062600  1
  H  H492  1  0.682800  0.462800  0.937400  1
  H  H493  1  0.337700  0.568000  0.134700  1
  H  H494  1  0.662300  0.432000  0.865300  1
  H  H495  1  0.375900  0.649700  0.099400  1
  H  H496  1  0.624100  0.350300  0.900600  1
  H  H497  1  0.302400  0.670700  0.121500  1
  H  H498  1  0.697600  0.329300  0.878500  1
  H  H499  1  0.287700  0.639700  0.050900  1
  H  H500  1  0.712300  0.360300  0.949100  1
  C  C501  1  0.390100  0.114300  0.363300  1
  C  C502  1  0.609900  0.885700  0.636700  1
  C  C503  1  0.341100  0.062000  0.363200  1
  C  C504  1  0.658900  0.938000  0.636800  1
  C  C505  1  0.281900  0.022500  0.310400  1
  C  C506  1  0.718100  0.977500  0.689600  1
  C  C507  1  0.273200  0.037600  0.256500  1
  C  C508  1  0.726800  0.962400  0.743500  1
  C  C509  1  0.321400  0.088600  0.255100  1
  C  C510  1  0.678600  0.911400  0.744900  1
  C  C511  1  0.381400  0.126100  0.308800  1
  C  C512  1  0.618600  0.873900  0.691200  1
  C  C513  1  0.138300  0.317900  0.353200  1
  C  C514  1  0.861700  0.682100  0.646800  1
  C  C515  1  0.162900  0.313400  0.412200  1
  C  C516  1  0.837100  0.686600  0.587800  1
  C  C517  1  0.125700  0.263800  0.424800  1
  C  C518  1  0.874300  0.736200  0.575200  1
  C  C519  1  0.062000  0.219100  0.379200  1
  C  C520  1  0.938000  0.780900  0.620800  1
  C  C521  1  0.036500  0.222400  0.320500  1
  C  C522  1  0.963500  0.777600  0.679500  1
  C  C523  1  0.075200  0.271800  0.307900  1
  C  C524  1  0.924800  0.728200  0.692100  1
  C  C525  1  0.310200  0.101600  0.196300  1
  C  C526  1  0.689800  0.898400  0.803700  1
  C  C527  1  0.232200  0.105000  0.157000  1
  C  C528  1  0.767800  0.895000  0.843000  1
  C  C529  1  0.224700  0.103400  0.097100  1
  C  C530  1  0.775300  0.896600  0.902900  1
  C  C531  1  0.292100  0.103300  0.079500  1
  C  C532  1  0.707900  0.896700  0.920500  1
  C  C533  1  0.368600  0.105900  0.118700  1
  C  C534  1  0.631400  0.894100  0.881300  1
  C  C535  1  0.374400  0.103600  0.177000  1
  C  C536  1  0.625600  0.896400  0.823000  1
  C  C537  1  0.443800  0.105700  0.100100  1
  C  C538  1  0.556200  0.894300  0.899900  1
  C  C539  1  0.480600  0.038600  0.103300  1
  C  C540  1  0.519400  0.961400  0.896700  1
  C  C541  1  0.504400  0.164100  0.145000  1
  C  C542  1  0.495600  0.835900  0.855000  1
  C  C543  1  0.424100  0.110000  0.036800  1
  C  C544  1  0.575900  0.890000  0.963200  1
  C  C545  1  0.148500  0.096300  0.051600  1
  C  C546  1  0.851500  0.903700  0.948400  1
  C  C547  1  0.006800  0.081100  0.008000  1
  C  C548  1  0.993200  0.918900  0.992000  1
  C  C549  1  0.000000  0.071800  0.947600  1
  C  C550  1  0.000000  0.928200  0.052400  1
  C  C551  1  0.925100  0.064600  0.905100  1
  C  C552  1  0.074900  0.935400  0.094900  1
  C  C553  1  0.855800  0.068800  0.922400  1
  C  C554  1  0.144200  0.931200  0.077600  1
  C  C555  1  0.863500  0.075700  0.981300  1
  C  C556  1  0.136500  0.924300  0.018700  1
  C  C557  1  0.939300  0.081800  0.023900  1
  C  C558  1  0.060700  0.918200  0.976100  1
  C  C559  1  0.973900  0.048000  0.823000  1
  C  C560  1  0.026100  0.952000  0.177000  1
  C  C561  1  0.714900  0.069900  0.893100  1
  C  C562  1  0.285100  0.930100  0.106900  1
  C  C563  1  0.899400  0.079600  0.106300  1
  C  C564  1  0.100600  0.920400  0.893700  1
  C  C565  1  0.905600  0.100200  0.168000  1
  C  C566  1  0.094400  0.899800  0.832000  1
  C  C567  1  0.977000  0.139100  0.214900  1
  C  C568  1  0.023000  0.860900  0.785100  1
  C  C569  1  0.970500  0.172700  0.272200  1
  C  C570  1  0.029500  0.827300  0.727800  1
  C  C571  1  0.900500  0.160000  0.282200  1
  C  C572  1  0.099500  0.840000  0.717800  1
  C  C573  1  0.832600  0.116400  0.238300  1
  C  C574  1  0.167400  0.883600  0.761700  1
  C  C575  1  0.836000  0.089200  0.182100  1
  C  C576  1  0.164000  0.910800  0.817900  1
  C  C577  1  0.755700  0.105900  0.252700  1
  C  C578  1  0.244300  0.894100  0.747300  1
  C  C579  1  0.696100  0.048400  0.203600  1
  C  C580  1  0.303900  0.951600  0.796400  1
  C  C581  1  0.717500  0.170800  0.259300  1
  C  C582  1  0.282500  0.829200  0.740700  1
  C  C583  1  0.775700  0.088800  0.312200  1
  C  C584  1  0.224300  0.911200  0.687800  1
  C  C585  1  0.453600  0.157100  0.420700  1
  C  C586  1  0.546400  0.842900  0.579300  1
  C  C587  1  0.464800  0.227400  0.436200  1
  C  C588  1  0.535200  0.772600  0.563800  1
  C  C589  1  0.535500  0.262400  0.485500  1
  C  C590  1  0.464500  0.737600  0.514500  1
  C  C591  1  0.584300  0.227300  0.522300  1
  C  C592  1  0.415700  0.772700  0.477700  1
  C  C593  1  0.568600  0.160400  0.511300  1
  C  C594  1  0.431400  0.839600  0.488700  1
  C  C595  1  0.503400  0.126200  0.458500  1
  C  C596  1  0.496600  0.873800  0.541500  1
  C  C597  1  0.618100  0.119700  0.550000  1
  C  C598  1  0.381900  0.880300  0.450000  1
  C  C599  1  0.656400  0.067400  0.513200  1
  C  C600  1  0.343600  0.932600  0.486800  1
  C  C601  1  0.563800  0.085700  0.573800  1
  C  C602  1  0.436200  0.914300  0.426200  1
  C  C603  1  0.685600  0.166100  0.605900  1
  C  C604  1  0.314400  0.833900  0.394100  1
  C  C605  1  0.564100  0.328400  0.492900  1
  C  C606  1  0.435900  0.671600  0.507100  1
  C  C607  1  0.567400  0.427100  0.464500  1
  C  C608  1  0.432600  0.572900  0.535500  1
  C  C609  1  0.650500  0.447500  0.490200  1
  C  C610  1  0.349500  0.552500  0.509800  1
  C  C611  1  0.680300  0.506800  0.488400  1
  C  C612  1  0.319700  0.493200  0.511600  1
  C  C613  1  0.628700  0.548700  0.462200  1
  C  C614  1  0.371300  0.451300  0.537800  1
  C  C615  1  0.547300  0.527800  0.435900  1
  C  C616  1  0.452700  0.472200  0.564100  1
  C  C617  1  0.516900  0.466500  0.436300  1
  C  C618  1  0.483100  0.533500  0.563700  1
  C  C619  1  0.815000  0.489400  0.534200  1
  C  C620  1  0.185000  0.510600  0.465800  1
  C  C621  1  0.617300  0.651000  0.439300  1
  C  C622  1  0.382700  0.349000  0.560700  1
  C  C623  1  0.380200  0.465000  0.378100  1
  C  C624  1  0.619800  0.535000  0.621900  1
  C  C625  1  0.297300  0.440500  0.351600  1
  C  C626  1  0.702700  0.559500  0.648400  1
  C  C627  1  0.264900  0.382800  0.358600  1
  C  C628  1  0.735100  0.617200  0.641400  1
  C  C629  1  0.179200  0.369900  0.339200  1
  C  C630  1  0.820800  0.630100  0.660800  1
  C  C631  1  0.134000  0.408500  0.307600  1
  C  C632  1  0.866000  0.591500  0.692400  1
  C  C633  1  0.165000  0.461900  0.295000  1
  C  C634  1  0.835000  0.538100  0.705000  1
  C  C635  1  0.247400  0.479000  0.318900  1
  C  C636  1  0.752600  0.521000  0.681100  1
  C  C637  1  0.108000  0.500500  0.257600  1
  C  C638  1  0.892000  0.499500  0.742400  1
  C  C639  1  0.152100  0.559100  0.251600  1
  C  C640  1  0.847900  0.440900  0.748400  1
  C  C641  1  0.047400  0.526800  0.288600  1
  C  C642  1  0.952600  0.473200  0.711400  1
  C  C643  1  0.062800  0.451000  0.193300  1
  C  C644  1  0.937200  0.549000  0.806700  1
  C  C645  1  0.227300  0.966900  0.308100  1
  C  C646  1  0.772700  0.033100  0.691900  1
  C  C647  1  0.185400  0.974700  0.350400  1
  C  C648  1  0.814600  0.025300  0.649600  1
  C  C649  1  0.139900  0.916100  0.345900  1
  C  C650  1  0.860100  0.083900  0.654100  1
  C  C651  1  0.127400  0.857000  0.297400  1
  C  C652  1  0.872600  0.143000  0.702600  1
  C  C653  1  0.162600  0.849500  0.254000  1
  C  C654  1  0.837400  0.150500  0.746000  1
  C  C655  1  0.213700  0.906500  0.262500  1
  C  C656  1  0.786300  0.093500  0.737500  1
  C  C657  1  0.148700  0.784200  0.203100  1
  C  C658  1  0.851300  0.215800  0.796900  1
  C  C659  1  0.110800  0.914000  0.393200  1
  C  C660  1  0.889200  0.086000  0.606800  1
  C  C661  1  0.101400  0.954400  0.491800  1
  C  C662  1  0.898600  0.045600  0.508200  1
  C  C663  1  0.081000  0.892300  0.496500  1
  C  C664  1  0.919000  0.107700  0.503500  1
  C  C665  1  0.060500  0.889600  0.545400  1
  C  C666  1  0.939500  0.110400  0.454600  1
  C  C667  1  0.059900  0.950700  0.590100  1
  C  C668  1  0.940100  0.049300  0.409900  1
  C  C669  1  0.081400  0.011000  0.585200  1
  C  C670  1  0.918600  0.989000  0.414800  1
  C  C671  1  0.103800  0.012700  0.535800  1
  C  C672  1  0.896200  0.987300  0.464200  1
  C  C673  1  0.037100  0.770300  0.510300  1
  C  C674  1  0.962900  0.229700  0.489700  1
  C  C675  1  0.044400  0.996800  0.685400  1
  C  C676  1  0.955600  0.003200  0.314600  1
  C  C677  1  0.140000  0.130100  0.563800  1
  C  C678  1  0.860000  0.869900  0.436200  1
  C  C679  1  0.156400  0.192500  0.555500  1
  C  C680  1  0.843600  0.807500  0.444500  1
  C  C681  1  0.154600  0.194200  0.497100  1
  C  C682  1  0.845400  0.805800  0.502900  1
  C  C683  1  0.150200  0.258800  0.488900  1
  C  C684  1  0.849800  0.741200  0.511100  1
  C  C685  1  0.163200  0.315200  0.537300  1
  C  C686  1  0.836800  0.684800  0.462700  1
  C  C687  1  0.174900  0.314500  0.596900  1
  C  C688  1  0.825100  0.685500  0.403100  1
  C  C689  1  0.166300  0.251700  0.602900  1
  C  C690  1  0.833700  0.748300  0.397100  1
  C  C691  1  0.189100  0.377700  0.649300  1
  C  C692  1  0.810900  0.622300  0.350700  1
  C  C693  1  0.205100  0.783000  0.167800  1
  C  C694  1  0.794900  0.217000  0.832200  1
  C  C695  1  0.064200  0.775600  0.157600  1
  C  C696  1  0.935800  0.224400  0.842400  1
  C  C697  1  0.157300  0.725400  0.226700  1
  C  C698  1  0.842700  0.274600  0.773300  1
  C  C699  1  0.192900  0.365500  0.709200  1
  C  C700  1  0.807100  0.634500  0.290800  1
  C  C701  1  0.126400  0.424400  0.636700  1
  C  C702  1  0.873600  0.575600  0.363300  1
  C  C703  1  0.274600  0.413800  0.664400  1
  C  C704  1  0.725400  0.586200  0.335600  1
  C  C705  1  0.214900  0.171500  0.336400  1
  C  C706  1  0.785100  0.828500  0.663600  1
  C  C707  1  0.214200  0.201200  0.839500  1
  C  C708  1  0.785800  0.798800  0.160500  1
  C  C709  1  0.957800  0.370700  0.407300  1
  C  C710  1  0.042200  0.629300  0.592700  1
  C  C711  1  0.423800  0.285200  0.265000  1
  C  C712  1  0.576200  0.714800  0.735000  1
  C  C713  1  0.510700  0.284200  0.297700  1
  C  C714  1  0.489300  0.715800  0.702300  1
  C  C715  1  0.640600  0.343700  0.336500  1
  C  C716  1  0.359400  0.656300  0.663500  1
  C  C717  1  0.675900  0.409300  0.337900  1
  C  C718  1  0.324100  0.590700  0.662100  1
  C  C719  1  0.707200  0.198600  0.430400  1
  C  C720  1  0.292800  0.801400  0.569600  1
  C  C721  1  0.746600  0.258800  0.480000  1
  C  C722  1  0.253400  0.741200  0.520000  1
  C  C723  1  0.834300  0.305700  0.582000  1
  C  C724  1  0.165700  0.694300  0.418000  1
  C  C725  1  0.890900  0.283400  0.629600  1
  C  C726  1  0.109100  0.716600  0.370400  1
  C  C727  1  0.202100  0.288600  0.184100  1
  C  C728  1  0.797900  0.711400  0.815900  1
  C  C729  1  0.228500  0.290200  0.134600  1
  C  C730  1  0.771500  0.709800  0.865400  1
  C  C731  1  0.186500  0.261100  0.026400  1
  C  C732  1  0.813500  0.738900  0.973600  1
  C  C733  1  0.113500  0.244900  0.974600  1
  C  C734  1  0.886500  0.755100  0.025400  1
  C  C735  1  0.288000  0.098600  0.701800  1
  C  C736  1  0.712000  0.901400  0.298200  1
  C  C737  1  0.331000  0.152500  0.691100  1
  C  C738  1  0.669000  0.847500  0.308900  1
  C  C739  1  0.372000  0.178300  0.615300  1
  C  C740  1  0.628000  0.821700  0.384700  1
  C  C741  1  0.362300  0.149700  0.551400  1
  C  C742  1  0.637700  0.850300  0.448600  1
  C  C743  1  0.962300  0.260500  0.076000  1
  C  C744  1  0.037700  0.739500  0.924000  1
  C  C745  1  0.890000  0.251200  0.090900  1
  C  C746  1  0.110000  0.748800  0.909100  1
  C  C747  1  0.846300  0.271000  0.173700  1
  C  C748  1  0.153700  0.729000  0.826300  1
  C  C749  1  0.865000  0.327400  0.228900  1
  C  C750  1  0.135000  0.672600  0.771100  1
  C  C751  1  0.446600  0.121200  0.884200  1
  C  C752  1  0.553400  0.878800  0.115800  1
  C  C753  1  0.508900  0.166200  0.938700  1
  C  C754  1  0.491100  0.833800  0.061300  1
  C  C755  1  0.628700  0.170300  0.024700  1
  C  C756  1  0.371300  0.829700  0.975300  1
  C  C757  1  0.670400  0.119200  0.048000  1
  C  C758  1  0.329600  0.880800  0.952000  1
  C  C759  1  0.569600  0.205800  0.821800  1
  C  C760  1  0.430400  0.794200  0.178200  1
  C  C761  1  0.555400  0.154100  0.762200  1
  C  C762  1  0.444600  0.845900  0.237800  1
  C  C763  1  0.515600  0.037700  0.702000  1
  C  C764  1  0.484400  0.962300  0.298000  1
  C  C765  1  0.458800  0.976100  0.695000  1
  C  C766  1  0.541200  0.023900  0.305000  1
  C  C767  1  0.548900  0.292400  0.670700  1
  C  C768  1  0.451100  0.707600  0.329300  1
  C  C769  1  0.644000  0.368800  0.758300  1
  C  C770  1  0.356000  0.631200  0.241700  1
  C  C771  1  0.132000  0.792900  0.141400  1
  C  C772  1  0.868000  0.207100  0.858600  1
  C  C773  1  0.073700  0.736900  0.193800  1
  C  C774  1  0.926300  0.263100  0.806200  1
  C  C775  1  0.222700  0.744000  0.220800  1
  C  C776  1  0.777300  0.256000  0.779200  1
  C  C777  1  0.111000  0.389600  0.665000  1
  C  C778  1  0.889000  0.610400  0.335000  1
  C  C779  1  0.213900  0.440600  0.638900  1
  C  C780  1  0.786100  0.559400  0.361100  1
  C  C781  1  0.255000  0.372900  0.703100  1
  C  C782  1  0.745000  0.627100  0.296900  1
  C  C783  1  0.949400  0.355200  0.380100  1
  C  C784  1  0.050600  0.644800  0.619900  1
  C  C785  1  0.791900  0.323000  0.171000  1
  C  C786  1  0.208100  0.677000  0.829000  1
  C  C787  1  0.631000  0.383000  0.141400  1
  C  C788  1  0.369000  0.617000  0.858600  1
  C  C789  1  0.753000  0.189000  0.031000  1
  C  C790  1  0.247000  0.811000  0.969000  1
  C  C791  1  0.636000  0.222000  0.054000  1
  C  C792  1  0.364000  0.778000  0.946000  1
  C  C793  1  0.871000  0.688000  0.106000  1
  C  C794  1  0.129000  0.312000  0.894000  1
  C  C795  1  0.889000  0.622700  0.113300  1
  C  C796  1  0.111000  0.377300  0.886700  1
  C  C797  1  0.861000  0.531500  0.141100  1
  C  C798  1  0.139000  0.468500  0.858900  1
  C  C799  1  0.814000  0.497000  0.164000  1
  C  C800  1  0.186000  0.503000  0.836000  1
  C  C801  1  0.523000  0.439000  0.743000  1
  C  C802  1  0.477000  0.561000  0.257000  1
  C  C803  1  0.660000  0.430000  0.764000  1
  C  C804  1  0.340000  0.570000  0.236000  1
  C  C805  1  0.450000  0.353000  0.818700  1
  C  C806  1  0.550000  0.647000  0.181300  1
  C  C807  1  0.449000  0.427100  0.911000  1
  C  C808  1  0.551000  0.572900  0.089000  1
  C  C809  1  0.431000  0.359000  0.805000  1
  C  C810  1  0.569000  0.641000  0.195000  1
  C  C811  1  0.484000  0.391000  0.908000  1
  C  C812  1  0.516000  0.609000  0.092000  1
  C  C813  1  0.356000  0.141100  0.556500  1
  C  C814  1  0.644000  0.858900  0.443500  1
  C  C815  1  0.356000  0.176700  0.618400  1
  C  C816  1  0.644000  0.823300  0.381600  1
  C  C817  1  0.321000  0.161100  0.700900  1
  C  C818  1  0.679000  0.838900  0.299100  1
  C  C819  1  0.288000  0.106000  0.715400  1
  C  C820  1  0.712000  0.894000  0.284600  1
  C  C821  1  0.101000  0.514000  0.076000  1
  C  C822  1  0.899000  0.486000  0.924000  1
  C  C823  1  0.185000  0.505000  0.086300  1
  C  C824  1  0.815000  0.495000  0.913700  1
  C  C825  1  0.305000  0.571000  0.095000  1
  C  C826  1  0.695000  0.429000  0.905000  1
  C  C827  1  0.319000  0.638000  0.091000  1
  C  C828  1  0.681000  0.362000  0.909000  1
  C  C829  1  0.534700  0.024900  0.710800  1
  C  C830  1  0.465300  0.975100  0.289200  1
  S  S831  1  0.627790  0.342920  0.680340  1
  S  S832  1  0.372210  0.657080  0.319660  1
  S  S833  1  0.712000  0.169000  0.074800  1
  S  S834  1  0.288000  0.831000  0.925200  1
  S  S835  1  0.565600  0.386400  0.705800  1
  S  S836  1  0.434400  0.613600  0.294200  1
  S  S837  1  0.445100  0.336300  0.877600  1
  S  S838  1  0.554900  0.663700  0.122400  1
  S  S839  1  0.391800  0.403700  0.852300  1
  S  S840  1  0.608200  0.596300  0.147700  1
  N  N841  1  0.079500  0.092600  0.058000  1
  N  N842  1  0.920500  0.907400  0.942000  1
  N  N843  1  0.955300  0.091800  0.086300  1
  N  N844  1  0.044700  0.908200  0.913700  1
  N  N845  1  0.529000  0.365800  0.460700  1
  N  N846  1  0.471000  0.634200  0.539300  1
  N  N847  1  0.435500  0.436000  0.408800  1
  N  N848  1  0.564500  0.564000  0.591200  1
  N  N849  1  0.123200  0.963600  0.443100  1
  N  N850  1  0.876800  0.036400  0.556900  1
  N  N851  1  0.127300  0.071600  0.524700  1
  N  N852  1  0.872700  0.928400  0.475300  1
  N  N853  1  0.257800  0.189900  0.395900  1
  N  N854  1  0.742200  0.810100  0.604100  1
  N  N855  1  0.157500  0.120800  0.313800  1
  N  N856  1  0.842500  0.879200  0.686200  1
  N  N857  1  0.230300  0.204200  0.302500  1
  N  N858  1  0.769700  0.795800  0.697500  1
  N  N859  1  0.155400  0.153000  0.815300  1
  N  N860  1  0.844600  0.847000  0.184700  1
  N  N861  1  0.221600  0.245100  0.811700  1
  N  N862  1  0.778400  0.754900  0.188300  1
  N  N863  1  0.269000  0.207500  0.893600  1
  N  N864  1  0.731000  0.792500  0.106400  1
  Cl  Cl865  1  0.071890  0.184290  0.691140  1
  Cl  Cl866  1  0.928110  0.815710  0.308860  1
  Cl  Cl867  1  0.198160  0.081630  0.917480  1
  Cl  Cl868  1  0.801840  0.918370  0.082520  1
  Cl  Cl869  1  0.864800  0.324880  0.388020  1
  Cl  Cl870  1  0.135200  0.675120  0.611980  1
  Cl  Cl871  1  0.000630  0.407870  0.484950  1
  Cl  Cl872  1  0.999370  0.592130  0.515050  1
  Cl  Cl873  1  0.954360  0.431400  0.370380  1
  Cl  Cl874  1  0.045640  0.568600  0.629620  1
  Cl  Cl875  1  0.906100  0.379000  0.317300  1
  Cl  Cl876  1  0.093900  0.621000  0.682700  1
  Cl  Cl877  1  0.982300  0.426100  0.442600  1
  Cl  Cl878  1  0.017700  0.573900  0.557400  1
  Cl  Cl879  1  0.702500  0.318200  0.182400  1
  Cl  Cl880  1  0.297500  0.681800  0.817600  1
  Cl  Cl881  1  0.831000  0.405500  0.192400  1
  Cl  Cl882  1  0.169000  0.594500  0.807600  1
  Cl  Cl883  1  0.857900  0.280600  0.211000  1
  Cl  Cl884  1  0.142100  0.719400  0.789000  1
  Cl  Cl885  1  0.631500  0.320200  0.172700  1
  Cl  Cl886  1  0.368500  0.679800  0.827300  1
  Cl  Cl887  1  0.632000  0.344800  0.069800  1
  Cl  Cl888  1  0.368000  0.655200  0.930200  1
  Cl  Cl889  1  0.721000  0.433900  0.180900  1
  Cl  Cl890  1  0.279000  0.566100  0.819100  1
  Cl  Cl891  1  0.506000  0.015000  0.768100  1
  Cl  Cl892  1  0.494000  0.985000  0.231900  1
  Cl  Cl893  1  0.578700  0.105800  0.735400  1
  Cl  Cl894  1  0.421300  0.894200  0.264600  1
  Cl  Cl895  1  0.449400  0.010100  0.648500  1
  Cl  Cl896  1  0.550600  0.989900  0.351500  1
  O  O897  1  0.171400  0.112100  0.177020  1
  O  O898  1  0.828600  0.887900  0.822980  1
  O  O899  1  0.908900  0.054800  0.844540  1
  O  O900  1  0.091100  0.945200  0.155460  1
  O  O901  1  0.785400  0.065200  0.877060  1
  O  O902  1  0.214600  0.934800  0.122940  1
  O  O903  1  0.045800  0.141600  0.205220  1
  O  O904  1  0.954200  0.858400  0.794780  1
  O  O905  1  0.411100  0.260000  0.408130  1
  O  O906  1  0.588900  0.740000  0.591870  1
  O  O907  1  0.760200  0.530800  0.509100  1
  O  O908  1  0.239800  0.469200  0.490900  1
  O  O909  1  0.666200  0.607000  0.464200  1
  O  O910  1  0.333800  0.393000  0.535800  1
  O  O911  1  0.309300  0.340900  0.380780  1
  O  O912  1  0.690700  0.659100  0.619220  1
  O  O913  1  0.190000  0.033700  0.389700  1
  O  O914  1  0.810000  0.966300  0.610300  1
  O  O915  1  0.040300  0.832600  0.555300  1
  O  O916  1  0.959700  0.167400  0.444700  1
  O  O917  1  0.036500  0.940200  0.634200  1
  O  O918  1  0.963500  0.059800  0.365800  1
  O  O919  1  0.158500  0.141200  0.454400  1
  O  O920  1  0.841500  0.858800  0.545600  1
  O  O921  1  0.540400  0.237700  0.314300  1
  O  O922  1  0.459600  0.762300  0.685700  1
  O  O923  1  0.555500  0.340900  0.306400  1
  O  O924  1  0.444500  0.659100  0.693600  1
  O  O925  1  0.740300  0.317100  0.479700  1
  O  O926  1  0.259700  0.682900  0.520300  1
  O  O927  1  0.792700  0.247700  0.530800  1
  O  O928  1  0.207300  0.752300  0.469200  1
  O  O929  1  0.296200  0.301200  0.132800  1
  O  O930  1  0.703800  0.698800  0.867200  1
  O  O931  1  0.165000  0.266200  0.080100  1
  O  O932  1  0.835000  0.733800  0.919900  1
  O  O933  1  0.371500  0.205100  0.728700  1
  O  O934  1  0.628500  0.794900  0.271300  1
  O  O935  1  0.330800  0.132200  0.633300  1
  O  O936  1  0.669200  0.867800  0.366700  1
  O  O937  1  0.822700  0.217100  0.062300  1
  O  O938  1  0.177300  0.782900  0.937700  1
  O  O939  1  0.912300  0.279800  0.151800  1
  O  O940  1  0.087700  0.720200  0.848200  1
  O  O941  1  0.499900  0.222600  0.961500  1
  O  O942  1  0.500100  0.777400  0.038500  1
  O  O943  1  0.566500  0.134600  0.965900  1
  O  O944  1  0.433500  0.865400  0.034100  1
  O  O945  1  0.572000  0.162700  0.723300  1
  O  O946  1  0.428000  0.837300  0.276700  1
  O  O947  1  0.526300  0.094000  0.759400  1
  O  O948  1  0.473700  0.906000  0.240600  1
  O  O949  1  0.596100  0.399700  0.657400  1
  O  O950  1  0.403900  0.600300  0.342600  1
  O  O951  1  0.295000  0.694000  0.027300  1
  O  O952  1  0.705000  0.306000  0.972700  1
  O  O953  1  0.663000  0.102000  0.048000  1
  O  O954  1  0.337000  0.898000  0.952000  1
  O  O955  1  0.940000  0.587000  0.103000  1
  O  O956  1  0.060000  0.413000  0.897000  1
  O  O957  1  0.839000  0.596200  0.135600  1
  O  O958  1  0.161000  0.403800  0.864400  1
  O  O959  1  0.919600  0.636500  0.178400  1
  O  O960  1  0.080400  0.363500  0.821600  1
  O  O961  1  0.822000  0.446000  0.150000  1
  O  O962  1  0.178000  0.554000  0.850000  1
  O  O963  1  0.898000  0.255200  0.013000  1
  O  O964  1  0.102000  0.744800  0.987000  1
  O  O965  1  0.584000  0.393000  0.652900  1
  O  O966  1  0.416000  0.607000  0.347100  1
  O  O967  1  0.531000  0.521400  0.737300  1
  O  O968  1  0.469000  0.478600  0.262700  1
  O  O969  1  0.482900  0.522100  0.771500  1
  O  O970  1  0.517100  0.477900  0.228500  1
  O  O971  1  0.547000  0.537000  0.802400  1
  O  O972  1  0.453000  0.463000  0.197600  1
  O  O973  1  0.364500  0.316800  0.876600  1
  O  O974  1  0.635500  0.683200  0.123400  1
  O  O975  1  0.333700  0.366000  0.867900  1
  O  O976  1  0.666300  0.634000  0.132100  1
  O  O977  1  0.375700  0.236900  0.646900  1
  O  O978  1  0.624300  0.763100  0.353100  1
  O  O979  1  0.325000  0.134500  0.639900  1
  O  O980  1  0.675000  0.865500  0.360100  1
  O  O981  1  0.223000  0.458000  0.094000  1
  O  O982  1  0.777000  0.542000  0.906000  1
  O  O983  1  0.220000  0.562600  0.085900  1
  O  O984  1  0.780000  0.437400  0.914100  1
  O  O985  1  0.040000  0.555000  0.070500  1
  O  O986  1  0.960000  0.445000  0.929500  1
  O  O987  1  0.330000  0.503000  0.055000  1
  O  O988  1  0.670000  0.497000  0.945000  1
  O  O989  1  0.401000  0.381000  0.045900  1
  O  O990  1  0.599000  0.619000  0.954100  1
  O  O991  1  0.424000  0.317000  0.086000  1
  O  O992  1  0.576000  0.683000  0.914000  1
  O  O993  1  0.028000  0.589000  0.005000  1
  O  O994  1  0.972000  0.411000  0.995000  1
  O  O995  1  0.405000  0.303000  0.956000  1
  O  O996  1  0.595000  0.697000  0.044000  1
