
#######################################################################
#
#                 Cambridge Crystallographic Data Centre
#                                CCDC 
#
#######################################################################
#
# If this CIF has been generated from an entry in the Cambridge 
# Structural Database, then it will include bibliographic, chemical, 
# crystal, experimental, refinement or atomic coordinate data resulting 
# from the CCDC's data processing and validation procedures.
#
#######################################################################

data_SIWLUH
_chemical_formula_moiety         
'C102 H102 N6 Ni3 O12,6.3(C4 H8 O2),2(C1 H6 N3 1+),1.8(C2 H6 O1 S1),1.5(C1 H1 Cl3),2(Cl1 1-),4(H2 O1)'
_chemical_name_systematic        
'bis(guanidinium) (\m-6,21,31,46,53,68-hexa-tert-butyl-13,14,38,39,60,61-hexamethoxy-10,17,35,42,57,64-hexaazatridecacyclo[24.24.20.1^3,49^.1^4,8^.1^19,23^.1^24,28^.1^29,33^.1^44,48^.1^51,55^.1^66,70^.0^11,16^.0^36,41^.0^58,63^]octaheptaconta-1,3(73),4(78),5,7,9,11,13,15,17,19(77),20,22,24(76),25,27,29(75),30,32,34,36,38,40,42,44(74),45,47,49,51(72),52,54,56,58,60,62,64,66,68,70-nonatriacontaene-71,72,74,75,77,78-hexolato)-tri-nickel dichloride chloroform dimethyl sulfoxide ethyl acetate solvate tetrahydrate'
_symmetry_cell_setting           triclinic
_symmetry_space_group_name_H-M   'P -1'
_symmetry_Int_Tables_number      2
_space_group_name_Hall           '-P 1'
loop_
_symmetry_equiv_pos_site_id
_symmetry_equiv_pos_as_xyz
1 x,y,z
2 -x,-y,-z
_cell_length_a                   17.831(3)
_cell_length_b                   21.045(4)
_cell_length_c                   24.615(4)
_cell_angle_alpha                106.808(3)
_cell_angle_beta                 108.969(3)
_cell_angle_gamma                91.349(3)
_cell_volume                     8291.3
_exptl_crystal_colour            'dark red'
_exptl_crystal_description       prismatic
_cell_formula_units_Z            2
_chemical_properties_physical    Efflorescent
loop_
_atom_site_label
_atom_site_type_symbol
_atom_site_fract_x
_atom_site_fract_y
_atom_site_fract_z
Ni1 Ni 0.06368(4) 0.10941(5) 0.13199(4)
Ni2 Ni 0.42061(4) 0.35083(4) 0.41467(4)
Ni3 Ni 0.15019(4) 0.05287(4) 0.45293(4)
C1 C 0.3901(3) 0.1143(3) 0.3633(3)
C2 C 0.3411(3) 0.0620(3) 0.3632(3)
H1 H 0.3481 0.0529 0.4001
C3 C 0.2819(3) 0.0225(3) 0.3104(3)
C4 C 0.2732(3) 0.0376(3) 0.2565(3)
H2 H 0.2326 0.0116 0.2201
C5 C 0.3214(3) 0.0886(4) 0.2551(3)
C6 C 0.3814(3) 0.1261(3) 0.3088(3)
H3 H 0.4168 0.1602 0.3081
C7 C 0.1383(3) 0.3179(3) 0.3532(3)
C8 C 0.1629(3) 0.3134(3) 0.4122(3)
H4 H 0.2053 0.3446 0.4436
C9 C 0.1257(3) 0.2638(3) 0.4248(3)
C10 C 0.0620(3) 0.2191(3) 0.3792(3)
H5 H 0.0357 0.1860 0.3884
C11 C 0.0365(3) 0.2224(3) 0.3205(3)
C12 C 0.0752(3) 0.2718(3) 0.3079(3)
H6 H 0.0584 0.2743 0.2679
C13 C 0.3102(3) 0.1016(4) 0.1963(3)
C14 C 0.2322(3) 0.1050(3) 0.1570(3)
C15 C 0.2247(3) 0.1034(4) 0.0971(3)
C16 C 0.2921(3) 0.1033(4) 0.0795(3)
H7 H 0.2848 0.1014 0.0390
C17 C 0.3686(4) 0.1059(4) 0.1187(3)
C18 C 0.3744(4) 0.1036(4) 0.1770(3)
H8 H 0.4260 0.1035 0.2046
O1 O 0.1714(2) 0.1121(2) 0.17702(18)
C19 C 0.4438(4) 0.1057(6) 0.1001(3)
C20 C 0.4806(5) 0.0386(6) 0.1033(4)
H9 H 0.4419 0.0002 0.0741
H10 H 0.4930 0.0354 0.1442
H11 H 0.5297 0.0385 0.0936
C21 C 0.5044(5) 0.1641(7) 0.1450(4)
H12 H 0.5525 0.1644 0.1341
H13 H 0.5183 0.1599 0.1857
H14 H 0.4816 0.2059 0.1445
C22 C 0.4241(4) 0.1100(7) 0.0368(4)
H15 H 0.3863 0.0709 0.0078
H16 H 0.4732 0.1108 0.0271
H17 H 0.4001 0.1509 0.0344
C23 C 0.1485(3) 0.0963(3) 0.0516(3)
H18 H 0.1483 0.0941 0.0125
N1 N 0.0795(3) 0.0926(3) 0.0580(2)
C24 C 0.0068(3) 0.0811(3) 0.0080(3)
C25 C 0.0000(3) 0.0718(3) -0.0524(3)
H19 H 0.0462 0.0705 -0.0637
C26 C -0.0749(4) 0.0646(4) -0.0949(3)
C27 C -0.1442(3) 0.0688(4) -0.0776(3)
C28 C -0.1365(3) 0.0757(3) -0.0187(3)
H20 H -0.1826 0.0763 -0.0072
C29 C -0.0607(3) 0.0818(3) 0.0239(3)
O2 O -0.0911(2) 0.0548(3) -0.15546(18)
C30 C -0.0261(4) 0.0480(4) -0.1770(3)
H21 H -0.0457 0.0417 -0.2205
H22 H -0.0006 0.0092 -0.1695
H23 H 0.0129 0.0885 -0.1558
O3 O -0.2146(2) 0.0652(3) -0.12294(18)
C31 C -0.2851(3) 0.0699(4) -0.1069(3)
H24 H -0.3314 0.0687 -0.1423
H25 H -0.2786 0.1120 -0.0746
H26 H -0.2937 0.0322 -0.0928
N2 N -0.0447(3) 0.0918(3) 0.0863(2)
C32 C -0.1006(3) 0.0796(4) 0.1063(3)
H27 H -0.1496 0.0549 0.0773
C33 C -0.0944(3) 0.1002(3) 0.1680(3)
C34 C -0.0230(3) 0.1391(3) 0.2149(3)
C35 C -0.0295(3) 0.1727(3) 0.2722(3)
C36 C -0.0995(3) 0.1600(4) 0.2822(3)
H28 H -0.1021 0.1819 0.3210
C37 C -0.1674(3) 0.1164(4) 0.2383(3)
C38 C -0.1640(3) 0.0892(4) 0.1821(3)
H29 H -0.2098 0.0617 0.1510
O4 O 0.0458(2) 0.1416(2) 0.20522(18)
C39 C -0.2443(3) 0.1059(4) 0.2527(3)
C40 C -0.3039(4) 0.0484(4) 0.2036(3)
H30 H -0.3513 0.0431 0.2145
H31 H -0.2792 0.0069 0.1996
H32 H -0.3195 0.0579 0.1650
C41 C -0.2825(4) 0.1708(4) 0.2593(4)
H33 H -0.2445 0.2074 0.2919
H34 H -0.3309 0.1651 0.2690
H35 H -0.2967 0.1813 0.2212
C42 C -0.2243(4) 0.0888(4) 0.3122(3)
H36 H -0.1885 0.1260 0.3456
H37 H -0.1978 0.0482 0.3089
H38 H -0.2737 0.0812 0.3200
C43 C 0.4536(3) 0.1571(4) 0.4207(3)
C44 C 0.4648(3) 0.2274(4) 0.4362(3)
C45 C 0.5355(3) 0.2624(4) 0.4855(3)
C46 C 0.5843(3) 0.2273(4) 0.5223(3)
H39 H 0.6296 0.2517 0.5559
C47 C 0.5686(3) 0.1604(4) 0.5113(3)
C48 C 0.5034(3) 0.1262(3) 0.4585(3)
H40 H 0.4932 0.0789 0.4481
O5 O 0.4111(2) 0.2600(2) 0.40813(18)
C49 C 0.6181(3) 0.1197(4) 0.5500(3)
C50 C 0.6564(4) 0.0674(4) 0.5132(3)
H41 H 0.6878 0.0425 0.5387
H42 H 0.6914 0.0900 0.4991
H43 H 0.6143 0.0364 0.4783
C51 C 0.5638(4) 0.0857(4) 0.5738(3)
H44 H 0.5952 0.0599 0.5985
H45 H 0.5200 0.0557 0.5396
H46 H 0.5418 0.1199 0.5986
C52 C 0.6856(4) 0.1661(4) 0.6059(3)
H47 H 0.7165 0.1393 0.6296
H48 H 0.6623 0.1988 0.6308
H49 H 0.7209 0.1896 0.5926
C53 C 0.5641(3) 0.3284(3) 0.4929(3)
H50 H 0.6138 0.3475 0.5244
N3 N 0.5290(3) 0.3658(3) 0.4607(2)
C54 C 0.5674(3) 0.4271(3) 0.4645(3)
C55 C 0.6505(3) 0.4475(3) 0.4902(3)
H51 H 0.6854 0.4202 0.5084
C56 C 0.6803(3) 0.5068(4) 0.4884(3)
C57 C 0.6287(4) 0.5487(3) 0.4622(3)
C58 C 0.5473(3) 0.5278(4) 0.4359(3)
H52 H 0.5125 0.5551 0.4176
C59 C 0.5169(3) 0.4665(3) 0.4363(3)
O6 O 0.7602(2) 0.5308(2) 0.5091(2)
C60 C 0.8150(4) 0.4894(4) 0.5342(4)
H53 H 0.8700 0.5107 0.5466
H54 H 0.8075 0.4456 0.5037
H55 H 0.8050 0.4835 0.5694
O7 O 0.6662(2) 0.6070(2) 0.4642(2)
C61 C 0.6173(4) 0.6510(4) 0.4393(4)
H56 H 0.6510 0.6908 0.4434
H57 H 0.5799 0.6644 0.4610
H58 H 0.5872 0.6282 0.3964
N4 N 0.4355(3) 0.4360(3) 0.4088(2)
C62 C 0.3802(3) 0.4650(4) 0.3781(3)
H59 H 0.3970 0.5056 0.3732
C63 C 0.2973(3) 0.4405(4) 0.3516(3)
C64 C 0.2649(3) 0.3828(3) 0.3586(3)
C65 C 0.1792(3) 0.3699(3) 0.3392(3)
C66 C 0.1340(3) 0.4085(3) 0.3076(3)
H60 H 0.0775 0.3980 0.2933
C67 C 0.1650(3) 0.4619(4) 0.2950(3)
C68 C 0.2474(4) 0.4790(4) 0.3189(3)
H61 H 0.2708 0.5167 0.3136
O8 O 0.3093(2) 0.3409(2) 0.38078(19)
C69 C 0.1080(4) 0.5005(4) 0.2576(3)
C70 C 0.1521(4) 0.5591(4) 0.2516(4)
H62 H 0.1901 0.5428 0.2312
H63 H 0.1812 0.5905 0.2920
H64 H 0.1137 0.5819 0.2279
C71 C 0.0474(4) 0.5268(4) 0.2886(4)
H65 H 0.0177 0.4891 0.2918
H66 H 0.0100 0.5500 0.2646
H67 H 0.0760 0.5579 0.3292
C72 C 0.0628(5) 0.4510(4) 0.1933(4)
H68 H 0.1014 0.4339 0.1739
H69 H 0.0258 0.4742 0.1690
H70 H 0.0326 0.4135 0.1966
C73 C 0.2273(3) -0.0331(4) 0.3081(3)
C74 C 0.1854(3) -0.0253(4) 0.3504(3)
C75 C 0.1399(3) -0.0839(3) 0.3459(3)
C76 C 0.1274(3) -0.1430(4) 0.2974(3)
H71 H 0.0928 -0.1799 0.2943
C77 C 0.1626(3) -0.1505(4) 0.2540(3)
C78 C 0.2137(3) -0.0935(4) 0.2625(3)
H72 H 0.2410 -0.0968 0.2346
O9 O 0.1900(2) 0.0337(2) 0.3897(2)
C79 C 0.1487(4) -0.2158(4) 0.2031(3)
C80 C 0.1108(3) -0.0860(4) 0.3932(3)
H73 H 0.0804 -0.1263 0.3881
N5 N 0.1232(3) -0.0364(3) 0.4431(3)
C81 C 0.1014(3) -0.0456(4) 0.4918(3)
C82 C 0.0810(3) -0.1077(4) 0.4965(3)
H74 H 0.0811 -0.1477 0.4663
C83 C 0.0605(3) -0.1104(4) 0.5454(3)
C84 C 0.0599(3) -0.0493(4) 0.5901(3)
C85 C 0.0814(3) 0.0110(4) 0.5852(3)
H75 H 0.0812 0.0515 0.6149
C86 C 0.1038(3) 0.0127(4) 0.5358(3)
O10 O 0.0403(2) -0.1674(3) 0.5553(2)
C87 C 0.0371(4) -0.2297(4) 0.5103(4)
H76 H 0.0211 -0.2669 0.5225
H77 H 0.0899 -0.2341 0.5066
H78 H -0.0021 -0.2308 0.4713
O11 O 0.0365(2) -0.0598(3) 0.6342(2)
C88 C 0.0444(4) -0.0032(4) 0.6854(4)
H79 H 0.0256 -0.0172 0.7138
H80 H 0.0124 0.0303 0.6721
H81 H 0.1007 0.0162 0.7053
N6 N 0.1273(3) 0.0716(3) 0.5247(3)
C89 C 0.1400(3) 0.1301(4) 0.5638(3)
H82 H 0.1383 0.1319 0.6023
C90 C 0.1564(3) 0.1925(4) 0.5555(3)
C91 C 0.1546(3) 0.1942(4) 0.4971(3)
C92 C 0.1502(3) 0.2588(4) 0.4889(3)
C93 C 0.1632(3) 0.3152(4) 0.5373(3)
H83 H 0.1644 0.3574 0.5306
C94 C 0.1749(4) 0.3145(4) 0.5969(3)
C95 C 0.1663(3) 0.2517(4) 0.6029(3)
H84 H 0.1671 0.2487 0.6408
O12 O 0.1585(2) 0.1412(3) 0.4544(2)
C96 C 0.1891(5) 0.3777(4) 0.6493(4)
C97 C 0.2051(8) -0.2170(7) 0.1678(6)
H85 H 0.2012 -0.1781 0.1533
H86 H 0.1903 -0.2581 0.1332
H87 H 0.2602 -0.2157 0.1942
C98 C 0.0642(7) -0.2244(7) 0.1576(6)
H88 H 0.0574 -0.1859 0.1423
H89 H 0.0252 -0.2272 0.1774
H90 H 0.0557 -0.2655 0.1237
C99 C 0.1573(8) -0.2746(6) 0.2267(5)
H91 H 0.1494 -0.3158 0.1931
H92 H 0.1171 -0.2770 0.2456
H93 H 0.2109 -0.2692 0.2567
C100 C 0.1929(10) 0.3655(7) 0.7092(6)
H94 H 0.2355 0.3381 0.7203
H95 H 0.1416 0.3421 0.7038
H96 H 0.2041 0.4085 0.7413
C101 C 0.1264(11) 0.4244(9) 0.6367(7)
H97 H 0.1261 0.4369 0.6012
H98 H 0.1392 0.4647 0.6718
H99 H 0.0736 0.4016 0.6288
C102 C 0.2746(10) 0.4138(9) 0.6644(7)
H100 H 0.3146 0.3843 0.6754
H101 H 0.2852 0.4552 0.6983
H102 H 0.2775 0.4245 0.6289
C103 C 0.2149(3) 0.1715(4) 0.3364(3)
N7 N 0.2578(3) 0.1899(3) 0.3959(2)
H103 H 0.2963 0.2238 0.4121
H104 H 0.2474 0.1679 0.4187
N8 N 0.1575(3) 0.1208(3) 0.3138(2)
H105 H 0.1285 0.1080 0.2750
H106 H 0.1482 0.0995 0.3374
N9 N 0.2303(3) 0.2042(3) 0.3025(2)
H107 H 0.2020 0.1923 0.2636
H108 H 0.2689 0.2380 0.3185
C104 C 0.2142(6) 0.2012(6) 0.8395(4)
N10 N 0.1554(4) 0.1530(4) 0.8153(3)
H109 H 0.1194 0.1490 0.7798
H110 H 0.1515 0.1244 0.8345
N11 N 0.2216(5) 0.2451(5) 0.8117(4)
H111 H 0.1861 0.2418 0.7761
H112 H 0.2619 0.2775 0.8288
N12 N 0.2690(5) 0.2075(5) 0.8936(4)
H113 H 0.2650 0.1788 0.9127
H114 H 0.3090 0.2402 0.9100
Cl1 Cl 0.07189(11) 0.18429(12) 0.69114(9)
Cl2 Cl 0.19816(11) 0.08163(12) -0.08252(9)
Cl3 Cl -0.13520(13) 0.32488(15) 0.38802(13)
Cl4 Cl 0.00063(17) 0.40787(16) 0.48495(16)
Cl5 Cl -0.04564(19) 0.4314(2) 0.37038(18)
C105 C -0.0422(5) 0.3707(5) 0.4073(5)
H115 H -0.0063 0.3384 0.3945
C106 C 0.4238(5) 0.2852(5) 0.2650(4)
H116 H 0.3931 0.2432 0.2595
H117 H 0.4168 0.2903 0.2254
H118 H 0.4047 0.3228 0.2888
C107 C 0.5107(5) 0.2842(5) 0.2977(4)
O13 O 0.5404(4) 0.2377(4) 0.3143(3)
O14 O 0.5555(3) 0.3409(3) 0.3064(3)
C108 C 0.6406(5) 0.3437(5) 0.3365(5)
H119 H 0.6621 0.3063 0.3137
H120 H 0.6522 0.3414 0.3780
C109 C 0.6759(5) 0.4093(5) 0.3379(5)
H121 H 0.7341 0.4148 0.3577
H122 H 0.6537 0.4456 0.3606
H123 H 0.6631 0.4107 0.2965
C110 C 0.7072(6) 0.1986(5) 0.4304(4)
H124 H 0.7224 0.1593 0.4430
H125 H 0.7234 0.1977 0.3958
H126 H 0.6491 0.1982 0.4188
C111 C 0.7466(5) 0.2588(6) 0.4800(5)
O15 O 0.7403(3) 0.3171(4) 0.4797(3)
O16 O 0.7927(3) 0.2477(3) 0.5308(3)
C112 C 0.8343(6) 0.3057(6) 0.5820(5)
H127 H 0.7954 0.3305 0.5977
H128 H 0.8638 0.3359 0.5694
C113 C 0.8909(6) 0.2834(5) 0.6296(4)
H129 H 0.9191 0.3224 0.6647
H130 H 0.9298 0.2595 0.6140
H131 H 0.8614 0.2534 0.6418
C114 C 0.2021(8) 0.2886(7) 0.1841(5)
H132 H 0.1440 0.2760 0.1688
H133 H 0.2160 0.3330 0.2146
H134 H 0.2285 0.2558 0.2024
C115 C 0.2285(9) 0.2902(9) 0.1346(6)
O17 O 0.2962(7) 0.3012(9) 0.1328(6)
O18 O 0.1650(6) 0.2662(5) 0.0801(4)
C116 C 0.1865(9) 0.2611(9) 0.0264(6)
H135 H 0.2157 0.3041 0.0312
H136 H 0.2215 0.2257 0.0210
C117 C 0.1135(8) 0.2449(7) -0.0254(5)
H137 H 0.1262 0.2417 -0.0618
H138 H 0.0791 0.2801 -0.0194
H139 H 0.0855 0.2020 -0.0300
C118 C 0.288(2) 0.0986(16) 0.7018(15)
H140 H 0.2543 0.0671 0.6629
H141 H 0.2550 0.1183 0.7254
H142 H 0.3271 0.0748 0.7241
C119 C 0.331(2) 0.1525(14) 0.6911(11)
O19 O 0.3715(8) 0.2051(8) 0.7287(7)
O20 O 0.3308(16) 0.1322(9) 0.6333(9)
C120 C 0.372(3) 0.1783(12) 0.6153(12)
H143 H 0.4299 0.1867 0.6401
H144 H 0.3504 0.2215 0.6221
C121 C 0.3623(17) 0.1497(15) 0.5514(9)
H145 H 0.3887 0.1816 0.5390
H146 H 0.3052 0.1404 0.5271
H147 H 0.3864 0.1080 0.5453
C122 C -0.0377(10) 0.2605(8) 0.0760(10)
H148 H 0.0046 0.2897 0.1119
H149 H -0.0500 0.2809 0.0436
H150 H -0.0197 0.2169 0.0626
C123 C -0.1100(11) 0.2512(10) 0.0909(9)
O21 O -0.1773(8) 0.2171(8) 0.0623(7)
O22 O -0.0877(8) 0.2798(8) 0.1518(7)
C124 C -0.1537(13) 0.2710(12) 0.1737(11)
H151 H -0.2059 0.2725 0.1437
H152 H -0.1551 0.2279 0.1823
C125 C -0.135(2) 0.3274(18) 0.2289(13)
H153 H -0.1761 0.3252 0.2472
H154 H -0.1343 0.3694 0.2193
H155 H -0.0827 0.3255 0.2575
C126 C -0.5534(8) 0.1212(8) -0.1158(6)
H156 H -0.5359 0.0770 -0.1266
H157 H -0.5625 0.1396 -0.1494
H158 H -0.6032 0.1171 -0.1075
C127 C -0.4911(9) 0.1662(8) -0.0613(6)
O23 O -0.5001(11) 0.2226(7) -0.0385(6)
O24 O -0.4335(5) 0.1346(6) -0.0341(4)
C128 C -0.3713(7) 0.1703(8) 0.0247(6)
H159 H -0.3333 0.2011 0.0195
H160 H -0.3959 0.1968 0.0532
C129 C -0.3296(8) 0.1192(9) 0.0480(8)
H161 H -0.2876 0.1410 0.0872
H162 H -0.3056 0.0934 0.0194
H163 H -0.3679 0.0891 0.0530
C130 C 0.5696(10) 0.2058(10) 0.8218(8)
H164 H 0.5556 0.1852 0.8488
H165 H 0.5363 0.2414 0.8159
H166 H 0.6261 0.2249 0.8398
C131 C 0.5554(8) 0.1541(11) 0.7622(9)
O25 O 0.5720(7) 0.1627(7) 0.7233(5)
O26 O 0.5263(7) 0.0940(7) 0.7594(5)
H167 H 0.5684 0.0238 0.7024
H168 H 0.4932 0.0539 0.6668
H169 H 0.4530 -0.0593 0.6574
H170 H 0.4062 -0.0105 0.6940
H171 H 0.4813 -0.0407 0.7294
C132 C 0.5156(7) 0.0377(9) 0.7020(7)
C133 C 0.4588(8) -0.0239(7) 0.6950(7)
S1 S 0.62779(19) 0.34292(19) 0.68034(17)
O27 O 0.5961(8) 0.3997(8) 0.6574(5)
C134 C 0.5489(7) 0.2924(6) 0.6707(7)
H172 H 0.5218 0.2691 0.6275
H173 H 0.5120 0.3186 0.6871
H174 H 0.5662 0.2595 0.6920
C135 C 0.6440(10) 0.3688(9) 0.7583(6)
H175 H 0.6919 0.4020 0.7799
H176 H 0.6516 0.3300 0.7731
H177 H 0.5977 0.3888 0.7655
O28 O 0.295(2) 0.694(2) 1.0273(19)
loop_
_geom_bond_atom_site_label_1
_geom_bond_atom_site_label_2
_geom_bond_site_symmetry_1
_geom_bond_site_symmetry_2
Ni1 O1 1_555 1_555
Ni2 O5 1_555 1_555
Ni3 O9 1_555 1_555
C1 C2 1_555 1_555
C2 H1 1_555 1_555
C3 C2 1_555 1_555
C4 C3 1_555 1_555
H2 C4 1_555 1_555
C5 C4 1_555 1_555
C6 C1 1_555 1_555
H3 C6 1_555 1_555
C7 C8 1_555 1_555
C8 H4 1_555 1_555
C9 C8 1_555 1_555
C10 C9 1_555 1_555
H5 C10 1_555 1_555
C11 C10 1_555 1_555
C12 C7 1_555 1_555
H6 C12 1_555 1_555
C13 C5 1_555 1_555
C14 C13 1_555 1_555
C15 C14 1_555 1_555
C16 C15 1_555 1_555
H7 C16 1_555 1_555
C17 C16 1_555 1_555
C18 C13 1_555 1_555
H8 C18 1_555 1_555
O1 C14 1_555 1_555
C19 C17 1_555 1_555
C20 C19 1_555 1_555
H9 C20 1_555 1_555
H10 C20 1_555 1_555
H11 C20 1_555 1_555
C21 C19 1_555 1_555
H12 C21 1_555 1_555
H13 C21 1_555 1_555
H14 C21 1_555 1_555
C22 C19 1_555 1_555
H15 C22 1_555 1_555
H16 C22 1_555 1_555
H17 C22 1_555 1_555
C23 C15 1_555 1_555
H18 C23 1_555 1_555
N1 Ni1 1_555 1_555
C24 N1 1_555 1_555
C25 C24 1_555 1_555
H19 C25 1_555 1_555
C26 C25 1_555 1_555
C27 C26 1_555 1_555
C28 C27 1_555 1_555
H20 C28 1_555 1_555
C29 C24 1_555 1_555
O2 C26 1_555 1_555
C30 O2 1_555 1_555
H21 C30 1_555 1_555
H22 C30 1_555 1_555
H23 C30 1_555 1_555
O3 C27 1_555 1_555
C31 O3 1_555 1_555
H24 C31 1_555 1_555
H25 C31 1_555 1_555
H26 C31 1_555 1_555
N2 Ni1 1_555 1_555
C32 N2 1_555 1_555
H27 C32 1_555 1_555
C33 C32 1_555 1_555
C34 C33 1_555 1_555
C35 C11 1_555 1_555
C36 C35 1_555 1_555
H28 C36 1_555 1_555
C37 C36 1_555 1_555
C38 C33 1_555 1_555
H29 C38 1_555 1_555
O4 Ni1 1_555 1_555
C39 C37 1_555 1_555
C40 C39 1_555 1_555
H30 C40 1_555 1_555
H31 C40 1_555 1_555
H32 C40 1_555 1_555
C41 C39 1_555 1_555
H33 C41 1_555 1_555
H34 C41 1_555 1_555
H35 C41 1_555 1_555
C42 C39 1_555 1_555
H36 C42 1_555 1_555
H37 C42 1_555 1_555
H38 C42 1_555 1_555
C43 C1 1_555 1_555
C44 C43 1_555 1_555
C45 C44 1_555 1_555
C46 C45 1_555 1_555
H39 C46 1_555 1_555
C47 C46 1_555 1_555
C48 C43 1_555 1_555
H40 C48 1_555 1_555
O5 C44 1_555 1_555
C49 C47 1_555 1_555
C50 C49 1_555 1_555
H41 C50 1_555 1_555
H42 C50 1_555 1_555
H43 C50 1_555 1_555
C51 C49 1_555 1_555
H44 C51 1_555 1_555
H45 C51 1_555 1_555
H46 C51 1_555 1_555
C52 C49 1_555 1_555
H47 C52 1_555 1_555
H48 C52 1_555 1_555
H49 C52 1_555 1_555
C53 C45 1_555 1_555
H50 C53 1_555 1_555
N3 Ni2 1_555 1_555
C54 N3 1_555 1_555
C55 C54 1_555 1_555
H51 C55 1_555 1_555
C56 C55 1_555 1_555
C57 C56 1_555 1_555
C58 C57 1_555 1_555
H52 C58 1_555 1_555
C59 C54 1_555 1_555
O6 C56 1_555 1_555
C60 O6 1_555 1_555
H53 C60 1_555 1_555
H54 C60 1_555 1_555
H55 C60 1_555 1_555
O7 C57 1_555 1_555
C61 O7 1_555 1_555
H56 C61 1_555 1_555
H57 C61 1_555 1_555
H58 C61 1_555 1_555
N4 Ni2 1_555 1_555
C62 N4 1_555 1_555
H59 C62 1_555 1_555
C63 C62 1_555 1_555
C64 C63 1_555 1_555
C65 C7 1_555 1_555
C66 C65 1_555 1_555
H60 C66 1_555 1_555
C67 C66 1_555 1_555
C68 C63 1_555 1_555
H61 C68 1_555 1_555
O8 Ni2 1_555 1_555
C69 C67 1_555 1_555
C70 C69 1_555 1_555
H62 C70 1_555 1_555
H63 C70 1_555 1_555
H64 C70 1_555 1_555
C71 C69 1_555 1_555
H65 C71 1_555 1_555
H66 C71 1_555 1_555
H67 C71 1_555 1_555
C72 C69 1_555 1_555
H68 C72 1_555 1_555
H69 C72 1_555 1_555
H70 C72 1_555 1_555
C73 C3 1_555 1_555
C74 C73 1_555 1_555
C75 C74 1_555 1_555
C76 C75 1_555 1_555
H71 C76 1_555 1_555
C77 C76 1_555 1_555
C78 C73 1_555 1_555
H72 C78 1_555 1_555
O9 C74 1_555 1_555
C79 C77 1_555 1_555
C80 C75 1_555 1_555
H73 C80 1_555 1_555
N5 Ni3 1_555 1_555
C81 N5 1_555 1_555
C82 C81 1_555 1_555
H74 C82 1_555 1_555
C83 C82 1_555 1_555
C84 C83 1_555 1_555
C85 C84 1_555 1_555
H75 C85 1_555 1_555
C86 C81 1_555 1_555
O10 C83 1_555 1_555
C87 O10 1_555 1_555
H76 C87 1_555 1_555
H77 C87 1_555 1_555
H78 C87 1_555 1_555
O11 C84 1_555 1_555
C88 O11 1_555 1_555
H79 C88 1_555 1_555
H80 C88 1_555 1_555
H81 C88 1_555 1_555
N6 Ni3 1_555 1_555
C89 N6 1_555 1_555
H82 C89 1_555 1_555
C90 C89 1_555 1_555
C91 C90 1_555 1_555
C92 C9 1_555 1_555
C93 C92 1_555 1_555
H83 C93 1_555 1_555
C94 C93 1_555 1_555
C95 C90 1_555 1_555
H84 C95 1_555 1_555
O12 Ni3 1_555 1_555
C96 C94 1_555 1_555
C97 C79 1_555 1_555
H85 C97 1_555 1_555
H86 C97 1_555 1_555
H87 C97 1_555 1_555
C98 C79 1_555 1_555
H88 C98 1_555 1_555
H89 C98 1_555 1_555
H90 C98 1_555 1_555
C99 C79 1_555 1_555
H91 C99 1_555 1_555
H92 C99 1_555 1_555
H93 C99 1_555 1_555
C100 C96 1_555 1_555
H94 C100 1_555 1_555
H95 C100 1_555 1_555
H96 C100 1_555 1_555
C101 C96 1_555 1_555
H97 C101 1_555 1_555
H98 C101 1_555 1_555
H99 C101 1_555 1_555
C102 C96 1_555 1_555
H100 C102 1_555 1_555
H101 C102 1_555 1_555
H102 C102 1_555 1_555
C103 N7 1_555 1_555
N7 H103 1_555 1_555
H104 N7 1_555 1_555
N8 C103 1_555 1_555
H105 N8 1_555 1_555
H106 N8 1_555 1_555
N9 C103 1_555 1_555
H107 N9 1_555 1_555
H108 N9 1_555 1_555
C104 N10 1_555 1_555
N10 H109 1_555 1_555
H110 N10 1_555 1_555
N11 C104 1_555 1_555
H111 N11 1_555 1_555
H112 N11 1_555 1_555
N12 C104 1_555 1_555
H113 N12 1_555 1_555
H114 N12 1_555 1_555
Cl3 C105 1_555 1_555
Cl4 C105 1_555 1_555
Cl5 C105 1_555 1_555
C105 H115 1_555 1_555
C106 H116 1_555 1_555
H117 C106 1_555 1_555
H118 C106 1_555 1_555
C107 C106 1_555 1_555
O13 C107 1_555 1_555
O14 C107 1_555 1_555
C108 O14 1_555 1_555
H119 C108 1_555 1_555
H120 C108 1_555 1_555
C109 C108 1_555 1_555
H121 C109 1_555 1_555
H122 C109 1_555 1_555
H123 C109 1_555 1_555
C110 H124 1_555 1_555
H125 C110 1_555 1_555
H126 C110 1_555 1_555
C111 C110 1_555 1_555
O15 C111 1_555 1_555
O16 C111 1_555 1_555
C112 O16 1_555 1_555
H127 C112 1_555 1_555
H128 C112 1_555 1_555
C113 C112 1_555 1_555
H129 C113 1_555 1_555
H130 C113 1_555 1_555
H131 C113 1_555 1_555
C114 H132 1_555 1_555
H133 C114 1_555 1_555
H134 C114 1_555 1_555
C115 C114 1_555 1_555
O17 C115 1_555 1_555
O18 C115 1_555 1_555
C116 O18 1_555 1_555
H135 C116 1_555 1_555
H136 C116 1_555 1_555
C117 C116 1_555 1_555
H137 C117 1_555 1_555
H138 C117 1_555 1_555
H139 C117 1_555 1_555
C118 H140 1_555 1_555
H141 C118 1_555 1_555
H142 C118 1_555 1_555
C119 C118 1_555 1_555
O19 C119 1_555 1_555
O20 C119 1_555 1_555
C120 O20 1_555 1_555
H143 C120 1_555 1_555
H144 C120 1_555 1_555
C121 C120 1_555 1_555
H145 C121 1_555 1_555
H146 C121 1_555 1_555
H147 C121 1_555 1_555
C122 H148 1_555 1_555
H149 C122 1_555 1_555
H150 C122 1_555 1_555
C123 C122 1_555 1_555
O21 C123 1_555 1_555
O22 C123 1_555 1_555
C124 O22 1_555 1_555
H151 C124 1_555 1_555
H152 C124 1_555 1_555
C125 C124 1_555 1_555
H153 C125 1_555 1_555
H154 C125 1_555 1_555
H155 C125 1_555 1_555
C126 H156 1_555 1_555
H157 C126 1_555 1_555
H158 C126 1_555 1_555
C127 C126 1_555 1_555
O23 C127 1_555 1_555
O24 C127 1_555 1_555
C128 O24 1_555 1_555
H159 C128 1_555 1_555
H160 C128 1_555 1_555
C129 C128 1_555 1_555
H161 C129 1_555 1_555
H162 C129 1_555 1_555
H163 C129 1_555 1_555
C130 H164 1_555 1_555
H165 C130 1_555 1_555
H166 C130 1_555 1_555
C131 C130 1_555 1_555
O25 C131 1_555 1_555
O26 C131 1_555 1_555
H167 C132 1_555 1_555
H168 C132 1_555 1_555
H169 C133 1_555 1_555
H170 C133 1_555 1_555
H171 C133 1_555 1_555
C132 O26 1_555 1_555
C133 C132 1_555 1_555
S1 O27 1_555 1_555
C134 S1 1_555 1_555
H172 C134 1_555 1_555
H173 C134 1_555 1_555
H174 C134 1_555 1_555
C135 S1 1_555 1_555
H175 C135 1_555 1_555
H176 C135 1_555 1_555
H177 C135 1_555 1_555
C5 C6 1_555 1_555
C11 C12 1_555 1_555
C17 C18 1_555 1_555
C23 N1 1_555 1_555
C28 C29 1_555 1_555
C29 N2 1_555 1_555
C34 C35 1_555 1_555
C34 O4 1_555 1_555
C37 C38 1_555 1_555
C47 C48 1_555 1_555
C53 N3 1_555 1_555
C58 C59 1_555 1_555
C59 N4 1_555 1_555
C64 C65 1_555 1_555
C64 O8 1_555 1_555
C67 C68 1_555 1_555
C77 C78 1_555 1_555
C80 N5 1_555 1_555
C85 C86 1_555 1_555
C86 N6 1_555 1_555
C91 C92 1_555 1_555
C91 O12 1_555 1_555
C94 C95 1_555 1_555

#END
