# generated using pymatgen
data_FeBH25C29(N2F)4
_symmetry_space_group_name_H-M   'P 1'
_cell_length_a   14.80000000
_cell_length_b   15.41800000
_cell_length_c   50.70100000
_cell_angle_alpha   89.66200000
_cell_angle_beta   88.98000000
_cell_angle_gamma   80.57800000
_symmetry_Int_Tables_number   1
_chemical_formula_structural   FeBH25C29(N2F)4
_chemical_formula_sum   'Fe16 B16 H400.0 C464.0 N128 F64.0'
_cell_volume   11411.34111386
_cell_formula_units_Z   16
loop_
 _symmetry_equiv_pos_site_id
 _symmetry_equiv_pos_as_xyz
  1  'x, y, z'
loop_
 _atom_site_type_symbol
 _atom_site_label
 _atom_site_symmetry_multiplicity
 _atom_site_fract_x
 _atom_site_fract_y
 _atom_site_fract_z
 _atom_site_occupancy
  Fe  Fe1  1  0.645200  0.157900  0.067660  0.468
  Fe  Fe2  1  0.354800  0.842100  0.932340  0.468
  Fe  Fe3  1  0.854100  0.232900  0.172500  0.468
  Fe  Fe4  1  0.145900  0.767100  0.827500  0.468
  Fe  Fe5  1  0.904400  0.811900  0.179200  0.468
  Fe  Fe6  1  0.095600  0.188100  0.820800  0.468
  Fe  Fe7  1  0.679300  0.740000  0.079100  0.468
  Fe  Fe8  1  0.320700  0.260000  0.920900  0.468
  Fe  Fe9  1  0.630300  0.185700  0.068840  0.532
  Fe  Fe10  1  0.369700  0.814300  0.931160  0.532
  Fe  Fe11  1  0.846700  0.263100  0.172710  0.532
  Fe  Fe12  1  0.153300  0.736900  0.827290  0.532
  Fe  Fe13  1  0.903800  0.837200  0.177100  0.532
  Fe  Fe14  1  0.096200  0.162800  0.822900  0.532
  Fe  Fe15  1  0.678700  0.761800  0.074850  0.532
  Fe  Fe16  1  0.321300  0.238200  0.925150  0.532
  Fe  Fe17  1  0.354600  0.823800  0.439500  0.638
  Fe  Fe18  1  0.645400  0.176200  0.560500  0.638
  Fe  Fe19  1  0.152500  0.779200  0.330080  0.638
  Fe  Fe20  1  0.847500  0.220800  0.669920  0.638
  Fe  Fe21  1  0.158800  0.187200  0.311060  0.638
  Fe  Fe22  1  0.841200  0.812800  0.688940  0.638
  Fe  Fe23  1  0.352700  0.232400  0.418900  0.638
  Fe  Fe24  1  0.647300  0.767600  0.581100  0.638
  Fe  Fe25  1  0.346400  0.814800  0.440600  0.362
  Fe  Fe26  1  0.653600  0.185200  0.559400  0.362
  Fe  Fe27  1  0.159800  0.751500  0.331600  0.362
  Fe  Fe28  1  0.840200  0.248500  0.668400  0.362
  Fe  Fe29  1  0.152900  0.161500  0.314500  0.362
  Fe  Fe30  1  0.847100  0.838500  0.685500  0.362
  Fe  Fe31  1  0.360300  0.242600  0.418600  0.362
  Fe  Fe32  1  0.639700  0.757400  0.581400  0.362
  B  B33  1  0.736000  0.542000  0.447000  0.091
  B  B34  1  0.264000  0.458000  0.553000  0.091
  B  B35  1  0.809000  0.078000  0.454900  0.122
  B  B36  1  0.191000  0.922000  0.545100  0.122
  B  B37  1  0.186100  0.961300  0.039600  0.358
  B  B38  1  0.813900  0.038700  0.960400  0.358
  B  B39  1  0.716000  0.200000  0.296200  0.414
  B  B40  1  0.284000  0.800000  0.703800  0.414
  B  B41  1  0.709500  0.675200  0.314600  0.439
  B  B42  1  0.290500  0.324800  0.685400  0.439
  B  B43  1  0.342700  0.818700  0.203500  0.484
  B  B44  1  0.657300  0.181300  0.796500  0.484
  B  B45  1  0.291800  0.348000  0.194800  0.485
  B  B46  1  0.708200  0.652000  0.805200  0.485
  B  B47  1  0.186100  0.428500  0.054900  0.493
  B  B48  1  0.813900  0.571500  0.945100  0.493
  B  B49  1  0.198300  0.441400  0.047700  0.507
  B  B50  1  0.801700  0.558600  0.952300  0.507
  B  B51  1  0.301400  0.336300  0.196300  0.515
  B  B52  1  0.698600  0.663700  0.803700  0.515
  B  B53  1  0.349300  0.805200  0.205100  0.516
  B  B54  1  0.650700  0.194800  0.794900  0.516
  B  B55  1  0.711500  0.680100  0.309100  0.561
  B  B56  1  0.288500  0.319900  0.690900  0.561
  B  B57  1  0.701000  0.166600  0.296800  0.586
  B  B58  1  0.299000  0.833400  0.703200  0.586
  B  B59  1  0.188400  0.926900  0.040400  0.642
  B  B60  1  0.811600  0.073100  0.959600  0.642
  B  B61  1  0.825500  0.093500  0.453400  0.878
  B  B62  1  0.174500  0.906500  0.546600  0.878
  B  B63  1  0.842900  0.558300  0.457490  0.909
  B  B64  1  0.157100  0.441700  0.542510  0.909
  H  H65  1  0.828700  0.734200  0.353400  0.362
  H  H66  1  0.171300  0.265800  0.646600  0.362
  H  H67  1  0.773100  0.876200  0.341800  0.362
  H  H68  1  0.226900  0.123800  0.658200  0.362
  H  H69  1  0.876300  0.977100  0.336500  0.362
  H  H70  1  0.123700  0.022900  0.663500  0.362
  H  H71  1  0.376000  0.427700  0.371100  0.362
  H  H72  1  0.624000  0.572300  0.628900  0.362
  H  H73  1  0.448200  0.412300  0.394500  0.362
  H  H74  1  0.551800  0.587700  0.605500  0.362
  H  H75  1  0.408600  0.510100  0.385000  0.362
  H  H76  1  0.591400  0.489900  0.615000  0.362
  H  H77  1  0.237600  0.578300  0.407100  0.362
  H  H78  1  0.762400  0.421700  0.592900  0.362
  H  H79  1  0.051800  0.520900  0.436300  0.362
  H  H80  1  0.948200  0.479100  0.563700  0.362
  H  H81  1  0.105400  0.598100  0.444800  0.362
  H  H82  1  0.894600  0.401900  0.555200  0.362
  H  H83  1  0.103200  0.515400  0.463900  0.362
  H  H84  1  0.896800  0.484600  0.536100  0.362
  H  H85  1  0.067400  0.658600  0.499900  0.362
  H  H86  1  0.932600  0.341400  0.500100  0.362
  H  H87  1  0.106300  0.717600  0.521400  0.362
  H  H88  1  0.893700  0.282400  0.478600  0.362
  H  H89  1  0.126500  0.612600  0.523800  0.362
  H  H90  1  0.873500  0.387400  0.476200  0.362
  H  H91  1  0.284600  0.538700  0.500200  0.362
  H  H92  1  0.715400  0.461300  0.499800  0.362
  H  H93  1  0.407600  0.537600  0.445400  0.362
  H  H94  1  0.592400  0.462400  0.554600  0.362
  H  H95  1  0.450800  0.527900  0.474200  0.362
  H  H96  1  0.549200  0.472100  0.525800  0.362
  H  H97  1  0.463100  0.610600  0.456100  0.362
  H  H98  1  0.536900  0.389400  0.543900  0.362
  H  H99  1  0.360500  0.887400  0.497300  0.362
  H  H100  1  0.639500  0.112600  0.502700  0.362
  H  H101  1  0.423600  0.941900  0.513600  0.362
  H  H102  1  0.576400  0.058100  0.486400  0.362
  H  H103  1  0.425600  0.839600  0.519700  0.362
  H  H104  1  0.574400  0.160400  0.480300  0.362
  H  H105  1  0.758900  0.858100  0.461500  0.362
  H  H106  1  0.241100  0.141900  0.538500  0.362
  H  H107  1  0.725900  0.814100  0.435700  0.362
  H  H108  1  0.274100  0.185900  0.564300  0.362
  H  H109  1  0.750200  0.756000  0.461600  0.362
  H  H110  1  0.249800  0.244000  0.538400  0.362
  H  H111  1  0.327500  0.614400  0.231200  0.362
  H  H112  1  0.672500  0.385600  0.768800  0.362
  H  H113  1  0.271600  0.534200  0.229200  0.362
  H  H114  1  0.728400  0.465800  0.770800  0.362
  H  H115  1  0.341100  0.537600  0.252800  0.362
  H  H116  1  0.658900  0.462400  0.747200  0.362
  H  H117  1  0.972500  0.665200  0.301000  0.362
  H  H118  1  0.027500  0.334800  0.699000  0.362
  H  H119  1  0.950800  0.661800  0.270200  0.362
  H  H120  1  0.049200  0.338200  0.729800  0.362
  H  H121  1  0.962300  0.753100  0.283600  0.362
  H  H122  1  0.037700  0.246900  0.716400  0.362
  H  H123  1  0.622800  0.900000  0.497500  0.362
  H  H124  1  0.377200  0.100000  0.502500  0.362
  H  H125  1  0.682600  0.673500  0.431500  0.362
  H  H126  1  0.317400  0.326500  0.568500  0.362
  H  H127  1  0.661400  0.598200  0.392100  0.362
  H  H128  1  0.338600  0.401800  0.607900  0.362
  H  H129  1  0.516100  0.623100  0.369100  0.362
  H  H130  1  0.483900  0.376900  0.630900  0.362
  H  H131  1  0.501400  0.705000  0.335600  0.362
  H  H132  1  0.498600  0.295000  0.664400  0.362
  H  H133  1  0.527100  0.670900  0.290600  0.362
  H  H134  1  0.472900  0.329100  0.709400  0.362
  H  H135  1  0.405000  0.651800  0.264800  0.362
  H  H136  1  0.595000  0.348200  0.735200  0.362
  H  H137  1  0.096700  0.587000  0.245700  0.362
  H  H138  1  0.903300  0.413000  0.754300  0.362
  H  H139  1  0.123000  0.937900  0.394300  0.362
  H  H140  1  0.877000  0.062100  0.605700  0.362
  H  H141  1  0.953400  0.971200  0.410400  0.362
  H  H142  1  0.046600  0.028800  0.589600  0.362
  H  H143  1  0.890000  0.850300  0.426800  0.362
  H  H144  1  0.110000  0.149700  0.573200  0.362
  H  H145  1  0.981600  0.718600  0.432800  0.362
  H  H146  1  0.018400  0.281400  0.567200  0.362
  H  H147  1  0.126500  0.693700  0.418600  0.362
  H  H148  1  0.873500  0.306300  0.581400  0.362
  H  H149  1  0.228100  0.491800  0.333500  0.362
  H  H150  1  0.771900  0.508200  0.666500  0.362
  H  H151  1  0.235200  0.463600  0.363900  0.362
  H  H152  1  0.764800  0.536400  0.636100  0.362
  H  H153  1  0.259600  0.556600  0.354700  0.362
  H  H154  1  0.740400  0.443400  0.645300  0.362
  H  H155  1  0.879800  0.536800  0.387800  0.362
  H  H156  1  0.120200  0.463200  0.612200  0.362
  H  H157  1  0.837500  0.615900  0.368800  0.362
  H  H158  1  0.162500  0.384100  0.631200  0.362
  H  H159  1  0.874500  0.636400  0.397200  0.362
  H  H160  1  0.125500  0.363600  0.602800  0.362
  H  H161  1  0.865200  0.410300  0.327900  0.362
  H  H162  1  0.134800  0.589700  0.672100  0.362
  H  H163  1  0.876600  0.494700  0.310400  0.362
  H  H164  1  0.123400  0.505300  0.689600  0.362
  H  H165  1  0.910100  0.488100  0.340300  0.362
  H  H166  1  0.089900  0.511900  0.659700  0.362
  H  H167  1  0.237700  0.419500  0.281400  0.362
  H  H168  1  0.762300  0.580500  0.718600  0.362
  H  H169  1  0.203000  0.353800  0.261000  0.362
  H  H170  1  0.797000  0.646200  0.739000  0.362
  H  H171  1  0.261300  0.315500  0.286000  0.362
  H  H172  1  0.738700  0.684500  0.714000  0.362
  H  H173  1  0.027000  0.470000  0.369800  0.362
  H  H174  1  0.973000  0.530000  0.630200  0.362
  H  H175  1  0.909600  0.058600  0.366700  0.362
  H  H176  1  0.090400  0.941400  0.633300  0.362
  H  H177  1  0.831900  0.204400  0.374400  0.362
  H  H178  1  0.168100  0.795600  0.625600  0.362
  H  H179  1  0.875000  0.327300  0.353300  0.362
  H  H180  1  0.125000  0.672700  0.646700  0.362
  H  H181  1  0.085000  0.494400  0.297700  0.362
  H  H182  1  0.915000  0.505600  0.702300  0.362
  H  H183  1  0.337600  0.978400  0.343900  0.362
  H  H184  1  0.662400  0.021600  0.656100  0.362
  H  H185  1  0.491700  0.963000  0.330800  0.362
  H  H186  1  0.508300  0.037000  0.669200  0.362
  H  H187  1  0.536600  0.910100  0.288700  0.362
  H  H188  1  0.463400  0.089900  0.711300  0.362
  H  H189  1  0.432400  0.866600  0.260100  0.362
  H  H190  1  0.567600  0.133400  0.739900  0.362
  H  H191  1  0.268200  0.889000  0.272600  0.362
  H  H192  1  0.731800  0.111000  0.727400  0.362
  H  H193  1  0.944700  0.179700  0.286300  0.362
  H  H194  1  0.055300  0.820300  0.713700  0.362
  H  H195  1  0.953900  0.074800  0.287000  0.362
  H  H196  1  0.046100  0.925200  0.713000  0.362
  H  H197  1  0.912400  0.128500  0.261700  0.362
  H  H198  1  0.087600  0.871500  0.738300  0.362
  H  H199  1  0.303000  0.005300  0.226100  0.362
  H  H200  1  0.697000  0.994700  0.773900  0.362
  H  H201  1  0.287100  0.096000  0.210100  0.362
  H  H202  1  0.712900  0.904000  0.789900  0.362
  H  H203  1  0.237800  0.016300  0.201100  0.362
  H  H204  1  0.762200  0.983700  0.798900  0.362
  H  H205  1  0.698000  0.389700  0.440800  0.362
  H  H206  1  0.302000  0.610300  0.559200  0.362
  H  H207  1  0.709300  0.310700  0.420000  0.362
  H  H208  1  0.290700  0.689300  0.580000  0.362
  H  H209  1  0.737500  0.291700  0.450100  0.362
  H  H210  1  0.262500  0.708300  0.549900  0.362
  H  H211  1  0.411600  0.310400  0.504100  0.362
  H  H212  1  0.588400  0.689600  0.495900  0.362
  H  H213  1  0.340600  0.295500  0.481800  0.362
  H  H214  1  0.659400  0.704500  0.518200  0.362
  H  H215  1  0.360800  0.392300  0.487600  0.362
  H  H216  1  0.639200  0.607700  0.512400  0.362
  H  H217  1  0.057000  0.054000  0.226700  0.362
  H  H218  1  0.943000  0.946000  0.773300  0.362
  H  H219  1  0.361500  0.133800  0.237500  0.362
  H  H220  1  0.638500  0.866200  0.762500  0.362
  H  H221  1  0.488700  0.161400  0.259500  0.362
  H  H222  1  0.511300  0.838600  0.740500  0.362
  H  H223  1  0.478200  0.193800  0.305200  0.362
  H  H224  1  0.521800  0.806200  0.694800  0.362
  H  H225  1  0.545100  0.116300  0.338000  0.362
  H  H226  1  0.454900  0.883700  0.662000  0.362
  H  H227  1  0.682800  0.121700  0.356100  0.362
  H  H228  1  0.317200  0.878300  0.643900  0.362
  H  H229  1  0.696300  0.181300  0.398800  0.362
  H  H230  1  0.303700  0.818700  0.601200  0.362
  H  H231  1  0.572300  0.367300  0.482400  0.362
  H  H232  1  0.427700  0.632700  0.517600  0.362
  H  H233  1  0.139100  0.093500  0.393700  0.362
  H  H234  1  0.860900  0.906500  0.606300  0.362
  H  H235  1  0.027000  0.104700  0.420400  0.362
  H  H236  1  0.973000  0.895300  0.579600  0.362
  H  H237  1  0.938700  0.238500  0.430300  0.362
  H  H238  1  0.061300  0.761500  0.569700  0.362
  H  H239  1  0.986200  0.369600  0.415900  0.362
  H  H240  1  0.013800  0.630400  0.584100  0.362
  H  H241  1  0.138200  0.352300  0.392100  0.362
  H  H242  1  0.861800  0.647700  0.607900  0.362
  H  H243  1  0.109600  0.388200  0.482600  0.362
  H  H244  1  0.890400  0.611800  0.517400  0.362
  H  H245  1  0.083300  0.253700  0.503800  0.362
  H  H246  1  0.916700  0.746300  0.496200  0.362
  H  H247  1  0.159900  0.118600  0.490200  0.362
  H  H248  1  0.840100  0.881400  0.509800  0.362
  H  H249  1  0.086900  0.046100  0.467300  0.362
  H  H250  1  0.913100  0.953900  0.532700  0.362
  H  H251  1  0.990600  0.930900  0.479100  0.362
  H  H252  1  0.009400  0.069100  0.520900  0.362
  H  H253  1  0.067800  0.799700  0.489400  0.362
  H  H254  1  0.932200  0.200300  0.510600  0.362
  H  H255  1  0.448300  0.908200  0.383700  0.362
  H  H256  1  0.551700  0.091800  0.616300  0.362
  H  H257  1  0.602600  0.859700  0.371700  0.362
  H  H258  1  0.397400  0.140300  0.628300  0.362
  H  H259  1  0.713400  0.942900  0.385000  0.362
  H  H260  1  0.286600  0.057100  0.615000  0.362
  H  H261  1  0.685500  0.022900  0.424500  0.362
  H  H262  1  0.314500  0.977100  0.575500  0.362
  H  H263  1  0.545300  0.083300  0.430600  0.362
  H  H264  1  0.454700  0.916700  0.569400  0.362
  H  H265  1  0.752700  0.345600  0.283300  0.468
  H  H266  1  0.247300  0.654400  0.716700  0.468
  H  H267  1  0.689400  0.385700  0.259400  0.468
  H  H268  1  0.310600  0.614300  0.740600  0.468
  H  H269  1  0.753000  0.444800  0.273800  0.468
  H  H270  1  0.247000  0.555200  0.726200  0.468
  H  H271  1  0.960700  0.359400  0.255900  0.468
  H  H272  1  0.039300  0.640600  0.744100  0.468
  H  H273  1  0.064300  0.235200  0.203900  0.468
  H  H274  1  0.935700  0.764800  0.796100  0.468
  H  H275  1  0.085500  0.306000  0.224900  0.468
  H  H276  1  0.914500  0.694000  0.775100  0.468
  H  H277  1  0.046000  0.337700  0.196700  0.468
  H  H278  1  0.954000  0.662300  0.803300  0.468
  H  H279  1  0.622700  0.146600  0.996200  0.468
  H  H280  1  0.377300  0.853400  0.003800  0.468
  H  H281  1  0.568900  0.072800  0.985200  0.468
  H  H282  1  0.431100  0.927200  0.014800  0.468
  H  H283  1  0.634500  0.051800  0.010000  0.468
  H  H284  1  0.365500  0.948200  0.990000  0.468
  H  H285  1  0.253800  0.241100  0.050400  0.468
  H  H286  1  0.746200  0.758900  0.949600  0.468
  H  H287  1  0.267900  0.145400  0.063600  0.468
  H  H288  1  0.732100  0.854600  0.936400  0.468
  H  H289  1  0.239500  0.157700  0.033300  0.468
  H  H290  1  0.760500  0.842300  0.966700  0.468
  H  H291  1  0.389300  0.111700  0.002500  0.468
  H  H292  1  0.610700  0.888300  0.997500  0.468
  H  H293  1  0.311800  0.274300  0.081500  0.468
  H  H294  1  0.688200  0.725700  0.918500  0.468
  H  H295  1  0.320200  0.322500  0.126300  0.468
  H  H296  1  0.679800  0.677500  0.873700  0.468
  H  H297  1  0.458500  0.306900  0.146100  0.468
  H  H298  1  0.541500  0.693100  0.853900  0.468
  H  H299  1  0.516000  0.237000  0.177800  0.468
  H  H300  1  0.484000  0.763000  0.822200  0.468
  H  H301  1  0.499800  0.273000  0.222500  0.468
  H  H302  1  0.500200  0.727000  0.777500  0.468
  H  H303  1  0.635500  0.297100  0.246900  0.468
  H  H304  1  0.364500  0.702900  0.753100  0.468
  H  H305  1  0.872000  0.041400  0.105000  0.468
  H  H306  1  0.128000  0.958600  0.895000  0.468
  H  H307  1  0.014000  0.005700  0.084900  0.468
  H  H308  1  0.986000  0.994300  0.915100  0.468
  H  H309  1  0.097400  0.103400  0.075300  0.468
  H  H310  1  0.902600  0.896600  0.924700  0.468
  H  H311  1  0.048300  0.259100  0.078400  0.468
  H  H312  1  0.951700  0.740900  0.921600  0.468
  H  H313  1  0.891800  0.297200  0.097400  0.468
  H  H314  1  0.108200  0.702800  0.902600  0.468
  H  H315  1  0.693000  0.436600  0.164900  0.468
  H  H316  1  0.307000  0.563400  0.835100  0.468
  H  H317  1  0.718100  0.532200  0.169700  0.468
  H  H318  1  0.281900  0.467800  0.830300  0.468
  H  H319  1  0.742200  0.456800  0.191500  0.468
  H  H320  1  0.257800  0.543200  0.808500  0.468
  H  H321  1  0.086600  0.404700  0.116200  0.468
  H  H322  1  0.913400  0.595300  0.883800  0.468
  H  H323  1  0.083400  0.495100  0.131800  0.468
  H  H324  1  0.916600  0.504900  0.868200  0.468
  H  H325  1  0.024400  0.492500  0.105700  0.468
  H  H326  1  0.975600  0.507500  0.894300  0.468
  H  H327  1  0.256900  0.517600  0.157800  0.468
  H  H328  1  0.743100  0.482400  0.842200  0.468
  H  H329  1  0.269000  0.617200  0.163200  0.468
  H  H330  1  0.731000  0.382800  0.836800  0.468
  H  H331  1  0.216400  0.593600  0.137600  0.468
  H  H332  1  0.783600  0.406400  0.862400  0.468
  H  H333  1  0.870800  0.638100  0.209300  0.468
  H  H334  1  0.129200  0.361900  0.790700  0.468
  H  H335  1  0.937400  0.570500  0.227200  0.468
  H  H336  1  0.062600  0.429500  0.772800  0.468
  H  H337  1  0.894600  0.536700  0.201100  0.468
  H  H338  1  0.105400  0.463300  0.798900  0.468
  H  H339  1  0.873600  0.555100  0.146300  0.468
  H  H340  1  0.126400  0.444900  0.853700  0.468
  H  H341  1  0.135100  0.317600  0.130900  0.468
  H  H342  1  0.864900  0.682400  0.869100  0.468
  H  H343  1  0.227200  0.175800  0.135800  0.468
  H  H344  1  0.772800  0.824200  0.864200  0.468
  H  H345  1  0.160000  0.057900  0.151700  0.468
  H  H346  1  0.840000  0.942100  0.848300  0.468
  H  H347  1  0.114700  0.967800  0.126700  0.468
  H  H348  1  0.885300  0.032200  0.873300  0.468
  H  H349  1  0.222300  0.841800  0.113100  0.468
  H  H350  1  0.777700  0.158200  0.886900  0.468
  H  H351  1  0.199200  0.700000  0.130300  0.468
  H  H352  1  0.800800  0.300000  0.869700  0.468
  H  H353  1  0.101400  0.491500  0.194500  0.468
  H  H354  1  0.898600  0.508500  0.805500  0.468
  H  H355  1  0.708300  0.964400  0.161500  0.468
  H  H356  1  0.291700  0.035600  0.838500  0.468
  H  H357  1  0.563900  0.969400  0.176600  0.468
  H  H358  1  0.436100  0.030600  0.823400  0.468
  H  H359  1  0.520600  0.015500  0.219800  0.468
  H  H360  1  0.479400  0.984500  0.780200  0.468
  H  H361  1  0.627100  0.078200  0.245000  0.468
  H  H362  1  0.372900  0.921800  0.755000  0.468
  H  H363  1  0.774000  0.086200  0.226700  0.468
  H  H364  1  0.226000  0.913800  0.773300  0.468
  H  H365  1  0.096800  0.805100  0.214500  0.468
  H  H366  1  0.903200  0.194900  0.785500  0.468
  H  H367  1  0.123000  0.836800  0.243000  0.468
  H  H368  1  0.877000  0.163200  0.757000  0.468
  H  H369  1  0.097300  0.907200  0.219900  0.468
  H  H370  1  0.902700  0.092800  0.780100  0.468
  H  H371  1  0.718500  0.942400  0.270500  0.468
  H  H372  1  0.281500  0.057600  0.729500  0.468
  H  H373  1  0.790900  0.947800  0.293200  0.468
  H  H374  1  0.209100  0.052200  0.706800  0.468
  H  H375  1  0.756200  0.856900  0.287500  0.468
  H  H376  1  0.243800  0.143100  0.712500  0.468
  H  H377  1  0.324400  0.596300  0.054900  0.468
  H  H378  1  0.675600  0.403700  0.945100  0.468
  H  H379  1  0.295000  0.696700  0.063600  0.468
  H  H380  1  0.705000  0.303300  0.936400  0.468
  H  H381  1  0.351700  0.627700  0.083300  0.468
  H  H382  1  0.648300  0.372300  0.916700  0.468
  H  H383  1  0.663700  0.725700  0.011200  0.468
  H  H384  1  0.336300  0.274300  0.988800  0.468
  H  H385  1  0.587200  0.711300  0.990500  0.468
  H  H386  1  0.412800  0.288700  0.009500  0.468
  H  H387  1  0.653400  0.628400  0.002400  0.468
  H  H388  1  0.346600  0.371600  0.997600  0.468
  H  H389  1  0.973400  0.927900  0.272900  0.468
  H  H390  1  0.026600  0.072100  0.727100  0.468
  H  H391  1  0.696200  0.788800  0.258200  0.468
  H  H392  1  0.303800  0.211200  0.741800  0.468
  H  H393  1  0.595200  0.727700  0.235100  0.468
  H  H394  1  0.404800  0.272300  0.764900  0.468
  H  H395  1  0.600500  0.720200  0.190500  0.468
  H  H396  1  0.399500  0.279800  0.809500  0.468
  H  H397  1  0.513300  0.792000  0.162900  0.468
  H  H398  1  0.486700  0.208000  0.837100  0.468
  H  H399  1  0.376200  0.783500  0.146900  0.468
  H  H400  1  0.623800  0.216500  0.853100  0.468
  H  H401  1  0.356300  0.738600  0.103800  0.468
  H  H402  1  0.643700  0.261400  0.896200  0.468
  H  H403  1  0.448300  0.622100  0.014900  0.468
  H  H404  1  0.551700  0.377900  0.985100  0.468
  H  H405  1  0.907900  0.883800  0.104500  0.468
  H  H406  1  0.092100  0.116200  0.895500  0.468
  H  H407  1  0.032900  0.863000  0.068900  0.468
  H  H408  1  0.967100  0.137000  0.931100  0.468
  H  H409  1  0.111900  0.719100  0.062900  0.468
  H  H410  1  0.888100  0.280900  0.937100  0.468
  H  H411  1  0.063200  0.607200  0.082900  0.468
  H  H412  1  0.936800  0.392800  0.917100  0.468
  H  H413  1  0.936900  0.623300  0.111200  0.468
  H  H414  1  0.063100  0.376700  0.888800  0.468
  H  H415  1  0.631800  0.589100  0.124500  0.468
  H  H416  1  0.368200  0.410900  0.875500  0.468
  H  H417  1  0.629600  0.488200  0.117700  0.468
  H  H418  1  0.370400  0.511800  0.882300  0.468
  H  H419  1  0.568100  0.564500  0.101400  0.468
  H  H420  1  0.431900  0.435500  0.898600  0.468
  H  H421  1  0.895900  0.468900  0.031700  0.468
  H  H422  1  0.104100  0.531100  0.968300  0.468
  H  H423  1  0.899900  0.389600  0.052400  0.468
  H  H424  1  0.100100  0.610400  0.947600  0.468
  H  H425  1  0.960800  0.465000  0.056700  0.468
  H  H426  1  0.039200  0.535000  0.943300  0.468
  H  H427  1  0.899400  0.297000  0.999900  0.468
  H  H428  1  0.100600  0.703000  0.000100  0.468
  H  H429  1  0.854000  0.392400  0.989800  0.468
  H  H430  1  0.146000  0.607600  0.010200  0.468
  H  H431  1  0.823900  0.306500  0.977500  0.468
  H  H432  1  0.176100  0.693500  0.022500  0.468
  H  H433  1  0.531100  0.460300  0.044200  0.468
  H  H434  1  0.468900  0.539700  0.955800  0.468
  H  H435  1  0.561700  0.407700  0.070700  0.468
  H  H436  1  0.438300  0.592300  0.929300  0.468
  H  H437  1  0.506900  0.363900  0.048800  0.468
  H  H438  1  0.493100  0.636100  0.951200  0.468
  H  H439  1  0.764700  0.414200  0.088000  0.468
  H  H440  1  0.235300  0.585800  0.912000  0.468
  H  H441  1  0.927300  0.593400  0.026300  0.468
  H  H442  1  0.072700  0.406600  0.973700  0.468
  H  H443  1  0.943700  0.715000  0.999000  0.468
  H  H444  1  0.056300  0.285000  0.001000  0.468
  H  H445  1  0.865100  0.858100  0.013000  0.468
  H  H446  1  0.134900  0.141900  0.987000  0.468
  H  H447  1  0.917400  0.947600  0.035800  0.468
  H  H448  1  0.082600  0.052400  0.964200  0.468
  H  H449  1  0.005500  0.054100  0.020800  0.468
  H  H450  1  0.994500  0.945900  0.979200  0.468
  H  H451  1  0.932900  0.199500  0.015500  0.468
  H  H452  1  0.067100  0.800500  0.984500  0.468
  H  H453  1  0.677600  0.459900  0.013800  0.468
  H  H454  1  0.322400  0.540100  0.986200  0.468
  H  H455  1  0.588100  0.011800  0.129100  0.468
  H  H456  1  0.411900  0.988200  0.870900  0.468
  H  H457  1  0.436600  0.063500  0.147400  0.468
  H  H458  1  0.563400  0.936500  0.852600  0.468
  H  H459  1  0.312700  0.037700  0.123400  0.468
  H  H460  1  0.687300  0.962300  0.876600  0.468
  H  H461  1  0.319100  0.985600  0.084300  0.468
  H  H462  1  0.680900  0.014400  0.915700  0.468
  H  H463  1  0.458800  0.944800  0.063200  0.468
  H  H464  1  0.541200  0.055200  0.936800  0.468
  H  H465  1  0.597900  0.052900  0.005300  0.532
  H  H466  1  0.402100  0.947100  0.994700  0.532
  H  H467  1  0.598900  0.155500  0.000700  0.532
  H  H468  1  0.401100  0.844500  0.999300  0.532
  H  H469  1  0.528600  0.107200  0.985000  0.532
  H  H470  1  0.471400  0.892800  0.015000  0.532
  H  H471  1  0.372800  0.083800  0.011700  0.532
  H  H472  1  0.627200  0.916200  0.988300  0.532
  H  H473  1  0.272800  0.133600  0.078000  0.532
  H  H474  1  0.727200  0.866400  0.922000  0.532
  H  H475  1  0.238100  0.105800  0.050100  0.532
  H  H476  1  0.761900  0.894200  0.949900  0.532
  H  H477  1  0.231900  0.207600  0.057200  0.532
  H  H478  1  0.768100  0.792400  0.942800  0.532
  H  H479  1  0.662700  0.469500  0.252500  0.532
  H  H480  1  0.337300  0.530500  0.747500  0.532
  H  H481  1  0.735700  0.486200  0.274100  0.532
  H  H482  1  0.264300  0.513800  0.725900  0.532
  H  H483  1  0.687000  0.400900  0.276200  0.532
  H  H484  1  0.313000  0.599100  0.723800  0.532
  H  H485  1  0.046800  0.270800  0.221700  0.532
  H  H486  1  0.953200  0.729200  0.778300  0.532
  H  H487  1  0.051400  0.368000  0.231900  0.532
  H  H488  1  0.948600  0.632000  0.768100  0.532
  H  H489  1  0.028700  0.352300  0.201700  0.532
  H  H490  1  0.971300  0.647700  0.798300  0.532
  H  H491  1  0.294800  0.273400  0.091600  0.532
  H  H492  1  0.705200  0.726600  0.908400  0.532
  H  H493  1  0.317000  0.351200  0.130100  0.532
  H  H494  1  0.683000  0.648800  0.869900  0.532
  H  H495  1  0.469900  0.336800  0.147000  0.532
  H  H496  1  0.530100  0.663200  0.853000  0.532
  H  H497  1  0.508300  0.264500  0.178100  0.532
  H  H498  1  0.491700  0.735500  0.821900  0.532
  H  H499  1  0.491800  0.305200  0.222900  0.532
  H  H500  1  0.508200  0.694800  0.777100  0.532
  H  H501  1  0.610400  0.327200  0.247100  0.532
  H  H502  1  0.389600  0.672800  0.752900  0.532
  H  H503  1  0.909000  0.430500  0.259900  0.532
  H  H504  1  0.091000  0.569500  0.740100  0.532
  H  H505  1  0.865200  0.080500  0.099000  0.532
  H  H506  1  0.134800  0.919500  0.901000  0.532
  H  H507  1  0.006300  0.057300  0.080000  0.532
  H  H508  1  0.993700  0.942700  0.920000  0.532
  H  H509  1  0.085500  0.163600  0.071600  0.532
  H  H510  1  0.914500  0.836400  0.928400  0.532
  H  H511  1  0.015500  0.317200  0.081200  0.532
  H  H512  1  0.984500  0.682800  0.918800  0.532
  H  H513  1  0.870800  0.340100  0.101400  0.532
  H  H514  1  0.129200  0.659900  0.898600  0.532
  H  H515  1  0.715100  0.453900  0.166900  0.532
  H  H516  1  0.284900  0.546100  0.833100  0.532
  H  H517  1  0.718300  0.550500  0.155500  0.532
  H  H518  1  0.281700  0.449500  0.844500  0.532
  H  H519  1  0.750800  0.525700  0.185000  0.532
  H  H520  1  0.249200  0.474300  0.815000  0.532
  H  H521  1  0.121800  0.455700  0.137800  0.532
  H  H522  1  0.878200  0.544300  0.862200  0.532
  H  H523  1  0.069400  0.547300  0.126700  0.532
  H  H524  1  0.930600  0.452700  0.873300  0.532
  H  H525  1  0.077100  0.460300  0.109200  0.532
  H  H526  1  0.922900  0.539700  0.890800  0.532
  H  H527  1  0.253000  0.545300  0.170100  0.532
  H  H528  1  0.747000  0.454700  0.829900  0.532
  H  H529  1  0.262500  0.646300  0.174200  0.532
  H  H530  1  0.737500  0.353700  0.825800  0.532
  H  H531  1  0.238900  0.612400  0.145800  0.532
  H  H532  1  0.761100  0.387600  0.854200  0.532
  H  H533  1  0.921700  0.553100  0.212600  0.532
  H  H534  1  0.078300  0.446900  0.787400  0.532
  H  H535  1  0.858500  0.630600  0.197200  0.532
  H  H536  1  0.141500  0.369400  0.802800  0.532
  H  H537  1  0.910900  0.652000  0.223100  0.532
  H  H538  1  0.089100  0.348000  0.776900  0.532
  H  H539  1  0.893800  0.578000  0.137500  0.532
  H  H540  1  0.106200  0.422000  0.862500  0.532
  H  H541  1  0.155900  0.334200  0.145500  0.532
  H  H542  1  0.844100  0.665800  0.854500  0.532
  H  H543  1  0.234300  0.195500  0.148100  0.532
  H  H544  1  0.765700  0.804500  0.851900  0.532
  H  H545  1  0.157500  0.082100  0.157400  0.532
  H  H546  1  0.842500  0.917900  0.842600  0.532
  H  H547  1  0.120200  0.992000  0.122800  0.532
  H  H548  1  0.879800  0.008000  0.877200  0.532
  H  H549  1  0.202900  0.866300  0.106900  0.532
  H  H550  1  0.797100  0.133700  0.893100  0.532
  H  H551  1  0.204000  0.735600  0.128200  0.532
  H  H552  1  0.796000  0.264400  0.871800  0.532
  H  H553  1  0.103100  0.525100  0.195500  0.532
  H  H554  1  0.896900  0.474900  0.804500  0.532
  H  H555  1  0.697400  0.994600  0.162400  0.532
  H  H556  1  0.302600  0.005400  0.837600  0.532
  H  H557  1  0.560500  0.971100  0.187600  0.532
  H  H558  1  0.439500  0.028900  0.812400  0.532
  H  H559  1  0.534500  0.043000  0.227400  0.532
  H  H560  1  0.465500  0.957000  0.772600  0.532
  H  H561  1  0.642100  0.112800  0.246000  0.532
  H  H562  1  0.357900  0.887200  0.754000  0.532
  H  H563  1  0.777300  0.122000  0.225400  0.532
  H  H564  1  0.222700  0.878000  0.774600  0.532
  H  H565  1  0.107400  0.828400  0.216300  0.532
  H  H566  1  0.892600  0.171600  0.783700  0.532
  H  H567  1  0.123500  0.891400  0.240100  0.532
  H  H568  1  0.876500  0.108600  0.759900  0.532
  H  H569  1  0.091500  0.932700  0.212100  0.532
  H  H570  1  0.908500  0.067300  0.787900  0.532
  H  H571  1  0.726000  0.951600  0.265600  0.532
  H  H572  1  0.274000  0.048400  0.734400  0.532
  H  H573  1  0.795000  0.989200  0.284800  0.532
  H  H574  1  0.205000  0.010800  0.715200  0.532
  H  H575  1  0.780900  0.888700  0.287200  0.532
  H  H576  1  0.219100  0.111300  0.712800  0.532
  H  H577  1  0.317400  0.694200  0.069200  0.532
  H  H578  1  0.682600  0.305800  0.930800  0.532
  H  H579  1  0.301400  0.698600  0.038100  0.532
  H  H580  1  0.698600  0.301400  0.961900  0.532
  H  H581  1  0.304200  0.787000  0.054200  0.532
  H  H582  1  0.695800  0.213000  0.945800  0.532
  H  H583  1  0.683300  0.716100  0.006100  0.532
  H  H584  1  0.316700  0.283900  0.993900  0.532
  H  H585  1  0.630300  0.642200  0.994800  0.532
  H  H586  1  0.369700  0.357800  0.005200  0.532
  H  H587  1  0.695100  0.621100  0.019700  0.532
  H  H588  1  0.304900  0.378900  0.980300  0.532
  H  H589  1  0.968200  0.959600  0.269400  0.532
  H  H590  1  0.031800  0.040400  0.730600  0.532
  H  H591  1  0.699100  0.817700  0.257500  0.532
  H  H592  1  0.300900  0.182300  0.742500  0.532
  H  H593  1  0.568300  0.774400  0.234900  0.532
  H  H594  1  0.431700  0.225600  0.765100  0.532
  H  H595  1  0.587700  0.744000  0.187700  0.532
  H  H596  1  0.412300  0.256000  0.812300  0.532
  H  H597  1  0.507200  0.822800  0.161500  0.532
  H  H598  1  0.492800  0.177200  0.838500  0.532
  H  H599  1  0.360500  0.807800  0.142500  0.532
  H  H600  1  0.639500  0.192200  0.857500  0.532
  H  H601  1  0.351800  0.768300  0.100000  0.532
  H  H602  1  0.648200  0.231700  0.900000  0.532
  H  H603  1  0.452300  0.676900  0.008900  0.532
  H  H604  1  0.547700  0.323100  0.991100  0.532
  H  H605  1  0.891800  0.911600  0.099000  0.532
  H  H606  1  0.108200  0.088400  0.901000  0.532
  H  H607  1  0.015400  0.913600  0.071900  0.532
  H  H608  1  0.984600  0.086400  0.928100  0.532
  H  H609  1  0.097400  0.775900  0.056900  0.532
  H  H610  1  0.902600  0.224100  0.943100  0.532
  H  H611  1  0.051300  0.648000  0.068400  0.532
  H  H612  1  0.948700  0.352000  0.931600  0.532
  H  H613  1  0.922900  0.651700  0.096500  0.532
  H  H614  1  0.077100  0.348300  0.903500  0.532
  H  H615  1  0.697600  0.561700  0.109800  0.532
  H  H616  1  0.302400  0.438300  0.890200  0.532
  H  H617  1  0.726100  0.460000  0.102400  0.532
  H  H618  1  0.273900  0.540000  0.897600  0.532
  H  H619  1  0.641800  0.518600  0.088000  0.532
  H  H620  1  0.358200  0.481400  0.912000  0.532
  H  H621  1  0.004400  0.555500  0.031600  0.532
  H  H622  1  0.995600  0.444500  0.968400  0.532
  H  H623  1  0.942700  0.528800  0.008300  0.532
  H  H624  1  0.057300  0.471200  0.991700  0.532
  H  H625  1  0.987000  0.456100  0.029100  0.532
  H  H626  1  0.013000  0.543900  0.970900  0.532
  H  H627  1  0.849400  0.371300  0.005200  0.532
  H  H628  1  0.150600  0.628700  0.994800  0.532
  H  H629  1  0.778600  0.448000  0.992000  0.532
  H  H630  1  0.221400  0.552000  0.008000  0.532
  H  H631  1  0.782200  0.348300  0.982900  0.532
  H  H632  1  0.217800  0.651700  0.017100  0.532
  H  H633  1  0.507300  0.377700  0.075000  0.532
  H  H634  1  0.492700  0.622300  0.925000  0.532
  H  H635  1  0.460200  0.421600  0.048900  0.532
  H  H636  1  0.539800  0.578400  0.951100  0.532
  H  H637  1  0.514700  0.477400  0.067600  0.532
  H  H638  1  0.485300  0.522600  0.932400  0.532
  H  H639  1  0.857600  0.427700  0.064400  0.532
  H  H640  1  0.142400  0.572300  0.935600  0.532
  H  H641  1  0.906300  0.658500  0.000500  0.532
  H  H642  1  0.093700  0.341500  0.999500  0.532
  H  H643  1  0.902900  0.791400  0.981100  0.532
  H  H644  1  0.097100  0.208600  0.018900  0.532
  H  H645  1  0.829300  0.915800  0.003500  0.532
  H  H646  1  0.170700  0.084200  0.996500  0.532
  H  H647  1  0.906200  0.997700  0.028700  0.532
  H  H648  1  0.093800  0.002300  0.971300  0.532
  H  H649  1  0.975800  0.105400  0.013900  0.532
  H  H650  1  0.024200  0.894600  0.986100  0.532
  H  H651  1  0.897000  0.254000  0.014400  0.532
  H  H652  1  0.103000  0.746000  0.985600  0.532
  H  H653  1  0.620400  0.491400  0.022000  0.532
  H  H654  1  0.379600  0.508600  0.978000  0.532
  H  H655  1  0.598200  0.057700  0.121500  0.532
  H  H656  1  0.401800  0.942300  0.878500  0.532
  H  H657  1  0.477500  0.072500  0.151900  0.532
  H  H658  1  0.522500  0.927500  0.848100  0.532
  H  H659  1  0.333200  0.033400  0.138000  0.532
  H  H660  1  0.666800  0.966600  0.862000  0.532
  H  H661  1  0.329300  0.951900  0.098900  0.532
  H  H662  1  0.670700  0.048100  0.901100  0.532
  H  H663  1  0.459200  0.927900  0.071100  0.532
  H  H664  1  0.540800  0.072100  0.928900  0.532
  H  H665  1  0.373800  0.854000  0.515300  0.638
  H  H666  1  0.626200  0.146000  0.484700  0.638
  H  H667  1  0.353600  0.938800  0.496600  0.638
  H  H668  1  0.646400  0.061200  0.503400  0.638
  H  H669  1  0.423100  0.937000  0.520500  0.638
  H  H670  1  0.576900  0.063000  0.479500  0.638
  H  H671  1  0.597100  0.900300  0.503900  0.638
  H  H672  1  0.402900  0.099700  0.496100  0.638
  H  H673  1  0.751100  0.774000  0.464200  0.638
  H  H674  1  0.248900  0.226000  0.535800  0.638
  H  H675  1  0.734600  0.878400  0.468200  0.638
  H  H676  1  0.265400  0.121600  0.531800  0.638
  H  H677  1  0.712100  0.837800  0.440600  0.638
  H  H678  1  0.287900  0.162200  0.559400  0.638
  H  H679  1  0.260800  0.557500  0.228700  0.638
  H  H680  1  0.739200  0.442500  0.771300  0.638
  H  H681  1  0.336800  0.583800  0.247800  0.638
  H  H682  1  0.663200  0.416200  0.752200  0.638
  H  H683  1  0.297800  0.648400  0.224300  0.638
  H  H684  1  0.702200  0.351600  0.775700  0.638
  H  H685  1  0.963300  0.668000  0.293700  0.638
  H  H686  1  0.036700  0.332000  0.706300  0.638
  H  H687  1  0.940900  0.734000  0.269300  0.638
  H  H688  1  0.059100  0.266000  0.730700  0.638
  H  H689  1  0.970300  0.769800  0.296900  0.638
  H  H690  1  0.029700  0.230200  0.703100  0.638
  H  H691  1  0.689300  0.700000  0.426600  0.638
  H  H692  1  0.310700  0.300000  0.573400  0.638
  H  H693  1  0.672100  0.624900  0.387800  0.638
  H  H694  1  0.327900  0.375100  0.612200  0.638
  H  H695  1  0.532800  0.648200  0.366700  0.638
  H  H696  1  0.467200  0.351800  0.633300  0.638
  H  H697  1  0.497000  0.740300  0.332800  0.638
  H  H698  1  0.503000  0.259700  0.667200  0.638
  H  H699  1  0.521700  0.710100  0.287600  0.638
  H  H700  1  0.478300  0.289900  0.712400  0.638
  H  H701  1  0.396700  0.692000  0.260600  0.638
  H  H702  1  0.603300  0.308000  0.739400  0.638
  H  H703  1  0.088900  0.631100  0.239900  0.638
  H  H704  1  0.911100  0.368900  0.760100  0.638
  H  H705  1  0.119100  0.955500  0.388100  0.638
  H  H706  1  0.880900  0.044500  0.611900  0.638
  H  H707  1  0.973600  0.999000  0.403700  0.638
  H  H708  1  0.026400  0.001000  0.596300  0.638
  H  H709  1  0.888700  0.897500  0.423000  0.638
  H  H710  1  0.111300  0.102500  0.577000  0.638
  H  H711  1  0.954600  0.751500  0.427300  0.638
  H  H712  1  0.045400  0.248500  0.572700  0.638
  H  H713  1  0.104100  0.706100  0.411300  0.638
  H  H714  1  0.895900  0.293900  0.588700  0.638
  H  H715  1  0.216300  0.549200  0.327500  0.638
  H  H716  1  0.783700  0.450800  0.672500  0.638
  H  H717  1  0.199400  0.475700  0.348500  0.638
  H  H718  1  0.800600  0.524300  0.651500  0.638
  H  H719  1  0.251000  0.554300  0.357000  0.638
  H  H720  1  0.749000  0.445700  0.643000  0.638
  H  H721  1  0.861200  0.693300  0.392300  0.638
  H  H722  1  0.138800  0.306700  0.607700  0.638
  H  H723  1  0.880400  0.589200  0.396900  0.638
  H  H724  1  0.119600  0.410800  0.603100  0.638
  H  H725  1  0.829700  0.629000  0.370900  0.638
  H  H726  1  0.170300  0.371000  0.629100  0.638
  H  H727  1  0.867700  0.457800  0.313100  0.638
  H  H728  1  0.132300  0.542200  0.686900  0.638
  H  H729  1  0.911200  0.545400  0.309000  0.638
  H  H730  1  0.088800  0.454600  0.691000  0.638
  H  H731  1  0.917900  0.496600  0.337000  0.638
  H  H732  1  0.082100  0.503400  0.663000  0.638
  H  H733  1  0.285700  0.357800  0.288100  0.638
  H  H734  1  0.714300  0.642200  0.711900  0.638
  H  H735  1  0.241400  0.439800  0.270500  0.638
  H  H736  1  0.758600  0.560200  0.729500  0.638
  H  H737  1  0.233600  0.341900  0.261600  0.638
  H  H738  1  0.766400  0.658100  0.738400  0.638
  H  H739  1  0.054800  0.506400  0.380000  0.638
  H  H740  1  0.945200  0.493600  0.620000  0.638
  H  H741  1  0.820600  0.768800  0.356500  0.638
  H  H742  1  0.179400  0.231200  0.643500  0.638
  H  H743  1  0.766600  0.916600  0.342700  0.638
  H  H744  1  0.233400  0.083400  0.657300  0.638
  H  H745  1  0.870000  0.009500  0.330200  0.638
  H  H746  1  0.130000  0.990500  0.669800  0.638
  H  H747  1  0.903100  0.098700  0.360700  0.638
  H  H748  1  0.096900  0.901300  0.639300  0.638
  H  H749  1  0.828700  0.239900  0.368200  0.638
  H  H750  1  0.171300  0.760100  0.631800  0.638
  H  H751  1  0.878800  0.363100  0.344900  0.638
  H  H752  1  0.121200  0.636900  0.655100  0.638
  H  H753  1  0.067300  0.515800  0.285200  0.638
  H  H754  1  0.932700  0.484200  0.714800  0.638
  H  H755  1  0.348600  0.003200  0.339200  0.638
  H  H756  1  0.651400  0.996800  0.660800  0.638
  H  H757  1  0.497500  0.985200  0.321500  0.638
  H  H758  1  0.502500  0.014800  0.678500  0.638
  H  H759  1  0.527800  0.932100  0.279700  0.638
  H  H760  1  0.472200  0.067900  0.720300  0.638
  H  H761  1  0.411400  0.901000  0.253500  0.638
  H  H762  1  0.588600  0.099000  0.746500  0.638
  H  H763  1  0.265200  0.916800  0.270500  0.638
  H  H764  1  0.734800  0.083200  0.729500  0.638
  H  H765  1  0.954600  0.117000  0.283800  0.638
  H  H766  1  0.045400  0.883000  0.716200  0.638
  H  H767  1  0.920400  0.155100  0.255600  0.638
  H  H768  1  0.079600  0.844900  0.744400  0.638
  H  H769  1  0.950000  0.219300  0.277400  0.638
  H  H770  1  0.050000  0.780700  0.722600  0.638
  H  H771  1  0.261100  0.132400  0.204600  0.638
  H  H772  1  0.738900  0.867600  0.795400  0.638
  H  H773  1  0.219400  0.043500  0.201800  0.638
  H  H774  1  0.780600  0.956500  0.798200  0.638
  H  H775  1  0.304200  0.046500  0.220800  0.638
  H  H776  1  0.695800  0.953500  0.779200  0.638
  H  H777  1  0.716900  0.386800  0.436500  0.638
  H  H778  1  0.283100  0.613200  0.563500  0.638
  H  H779  1  0.687100  0.352100  0.408800  0.638
  H  H780  1  0.312900  0.647900  0.591200  0.638
  H  H781  1  0.744700  0.285200  0.429000  0.638
  H  H782  1  0.255300  0.714800  0.571000  0.638
  H  H783  1  0.360400  0.386500  0.476100  0.638
  H  H784  1  0.639600  0.613500  0.523900  0.638
  H  H785  1  0.431400  0.357600  0.499200  0.638
  H  H786  1  0.568600  0.642400  0.500800  0.638
  H  H787  1  0.380200  0.286100  0.485700  0.638
  H  H788  1  0.619800  0.713900  0.514300  0.638
  H  H789  1  0.053700  0.091400  0.221900  0.638
  H  H790  1  0.946300  0.908600  0.778100  0.638
  H  H791  1  0.372900  0.160700  0.236600  0.638
  H  H792  1  0.627100  0.839300  0.763400  0.638
  H  H793  1  0.498500  0.188800  0.261400  0.638
  H  H794  1  0.501500  0.811200  0.738600  0.638
  H  H795  1  0.481600  0.219100  0.306100  0.638
  H  H796  1  0.518400  0.780900  0.693900  0.638
  H  H797  1  0.539900  0.153800  0.337300  0.638
  H  H798  1  0.460100  0.846200  0.662700  0.638
  H  H799  1  0.684700  0.149700  0.356700  0.638
  H  H800  1  0.315300  0.850300  0.643300  0.638
  H  H801  1  0.691200  0.214200  0.397800  0.638
  H  H802  1  0.308800  0.785800  0.602200  0.638
  H  H803  1  0.589000  0.385900  0.474600  0.638
  H  H804  1  0.411000  0.614100  0.525400  0.638
  H  H805  1  0.133300  0.111100  0.394100  0.638
  H  H806  1  0.866700  0.888900  0.605900  0.638
  H  H807  1  0.000400  0.141100  0.422000  0.638
  H  H808  1  0.999600  0.858900  0.578000  0.638
  H  H809  1  0.936600  0.288200  0.430200  0.638
  H  H810  1  0.063400  0.711800  0.569800  0.638
  H  H811  1  0.997000  0.402200  0.408000  0.638
  H  H812  1  0.003000  0.597800  0.592000  0.638
  H  H813  1  0.113600  0.366800  0.378000  0.638
  H  H814  1  0.886400  0.633200  0.622000  0.638
  H  H815  1  0.449000  0.457300  0.407200  0.638
  H  H816  1  0.551000  0.542700  0.592800  0.638
  H  H817  1  0.386600  0.507500  0.384500  0.638
  H  H818  1  0.613400  0.492500  0.615500  0.638
  H  H819  1  0.409500  0.402400  0.384600  0.638
  H  H820  1  0.590500  0.597600  0.615400  0.638
  H  H821  1  0.052200  0.485300  0.447200  0.638
  H  H822  1  0.947800  0.514700  0.552800  0.638
  H  H823  1  0.080000  0.580600  0.443300  0.638
  H  H824  1  0.920000  0.419400  0.556700  0.638
  H  H825  1  0.107600  0.525600  0.469600  0.638
  H  H826  1  0.892400  0.474400  0.530400  0.638
  H  H827  1  0.148900  0.627900  0.524200  0.638
  H  H828  1  0.851100  0.372100  0.475800  0.638
  H  H829  1  0.078200  0.669800  0.502300  0.638
  H  H830  1  0.921800  0.330200  0.497700  0.638
  H  H831  1  0.129000  0.732200  0.520000  0.638
  H  H832  1  0.871000  0.267800  0.480000  0.638
  H  H833  1  0.427200  0.522800  0.454800  0.638
  H  H834  1  0.572800  0.477200  0.545200  0.638
  H  H835  1  0.479400  0.590900  0.469700  0.638
  H  H836  1  0.520600  0.409100  0.530300  0.638
  H  H837  1  0.444200  0.611200  0.440300  0.638
  H  H838  1  0.555800  0.388800  0.559700  0.638
  H  H839  1  0.239800  0.581100  0.417400  0.638
  H  H840  1  0.760200  0.418900  0.582600  0.638
  H  H841  1  0.111300  0.401500  0.478300  0.638
  H  H842  1  0.888700  0.598500  0.521700  0.638
  H  H843  1  0.088700  0.281500  0.502900  0.638
  H  H844  1  0.911300  0.718500  0.497100  0.638
  H  H845  1  0.151400  0.139400  0.488100  0.638
  H  H846  1  0.848600  0.860600  0.511900  0.638
  H  H847  1  0.078500  0.053400  0.460300  0.638
  H  H848  1  0.921500  0.946600  0.539700  0.638
  H  H849  1  0.986400  0.962200  0.477500  0.638
  H  H850  1  0.013600  0.037800  0.522500  0.638
  H  H851  1  0.044700  0.809400  0.485600  0.638
  H  H852  1  0.955300  0.190600  0.514400  0.638
  H  H853  1  0.289300  0.543300  0.493200  0.638
  H  H854  1  0.710700  0.456700  0.506800  0.638
  H  H855  1  0.423900  0.929000  0.381800  0.638
  H  H856  1  0.576100  0.071000  0.618200  0.638
  H  H857  1  0.564900  0.874700  0.361800  0.638
  H  H858  1  0.435100  0.125300  0.638200  0.638
  H  H859  1  0.700500  0.899600  0.381800  0.638
  H  H860  1  0.299500  0.100400  0.618200  0.638
  H  H861  1  0.693600  0.000600  0.416200  0.638
  H  H862  1  0.306400  0.999400  0.583800  0.638
  H  H863  1  0.547800  0.052100  0.437300  0.638
  H  H864  1  0.452200  0.947900  0.562700  0.638
  C  C865  1  0.959700  0.751800  0.351100  0.362
  C  C866  1  0.040300  0.248200  0.648900  0.362
  C  C867  1  0.868800  0.775200  0.349800  0.362
  C  C868  1  0.131200  0.224800  0.650200  0.362
  C  C869  1  0.837100  0.857200  0.343500  0.362
  C  C870  1  0.162900  0.142800  0.656500  0.362
  C  C871  1  0.898300  0.916400  0.339300  0.362
  C  C872  1  0.101700  0.083600  0.660700  0.362
  C  C873  1  0.989100  0.885600  0.339300  0.362
  C  C874  1  0.010900  0.114400  0.660700  0.362
  C  C875  1  0.318000  0.455000  0.407300  0.362
  C  C876  1  0.682000  0.545000  0.592700  0.362
  C  C877  1  0.394000  0.451000  0.387900  0.362
  C  C878  1  0.606000  0.549000  0.612100  0.362
  C  C879  1  0.246900  0.520100  0.414000  0.362
  C  C880  1  0.753100  0.479900  0.586000  0.362
  C  C881  1  0.191000  0.487500  0.432300  0.362
  C  C882  1  0.809000  0.512500  0.567700  0.362
  C  C883  1  0.105000  0.535000  0.445500  0.362
  C  C884  1  0.895000  0.465000  0.554500  0.362
  C  C885  1  0.282000  0.099000  0.447700  0.362
  C  C886  1  0.718000  0.901000  0.552300  0.362
  C  C887  1  0.391000  0.018000  0.426300  0.362
  C  C888  1  0.609000  0.982000  0.573700  0.362
  C  C889  1  0.260000  0.016200  0.445700  0.362
  C  C890  1  0.740000  0.983800  0.554300  0.362
  C  C891  1  0.204000  0.661000  0.495400  0.362
  C  C892  1  0.796000  0.339000  0.504600  0.362
  C  C893  1  0.119000  0.662000  0.511500  0.362
  C  C894  1  0.881000  0.338000  0.488500  0.362
  C  C895  1  0.276000  0.594000  0.491400  0.362
  C  C896  1  0.724000  0.406000  0.508600  0.362
  C  C897  1  0.335000  0.619900  0.472500  0.362
  C  C898  1  0.665000  0.380100  0.527500  0.362
  C  C899  1  0.422000  0.570000  0.461100  0.362
  C  C900  1  0.578000  0.430000  0.538900  0.362
  C  C901  1  0.420000  0.885000  0.505800  0.362
  C  C902  1  0.580000  0.115000  0.494200  0.362
  C  C903  1  0.724000  0.814000  0.455000  0.362
  C  C904  1  0.276000  0.186000  0.545000  0.362
  C  C905  1  0.297000  0.573000  0.241300  0.362
  C  C906  1  0.703000  0.427000  0.758700  0.362
  C  C907  1  0.984000  0.689000  0.283600  0.362
  C  C908  1  0.016000  0.311000  0.716400  0.362
  C  C909  1  0.493000  0.862000  0.486500  0.362
  C  C910  1  0.507000  0.138000  0.513500  0.362
  C  C911  1  0.591900  0.871000  0.484800  0.362
  C  C912  1  0.408100  0.129000  0.515200  0.362
  C  C913  1  0.628000  0.836000  0.464200  0.362
  C  C914  1  0.372000  0.164000  0.535800  0.362
  C  C915  1  0.551000  0.741000  0.432800  0.362
  C  C916  1  0.449000  0.259000  0.567200  0.362
  C  C917  1  0.625000  0.683200  0.422800  0.362
  C  C918  1  0.375000  0.316800  0.577200  0.362
  C  C919  1  0.612000  0.639000  0.399000  0.362
  C  C920  1  0.388000  0.361000  0.601000  0.362
  C  C921  1  0.527000  0.652600  0.384800  0.362
  C  C922  1  0.473000  0.347400  0.615200  0.362
  C  C923  1  0.461000  0.718000  0.398200  0.362
  C  C924  1  0.539000  0.282000  0.601800  0.362
  C  C925  1  0.368000  0.731700  0.386500  0.362
  C  C926  1  0.632000  0.268300  0.613500  0.362
  C  C927  1  0.223000  0.778400  0.391000  0.362
  C  C928  1  0.777000  0.221600  0.609000  0.362
  C  C929  1  0.331000  0.730400  0.362800  0.362
  C  C930  1  0.669000  0.269600  0.637200  0.362
  C  C931  1  0.362000  0.708300  0.335800  0.362
  C  C932  1  0.638000  0.291700  0.664200  0.362
  C  C933  1  0.451000  0.697900  0.324800  0.362
  C  C934  1  0.549000  0.302100  0.675200  0.362
  C  C935  1  0.467000  0.677300  0.298000  0.362
  C  C936  1  0.533000  0.322700  0.702000  0.362
  C  C937  1  0.394500  0.666500  0.282900  0.362
  C  C938  1  0.605500  0.333500  0.717100  0.362
  C  C939  1  0.305000  0.676400  0.293100  0.362
  C  C940  1  0.695000  0.323600  0.706900  0.362
  C  C941  1  0.222000  0.622300  0.257600  0.362
  C  C942  1  0.778000  0.377700  0.742400  0.362
  C  C943  1  0.126800  0.619700  0.257500  0.362
  C  C944  1  0.873200  0.380300  0.742500  0.362
  C  C945  1  0.086000  0.671500  0.277100  0.362
  C  C946  1  0.914000  0.328500  0.722900  0.362
  C  C947  1  0.132000  0.810000  0.401600  0.362
  C  C948  1  0.868000  0.190000  0.598400  0.362
  C  C949  1  0.092000  0.893000  0.400800  0.362
  C  C950  1  0.908000  0.107000  0.599200  0.362
  C  C951  1  0.988000  0.913800  0.411200  0.362
  C  C952  1  0.012000  0.086200  0.588800  0.362
  C  C953  1  0.953000  0.843200  0.421600  0.362
  C  C954  1  0.047000  0.156800  0.578400  0.362
  C  C955  1  0.006000  0.764800  0.424200  0.362
  C  C956  1  0.994000  0.235200  0.575800  0.362
  C  C957  1  0.091000  0.750000  0.415300  0.362
  C  C958  1  0.909000  0.250000  0.584700  0.362
  C  C959  1  0.220000  0.513000  0.351700  0.362
  C  C960  1  0.780000  0.487000  0.648300  0.362
  C  C961  1  0.884000  0.597000  0.382000  0.362
  C  C962  1  0.116000  0.403000  0.618000  0.362
  C  C963  1  0.904000  0.455000  0.324200  0.362
  C  C964  1  0.096000  0.545000  0.675800  0.362
  C  C965  1  0.215000  0.364000  0.279600  0.362
  C  C966  1  0.785000  0.636000  0.720400  0.362
  C  C967  1  0.112000  0.558800  0.356600  0.362
  C  C968  1  0.888000  0.441200  0.643400  0.362
  C  C969  1  0.035700  0.528800  0.366400  0.362
  C  C970  1  0.964300  0.471200  0.633600  0.362
  C  C971  1  0.981000  0.598600  0.369700  0.362
  C  C972  1  0.019000  0.401400  0.630300  0.362
  C  C973  1  0.058000  0.939100  0.333333  0.362
  C  C974  1  0.942000  0.060900  0.666667  0.362
  C  C975  1  0.192000  0.955700  0.318900  0.362
  C  C976  1  0.808000  0.044300  0.681100  0.362
  C  C977  1  0.064000  0.024000  0.332600  0.362
  C  C978  1  0.936000  0.976000  0.667400  0.362
  C  C979  1  0.007000  0.106400  0.340400  0.362
  C  C980  1  0.993000  0.893600  0.659600  0.362
  C  C981  1  0.927900  0.109000  0.358700  0.362
  C  C982  1  0.072100  0.891000  0.641300  0.362
  C  C983  1  0.883500  0.195500  0.362700  0.362
  C  C984  1  0.116500  0.804500  0.637300  0.362
  C  C985  1  0.910200  0.270700  0.350500  0.362
  C  C986  1  0.089800  0.729300  0.649500  0.362
  C  C987  1  0.990000  0.260800  0.334200  0.362
  C  C988  1  0.010000  0.739200  0.665800  0.362
  C  C989  1  0.998000  0.410000  0.315000  0.362
  C  C990  1  0.002000  0.590000  0.685000  0.362
  C  C991  1  0.077000  0.435400  0.301100  0.362
  C  C992  1  0.923000  0.564600  0.698900  0.362
  C  C993  1  0.136000  0.366000  0.294200  0.362
  C  C994  1  0.864000  0.634000  0.705800  0.362
  C  C995  1  0.290500  0.936400  0.309000  0.362
  C  C996  1  0.709500  0.063600  0.691000  0.362
  C  C997  1  0.356100  0.957500  0.326800  0.362
  C  C998  1  0.643900  0.042500  0.673200  0.362
  C  C999  1  0.447500  0.947700  0.319100  0.362
  C  C1000  1  0.552500  0.052300  0.680900  0.362
  C  C1001  1  0.474100  0.915500  0.294000  0.362
  C  C1002  1  0.525900  0.084500  0.706000  0.362
  C  C1003  1  0.412100  0.891100  0.276800  0.362
  C  C1004  1  0.587900  0.108900  0.723200  0.362
  C  C1005  1  0.313000  0.903300  0.284300  0.362
  C  C1006  1  0.687000  0.096700  0.715700  0.362
  C  C1007  1  0.958000  0.126000  0.275700  0.362
  C  C1008  1  0.042000  0.874000  0.724300  0.362
  C  C1009  1  0.258000  0.046000  0.216300  0.362
  C  C1010  1  0.742000  0.954000  0.783700  0.362
  C  C1011  1  0.694000  0.327000  0.438400  0.362
  C  C1012  1  0.306000  0.673000  0.561600  0.362
  C  C1013  1  0.388000  0.330000  0.486800  0.362
  C  C1014  1  0.612000  0.670000  0.513200  0.362
  C  C1015  1  0.048000  0.118200  0.264200  0.362
  C  C1016  1  0.952000  0.881800  0.735800  0.362
  C  C1017  1  0.091000  0.080300  0.239300  0.362
  C  C1018  1  0.909000  0.919700  0.760700  0.362
  C  C1019  1  0.167000  0.085000  0.236300  0.362
  C  C1020  1  0.833000  0.915000  0.763700  0.362
  C  C1021  1  0.287000  0.133200  0.271200  0.362
  C  C1022  1  0.713000  0.866800  0.728800  0.362
  C  C1023  1  0.361000  0.141000  0.256100  0.362
  C  C1024  1  0.639000  0.859000  0.743900  0.362
  C  C1025  1  0.433000  0.159600  0.268900  0.362
  C  C1026  1  0.567000  0.840400  0.731100  0.362
  C  C1027  1  0.428000  0.176700  0.296200  0.362
  C  C1028  1  0.572000  0.823300  0.703800  0.362
  C  C1029  1  0.346000  0.167500  0.309300  0.362
  C  C1030  1  0.654000  0.832500  0.690700  0.362
  C  C1031  1  0.327900  0.178000  0.338700  0.362
  C  C1032  1  0.672100  0.822000  0.661300  0.362
  C  C1033  1  0.227100  0.204000  0.369900  0.362
  C  C1034  1  0.772900  0.796000  0.630100  0.362
  C  C1035  1  0.372700  0.189100  0.361700  0.362
  C  C1036  1  0.627300  0.810900  0.638300  0.362
  C  C1037  1  0.465000  0.188000  0.367700  0.362
  C  C1038  1  0.535000  0.812000  0.632300  0.362
  C  C1039  1  0.548000  0.144900  0.354400  0.362
  C  C1040  1  0.452000  0.855100  0.645600  0.362
  C  C1041  1  0.629000  0.146500  0.365500  0.362
  C  C1042  1  0.371000  0.853500  0.634500  0.362
  C  C1043  1  0.638000  0.183700  0.391000  0.362
  C  C1044  1  0.362000  0.816300  0.609000  0.362
  C  C1045  1  0.562000  0.221000  0.403300  0.362
  C  C1046  1  0.438000  0.779000  0.596700  0.362
  C  C1047  1  0.596000  0.312000  0.445200  0.362
  C  C1048  1  0.404000  0.688000  0.554800  0.362
  C  C1049  1  0.549000  0.339000  0.468100  0.362
  C  C1050  1  0.451000  0.661000  0.531900  0.362
  C  C1051  1  0.463000  0.317000  0.467100  0.362
  C  C1052  1  0.537000  0.683000  0.532900  0.362
  C  C1053  1  0.138000  0.223000  0.386500  0.362
  C  C1054  1  0.862000  0.777000  0.613500  0.362
  C  C1055  1  0.108000  0.151000  0.398000  0.362
  C  C1056  1  0.892000  0.849000  0.602000  0.362
  C  C1057  1  0.043500  0.156800  0.413000  0.362
  C  C1058  1  0.956500  0.843200  0.587000  0.362
  C  C1059  1  0.993000  0.236500  0.419900  0.362
  C  C1060  1  0.007000  0.763500  0.580100  0.362
  C  C1061  1  0.020000  0.313700  0.411700  0.362
  C  C1062  1  0.980000  0.686300  0.588300  0.362
  C  C1063  1  0.107000  0.304000  0.395600  0.362
  C  C1064  1  0.893000  0.696000  0.604400  0.362
  C  C1065  1  0.196000  0.320000  0.452800  0.362
  C  C1066  1  0.804000  0.680000  0.547200  0.362
  C  C1067  1  0.137000  0.332000  0.476200  0.362
  C  C1068  1  0.863000  0.668000  0.523800  0.362
  C  C1069  1  0.124000  0.250800  0.489000  0.362
  C  C1070  1  0.876000  0.749200  0.511000  0.362
  C  C1071  1  0.168000  0.170700  0.481000  0.362
  C  C1072  1  0.832000  0.829300  0.519000  0.362
  C  C1073  1  0.225000  0.168000  0.457900  0.362
  C  C1074  1  0.775000  0.832000  0.542100  0.362
  C  C1075  1  0.189000  0.964000  0.459700  0.362
  C  C1076  1  0.811000  0.036000  0.540300  0.362
  C  C1077  1  0.113000  0.986000  0.467200  0.362
  C  C1078  1  0.887000  0.014000  0.532800  0.362
  C  C1079  1  0.055000  0.917400  0.476600  0.362
  C  C1080  1  0.945000  0.082600  0.523400  0.362
  C  C1081  1  0.101000  0.840000  0.480800  0.362
  C  C1082  1  0.899000  0.160000  0.519200  0.362
  C  C1083  1  0.176000  0.813000  0.475600  0.362
  C  C1084  1  0.824000  0.187000  0.524400  0.362
  C  C1085  1  0.477000  0.995000  0.412100  0.362
  C  C1086  1  0.523000  0.005000  0.587900  0.362
  C  C1087  1  0.496100  0.932000  0.391700  0.362
  C  C1088  1  0.503900  0.068000  0.608300  0.362
  C  C1089  1  0.586700  0.907000  0.383700  0.362
  C  C1090  1  0.413300  0.093000  0.616300  0.362
  C  C1091  1  0.654700  0.951100  0.393300  0.362
  C  C1092  1  0.345300  0.048900  0.606700  0.362
  C  C1093  1  0.637000  0.006000  0.414600  0.362
  C  C1094  1  0.363000  0.994000  0.585400  0.362
  C  C1095  1  0.557000  0.032000  0.419900  0.362
  C  C1096  1  0.443000  0.968000  0.580100  0.362
  C  C1097  1  0.830000  0.351800  0.247500  0.468
  C  C1098  1  0.170000  0.648200  0.752500  0.468
  C  C1099  1  0.748300  0.385200  0.268000  0.468
  C  C1100  1  0.251700  0.614800  0.732000  0.468
  C  C1101  1  0.921900  0.340200  0.243200  0.468
  C  C1102  1  0.078100  0.659800  0.756800  0.468
  C  C1103  1  0.957800  0.301200  0.220700  0.468
  C  C1104  1  0.042200  0.698800  0.779300  0.468
  C  C1105  1  0.044400  0.294600  0.210900  0.468
  C  C1106  1  0.955600  0.705400  0.789100  0.468
  C  C1107  1  0.591500  0.097000  0.001100  0.468
  C  C1108  1  0.408500  0.903000  0.998900  0.468
  C  C1109  1  0.275300  0.178400  0.047300  0.468
  C  C1110  1  0.724700  0.821600  0.952700  0.468
  C  C1111  1  0.512600  0.129100  0.019400  0.468
  C  C1112  1  0.487400  0.870900  0.980600  0.468
  C  C1113  1  0.418600  0.131200  0.017300  0.468
  C  C1114  1  0.581400  0.868800  0.982700  0.468
  C  C1115  1  0.375800  0.164500  0.039100  0.468
  C  C1116  1  0.624200  0.835500  0.960900  0.468
  C  C1117  1  0.441700  0.210400  0.081100  0.468
  C  C1118  1  0.558300  0.789600  0.918900  0.468
  C  C1119  1  0.366600  0.260900  0.091200  0.468
  C  C1120  1  0.633400  0.739100  0.908800  0.468
  C  C1121  1  0.373000  0.293500  0.117300  0.468
  C  C1122  1  0.627000  0.706500  0.882700  0.468
  C  C1123  1  0.454300  0.283300  0.129000  0.468
  C  C1124  1  0.545700  0.716700  0.871000  0.468
  C  C1125  1  0.536400  0.236400  0.116000  0.468
  C  C1126  1  0.463600  0.763600  0.884000  0.468
  C  C1127  1  0.629700  0.221700  0.124200  0.468
  C  C1128  1  0.370300  0.778300  0.875800  0.468
  C  C1129  1  0.777800  0.199100  0.116100  0.468
  C  C1130  1  0.222200  0.800900  0.883900  0.468
  C  C1131  1  0.675300  0.230800  0.146300  0.468
  C  C1132  1  0.324700  0.769200  0.853700  0.468
  C  C1133  1  0.652900  0.251700  0.174500  0.468
  C  C1134  1  0.347100  0.748300  0.825500  0.468
  C  C1135  1  0.566500  0.250600  0.187300  0.468
  C  C1136  1  0.433500  0.749400  0.812700  0.468
  C  C1137  1  0.557500  0.269800  0.213800  0.468
  C  C1138  1  0.442500  0.730200  0.786200  0.468
  C  C1139  1  0.638900  0.285400  0.228500  0.468
  C  C1140  1  0.361100  0.714600  0.771500  0.468
  C  C1141  1  0.720300  0.282200  0.214200  0.468
  C  C1142  1  0.279700  0.717800  0.785800  0.468
  C  C1143  1  0.868000  0.173200  0.103100  0.468
  C  C1144  1  0.132000  0.826800  0.896900  0.468
  C  C1145  1  0.905100  0.086500  0.099600  0.468
  C  C1146  1  0.094900  0.913500  0.900400  0.468
  C  C1147  1  0.989900  0.065700  0.088200  0.468
  C  C1148  1  0.010100  0.934300  0.911800  0.468
  C  C1149  1  0.037400  0.124000  0.082000  0.468
  C  C1150  1  0.962600  0.876000  0.918000  0.468
  C  C1151  1  0.011400  0.216900  0.083800  0.468
  C  C1152  1  0.988600  0.783100  0.916200  0.468
  C  C1153  1  0.918500  0.237200  0.095200  0.468
  C  C1154  1  0.081500  0.762800  0.904800  0.468
  C  C1155  1  0.737700  0.469100  0.172500  0.468
  C  C1156  1  0.262300  0.530900  0.827500  0.468
  C  C1157  1  0.047600  0.459600  0.121500  0.468
  C  C1158  1  0.952400  0.540400  0.878500  0.468
  C  C1159  1  0.228100  0.579300  0.156200  0.468
  C  C1160  1  0.771900  0.420700  0.843800  0.468
  C  C1161  1  0.919000  0.585900  0.209100  0.468
  C  C1162  1  0.081000  0.414100  0.790900  0.468
  C  C1163  1  0.834000  0.439500  0.158900  0.468
  C  C1164  1  0.166000  0.560500  0.841100  0.468
  C  C1165  1  0.887600  0.492900  0.147600  0.468
  C  C1166  1  0.112400  0.507100  0.852400  0.468
  C  C1167  1  0.968800  0.439300  0.137900  0.468
  C  C1168  1  0.031200  0.560700  0.862100  0.468
  C  C1169  1  0.021500  0.277800  0.149200  0.468
  C  C1170  1  0.978500  0.722200  0.850800  0.468
  C  C1171  1  0.111600  0.269600  0.138800  0.468
  C  C1172  1  0.888400  0.730400  0.861200  0.468
  C  C1173  1  0.164300  0.185100  0.141000  0.468
  C  C1174  1  0.835700  0.814900  0.859000  0.468
  C  C1175  1  0.124200  0.114800  0.150700  0.468
  C  C1176  1  0.875800  0.885200  0.849300  0.468
  C  C1177  1  0.032600  0.127500  0.158800  0.468
  C  C1178  1  0.967400  0.872500  0.841200  0.468
  C  C1179  1  0.972100  0.062900  0.166000  0.468
  C  C1180  1  0.027900  0.937100  0.834000  0.468
  C  C1181  1  0.848300  0.028700  0.180800  0.468
  C  C1182  1  0.151700  0.971300  0.819200  0.468
  C  C1183  1  0.978400  0.973600  0.161800  0.468
  C  C1184  1  0.021600  0.026400  0.838200  0.468
  C  C1185  1  0.045400  0.902600  0.152100  0.468
  C  C1186  1  0.954600  0.097400  0.847900  0.468
  C  C1187  1  0.110800  0.911400  0.133900  0.468
  C  C1188  1  0.889200  0.088600  0.866100  0.468
  C  C1189  1  0.174300  0.836400  0.125300  0.468
  C  C1190  1  0.825700  0.163600  0.874700  0.468
  C  C1191  1  0.162300  0.753000  0.136000  0.468
  C  C1192  1  0.837700  0.247000  0.864000  0.468
  C  C1193  1  0.094100  0.753500  0.155100  0.468
  C  C1194  1  0.905900  0.246500  0.844900  0.468
  C  C1195  1  0.124300  0.596200  0.174100  0.468
  C  C1196  1  0.875700  0.403800  0.825900  0.468
  C  C1197  1  0.081600  0.549900  0.188500  0.468
  C  C1198  1  0.918400  0.450100  0.811500  0.468
  C  C1199  1  0.997300  0.604400  0.193600  0.468
  C  C1200  1  0.002700  0.395600  0.806400  0.468
  C  C1201  1  0.755000  0.031700  0.192800  0.468
  C  C1202  1  0.245000  0.968300  0.807200  0.468
  C  C1203  1  0.690000  0.990900  0.178000  0.468
  C  C1204  1  0.310000  0.009100  0.822000  0.468
  C  C1205  1  0.607200  0.990600  0.187400  0.468
  C  C1206  1  0.392800  0.009400  0.812600  0.468
  C  C1207  1  0.579800  0.020100  0.212900  0.468
  C  C1208  1  0.420200  0.979900  0.787100  0.468
  C  C1209  1  0.642900  0.056700  0.227700  0.468
  C  C1210  1  0.357100  0.943300  0.772300  0.468
  C  C1211  1  0.731200  0.061200  0.216600  0.468
  C  C1212  1  0.268800  0.938800  0.783400  0.468
  C  C1213  1  0.084000  0.852100  0.227700  0.468
  C  C1214  1  0.916000  0.147900  0.772300  0.468
  C  C1215  1  0.772000  0.910000  0.279500  0.468
  C  C1216  1  0.228000  0.090000  0.720500  0.468
  C  C1217  1  0.342800  0.644800  0.064700  0.468
  C  C1218  1  0.657200  0.355200  0.935300  0.468
  C  C1219  1  0.620200  0.687400  0.006200  0.468
  C  C1220  1  0.379800  0.312600  0.993800  0.468
  C  C1221  1  0.988000  0.863100  0.235900  0.468
  C  C1222  1  0.012000  0.136900  0.764100  0.468
  C  C1223  1  0.945000  0.899600  0.259500  0.468
  C  C1224  1  0.055000  0.100400  0.740500  0.468
  C  C1225  1  0.850000  0.886300  0.259700  0.468
  C  C1226  1  0.150000  0.113700  0.740300  0.468
  C  C1227  1  0.772000  0.808700  0.225800  0.468
  C  C1228  1  0.228000  0.191300  0.774200  0.468
  C  C1229  1  0.701900  0.782900  0.239500  0.468
  C  C1230  1  0.298100  0.217100  0.760500  0.468
  C  C1231  1  0.643300  0.749700  0.225900  0.468
  C  C1232  1  0.356700  0.250300  0.774100  0.468
  C  C1233  1  0.647000  0.744600  0.199100  0.468
  C  C1234  1  0.353000  0.255400  0.800900  0.468
  C  C1235  1  0.711000  0.771500  0.184400  0.468
  C  C1236  1  0.289000  0.228500  0.815600  0.468
  C  C1237  1  0.732400  0.769800  0.157500  0.468
  C  C1238  1  0.267600  0.230200  0.842500  0.468
  C  C1239  1  0.819000  0.767400  0.122900  0.468
  C  C1240  1  0.181000  0.232600  0.877100  0.468
  C  C1241  1  0.683000  0.759400  0.134400  0.468
  C  C1242  1  0.317000  0.240600  0.865600  0.468
  C  C1243  1  0.587000  0.759800  0.129900  0.468
  C  C1244  1  0.413000  0.240200  0.870100  0.468
  C  C1245  1  0.509100  0.776000  0.144900  0.468
  C  C1246  1  0.490900  0.224000  0.855100  0.468
  C  C1247  1  0.428200  0.770300  0.135500  0.468
  C  C1248  1  0.571800  0.229700  0.864500  0.468
  C  C1249  1  0.414800  0.746100  0.109900  0.468
  C  C1250  1  0.585200  0.253900  0.890100  0.468
  C  C1251  1  0.492000  0.733300  0.093700  0.468
  C  C1252  1  0.508000  0.266700  0.906300  0.468
  C  C1253  1  0.429400  0.665700  0.053400  0.468
  C  C1254  1  0.570600  0.334300  0.946600  0.468
  C  C1255  1  0.471500  0.650500  0.029300  0.468
  C  C1256  1  0.528500  0.349500  0.970700  0.468
  C  C1257  1  0.551100  0.682300  0.029100  0.468
  C  C1258  1  0.448900  0.317700  0.970900  0.468
  C  C1259  1  0.905700  0.755500  0.106100  0.468
  C  C1260  1  0.094300  0.244500  0.893900  0.468
  C  C1261  1  0.934700  0.827300  0.098200  0.468
  C  C1262  1  0.065300  0.172700  0.901800  0.468
  C  C1263  1  0.014900  0.814600  0.078100  0.468
  C  C1264  1  0.985100  0.185400  0.921900  0.468
  C  C1265  1  0.059500  0.729800  0.074200  0.468
  C  C1266  1  0.940500  0.270200  0.925800  0.468
  C  C1267  1  0.030300  0.664600  0.085900  0.468
  C  C1268  1  0.969700  0.335400  0.914100  0.468
  C  C1269  1  0.954500  0.672900  0.102600  0.468
  C  C1270  1  0.045500  0.327100  0.897400  0.468
  C  C1271  1  0.626700  0.547400  0.110300  0.468
  C  C1272  1  0.373300  0.452600  0.889700  0.468
  C  C1273  1  0.902100  0.452500  0.050300  0.468
  C  C1274  1  0.097900  0.547500  0.949700  0.468
  C  C1275  1  0.843000  0.332600  0.993600  0.468
  C  C1276  1  0.157000  0.667400  0.006400  0.468
  C  C1277  1  0.552600  0.402100  0.051700  0.468
  C  C1278  1  0.447400  0.597900  0.948300  0.468
  C  C1279  1  0.702400  0.548000  0.091200  0.468
  C  C1280  1  0.297600  0.452000  0.908800  0.468
  C  C1281  1  0.764600  0.473700  0.082900  0.468
  C  C1282  1  0.235400  0.526300  0.917100  0.468
  C  C1283  1  0.824300  0.505200  0.066200  0.468
  C  C1284  1  0.175700  0.494800  0.933800  0.468
  C  C1285  1  0.827600  0.659500  0.048100  0.468
  C  C1286  1  0.172400  0.340500  0.951900  0.468
  C  C1287  1  0.891100  0.649300  0.029300  0.468
  C  C1288  1  0.108900  0.350700  0.970700  0.468
  C  C1289  1  0.904200  0.721400  0.014000  0.468
  C  C1290  1  0.095800  0.278600  0.986000  0.468
  C  C1291  1  0.855800  0.805800  0.021900  0.468
  C  C1292  1  0.144200  0.194200  0.978100  0.468
  C  C1293  1  0.796200  0.807600  0.042500  0.468
  C  C1294  1  0.203800  0.192400  0.957500  0.468
  C  C1295  1  0.739500  0.890000  0.054500  0.468
  C  C1296  1  0.260500  0.110000  0.945500  0.468
  C  C1297  1  0.624000  0.953900  0.078800  0.468
  C  C1298  1  0.376000  0.046100  0.921200  0.468
  C  C1299  1  0.740300  0.977300  0.056100  0.468
  C  C1300  1  0.259700  0.022700  0.943900  0.468
  C  C1301  1  0.803800  0.033800  0.043100  0.468
  C  C1302  1  0.196200  0.966200  0.956900  0.468
  C  C1303  1  0.890800  0.007900  0.035000  0.468
  C  C1304  1  0.109200  0.992100  0.965000  0.468
  C  C1305  1  0.942600  0.070800  0.025500  0.468
  C  C1306  1  0.057400  0.929200  0.974500  0.468
  C  C1307  1  0.900400  0.156800  0.023000  0.468
  C  C1308  1  0.099600  0.843200  0.977000  0.468
  C  C1309  1  0.809400  0.180900  0.031600  0.468
  C  C1310  1  0.190600  0.819100  0.968400  0.468
  C  C1311  1  0.768500  0.335400  0.014500  0.468
  C  C1312  1  0.231500  0.664600  0.985500  0.468
  C  C1313  1  0.690800  0.402000  0.020700  0.468
  C  C1314  1  0.309200  0.598000  0.979300  0.468
  C  C1315  1  0.640200  0.363400  0.038800  0.468
  C  C1316  1  0.359800  0.636600  0.961200  0.468
  C  C1317  1  0.537000  0.976000  0.093000  0.468
  C  C1318  1  0.463000  0.024000  0.907000  0.468
  C  C1319  1  0.534100  0.008700  0.119500  0.468
  C  C1320  1  0.465900  0.991300  0.880500  0.468
  C  C1321  1  0.445300  0.036500  0.130600  0.468
  C  C1322  1  0.554700  0.963500  0.869400  0.468
  C  C1323  1  0.371800  0.022300  0.115500  0.468
  C  C1324  1  0.628200  0.977700  0.884500  0.468
  C  C1325  1  0.374200  0.991900  0.092900  0.468
  C  C1326  1  0.625800  0.008100  0.907100  0.468
  C  C1327  1  0.457000  0.967600  0.080600  0.468
  C  C1328  1  0.543000  0.032400  0.919400  0.468
  C  C1329  1  0.489000  0.131900  0.024000  0.532
  C  C1330  1  0.511000  0.868100  0.976000  0.532
  C  C1331  1  0.560000  0.109900  0.001800  0.532
  C  C1332  1  0.440000  0.890100  0.998200  0.532
  C  C1333  1  0.400600  0.114100  0.024800  0.532
  C  C1334  1  0.599400  0.885900  0.975200  0.532
  C  C1335  1  0.359900  0.148000  0.047900  0.532
  C  C1336  1  0.640100  0.852000  0.952100  0.532
  C  C1337  1  0.268100  0.148800  0.059300  0.532
  C  C1338  1  0.731900  0.851200  0.940700  0.532
  C  C1339  1  0.711600  0.441200  0.264000  0.532
  C  C1340  1  0.288400  0.558800  0.736000  0.532
  C  C1341  1  0.020500  0.333100  0.219900  0.532
  C  C1342  1  0.979500  0.666900  0.780100  0.532
  C  C1343  1  0.432100  0.232700  0.083900  0.532
  C  C1344  1  0.567900  0.767300  0.916100  0.532
  C  C1345  1  0.354600  0.274500  0.097900  0.532
  C  C1346  1  0.645400  0.725500  0.902100  0.532
  C  C1347  1  0.367300  0.317200  0.121000  0.532
  C  C1348  1  0.632700  0.682800  0.879000  0.532
  C  C1349  1  0.457700  0.308900  0.131100  0.532
  C  C1350  1  0.542300  0.691100  0.868900  0.532
  C  C1351  1  0.522900  0.261200  0.117300  0.532
  C  C1352  1  0.477100  0.738800  0.882700  0.532
  C  C1353  1  0.622400  0.247200  0.124800  0.532
  C  C1354  1  0.377600  0.752800  0.875200  0.532
  C  C1355  1  0.767500  0.226100  0.115900  0.532
  C  C1356  1  0.232500  0.773900  0.884100  0.532
  C  C1357  1  0.668100  0.262800  0.147900  0.532
  C  C1358  1  0.331900  0.737200  0.852100  0.532
  C  C1359  1  0.638800  0.281200  0.176200  0.532
  C  C1360  1  0.361200  0.718800  0.823800  0.532
  C  C1361  1  0.558300  0.279700  0.187600  0.532
  C  C1362  1  0.441700  0.720300  0.812400  0.532
  C  C1363  1  0.550200  0.301900  0.214500  0.532
  C  C1364  1  0.449800  0.698100  0.785500  0.532
  C  C1365  1  0.617300  0.317900  0.228600  0.532
  C  C1366  1  0.382700  0.682100  0.771400  0.532
  C  C1367  1  0.696100  0.320900  0.216200  0.532
  C  C1368  1  0.303900  0.679100  0.783800  0.532
  C  C1369  1  0.786500  0.391000  0.247600  0.532
  C  C1370  1  0.213500  0.609000  0.752400  0.532
  C  C1371  1  0.879800  0.397500  0.247900  0.532
  C  C1372  1  0.120200  0.602500  0.752100  0.532
  C  C1373  1  0.922300  0.345400  0.226700  0.532
  C  C1374  1  0.077700  0.654600  0.773300  0.532
  C  C1375  1  0.855400  0.209500  0.102400  0.532
  C  C1376  1  0.144600  0.790500  0.897600  0.532
  C  C1377  1  0.895900  0.129200  0.095700  0.532
  C  C1378  1  0.104100  0.870800  0.904300  0.532
  C  C1379  1  0.979800  0.115900  0.084400  0.532
  C  C1380  1  0.020200  0.884100  0.915600  0.532
  C  C1381  1  0.025700  0.176800  0.079200  0.532
  C  C1382  1  0.974300  0.823200  0.920800  0.532
  C  C1383  1  0.984300  0.269500  0.085300  0.532
  C  C1384  1  0.015700  0.730500  0.914700  0.532
  C  C1385  1  0.899900  0.282400  0.097000  0.532
  C  C1386  1  0.100100  0.717600  0.903000  0.532
  C  C1387  1  0.749000  0.503500  0.166900  0.532
  C  C1388  1  0.251000  0.496500  0.833100  0.532
  C  C1389  1  0.070300  0.483600  0.127200  0.532
  C  C1390  1  0.929700  0.516400  0.872800  0.532
  C  C1391  1  0.229700  0.606000  0.164900  0.532
  C  C1392  1  0.770300  0.394000  0.835100  0.532
  C  C1393  1  0.914700  0.615100  0.207400  0.532
  C  C1394  1  0.085300  0.384900  0.792600  0.532
  C  C1395  1  0.844000  0.473900  0.156900  0.532
  C  C1396  1  0.156000  0.526100  0.843100  0.532
  C  C1397  1  0.906400  0.518300  0.143000  0.532
  C  C1398  1  0.093600  0.481700  0.857000  0.532
  C  C1399  1  0.984800  0.465100  0.139000  0.532
  C  C1400  1  0.015200  0.534900  0.861000  0.532
  C  C1401  1  0.028000  0.304800  0.150300  0.532
  C  C1402  1  0.972000  0.695200  0.849700  0.532
  C  C1403  1  0.123000  0.286800  0.148300  0.532
  C  C1404  1  0.877000  0.713200  0.851700  0.532
  C  C1405  1  0.169500  0.205900  0.150200  0.532
  C  C1406  1  0.830500  0.794100  0.849800  0.532
  C  C1407  1  0.124700  0.139800  0.154900  0.532
  C  C1408  1  0.875300  0.860200  0.845100  0.532
  C  C1409  1  0.028000  0.155100  0.156300  0.532
  C  C1410  1  0.972000  0.844900  0.843700  0.532
  C  C1411  1  0.970900  0.089800  0.162900  0.532
  C  C1412  1  0.029100  0.910200  0.837100  0.532
  C  C1413  1  0.843400  0.053400  0.178900  0.532
  C  C1414  1  0.156600  0.946600  0.821100  0.532
  C  C1415  1  0.975000  0.001100  0.160500  0.532
  C  C1416  1  0.025000  0.998900  0.839500  0.532
  C  C1417  1  0.045500  0.931000  0.149300  0.532
  C  C1418  1  0.954500  0.069000  0.850700  0.532
  C  C1419  1  0.111800  0.936700  0.129900  0.532
  C  C1420  1  0.888200  0.063300  0.870100  0.532
  C  C1421  1  0.162700  0.863500  0.121600  0.532
  C  C1422  1  0.837300  0.136500  0.878400  0.532
  C  C1423  1  0.160100  0.785500  0.132900  0.532
  C  C1424  1  0.839900  0.214500  0.867100  0.532
  C  C1425  1  0.091300  0.778700  0.151900  0.532
  C  C1426  1  0.908700  0.221300  0.848100  0.532
  C  C1427  1  0.136900  0.625600  0.171000  0.532
  C  C1428  1  0.863100  0.374400  0.829000  0.532
  C  C1429  1  0.083100  0.580600  0.187600  0.532
  C  C1430  1  0.916900  0.419400  0.812400  0.532
  C  C1431  1  0.996400  0.629800  0.190500  0.532
  C  C1432  1  0.003600  0.370200  0.809500  0.532
  C  C1433  1  0.754400  0.052700  0.191300  0.532
  C  C1434  1  0.245600  0.947300  0.808700  0.532
  C  C1435  1  0.688800  0.014900  0.180000  0.532
  C  C1436  1  0.311200  0.985100  0.820000  0.532
  C  C1437  1  0.603300  0.004200  0.194600  0.532
  C  C1438  1  0.396700  0.995800  0.805400  0.532
  C  C1439  1  0.590500  0.044100  0.218000  0.532
  C  C1440  1  0.409500  0.955900  0.782000  0.532
  C  C1441  1  0.654800  0.086600  0.229200  0.532
  C  C1442  1  0.345200  0.913400  0.770800  0.532
  C  C1443  1  0.734100  0.092300  0.217200  0.532
  C  C1444  1  0.265900  0.907700  0.782800  0.532
  C  C1445  1  0.086100  0.885300  0.224700  0.532
  C  C1446  1  0.913900  0.114700  0.775300  0.532
  C  C1447  1  0.784000  0.937500  0.275000  0.532
  C  C1448  1  0.216000  0.062500  0.725000  0.532
  C  C1449  1  0.329800  0.724400  0.052800  0.532
  C  C1450  1  0.670200  0.275600  0.947200  0.532
  C  C1451  1  0.652200  0.666667  0.010800  0.532
  C  C1452  1  0.347800  0.333333  0.989200  0.532
  C  C1453  1  0.987400  0.890600  0.233300  0.532
  C  C1454  1  0.012600  0.109400  0.766700  0.532
  C  C1455  1  0.942200  0.928300  0.256200  0.532
  C  C1456  1  0.057800  0.071700  0.743800  0.532
  C  C1457  1  0.858600  0.912400  0.256000  0.532
  C  C1458  1  0.141400  0.087600  0.744000  0.532
  C  C1459  1  0.772000  0.831900  0.223500  0.532
  C  C1460  1  0.228000  0.168100  0.776500  0.532
  C  C1461  1  0.699200  0.812400  0.238900  0.532
  C  C1462  1  0.300800  0.187600  0.761100  0.532
  C  C1463  1  0.622100  0.783500  0.225500  0.532
  C  C1464  1  0.377900  0.216500  0.774500  0.532
  C  C1465  1  0.631600  0.769300  0.197200  0.532
  C  C1466  1  0.368400  0.230700  0.802800  0.532
  C  C1467  1  0.710700  0.795500  0.184100  0.532
  C  C1468  1  0.289300  0.204500  0.815900  0.532
  C  C1469  1  0.725000  0.791700  0.155000  0.532
  C  C1470  1  0.275000  0.208300  0.845000  0.532
  C  C1471  1  0.819000  0.785400  0.121000  0.532
  C  C1472  1  0.181000  0.214600  0.879000  0.532
  C  C1473  1  0.675300  0.782100  0.133900  0.532
  C  C1474  1  0.324700  0.217900  0.866100  0.532
  C  C1475  1  0.577900  0.776400  0.126800  0.532
  C  C1476  1  0.422100  0.223600  0.873200  0.532
  C  C1477  1  0.501800  0.802700  0.144000  0.532
  C  C1478  1  0.498200  0.197300  0.856000  0.532
  C  C1479  1  0.415100  0.795400  0.132100  0.532
  C  C1480  1  0.584900  0.204600  0.867900  0.532
  C  C1481  1  0.409700  0.772300  0.107300  0.532
  C  C1482  1  0.590300  0.227700  0.892700  0.532
  C  C1483  1  0.487000  0.754100  0.092000  0.532
  C  C1484  1  0.513000  0.245900  0.908000  0.532
  C  C1485  1  0.433500  0.713900  0.047900  0.532
  C  C1486  1  0.566500  0.286100  0.952100  0.532
  C  C1487  1  0.478500  0.692500  0.024900  0.532
  C  C1488  1  0.521500  0.307500  0.975100  0.532
  C  C1489  1  0.572800  0.697600  0.028800  0.532
  C  C1490  1  0.427200  0.302400  0.971200  0.532
  C  C1491  1  0.898900  0.781400  0.104100  0.532
  C  C1492  1  0.101100  0.218600  0.895900  0.532
  C  C1493  1  0.926600  0.856800  0.093800  0.532
  C  C1494  1  0.073400  0.143200  0.906200  0.532
  C  C1495  1  0.997700  0.859600  0.077300  0.532
  C  C1496  1  0.002300  0.140400  0.922700  0.532
  C  C1497  1  0.045300  0.777000  0.068200  0.532
  C  C1498  1  0.954700  0.223000  0.931800  0.532
  C  C1499  1  0.019800  0.702300  0.075000  0.532
  C  C1500  1  0.980200  0.297700  0.925000  0.532
  C  C1501  1  0.944100  0.705300  0.092500  0.532
  C  C1502  1  0.055900  0.294700  0.907500  0.532
  C  C1503  1  0.702400  0.518600  0.095500  0.532
  C  C1504  1  0.297600  0.481400  0.904500  0.532
  C  C1505  1  0.959800  0.518000  0.026800  0.532
  C  C1506  1  0.040200  0.482000  0.973200  0.532
  C  C1507  1  0.788100  0.386600  0.997900  0.532
  C  C1508  1  0.211900  0.613400  0.002100  0.532
  C  C1509  1  0.512900  0.418900  0.060500  0.532
  C  C1510  1  0.487100  0.581100  0.939500  0.532
  C  C1511  1  0.766000  0.542300  0.074500  0.532
  C  C1512  1  0.234000  0.457700  0.925500  0.532
  C  C1513  1  0.838800  0.488800  0.061400  0.532
  C  C1514  1  0.161200  0.511200  0.938600  0.532
  C  C1515  1  0.877800  0.538600  0.043900  0.532
  C  C1516  1  0.122200  0.461400  0.956100  0.532
  C  C1517  1  0.830000  0.698500  0.032100  0.532
  C  C1518  1  0.170000  0.301500  0.967900  0.532
  C  C1519  1  0.873700  0.709200  0.009000  0.532
  C  C1520  1  0.126300  0.290800  0.991000  0.532
  C  C1521  1  0.873500  0.786300  0.997700  0.532
  C  C1522  1  0.126500  0.213700  0.002300  0.532
  C  C1523  1  0.829200  0.859000  0.010900  0.532
  C  C1524  1  0.170800  0.141000  0.989100  0.532
  C  C1525  1  0.785300  0.851000  0.034200  0.532
  C  C1526  1  0.214700  0.149000  0.965800  0.532
  C  C1527  1  0.730500  0.923700  0.049900  0.532
  C  C1528  1  0.269500  0.076300  0.950100  0.532
  C  C1529  1  0.623700  0.974900  0.077100  0.532
  C  C1530  1  0.376300  0.025100  0.922900  0.532
  C  C1531  1  0.735600  0.009500  0.052500  0.532
  C  C1532  1  0.264400  0.990500  0.947500  0.532
  C  C1533  1  0.786900  0.071300  0.041000  0.532
  C  C1534  1  0.213100  0.928700  0.959000  0.532
  C  C1535  1  0.874700  0.056400  0.029800  0.532
  C  C1536  1  0.125300  0.943600  0.970200  0.532
  C  C1537  1  0.915000  0.118500  0.020800  0.532
  C  C1538  1  0.085000  0.881500  0.979200  0.532
  C  C1539  1  0.868500  0.207400  0.021100  0.532
  C  C1540  1  0.131500  0.792600  0.978900  0.532
  C  C1541  1  0.778800  0.223100  0.031700  0.532
  C  C1542  1  0.221200  0.776900  0.968300  0.532
  C  C1543  1  0.719200  0.375100  0.018200  0.532
  C  C1544  1  0.280800  0.624900  0.981800  0.532
  C  C1545  1  0.639700  0.432400  0.027500  0.532
  C  C1546  1  0.360300  0.567600  0.972500  0.532
  C  C1547  1  0.597000  0.389000  0.045400  0.532
  C  C1548  1  0.403000  0.611000  0.954600  0.532
  C  C1549  1  0.544000  0.982000  0.095000  0.532
  C  C1550  1  0.456000  0.018000  0.905000  0.532
  C  C1551  1  0.545300  0.032500  0.117900  0.532
  C  C1552  1  0.454700  0.967500  0.882100  0.532
  C  C1553  1  0.472500  0.046200  0.135200  0.532
  C  C1554  1  0.527500  0.953800  0.864800  0.532
  C  C1555  1  0.386800  0.019300  0.127300  0.532
  C  C1556  1  0.613200  0.980700  0.872700  0.532
  C  C1557  1  0.383800  0.972500  0.103700  0.532
  C  C1558  1  0.616200  0.027500  0.896300  0.532
  C  C1559  1  0.462000  0.956600  0.087600  0.532
  C  C1560  1  0.538000  0.043400  0.912400  0.532
  C  C1561  1  0.477500  0.864000  0.489200  0.638
  C  C1562  1  0.522500  0.136000  0.510800  0.638
  C  C1563  1  0.400500  0.901600  0.506900  0.638
  C  C1564  1  0.599500  0.098400  0.493100  0.638
  C  C1565  1  0.569800  0.870500  0.490600  0.638
  C  C1566  1  0.430200  0.129500  0.509400  0.638
  C  C1567  1  0.615100  0.826500  0.469400  0.638
  C  C1568  1  0.384900  0.173500  0.530600  0.638
  C  C1569  1  0.711700  0.829000  0.459800  0.638
  C  C1570  1  0.288300  0.171000  0.540200  0.638
  C  C1571  1  0.269000  0.093900  0.445600  0.638
  C  C1572  1  0.731000  0.906100  0.554400  0.638
  C  C1573  1  0.384700  0.023000  0.424600  0.638
  C  C1574  1  0.615300  0.977000  0.575400  0.638
  C  C1575  1  0.265400  0.004700  0.448100  0.638
  C  C1576  1  0.734600  0.995300  0.551900  0.638
  C  C1577  1  0.282400  0.606400  0.237500  0.638
  C  C1578  1  0.717600  0.393600  0.762500  0.638
  C  C1579  1  0.979700  0.719900  0.284700  0.638
  C  C1580  1  0.020300  0.280100  0.715300  0.638
  C  C1581  1  0.555700  0.758300  0.428600  0.638
  C  C1582  1  0.444300  0.241700  0.571400  0.638
  C  C1583  1  0.631800  0.706200  0.418100  0.638
  C  C1584  1  0.368200  0.293800  0.581900  0.638
  C  C1585  1  0.621800  0.663700  0.395200  0.638
  C  C1586  1  0.378200  0.336300  0.604800  0.638
  C  C1587  1  0.538400  0.677100  0.382900  0.638
  C  C1588  1  0.461600  0.322900  0.617100  0.638
  C  C1589  1  0.464100  0.730000  0.393200  0.638
  C  C1590  1  0.535900  0.270000  0.606800  0.638
  C  C1591  1  0.370500  0.754000  0.384200  0.638
  C  C1592  1  0.629500  0.246000  0.615800  0.638
  C  C1593  1  0.224600  0.800300  0.389100  0.638
  C  C1594  1  0.775400  0.199700  0.610900  0.638
  C  C1595  1  0.330100  0.753400  0.359400  0.638
  C  C1596  1  0.669900  0.246600  0.640600  0.638
  C  C1597  1  0.360600  0.733100  0.332600  0.638
  C  C1598  1  0.639400  0.266900  0.667400  0.638
  C  C1599  1  0.447800  0.730700  0.322000  0.638
  C  C1600  1  0.552200  0.269300  0.678000  0.638
  C  C1601  1  0.461900  0.713800  0.295100  0.638
  C  C1602  1  0.538100  0.286200  0.704900  0.638
  C  C1603  1  0.389000  0.702300  0.279100  0.638
  C  C1604  1  0.611000  0.297700  0.720900  0.638
  C  C1605  1  0.306200  0.706700  0.291600  0.638
  C  C1606  1  0.693800  0.293300  0.708400  0.638
  C  C1607  1  0.207300  0.652000  0.255900  0.638
  C  C1608  1  0.792700  0.348000  0.744100  0.638
  C  C1609  1  0.119100  0.655300  0.253800  0.638
  C  C1610  1  0.880900  0.344700  0.746200  0.638
  C  C1611  1  0.076200  0.701900  0.276200  0.638
  C  C1612  1  0.923800  0.298100  0.723800  0.638
  C  C1613  1  0.132000  0.825400  0.400200  0.638
  C  C1614  1  0.868000  0.174600  0.599800  0.638
  C  C1615  1  0.087300  0.914200  0.396700  0.638
  C  C1616  1  0.912700  0.085800  0.603300  0.638
  C  C1617  1  0.001100  0.939100  0.405400  0.638
  C  C1618  1  0.998900  0.060900  0.594600  0.638
  C  C1619  1  0.949800  0.878300  0.417000  0.638
  C  C1620  1  0.050200  0.121700  0.583000  0.638
  C  C1621  1  0.988200  0.792900  0.419500  0.638
  C  C1622  1  0.011800  0.207100  0.580500  0.638
  C  C1623  1  0.078300  0.766700  0.410400  0.638
  C  C1624  1  0.921700  0.233300  0.589600  0.638
  C  C1625  1  0.202600  0.538200  0.346000  0.638
  C  C1626  1  0.797400  0.461800  0.654000  0.638
  C  C1627  1  0.876900  0.636000  0.383600  0.638
  C  C1628  1  0.123100  0.364000  0.616400  0.638
  C  C1629  1  0.918300  0.488100  0.317800  0.638
  C  C1630  1  0.081700  0.511900  0.682200  0.638
  C  C1631  1  0.234400  0.380900  0.276700  0.638
  C  C1632  1  0.765600  0.619100  0.723300  0.638
  C  C1633  1  0.114000  0.591200  0.353700  0.638
  C  C1634  1  0.886000  0.408800  0.646300  0.638
  C  C1635  1  0.048100  0.560300  0.370500  0.638
  C  C1636  1  0.951900  0.439700  0.629500  0.638
  C  C1637  1  0.966200  0.630700  0.369900  0.638
  C  C1638  1  0.033800  0.369300  0.630100  0.638
  C  C1639  1  0.954200  0.782600  0.349000  0.638
  C  C1640  1  0.045800  0.217400  0.651000  0.638
  C  C1641  1  0.861000  0.807300  0.350600  0.638
  C  C1642  1  0.139000  0.192700  0.649400  0.638
  C  C1643  1  0.830500  0.895100  0.342800  0.638
  C  C1644  1  0.169500  0.104900  0.657200  0.638
  C  C1645  1  0.890800  0.950500  0.335400  0.638
  C  C1646  1  0.109200  0.049500  0.664600  0.638
  C  C1647  1  0.983000  0.916100  0.336000  0.638
  C  C1648  1  0.017000  0.083900  0.664000  0.638
  C  C1649  1  0.057400  0.966600  0.329800  0.638
  C  C1650  1  0.942600  0.033400  0.670200  0.638
  C  C1651  1  0.195100  0.981100  0.316000  0.638
  C  C1652  1  0.804900  0.018900  0.684000  0.638
  C  C1653  1  0.065900  0.053500  0.330200  0.638
  C  C1654  1  0.934100  0.946500  0.669800  0.638
  C  C1655  1  0.003700  0.135600  0.337300  0.638
  C  C1656  1  0.996300  0.864400  0.662700  0.638
  C  C1657  1  0.925300  0.147500  0.352900  0.638
  C  C1658  1  0.074700  0.852500  0.647100  0.638
  C  C1659  1  0.880900  0.230100  0.356800  0.638
  C  C1660  1  0.119100  0.769900  0.643200  0.638
  C  C1661  1  0.912300  0.305200  0.343600  0.638
  C  C1662  1  0.087700  0.694800  0.656400  0.638
  C  C1663  1  0.991700  0.287200  0.329400  0.638
  C  C1664  1  0.008300  0.712800  0.670600  0.638
  C  C1665  1  0.006200  0.434700  0.309400  0.638
  C  C1666  1  0.993800  0.565300  0.690600  0.638
  C  C1667  1  0.070000  0.460400  0.293700  0.638
  C  C1668  1  0.930000  0.539600  0.706300  0.638
  C  C1669  1  0.145000  0.386300  0.292300  0.638
  C  C1670  1  0.855000  0.613700  0.707700  0.638
  C  C1671  1  0.289900  0.961800  0.306500  0.638
  C  C1672  1  0.710100  0.038200  0.693500  0.638
  C  C1673  1  0.360600  0.982000  0.321700  0.638
  C  C1674  1  0.639400  0.018000  0.678300  0.638
  C  C1675  1  0.449000  0.971000  0.311200  0.638
  C  C1676  1  0.551000  0.029000  0.688800  0.638
  C  C1677  1  0.466700  0.940300  0.286400  0.638
  C  C1678  1  0.533300  0.059700  0.713600  0.638
  C  C1679  1  0.398800  0.921200  0.271100  0.638
  C  C1680  1  0.601200  0.078800  0.728900  0.638
  C  C1681  1  0.312500  0.931300  0.281300  0.638
  C  C1682  1  0.687500  0.068700  0.718700  0.638
  C  C1683  1  0.962700  0.159900  0.270000  0.638
  C  C1684  1  0.037300  0.840100  0.730000  0.638
  C  C1685  1  0.247400  0.080200  0.214000  0.638
  C  C1686  1  0.752600  0.919800  0.786000  0.638
  C  C1687  1  0.697200  0.337300  0.427500  0.638
  C  C1688  1  0.302800  0.662700  0.572500  0.638
  C  C1689  1  0.407300  0.339300  0.482600  0.638
  C  C1690  1  0.592700  0.660700  0.517400  0.638
  C  C1691  1  0.059900  0.142000  0.259500  0.638
  C  C1692  1  0.940100  0.858000  0.740500  0.638
  C  C1693  1  0.090000  0.109000  0.235500  0.638
  C  C1694  1  0.910000  0.891000  0.764500  0.638
  C  C1695  1  0.187000  0.106100  0.234900  0.638
  C  C1696  1  0.813000  0.893900  0.765100  0.638
  C  C1697  1  0.287200  0.158600  0.268500  0.638
  C  C1698  1  0.712800  0.841400  0.731500  0.638
  C  C1699  1  0.367600  0.167400  0.255200  0.638
  C  C1700  1  0.632400  0.832600  0.744800  0.638
  C  C1701  1  0.441500  0.186600  0.270000  0.638
  C  C1702  1  0.558500  0.813400  0.730000  0.638
  C  C1703  1  0.432700  0.202100  0.296500  0.638
  C  C1704  1  0.567300  0.797900  0.703500  0.638
  C  C1705  1  0.351900  0.192400  0.309100  0.638
  C  C1706  1  0.648100  0.807600  0.690900  0.638
  C  C1707  1  0.324800  0.202300  0.336800  0.638
  C  C1708  1  0.675200  0.797700  0.663200  0.638
  C  C1709  1  0.223400  0.222000  0.368600  0.638
  C  C1710  1  0.776600  0.778000  0.631400  0.638
  C  C1711  1  0.370600  0.210500  0.360400  0.638
  C  C1712  1  0.629400  0.789500  0.639600  0.638
  C  C1713  1  0.468100  0.204900  0.369100  0.638
  C  C1714  1  0.531900  0.795100  0.630900  0.638
  C  C1715  1  0.544400  0.174600  0.354800  0.638
  C  C1716  1  0.455600  0.825400  0.645200  0.638
  C  C1717  1  0.630200  0.174200  0.366000  0.638
  C  C1718  1  0.369800  0.825800  0.634000  0.638
  C  C1719  1  0.634200  0.209000  0.390100  0.638
  C  C1720  1  0.365800  0.791000  0.609900  0.638
  C  C1721  1  0.552300  0.237000  0.403400  0.638
  C  C1722  1  0.447700  0.763000  0.596600  0.638
  C  C1723  1  0.611800  0.319000  0.439700  0.638
  C  C1724  1  0.388200  0.681000  0.560300  0.638
  C  C1725  1  0.567200  0.350000  0.461700  0.638
  C  C1726  1  0.432800  0.650000  0.538300  0.638
  C  C1727  1  0.483800  0.320500  0.462600  0.638
  C  C1728  1  0.516200  0.679500  0.537400  0.638
  C  C1729  1  0.141000  0.236000  0.384400  0.638
  C  C1730  1  0.859000  0.764000  0.615600  0.638
  C  C1731  1  0.104900  0.170300  0.396800  0.638
  C  C1732  1  0.895100  0.829700  0.603200  0.638
  C  C1733  1  0.025600  0.187800  0.413900  0.638
  C  C1734  1  0.974400  0.812200  0.586100  0.638
  C  C1735  1  0.987100  0.274400  0.418300  0.638
  C  C1736  1  0.012900  0.725600  0.581700  0.638
  C  C1737  1  0.022800  0.342400  0.405000  0.638
  C  C1738  1  0.977200  0.657600  0.595000  0.638
  C  C1739  1  0.094100  0.320900  0.388100  0.638
  C  C1740  1  0.905900  0.679100  0.611900  0.638
  C  C1741  1  0.396700  0.454900  0.395800  0.638
  C  C1742  1  0.603300  0.545100  0.604200  0.638
  C  C1743  1  0.099200  0.521600  0.450500  0.638
  C  C1744  1  0.900800  0.478400  0.549500  0.638
  C  C1745  1  0.135400  0.675000  0.511100  0.638
  C  C1746  1  0.864600  0.325000  0.488900  0.638
  C  C1747  1  0.430700  0.585100  0.457300  0.638
  C  C1748  1  0.569300  0.414900  0.542700  0.638
  C  C1749  1  0.311000  0.451200  0.412700  0.638
  C  C1750  1  0.689000  0.548800  0.587300  0.638
  C  C1751  1  0.244300  0.520400  0.421600  0.638
  C  C1752  1  0.755700  0.479600  0.578400  0.638
  C  C1753  1  0.186400  0.481300  0.437900  0.638
  C  C1754  1  0.813600  0.518700  0.562100  0.638
  C  C1755  1  0.197000  0.333800  0.452200  0.638
  C  C1756  1  0.803000  0.666200  0.547800  0.638
  C  C1757  1  0.141000  0.344300  0.473300  0.638
  C  C1758  1  0.859000  0.655700  0.526700  0.638
  C  C1759  1  0.125400  0.274000  0.487200  0.638
  C  C1760  1  0.874600  0.726000  0.512800  0.638
  C  C1761  1  0.163400  0.190000  0.478800  0.638
  C  C1762  1  0.836600  0.810000  0.521200  0.638
  C  C1763  1  0.217900  0.182400  0.457000  0.638
  C  C1764  1  0.782100  0.817600  0.543000  0.638
  C  C1765  1  0.199400  0.957000  0.458200  0.638
  C  C1766  1  0.800600  0.043000  0.541800  0.638
  C  C1767  1  0.102000  0.993300  0.463800  0.638
  C  C1768  1  0.898000  0.006700  0.536200  0.638
  C  C1769  1  0.048800  0.939600  0.473600  0.638
  C  C1770  1  0.951200  0.060400  0.526400  0.638
  C  C1771  1  0.081800  0.849000  0.478500  0.638
  C  C1772  1  0.918200  0.151000  0.521500  0.638
  C  C1773  1  0.179300  0.823200  0.471600  0.638
  C  C1774  1  0.820700  0.176800  0.528400  0.638
  C  C1775  1  0.211200  0.667800  0.491400  0.638
  C  C1776  1  0.788800  0.332200  0.508600  0.638
  C  C1777  1  0.281900  0.600900  0.486000  0.638
  C  C1778  1  0.718100  0.399100  0.514000  0.638
  C  C1779  1  0.341100  0.631900  0.468000  0.638
  C  C1780  1  0.658900  0.368100  0.532000  0.638
  C  C1781  1  0.474700  0.998000  0.411100  0.638
  C  C1782  1  0.525300  0.002000  0.588900  0.638
  C  C1783  1  0.478800  0.943000  0.388900  0.638
  C  C1784  1  0.521200  0.057000  0.611100  0.638
  C  C1785  1  0.562200  0.909400  0.377300  0.638
  C  C1786  1  0.437800  0.090600  0.622700  0.638
  C  C1787  1  0.642800  0.927000  0.388600  0.638
  C  C1788  1  0.357200  0.073000  0.611400  0.638
  C  C1789  1  0.639100  0.983700  0.409700  0.638
  C  C1790  1  0.360900  0.016300  0.590300  0.638
  C  C1791  1  0.551300  0.017000  0.421800  0.638
  C  C1792  1  0.448700  0.983000  0.578200  0.638
  N  N1793  1  0.463700  0.812300  0.469500  0.362
  N  N1794  1  0.536300  0.187700  0.530500  0.362
  N  N1795  1  0.548000  0.790000  0.455800  0.362
  N  N1796  1  0.452000  0.210000  0.544200  0.362
  N  N1797  1  0.466000  0.754300  0.419900  0.362
  N  N1798  1  0.534000  0.245700  0.580100  0.362
  N  N1799  1  0.298000  0.779000  0.405400  0.362
  N  N1800  1  0.702000  0.221000  0.594600  0.362
  N  N1801  1  0.235000  0.756200  0.365600  0.362
  N  N1802  1  0.765000  0.243800  0.634400  0.362
  N  N1803  1  0.292000  0.699800  0.318900  0.362
  N  N1804  1  0.708000  0.300200  0.681100  0.362
  N  N1805  1  0.227700  0.666400  0.280100  0.362
  N  N1806  1  0.772300  0.333600  0.719900  0.362
  N  N1807  1  0.149000  0.699200  0.291100  0.362
  N  N1808  1  0.851000  0.300800  0.708900  0.362
  N  N1809  1  0.086000  0.642600  0.348200  0.362
  N  N1810  1  0.914000  0.357400  0.651800  0.362
  N  N1811  1  0.001000  0.669500  0.355600  0.362
  N  N1812  1  0.999000  0.330500  0.644400  0.362
  N  N1813  1  0.026000  0.800600  0.345200  0.362
  N  N1814  1  0.974000  0.199400  0.654800  0.362
  N  N1815  1  0.147400  0.891900  0.324900  0.362
  N  N1816  1  0.852600  0.108100  0.675100  0.362
  N  N1817  1  0.148100  0.036500  0.323100  0.362
  N  N1818  1  0.851900  0.963500  0.676900  0.362
  N  N1819  1  0.031100  0.178800  0.330500  0.362
  N  N1820  1  0.968900  0.821200  0.669500  0.362
  N  N1821  1  0.026000  0.324400  0.320500  0.362
  N  N1822  1  0.974000  0.675600  0.679500  0.362
  N  N1823  1  0.112500  0.292700  0.309500  0.362
  N  N1824  1  0.887500  0.707300  0.690500  0.362
  N  N1825  1  0.122000  0.135800  0.277600  0.362
  N  N1826  1  0.878000  0.864200  0.722400  0.362
  N  N1827  1  0.195700  0.119200  0.261900  0.362
  N  N1828  1  0.804300  0.880800  0.738100  0.362
  N  N1829  1  0.275400  0.149100  0.295900  0.362
  N  N1830  1  0.724600  0.850900  0.704100  0.362
  N  N1831  1  0.235200  0.185600  0.344200  0.362
  N  N1832  1  0.764800  0.814400  0.655800  0.362
  N  N1833  1  0.307000  0.207000  0.381900  0.362
  N  N1834  1  0.693000  0.793000  0.618100  0.362
  N  N1835  1  0.474000  0.219700  0.392700  0.362
  N  N1836  1  0.526000  0.780300  0.607300  0.362
  N  N1837  1  0.554000  0.255300  0.427600  0.362
  N  N1838  1  0.446000  0.744700  0.572400  0.362
  N  N1839  1  0.461000  0.258800  0.443500  0.362
  N  N1840  1  0.539000  0.741200  0.556500  0.362
  N  N1841  1  0.304000  0.384000  0.423100  0.362
  N  N1842  1  0.696000  0.616000  0.576900  0.362
  N  N1843  1  0.223000  0.403300  0.437300  0.362
  N  N1844  1  0.777000  0.596700  0.562700  0.362
  N  N1845  1  0.238000  0.243000  0.446500  0.362
  N  N1846  1  0.762000  0.757000  0.553500  0.362
  N  N1847  1  0.360000  0.102000  0.432500  0.362
  N  N1848  1  0.640000  0.898000  0.567500  0.362
  N  N1849  1  0.338000  0.961000  0.435900  0.362
  N  N1850  1  0.662000  0.039000  0.564100  0.362
  N  N1851  1  0.234000  0.864000  0.463100  0.362
  N  N1852  1  0.766000  0.136000  0.536900  0.362
  N  N1853  1  0.222000  0.726100  0.478000  0.362
  N  N1854  1  0.778000  0.273900  0.522000  0.362
  N  N1855  1  0.304000  0.701700  0.464400  0.362
  N  N1856  1  0.696000  0.298300  0.535600  0.362
  N  N1857  1  0.509000  0.178000  0.044800  0.532
  N  N1858  1  0.491000  0.822000  0.955200  0.532
  N  N1859  1  0.429400  0.184700  0.059800  0.532
  N  N1860  1  0.570600  0.815300  0.940200  0.532
  N  N1861  1  0.515000  0.224000  0.093900  0.532
  N  N1862  1  0.485000  0.776000  0.906100  0.532
  N  N1863  1  0.685500  0.224900  0.104800  0.532
  N  N1864  1  0.314500  0.775100  0.895200  0.532
  N  N1865  1  0.756100  0.249200  0.141700  0.532
  N  N1866  1  0.243900  0.750800  0.858300  0.532
  N  N1867  1  0.709700  0.299300  0.189900  0.532
  N  N1868  1  0.290300  0.700700  0.810100  0.532
  N  N1869  1  0.775600  0.340700  0.226600  0.532
  N  N1870  1  0.224400  0.659300  0.773400  0.532
  N  N1871  1  0.859500  0.312000  0.214600  0.532
  N  N1872  1  0.140500  0.688000  0.785400  0.532
  N  N1873  1  0.887600  0.387800  0.160400  0.532
  N  N1874  1  0.112400  0.612200  0.839600  0.532
  N  N1875  1  0.968400  0.386500  0.148600  0.532
  N  N1876  1  0.031600  0.613500  0.851400  0.532
  N  N1877  1  0.980700  0.239000  0.155300  0.532
  N  N1878  1  0.019300  0.761000  0.844700  0.532
  N  N1879  1  0.885700  0.122900  0.175200  0.532
  N  N1880  1  0.114300  0.877100  0.824800  0.532
  N  N1881  1  0.895300  0.977300  0.170000  0.532
  N  N1882  1  0.104700  0.022700  0.830000  0.532
  N  N1883  1  0.036400  0.852300  0.159700  0.532
  N  N1884  1  0.963600  0.147700  0.840300  0.532
  N  N1885  1  0.076600  0.702300  0.164300  0.532
  N  N1886  1  0.923400  0.297700  0.835700  0.532
  N  N1887  1  0.991500  0.706700  0.177600  0.532
  N  N1888  1  0.008500  0.293300  0.822400  0.532
  N  N1889  1  0.927000  0.854700  0.218900  0.532
  N  N1890  1  0.073000  0.145300  0.781100  0.532
  N  N1891  1  0.846500  0.868300  0.234100  0.532
  N  N1892  1  0.153500  0.131700  0.765900  0.532
  N  N1893  1  0.776800  0.828600  0.198200  0.532
  N  N1894  1  0.223200  0.171400  0.801800  0.532
  N  N1895  1  0.816800  0.798100  0.147700  0.532
  N  N1896  1  0.183200  0.201900  0.852300  0.532
  N  N1897  1  0.735000  0.773700  0.111400  0.532
  N  N1898  1  0.265000  0.226300  0.888600  0.532
  N  N1899  1  0.569900  0.758300  0.102200  0.532
  N  N1900  1  0.430100  0.241700  0.897800  0.532
  N  N1901  1  0.493400  0.734300  0.065000  0.532
  N  N1902  1  0.506600  0.265700  0.935000  0.532
  N  N1903  1  0.581700  0.726500  0.053100  0.532
  N  N1904  1  0.418300  0.273500  0.946900  0.532
  N  N1905  1  0.757700  0.623100  0.064800  0.532
  N  N1906  1  0.242300  0.376900  0.935200  0.532
  N  N1907  1  0.824100  0.624200  0.045600  0.532
  N  N1908  1  0.175900  0.375800  0.954400  0.532
  N  N1909  1  0.783000  0.769800  0.045500  0.532
  N  N1910  1  0.217000  0.230200  0.954500  0.532
  N  N1911  1  0.661800  0.900500  0.066400  0.532
  N  N1912  1  0.338200  0.099500  0.933600  0.532
  N  N1913  1  0.664600  0.045400  0.069500  0.532
  N  N1914  1  0.335400  0.954600  0.930500  0.532
  N  N1915  1  0.740000  0.158100  0.041700  0.532
  N  N1916  1  0.260000  0.841900  0.958300  0.532
  N  N1917  1  0.720600  0.300900  0.033200  0.532
  N  N1918  1  0.279400  0.699100  0.966800  0.532
  N  N1919  1  0.645800  0.311500  0.048600  0.532
  N  N1920  1  0.354200  0.688500  0.951400  0.532
  N  N1921  1  0.468700  0.827400  0.464700  0.638
  N  N1922  1  0.531300  0.172600  0.535300  0.638
  N  N1923  1  0.553700  0.803900  0.452900  0.638
  N  N1924  1  0.446300  0.196100  0.547100  0.638
  N  N1925  1  0.474800  0.770200  0.417300  0.638
  N  N1926  1  0.525200  0.229800  0.582700  0.638
  N  N1927  1  0.304900  0.779000  0.401800  0.638
  N  N1928  1  0.695100  0.221000  0.598200  0.638
  N  N1929  1  0.236400  0.782400  0.363400  0.638
  N  N1930  1  0.763600  0.217600  0.636600  0.638
  N  N1931  1  0.288900  0.725100  0.316500  0.638
  N  N1932  1  0.711100  0.274900  0.683500  0.638
  N  N1933  1  0.222700  0.698300  0.277900  0.638
  N  N1934  1  0.777300  0.301700  0.722100  0.638
  N  N1935  1  0.140400  0.727300  0.290800  0.638
  N  N1936  1  0.859600  0.272700  0.709200  0.638
  N  N1937  1  0.089000  0.669200  0.345500  0.638
  N  N1938  1  0.911000  0.330800  0.654500  0.638
  N  N1939  1  0.999700  0.693000  0.354300  0.638
  N  N1940  1  0.000300  0.307000  0.645700  0.638
  N  N1941  1  0.013300  0.831400  0.341900  0.638
  N  N1942  1  0.986700  0.168600  0.658100  0.638
  N  N1943  1  0.140300  0.918300  0.320700  0.638
  N  N1944  1  0.859700  0.081700  0.679300  0.638
  N  N1945  1  0.151700  0.065300  0.321300  0.638
  N  N1946  1  0.848300  0.934700  0.678700  0.638
  N  N1947  1  0.041000  0.205900  0.327100  0.638
  N  N1948  1  0.959000  0.794100  0.672900  0.638
  N  N1949  1  0.035000  0.347600  0.315900  0.638
  N  N1950  1  0.965000  0.652400  0.684100  0.638
  N  N1951  1  0.120600  0.317900  0.305000  0.638
  N  N1952  1  0.879400  0.682100  0.695000  0.638
  N  N1953  1  0.128700  0.160300  0.274000  0.638
  N  N1954  1  0.871300  0.839700  0.726000  0.638
  N  N1955  1  0.207700  0.139900  0.257900  0.638
  N  N1956  1  0.792300  0.860100  0.742100  0.638
  N  N1957  1  0.277400  0.175800  0.295000  0.638
  N  N1958  1  0.722600  0.824200  0.705000  0.638
  N  N1959  1  0.231800  0.209100  0.342600  0.638
  N  N1960  1  0.768200  0.790900  0.657400  0.638
  N  N1961  1  0.305700  0.222000  0.380000  0.638
  N  N1962  1  0.694300  0.778000  0.620000  0.638
  N  N1963  1  0.469900  0.237400  0.393400  0.638
  N  N1964  1  0.530100  0.762600  0.606600  0.638
  N  N1965  1  0.546900  0.276500  0.429100  0.638
  N  N1966  1  0.453100  0.723500  0.570900  0.638
  N  N1967  1  0.472800  0.275000  0.442700  0.638
  N  N1968  1  0.527200  0.725000  0.557300  0.638
  N  N1969  1  0.299700  0.371400  0.421100  0.638
  N  N1970  1  0.700300  0.628600  0.578900  0.638
  N  N1971  1  0.223700  0.391600  0.437300  0.638
  N  N1972  1  0.776300  0.608400  0.562700  0.638
  N  N1973  1  0.239500  0.253700  0.443400  0.638
  N  N1974  1  0.760500  0.746300  0.556600  0.638
  N  N1975  1  0.346900  0.104200  0.431700  0.638
  N  N1976  1  0.653100  0.895800  0.568300  0.638
  N  N1977  1  0.335500  0.960900  0.432000  0.638
  N  N1978  1  0.664500  0.039100  0.568000  0.638
  N  N1979  1  0.228700  0.878100  0.462100  0.638
  N  N1980  1  0.771300  0.121900  0.537900  0.638
  N  N1981  1  0.227700  0.736000  0.474600  0.638
  N  N1982  1  0.772300  0.264000  0.525400  0.638
  N  N1983  1  0.308300  0.712600  0.460900  0.638
  N  N1984  1  0.691700  0.287400  0.539100  0.638
  N  N1985  1  0.527100  0.156500  0.043500  0.468
  N  N1986  1  0.472900  0.843500  0.956500  0.468
  N  N1987  1  0.444100  0.184000  0.054400  0.468
  N  N1988  1  0.555900  0.816000  0.945600  0.468
  N  N1989  1  0.523700  0.202200  0.091600  0.468
  N  N1990  1  0.476300  0.797800  0.908400  0.468
  N  N1991  1  0.694400  0.198400  0.104700  0.468
  N  N1992  1  0.305600  0.801600  0.895300  0.468
  N  N1993  1  0.772400  0.220200  0.141400  0.468
  N  N1994  1  0.227600  0.779800  0.858600  0.468
  N  N1995  1  0.731100  0.264100  0.188500  0.468
  N  N1996  1  0.268900  0.735900  0.811500  0.468
  N  N1997  1  0.807200  0.299000  0.225800  0.468
  N  N1998  1  0.192800  0.701000  0.774200  0.468
  N  N1999  1  0.883200  0.271300  0.210000  0.468
  N  N2000  1  0.116800  0.728700  0.790000  0.468
  N  N2001  1  0.874700  0.360500  0.159900  0.468
  N  N2002  1  0.125300  0.639500  0.840100  0.468
  N  N2003  1  0.965000  0.358700  0.148700  0.468
  N  N2004  1  0.035000  0.641300  0.851300  0.468
  N  N2005  1  0.984400  0.211200  0.157600  0.468
  N  N2006  1  0.015600  0.788800  0.842400  0.468
  N  N2007  1  0.887200  0.098100  0.177300  0.468
  N  N2008  1  0.112800  0.901900  0.822700  0.468
  N  N2009  1  0.897000  0.952800  0.173300  0.468
  N  N2010  1  0.103000  0.047200  0.826700  0.468
  N  N2011  1  0.033300  0.825700  0.161800  0.468
  N  N2012  1  0.966700  0.174300  0.838200  0.468
  N  N2013  1  0.076300  0.678200  0.168000  0.468
  N  N2014  1  0.923700  0.321800  0.832000  0.468
  N  N2015  1  0.992300  0.679400  0.180800  0.468
  N  N2016  1  0.007700  0.320600  0.819200  0.468
  N  N2017  1  0.927800  0.827500  0.222000  0.468
  N  N2018  1  0.072200  0.172500  0.778000  0.468
  N  N2019  1  0.847900  0.839800  0.236300  0.468
  N  N2020  1  0.152100  0.160200  0.763700  0.468
  N  N2021  1  0.778500  0.801600  0.198100  0.468
  N  N2022  1  0.221500  0.198400  0.801900  0.468
  N  N2023  1  0.818300  0.774900  0.148800  0.468
  N  N2024  1  0.181700  0.225100  0.851200  0.468
  N  N2025  1  0.739000  0.758200  0.113800  0.468
  N  N2026  1  0.261000  0.241800  0.886200  0.468
  N  N2027  1  0.577000  0.740100  0.103400  0.468
  N  N2028  1  0.423000  0.259900  0.896600  0.468
  N  N2029  1  0.491700  0.705100  0.068300  0.468
  N  N2030  1  0.508300  0.294900  0.931700  0.468
  N  N2031  1  0.567500  0.714500  0.052200  0.468
  N  N2032  1  0.432500  0.285500  0.947800  0.468
  N  N2033  1  0.721600  0.618800  0.080600  0.468
  N  N2034  1  0.278400  0.381200  0.919400  0.468
  N  N2035  1  0.797400  0.589700  0.063900  0.468
  N  N2036  1  0.202600  0.410300  0.936100  0.468
  N  N2037  1  0.777600  0.739400  0.055900  0.468
  N  N2038  1  0.222400  0.260600  0.944100  0.468
  N  N2039  1  0.667200  0.873300  0.071000  0.468
  N  N2040  1  0.332800  0.126700  0.929000  0.468
  N  N2041  1  0.667000  0.017800  0.070700  0.468
  N  N2042  1  0.333000  0.982200  0.929300  0.468
  N  N2043  1  0.762500  0.119000  0.041900  0.468
  N  N2044  1  0.237500  0.881000  0.958100  0.468
  N  N2045  1  0.759100  0.265100  0.030500  0.468
  N  N2046  1  0.240900  0.734900  0.969500  0.468
  N  N2047  1  0.679100  0.279400  0.046500  0.468
  N  N2048  1  0.320900  0.720600  0.953500  0.468
  F  F2049  1  0.796500  0.681700  0.301100  0.561
  F  F2050  1  0.203500  0.318300  0.698900  0.561
  F  F2051  1  0.722100  0.633300  0.334000  0.561
  F  F2052  1  0.277900  0.366700  0.666000  0.561
  F  F2053  1  0.677900  0.635100  0.292000  0.561
  F  F2054  1  0.322100  0.364900  0.708000  0.561
  F  F2055  1  0.668100  0.758300  0.314100  0.561
  F  F2056  1  0.331900  0.241700  0.685900  0.561
  F  F2057  1  0.197100  0.936300  0.066700  0.642
  F  F2058  1  0.802900  0.063700  0.933300  0.642
  F  F2059  1  0.215100  0.838900  0.034900  0.642
  F  F2060  1  0.784900  0.161100  0.965100  0.642
  F  F2061  1  0.235800  0.979000  0.024800  0.642
  F  F2062  1  0.764200  0.021000  0.975200  0.642
  F  F2063  1  0.096800  0.954300  0.034700  0.642
  F  F2064  1  0.903200  0.045700  0.965300  0.642
  F  F2065  1  0.817000  0.538000  0.480700  0.091
  F  F2066  1  0.183000  0.462000  0.519300  0.091
  F  F2067  1  0.904000  0.491000  0.445100  0.091
  F  F2068  1  0.096000  0.509000  0.554900  0.091
  F  F2069  1  0.833000  0.627000  0.433200  0.091
  F  F2070  1  0.167000  0.373000  0.566800  0.091
  F  F2071  1  0.795000  0.530000  0.433800  0.091
  F  F2072  1  0.205000  0.470000  0.566200  0.091
  F  F2073  1  0.724000  0.122000  0.450500  0.122
  F  F2074  1  0.276000  0.878000  0.549500  0.122
  F  F2075  1  0.839000  0.043000  0.430800  0.122
  F  F2076  1  0.161000  0.957000  0.569200  0.122
  F  F2077  1  0.812000  0.013000  0.473500  0.122
  F  F2078  1  0.188000  0.987000  0.526500  0.122
  F  F2079  1  0.868000  0.134000  0.461300  0.122
  F  F2080  1  0.132000  0.866000  0.538700  0.122
  F  F2081  1  0.173600  0.978500  0.065400  0.358
  F  F2082  1  0.826400  0.021500  0.934600  0.358
  F  F2083  1  0.281000  0.948800  0.036100  0.358
  F  F2084  1  0.719000  0.051200  0.963900  0.358
  F  F2085  1  0.145000  0.032700  0.025600  0.358
  F  F2086  1  0.855000  0.967300  0.974400  0.358
  F  F2087  1  0.169000  0.882600  0.030800  0.358
  F  F2088  1  0.831000  0.117400  0.969200  0.358
  F  F2089  1  0.737800  0.264400  0.311200  0.414
  F  F2090  1  0.262200  0.735600  0.688800  0.414
  F  F2091  1  0.754500  0.209500  0.272200  0.414
  F  F2092  1  0.245500  0.790500  0.727800  0.414
  F  F2093  1  0.627900  0.216600  0.292300  0.414
  F  F2094  1  0.372100  0.783400  0.707700  0.414
  F  F2095  1  0.738400  0.119000  0.310500  0.414
  F  F2096  1  0.261600  0.881000  0.689500  0.414
  F  F2097  1  0.801200  0.659300  0.317000  0.439
  F  F2098  1  0.198800  0.340700  0.683000  0.439
  F  F2099  1  0.680200  0.712800  0.338700  0.439
  F  F2100  1  0.319800  0.287200  0.661300  0.439
  F  F2101  1  0.667000  0.603300  0.310800  0.439
  F  F2102  1  0.333000  0.396700  0.689200  0.439
  F  F2103  1  0.673900  0.739400  0.297500  0.439
  F  F2104  1  0.326100  0.260600  0.702500  0.439
  F  F2105  1  0.406500  0.873000  0.202800  0.484
  F  F2106  1  0.593500  0.127000  0.797200  0.484
  F  F2107  1  0.278500  0.851500  0.185300  0.484
  F  F2108  1  0.721500  0.148500  0.814700  0.484
  F  F2109  1  0.305200  0.804300  0.228200  0.484
  F  F2110  1  0.694800  0.195700  0.771800  0.484
  F  F2111  1  0.386100  0.737300  0.195000  0.484
  F  F2112  1  0.613900  0.262700  0.805000  0.484
  F  F2113  1  0.320100  0.262000  0.196000  0.485
  F  F2114  1  0.679900  0.738000  0.804000  0.485
  F  F2115  1  0.224900  0.365100  0.176300  0.485
  F  F2116  1  0.775100  0.634900  0.823700  0.485
  F  F2117  1  0.360600  0.392100  0.188300  0.485
  F  F2118  1  0.639400  0.607900  0.811700  0.485
  F  F2119  1  0.233100  0.386500  0.213700  0.485
  F  F2120  1  0.766900  0.613500  0.786300  0.485
  F  F2121  1  0.265700  0.397300  0.042800  0.493
  F  F2122  1  0.734300  0.602700  0.957200  0.493
  F  F2123  1  0.155800  0.364900  0.069600  0.493
  F  F2124  1  0.844200  0.635100  0.930400  0.493
  F  F2125  1  0.119300  0.467000  0.037800  0.493
  F  F2126  1  0.880700  0.533000  0.962200  0.493
  F  F2127  1  0.197700  0.483000  0.075100  0.493
  F  F2128  1  0.802300  0.517000  0.924900  0.493
  F  F2129  1  0.347000  0.259100  0.187100  0.515
  F  F2130  1  0.653000  0.740900  0.812900  0.515
  F  F2131  1  0.284200  0.381000  0.173100  0.515
  F  F2132  1  0.715800  0.619000  0.826900  0.515
  F  F2133  1  0.346600  0.382000  0.213200  0.515
  F  F2134  1  0.653400  0.618000  0.786800  0.515
  F  F2135  1  0.230700  0.313300  0.210900  0.515
  F  F2136  1  0.769300  0.686700  0.789100  0.515
  F  F2137  1  0.376900  0.875900  0.193400  0.516
  F  F2138  1  0.623100  0.124100  0.806600  0.516
  F  F2139  1  0.296900  0.766700  0.187900  0.516
  F  F2140  1  0.703100  0.233300  0.812100  0.516
  F  F2141  1  0.298700  0.835800  0.227500  0.516
  F  F2142  1  0.701300  0.164200  0.772500  0.516
  F  F2143  1  0.423300  0.740900  0.211100  0.516
  F  F2144  1  0.576700  0.259100  0.788900  0.516
  F  F2145  1  0.652900  0.244500  0.303800  0.586
  F  F2146  1  0.347100  0.755500  0.696200  0.586
  F  F2147  1  0.742600  0.162200  0.272300  0.586
  F  F2148  1  0.257400  0.837800  0.727700  0.586
  F  F2149  1  0.641900  0.105300  0.297900  0.586
  F  F2150  1  0.358100  0.894700  0.702100  0.586
  F  F2151  1  0.775000  0.136000  0.312200  0.586
  F  F2152  1  0.225000  0.864000  0.687800  0.586
  F  F2153  1  0.766100  0.160500  0.464510  0.878
  F  F2154  1  0.233900  0.839500  0.535490  0.878
  F  F2155  1  0.820700  0.095400  0.426080  0.878
  F  F2156  1  0.179300  0.904600  0.573920  0.878
  F  F2157  1  0.811000  0.012400  0.462620  0.878
  F  F2158  1  0.189000  0.987600  0.537380  0.878
  F  F2159  1  0.913900  0.105900  0.459730  0.878
  F  F2160  1  0.086100  0.894100  0.540270  0.878
  F  F2161  1  0.757700  0.568600  0.467780  0.909
  F  F2162  1  0.242300  0.431400  0.532220  0.909
  F  F2163  1  0.902300  0.532200  0.477900  0.909
  F  F2164  1  0.097700  0.467800  0.522100  0.909
  F  F2165  1  0.861700  0.637600  0.448630  0.909
  F  F2166  1  0.138300  0.362400  0.551370  0.909
  F  F2167  1  0.856900  0.495600  0.438430  0.909
  F  F2168  1  0.143100  0.504400  0.561570  0.909
  F  F2169  1  0.289300  0.421400  0.050600  0.507
  F  F2170  1  0.710700  0.578600  0.949400  0.507
  F  F2171  1  0.148500  0.377500  0.055700  0.507
  F  F2172  1  0.851500  0.622500  0.944300  0.507
  F  F2173  1  0.180900  0.452500  0.021000  0.507
  F  F2174  1  0.819100  0.547500  0.979000  0.507
  F  F2175  1  0.165700  0.520000  0.059500  0.507
  F  F2176  1  0.834300  0.480000  0.940500  0.507
