# generated using pymatgen
data_FeBH25C29(N2F)4
_symmetry_space_group_name_H-M   'P 1'
_cell_length_a   14.60400000
_cell_length_b   15.27200000
_cell_length_c   25.11800000
_cell_angle_alpha   89.53300000
_cell_angle_beta   88.97400000
_cell_angle_gamma   84.14300000
_symmetry_Int_Tables_number   1
_chemical_formula_structural   FeBH25C29(N2F)4
_chemical_formula_sum   'Fe16 B16 H400 C464 N128 F64'
_cell_volume   5571.87404317
_cell_formula_units_Z   16
loop_
 _symmetry_equiv_pos_site_id
 _symmetry_equiv_pos_as_xyz
  1  'x, y, z'
loop_
 _atom_site_type_symbol
 _atom_site_label
 _atom_site_symmetry_multiplicity
 _atom_site_fract_x
 _atom_site_fract_y
 _atom_site_fract_z
 _atom_site_occupancy
  Fe  Fe1  1  0.645600  0.667100  0.127100  1
  Fe  Fe2  1  0.354400  0.332900  0.872900  1
  Fe  Fe3  1  0.858500  0.725200  0.342200  1
  Fe  Fe4  1  0.141500  0.274800  0.657800  1
  Fe  Fe5  1  0.854900  0.316300  0.373730  1
  Fe  Fe6  1  0.145100  0.683700  0.626270  1
  Fe  Fe7  1  0.651000  0.254600  0.162300  1
  Fe  Fe8  1  0.349000  0.745400  0.837700  1
  Fe  Fe9  1  0.646400  0.685400  0.125600  1
  Fe  Fe10  1  0.353600  0.314600  0.874400  1
  Fe  Fe11  1  0.844100  0.753000  0.341800  1
  Fe  Fe12  1  0.155900  0.247000  0.658200  1
  Fe  Fe13  1  0.869100  0.336400  0.362000  1
  Fe  Fe14  1  0.130900  0.663600  0.638000  1
  Fe  Fe15  1  0.649700  0.261600  0.157400  1
  Fe  Fe16  1  0.350300  0.738400  0.842600  1
  B  B17  1  0.149600  0.926500  0.088500  1
  B  B18  1  0.850400  0.073500  0.911500  1
  B  B19  1  0.295700  0.833300  0.385100  1
  B  B20  1  0.704300  0.166700  0.614900  1
  B  B21  1  0.309800  0.290900  0.409200  1
  B  B22  1  0.690200  0.709100  0.590800  1
  B  B23  1  0.169100  0.419900  0.080900  1
  B  B24  1  0.830900  0.580100  0.919100  1
  B  B25  1  0.153100  0.936800  0.083200  1
  B  B26  1  0.846900  0.063200  0.916800  1
  B  B27  1  0.299000  0.847400  0.388800  1
  B  B28  1  0.701000  0.152600  0.611200  1
  B  B29  1  0.314200  0.332200  0.406500  1
  B  B30  1  0.685800  0.667800  0.593500  1
  B  B31  1  0.192200  0.413600  0.095700  1
  B  B32  1  0.807800  0.586400  0.904300  1
  H  H33  1  0.103600  0.425800  0.268300  1
  H  H34  1  0.896400  0.574200  0.731700  1
  H  H35  1  0.189400  0.279200  0.252900  1
  H  H36  1  0.810600  0.720800  0.747100  1
  H  H37  1  0.135400  0.165600  0.295900  1
  H  H38  1  0.864600  0.834400  0.704100  1
  H  H39  1  0.142800  0.072400  0.368800  1
  H  H40  1  0.857200  0.927600  0.631200  1
  H  H41  1  0.094500  0.011600  0.328400  1
  H  H42  1  0.905500  0.988400  0.671600  1
  H  H43  1  0.108300  0.981600  0.389200  1
  H  H44  1  0.891700  0.018400  0.610800  1
  H  H45  1  0.940100  0.988000  0.416800  1
  H  H46  1  0.059900  0.012000  0.583200  1
  H  H47  1  0.766200  0.068600  0.467100  1
  H  H48  1  0.233800  0.931400  0.532900  1
  H  H49  1  0.731900  0.119400  0.413900  1
  H  H50  1  0.268100  0.880600  0.586100  1
  H  H51  1  0.767100  0.173100  0.462700  1
  H  H52  1  0.232900  0.826900  0.537300  1
  H  H53  1  0.585400  0.652800  0.969600  1
  H  H54  1  0.414600  0.347200  0.030400  1
  H  H55  1  0.550400  0.556900  0.970800  1
  H  H56  1  0.449600  0.443100  0.029200  1
  H  H57  1  0.628400  0.580100  0.010800  1
  H  H58  1  0.371600  0.419900  0.989200  1
  H  H59  1  0.234600  0.636600  0.078300  1
  H  H60  1  0.765400  0.363400  0.921700  1
  H  H61  1  0.253500  0.736700  0.087500  1
  H  H62  1  0.746500  0.263300  0.912500  1
  H  H63  1  0.271900  0.665600  0.134300  1
  H  H64  1  0.728100  0.334400  0.865700  1
  H  H65  1  0.726900  0.853400  0.550300  1
  H  H66  1  0.273100  0.146600  0.449700  1
  H  H67  1  0.705300  0.926800  0.505200  1
  H  H68  1  0.294700  0.073200  0.494800  1
  H  H69  1  0.784800  0.936800  0.547100  1
  H  H70  1  0.215200  0.063200  0.452900  1
  H  H71  1  0.054900  0.838600  0.393600  1
  H  H72  1  0.945100  0.161400  0.606400  1
  H  H73  1  0.061000  0.734700  0.404400  1
  H  H74  1  0.939000  0.265300  0.595600  1
  H  H75  1  0.089800  0.799100  0.449800  1
  H  H76  1  0.910200  0.200900  0.550200  1
  H  H77  1  0.375600  0.598400  0.004600  1
  H  H78  1  0.624400  0.401600  0.995400  1
  H  H79  1  0.306900  0.769600  0.160400  1
  H  H80  1  0.693100  0.230400  0.839600  1
  H  H81  1  0.326700  0.838100  0.240800  1
  H  H82  1  0.673300  0.161900  0.759200  1
  H  H83  1  0.471200  0.824400  0.281900  1
  H  H84  1  0.528800  0.175600  0.718100  1
  H  H85  1  0.515200  0.746700  0.346600  1
  H  H86  1  0.484800  0.253300  0.653400  1
  H  H87  1  0.495600  0.783400  0.436200  1
  H  H88  1  0.504400  0.216600  0.563800  1
  H  H89  1  0.622200  0.808900  0.485900  1
  H  H90  1  0.377800  0.191100  0.514100  1
  H  H91  1  0.949100  0.878000  0.510500  1
  H  H92  1  0.050900  0.122000  0.489500  1
  H  H93  1  0.875500  0.561200  0.211300  1
  H  H94  1  0.124500  0.438800  0.788700  1
  H  H95  1  0.025900  0.528200  0.181100  1
  H  H96  1  0.974100  0.471800  0.818900  1
  H  H97  1  0.103500  0.637300  0.144600  1
  H  H98  1  0.896500  0.362700  0.855400  1
  H  H99  1  0.032000  0.783100  0.142500  1
  H  H100  1  0.968000  0.216900  0.857500  1
  H  H101  1  0.880100  0.810300  0.171000  1
  H  H102  1  0.119900  0.189700  0.829000  1
  H  H103  1  0.754600  0.935600  0.297700  1
  H  H104  1  0.245400  0.064400  0.702300  1
  H  H105  1  0.795100  0.028800  0.291500  1
  H  H106  1  0.204900  0.971200  0.708500  1
  H  H107  1  0.797100  0.979600  0.348000  1
  H  H108  1  0.202900  0.020400  0.652000  1
  H  H109  1  0.129300  0.954200  0.215800  1
  H  H110  1  0.870700  0.045800  0.784200  1
  H  H111  1  0.139100  0.848900  0.213300  1
  H  H112  1  0.860900  0.151100  0.786700  1
  H  H113  1  0.178000  0.897300  0.263200  1
  H  H114  1  0.822000  0.102700  0.736800  1
  H  H115  1  0.963500  0.006000  0.251900  1
  H  H116  1  0.036500  0.994000  0.748100  1
  H  H117  1  0.190700  0.771300  0.293900  1
  H  H118  1  0.809300  0.228700  0.706100  1
  H  H119  1  0.245700  0.625400  0.315200  1
  H  H120  1  0.754300  0.374600  0.684800  1
  H  H121  1  0.148700  0.516900  0.327300  1
  H  H122  1  0.851300  0.483100  0.672700  1
  H  H123  1  0.671100  0.476200  0.326800  1
  H  H124  1  0.328900  0.523800  0.673200  1
  H  H125  1  0.525900  0.479200  0.366400  1
  H  H126  1  0.474100  0.520800  0.633600  1
  H  H127  1  0.497300  0.531800  0.447000  1
  H  H128  1  0.502700  0.468200  0.553000  1
  H  H129  1  0.608600  0.591900  0.493600  1
  H  H130  1  0.391400  0.408100  0.506400  1
  H  H131  1  0.759200  0.590000  0.455900  1
  H  H132  1  0.240800  0.410000  0.544100  1
  H  H133  1  0.060500  0.291700  0.444200  1
  H  H134  1  0.939500  0.708300  0.555800  1
  H  H135  1  0.099000  0.361400  0.483000  1
  H  H136  1  0.901000  0.638600  0.517000  1
  H  H137  1  0.075300  0.388300  0.422700  1
  H  H138  1  0.924700  0.611700  0.577300  1
  H  H139  1  0.747900  0.379700  0.579100  1
  H  H140  1  0.252100  0.620300  0.420900  1
  H  H141  1  0.724400  0.467400  0.544600  1
  H  H142  1  0.275600  0.532600  0.455400  1
  H  H143  1  0.802400  0.463800  0.588700  1
  H  H144  1  0.197600  0.536200  0.411300  1
  H  H145  1  0.282400  0.217300  0.111800  1
  H  H146  1  0.717600  0.782700  0.888200  1
  H  H147  1  0.320700  0.137300  0.149400  1
  H  H148  1  0.679300  0.862700  0.850600  1
  H  H149  1  0.300200  0.119900  0.088200  1
  H  H150  1  0.699800  0.880100  0.911800  1
  H  H151  1  0.674900  0.118300  0.031400  1
  H  H152  1  0.325100  0.881700  0.968600  1
  H  H153  1  0.673400  0.222500  0.023200  1
  H  H154  1  0.326600  0.777500  0.976800  1
  H  H155  1  0.613400  0.167100  0.985800  1
  H  H156  1  0.386600  0.832900  0.014200  1
  H  H157  1  0.968000  0.443500  0.542700  1
  H  H158  1  0.032000  0.556500  0.457300  1
  H  H159  1  0.663300  0.319800  0.521700  1
  H  H160  1  0.336700  0.680200  0.478300  1
  H  H161  1  0.536100  0.269900  0.474700  1
  H  H162  1  0.463900  0.730100  0.525300  1
  H  H163  1  0.548700  0.251600  0.383100  1
  H  H164  1  0.451300  0.748400  0.616900  1
  H  H165  1  0.476400  0.313500  0.324500  1
  H  H166  1  0.523600  0.686500  0.675500  1
  H  H167  1  0.335200  0.298000  0.285900  1
  H  H168  1  0.664800  0.702000  0.714100  1
  H  H169  1  0.325600  0.242300  0.201300  1
  H  H170  1  0.674400  0.757700  0.798700  1
  H  H171  1  0.445900  0.142400  0.021800  1
  H  H172  1  0.554100  0.857600  0.978200  1
  H  H173  1  0.883900  0.397400  0.188300  1
  H  H174  1  0.116100  0.602600  0.811700  1
  H  H175  1  0.019400  0.360200  0.136600  1
  H  H176  1  0.980600  0.639800  0.863400  1
  H  H177  1  0.079800  0.213000  0.134900  1
  H  H178  1  0.920200  0.787000  0.865100  1
  H  H179  1  0.017400  0.105400  0.187000  1
  H  H180  1  0.982600  0.894600  0.813000  1
  H  H181  1  0.904000  0.147100  0.250000  1
  H  H182  1  0.096000  0.852900  0.750000  1
  H  H183  1  0.590100  0.093800  0.255300  1
  H  H184  1  0.409900  0.906200  0.744700  1
  H  H185  1  0.609900  0.989400  0.249200  1
  H  H186  1  0.390100  0.010600  0.750800  1
  H  H187  1  0.542400  0.044500  0.208800  1
  H  H188  1  0.457600  0.955500  0.791200  1
  H  H189  1  0.885300  0.958000  0.081300  1
  H  H190  1  0.114700  0.042000  0.918700  1
  H  H191  1  0.916700  0.921300  0.138700  1
  H  H192  1  0.083300  0.078700  0.861300  1
  H  H193  1  0.942900  0.015500  0.118800  1
  H  H194  1  0.057100  0.984500  0.881200  1
  H  H195  1  0.859300  0.895900  0.962000  1
  H  H196  1  0.140700  0.104100  0.038000  1
  H  H197  1  0.877200  0.790800  0.962400  1
  H  H198  1  0.122800  0.209200  0.037600  1
  H  H199  1  0.928000  0.846900  0.004200  1
  H  H200  1  0.072000  0.153100  0.995800  1
  H  H201  1  0.521900  0.871200  0.083200  1
  H  H202  1  0.478100  0.128800  0.916800  1
  H  H203  1  0.560700  0.965500  0.083000  1
  H  H204  1  0.439300  0.034500  0.917000  1
  H  H205  1  0.573900  0.902500  0.134100  1
  H  H206  1  0.426100  0.097500  0.865900  1
  H  H207  1  0.750900  0.921600  0.191500  1
  H  H208  1  0.249100  0.078400  0.808500  1
  H  H209  1  0.897800  0.099800  0.052000  1
  H  H210  1  0.102200  0.900200  0.948000  1
  H  H211  1  0.916900  0.219800  0.999500  1
  H  H212  1  0.083100  0.780200  0.000500  1
  H  H213  1  0.851800  0.362500  0.023500  1
  H  H214  1  0.148200  0.637500  0.976500  1
  H  H215  1  0.919400  0.454400  0.076500  1
  H  H216  1  0.080600  0.545600  0.923500  1
  H  H217  1  0.997300  0.555800  0.031800  1
  H  H218  1  0.002700  0.444200  0.968200  1
  H  H219  1  0.941500  0.698400  0.026300  1
  H  H220  1  0.058500  0.301600  0.973700  1
  H  H221  1  0.705700  0.957600  0.022300  1
  H  H222  1  0.294300  0.042400  0.977700  1
  H  H223  1  0.586100  0.539300  0.246500  1
  H  H224  1  0.413900  0.460700  0.753500  1
  H  H225  1  0.454200  0.586800  0.295200  1
  H  H226  1  0.545800  0.413200  0.704800  1
  H  H227  1  0.315300  0.545700  0.268600  1
  H  H228  1  0.684700  0.454300  0.731400  1
  H  H229  1  0.300900  0.473400  0.188500  1
  H  H230  1  0.699100  0.526600  0.811500  1
  H  H231  1  0.438300  0.422200  0.135600  1
  H  H232  1  0.561700  0.577800  0.864400  1
  H  H233  1  0.102200  0.477000  0.255300  1
  H  H234  1  0.897800  0.523000  0.744700  1
  H  H235  1  0.184900  0.330800  0.233700  1
  H  H236  1  0.815100  0.669200  0.766300  1
  H  H237  1  0.144500  0.212800  0.281100  1
  H  H238  1  0.855500  0.787200  0.718900  1
  H  H239  1  0.152400  0.054600  0.371000  1
  H  H240  1  0.847600  0.945400  0.629000  1
  H  H241  1  0.142300  0.140400  0.333700  1
  H  H242  1  0.857700  0.859600  0.666300  1
  H  H243  1  0.115000  0.048600  0.311800  1
  H  H244  1  0.885000  0.951400  0.688200  1
  H  H245  1  0.971900  0.029100  0.406900  1
  H  H246  1  0.028100  0.970900  0.593100  1
  H  H247  1  0.751300  0.153300  0.412000  1
  H  H248  1  0.248700  0.846700  0.588000  1
  H  H249  1  0.807400  0.165700  0.465100  1
  H  H250  1  0.192600  0.834300  0.534900  1
  H  H251  1  0.794900  0.068900  0.444300  1
  H  H252  1  0.205100  0.931100  0.555700  1
  H  H253  1  0.633200  0.660500  0.982600  1
  H  H254  1  0.366800  0.339500  0.017400  1
  H  H255  1  0.570900  0.594700  0.954400  1
  H  H256  1  0.429100  0.405300  0.045600  1
  H  H257  1  0.637400  0.560000  0.001700  1
  H  H258  1  0.362600  0.440000  0.998300  1
  H  H259  1  0.236600  0.706200  0.083800  1
  H  H260  1  0.763400  0.293800  0.916200  1
  H  H261  1  0.279600  0.634000  0.125400  1
  H  H262  1  0.720400  0.366000  0.874600  1
  H  H263  1  0.254600  0.605100  0.066700  1
  H  H264  1  0.745400  0.394900  0.933300  1
  H  H265  1  0.759300  0.976100  0.544400  1
  H  H266  1  0.240700  0.023900  0.455600  1
  H  H267  1  0.705000  0.890400  0.549500  1
  H  H268  1  0.295000  0.109600  0.450500  1
  H  H269  1  0.683100  0.959000  0.501700  1
  H  H270  1  0.316900  0.041000  0.498300  1
  H  H271  1  0.041600  0.748800  0.415200  1
  H  H272  1  0.958400  0.251200  0.584800  1
  H  H273  1  0.069800  0.783100  0.472000  1
  H  H274  1  0.930200  0.216900  0.528000  1
  H  H275  1  0.060700  0.849400  0.422300  1
  H  H276  1  0.939300  0.150600  0.577700  1
  H  H277  1  0.398700  0.592100  0.996900  1
  H  H278  1  0.601300  0.407900  0.003100  1
  H  H279  1  0.316600  0.808900  0.150500  1
  H  H280  1  0.683400  0.191100  0.849500  1
  H  H281  1  0.338900  0.876800  0.233600  1
  H  H282  1  0.661100  0.123200  0.766400  1
  H  H283  1  0.482800  0.852100  0.275800  1
  H  H284  1  0.517200  0.147900  0.724200  1
  H  H285  1  0.507200  0.780900  0.343000  1
  H  H286  1  0.492800  0.219100  0.657000  1
  H  H287  1  0.490800  0.817800  0.434600  1
  H  H288  1  0.509200  0.182200  0.565400  1
  H  H289  1  0.622600  0.837100  0.483400  1
  H  H290  1  0.377400  0.162900  0.516600  1
  H  H291  1  0.931300  0.910600  0.517500  1
  H  H292  1  0.068700  0.089400  0.482500  1
  H  H293  1  0.873100  0.546200  0.223600  1
  H  H294  1  0.126900  0.453800  0.776400  1
  H  H295  1  0.014100  0.494900  0.187700  1
  H  H296  1  0.985900  0.505100  0.812300  1
  H  H297  1  0.111400  0.600200  0.161100  1
  H  H298  1  0.888600  0.399800  0.838900  1
  H  H299  1  0.062000  0.743300  0.150600  1
  H  H300  1  0.938000  0.256700  0.849400  1
  H  H301  1  0.910100  0.797700  0.191700  1
  H  H302  1  0.089900  0.202300  0.808300  1
  H  H303  1  0.682100  0.958100  0.310000  1
  H  H304  1  0.317900  0.041900  0.690000  1
  H  H305  1  0.723400  0.030800  0.345400  1
  H  H306  1  0.276600  0.969200  0.654600  1
  H  H307  1  0.721700  0.932500  0.367700  1
  H  H308  1  0.278300  0.067500  0.632300  1
  H  H309  1  0.075300  0.012800  0.265900  1
  H  H310  1  0.924700  0.987200  0.734100  1
  H  H311  1  0.029500  0.014300  0.208500  1
  H  H312  1  0.970500  0.985700  0.791500  1
  H  H313  1  0.071600  0.922900  0.234100  1
  H  H314  1  0.928400  0.077100  0.765900  1
  H  H315  1  0.857200  0.066900  0.284300  1
  H  H316  1  0.142800  0.933100  0.715700  1
  H  H317  1  0.127400  0.837600  0.266300  1
  H  H318  1  0.872600  0.162400  0.733700  1
  H  H319  1  0.212500  0.689000  0.277300  1
  H  H320  1  0.787500  0.311000  0.722700  1
  H  H321  1  0.132100  0.575800  0.305900  1
  H  H322  1  0.867900  0.424200  0.694100  1
  H  H323  1  0.659000  0.505600  0.321100  1
  H  H324  1  0.341000  0.494400  0.678900  1
  H  H325  1  0.510000  0.509200  0.359200  1
  H  H326  1  0.490000  0.490800  0.640800  1
  H  H327  1  0.486000  0.566200  0.447700  1
  H  H328  1  0.514000  0.433800  0.552300  1
  H  H329  1  0.606900  0.622500  0.494600  1
  H  H330  1  0.393100  0.377500  0.505400  1
  H  H331  1  0.751000  0.613400  0.456700  1
  H  H332  1  0.249000  0.386600  0.543300  1
  H  H333  1  0.080700  0.319600  0.428800  1
  H  H334  1  0.919300  0.680400  0.571200  1
  H  H335  1  0.104400  0.386900  0.473800  1
  H  H336  1  0.895600  0.613100  0.526200  1
  H  H337  1  0.055200  0.423200  0.420500  1
  H  H338  1  0.944800  0.576800  0.579500  1
  H  H339  1  0.686800  0.439000  0.552100  1
  H  H340  1  0.313200  0.561000  0.447900  1
  H  H341  1  0.755700  0.493100  0.584300  1
  H  H342  1  0.244300  0.506900  0.415700  1
  H  H343  1  0.752600  0.390300  0.595800  1
  H  H344  1  0.247400  0.609700  0.404200  1
  H  H345  1  0.296200  0.118700  0.156100  1
  H  H346  1  0.703800  0.881300  0.843900  1
  H  H347  1  0.253000  0.156600  0.101400  1
  H  H348  1  0.747000  0.843400  0.898600  1
  H  H349  1  0.263300  0.221500  0.150200  1
  H  H350  1  0.736700  0.778500  0.849800  1
  H  H351  1  0.641000  0.215500  0.027900  1
  H  H352  1  0.359000  0.784500  0.972100  1
  H  H353  1  0.577300  0.161700  0.991800  1
  H  H354  1  0.422700  0.838300  0.008200  1
  H  H355  1  0.638400  0.112000  0.037200  1
  H  H356  1  0.361600  0.888000  0.962800  1
  H  H357  1  0.950700  0.415800  0.554500  1
  H  H358  1  0.049300  0.584200  0.445500  1
  H  H359  1  0.642700  0.355100  0.523400  1
  H  H360  1  0.357300  0.644900  0.476600  1
  H  H361  1  0.520600  0.309900  0.478700  1
  H  H362  1  0.479400  0.690100  0.521300  1
  H  H363  1  0.529500  0.283400  0.386000  1
  H  H364  1  0.470500  0.716600  0.614000  1
  H  H365  1  0.464900  0.354300  0.321000  1
  H  H366  1  0.535100  0.645700  0.679000  1
  H  H367  1  0.320200  0.338800  0.286000  1
  H  H368  1  0.679800  0.661200  0.714000  1
  H  H369  1  0.314500  0.289700  0.197400  1
  H  H370  1  0.685500  0.710300  0.802600  1
  H  H371  1  0.417700  0.113700  0.038600  1
  H  H372  1  0.582300  0.886300  0.961400  1
  H  H373  1  0.864600  0.406200  0.213300  1
  H  H374  1  0.135400  0.593800  0.786700  1
  H  H375  1  0.985100  0.405500  0.150800  1
  H  H376  1  0.014900  0.594500  0.849200  1
  H  H377  1  0.072100  0.275000  0.128100  1
  H  H378  1  0.927900  0.725000  0.871900  1
  H  H379  1  0.034700  0.145400  0.164700  1
  H  H380  1  0.965300  0.854600  0.835300  1
  H  H381  1  0.891600  0.146000  0.213500  1
  H  H382  1  0.108400  0.854000  0.786500  1
  H  H383  1  0.625500  0.081200  0.254400  1
  H  H384  1  0.374500  0.918800  0.745600  1
  H  H385  1  0.593800  0.992200  0.230900  1
  H  H386  1  0.406200  0.007800  0.769100  1
  H  H387  1  0.555400  0.085200  0.206000  1
  H  H388  1  0.444600  0.914800  0.794000  1
  H  H389  1  0.910100  0.933400  0.113900  1
  H  H390  1  0.089900  0.066600  0.886100  1
  H  H391  1  0.937800  0.031200  0.104800  1
  H  H392  1  0.062200  0.968800  0.895200  1
  H  H393  1  0.872000  0.990000  0.063600  1
  H  H394  1  0.128000  0.010000  0.936400  1
  H  H395  1  0.857200  0.924800  0.974200  1
  H  H396  1  0.142800  0.075200  0.025800  1
  H  H397  1  0.854400  0.822600  0.961500  1
  H  H398  1  0.145600  0.177400  0.038500  1
  H  H399  1  0.912100  0.851700  0.010800  1
  H  H400  1  0.087900  0.148300  0.989200  1
  H  H401  1  0.570500  0.989000  0.105700  1
  H  H402  1  0.429500  0.011000  0.894300  1
  H  H403  1  0.555600  0.892500  0.127400  1
  H  H404  1  0.444400  0.107500  0.872600  1
  H  H405  1  0.514900  0.925200  0.071100  1
  H  H406  1  0.485100  0.074800  0.928900  1
  H  H407  1  0.763100  0.936500  0.175700  1
  H  H408  1  0.236900  0.063500  0.824300  1
  H  H409  1  0.889800  0.127200  0.038300  1
  H  H410  1  0.110200  0.872800  0.961700  1
  H  H411  1  0.909400  0.247900  0.987900  1
  H  H412  1  0.090600  0.752100  0.012100  1
  H  H413  1  0.831700  0.388600  0.015800  1
  H  H414  1  0.168300  0.611400  0.984200  1
  H  H415  1  0.903100  0.468600  0.065700  1
  H  H416  1  0.096900  0.531400  0.934300  1
  H  H417  1  0.013300  0.578400  0.047300  1
  H  H418  1  0.986700  0.421600  0.952700  1
  H  H419  1  0.948000  0.725900  0.036900  1
  H  H420  1  0.052000  0.274100  0.963100  1
  H  H421  1  0.705600  0.976100  0.014000  1
  H  H422  1  0.294400  0.023900  0.986000  1
  H  H423  1  0.567900  0.569300  0.243300  1
  H  H424  1  0.432100  0.430700  0.756700  1
  H  H425  1  0.420400  0.613900  0.276100  1
  H  H426  1  0.579600  0.386100  0.723900  1
  H  H427  1  0.294500  0.565600  0.237400  1
  H  H428  1  0.705500  0.434400  0.762600  1
  H  H429  1  0.308700  0.479800  0.160400  1
  H  H430  1  0.691300  0.520200  0.839600  1
  H  H431  1  0.453200  0.445300  0.130000  1
  H  H432  1  0.546800  0.554700  0.870000  1
  C  C433  1  0.010200  0.376500  0.319300  1
  C  C434  1  0.989800  0.623500  0.680700  1
  C  C435  1  0.085700  0.374000  0.285000  1
  C  C436  1  0.914300  0.626000  0.715000  1
  C  C437  1  0.136600  0.287600  0.275600  1
  C  C438  1  0.863400  0.712400  0.724400  1
  C  C439  1  0.101500  0.221100  0.302400  1
  C  C440  1  0.898500  0.778900  0.697600  1
  C  C441  1  0.031700  0.215700  0.335000  1
  C  C442  1  0.968300  0.784300  0.665000  1
  C  C443  1  0.015200  0.073100  0.377700  1
  C  C444  1  0.984800  0.926900  0.622300  1
  C  C445  1  0.095100  0.032100  0.365300  1
  C  C446  1  0.904900  0.967900  0.634700  1
  C  C447  1  0.941200  0.048000  0.406600  1
  C  C448  1  0.058800  0.952000  0.593400  1
  C  C449  1  0.872400  0.105400  0.420200  1
  C  C450  1  0.127600  0.894600  0.579800  1
  C  C451  1  0.776000  0.117700  0.443000  1
  C  C452  1  0.224000  0.882300  0.557000  1
  C  C453  1  0.572200  0.603300  0.992500  1
  C  C454  1  0.427800  0.396700  0.007500  1
  C  C455  1  0.274500  0.675100  0.095700  1
  C  C456  1  0.725500  0.324900  0.904300  1
  C  C457  1  0.754000  0.894900  0.526200  1
  C  C458  1  0.246000  0.105100  0.473800  1
  C  C459  1  0.047400  0.792900  0.420500  1
  C  C460  1  0.952600  0.207100  0.579500  1
  C  C461  1  0.500500  0.633600  0.032400  1
  C  C462  1  0.499500  0.366400  0.967600  1
  C  C463  1  0.406900  0.623900  0.032400  1
  C  C464  1  0.593100  0.376100  0.967600  1
  C  C465  1  0.369000  0.655000  0.076300  1
  C  C466  1  0.631000  0.345000  0.923700  1
  C  C467  1  0.440200  0.720400  0.152400  1
  C  C468  1  0.559800  0.279600  0.847600  1
  C  C469  1  0.365600  0.765500  0.176400  1
  C  C470  1  0.634400  0.234500  0.823600  1
  C  C471  1  0.377500  0.804700  0.224100  1
  C  C472  1  0.622500  0.195300  0.775900  1
  C  C473  1  0.462700  0.796700  0.248900  1
  C  C474  1  0.537300  0.203300  0.751100  1
  C  C475  1  0.533600  0.746800  0.223400  1
  C  C476  1  0.466400  0.253200  0.776600  1
  C  C477  1  0.630000  0.730000  0.240000  1
  C  C478  1  0.370000  0.270000  0.760000  1
  C  C479  1  0.777400  0.697700  0.226100  1
  C  C480  1  0.222600  0.302300  0.773900  1
  C  C481  1  0.676300  0.733800  0.286900  1
  C  C482  1  0.323700  0.266200  0.713100  1
  C  C483  1  0.650200  0.753200  0.342900  1
  C  C484  1  0.349800  0.246800  0.657100  1
  C  C485  1  0.567100  0.758000  0.366700  1
  C  C486  1  0.432900  0.242000  0.633300  1
  C  C487  1  0.555300  0.779300  0.420100  1
  C  C488  1  0.444700  0.220700  0.579900  1
  C  C489  1  0.628900  0.794100  0.449300  1
  C  C490  1  0.371100  0.205900  0.550700  1
  C  C491  1  0.717400  0.786500  0.423100  1
  C  C492  1  0.282600  0.213500  0.576900  1
  C  C493  1  0.821400  0.846300  0.490300  1
  C  C494  1  0.178600  0.153700  0.509700  1
  C  C495  1  0.913200  0.848800  0.486400  1
  C  C496  1  0.086800  0.151200  0.513600  1
  C  C497  1  0.947000  0.802900  0.442400  1
  C  C498  1  0.053000  0.197100  0.557600  1
  C  C499  1  0.867200  0.688500  0.201800  1
  C  C500  1  0.132800  0.311500  0.798200  1
  C  C501  1  0.908600  0.608000  0.199100  1
  C  C502  1  0.091400  0.392000  0.800900  1
  C  C503  1  0.997700  0.587100  0.179400  1
  C  C504  1  0.002300  0.412900  0.820600  1
  C  C505  1  0.042700  0.650400  0.158400  1
  C  C506  1  0.957300  0.349600  0.841600  1
  C  C507  1  0.000100  0.736700  0.156700  1
  C  C508  1  0.999900  0.263300  0.843300  1
  C  C509  1  0.911800  0.753400  0.175700  1
  C  C510  1  0.088200  0.246600  0.824300  1
  C  C511  1  0.802500  0.971300  0.309400  1
  C  C512  1  0.197500  0.028700  0.690600  1
  C  C513  1  0.128900  0.899900  0.236900  1
  C  C514  1  0.871100  0.100100  0.763100  1
  C  C515  1  0.892500  0.926800  0.296100  1
  C  C516  1  0.107500  0.073200  0.703900  1
  C  C517  1  0.965900  0.950000  0.268800  1
  C  C518  1  0.034100  0.050000  0.731200  1
  C  C519  1  0.036200  0.899000  0.265600  1
  C  C520  1  0.963800  0.101000  0.734400  1
  C  C521  1  0.053500  0.749500  0.304200  1
  C  C522  1  0.946500  0.250500  0.695800  1
  C  C523  1  0.149700  0.728600  0.302300  1
  C  C524  1  0.850300  0.271400  0.697700  1
  C  C525  1  0.181100  0.640900  0.313700  1
  C  C526  1  0.818900  0.359100  0.686300  1
  C  C527  1  0.124900  0.576700  0.322600  1
  C  C528  1  0.875100  0.423300  0.677400  1
  C  C529  1  0.028900  0.603200  0.324800  1
  C  C530  1  0.971100  0.396800  0.675200  1
  C  C531  1  0.955200  0.542500  0.336400  1
  C  C532  1  0.044800  0.457500  0.663600  1
  C  C533  1  0.819400  0.524000  0.366900  1
  C  C534  1  0.180600  0.476000  0.633100  1
  C  C535  1  0.947200  0.456400  0.335200  1
  C  C536  1  0.052800  0.543600  0.664800  1
  C  C537  1  0.727100  0.532900  0.389000  1
  C  C538  1  0.272900  0.467100  0.611000  1
  C  C539  1  0.659600  0.499900  0.361500  1
  C  C540  1  0.340400  0.500100  0.638500  1
  C  C541  1  0.574100  0.501800  0.385200  1
  C  C542  1  0.425900  0.498200  0.614800  1
  C  C543  1  0.557100  0.533000  0.431700  1
  C  C544  1  0.442900  0.467000  0.568300  1
  C  C545  1  0.622300  0.567400  0.459400  1
  C  C546  1  0.377700  0.432600  0.540600  1
  C  C547  1  0.711500  0.566700  0.437000  1
  C  C548  1  0.288500  0.433300  0.563000  1
  C  C549  1  0.057200  0.354100  0.453600  1
  C  C550  1  0.942800  0.645900  0.546400  1
  C  C551  1  0.773700  0.429800  0.561900  1
  C  C552  1  0.226300  0.570200  0.438100  1
  C  C553  1  0.322200  0.161700  0.113200  1
  C  C554  1  0.677800  0.838300  0.886800  1
  C  C555  1  0.636600  0.172400  0.021900  1
  C  C556  1  0.363400  0.827600  0.978100  1
  C  C557  1  0.970800  0.382600  0.468700  1
  C  C558  1  0.029200  0.617400  0.531300  1
  C  C559  1  0.935000  0.414600  0.517000  1
  C  C560  1  0.065000  0.585400  0.483000  1
  C  C561  1  0.842600  0.397700  0.522100  1
  C  C562  1  0.157400  0.602300  0.477900  1
  C  C563  1  0.740200  0.329400  0.455000  1
  C  C564  1  0.259800  0.670600  0.545000  1
  C  C565  1  0.665800  0.312400  0.484200  1
  C  C566  1  0.334200  0.687600  0.515800  1
  C  C567  1  0.590600  0.282400  0.456100  1
  C  C568  1  0.409400  0.717600  0.543900  1
  C  C569  1  0.598100  0.272000  0.401900  1
  C  C570  1  0.401900  0.728000  0.598100  1
  C  C571  1  0.674900  0.290500  0.374800  1
  C  C572  1  0.325100  0.709500  0.625200  1
  C  C573  1  0.696900  0.284200  0.318900  1
  C  C574  1  0.303100  0.715800  0.681100  1
  C  C575  1  0.790500  0.290000  0.250400  1
  C  C576  1  0.209500  0.710000  0.749600  1
  C  C577  1  0.649600  0.279000  0.274400  1
  C  C578  1  0.350400  0.721000  0.725600  1
  C  C579  1  0.551600  0.278400  0.255800  1
  C  C580  1  0.448400  0.721600  0.744200  1
  C  C581  1  0.472700  0.295300  0.288600  1
  C  C582  1  0.527300  0.704700  0.711400  1
  C  C583  1  0.390100  0.284000  0.265500  1
  C  C584  1  0.609900  0.716000  0.734500  1
  C  C585  1  0.382600  0.254300  0.215800  1
  C  C586  1  0.617400  0.745700  0.784200  1
  C  C587  1  0.466600  0.242400  0.186800  1
  C  C588  1  0.533400  0.757600  0.813200  1
  C  C589  1  0.417300  0.177600  0.098600  1
  C  C590  1  0.582700  0.822400  0.901400  1
  C  C591  1  0.467900  0.164400  0.053900  1
  C  C592  1  0.532100  0.835600  0.946100  1
  C  C593  1  0.556800  0.186700  0.060400  1
  C  C594  1  0.443200  0.813300  0.939600  1
  C  C595  1  0.874400  0.277800  0.218000  1
  C  C596  1  0.125600  0.722200  0.782000  1
  C  C597  1  0.911900  0.338400  0.188200  1
  C  C598  1  0.088100  0.661600  0.811800  1
  C  C599  1  0.991800  0.316900  0.157000  1
  C  C600  1  0.008200  0.683100  0.843000  1
  C  C601  1  0.028100  0.230000  0.157400  1
  C  C602  1  0.971900  0.770000  0.842600  1
  C  C603  1  0.992000  0.165000  0.189600  1
  C  C604  1  0.008000  0.835000  0.810400  1
  C  C605  1  0.922200  0.187000  0.223600  1
  C  C606  1  0.077800  0.813000  0.776400  1
  C  C607  1  0.598300  0.045200  0.229800  1
  C  C608  1  0.401700  0.954800  0.770200  1
  C  C609  1  0.895800  0.974200  0.118200  1
  C  C610  1  0.104200  0.025800  0.881800  1
  C  C611  1  0.871000  0.843500  0.984600  1
  C  C612  1  0.129000  0.156500  0.015400  1
  C  C613  1  0.571800  0.904200  0.095200  1
  C  C614  1  0.428200  0.095800  0.904800  1
  C  C615  1  0.680400  0.057700  0.192500  1
  C  C616  1  0.319600  0.942300  0.807500  1
  C  C617  1  0.748300  0.980500  0.178800  1
  C  C618  1  0.251700  0.019500  0.821200  1
  C  C619  1  0.806400  0.017600  0.142700  1
  C  C620  1  0.193600  0.982400  0.857300  1
  C  C621  1  0.801100  0.167000  0.103600  1
  C  C622  1  0.198900  0.833000  0.896400  1
  C  C623  1  0.865500  0.155500  0.059800  1
  C  C624  1  0.134500  0.844500  0.940200  1
  C  C625  1  0.878300  0.226900  0.030300  1
  C  C626  1  0.121700  0.773100  0.969700  1
  C  C627  1  0.837300  0.311700  0.042700  1
  C  C628  1  0.162700  0.688300  0.957300  1
  C  C629  1  0.773100  0.316500  0.085700  1
  C  C630  1  0.226900  0.683500  0.914300  1
  C  C631  1  0.721000  0.395600  0.108000  1
  C  C632  1  0.279000  0.604400  0.892000  1
  C  C633  1  0.608400  0.462000  0.155800  1
  C  C634  1  0.391600  0.538000  0.844200  1
  C  C635  1  0.729700  0.484300  0.107500  1
  C  C636  1  0.270300  0.515700  0.892500  1
  C  C637  1  0.794000  0.540600  0.083900  1
  C  C638  1  0.206000  0.459400  0.916100  1
  C  C639  1  0.891700  0.512200  0.069400  1
  C  C640  1  0.108300  0.487800  0.930600  1
  C  C641  1  0.937600  0.573100  0.046000  1
  C  C642  1  0.062400  0.426900  0.954000  1
  C  C643  1  0.904300  0.656900  0.041600  1
  C  C644  1  0.095700  0.343100  0.958400  1
  C  C645  1  0.810900  0.685600  0.060000  1
  C  C646  1  0.189100  0.314400  0.940000  1
  C  C647  1  0.791300  0.838900  0.023900  1
  C  C648  1  0.208700  0.161100  0.976100  1
  C  C649  1  0.715500  0.899900  0.036900  1
  C  C650  1  0.284500  0.100100  0.963100  1
  C  C651  1  0.657700  0.865500  0.073400  1
  C  C652  1  0.342300  0.134500  0.926600  1
  C  C653  1  0.523300  0.478000  0.187300  1
  C  C654  1  0.476700  0.522000  0.812700  1
  C  C655  1  0.527900  0.525600  0.234600  1
  C  C656  1  0.472100  0.474400  0.765400  1
  C  C657  1  0.450500  0.552800  0.263900  1
  C  C658  1  0.549500  0.447200  0.736100  1
  C  C659  1  0.368800  0.530200  0.247300  1
  C  C660  1  0.631200  0.469800  0.752700  1
  C  C661  1  0.360200  0.484900  0.199900  1
  C  C662  1  0.639800  0.515100  0.800100  1
  C  C663  1  0.441500  0.454800  0.167400  1
  C  C664  1  0.558500  0.545200  0.832600  1
  C  C665  1  0.012600  0.420600  0.307900  1
  C  C666  1  0.987400  0.579400  0.692100  1
  C  C667  1  0.086200  0.423800  0.271000  1
  C  C668  1  0.913800  0.576200  0.729000  1
  C  C669  1  0.135800  0.337400  0.259100  1
  C  C670  1  0.864200  0.662600  0.740900  1
  C  C671  1  0.107500  0.266900  0.286600  1
  C  C672  1  0.892500  0.733100  0.713400  1
  C  C673  1  0.037600  0.262600  0.319300  1
  C  C674  1  0.962400  0.737400  0.680700  1
  C  C675  1  0.031500  0.105100  0.361000  1
  C  C676  1  0.968500  0.894900  0.639000  1
  C  C677  1  0.115500  0.086000  0.343300  1
  C  C678  1  0.884500  0.914000  0.656700  1
  C  C679  1  0.963100  0.085800  0.390900  1
  C  C680  1  0.036900  0.914200  0.609100  1
  C  C681  1  0.885700  0.129200  0.402900  1
  C  C682  1  0.114300  0.870800  0.597100  1
  C  C683  1  0.803600  0.129300  0.433400  1
  C  C684  1  0.196400  0.870700  0.566600  1
  C  C685  1  0.597300  0.610000  0.988200  1
  C  C686  1  0.402700  0.390000  0.011800  1
  C  C687  1  0.277600  0.652000  0.087800  1
  C  C688  1  0.722400  0.348000  0.912200  1
  C  C689  1  0.731600  0.930900  0.524500  1
  C  C690  1  0.268400  0.069100  0.475500  1
  C  C691  1  0.035700  0.799000  0.439500  1
  C  C692  1  0.964300  0.201000  0.560500  1
  C  C693  1  0.523300  0.634000  0.026900  1
  C  C694  1  0.476700  0.366000  0.973100  1
  C  C695  1  0.426600  0.623000  0.023700  1
  C  C696  1  0.573400  0.377000  0.976300  1
  C  C697  1  0.380700  0.668000  0.066900  1
  C  C698  1  0.619300  0.332000  0.933100  1
  C  C699  1  0.450200  0.746000  0.147100  1
  C  C700  1  0.549800  0.254000  0.852900  1
  C  C701  1  0.373700  0.800100  0.168300  1
  C  C702  1  0.626300  0.199900  0.831700  1
  C  C703  1  0.387700  0.840100  0.217300  1
  C  C704  1  0.612300  0.159900  0.782700  1
  C  C705  1  0.473200  0.826100  0.242400  1
  C  C706  1  0.526800  0.173900  0.757600  1
  C  C707  1  0.544000  0.772500  0.216500  1
  C  C708  1  0.456000  0.227500  0.783500  1
  C  C709  1  0.636800  0.756200  0.237900  1
  C  C710  1  0.363200  0.243800  0.762100  1
  C  C711  1  0.780000  0.717200  0.226400  1
  C  C712  1  0.220000  0.282800  0.773600  1
  C  C713  1  0.676000  0.761700  0.285100  1
  C  C714  1  0.324000  0.238300  0.714900  1
  C  C715  1  0.650000  0.779200  0.342100  1
  C  C716  1  0.350000  0.220800  0.657900  1
  C  C717  1  0.559100  0.789000  0.363900  1
  C  C718  1  0.440900  0.211000  0.636100  1
  C  C719  1  0.549900  0.811100  0.417800  1
  C  C720  1  0.450100  0.188900  0.582200  1
  C  C721  1  0.627000  0.823200  0.446600  1
  C  C722  1  0.373000  0.176800  0.553400  1
  C  C723  1  0.705600  0.815200  0.422100  1
  C  C724  1  0.294400  0.184800  0.577900  1
  C  C725  1  0.806600  0.878900  0.489400  1
  C  C726  1  0.193400  0.121100  0.510600  1
  C  C727  1  0.899600  0.878500  0.492800  1
  C  C728  1  0.100400  0.121500  0.507200  1
  C  C729  1  0.940900  0.821600  0.452800  1
  C  C730  1  0.059100  0.178400  0.547200  1
  C  C731  1  0.874000  0.673000  0.200900  1
  C  C732  1  0.126000  0.327000  0.799100  1
  C  C733  1  0.910000  0.586200  0.206300  1
  C  C734  1  0.090000  0.413800  0.793700  1
  C  C735  1  0.993700  0.556000  0.188400  1
  C  C736  1  0.006300  0.444000  0.811600  1
  C  C737  1  0.049500  0.619500  0.170800  1
  C  C738  1  0.950500  0.380500  0.829200  1
  C  C739  1  0.022900  0.704100  0.166600  1
  C  C740  1  0.977100  0.295900  0.833400  1
  C  C741  1  0.929500  0.736800  0.187700  1
  C  C742  1  0.070500  0.263200  0.812300  1
  C  C743  1  0.729400  0.968400  0.335700  1
  C  C744  1  0.270600  0.031600  0.664300  1
  C  C745  1  0.038800  0.980800  0.241700  1
  C  C746  1  0.961200  0.019200  0.758300  1
  C  C747  1  0.812000  0.946800  0.314300  1
  C  C748  1  0.188000  0.053200  0.685700  1
  C  C749  1  0.873100  0.005100  0.286900  1
  C  C750  1  0.126900  0.994900  0.713100  1
  C  C751  1  0.947100  0.969300  0.267400  1
  C  C752  1  0.052900  0.030700  0.732600  1
  C  C753  1  0.006100  0.795600  0.289100  1
  C  C754  1  0.993900  0.204400  0.710900  1
  C  C755  1  0.097200  0.788400  0.277900  1
  C  C756  1  0.902800  0.211600  0.722100  1
  C  C757  1  0.148200  0.698700  0.284700  1
  C  C758  1  0.851800  0.301300  0.715300  1
  C  C759  1  0.101200  0.633100  0.301300  1
  C  C760  1  0.898800  0.366900  0.698700  1
  C  C761  1  0.007500  0.647900  0.312000  1
  C  C762  1  0.992500  0.352100  0.688000  1
  C  C763  1  0.947900  0.584100  0.330600  1
  C  C764  1  0.052100  0.415900  0.669400  1
  C  C765  1  0.818900  0.550100  0.360700  1
  C  C766  1  0.181100  0.449900  0.639300  1
  C  C767  1  0.948800  0.490200  0.325900  1
  C  C768  1  0.051200  0.509800  0.674100  1
  C  C769  1  0.722200  0.557700  0.384100  1
  C  C770  1  0.277800  0.442300  0.615900  1
  C  C771  1  0.648000  0.527800  0.356100  1
  C  C772  1  0.352000  0.472200  0.643900  1
  C  C773  1  0.559000  0.529900  0.378200  1
  C  C774  1  0.441000  0.470100  0.621800  1
  C  C775  1  0.545300  0.564900  0.431300  1
  C  C776  1  0.454700  0.435100  0.568700  1
  C  C777  1  0.618000  0.597800  0.460200  1
  C  C778  1  0.382000  0.402200  0.539800  1
  C  C779  1  0.702000  0.593000  0.437400  1
  C  C780  1  0.298000  0.407000  0.562600  1
  C  C781  1  0.060000  0.375000  0.446700  1
  C  C782  1  0.940000  0.625000  0.553300  1
  C  C783  1  0.747600  0.436000  0.568300  1
  C  C784  1  0.252400  0.564000  0.431700  1
  C  C785  1  0.291400  0.169100  0.131500  1
  C  C786  1  0.708600  0.830900  0.868500  1
  C  C787  1  0.601900  0.167000  0.027500  1
  C  C788  1  0.398100  0.833000  0.972500  1
  C  C789  1  0.953200  0.367400  0.476600  1
  C  C790  1  0.046800  0.632600  0.523400  1
  C  C791  1  0.914900  0.402000  0.525000  1
  C  C792  1  0.085100  0.598000  0.475000  1
  C  C793  1  0.823300  0.414000  0.524800  1
  C  C794  1  0.176700  0.586000  0.475200  1
  C  C795  1  0.723400  0.355500  0.456800  1
  C  C796  1  0.276600  0.644500  0.543200  1
  C  C797  1  0.646200  0.344700  0.486200  1
  C  C798  1  0.353800  0.655300  0.513800  1
  C  C799  1  0.575700  0.318700  0.459700  1
  C  C800  1  0.424300  0.681300  0.540300  1
  C  C801  1  0.579800  0.303600  0.404200  1
  C  C802  1  0.420200  0.696400  0.595800  1
  C  C803  1  0.660400  0.319400  0.377300  1
  C  C804  1  0.339600  0.680600  0.622700  1
  C  C805  1  0.683700  0.312400  0.320400  1
  C  C806  1  0.316300  0.687600  0.679600  1
  C  C807  1  0.785000  0.279000  0.257800  1
  C  C808  1  0.215000  0.721000  0.742200  1
  C  C809  1  0.635700  0.300500  0.273400  1
  C  C810  1  0.364300  0.699500  0.726600  1
  C  C811  1  0.537200  0.296000  0.263600  1
  C  C812  1  0.462800  0.704000  0.736400  1
  C  C813  1  0.461200  0.326900  0.287400  1
  C  C814  1  0.538800  0.673100  0.712600  1
  C  C815  1  0.375000  0.322100  0.266100  1
  C  C816  1  0.625000  0.677900  0.733900  1
  C  C817  1  0.372600  0.291400  0.213600  1
  C  C818  1  0.627400  0.708600  0.786400  1
  C  C819  1  0.441800  0.266900  0.188100  1
  C  C820  1  0.558200  0.733100  0.811900  1
  C  C821  1  0.387800  0.185500  0.110900  1
  C  C822  1  0.612200  0.814500  0.889100  1
  C  C823  1  0.438400  0.151300  0.064700  1
  C  C824  1  0.561600  0.848700  0.935300  1
  C  C825  1  0.525600  0.184800  0.065800  1
  C  C826  1  0.474400  0.815200  0.934200  1
  C  C827  1  0.870000  0.270000  0.225100  1
  C  C828  1  0.130000  0.730000  0.774900  1
  C  C829  1  0.897000  0.351900  0.202800  1
  C  C830  1  0.103000  0.648100  0.797200  1
  C  C831  1  0.970300  0.351600  0.166100  1
  C  C832  1  0.029700  0.648400  0.833900  1
  C  C833  1  0.021000  0.274400  0.151900  1
  C  C834  1  0.979000  0.725600  0.848100  1
  C  C835  1  0.998100  0.199200  0.171900  1
  C  C836  1  0.001900  0.800800  0.828100  1
  C  C837  1  0.914400  0.200800  0.205600  1
  C  C838  1  0.085600  0.799200  0.794400  1
  C  C839  1  0.609000  0.051700  0.222000  1
  C  C840  1  0.391000  0.948300  0.778000  1
  C  C841  1  0.889000  0.993000  0.101200  1
  C  C842  1  0.111000  0.007000  0.898800  1
  C  C843  1  0.856400  0.866000  0.989900  1
  C  C844  1  0.143600  0.134000  0.010100  1
  C  C845  1  0.566000  0.928000  0.095500  1
  C  C846  1  0.434000  0.072000  0.904500  1
  C  C847  1  0.686000  0.046400  0.184400  1
  C  C848  1  0.314000  0.953600  0.815600  1
  C  C849  1  0.755100  0.996400  0.164600  1
  C  C850  1  0.244900  0.003600  0.835400  1
  C  C851  1  0.815800  0.024200  0.129700  1
  C  C852  1  0.184200  0.975800  0.870300  1
  C  C853  1  0.806000  0.180200  0.091900  1
  C  C854  1  0.194000  0.819800  0.908100  1
  C  C855  1  0.858200  0.181700  0.049200  1
  C  C856  1  0.141800  0.818300  0.950800  1
  C  C857  1  0.871700  0.252900  0.019200  1
  C  C858  1  0.128300  0.747100  0.980800  1
  C  C859  1  0.827400  0.336300  0.036000  1
  C  C860  1  0.172600  0.663700  0.964000  1
  C  C861  1  0.777000  0.336300  0.084100  1
  C  C862  1  0.223000  0.663700  0.915900  1
  C  C863  1  0.727000  0.415100  0.106300  1
  C  C864  1  0.273000  0.584900  0.893700  1
  C  C865  1  0.614000  0.482400  0.150700  1
  C  C866  1  0.386000  0.517600  0.849300  1
  C  C867  1  0.731000  0.504100  0.104700  1
  C  C868  1  0.269000  0.495900  0.895300  1
  C  C869  1  0.804000  0.554000  0.081000  1
  C  C870  1  0.196000  0.446000  0.919000  1
  C  C871  1  0.883000  0.529800  0.067100  1
  C  C872  1  0.117000  0.470200  0.932900  1
  C  C873  1  0.949300  0.595000  0.052400  1
  C  C874  1  0.050700  0.405000  0.947600  1
  C  C875  1  0.911100  0.680500  0.046800  1
  C  C876  1  0.088900  0.319500  0.953200  1
  C  C877  1  0.826200  0.697000  0.055200  1
  C  C878  1  0.173800  0.303000  0.944800  1
  C  C879  1  0.778000  0.864000  0.023500  1
  C  C880  1  0.222000  0.136000  0.976500  1
  C  C881  1  0.714000  0.920200  0.031200  1
  C  C882  1  0.286000  0.079800  0.968800  1
  C  C883  1  0.657000  0.890500  0.067500  1
  C  C884  1  0.343000  0.109500  0.932500  1
  C  C885  1  0.526900  0.504200  0.180300  1
  C  C886  1  0.473100  0.495800  0.819700  1
  C  C887  1  0.515600  0.552500  0.225500  1
  C  C888  1  0.484400  0.447500  0.774500  1
  C  C889  1  0.428300  0.577200  0.245600  1
  C  C890  1  0.571700  0.422800  0.754400  1
  C  C891  1  0.353800  0.549400  0.222100  1
  C  C892  1  0.646200  0.450600  0.777900  1
  C  C893  1  0.360300  0.499400  0.177600  1
  C  C894  1  0.639700  0.500600  0.822400  1
  C  C895  1  0.446300  0.481000  0.160900  1
  C  C896  1  0.553700  0.519000  0.839100  1
  N  N897  1  0.529200  0.663100  0.077800  1
  N  N898  1  0.470800  0.336900  0.922200  1
  N  N899  1  0.443000  0.680300  0.102700  1
  N  N900  1  0.557000  0.319700  0.897300  1
  N  N901  1  0.524500  0.709600  0.174600  1
  N  N902  1  0.475500  0.290400  0.825400  1
  N  N903  1  0.697000  0.705000  0.201400  1
  N  N904  1  0.303000  0.295000  0.798600  1
  N  N905  1  0.773000  0.715900  0.278600  1
  N  N906  1  0.227000  0.284100  0.721400  1
  N  N907  1  0.726300  0.766400  0.372900  1
  N  N908  1  0.273700  0.233600  0.627100  1
  N  N909  1  0.800900  0.798500  0.447000  1
  N  N910  1  0.199100  0.201500  0.553000  1
  N  N911  1  0.880100  0.771900  0.416300  1
  N  N912  1  0.119900  0.228100  0.583700  1
  N  N913  1  0.922200  0.845000  0.312900  1
  N  N914  1  0.077800  0.155000  0.687100  1
  N  N915  1  0.009400  0.831800  0.294500  1
  N  N916  1  0.990600  0.168200  0.705500  1
  N  N917  1  0.998100  0.686400  0.317300  1
  N  N918  1  0.001900  0.313600  0.682700  1
  N  N919  1  0.875100  0.588000  0.357200  1
  N  N920  1  0.124900  0.412000  0.642800  1
  N  N921  1  0.862100  0.441100  0.353700  1
  N  N922  1  0.137900  0.558900  0.646300  1
  N  N923  1  0.975800  0.306200  0.339000  1
  N  N924  1  0.024200  0.693800  0.661000  1
  N  N925  1  0.977000  0.162300  0.363100  1
  N  N926  1  0.023000  0.837700  0.636900  1
  N  N927  1  0.893100  0.180500  0.387500  1
  N  N928  1  0.106900  0.819500  0.612500  1
  N  N929  1  0.895100  0.338600  0.446900  1
  N  N930  1  0.104900  0.661400  0.553100  1
  N  N931  1  0.825500  0.356000  0.475200  1
  N  N932  1  0.174500  0.644000  0.524800  1
  N  N933  1  0.742500  0.315400  0.404300  1
  N  N934  1  0.257500  0.684600  0.595700  1
  N  N935  1  0.786100  0.287300  0.304500  1
  N  N936  1  0.213900  0.712700  0.695500  1
  N  N937  1  0.709500  0.276200  0.230100  1
  N  N938  1  0.290500  0.723800  0.769900  1
  N  N939  1  0.546100  0.253500  0.207000  1
  N  N940  1  0.453900  0.746500  0.793000  1
  N  N941  1  0.475100  0.214900  0.132300  1
  N  N942  1  0.524900  0.785100  0.867700  1
  N  N943  1  0.562800  0.222200  0.108900  1
  N  N944  1  0.437200  0.777800  0.891100  1
  N  N945  1  0.692900  0.123300  0.165100  1
  N  N946  1  0.307100  0.876700  0.834900  1
  N  N947  1  0.772300  0.099300  0.134400  1
  N  N948  1  0.227700  0.900700  0.865600  1
  N  N949  1  0.758000  0.244700  0.113300  1
  N  N950  1  0.242000  0.755300  0.886700  1
  N  N951  1  0.650800  0.381200  0.140100  1
  N  N952  1  0.349200  0.618800  0.859900  1
  N  N953  1  0.658400  0.525700  0.136500  1
  N  N954  1  0.341600  0.474300  0.863500  1
  N  N955  1  0.766000  0.621000  0.079000  1
  N  N956  1  0.234000  0.379000  0.921000  1
  N  N957  1  0.771100  0.766100  0.055200  1
  N  N958  1  0.228900  0.233900  0.944800  1
  N  N959  1  0.688700  0.784000  0.086200  1
  N  N960  1  0.311300  0.216000  0.913800  1
  N  N961  1  0.525200  0.685300  0.071400  1
  N  N962  1  0.474800  0.314700  0.928600  1
  N  N963  1  0.445000  0.705500  0.097800  1
  N  N964  1  0.555000  0.294500  0.902200  1
  N  N965  1  0.531800  0.737700  0.171200  1
  N  N966  1  0.468200  0.262300  0.828800  1
  N  N967  1  0.700000  0.724300  0.199900  1
  N  N968  1  0.300000  0.275700  0.800100  1
  N  N969  1  0.764700  0.737700  0.276900  1
  N  N970  1  0.235300  0.262300  0.723100  1
  N  N971  1  0.720100  0.793800  0.370900  1
  N  N972  1  0.279900  0.206200  0.629100  1
  N  N973  1  0.790600  0.828700  0.447600  1
  N  N974  1  0.209400  0.171300  0.552400  1
  N  N975  1  0.870000  0.793400  0.423800  1
  N  N976  1  0.130000  0.206600  0.576200  1
  N  N977  1  0.860300  0.869300  0.314700  1
  N  N978  1  0.139700  0.130700  0.685300  1
  N  N979  1  0.942400  0.875900  0.291300  1
  N  N980  1  0.057600  0.124100  0.708700  1
  N  N981  1  0.963700  0.728700  0.308700  1
  N  N982  1  0.036300  0.271300  0.691300  1
  N  N983  1  0.862200  0.622200  0.350600  1
  N  N984  1  0.137800  0.377800  0.649400  1
  N  N985  1  0.863000  0.472800  0.348900  1
  N  N986  1  0.137000  0.527200  0.651100  1
  N  N987  1  0.986300  0.347600  0.328200  1
  N  N988  1  0.013700  0.652400  0.671800  1
  N  N989  1  0.990300  0.196300  0.350100  1
  N  N990  1  0.009700  0.803700  0.649900  1
  N  N991  1  0.908900  0.212100  0.374100  1
  N  N992  1  0.091100  0.787900  0.625900  1
  N  N993  1  0.892000  0.364400  0.440400  1
  N  N994  1  0.108000  0.635600  0.559600  1
  N  N995  1  0.803600  0.374200  0.477800  1
  N  N996  1  0.196400  0.625800  0.522200  1
  N  N997  1  0.739700  0.340500  0.402900  1
  N  N998  1  0.260300  0.659500  0.597100  1
  N  N999  1  0.779000  0.307600  0.308300  1
  N  N1000  1  0.221000  0.692400  0.691700  1
  N  N1001  1  0.697900  0.285000  0.235200  1
  N  N1002  1  0.302100  0.715000  0.764800  1
  N  N1003  1  0.532100  0.271600  0.209100  1
  N  N1004  1  0.467900  0.728400  0.790900  1
  N  N1005  1  0.454100  0.234200  0.137000  1
  N  N1006  1  0.545900  0.765800  0.863000  1
  N  N1007  1  0.537500  0.225200  0.109400  1
  N  N1008  1  0.462500  0.774800  0.890600  1
  N  N1009  1  0.703700  0.131100  0.159000  1
  N  N1010  1  0.296300  0.868900  0.841000  1
  N  N1011  1  0.777100  0.115400  0.126000  1
  N  N1012  1  0.222900  0.884600  0.874000  1
  N  N1013  1  0.758000  0.264000  0.109200  1
  N  N1014  1  0.242000  0.736000  0.890800  1
  N  N1015  1  0.641000  0.399400  0.136400  1
  N  N1016  1  0.359000  0.600600  0.863600  1
  N  N1017  1  0.660600  0.546000  0.134100  1
  N  N1018  1  0.339400  0.454000  0.865900  1
  N  N1019  1  0.759900  0.644300  0.078000  1
  N  N1020  1  0.240100  0.355700  0.922000  1
  N  N1021  1  0.769800  0.786500  0.054800  1
  N  N1022  1  0.230200  0.213500  0.945200  1
  N  N1023  1  0.691500  0.804000  0.081500  1
  N  N1024  1  0.308500  0.196000  0.918500  1
  F  F1025  1  0.122800  0.003800  0.115200  1
  F  F1026  1  0.877200  0.996200  0.884800  1
  F  F1027  1  0.173800  0.861300  0.126100  1
  F  F1028  1  0.826200  0.138700  0.873900  1
  F  F1029  1  0.217100  0.938500  0.052000  1
  F  F1030  1  0.782900  0.061500  0.948000  1
  F  F1031  1  0.074700  0.901200  0.062700  1
  F  F1032  1  0.925300  0.098800  0.937300  1
  F  F1033  1  0.359200  0.889400  0.400500  1
  F  F1034  1  0.640800  0.110600  0.599500  1
  F  F1035  1  0.344400  0.757400  0.372400  1
  F  F1036  1  0.655600  0.242600  0.627600  1
  F  F1037  1  0.252800  0.873400  0.343300  1
  F  F1038  1  0.747200  0.126600  0.656700  1
  F  F1039  1  0.240100  0.809200  0.423600  1
  F  F1040  1  0.759900  0.190800  0.576400  1
  F  F1041  1  0.266000  0.304700  0.457900  1
  F  F1042  1  0.734000  0.695300  0.542100  1
  F  F1043  1  0.390000  0.237200  0.417200  1
  F  F1044  1  0.610000  0.762800  0.582800  1
  F  F1045  1  0.257600  0.247600  0.375800  1
  F  F1046  1  0.742400  0.752400  0.624200  1
  F  F1047  1  0.333500  0.368500  0.387700  1
  F  F1048  1  0.666500  0.631500  0.612300  1
  F  F1049  1  0.207700  0.481000  0.050000  1
  F  F1050  1  0.792300  0.519000  0.950000  1
  F  F1051  1  0.169700  0.449400  0.131900  1
  F  F1052  1  0.830300  0.550600  0.868100  1
  F  F1053  1  0.079700  0.413400  0.069300  1
  F  F1054  1  0.920300  0.586600  0.930700  1
  F  F1055  1  0.218900  0.342700  0.068400  1
  F  F1056  1  0.781100  0.657300  0.931600  1
  F  F1057  1  0.148000  0.001000  0.121900  1
  F  F1058  1  0.852000  0.999000  0.878100  1
  F  F1059  1  0.137000  0.858900  0.107600  1
  F  F1060  1  0.863000  0.141100  0.892400  1
  F  F1061  1  0.243300  0.926000  0.068900  1
  F  F1062  1  0.756700  0.074000  0.931100  1
  F  F1063  1  0.089900  0.957000  0.044900  1
  F  F1064  1  0.910100  0.043000  0.955100  1
  F  F1065  1  0.347700  0.880900  0.429300  1
  F  F1066  1  0.652300  0.119100  0.570700  1
  F  F1067  1  0.311000  0.762400  0.397800  1
  F  F1068  1  0.689000  0.237600  0.602200  1
  F  F1069  1  0.335300  0.861100  0.340200  1
  F  F1070  1  0.664700  0.138900  0.659800  1
  F  F1071  1  0.215800  0.886600  0.388800  1
  F  F1072  1  0.784200  0.113400  0.611200  1
  F  F1073  1  0.274700  0.332700  0.456600  1
  F  F1074  1  0.725300  0.667300  0.543400  1
  F  F1075  1  0.356000  0.251000  0.392900  1
  F  F1076  1  0.644000  0.749000  0.607100  1
  F  F1077  1  0.245500  0.357700  0.372300  1
  F  F1078  1  0.754500  0.642300  0.627700  1
  F  F1079  1  0.374900  0.394400  0.403400  1
  F  F1080  1  0.625100  0.605600  0.596600  1
  F  F1081  1  0.284700  0.403900  0.097800  1
  F  F1082  1  0.715300  0.596100  0.902200  1
  F  F1083  1  0.170300  0.411700  0.148000  1
  F  F1084  1  0.829700  0.588300  0.852000  1
  F  F1085  1  0.166100  0.489800  0.071100  1
  F  F1086  1  0.833900  0.510200  0.928900  1
  F  F1087  1  0.154800  0.347300  0.072900  1
  F  F1088  1  0.845200  0.652700  0.927100  1
