
#######################################################################
#
#                 Cambridge Crystallographic Data Centre
#                                CCDC 
#
#######################################################################
#
# If this CIF has been generated from an entry in the Cambridge 
# Structural Database, then it will include bibliographic, chemical, 
# crystal, experimental, refinement or atomic coordinate data resulting 
# from the CCDC's data processing and validation procedures.
#
#######################################################################

data_SIZJAO
_chemical_formula_moiety         'C116 H100 Fe4 N32 4+,4(B1 F4 1-),2(C2 H3 N1)'
_chemical_name_systematic        
'tetrakis(\m~2~-2-Phenyl-4,5-bis(6-(3,5-dimethyl-1H-pyrazol-1-yl)pyridin-2-yl)imidazolato)-tetra-iron(ii) tetrakis(tetrafluoroborate) acetonitrile solvate'
_symmetry_cell_setting           triclinic
_symmetry_space_group_name_H-M   'P -1'
_symmetry_Int_Tables_number      2
_space_group_name_Hall           '-P 1'
loop_
_symmetry_equiv_pos_site_id
_symmetry_equiv_pos_as_xyz
1 x,y,z
2 -x,-y,-z
_cell_length_a                   14.604(3)
_cell_length_b                   15.272(4)
_cell_length_c                   25.118(6)
_cell_angle_alpha                89.533(3)
_cell_angle_beta                 88.974(3)
_cell_angle_gamma                84.143(3)
_cell_volume                     5571.87
_exptl_crystal_colour            red
_exptl_crystal_description       blocks
_cell_formula_units_Z            2
loop_
_atom_site_label
_atom_site_type_symbol
_atom_site_fract_x
_atom_site_fract_y
_atom_site_fract_z
B1 B 0.1496(7) 0.9265(7) 0.0885(4)
F1 F 0.1228(7) 1.0038(6) 0.1152(3)
F2 F 0.1738(5) 0.8613(6) 0.1261(5)
F3 F 0.2171(8) 0.9385(6) 0.0520(5)
F4 F 0.0747(4) 0.9012(9) 0.0627(4)
B4 B 0.2957(12) 0.8333(11) 0.3851(7)
F13 F 0.3592(10) 0.8894(10) 0.4005(8)
F14 F 0.3444(7) 0.7574(8) 0.3724(6)
F15 F 0.2528(10) 0.8734(6) 0.3433(5)
F16 F 0.2401(7) 0.8092(12) 0.4236(4)
B6 B 0.3098(7) 0.2909(8) 0.4092(4)
F21 F 0.2660(10) 0.3047(10) 0.4579(4)
F22 F 0.3900(4) 0.2372(5) 0.4172(3)
F23 F 0.2576(4) 0.2476(6) 0.3758(2)
F24 F 0.3335(8) 0.3685(5) 0.3877(4)
B7 B 0.1691(8) 0.4199(7) 0.0809(5)
F25 F 0.2077(6) 0.4810(5) 0.0500(4)
F26 F 0.1697(7) 0.4494(7) 0.1319(4)
F27 F 0.0797(4) 0.4134(6) 0.0693(2)
F28 F 0.2189(5) 0.3427(4) 0.0684(3)
Fe1 Fe 0.6456(5) 0.6671(5) 0.1271(3)
Fe2 Fe 0.8585(3) 0.7252(3) 0.3422(3)
Fe3 Fe 0.8549(3) 0.3163(2) 0.37373(16)
Fe4 Fe 0.6510(3) 0.2546(4) 0.1623(2)
N1 N 0.5292(14) 0.6631(11) 0.0778(9)
N2 N 0.4430(15) 0.6803(10) 0.1027(8)
N3 N 0.5245(10) 0.7096(8) 0.1746(6)
N4 N 0.697(2) 0.7050(12) 0.2014(10)
N5 N 0.7730(13) 0.7159(11) 0.2786(9)
N6 N 0.7263(10) 0.7664(8) 0.3729(8)
N7 N 0.8009(12) 0.7985(8) 0.4470(6)
N8 N 0.8801(10) 0.7719(10) 0.4163(6)
N9 N 0.9222(6) 0.8450(6) 0.3129(3)
N10 N 1.0094(8) 0.8318(7) 0.2945(5)
N11 N 0.9981(7) 0.6864(7) 0.3173(5)
N12 N 0.8751(7) 0.5880(6) 0.3572(5)
N13 N 0.8621(8) 0.4411(6) 0.3537(6)
N14 N 0.9758(6) 0.3062(6) 0.3390(4)
C1 C 1.0102(8) 0.3765(9) 0.3193(7)
C2 C 1.0857(8) 0.3740(8) 0.2850(5)
H1 H 1.1036 0.4258 0.2683
C3 C 1.1366(9) 0.2876(10) 0.2756(7)
H2 H 1.1894 0.2792 0.2529
C4 C 1.1015(8) 0.2211(9) 0.3024(6)
H3 H 1.1354 0.1656 0.2959
C5 C 1.0317(8) 0.2157(9) 0.3350(6)
N15 N 0.9770(6) 0.1623(7) 0.3631(5)
C6 C 1.0152(10) 0.0731(9) 0.3777(7)
C7 C 1.0951(8) 0.0321(8) 0.3653(7)
H4 H 1.1428 0.0724 0.3688
H5 H 1.0945 0.0116 0.3284
H6 H 1.1083 -0.0184 0.3892
C8 C 0.9412(9) 0.0480(9) 0.4066(7)
H7 H 0.9401 -0.0120 0.4168
C9 C 0.8724(11) 0.1054(10) 0.4202(8)
C10 C 0.7760(12) 0.1177(15) 0.4430(10)
H8 H 0.7662 0.0686 0.4671
H9 H 0.7319 0.1194 0.4139
H10 H 0.7671 0.1731 0.4627
N16 N 0.8931(8) 0.1805(7) 0.3875(6)
N17 N 0.8951(17) 0.3386(9) 0.4469(7)
N18 N 0.8255(8) 0.3560(11) 0.4752(7)
N19 N 0.7425(13) 0.3154(10) 0.4043(10)
N20 N 0.7861(15) 0.2873(12) 0.3045(8)
N21 N 0.7095(12) 0.2762(18) 0.2301(8)
N22 N 0.5461(9) 0.2535(10) 0.2070(7)
N23 N 0.4751(8) 0.2149(10) 0.1323(6)
N24 N 0.5628(6) 0.2222(12) 0.1089(6)
N25 N 0.6929(14) 0.1233(10) 0.1651(9)
N26 N 0.7723(12) 0.0993(8) 0.1344(7)
N27 N 0.7580(15) 0.2447(7) 0.1133(9)
N28 N 0.6508(12) 0.3812(7) 0.1401(7)
N29 N 0.6584(14) 0.5257(7) 0.1365(9)
N30 N 0.7660(12) 0.6210(8) 0.0790(9)
N31 N 0.7711(15) 0.7661(9) 0.0552(10)
N32 N 0.6887(14) 0.7840(9) 0.0862(8)
C11 C 0.5722(11) 0.6033(19) -0.0075(10)
H11 H 0.5854 0.6528 -0.0304
H12 H 0.5504 0.5569 -0.0292
H13 H 0.6284 0.5801 0.0108
C12 C 0.2745(15) 0.6751(18) 0.0957(12)
H14 H 0.2346 0.6366 0.0783
H15 H 0.2535 0.7367 0.0875
H16 H 0.2719 0.6656 0.1343
C13 C 0.7540(12) 0.8949(12) 0.5262(8)
H17 H 0.7269 0.8534 0.5503
H18 H 0.7053 0.9268 0.5052
H19 H 0.7848 0.9368 0.5471
C14 C 1.0474(11) 0.7929(16) 0.4205(7)
H20 H 1.0549 0.8386 0.3936
H21 H 1.0610 0.7347 0.4044
H22 H 1.0898 0.7991 0.4498
C15 C 0.5005(10) 0.6336(18) 0.0324(8)
C16 C 0.4069(10) 0.6239(17) 0.0324(9)
H23 H 0.3756 0.5984 0.0046
C17 C 0.3690(12) 0.6550(16) 0.0763(8)
C18 C 0.4402(13) 0.7204(11) 0.1524(8)
C19 C 0.3656(11) 0.7655(9) 0.1764(7)
H24 H 0.3069 0.7696 0.1604
C20 C 0.3775(11) 0.8047(9) 0.2241(7)
H25 H 0.3267 0.8381 0.2408
C21 C 0.4627(13) 0.7967(10) 0.2489(8)
H26 H 0.4712 0.8244 0.2819
C22 C 0.5336(12) 0.7468(10) 0.2234(8)
C23 C 0.6300(15) 0.7300(10) 0.2400(9)
C24 C 0.7774(18) 0.6977(13) 0.2261(12)
C25 C 0.6763(15) 0.7338(9) 0.2869(9)
C26 C 0.6502(17) 0.7532(11) 0.3429(10)
C27 C 0.5671(13) 0.7580(8) 0.3667(8)
H27 H 0.5152 0.7467 0.3466
C28 C 0.5553(14) 0.7793(8) 0.4201(8)
H28 H 0.4956 0.7834 0.4362
C29 C 0.6289(15) 0.7941(9) 0.4493(8)
H29 H 0.6222 0.8089 0.4859
C30 C 0.7174(11) 0.7865(9) 0.4231(8)
C31 C 0.8214(12) 0.8463(9) 0.4903(7)
C32 C 0.9132(12) 0.8488(11) 0.4864(8)
H30 H 0.9491 0.8780 0.5105
C33 C 0.9470(14) 0.8029(14) 0.4424(8)
C34 C 0.8672(18) 0.6885(15) 0.2018(14)
C35 C 0.9086(17) 0.6080(12) 0.1991(11)
H31 H 0.8755 0.5612 0.2113
C36 C 0.9977(14) 0.5871(10) 0.1794(8)
H32 H 1.0259 0.5282 0.1811
C37 C 1.0427(13) 0.6504(12) 0.1584(8)
H33 H 1.1035 0.6373 0.1446
C38 C 1.0001(10) 0.7367(9) 0.1567(7)
H34 H 1.0320 0.7831 0.1425
C39 C 0.9118(13) 0.7534(13) 0.1757(8)
H35 H 0.8801 0.8103 0.1710
C40 C 0.8025(14) 0.9713(12) 0.3094(11)
H36 H 0.7546 0.9356 0.2977
H37 H 0.7951 1.0288 0.2915
H38 H 0.7971 0.9796 0.3480
C41 C 1.1289(6) 0.8999(8) 0.2369(4)
H39 H 1.1293 0.9542 0.2158
H40 H 1.1391 0.8489 0.2133
H41 H 1.1780 0.8973 0.2632
C42 C 0.8925(7) 0.9268(8) 0.2961(4)
C43 C 0.9659(12) 0.9500(13) 0.2688(10)
H42 H 0.9635 1.0060 0.2519
C44 C 1.0362(6) 0.8990(7) 0.2656(4)
C45 C 1.0535(6) 0.7495(7) 0.3042(4)
C46 C 1.1497(8) 0.7286(9) 0.3023(5)
H43 H 1.1907 0.7713 0.2939
C47 C 1.1811(6) 0.6409(7) 0.3137(4)
H44 H 1.2457 0.6254 0.3152
C48 C 1.1249(6) 0.5767(8) 0.3226(4)
H45 H 1.1487 0.5169 0.3273
C49 C 1.0289(6) 0.6032(8) 0.3248(4)
C50 C 0.9552(8) 0.5425(9) 0.3364(6)
C51 C 0.8194(13) 0.5240(8) 0.3669(9)
C52 C 0.9472(10) 0.4564(8) 0.3352(6)
C53 C 0.7271(14) 0.5329(11) 0.3890(10)
C54 C 0.6596(14) 0.4999(10) 0.3615(9)
H46 H 0.6711 0.4762 0.3268
C55 C 0.5741(14) 0.5018(10) 0.3852(9)
H47 H 0.5259 0.4792 0.3664
C56 C 0.5571(13) 0.5330(10) 0.4317(9)
H48 H 0.4973 0.5318 0.4470
C57 C 0.6223(14) 0.5674(9) 0.4594(8)
H49 H 0.6086 0.5919 0.4936
C58 C 0.7115(14) 0.5667(10) 0.4370(8)
H50 H 0.7592 0.5900 0.4559
C59 C 1.0572(19) 0.3541(19) 0.4536(13)
H51 H 1.0605 0.2917 0.4442
H52 H 1.0990 0.3614 0.4830
H53 H 1.0753 0.3883 0.4227
C60 C 0.7737(11) 0.4298(17) 0.5619(8)
H54 H 0.7479 0.3797 0.5791
H55 H 0.7244 0.4674 0.5446
H56 H 0.8024 0.4638 0.5887
C61 C 0.3222(8) 0.1617(12) 0.1132(5)
H57 H 0.2824 0.2173 0.1118
H58 H 0.3207 0.1373 0.1494
H59 H 0.3002 0.1199 0.0882
C62 C 0.6366(9) 0.1724(14) 0.0219(7)
H60 H 0.6749 0.1183 0.0314
H61 H 0.6734 0.2225 0.0232
H62 H 0.6134 0.1671 -0.0142
C63 C 0.9708(11) 0.3826(13) 0.4687(8)
C64 C 0.9350(9) 0.4146(14) 0.5170(7)
H63 H 0.9680 0.4435 0.5427
C65 C 0.8426(10) 0.3977(14) 0.5221(9)
C66 C 0.7402(11) 0.3294(11) 0.4550(8)
C67 C 0.6658(11) 0.3124(9) 0.4842(7)
H64 H 0.6633 0.3198 0.5217
C68 C 0.5906(12) 0.2824(9) 0.4561(7)
H65 H 0.5361 0.2699 0.4747
C69 C 0.5981(11) 0.2720(9) 0.4019(7)
H66 H 0.5487 0.2516 0.3831
C70 C 0.6749(12) 0.2905(9) 0.3748(8)
C71 C 0.6969(12) 0.2842(9) 0.3189(8)
C72 C 0.7905(16) 0.2900(19) 0.2504(10)
C73 C 0.6496(9) 0.2790(11) 0.2744(9)
C74 C 0.5516(8) 0.2784(12) 0.2558(6)
C75 C 0.4727(10) 0.2953(8) 0.2886(7)
H67 H 0.4764 0.3135 0.3245
C76 C 0.3901(8) 0.2840(7) 0.2655(5)
H68 H 0.3352 0.2980 0.2859
C77 C 0.3826(9) 0.2543(7) 0.2158(6)
H69 H 0.3256 0.2423 0.2013
C78 C 0.4666(6) 0.2424(8) 0.1868(5)
C79 C 0.4173(7) 0.1776(10) 0.0986(5)
C80 C 0.4679(8) 0.1644(10) 0.0539(5)
H70 H 0.4459 0.1424 0.0218
C81 C 0.5568(7) 0.1867(11) 0.0604(6)
C82 C 0.8744(18) 0.2778(19) 0.2180(12)
C83 C 0.9119(11) 0.3384(11) 0.1882(6)
H71 H 0.8839 0.3974 0.1883
C84 C 0.9918(9) 0.3169(10) 0.1570(6)
H72 H 1.0194 0.3602 0.1366
C85 C 1.0281(9) 0.2300(9) 0.1574(6)
H73 H 1.0798 0.2130 0.1349
C86 C 0.9920(9) 0.1650(8) 0.1896(5)
H74 H 1.0174 0.1054 0.1870
C87 C 0.9222(13) 0.1870(11) 0.2236(6)
H75 H 0.9040 0.1471 0.2500
C88 C 0.5983(17) 0.0452(17) 0.2298(12)
H76 H 0.5901 0.0938 0.2553
H77 H 0.6099 -0.0106 0.2492
H78 H 0.5424 0.0445 0.2088
C89 C 0.8958(13) -0.0258(12) 0.1182(8)
H79 H 0.8853 -0.0420 0.0813
H80 H 0.9167 -0.0787 0.1387
H81 H 0.9429 0.0155 0.1188
C90 C 0.8710(8) 0.8435(9) -0.0154(6)
H82 H 0.8593 0.8959 -0.0380
H83 H 0.8772 0.7908 -0.0376
H84 H 0.9280 0.8469 0.0042
C91 C 0.5718(16) 0.9042(15) 0.0952(11)
H85 H 0.5219 0.8712 0.0832
H86 H 0.5607 0.9655 0.0830
H87 H 0.5739 0.9025 0.1341
C92 C 0.6804(14) 0.0577(12) 0.1925(10)
C93 C 0.7483(10) -0.0195(8) 0.1788(6)
H88 H 0.7509 -0.0784 0.1915
C94 C 0.8064(11) 0.0176(10) 0.1427(7)
C95 C 0.8011(14) 0.1670(10) 0.1036(7)
C96 C 0.8655(12) 0.1555(9) 0.0598(6)
H89 H 0.8978 0.0998 0.0520
C97 C 0.8783(12) 0.2269(9) 0.0303(6)
H90 H 0.9169 0.2198 -0.0005
C98 C 0.8373(13) 0.3117(8) 0.0427(7)
H91 H 0.8518 0.3625 0.0235
C99 C 0.7731(18) 0.3165(9) 0.0857(9)
C100 C 0.7210(14) 0.3956(8) 0.1080(9)
C101 C 0.6084(13) 0.4620(8) 0.1558(9)
C102 C 0.7297(17) 0.4843(10) 0.1075(12)
C103 C 0.7940(17) 0.5406(13) 0.0839(15)
C104 C 0.8917(18) 0.5122(14) 0.0694(15)
H92 H 0.9194 0.4544 0.0765
C105 C 0.9376(13) 0.5731(11) 0.0460(9)
H93 H 0.9973 0.5558 0.0318
C106 C 0.9043(15) 0.6569(11) 0.0416(9)
H94 H 0.9415 0.6984 0.0263
C107 C 0.8109(14) 0.6856(14) 0.0600(11)
C108 C 0.7913(10) 0.8389(8) 0.0239(7)
C109 C 0.7155(16) 0.8999(11) 0.0369(10)
H95 H 0.7057 0.9576 0.0223
C110 C 0.6577(12) 0.8655(10) 0.0734(7)
C111 C 0.5233(11) 0.4780(9) 0.1873(7)
C112 C 0.5279(13) 0.5256(9) 0.2346(7)
H96 H 0.5861 0.5393 0.2465
C113 C 0.4505(9) 0.5528(9) 0.2639(6)
H97 H 0.4542 0.5868 0.2952
C114 C 0.3688(11) 0.5302(10) 0.2473(6)
H98 H 0.3153 0.5457 0.2686
C115 C 0.3602(11) 0.4849(11) 0.1999(6)
H99 H 0.3009 0.4734 0.1885
C116 C 0.4415(12) 0.4548(10) 0.1674(8)
H100 H 0.4383 0.4222 0.1356
Fe5? Fe 0.6464(7) 0.6854(7) 0.1256(4)
Fe6? Fe 0.8441(5) 0.7530(4) 0.3418(3)
Fe7? Fe 0.8691(4) 0.3364(4) 0.3620(2)
Fe8? Fe 0.6497(5) 0.2616(6) 0.1574(3)
N33? N 0.5252(18) 0.6853(15) 0.0714(12)
N34? N 0.445(2) 0.7055(14) 0.0978(12)
N35? N 0.5318(14) 0.7377(10) 0.1712(9)
N36? N 0.700(3) 0.7243(18) 0.1999(14)
N37? N 0.7647(17) 0.7377(15) 0.2769(11)
N38? N 0.7201(15) 0.7938(11) 0.3709(11)
N39? N 0.7906(13) 0.8287(11) 0.4476(8)
N40? N 0.8700(15) 0.7934(13) 0.4238(8)
N41? N 0.8603(8) 0.8693(8) 0.3147(5)
N42? N 0.9424(11) 0.8759(10) 0.2913(6)
N43? N 0.9637(7) 0.7287(7) 0.3087(5)
N44? N 0.8622(10) 0.6222(8) 0.3506(7)
N45? N 0.8630(13) 0.4728(9) 0.3489(9)
N46? N 0.9863(10) 0.3476(9) 0.3282(7)
C117? C 1.0126(9) 0.4206(9) 0.3079(6)
C118? C 1.0862(9) 0.4238(9) 0.2710(6)
H101? H 1.1022 0.4770 0.2553
C119? C 1.1358(9) 0.3374(10) 0.2591(6)
H102? H 1.1849 0.3308 0.2337
C120? C 1.1075(11) 0.2669(11) 0.2866(7)
H103? H 1.1445 0.2128 0.2811
C121? C 1.0376(10) 0.2626(10) 0.3193(6)
N47? N 0.9903(11) 0.1963(9) 0.3501(7)
C122? C 1.0315(10) 0.1051(10) 0.3610(8)
C123? C 1.1155(8) 0.0860(12) 0.3433(6)
H104? H 1.1524 0.0546 0.3710
H105? H 1.1423 0.1404 0.3337
H106? H 1.1150 0.0486 0.3118
C124? C 0.9631(9) 0.0858(11) 0.3909(7)
H107? H 0.9719 0.0291 0.4069
C125? C 0.8857(9) 0.1292(10) 0.4029(7)
C126? C 0.8036(9) 0.1293(12) 0.4334(6)
H108? H 0.7513 0.1533 0.4120
H109? H 0.8074 0.1657 0.4651
H110? H 0.7949 0.0689 0.4443
N48? N 0.9089(10) 0.2121(8) 0.3741(6)
N49? N 0.892(2) 0.3644(13) 0.4404(9)
N50? N 0.8036(13) 0.3742(18) 0.4778(10)
N51? N 0.7397(18) 0.3405(14) 0.4029(14)
N52? N 0.779(2) 0.3076(17) 0.3083(11)
N53? N 0.6979(19) 0.285(3) 0.2352(13)
N54? N 0.5321(16) 0.2716(17) 0.2091(12)
N55? N 0.4541(13) 0.2342(16) 0.1370(10)
N56? N 0.5375(12) 0.2252(18) 0.1094(9)
N57? N 0.7037(19) 0.1311(13) 0.1590(13)
N58? N 0.7771(18) 0.1154(12) 0.1260(11)
N59? N 0.758(2) 0.2640(11) 0.1092(13)
N60? N 0.6410(19) 0.3994(12) 0.1364(11)
N61? N 0.6606(19) 0.5460(11) 0.1341(13)
N62? N 0.7599(17) 0.6443(10) 0.0780(13)
N63? N 0.7698(19) 0.7865(13) 0.0548(13)
N64? N 0.6915(19) 0.8040(13) 0.0815(11)
C127? C 0.5973(15) 0.610(2) -0.0118(11)
H111? H 0.6332 0.6605 -0.0174
H112? H 0.5709 0.5947 -0.0456
H113? H 0.6374 0.5600 0.0017
C128? C 0.2776(19) 0.652(2) 0.0878(14)
H114? H 0.2366 0.7062 0.0838
H115? H 0.2796 0.6340 0.1254
H116? H 0.2546 0.6051 0.0667
C129? C 0.7316(12) 0.9309(13) 0.5245(8)
H117? H 0.7593 0.9761 0.5444
H118? H 0.7050 0.8904 0.5495
H119? H 0.6831 0.9590 0.5017
C130? C 1.0357(14) 0.7990(19) 0.4395(8)
H120? H 1.0416 0.7488 0.4152
H121? H 1.0698 0.7831 0.4720
H122? H 1.0607 0.8494 0.4223
C131? C 0.5233(14) 0.634(3) 0.0269(12)
C132? C 0.4266(17) 0.623(2) 0.0237(11)
H123? H 0.3987 0.5921 -0.0031
C133? C 0.3807(17) 0.668(2) 0.0669(13)
C134? C 0.4502(18) 0.7460(14) 0.1471(11)
C135? C 0.3737(15) 0.8001(10) 0.1683(9)
H124? H 0.3166 0.8089 0.1505
C136? C 0.3877(15) 0.8401(11) 0.2173(9)
H125? H 0.3389 0.8768 0.2336
C137? C 0.4732(16) 0.8261(12) 0.2424(10)
H126? H 0.4828 0.8521 0.2758
C138? C 0.5440(16) 0.7725(12) 0.2165(10)
C139? C 0.6368(18) 0.7562(13) 0.2379(12)
C140? C 0.780(2) 0.7172(19) 0.2264(15)
C141? C 0.676(2) 0.7617(12) 0.2851(11)
C142? C 0.650(2) 0.7792(15) 0.3421(13)
C143? C 0.5591(17) 0.7890(11) 0.3639(10)
H127? H 0.5072 0.7809 0.3430
C144? C 0.5499(18) 0.8111(11) 0.4178(11)
H128? H 0.4908 0.8178 0.4346
C145? C 0.627(2) 0.8232(13) 0.4466(12)
H129? H 0.6226 0.8371 0.4834
C146? C 0.7056(15) 0.8152(12) 0.4221(11)
C147? C 0.8066(12) 0.8789(11) 0.4894(7)
C148? C 0.8996(11) 0.8785(12) 0.4928(7)
H130? H 0.9313 0.9106 0.5175
C149? C 0.9409(14) 0.8216(17) 0.4528(9)
C150? C 0.874(3) 0.673(2) 0.2009(19)
C151? C 0.910(2) 0.5862(14) 0.2063(14)
H131? H 0.8731 0.5462 0.2236
C152? C 0.9937(17) 0.5560(13) 0.1884(11)
H132? H 1.0141 0.4949 0.1877
C153? C 1.0495(14) 0.6195(11) 0.1708(8)
H133? H 1.1114 0.6002 0.1611
C154? C 1.0229(12) 0.7041(13) 0.1666(9)
H134? H 1.0620 0.7433 0.1506
C155? C 0.9295(15) 0.7368(15) 0.1877(9)
H135? H 0.9101 0.7977 0.1917
C156? C 0.7294(9) 0.9684(9) 0.3357(6)
H136? H 0.6821 0.9581 0.3100
H137? H 0.7234 1.0308 0.3454
H138? H 0.7217 0.9325 0.3677
C157? C 1.0388(11) 0.9808(11) 0.2417(7)
H139? H 1.0753 1.0128 0.2659
H140? H 1.0295 1.0143 0.2085
H141? H 1.0716 0.9229 0.2341
C158? C 0.812(2) 0.9468(19) 0.3143(17)
C159? C 0.8731(10) 1.0051(11) 0.2869(6)
H142? H 0.8572 1.0669 0.2843
C160? C 0.9471(19) 0.9693(17) 0.2674(16)
C161? C 1.0061(15) 0.7956(11) 0.2891(10)
C162? C 1.0972(10) 0.7884(10) 0.2779(7)
H143? H 1.1274 0.8376 0.2663
C163? C 1.1482(15) 0.6987(12) 0.2847(9)
H144? H 1.2125 0.6890 0.2773
C164? C 1.1012(9) 0.6331(10) 0.3013(6)
H145? H 1.1321 0.5758 0.3059
C165? C 1.0075(13) 0.6479(11) 0.3120(10)
C166? C 0.9479(10) 0.5841(9) 0.3306(7)
C167? C 0.8189(19) 0.5501(12) 0.3607(13)
C168? C 0.9488(14) 0.4902(11) 0.3259(10)
C169? C 0.7222(19) 0.5577(15) 0.3841(13)
C170? C 0.6480(17) 0.5278(13) 0.3561(12)
H146? H 0.6590 0.5056 0.3211
C171? C 0.5590(17) 0.5299(14) 0.3782(12)
H147? H 0.5100 0.5092 0.3592
C172? C 0.5453(19) 0.5649(13) 0.4313(11)
H148? H 0.4860 0.5662 0.4477
C173? C 0.618(2) 0.5978(14) 0.4602(12)
H149? H 0.6069 0.6225 0.4946
C174? C 0.702(2) 0.5930(15) 0.4374(11)
H150? H 0.7510 0.6134 0.4567
C175? C 1.060(2) 0.375(2) 0.4467(16)
H151? H 1.0807 0.3196 0.4288
H152? H 1.1044 0.3869 0.4738
H153? H 1.0552 0.4232 0.4205
C176? C 0.7476(17) 0.436(3) 0.5683(13)
H154? H 0.6868 0.4390 0.5521
H155? H 0.7557 0.4931 0.5843
H156? H 0.7526 0.3903 0.5958
C177? C 0.2914(12) 0.1691(19) 0.1315(10)
H157? H 0.2962 0.1187 0.1561
H158? H 0.2530 0.1566 0.1014
H159? H 0.2633 0.2215 0.1502
C178? C 0.6019(13) 0.1670(18) 0.0275(10)
H160? H 0.6410 0.2155 0.0279
H161? H 0.5773 0.1617 -0.0082
H162? H 0.6384 0.1120 0.0372
C179? C 0.9532(14) 0.3674(18) 0.4766(11)
C180? C 0.9149(18) 0.402(2) 0.5250(11)
H163? H 0.9507 0.4158 0.5545
C181? C 0.8233(19) 0.414(2) 0.5248(13)
C182? C 0.7234(18) 0.3555(16) 0.4568(12)
C183? C 0.6462(15) 0.3447(13) 0.4862(10)
H164? H 0.6427 0.3551 0.5234
C184? C 0.5757(15) 0.3187(11) 0.4597(9)
H165? H 0.5206 0.3099 0.4787
C185? C 0.5798(14) 0.3036(12) 0.4042(9)
H166? H 0.5295 0.2834 0.3860
C186? C 0.6604(17) 0.3194(13) 0.3773(11)
C187? C 0.6837(17) 0.3124(13) 0.3204(11)
C188? C 0.785(2) 0.279(3) 0.2578(14)
C189? C 0.6357(14) 0.3005(18) 0.2734(14)
C190? C 0.5372(14) 0.296(2) 0.2636(10)
C191? C 0.4612(16) 0.3269(12) 0.2874(11)
H167? H 0.4649 0.3543 0.3210
C192? C 0.3750(14) 0.3221(11) 0.2661(8)
H168? H 0.3202 0.3388 0.2860
C193? C 0.3726(15) 0.2914(11) 0.2136(9)
H169? H 0.3145 0.2897 0.1974
C194? C 0.4418(14) 0.2669(14) 0.1881(9)
C195? C 0.3878(14) 0.1855(17) 0.1109(9)
C196? C 0.4384(12) 0.1513(14) 0.0647(9)
H170? H 0.4177 0.1137 0.0386
C197? C 0.5256(14) 0.1848(19) 0.0658(9)
C198? C 0.870(3) 0.270(3) 0.2251(16)
C199? C 0.8970(15) 0.3519(16) 0.2028(8)
H171? H 0.8646 0.4062 0.2133
C200? C 0.9703(15) 0.3516(11) 0.1661(8)
H172? H 0.9851 0.4055 0.1508
C201? C 1.0210(15) 0.2744(14) 0.1519(9)
H173? H 1.0721 0.2750 0.1281
C202? C 0.9981(17) 0.1992(14) 0.1719(10)
H174? H 1.0347 0.1454 0.1647
C203? C 0.9144(16) 0.2008(15) 0.2056(8)
H175? H 0.8916 0.1460 0.2135
C204? C 0.609(2) 0.0517(17) 0.2220(13)
H176? H 0.6255 0.0812 0.2544
H177? H 0.5938 -0.0078 0.2309
H178? H 0.5554 0.0852 0.2060
C205? C 0.889(2) -0.007(2) 0.1012(12)
H179? H 0.9101 -0.0666 0.1139
H180? H 0.9378 0.0312 0.1048
H181? H 0.8720 -0.0100 0.0636
C206? C 0.8564(18) 0.866(2) -0.0101(13)
H182? H 0.8572 0.9248 -0.0258
H183? H 0.8544 0.8226 -0.0385
H184? H 0.9121 0.8517 0.0108
C207? C 0.566(2) 0.928(2) 0.0955(15)
H185? H 0.5705 0.9890 0.1057
H186? H 0.5556 0.8925 0.1274
H187? H 0.5149 0.9252 0.0711
C208? C 0.686(2) 0.0464(15) 0.1844(13)
C209? C 0.7551(19) -0.0036(13) 0.1646(11)
H188? H 0.7631 -0.0635 0.1757
C210? C 0.8158(19) 0.0242(15) 0.1297(11)
C211? C 0.806(2) 0.1802(12) 0.0919(10)
C212? C 0.8582(16) 0.1817(11) 0.0492(9)
H189? H 0.8898 0.1272 0.0383
C213? C 0.8717(14) 0.2529(10) 0.0192(7)
H190? H 0.9094 0.2479 -0.0121
C214? C 0.8274(19) 0.3363(12) 0.0360(10)
H191? H 0.8317 0.3886 0.0158
C215? C 0.777(2) 0.3363(11) 0.0841(12)
C216? C 0.727(2) 0.4151(14) 0.1063(15)
C217? C 0.614(2) 0.4824(14) 0.1507(15)
C218? C 0.731(2) 0.5041(12) 0.1047(17)
C219? C 0.804(2) 0.554(2) 0.081(2)
C220? C 0.883(2) 0.5298(17) 0.0671(19)
H192? H 0.9031 0.4686 0.0657
C221? C 0.9493(16) 0.5950(14) 0.0524(9)
H193? H 1.0133 0.5784 0.0473
C222? C 0.9111(17) 0.6805(12) 0.0468(11)
H194? H 0.9480 0.7259 0.0369
C223? C 0.8262(19) 0.6970(18) 0.0552(16)
C224? C 0.778(2) 0.8640(14) 0.0235(12)
C225? C 0.714(3) 0.9202(17) 0.0312(15)
H195? H 0.7056 0.9761 0.0140
C226? C 0.657(2) 0.8905(13) 0.0675(13)
C227? C 0.5269(17) 0.5042(13) 0.1803(11)
C228? C 0.5156(17) 0.5525(13) 0.2255(10)
H196? H 0.5679 0.5693 0.2433
C229? C 0.4283(13) 0.5772(14) 0.2456(8)
H197? H 0.4204 0.6139 0.2761
C230? C 0.3538(14) 0.5494(14) 0.2221(8)
H198? H 0.2945 0.5656 0.2374
C231? C 0.3603(16) 0.4994(16) 0.1776(8)
H199? H 0.3087 0.4798 0.1604
C232? C 0.4463(19) 0.4810(14) 0.1609(12)
H200? H 0.4532 0.4453 0.1300
B2? B 0.1531(16) 0.9368(16) 0.0832(10)
F5? F 0.148(2) 1.001(2) 0.1219(13)
F6? F 0.137(2) 0.8589(13) 0.1076(10)
F7? F 0.2433(16) 0.926(3) 0.0689(15)
F8? F 0.0899(16) 0.957(2) 0.0449(8)
B3? B 0.2990(7) 0.8474(9) 0.3888(5)
F9? F 0.3477(8) 0.8809(11) 0.4293(4)
F10? F 0.3110(12) 0.7624(7) 0.3978(6)
F11? F 0.3353(9) 0.8611(8) 0.3402(4)
F12? F 0.2158(4) 0.8866(8) 0.3888(6)
B5? B 0.3142(11) 0.3322(12) 0.4065(7)
F17? F 0.2747(19) 0.3327(17) 0.4566(7)
F18? F 0.3560(12) 0.2510(9) 0.3929(7)
F19? F 0.2455(6) 0.3577(9) 0.3723(4)
F20? F 0.3749(8) 0.3944(9) 0.4034(6)
B8? B 0.1922(10) 0.4136(11) 0.0957(7)
F29? F 0.2847(6) 0.4039(11) 0.0978(5)
F30? F 0.1703(11) 0.4117(11) 0.1480(5)
F31? F 0.1661(15) 0.4898(11) 0.0711(7)
F32? F 0.1548(11) 0.3473(10) 0.0729(5)
loop_
_geom_bond_atom_site_label_1
_geom_bond_atom_site_label_2
_geom_bond_site_symmetry_1
_geom_bond_site_symmetry_2
Fe1 N1 1_555 1_555
Fe2 N5 1_555 1_555
Fe3 N13 1_555 1_555
Fe4 N21 1_555 1_555
N1 N2 1_555 1_555
N2 C17 1_555 1_555
N3 Fe1 1_555 1_555
N4 Fe1 1_555 1_555
N5 C24 1_555 1_555
N6 Fe2 1_555 1_555
N7 N8 1_555 1_555
N8 Fe2 1_555 1_555
N9 Fe2 1_555 1_555
N10 N9 1_555 1_555
N11 Fe2 1_555 1_555
N12 Fe2 1_555 1_555
N13 C51 1_555 1_555
N14 Fe3 1_555 1_555
C1 N14 1_555 1_555
C2 C1 1_555 1_555
H1 C2 1_555 1_555
C3 C2 1_555 1_555
H2 C3 1_555 1_555
C4 C3 1_555 1_555
H3 C4 1_555 1_555
C5 N14 1_555 1_555
N15 C5 1_555 1_555
C6 N15 1_555 1_555
C7 C6 1_555 1_555
H4 C7 1_555 1_555
H5 C7 1_555 1_555
H6 C7 1_555 1_555
C8 C6 1_555 1_555
H7 C8 1_555 1_555
C9 C8 1_555 1_555
C10 C9 1_555 1_555
H8 C10 1_555 1_555
H9 C10 1_555 1_555
H10 C10 1_555 1_555
N16 Fe3 1_555 1_555
N17 Fe3 1_555 1_555
N18 N17 1_555 1_555
N19 Fe3 1_555 1_555
N20 Fe3 1_555 1_555
N21 C72 1_555 1_555
N22 Fe4 1_555 1_555
N23 N24 1_555 1_555
N24 Fe4 1_555 1_555
N25 Fe4 1_555 1_555
N26 N25 1_555 1_555
N27 Fe4 1_555 1_555
N28 Fe4 1_555 1_555
N29 Fe1 1_555 1_555
N30 Fe1 1_555 1_555
N31 N32 1_555 1_555
N32 Fe1 1_555 1_555
C11 H11 1_555 1_555
H12 C11 1_555 1_555
H13 C11 1_555 1_555
C12 H14 1_555 1_555
H15 C12 1_555 1_555
H16 C12 1_555 1_555
C13 H17 1_555 1_555
H18 C13 1_555 1_555
H19 C13 1_555 1_555
C14 H20 1_555 1_555
H21 C14 1_555 1_555
H22 C14 1_555 1_555
C15 N1 1_555 1_555
C16 C15 1_555 1_555
H23 C16 1_555 1_555
C17 C12 1_555 1_555
C18 N2 1_555 1_555
C19 C18 1_555 1_555
H24 C19 1_555 1_555
C20 C19 1_555 1_555
H25 C20 1_555 1_555
C21 C20 1_555 1_555
H26 C21 1_555 1_555
C22 N3 1_555 1_555
C23 N4 1_555 1_555
C24 N4 1_555 1_555
C25 N5 1_555 1_555
C26 N6 1_555 1_555
C27 C26 1_555 1_555
H27 C27 1_555 1_555
C28 C27 1_555 1_555
H28 C28 1_555 1_555
C29 C28 1_555 1_555
H29 C29 1_555 1_555
C30 N6 1_555 1_555
C31 N7 1_555 1_555
C32 C31 1_555 1_555
H30 C32 1_555 1_555
C33 N8 1_555 1_555
C34 C24 1_555 1_555
C35 C34 1_555 1_555
H31 C35 1_555 1_555
C36 C35 1_555 1_555
H32 C36 1_555 1_555
C37 C36 1_555 1_555
H33 C37 1_555 1_555
C38 C37 1_555 1_555
H34 C38 1_555 1_555
C39 C34 1_555 1_555
H35 C39 1_555 1_555
C40 H36 1_555 1_555
H37 C40 1_555 1_555
H38 C40 1_555 1_555
C41 H39 1_555 1_555
H40 C41 1_555 1_555
H41 C41 1_555 1_555
C42 N9 1_555 1_555
C43 C42 1_555 1_555
H42 C43 1_555 1_555
C44 N10 1_555 1_555
C45 N10 1_555 1_555
C46 C45 1_555 1_555
H43 C46 1_555 1_555
C47 C46 1_555 1_555
H44 C47 1_555 1_555
C48 C47 1_555 1_555
H45 C48 1_555 1_555
C49 N11 1_555 1_555
C50 N12 1_555 1_555
C51 N12 1_555 1_555
C52 N13 1_555 1_555
C53 C51 1_555 1_555
C54 C53 1_555 1_555
H46 C54 1_555 1_555
C55 C54 1_555 1_555
H47 C55 1_555 1_555
C56 C55 1_555 1_555
H48 C56 1_555 1_555
C57 C56 1_555 1_555
H49 C57 1_555 1_555
C58 C53 1_555 1_555
H50 C58 1_555 1_555
C59 H51 1_555 1_555
H52 C59 1_555 1_555
H53 C59 1_555 1_555
C60 H54 1_555 1_555
H55 C60 1_555 1_555
H56 C60 1_555 1_555
C61 H57 1_555 1_555
H58 C61 1_555 1_555
H59 C61 1_555 1_555
C62 H60 1_555 1_555
H61 C62 1_555 1_555
H62 C62 1_555 1_555
C63 N17 1_555 1_555
C64 C63 1_555 1_555
H63 C64 1_555 1_555
C65 N18 1_555 1_555
C66 N18 1_555 1_555
C67 C66 1_555 1_555
H64 C67 1_555 1_555
C68 C67 1_555 1_555
H65 C68 1_555 1_555
C69 C68 1_555 1_555
H66 C69 1_555 1_555
C70 N19 1_555 1_555
C71 N20 1_555 1_555
C72 N20 1_555 1_555
C73 N21 1_555 1_555
C74 N22 1_555 1_555
C75 C74 1_555 1_555
H67 C75 1_555 1_555
C76 C75 1_555 1_555
H68 C76 1_555 1_555
C77 C76 1_555 1_555
H69 C77 1_555 1_555
C78 N22 1_555 1_555
C79 N23 1_555 1_555
C80 C79 1_555 1_555
H70 C80 1_555 1_555
C81 N24 1_555 1_555
C82 C72 1_555 1_555
C83 C82 1_555 1_555
H71 C83 1_555 1_555
C84 C83 1_555 1_555
H72 C84 1_555 1_555
C85 C84 1_555 1_555
H73 C85 1_555 1_555
C86 C85 1_555 1_555
H74 C86 1_555 1_555
C87 C82 1_555 1_555
H75 C87 1_555 1_555
C88 H76 1_555 1_555
H77 C88 1_555 1_555
H78 C88 1_555 1_555
C89 H79 1_555 1_555
H80 C89 1_555 1_555
H81 C89 1_555 1_555
C90 H82 1_555 1_555
H83 C90 1_555 1_555
H84 C90 1_555 1_555
C91 H85 1_555 1_555
H86 C91 1_555 1_555
H87 C91 1_555 1_555
C92 N25 1_555 1_555
C93 C92 1_555 1_555
H88 C93 1_555 1_555
C94 N26 1_555 1_555
C95 N26 1_555 1_555
C96 C95 1_555 1_555
H89 C96 1_555 1_555
C97 C96 1_555 1_555
H90 C97 1_555 1_555
C98 C97 1_555 1_555
H91 C98 1_555 1_555
C99 N27 1_555 1_555
C100 N28 1_555 1_555
C101 N28 1_555 1_555
C102 N29 1_555 1_555
C103 N30 1_555 1_555
C104 C103 1_555 1_555
H92 C104 1_555 1_555
C105 C104 1_555 1_555
H93 C105 1_555 1_555
C106 C105 1_555 1_555
H94 C106 1_555 1_555
C107 N30 1_555 1_555
C108 N31 1_555 1_555
C109 C108 1_555 1_555
H95 C109 1_555 1_555
C110 N32 1_555 1_555
C111 C101 1_555 1_555
C112 C111 1_555 1_555
H96 C112 1_555 1_555
C113 C112 1_555 1_555
H97 C113 1_555 1_555
C114 C113 1_555 1_555
H98 C114 1_555 1_555
C115 C114 1_555 1_555
H99 C115 1_555 1_555
C116 C111 1_555 1_555
H100 C116 1_555 1_555
B1 F1 1_555 1_555
F2 B1 1_555 1_555
F3 B1 1_555 1_555
F4 B1 1_555 1_555
B4 F13 1_555 1_555
F14 B4 1_555 1_555
F15 B4 1_555 1_555
F16 B4 1_555 1_555
B6 F21 1_555 1_555
F22 B6 1_555 1_555
F23 B6 1_555 1_555
F24 B6 1_555 1_555
B7 F25 1_555 1_555
F26 B7 1_555 1_555
F27 B7 1_555 1_555
F28 B7 1_555 1_555
N3 C18 1_555 1_555
N7 C30 1_555 1_555
N11 C45 1_555 1_555
C1 C52 1_555 1_555
C4 C5 1_555 1_555
N15 N16 1_555 1_555
C9 N16 1_555 1_555
N19 C66 1_555 1_555
N23 C78 1_555 1_555
N27 C95 1_555 1_555
N29 C101 1_555 1_555
N31 C107 1_555 1_555
C11 C15 1_555 1_555
C13 C31 1_555 1_555
C14 C33 1_555 1_555
C16 C17 1_555 1_555
C21 C22 1_555 1_555
C22 C23 1_555 1_555
C23 C25 1_555 1_555
C25 C26 1_555 1_555
C29 C30 1_555 1_555
C32 C33 1_555 1_555
C38 C39 1_555 1_555
C40 C42 1_555 1_555
C41 C44 1_555 1_555
C43 C44 1_555 1_555
C48 C49 1_555 1_555
C49 C50 1_555 1_555
C50 C52 1_555 1_555
C57 C58 1_555 1_555
C59 C63 1_555 1_555
C60 C65 1_555 1_555
C61 C79 1_555 1_555
C62 C81 1_555 1_555
C64 C65 1_555 1_555
C69 C70 1_555 1_555
C70 C71 1_555 1_555
C71 C73 1_555 1_555
C73 C74 1_555 1_555
C77 C78 1_555 1_555
C80 C81 1_555 1_555
C86 C87 1_555 1_555
C88 C92 1_555 1_555
C89 C94 1_555 1_555
C90 C108 1_555 1_555
C91 C110 1_555 1_555
C93 C94 1_555 1_555
C98 C99 1_555 1_555
C99 C100 1_555 1_555
C100 C102 1_555 1_555
C102 C103 1_555 1_555
C106 C107 1_555 1_555
C109 C110 1_555 1_555
C115 C116 1_555 1_555

#END
