
#######################################################################
#
#                 Cambridge Crystallographic Data Centre
#                                CCDC 
#
#######################################################################
#
# If this CIF has been generated from an entry in the Cambridge 
# Structural Database, then it will include bibliographic, chemical, 
# crystal, experimental, refinement or atomic coordinate data resulting 
# from the CCDC's data processing and validation procedures.
#
#######################################################################

data_SIZJAO01
_chemical_formula_moiety         'C116 H100 Fe4 N32 4+,4(B1 F4 1-),2(C2 H3 N1)'
_chemical_name_systematic        
'tetrakis(\m~2~-2-Phenyl-4,5-bis(6-(3,5-dimethyl-1H-pyrazol-1-yl)pyridin-2-yl)imidazolato)-tetra-iron(ii) tetrakis(tetrafluoroborate) acetonitrile solvate'
_symmetry_cell_setting           triclinic
_symmetry_space_group_name_H-M   'P -1'
_symmetry_Int_Tables_number      2
_space_group_name_Hall           '-P 1'
loop_
_symmetry_equiv_pos_site_id
_symmetry_equiv_pos_as_xyz
1 x,y,z
2 -x,-y,-z
_cell_length_a                   14.780(3)
_cell_length_b                   15.351(4)
_cell_length_c                   24.994(6)
_cell_angle_alpha                87.078(4)
_cell_angle_beta                 89.444(4)
_cell_angle_gamma                81.872(4)
_cell_volume                     5606.55
_exptl_crystal_colour            orange
_exptl_crystal_description       blocks
_cell_formula_units_Z            2
_exptl_crystal_preparation       'irradiated at 532 nm'
loop_
_atom_site_label
_atom_site_type_symbol
_atom_site_fract_x
_atom_site_fract_y
_atom_site_fract_z
F1 F 0.8121(4) 0.0173(4) 0.9306(3)
F2 F 0.9126(4) 0.1157(3) 0.9221(2)
F3 F 0.8275(4) 0.0934(4) 0.8512(3)
F4 F 0.7634(5) 0.1639(4) 0.9222(3)
B1 B 0.8284(8) 0.0967(7) 0.9069(5)
F5 F 0.7197(5) 0.1282(4) 0.6252(3)
F6 F 0.7715(5) 0.2591(4) 0.6162(3)
F7 F 0.6348(4) 0.2465(5) 0.5821(3)
F8 F 0.7606(5) 0.1800(5) 0.5430(3)
B2 B 0.7224(11) 0.2033(9) 0.5917(6)
F9 F 0.6397(4) 0.7456(4) 0.6159(3)
F10 F 0.6473(4) 0.6129(4) 0.5793(3)
F11 F 0.7699(9) 0.6717(11) 0.5896(9)
F12 F 0.6799(6) 0.6232(5) 0.6663(3)
B3 B 0.6847(9) 0.6610(9) 0.6146(6)
F14 F 0.7594(4) 0.5583(4) 0.9383(3)
F15 F 0.8611(4) 0.4966(3) 0.8772(2)
F16 F 0.8294(4) 0.6446(3) 0.8821(2)
F17 F 0.9100(4) 0.5632(5) 0.9468(3)
B4 B 0.8400(8) 0.5651(7) 0.9115(5)
Fe1 Fe 0.34111(8) -0.17132(7) 0.87629(5)
Fe2 Fe 0.13352(8) -0.24214(9) 0.66081(5)
Fe3 Fe 0.15305(9) 0.17635(9) 0.62983(6)
Fe4 Fe 0.36057(8) 0.24895(7) 0.84267(5)
N1 N 0.4590(5) -0.1738(4) 0.9297(3)
N2 N 0.5413(5) -0.1901(4) 0.9034(3)
N3 N 0.4612(4) -0.2230(4) 0.8328(3)
N4 N 0.2905(4) -0.2122(4) 0.8026(3)
N5 N 0.2193(5) -0.2368(4) 0.7271(3)
N6 N 0.2686(5) -0.2923(4) 0.6336(3)
N7 N 0.2020(5) -0.3218(5) 0.5564(3)
N8 N 0.1195(5) -0.2889(5) 0.5799(3)
N9 N 0.0677(5) -0.3560(5) 0.6900(3)
N10 N -0.0224(5) -0.3339(5) 0.7063(3)
N11 N -0.0036(5) -0.1927(5) 0.6851(3)
N12 N 0.1207(5) -0.1013(5) 0.6451(3)
N13 N 0.1369(5) 0.0418(4) 0.6503(3)
N14 N 0.0167(5) 0.1849(5) 0.6608(4)
N15 N 0.0056(6) 0.3324(5) 0.6416(4)
N16 N 0.0894(6) 0.3155(5) 0.6183(4)
N17 N 0.1375(5) 0.1522(5) 0.5443(3)
N18 N 0.2195(5) 0.1390(5) 0.5173(3)
N19 N 0.2855(5) 0.1736(5) 0.5934(3)
N20 N 0.2389(5) 0.2080(5) 0.6912(3)
N21 N 0.3122(5) 0.2337(4) 0.7647(3)
N22 N 0.4766(5) 0.2525(4) 0.7906(3)
N23 N 0.5514(5) 0.2880(4) 0.8645(3)
N24 N 0.4714(5) 0.2817(4) 0.8923(3)
N25 N 0.3016(5) 0.3885(4) 0.8461(3)
N26 N 0.2273(5) 0.4048(4) 0.8783(3)
N27 N 0.2435(4) 0.2560(4) 0.8940(3)
N28 N 0.3537(4) 0.1134(4) 0.8679(3)
N29 N 0.3325(4) -0.0297(4) 0.8658(3)
N30 N 0.2253(4) -0.1230(4) 0.9221(3)
N31 N 0.2170(5) -0.2662(4) 0.9482(3)
N32 N 0.2962(5) -0.2876(4) 0.9202(3)
C1 C 0.4018(6) -0.1069(6) 1.0132(4)
H1 H 0.3470 -0.0777 0.9945
H2 H 0.4229 -0.0664 1.0378
H3 H 0.3874 -0.1595 1.0335
C2 C 0.7046(6) -0.1622(7) 0.9106(4)
H4 H 0.7351 -0.1195 0.9290
H5 H 0.7043 -0.1479 0.8720
H6 H 0.7376 -0.2216 0.9179
C3 C 0.2618(7) -0.4182(7) 0.4797(5)
H7 H 0.2883 -0.3767 0.4552
H8 H 0.2355 -0.4609 0.4589
H9 H 0.3095 -0.4493 0.5033
C4 C -0.0427(7) -0.2955(7) 0.5651(4)
H10 H -0.0572 -0.3399 0.5922
H11 H -0.0806 -0.2972 0.5333
H12 H -0.0549 -0.2370 0.5798
C5 C 0.4756(6) -0.1332(5) 0.9731(4)
C6 C 0.5679(6) -0.1222(5) 0.9755(4)
H13 H 0.5966 -0.0951 1.0028
C7 C 0.6089(6) -0.1586(6) 0.9305(4)
C8 C 0.5411(6) -0.2342(5) 0.8564(4)
C9 C 0.6177(7) -0.2877(6) 0.8362(4)
H14 H 0.6752 -0.2946 0.8537
C10 C 0.6052(7) -0.3296(7) 0.7897(5)
H15 H 0.6546 -0.3682 0.7756
C11 C 0.5218(6) -0.3165(6) 0.7634(4)
H16 H 0.5138 -0.3441 0.7309
C12 C 0.4500(6) -0.2614(5) 0.7862(4)
C13 C 0.3561(6) -0.2438(5) 0.7663(4)
C14 C 0.2110(6) -0.2110(5) 0.7775(3)
C15 C 0.3116(6) -0.2572(5) 0.7192(4)
C16 C 0.3402(6) -0.2788(5) 0.6640(4)
C17 C 0.4269(6) -0.2814(5) 0.6414(4)
H17 H 0.4770 -0.2707 0.6624
C18 C 0.4392(7) -0.2997(6) 0.5884(4)
H18 H 0.4985 -0.3025 0.5730
C19 C 0.3659(6) -0.3143(6) 0.5566(4)
H19 H 0.3734 -0.3259 0.5197
C20 C 0.2830(6) -0.3109(6) 0.5817(4)
C21 C 0.1870(7) -0.3679(6) 0.5134(4)
C22 C 0.0951(7) -0.3645(6) 0.5083(5)
H20 H 0.0638 -0.3908 0.4818
C23 C 0.0558(7) -0.3144(6) 0.5500(4)
C24 C 0.1173(5) -0.1841(5) 0.8007(4)
C25 C 0.0821(6) -0.0971(5) 0.8067(4)
H21 H 0.1198 -0.0526 0.7997
C26 C -0.0068(6) -0.0741(6) 0.8229(4)
H22 H -0.0313 -0.0139 0.8254
C27 C -0.0603(6) -0.1395(6) 0.8354(4)
H23 H -0.1215 -0.1238 0.8471
C28 C -0.0259(6) -0.2263(6) 0.8309(4)
H24 H -0.0624 -0.2708 0.8408
C29 C 0.0620(6) -0.2494(6) 0.8122(4)
H25 H 0.0848 -0.3095 0.8071
C30 C 0.1852(7) -0.4846(6) 0.6912(4)
H26 H 0.2059 -0.4590 0.6573
H27 H 0.1819 -0.5474 0.6876
H28 H 0.2284 -0.4779 0.7197
C31 C -0.1449(7) -0.4043(7) 0.7579(4)
H29 H -0.1906 -0.4050 0.7298
H30 H -0.1601 -0.3511 0.7781
H31 H -0.1447 -0.4565 0.7822
C32 C -0.1311(8) 0.4536(8) 0.6421(6)
H32 H -0.1329 0.4627 0.6807
H33 H -0.1730 0.4122 0.6338
H34 H -0.1495 0.5101 0.6224
C33 C 0.1876(7) 0.3931(7) 0.5595(5)
H35 H 0.2386 0.3571 0.5785
H36 H 0.1992 0.4544 0.5560
H37 H 0.1817 0.3708 0.5238
C34 C 0.0928(7) -0.4383(6) 0.7051(4)
C35 C 0.0194(7) -0.4723(7) 0.7324(4)
H38 H 0.0198 -0.5304 0.7474
C36 C -0.0522(7) -0.4049(6) 0.7328(4)
C37 C -0.0644(7) -0.2481(6) 0.6962(4)
C38 C -0.1579(7) -0.2203(7) 0.6965(4)
H39 H -0.1998 -0.2608 0.7044
C39 C -0.1878(7) -0.1349(7) 0.6855(4)
H40 H -0.2517 -0.1152 0.6846
C40 C -0.1273(7) -0.0740(7) 0.6753(5)
H41 H -0.1484 -0.0131 0.6686
C41 C -0.0336(6) -0.1068(6) 0.6753(4)
C42 C 0.0390(6) -0.0540(6) 0.6641(4)
C43 C 0.1759(6) -0.0378(6) 0.6379(4)
C44 C 0.0504(6) 0.0318(6) 0.6676(4)
C45 C -0.0091(6) 0.1110(6) 0.6834(4)
C46 C -0.0803(7) 0.1167(7) 0.7203(5)
H42 H -0.0994 0.0652 0.7368
C47 C -0.1225(7) 0.1995(7) 0.7322(5)
H43 H -0.1701 0.2050 0.7580
C48 C -0.0974(7) 0.2735(7) 0.7077(5)
H44 H -0.1267 0.3303 0.7162
C49 C -0.0281(7) 0.2637(7) 0.6702(5)
C50 C -0.0343(8) 0.4164(7) 0.6259(5)
C51 C 0.0266(8) 0.4537(7) 0.5952(5)
H45 H 0.0191 0.5125 0.5803
C52 C 0.1041(7) 0.3885(6) 0.5893(5)
C53 C 0.2695(6) -0.0527(6) 0.6148(4)
C54 C 0.3401(6) -0.0218(6) 0.6405(4)
H46 H 0.3300 0.0029 0.6745
C55 C 0.4246(7) -0.0266(6) 0.6168(5)
H47 H 0.4731 -0.0051 0.6343
C56 C 0.4392(7) -0.0631(6) 0.5671(5)
H48 H 0.4977 -0.0659 0.5506
C57 C 0.3701(7) -0.0949(6) 0.5419(5)
H49 H 0.3806 -0.1198 0.5079
C58 C 0.2842(6) -0.0907(6) 0.5659(4)
H50 H 0.2363 -0.1138 0.5488
C59 C -0.0174(7) 0.1211(7) 0.5339(5)
H51 H -0.0209 0.0800 0.5650
H52 H -0.0551 0.1053 0.5049
H53 H -0.0399 0.1812 0.5440
C60 C 0.2903(7) 0.0623(6) 0.4370(5)
H54 H 0.2750 0.0149 0.4155
H55 H 0.3447 0.0408 0.4586
H56 H 0.3027 0.1121 0.4132
C61 C 0.6965(7) 0.3569(7) 0.8718(5)
H57 H 0.7162 0.4017 0.8938
H58 H 0.6899 0.3798 0.8345
H59 H 0.7421 0.3039 0.8738
C62 C 0.4028(6) 0.3361(6) 0.9760(4)
H60 H 0.3648 0.3931 0.9690
H61 H 0.4283 0.3334 1.0122
H62 H 0.3653 0.2887 0.9730
C63 C 0.0779(7) 0.1164(6) 0.5159(4)
C64 C 0.1238(7) 0.0774(6) 0.4712(5)
H63 H 0.0974 0.0467 0.4448
C65 C 0.2125(7) 0.0915(6) 0.4729(4)
C66 C 0.2954(6) 0.1671(6) 0.5404(4)
C67 C 0.3712(6) 0.1879(6) 0.5130(4)
H64 H 0.3760 0.1835 0.4753
C68 C 0.4392(7) 0.2150(6) 0.5414(4)
H65 H 0.4925 0.2292 0.5233
C69 C 0.4314(7) 0.2221(6) 0.5966(4)
H66 H 0.4789 0.2408 0.6166
C70 C 0.3523(6) 0.2012(6) 0.6219(4)
C71 C 0.3294(6) 0.2091(5) 0.6787(4)
C72 C 0.2330(6) 0.2254(5) 0.7437(4)
C73 C 0.3770(6) 0.2221(5) 0.7253(4)
C74 C 0.4705(6) 0.2233(5) 0.7409(4)
C75 C 0.5501(6) 0.1957(6) 0.7131(4)
H67 H 0.5469 0.1732 0.6785
C76 C 0.6343(7) 0.2009(6) 0.7354(4)
H68 H 0.6888 0.1837 0.7159
C77 C 0.6386(7) 0.2309(6) 0.7857(4)
H69 H 0.6958 0.2336 0.8021
C78 C 0.5571(6) 0.2574(6) 0.8124(4)
C79 C 0.6065(6) 0.3344(6) 0.8920(4)
C80 C 0.5596(6) 0.3583(6) 0.9377(4)
H70 H 0.5798 0.3914 0.9652
C81 C 0.4782(6) 0.3254(5) 0.9363(4)
C82 C 0.1472(6) 0.2351(5) 0.7754(4)
C83 C 0.1078(6) 0.1631(6) 0.7937(4)
H71 H 0.1332 0.1062 0.7832
C84 C 0.0328(6) 0.1715(6) 0.8268(4)
H72 H 0.0065 0.1211 0.8390
C85 C -0.0037(6) 0.2541(6) 0.8420(4)
H73 H -0.0552 0.2604 0.8653
C86 C 0.0333(6) 0.3274(6) 0.8239(4)
H74 H 0.0069 0.3844 0.8339
C87 C 0.1097(6) 0.3173(6) 0.7909(4)
H75 H 0.1365 0.3675 0.7789
C88 C 0.3857(6) 0.4735(6) 0.7811(4)
H76 H 0.4440 0.4574 0.8000
H77 H 0.3811 0.5345 0.7666
H78 H 0.3825 0.4342 0.7518
C89 C 0.0977(6) 0.5274(6) 0.8972(4)
H79 H 0.0759 0.5861 0.8811
H80 H 0.1088 0.5319 0.9355
H81 H 0.0514 0.4885 0.8926
C90 C 0.1207(6) -0.3346(5) 1.0197(4)
H82 H 0.0642 -0.3339 0.9994
H83 H 0.1163 -0.2815 1.0403
H84 H 0.1297 -0.3870 1.0442
C91 C 0.4154(6) -0.4134(5) 0.9124(4)
H85 H 0.4244 -0.3883 0.8762
H86 H 0.4123 -0.4766 0.9108
H87 H 0.4666 -0.4047 0.9352
C92 C 0.3089(6) 0.4652(6) 0.8192(4)
C93 C 0.2379(6) 0.5295(5) 0.8339(4)
H88 H 0.2284 0.5894 0.8210
C94 C 0.1838(6) 0.4907(6) 0.8706(4)
C95 C 0.2031(6) 0.3337(5) 0.9111(4)
C96 C 0.1461(6) 0.3408(5) 0.9545(4)
H89 H 0.1167 0.3965 0.9648
C97 C 0.1329(5) 0.2636(5) 0.9831(4)
H90 H 0.0976 0.2663 1.0151
C98 C 0.1708(5) 0.1832(5) 0.9652(4)
H91 H 0.1590 0.1303 0.9836
C99 C 0.2254(5) 0.1799(5) 0.9208(4)
C100 C 0.2755(6) 0.1027(5) 0.8969(4)
C101 C 0.3847(6) 0.0325(5) 0.8507(3)
C102 C 0.2612(5) 0.0155(5) 0.8944(4)
C103 C 0.1925(6) -0.0361(5) 0.9172(4)
C104 C 0.1038(6) -0.0044(5) 0.9308(4)
H92 H 0.0818 0.0568 0.9273
C105 C 0.0478(6) -0.0643(5) 0.9495(4)
H93 H -0.0142 -0.0443 0.9582
C106 C 0.0811(6) -0.1526(5) 0.9558(4)
H94 H 0.0432 -0.1939 0.9690
C107 C 0.1713(6) -0.1796(5) 0.9423(4)
C108 C 0.2000(6) -0.3367(5) 0.9817(4)
C109 C 0.2688(6) -0.4017(5) 0.9726(4)
H95 H 0.2758 -0.4596 0.9888
C110 C 0.3285(6) -0.3689(5) 0.9351(4)
C111 C 0.4718(6) 0.0115(5) 0.8212(4)
C112 C 0.4779(6) -0.0400(6) 0.7782(4)
H96 H 0.4247 -0.0590 0.7645
C113 C 0.5626(7) -0.0646(6) 0.7545(5)
H97 H 0.5682 -0.1018 0.7250
C114 C 0.6382(7) -0.0339(7) 0.7745(5)
H98 H 0.6958 -0.0496 0.7577
C115 C 0.6335(7) 0.0178(6) 0.8172(5)
H99 H 0.6868 0.0366 0.8310
C116 C 0.5483(6) 0.0424(6) 0.8403(4)
H100 H 0.5426 0.0806 0.8692
F13? F 0.7783(11) 0.6500(12) 0.6195(11)
loop_
_geom_bond_atom_site_label_1
_geom_bond_atom_site_label_2
_geom_bond_site_symmetry_1
_geom_bond_site_symmetry_2
Fe1 N1 1_555 1_555
Fe2 N5 1_555 1_555
Fe3 N13 1_555 1_555
Fe4 N21 1_555 1_555
N1 N2 1_555 1_555
N2 C7 1_555 1_555
N3 Fe1 1_555 1_555
N4 Fe1 1_555 1_555
N5 C14 1_555 1_555
N6 Fe2 1_555 1_555
N7 N8 1_555 1_555
N8 Fe2 1_555 1_555
N9 Fe2 1_555 1_555
N10 N9 1_555 1_555
N11 Fe2 1_555 1_555
N12 Fe2 1_555 1_555
N13 C43 1_555 1_555
N14 Fe3 1_555 1_555
N15 N16 1_555 1_555
N16 Fe3 1_555 1_555
N17 Fe3 1_555 1_555
N18 N17 1_555 1_555
N19 Fe3 1_555 1_555
N20 Fe3 1_555 1_555
N21 C72 1_555 1_555
N22 Fe4 1_555 1_555
N23 N24 1_555 1_555
N24 Fe4 1_555 1_555
N25 Fe4 1_555 1_555
N26 N25 1_555 1_555
N27 Fe4 1_555 1_555
N28 Fe4 1_555 1_555
N29 Fe1 1_555 1_555
N30 Fe1 1_555 1_555
N31 N32 1_555 1_555
N32 Fe1 1_555 1_555
C1 H1 1_555 1_555
H2 C1 1_555 1_555
H3 C1 1_555 1_555
C2 H4 1_555 1_555
H5 C2 1_555 1_555
H6 C2 1_555 1_555
C3 H7 1_555 1_555
H8 C3 1_555 1_555
H9 C3 1_555 1_555
C4 H10 1_555 1_555
H11 C4 1_555 1_555
H12 C4 1_555 1_555
C5 N1 1_555 1_555
C6 C5 1_555 1_555
H13 C6 1_555 1_555
C7 C2 1_555 1_555
C8 N2 1_555 1_555
C9 C8 1_555 1_555
H14 C9 1_555 1_555
C10 C9 1_555 1_555
H15 C10 1_555 1_555
C11 C10 1_555 1_555
H16 C11 1_555 1_555
C12 N3 1_555 1_555
C13 N4 1_555 1_555
C14 N4 1_555 1_555
C15 N5 1_555 1_555
C16 N6 1_555 1_555
C17 C16 1_555 1_555
H17 C17 1_555 1_555
C18 C17 1_555 1_555
H18 C18 1_555 1_555
C19 C18 1_555 1_555
H19 C19 1_555 1_555
C20 N6 1_555 1_555
C21 N7 1_555 1_555
C22 C21 1_555 1_555
H20 C22 1_555 1_555
C23 N8 1_555 1_555
C24 C14 1_555 1_555
C25 C24 1_555 1_555
H21 C25 1_555 1_555
C26 C25 1_555 1_555
H22 C26 1_555 1_555
C27 C26 1_555 1_555
H23 C27 1_555 1_555
C28 C27 1_555 1_555
H24 C28 1_555 1_555
C29 C24 1_555 1_555
H25 C29 1_555 1_555
C30 H26 1_555 1_555
H27 C30 1_555 1_555
H28 C30 1_555 1_555
C31 H29 1_555 1_555
H30 C31 1_555 1_555
H31 C31 1_555 1_555
C32 H32 1_555 1_555
H33 C32 1_555 1_555
H34 C32 1_555 1_555
C33 H35 1_555 1_555
H36 C33 1_555 1_555
H37 C33 1_555 1_555
C34 N9 1_555 1_555
C35 C34 1_555 1_555
H38 C35 1_555 1_555
C36 N10 1_555 1_555
C37 N10 1_555 1_555
C38 C37 1_555 1_555
H39 C38 1_555 1_555
C39 C38 1_555 1_555
H40 C39 1_555 1_555
C40 C39 1_555 1_555
H41 C40 1_555 1_555
C41 N11 1_555 1_555
C42 N12 1_555 1_555
C43 N12 1_555 1_555
C44 N13 1_555 1_555
C45 N14 1_555 1_555
C46 C45 1_555 1_555
H42 C46 1_555 1_555
C47 C46 1_555 1_555
H43 C47 1_555 1_555
C48 C47 1_555 1_555
H44 C48 1_555 1_555
C49 N14 1_555 1_555
C50 N15 1_555 1_555
C51 C50 1_555 1_555
H45 C51 1_555 1_555
C52 N16 1_555 1_555
C53 C43 1_555 1_555
C54 C53 1_555 1_555
H46 C54 1_555 1_555
C55 C54 1_555 1_555
H47 C55 1_555 1_555
C56 C55 1_555 1_555
H48 C56 1_555 1_555
C57 C56 1_555 1_555
H49 C57 1_555 1_555
C58 C53 1_555 1_555
H50 C58 1_555 1_555
C59 H51 1_555 1_555
H52 C59 1_555 1_555
H53 C59 1_555 1_555
C60 H54 1_555 1_555
H55 C60 1_555 1_555
H56 C60 1_555 1_555
C61 H57 1_555 1_555
H58 C61 1_555 1_555
H59 C61 1_555 1_555
C62 H60 1_555 1_555
H61 C62 1_555 1_555
H62 C62 1_555 1_555
C63 N17 1_555 1_555
C64 C63 1_555 1_555
H63 C64 1_555 1_555
C65 N18 1_555 1_555
C66 N18 1_555 1_555
C67 C66 1_555 1_555
H64 C67 1_555 1_555
C68 C67 1_555 1_555
H65 C68 1_555 1_555
C69 C68 1_555 1_555
H66 C69 1_555 1_555
C70 N19 1_555 1_555
C71 N20 1_555 1_555
C72 N20 1_555 1_555
C73 N21 1_555 1_555
C74 N22 1_555 1_555
C75 C74 1_555 1_555
H67 C75 1_555 1_555
C76 C75 1_555 1_555
H68 C76 1_555 1_555
C77 C76 1_555 1_555
H69 C77 1_555 1_555
C78 N22 1_555 1_555
C79 N23 1_555 1_555
C80 C79 1_555 1_555
H70 C80 1_555 1_555
C81 N24 1_555 1_555
C82 C72 1_555 1_555
C83 C82 1_555 1_555
H71 C83 1_555 1_555
C84 C83 1_555 1_555
H72 C84 1_555 1_555
C85 C84 1_555 1_555
H73 C85 1_555 1_555
C86 C85 1_555 1_555
H74 C86 1_555 1_555
C87 C82 1_555 1_555
H75 C87 1_555 1_555
C88 H76 1_555 1_555
H77 C88 1_555 1_555
H78 C88 1_555 1_555
C89 H79 1_555 1_555
H80 C89 1_555 1_555
H81 C89 1_555 1_555
C90 H82 1_555 1_555
H83 C90 1_555 1_555
H84 C90 1_555 1_555
C91 H85 1_555 1_555
H86 C91 1_555 1_555
H87 C91 1_555 1_555
C92 N25 1_555 1_555
C93 C92 1_555 1_555
H88 C93 1_555 1_555
C94 N26 1_555 1_555
C95 N26 1_555 1_555
C96 C95 1_555 1_555
H89 C96 1_555 1_555
C97 C96 1_555 1_555
H90 C97 1_555 1_555
C98 C97 1_555 1_555
H91 C98 1_555 1_555
C99 N27 1_555 1_555
C100 N28 1_555 1_555
C101 N28 1_555 1_555
C102 N29 1_555 1_555
C103 N30 1_555 1_555
C104 C103 1_555 1_555
H92 C104 1_555 1_555
C105 C104 1_555 1_555
H93 C105 1_555 1_555
C106 C105 1_555 1_555
H94 C106 1_555 1_555
C107 N30 1_555 1_555
C108 N31 1_555 1_555
C109 C108 1_555 1_555
H95 C109 1_555 1_555
C110 N32 1_555 1_555
C111 C101 1_555 1_555
C112 C111 1_555 1_555
H96 C112 1_555 1_555
C113 C112 1_555 1_555
H97 C113 1_555 1_555
C114 C113 1_555 1_555
H98 C114 1_555 1_555
C115 C114 1_555 1_555
H99 C115 1_555 1_555
C116 C111 1_555 1_555
H100 C116 1_555 1_555
F1 B1 1_555 1_555
F2 B1 1_555 1_555
F3 B1 1_555 1_555
F4 B1 1_555 1_555
F5 B2 1_555 1_555
F6 B2 1_555 1_555
F7 B2 1_555 1_555
F8 B2 1_555 1_555
F9 B3 1_555 1_555
F10 B3 1_555 1_555
F11 B3 1_555 1_555
F12 B3 1_555 1_555
F14 B4 1_555 1_555
F15 B4 1_555 1_555
F16 B4 1_555 1_555
F17 B4 1_555 1_555
N3 C8 1_555 1_555
N7 C20 1_555 1_555
N11 C37 1_555 1_555
N15 C49 1_555 1_555
N19 C66 1_555 1_555
N23 C78 1_555 1_555
N27 C95 1_555 1_555
N29 C101 1_555 1_555
N31 C107 1_555 1_555
C1 C5 1_555 1_555
C3 C21 1_555 1_555
C4 C23 1_555 1_555
C6 C7 1_555 1_555
C11 C12 1_555 1_555
C12 C13 1_555 1_555
C13 C15 1_555 1_555
C15 C16 1_555 1_555
C19 C20 1_555 1_555
C22 C23 1_555 1_555
C28 C29 1_555 1_555
C30 C34 1_555 1_555
C31 C36 1_555 1_555
C32 C50 1_555 1_555
C33 C52 1_555 1_555
C35 C36 1_555 1_555
C40 C41 1_555 1_555
C41 C42 1_555 1_555
C42 C44 1_555 1_555
C44 C45 1_555 1_555
C48 C49 1_555 1_555
C51 C52 1_555 1_555
C57 C58 1_555 1_555
C59 C63 1_555 1_555
C60 C65 1_555 1_555
C61 C79 1_555 1_555
C62 C81 1_555 1_555
C64 C65 1_555 1_555
C69 C70 1_555 1_555
C70 C71 1_555 1_555
C71 C73 1_555 1_555
C73 C74 1_555 1_555
C77 C78 1_555 1_555
C80 C81 1_555 1_555
C86 C87 1_555 1_555
C88 C92 1_555 1_555
C89 C94 1_555 1_555
C90 C108 1_555 1_555
C91 C110 1_555 1_555
C93 C94 1_555 1_555
C98 C99 1_555 1_555
C99 C100 1_555 1_555
C100 C102 1_555 1_555
C102 C103 1_555 1_555
C106 C107 1_555 1_555
C109 C110 1_555 1_555
C115 C116 1_555 1_555

#END
