
#######################################################################
#
#                 Cambridge Crystallographic Data Centre
#                                CCDC 
#
#######################################################################
#
# If this CIF has been generated from an entry in the Cambridge 
# Structural Database, then it will include bibliographic, chemical, 
# crystal, experimental, refinement or atomic coordinate data resulting 
# from the CCDC's data processing and validation procedures.
#
#######################################################################

data_SIZJAO04
_chemical_formula_moiety         'C116 H100 Fe4 N32 4+,4(B1 F4 1-),2(C2 H3 N1)'
_chemical_name_systematic        
'tetrakis(\m~2~-2-Phenyl-4,5-bis(6-(3,5-dimethyl-1H-pyrazol-1-yl)pyridin-2-yl)imidazolato)-tetra-iron(ii) tetrakis(tetrafluoroborate) acetonitrile solvate'
_symmetry_cell_setting           triclinic
_symmetry_space_group_name_H-M   'P -1'
_symmetry_Int_Tables_number      2
_space_group_name_Hall           '-P 1'
loop_
_symmetry_equiv_pos_site_id
_symmetry_equiv_pos_as_xyz
1 x,y,z
2 -x,-y,-z
_cell_length_a                   14.817(3)
_cell_length_b                   15.320(3)
_cell_length_c                   24.960(5)
_cell_angle_alpha                86.955(3)
_cell_angle_beta                 89.287(3)
_cell_angle_gamma                81.204(3)
_cell_volume                     5591.24
_exptl_crystal_colour            orange
_exptl_crystal_description       blocks
_cell_formula_units_Z            2
_exptl_crystal_preparation       'irradiated at 808 nm'
loop_
_atom_site_label
_atom_site_type_symbol
_atom_site_fract_x
_atom_site_fract_y
_atom_site_fract_z
F1 F 0.81266(14) 0.01703(12) 0.92813(9)
F2 F 0.91213(13) 0.11590(12) 0.92132(8)
F3 F 0.82631(14) 0.09683(15) 0.84980(9)
F4 F 0.76139(16) 0.16550(13) 0.92215(12)
B1 B 0.8269(3) 0.0982(2) 0.90565(16)
F5 F 0.72451(19) 0.12611(14) 0.62659(9)
F6 F 0.77341(18) 0.25811(15) 0.61499(10)
F7 F 0.63689(16) 0.24200(18) 0.58236(10)
F8 F 0.76425(17) 0.17508(19) 0.54341(9)
B2 B 0.7260(3) 0.1998(3) 0.59160(18)
F9 F 0.63762(15) 0.74796(12) 0.61661(9)
F10 F 0.65101(15) 0.61468(13) 0.57911(9)
B3 B 0.6862(3) 0.6645(3) 0.6156(2)
F11 F 0.6653(17) 0.6251(6) 0.6687(4)
F12 F 0.7774(6) 0.6620(8) 0.6145(13)
F15 F 0.75505(14) 0.55854(12) 0.93584(9)
F16 F 0.85757(15) 0.49530(11) 0.87500(8)
F17 F 0.83426(15) 0.64386(11) 0.88353(8)
F18 F 0.90522(17) 0.54982(19) 0.94885(10)
B4 B 0.8382(3) 0.5622(2) 0.91072(16)
Fe1 Fe 0.34098(3) -0.17103(2) 0.87660(2)
Fe2 Fe 0.13433(3) -0.24096(3) 0.66129(2)
Fe3 Fe 0.15436(3) 0.17768(3) 0.62984(2)
Fe4 Fe 0.35992(3) 0.24981(3) 0.84298(2)
N1 N 0.45879(18) -0.17296(16) 0.93011(11)
N2 N 0.54106(18) -0.19116(16) 0.90432(11)
N3 N 0.46063(18) -0.22403(16) 0.83288(11)
N4 N 0.29027(17) -0.21142(15) 0.80331(10)
N5 N 0.22031(18) -0.23744(16) 0.72789(11)
N6 N 0.27040(19) -0.29226(17) 0.63462(11)
N7 N 0.2032(2) -0.32076(17) 0.55668(11)
N8 N 0.12125(19) -0.28764(17) 0.58035(11)
N9 N 0.06782(19) -0.35470(18) 0.68998(12)
N10 N -0.02221(19) -0.33196(19) 0.70594(11)
N11 N -0.00363(19) -0.19013(18) 0.68480(11)
N12 N 0.12213(18) -0.09939(17) 0.64580(11)
N13 N 0.13757(18) 0.04354(17) 0.65110(11)
N14 N 0.01792(19) 0.18724(18) 0.66001(12)
N15 N 0.0056(2) 0.33611(18) 0.64030(12)
N16 N 0.0903(2) 0.31719(18) 0.61738(12)
N17 N 0.13995(19) 0.15152(16) 0.54478(11)
N18 N 0.22136(19) 0.13868(17) 0.51768(11)
N19 N 0.28717(19) 0.17454(16) 0.59391(11)
N20 N 0.23917(18) 0.20994(16) 0.69135(11)
N21 N 0.31191(17) 0.23612(15) 0.76544(10)
N22 N 0.47602(18) 0.25252(15) 0.79109(11)
N23 N 0.55029(18) 0.28774(16) 0.86472(11)
N24 N 0.47069(18) 0.28231(16) 0.89253(11)
N25 N 0.30176(18) 0.39083(15) 0.84680(11)
N26 N 0.22581(17) 0.40773(15) 0.87889(10)
N27 N 0.24306(17) 0.25752(15) 0.89450(10)
N28 N 0.35262(17) 0.11375(15) 0.86793(10)
N29 N 0.33123(17) -0.02811(15) 0.86593(10)
N30 N 0.22502(17) -0.12117(15) 0.92285(10)
N31 N 0.21697(17) -0.26488(15) 0.94900(10)
N32 N 0.29685(17) -0.28629(15) 0.92082(10)
C1 C 0.4014(2) -0.1063(2) 1.01306(14)
H1 H 0.3467 -0.0774 0.9938
H2 H 0.4210 -0.0651 1.0377
H3 H 0.3874 -0.1590 1.0335
C2 C 0.7043(2) -0.1650(2) 0.91130(16)
H4 H 0.7348 -0.1223 0.9293
H5 H 0.7042 -0.1515 0.8725
H6 H 0.7370 -0.2248 0.9191
C3 C 0.2649(3) -0.4156(2) 0.48049(16)
H7 H 0.2903 -0.3737 0.4558
H8 H 0.2406 -0.4595 0.4599
H9 H 0.3131 -0.4456 0.5045
C4 C -0.0410(2) -0.2929(2) 0.56470(14)
H10 H -0.0574 -0.3397 0.5896
H11 H -0.0777 -0.2896 0.5321
H12 H -0.0527 -0.2361 0.5818
C5 C 0.4760(2) -0.13254(19) 0.97386(13)
C6 C 0.5677(2) -0.12251(19) 0.97552(14)
H13 H 0.5964 -0.0951 1.0025
C7 C 0.6089(2) -0.1595(2) 0.93098(14)
C8 C 0.5419(2) -0.2355(2) 0.85628(14)
C9 C 0.6178(2) -0.2894(2) 0.83702(15)
H14 H 0.6749 -0.2971 0.8549
C10 C 0.6061(3) -0.3312(2) 0.79047(16)
H15 H 0.6561 -0.3694 0.7761
C11 C 0.5226(2) -0.3182(2) 0.76444(14)
H16 H 0.5151 -0.3465 0.7322
C12 C 0.4500(2) -0.2629(2) 0.78660(13)
C13 C 0.3564(2) -0.24446(18) 0.76663(13)
C14 C 0.2104(2) -0.21037(18) 0.77829(12)
C15 C 0.3135(2) -0.25801(19) 0.72001(13)
C16 C 0.3415(2) -0.27920(19) 0.66467(13)
C17 C 0.4281(2) -0.2819(2) 0.64262(14)
H17 H 0.4780 -0.2715 0.6637
C18 C 0.4401(2) -0.3002(2) 0.58887(14)
H18 H 0.4992 -0.3032 0.5731
C19 C 0.3677(2) -0.3140(2) 0.55822(14)
H19 H 0.3753 -0.3260 0.5213
C20 C 0.2840(2) -0.3098(2) 0.58306(14)
C21 C 0.1899(3) -0.3669(2) 0.51287(15)
C22 C 0.0976(3) -0.3618(2) 0.50830(15)
H20 H 0.0663 -0.3868 0.4814
C23 C 0.0575(2) -0.3131(2) 0.55052(14)
C24 C 0.1186(2) -0.18382(19) 0.80090(12)
C25 C 0.0829(2) -0.09599(18) 0.80715(13)
H21 H 0.1201 -0.0515 0.7995
C26 C -0.0055(2) -0.0724(2) 0.82426(13)
H22 H -0.0290 -0.0119 0.8284
C27 C -0.0609(2) -0.1368(2) 0.83558(13)
H23 H -0.1223 -0.1203 0.8470
C28 C -0.0261(2) -0.2247(2) 0.83018(14)
H24 H -0.0627 -0.2691 0.8390
C29 C 0.0620(2) -0.24771(19) 0.81195(13)
H25 H 0.0848 -0.3081 0.8068
C30 C 0.1844(3) -0.4846(2) 0.69106(16)
H26 H 0.1997 -0.4685 0.6539
H27 H 0.1851 -0.5487 0.6952
H28 H 0.2293 -0.4672 0.7152
C31 C -0.1453(3) -0.4015(3) 0.75661(15)
H29 H -0.1903 -0.3985 0.7279
H30 H -0.1596 -0.3494 0.7780
H31 H -0.1471 -0.4551 0.7796
C32 C -0.1303(3) 0.4566(3) 0.6395(2)
H32 H -0.1331 0.4669 0.6779
H33 H -0.1713 0.4146 0.6315
H34 H -0.1490 0.5126 0.6190
C33 C 0.1883(3) 0.3940(2) 0.55770(17)
H35 H 0.2397 0.3610 0.5781
H36 H 0.1975 0.4557 0.5518
H37 H 0.1844 0.3677 0.5230
C34 C 0.0916(2) -0.4382(2) 0.70445(15)
C35 C 0.0184(3) -0.4707(2) 0.73130(15)
H38 H 0.0186 -0.5293 0.7459
C36 C -0.0517(3) -0.4040(2) 0.73252(14)
C37 C -0.0639(2) -0.2452(2) 0.69636(14)
C38 C -0.1570(2) -0.2182(3) 0.69569(14)
H39 H -0.1985 -0.2589 0.7028
C39 C -0.1874(2) -0.1294(3) 0.68417(14)
H40 H -0.2511 -0.1087 0.6826
C40 C -0.1264(2) -0.0702(2) 0.67495(14)
H41 H -0.1474 -0.0089 0.6682
C41 C -0.0337(2) -0.1031(2) 0.67583(13)
C42 C 0.0410(2) -0.0534(2) 0.66447(13)
C43 C 0.1768(2) -0.0374(2) 0.63832(13)
C44 C 0.0514(2) 0.0335(2) 0.66827(13)
C45 C -0.0080(2) 0.1143(2) 0.68354(14)
C46 C -0.0802(2) 0.1195(3) 0.71999(15)
H42 H -0.0996 0.0679 0.7361
C47 C -0.1226(2) 0.2039(3) 0.73185(15)
H43 H -0.1708 0.2100 0.7575
C48 C -0.0965(3) 0.2780(3) 0.70749(16)
H44 H -0.1253 0.3354 0.7159
C49 C -0.0272(2) 0.2667(2) 0.67045(15)
C50 C -0.0348(3) 0.4196(2) 0.62445(18)
C51 C 0.0268(3) 0.4551(2) 0.59275(18)
H45 H 0.0196 0.5134 0.5767
C52 C 0.1023(3) 0.3902(2) 0.58827(16)
C53 C 0.2696(2) -0.05248(19) 0.61553(13)
C54 C 0.3410(2) -0.0220(2) 0.64073(14)
H46 H 0.3311 0.0034 0.6746
C55 C 0.4260(2) -0.0282(2) 0.61687(16)
H47 H 0.4747 -0.0081 0.6345
C56 C 0.4400(2) -0.0640(2) 0.56701(16)
H48 H 0.4982 -0.0672 0.5501
C57 C 0.3696(2) -0.0950(2) 0.54182(15)
H49 H 0.3795 -0.1198 0.5078
C58 C 0.2849(2) -0.0900(2) 0.56606(14)
H50 H 0.2368 -0.1122 0.5489
C59 C -0.0144(3) 0.1176(2) 0.53332(15)
H51 H -0.0181 0.0763 0.5643
H52 H -0.0501 0.1011 0.5037
H53 H -0.0390 0.1778 0.5431
C60 C 0.2936(3) 0.0621(2) 0.43695(15)
H54 H 0.2781 0.0161 0.4144
H55 H 0.3471 0.0381 0.4588
H56 H 0.3073 0.1125 0.4141
C61 C 0.6933(2) 0.3588(2) 0.87128(15)
H57 H 0.7107 0.4057 0.8923
H58 H 0.6870 0.3794 0.8335
H59 H 0.7404 0.3065 0.8747
C62 C 0.4009(2) 0.3366(2) 0.97642(13)
H60 H 0.3629 0.3942 0.9696
H61 H 0.4262 0.3332 1.0127
H62 H 0.3637 0.2895 0.9732
C63 C 0.0821(2) 0.1143(2) 0.51635(14)
C64 C 0.1278(3) 0.0755(2) 0.47170(14)
H63 H 0.1020 0.0439 0.4456
C65 C 0.2153(3) 0.0915(2) 0.47263(14)
C66 C 0.2966(2) 0.1672(2) 0.54096(14)
C67 C 0.3719(2) 0.1880(2) 0.51271(14)
H64 H 0.3764 0.1831 0.4750
C68 C 0.4400(2) 0.2161(2) 0.54126(14)
H65 H 0.4927 0.2310 0.5231
C69 C 0.4320(2) 0.2226(2) 0.59671(13)
H66 H 0.4791 0.2412 0.6168
C70 C 0.3538(2) 0.20140(19) 0.62177(13)
C71 C 0.3301(2) 0.20953(18) 0.67884(13)
C72 C 0.2323(2) 0.22722(18) 0.74348(13)
C73 C 0.3762(2) 0.22332(18) 0.72473(13)
C74 C 0.4706(2) 0.22350(19) 0.74123(13)
C75 C 0.5501(2) 0.1953(2) 0.71281(14)
H67 H 0.5470 0.1735 0.6780
C76 C 0.6336(2) 0.1993(2) 0.73575(15)
H68 H 0.6882 0.1805 0.7165
C77 C 0.6383(2) 0.2304(2) 0.78665(15)
H69 H 0.6952 0.2337 0.8029
C78 C 0.5569(2) 0.2564(2) 0.81266(13)
C79 C 0.6047(2) 0.3355(2) 0.89153(14)
C80 C 0.5589(2) 0.35962(19) 0.93756(14)
H70 H 0.5791 0.3929 0.9648
C81 C 0.4764(2) 0.32579(19) 0.93676(13)
C82 C 0.1476(2) 0.23728(19) 0.77522(12)
C83 C 0.1078(2) 0.16419(19) 0.79273(13)
H71 H 0.1327 0.1070 0.7817
C84 C 0.0323(2) 0.1745(2) 0.82615(13)
H72 H 0.0053 0.1244 0.8379
C85 C -0.0043(2) 0.2572(2) 0.84248(13)
H73 H -0.0557 0.2637 0.8658
C86 C 0.0339(2) 0.3306(2) 0.82487(13)
H74 H 0.0080 0.3878 0.8353
C87 C 0.1104(2) 0.3201(2) 0.79184(13)
H75 H 0.1377 0.3702 0.7805
C88 C 0.3858(2) 0.4750(2) 0.78217(14)
H76 H 0.4437 0.4640 0.8017
H77 H 0.3779 0.5346 0.7649
H78 H 0.3864 0.4314 0.7548
C89 C 0.0984(2) 0.5316(2) 0.89927(15)
H79 H 0.0767 0.5909 0.8834
H80 H 0.1098 0.5352 0.9376
H81 H 0.0520 0.4934 0.8946
C90 C 0.1229(2) -0.33169(19) 1.02129(14)
H82 H 0.0681 -0.3407 1.0020
H83 H 0.1121 -0.2740 1.0373
H84 H 0.1368 -0.3784 1.0496
C91 C 0.4157(2) -0.41447(19) 0.91271(14)
H85 H 0.4233 -0.3912 0.8759
H86 H 0.4137 -0.4781 0.9127
H87 H 0.4672 -0.4041 0.9346
C92 C 0.3085(2) 0.46738(19) 0.82050(13)
C93 C 0.2371(2) 0.5327(2) 0.83527(14)
H88 H 0.2268 0.5928 0.8222
C94 C 0.1849(2) 0.49367(19) 0.87205(14)
C95 C 0.2025(2) 0.33485(18) 0.91101(13)
C96 C 0.1458(2) 0.34342(19) 0.95518(13)
H89 H 0.1177 0.3998 0.9659
C97 C 0.1318(2) 0.26634(19) 0.98313(13)
H90 H 0.0956 0.2694 1.0148
C98 C 0.1699(2) 0.1847(2) 0.96550(13)
H91 H 0.1584 0.1317 0.9840
C99 C 0.2252(2) 0.18184(18) 0.92032(12)
C100 C 0.2748(2) 0.10359(18) 0.89653(12)
C101 C 0.3838(2) 0.03295(18) 0.85091(12)
C102 C 0.2608(2) 0.01699(18) 0.89485(12)
C103 C 0.1925(2) -0.03434(18) 0.91757(12)
C104 C 0.1035(2) -0.00244(19) 0.93079(12)
H92 H 0.0811 0.0591 0.9272
C105 C 0.0471(2) -0.06252(18) 0.94956(12)
H93 H -0.0151 -0.0422 0.9578
C106 C 0.0813(2) -0.15160(19) 0.95624(12)
H94 H 0.0440 -0.1933 0.9694
C107 C 0.1712(2) -0.17737(18) 0.94316(12)
C108 C 0.2015(2) -0.33469(19) 0.98311(13)
C109 C 0.2705(2) -0.40150(19) 0.97454(13)
H95 H 0.2784 -0.4592 0.9914
C110 C 0.3284(2) -0.36851(19) 0.93571(13)
C111 C 0.4711(2) 0.01189(18) 0.82221(13)
C112 C 0.4793(2) -0.0420(2) 0.77866(13)
H96 H 0.4270 -0.0619 0.7649
C113 C 0.5644(2) -0.0662(2) 0.75559(15)
H97 H 0.5707 -0.1027 0.7257
C114 C 0.6404(3) -0.0371(3) 0.77630(17)
H98 H 0.6988 -0.0549 0.7609
C115 C 0.6325(2) 0.0172(2) 0.81892(16)
H99 H 0.6848 0.0372 0.8326
C116 C 0.5480(2) 0.0420(2) 0.84132(14)
H100 H 0.5419 0.0803 0.8703
loop_
_geom_bond_atom_site_label_1
_geom_bond_atom_site_label_2
_geom_bond_site_symmetry_1
_geom_bond_site_symmetry_2
Fe1 N1 1_555 1_555
Fe2 N5 1_555 1_555
Fe3 N13 1_555 1_555
Fe4 N21 1_555 1_555
N1 N2 1_555 1_555
N2 C7 1_555 1_555
N3 Fe1 1_555 1_555
N4 Fe1 1_555 1_555
N5 C14 1_555 1_555
N6 Fe2 1_555 1_555
N7 N8 1_555 1_555
N8 Fe2 1_555 1_555
N9 Fe2 1_555 1_555
N10 N9 1_555 1_555
N11 Fe2 1_555 1_555
N12 Fe2 1_555 1_555
N13 C43 1_555 1_555
N14 Fe3 1_555 1_555
N15 N16 1_555 1_555
N16 Fe3 1_555 1_555
N17 Fe3 1_555 1_555
N18 N17 1_555 1_555
N19 Fe3 1_555 1_555
N20 Fe3 1_555 1_555
N21 C72 1_555 1_555
N22 Fe4 1_555 1_555
N23 N24 1_555 1_555
N24 Fe4 1_555 1_555
N25 Fe4 1_555 1_555
N26 N25 1_555 1_555
N27 Fe4 1_555 1_555
N28 Fe4 1_555 1_555
N29 Fe1 1_555 1_555
N30 Fe1 1_555 1_555
N31 N32 1_555 1_555
N32 Fe1 1_555 1_555
C1 H1 1_555 1_555
H2 C1 1_555 1_555
H3 C1 1_555 1_555
C2 H4 1_555 1_555
H5 C2 1_555 1_555
H6 C2 1_555 1_555
C3 H7 1_555 1_555
H8 C3 1_555 1_555
H9 C3 1_555 1_555
C4 H10 1_555 1_555
H11 C4 1_555 1_555
H12 C4 1_555 1_555
C5 N1 1_555 1_555
C6 C5 1_555 1_555
H13 C6 1_555 1_555
C7 C2 1_555 1_555
C8 N2 1_555 1_555
C9 C8 1_555 1_555
H14 C9 1_555 1_555
C10 C9 1_555 1_555
H15 C10 1_555 1_555
C11 C10 1_555 1_555
H16 C11 1_555 1_555
C12 N3 1_555 1_555
C13 N4 1_555 1_555
C14 N4 1_555 1_555
C15 N5 1_555 1_555
C16 N6 1_555 1_555
C17 C16 1_555 1_555
H17 C17 1_555 1_555
C18 C17 1_555 1_555
H18 C18 1_555 1_555
C19 C18 1_555 1_555
H19 C19 1_555 1_555
C20 N6 1_555 1_555
C21 N7 1_555 1_555
C22 C21 1_555 1_555
H20 C22 1_555 1_555
C23 N8 1_555 1_555
C24 C14 1_555 1_555
C25 C24 1_555 1_555
H21 C25 1_555 1_555
C26 C25 1_555 1_555
H22 C26 1_555 1_555
C27 C26 1_555 1_555
H23 C27 1_555 1_555
C28 C27 1_555 1_555
H24 C28 1_555 1_555
C29 C24 1_555 1_555
H25 C29 1_555 1_555
C30 H26 1_555 1_555
H27 C30 1_555 1_555
H28 C30 1_555 1_555
C31 H29 1_555 1_555
H30 C31 1_555 1_555
H31 C31 1_555 1_555
C32 H32 1_555 1_555
H33 C32 1_555 1_555
H34 C32 1_555 1_555
C33 H35 1_555 1_555
H36 C33 1_555 1_555
H37 C33 1_555 1_555
C34 N9 1_555 1_555
C35 C34 1_555 1_555
H38 C35 1_555 1_555
C36 N10 1_555 1_555
C37 N10 1_555 1_555
C38 C37 1_555 1_555
H39 C38 1_555 1_555
C39 C38 1_555 1_555
H40 C39 1_555 1_555
C40 C39 1_555 1_555
H41 C40 1_555 1_555
C41 N11 1_555 1_555
C42 N12 1_555 1_555
C43 N12 1_555 1_555
C44 N13 1_555 1_555
C45 N14 1_555 1_555
C46 C45 1_555 1_555
H42 C46 1_555 1_555
C47 C46 1_555 1_555
H43 C47 1_555 1_555
C48 C47 1_555 1_555
H44 C48 1_555 1_555
C49 N14 1_555 1_555
C50 N15 1_555 1_555
C51 C50 1_555 1_555
H45 C51 1_555 1_555
C52 N16 1_555 1_555
C53 C43 1_555 1_555
C54 C53 1_555 1_555
H46 C54 1_555 1_555
C55 C54 1_555 1_555
H47 C55 1_555 1_555
C56 C55 1_555 1_555
H48 C56 1_555 1_555
C57 C56 1_555 1_555
H49 C57 1_555 1_555
C58 C53 1_555 1_555
H50 C58 1_555 1_555
C59 H51 1_555 1_555
H52 C59 1_555 1_555
H53 C59 1_555 1_555
C60 H54 1_555 1_555
H55 C60 1_555 1_555
H56 C60 1_555 1_555
C61 H57 1_555 1_555
H58 C61 1_555 1_555
H59 C61 1_555 1_555
C62 H60 1_555 1_555
H61 C62 1_555 1_555
H62 C62 1_555 1_555
C63 N17 1_555 1_555
C64 C63 1_555 1_555
H63 C64 1_555 1_555
C65 N18 1_555 1_555
C66 N18 1_555 1_555
C67 C66 1_555 1_555
H64 C67 1_555 1_555
C68 C67 1_555 1_555
H65 C68 1_555 1_555
C69 C68 1_555 1_555
H66 C69 1_555 1_555
C70 N19 1_555 1_555
C71 N20 1_555 1_555
C72 N20 1_555 1_555
C73 N21 1_555 1_555
C74 N22 1_555 1_555
C75 C74 1_555 1_555
H67 C75 1_555 1_555
C76 C75 1_555 1_555
H68 C76 1_555 1_555
C77 C76 1_555 1_555
H69 C77 1_555 1_555
C78 N22 1_555 1_555
C79 N23 1_555 1_555
C80 C79 1_555 1_555
H70 C80 1_555 1_555
C81 N24 1_555 1_555
C82 C72 1_555 1_555
C83 C82 1_555 1_555
H71 C83 1_555 1_555
C84 C83 1_555 1_555
H72 C84 1_555 1_555
C85 C84 1_555 1_555
H73 C85 1_555 1_555
C86 C85 1_555 1_555
H74 C86 1_555 1_555
C87 C82 1_555 1_555
H75 C87 1_555 1_555
C88 H76 1_555 1_555
H77 C88 1_555 1_555
H78 C88 1_555 1_555
C89 H79 1_555 1_555
H80 C89 1_555 1_555
H81 C89 1_555 1_555
C90 H82 1_555 1_555
H83 C90 1_555 1_555
H84 C90 1_555 1_555
C91 H85 1_555 1_555
H86 C91 1_555 1_555
H87 C91 1_555 1_555
C92 N25 1_555 1_555
C93 C92 1_555 1_555
H88 C93 1_555 1_555
C94 N26 1_555 1_555
C95 N26 1_555 1_555
C96 C95 1_555 1_555
H89 C96 1_555 1_555
C97 C96 1_555 1_555
H90 C97 1_555 1_555
C98 C97 1_555 1_555
H91 C98 1_555 1_555
C99 N27 1_555 1_555
C100 N28 1_555 1_555
C101 N28 1_555 1_555
C102 N29 1_555 1_555
C103 N30 1_555 1_555
C104 C103 1_555 1_555
H92 C104 1_555 1_555
C105 C104 1_555 1_555
H93 C105 1_555 1_555
C106 C105 1_555 1_555
H94 C106 1_555 1_555
C107 N30 1_555 1_555
C108 N31 1_555 1_555
C109 C108 1_555 1_555
H95 C109 1_555 1_555
C110 N32 1_555 1_555
C111 C101 1_555 1_555
C112 C111 1_555 1_555
H96 C112 1_555 1_555
C113 C112 1_555 1_555
H97 C113 1_555 1_555
C114 C113 1_555 1_555
H98 C114 1_555 1_555
C115 C114 1_555 1_555
H99 C115 1_555 1_555
C116 C111 1_555 1_555
H100 C116 1_555 1_555
F1 B1 1_555 1_555
F2 B1 1_555 1_555
F3 B1 1_555 1_555
F4 B1 1_555 1_555
F5 B2 1_555 1_555
F6 B2 1_555 1_555
F7 B2 1_555 1_555
F8 B2 1_555 1_555
F9 B3 1_555 1_555
F10 B3 1_555 1_555
B3 F11 1_555 1_555
F12 B3 1_555 1_555
F15 B4 1_555 1_555
F16 B4 1_555 1_555
F17 B4 1_555 1_555
F18 B4 1_555 1_555
N3 C8 1_555 1_555
N7 C20 1_555 1_555
N11 C37 1_555 1_555
N15 C49 1_555 1_555
N19 C66 1_555 1_555
N23 C78 1_555 1_555
N27 C95 1_555 1_555
N29 C101 1_555 1_555
N31 C107 1_555 1_555
C1 C5 1_555 1_555
C3 C21 1_555 1_555
C4 C23 1_555 1_555
C6 C7 1_555 1_555
C11 C12 1_555 1_555
C12 C13 1_555 1_555
C13 C15 1_555 1_555
C15 C16 1_555 1_555
C19 C20 1_555 1_555
C22 C23 1_555 1_555
C28 C29 1_555 1_555
C30 C34 1_555 1_555
C31 C36 1_555 1_555
C32 C50 1_555 1_555
C33 C52 1_555 1_555
C35 C36 1_555 1_555
C40 C41 1_555 1_555
C41 C42 1_555 1_555
C42 C44 1_555 1_555
C44 C45 1_555 1_555
C48 C49 1_555 1_555
C51 C52 1_555 1_555
C57 C58 1_555 1_555
C59 C63 1_555 1_555
C60 C65 1_555 1_555
C61 C79 1_555 1_555
C62 C81 1_555 1_555
C64 C65 1_555 1_555
C69 C70 1_555 1_555
C70 C71 1_555 1_555
C71 C73 1_555 1_555
C73 C74 1_555 1_555
C77 C78 1_555 1_555
C80 C81 1_555 1_555
C86 C87 1_555 1_555
C88 C92 1_555 1_555
C89 C94 1_555 1_555
C90 C108 1_555 1_555
C91 C110 1_555 1_555
C93 C94 1_555 1_555
C98 C99 1_555 1_555
C99 C100 1_555 1_555
C100 C102 1_555 1_555
C102 C103 1_555 1_555
C106 C107 1_555 1_555
C109 C110 1_555 1_555
C115 C116 1_555 1_555

#END
