# generated using pymatgen
data_Fe4B12H172C172N42(O3F16)3
_symmetry_space_group_name_H-M   'P 1'
_cell_length_a   20.14100000
_cell_length_b   28.47000000
_cell_length_c   28.78226513
_cell_angle_alpha   115.76436968
_cell_angle_beta   90.00000000
_cell_angle_gamma   90.00000000
_symmetry_Int_Tables_number   1
_chemical_formula_structural   Fe4B12H172C172N42(O3F16)3
_chemical_formula_sum   'Fe16 B48 H688 C688 N168 O36 F192'
_cell_volume   14863.47051848
_cell_formula_units_Z   4
loop_
 _symmetry_equiv_pos_site_id
 _symmetry_equiv_pos_as_xyz
  1  'x, y, z'
loop_
 _atom_site_type_symbol
 _atom_site_label
 _atom_site_symmetry_multiplicity
 _atom_site_fract_x
 _atom_site_fract_y
 _atom_site_fract_z
 _atom_site_occupancy
  Fe  Fe1  1  0.030710  0.750000  0.000000  1
  Fe  Fe2  1  0.530710  0.250000  0.500000  1
  Fe  Fe3  1  0.969290  0.250000  1.000000  1
  Fe  Fe4  1  0.469290  0.750000  0.500000  1
  Fe  Fe5  1  0.618850  0.750000  0.000000  1
  Fe  Fe6  1  0.118850  0.250000  0.500000  1
  Fe  Fe7  1  0.381150  0.250000  0.000000  1
  Fe  Fe8  1  0.881150  0.750000  0.500000  1
  Fe  Fe9  1  0.824040  0.927310  0.099080  1.0
  Fe  Fe10  1  0.824040  0.572690  0.900920  1.0
  Fe  Fe11  1  0.324040  0.427310  0.599080  1.0
  Fe  Fe12  1  0.324040  0.072690  0.400920  1.0
  Fe  Fe13  1  0.175960  0.072690  0.900920  1.0
  Fe  Fe14  1  0.175960  0.427310  0.099080  1.0
  Fe  Fe15  1  0.675960  0.572690  0.400920  1.0
  Fe  Fe16  1  0.675960  0.927310  0.599080  1.0
  B  B17  1  0.321500  0.966600  0.092100  1
  B  B18  1  0.321500  0.533400  0.907900  1
  B  B19  1  0.821500  0.466600  0.592100  1
  B  B20  1  0.821500  0.033400  0.407900  1
  B  B21  1  0.678500  0.033400  0.907900  1
  B  B22  1  0.678500  0.466600  0.092100  1
  B  B23  1  0.178500  0.533400  0.407900  1
  B  B24  1  0.178500  0.966600  0.592100  1
  B  B25  1  0.576400  0.180100  0.205900  1
  B  B26  1  0.576400  0.319900  0.794100  1
  B  B27  1  0.076400  0.680100  0.705900  1
  B  B28  1  0.076400  0.819900  0.294100  1
  B  B29  1  0.423600  0.819900  0.794100  1
  B  B30  1  0.423600  0.680100  0.205900  1
  B  B31  1  0.923600  0.319900  0.294100  1
  B  B32  1  0.923600  0.180100  0.705900  1
  B  B33  1  0.612600  0.858000  0.298000  1
  B  B34  1  0.612600  0.642000  0.702000  1
  B  B35  1  0.112600  0.358000  0.798000  1
  B  B36  1  0.112600  0.142000  0.202000  1
  B  B37  1  0.387400  0.142000  0.702000  1
  B  B38  1  0.387400  0.358000  0.298000  1
  B  B39  1  0.887400  0.642000  0.202000  1
  B  B40  1  0.887400  0.858000  0.798000  1
  B  B41  1  0.314700  0.957500  0.096700  1
  B  B42  1  0.314700  0.542500  0.903300  1
  B  B43  1  0.814700  0.457500  0.596700  1
  B  B44  1  0.814700  0.042500  0.403300  1
  B  B45  1  0.685300  0.042500  0.903300  1
  B  B46  1  0.685300  0.457500  0.096700  1
  B  B47  1  0.185300  0.542500  0.403300  1
  B  B48  1  0.185300  0.957500  0.596700  1
  B  B49  1  0.577200  0.181800  0.201300  1
  B  B50  1  0.577200  0.318200  0.798700  1
  B  B51  1  0.077200  0.681800  0.701300  1
  B  B52  1  0.077200  0.818200  0.298700  1
  B  B53  1  0.422800  0.818200  0.798700  1
  B  B54  1  0.422800  0.681800  0.201300  1
  B  B55  1  0.922800  0.318200  0.298700  1
  B  B56  1  0.922800  0.181800  0.701300  1
  B  B57  1  0.609200  0.853800  0.293200  1
  B  B58  1  0.609200  0.646200  0.706800  1
  B  B59  1  0.109200  0.353800  0.793200  1
  B  B60  1  0.109200  0.146200  0.206800  1
  B  B61  1  0.390800  0.146200  0.706800  1
  B  B62  1  0.390800  0.353800  0.293200  1
  B  B63  1  0.890800  0.646200  0.206800  1
  B  B64  1  0.890800  0.853800  0.793200  1
  H  H65  1  0.445500  0.038500  0.120300  1
  H  H66  1  0.445500  0.461500  0.879700  1
  H  H67  1  0.945500  0.538500  0.620300  1
  H  H68  1  0.945500  0.961500  0.379700  1
  H  H69  1  0.554500  0.961500  0.879700  1
  H  H70  1  0.554500  0.538500  0.120300  1
  H  H71  1  0.054500  0.461500  0.379700  1
  H  H72  1  0.054500  0.038500  0.620300  1
  H  H73  1  0.506400  0.076700  0.129300  1
  H  H74  1  0.506400  0.423300  0.870700  1
  H  H75  1  0.006400  0.576700  0.629300  1
  H  H76  1  0.006400  0.923300  0.370700  1
  H  H77  1  0.493600  0.923300  0.870700  1
  H  H78  1  0.493600  0.576700  0.129300  1
  H  H79  1  0.993600  0.423300  0.370700  1
  H  H80  1  0.993600  0.076700  0.629300  1
  H  H81  1  0.493000  0.052100  0.168300  1
  H  H82  1  0.493000  0.447900  0.831700  1
  H  H83  1  0.993000  0.552100  0.668300  1
  H  H84  1  0.993000  0.947900  0.331700  1
  H  H85  1  0.507000  0.947900  0.831700  1
  H  H86  1  0.507000  0.552100  0.168300  1
  H  H87  1  0.007000  0.447900  0.331700  1
  H  H88  1  0.007000  0.052100  0.668300  1
  H  H89  1  0.641100  0.972700  0.339800  1
  H  H90  1  0.641100  0.527300  0.660200  1
  H  H91  1  0.141100  0.472700  0.839800  1
  H  H92  1  0.141100  0.027300  0.160200  1
  H  H93  1  0.358900  0.027300  0.660200  1
  H  H94  1  0.358900  0.472700  0.339800  1
  H  H95  1  0.858900  0.527300  0.160200  1
  H  H96  1  0.858900  0.972700  0.839800  1
  H  H97  1  0.693500  0.016100  0.344700  1
  H  H98  1  0.693500  0.483900  0.655300  1
  H  H99  1  0.193500  0.516100  0.844700  1
  H  H100  1  0.193500  0.983900  0.155300  1
  H  H101  1  0.306500  0.983900  0.655300  1
  H  H102  1  0.306500  0.516100  0.344700  1
  H  H103  1  0.806500  0.483900  0.155300  1
  H  H104  1  0.806500  0.016100  0.844700  1
  H  H105  1  0.656300  0.984200  0.291700  1
  H  H106  1  0.656300  0.515800  0.708300  1
  H  H107  1  0.156300  0.484200  0.791700  1
  H  H108  1  0.156300  0.015800  0.208300  1
  H  H109  1  0.343700  0.015800  0.708300  1
  H  H110  1  0.343700  0.484200  0.291700  1
  H  H111  1  0.843700  0.515800  0.208300  1
  H  H112  1  0.843700  0.984200  0.791700  1
  H  H113  1  0.866000  0.771000  0.101000  1
  H  H114  1  0.866000  0.729000  0.899000  1
  H  H115  1  0.366000  0.271000  0.601000  1
  H  H116  1  0.366000  0.229000  0.399000  1
  H  H117  1  0.134000  0.229000  0.899000  1
  H  H118  1  0.134000  0.271000  0.101000  1
  H  H119  1  0.634000  0.729000  0.399000  1
  H  H120  1  0.634000  0.771000  0.601000  1
  H  H121  1  0.862400  0.774200  0.183500  1
  H  H122  1  0.862400  0.725800  0.816500  1
  H  H123  1  0.362400  0.274200  0.683500  1
  H  H124  1  0.362400  0.225800  0.316500  1
  H  H125  1  0.137600  0.225800  0.816500  1
  H  H126  1  0.137600  0.274200  0.183500  1
  H  H127  1  0.637600  0.725800  0.316500  1
  H  H128  1  0.637600  0.774200  0.683500  1
  H  H129  1  0.929000  0.829800  0.245500  1
  H  H130  1  0.929000  0.670200  0.754500  1
  H  H131  1  0.429000  0.329800  0.745500  1
  H  H132  1  0.429000  0.170200  0.254500  1
  H  H133  1  0.071000  0.170200  0.754500  1
  H  H134  1  0.071000  0.329800  0.245500  1
  H  H135  1  0.571000  0.670200  0.254500  1
  H  H136  1  0.571000  0.829800  0.745500  1
  H  H137  1  0.001300  0.883600  0.229100  1
  H  H138  1  0.001300  0.616400  0.770900  1
  H  H139  1  0.501300  0.383600  0.729100  1
  H  H140  1  0.501300  0.116400  0.270900  1
  H  H141  1  0.998700  0.116400  0.770900  1
  H  H142  1  0.998700  0.383600  0.229100  1
  H  H143  1  0.498700  0.616400  0.270900  1
  H  H144  1  0.498700  0.883600  0.729100  1
  H  H145  1  0.002000  0.889800  0.148600  1
  H  H146  1  0.002000  0.610200  0.851400  1
  H  H147  1  0.502000  0.389800  0.648600  1
  H  H148  1  0.502000  0.110200  0.351400  1
  H  H149  1  0.998000  0.110200  0.851400  1
  H  H150  1  0.998000  0.389800  0.148600  1
  H  H151  1  0.498000  0.610200  0.351400  1
  H  H152  1  0.498000  0.889800  0.648600  1
  H  H153  1  0.672500  0.796300  0.178800  1
  H  H154  1  0.672500  0.703700  0.821200  1
  H  H155  1  0.172500  0.296300  0.678800  1
  H  H156  1  0.172500  0.203700  0.321200  1
  H  H157  1  0.327500  0.203700  0.821200  1
  H  H158  1  0.327500  0.296300  0.178800  1
  H  H159  1  0.827500  0.703700  0.321200  1
  H  H160  1  0.827500  0.796300  0.678800  1
  H  H161  1  0.592900  0.738700  0.186600  1
  H  H162  1  0.592900  0.761300  0.813400  1
  H  H163  1  0.092900  0.238700  0.686600  1
  H  H164  1  0.092900  0.261300  0.313400  1
  H  H165  1  0.407100  0.261300  0.813400  1
  H  H166  1  0.407100  0.238700  0.186600  1
  H  H167  1  0.907100  0.761300  0.313400  1
  H  H168  1  0.907100  0.738700  0.686600  1
  H  H169  1  0.527400  0.686000  0.113600  1
  H  H170  1  0.527400  0.814000  0.886400  1
  H  H171  1  0.027400  0.186000  0.613600  1
  H  H172  1  0.027400  0.314000  0.386400  1
  H  H173  1  0.472600  0.314000  0.886400  1
  H  H174  1  0.472600  0.186000  0.113600  1
  H  H175  1  0.972600  0.814000  0.386400  1
  H  H176  1  0.972600  0.686000  0.613600  1
  H  H177  1  0.444300  0.609800  0.933100  1
  H  H178  1  0.444300  0.890200  0.066900  1
  H  H179  1  0.944300  0.109800  0.433100  1
  H  H180  1  0.944300  0.390200  0.566900  1
  H  H181  1  0.555700  0.390200  0.066900  1
  H  H182  1  0.555700  0.109800  0.933100  1
  H  H183  1  0.055700  0.890200  0.566900  1
  H  H184  1  0.055700  0.609800  0.433100  1
  H  H185  1  0.787100  0.789200  0.942000  1
  H  H186  1  0.787100  0.710800  0.058000  1
  H  H187  1  0.287100  0.289200  0.442000  1
  H  H188  1  0.287100  0.210800  0.558000  1
  H  H189  1  0.212900  0.210800  0.058000  1
  H  H190  1  0.212900  0.289200  0.942000  1
  H  H191  1  0.712900  0.710800  0.558000  1
  H  H192  1  0.712900  0.789200  0.442000  1
  H  H193  1  0.794600  0.818000  0.874600  1
  H  H194  1  0.794600  0.682000  0.125400  1
  H  H195  1  0.294600  0.318000  0.374600  1
  H  H196  1  0.294600  0.182000  0.625400  1
  H  H197  1  0.205400  0.182000  0.125400  1
  H  H198  1  0.205400  0.318000  0.874600  1
  H  H199  1  0.705400  0.682000  0.625400  1
  H  H200  1  0.705400  0.818000  0.374600  1
  H  H201  1  0.730300  0.886900  0.875500  1
  H  H202  1  0.730300  0.613100  0.124500  1
  H  H203  1  0.230300  0.386900  0.375500  1
  H  H204  1  0.230300  0.113100  0.624500  1
  H  H205  1  0.269700  0.113100  0.124500  1
  H  H206  1  0.269700  0.386900  0.875500  1
  H  H207  1  0.769700  0.613100  0.624500  1
  H  H208  1  0.769700  0.886900  0.375500  1
  H  H209  1  0.661800  0.932500  0.941100  1
  H  H210  1  0.661800  0.567500  0.058900  1
  H  H211  1  0.161800  0.432500  0.441100  1
  H  H212  1  0.161800  0.067500  0.558900  1
  H  H213  1  0.338200  0.067500  0.058900  1
  H  H214  1  0.338200  0.432500  0.941100  1
  H  H215  1  0.838200  0.567500  0.558900  1
  H  H216  1  0.838200  0.932500  0.441100  1
  H  H217  1  0.667100  0.915600  0.014100  1
  H  H218  1  0.667100  0.584400  0.985900  1
  H  H219  1  0.167100  0.415600  0.514100  1
  H  H220  1  0.167100  0.084400  0.485900  1
  H  H221  1  0.332900  0.084400  0.985900  1
  H  H222  1  0.332900  0.415600  0.014100  1
  H  H223  1  0.832900  0.584400  0.485900  1
  H  H224  1  0.832900  0.915600  0.514100  1
  H  H225  1  0.437500  0.589500  0.017400  1
  H  H226  1  0.437500  0.910500  0.982600  1
  H  H227  1  0.937500  0.089500  0.517400  1
  H  H228  1  0.937500  0.410500  0.482600  1
  H  H229  1  0.562500  0.410500  0.982600  1
  H  H230  1  0.562500  0.089500  0.017400  1
  H  H231  1  0.062500  0.910500  0.482600  1
  H  H232  1  0.062500  0.589500  0.517400  1
  H  H233  1  0.441000  0.643700  0.066900  1
  H  H234  1  0.441000  0.856300  0.933100  1
  H  H235  1  0.941000  0.143700  0.566900  1
  H  H236  1  0.941000  0.356300  0.433100  1
  H  H237  1  0.559000  0.356300  0.933100  1
  H  H238  1  0.559000  0.143700  0.066900  1
  H  H239  1  0.059000  0.856300  0.433100  1
  H  H240  1  0.059000  0.643700  0.566900  1
  H  H241  1  0.503500  0.606300  0.050600  1
  H  H242  1  0.503500  0.893700  0.949400  1
  H  H243  1  0.003500  0.106300  0.550600  1
  H  H244  1  0.003500  0.393700  0.449400  1
  H  H245  1  0.496500  0.393700  0.949400  1
  H  H246  1  0.496500  0.106300  0.050600  1
  H  H247  1  0.996500  0.893700  0.449400  1
  H  H248  1  0.996500  0.606300  0.550600  1
  H  H249  1  0.550500  0.642900  0.866600  1
  H  H250  1  0.550500  0.857100  0.133400  1
  H  H251  1  0.050500  0.142900  0.366600  1
  H  H252  1  0.050500  0.357100  0.633400  1
  H  H253  1  0.449500  0.357100  0.133400  1
  H  H254  1  0.449500  0.142900  0.866600  1
  H  H255  1  0.949500  0.857100  0.633400  1
  H  H256  1  0.949500  0.642900  0.366600  1
  H  H257  1  0.527100  0.701900  0.890200  1
  H  H258  1  0.527100  0.798100  0.109800  1
  H  H259  1  0.027100  0.201900  0.390200  1
  H  H260  1  0.027100  0.298100  0.609800  1
  H  H261  1  0.472900  0.298100  0.109800  1
  H  H262  1  0.472900  0.201900  0.890200  1
  H  H263  1  0.972900  0.798100  0.609800  1
  H  H264  1  0.972900  0.701900  0.390200  1
  H  H265  1  0.473900  0.656300  0.868900  1
  H  H266  1  0.473900  0.843700  0.131100  1
  H  H267  1  0.973900  0.156300  0.368900  1
  H  H268  1  0.973900  0.343700  0.631100  1
  H  H269  1  0.526100  0.343700  0.131100  1
  H  H270  1  0.526100  0.156300  0.868900  1
  H  H271  1  0.026100  0.843700  0.631100  1
  H  H272  1  0.026100  0.656300  0.368900  1
  H  H273  1  0.409100  0.752800  0.055500  1
  H  H274  1  0.409100  0.747200  0.944500  1
  H  H275  1  0.909100  0.252800  0.555500  1
  H  H276  1  0.909100  0.247200  0.444500  1
  H  H277  1  0.590900  0.247200  0.944500  1
  H  H278  1  0.590900  0.252800  0.055500  1
  H  H279  1  0.090900  0.747200  0.444500  1
  H  H280  1  0.090900  0.752800  0.555500  1
  H  H281  1  0.344200  0.787700  0.078100  1
  H  H282  1  0.344200  0.712300  0.921900  1
  H  H283  1  0.844200  0.287700  0.578100  1
  H  H284  1  0.844200  0.212300  0.421900  1
  H  H285  1  0.655800  0.212300  0.921900  1
  H  H286  1  0.655800  0.287700  0.078100  1
  H  H287  1  0.155800  0.712300  0.421900  1
  H  H288  1  0.155800  0.787700  0.578100  1
  H  H289  1  0.286000  0.721800  0.070800  1
  H  H290  1  0.286000  0.778200  0.929200  1
  H  H291  1  0.786000  0.221800  0.570800  1
  H  H292  1  0.786000  0.278200  0.429200  1
  H  H293  1  0.714000  0.278200  0.929200  1
  H  H294  1  0.714000  0.221800  0.070800  1
  H  H295  1  0.214000  0.778200  0.429200  1
  H  H296  1  0.214000  0.721800  0.570800  1
  H  H297  1  0.355100  0.693700  0.067100  1
  H  H298  1  0.355100  0.806300  0.932900  1
  H  H299  1  0.855100  0.193700  0.567100  1
  H  H300  1  0.855100  0.306300  0.432900  1
  H  H301  1  0.644900  0.306300  0.932900  1
  H  H302  1  0.644900  0.193700  0.067100  1
  H  H303  1  0.144900  0.806300  0.432900  1
  H  H304  1  0.144900  0.693700  0.567100  1
  H  H305  1  0.316800  0.685700  0.016100  1
  H  H306  1  0.316800  0.814300  0.983900  1
  H  H307  1  0.816800  0.185700  0.516100  1
  H  H308  1  0.816800  0.314300  0.483900  1
  H  H309  1  0.683200  0.314300  0.983900  1
  H  H310  1  0.683200  0.185700  0.016100  1
  H  H311  1  0.183200  0.814300  0.483900  1
  H  H312  1  0.183200  0.685700  0.516100  1
  H  H313  1  0.269000  0.748700  0.044700  1.0
  H  H314  1  0.269000  0.751300  0.955300  1.0
  H  H315  1  0.769000  0.248700  0.544700  1.0
  H  H316  1  0.769000  0.251300  0.455300  1.0
  H  H317  1  0.731000  0.251300  0.955300  1.0
  H  H318  1  0.731000  0.248700  0.044700  1.0
  H  H319  1  0.231000  0.751300  0.455300  1.0
  H  H320  1  0.231000  0.748700  0.544700  1.0
  H  H321  1  0.302400  0.693200  0.013500  1.0
  H  H322  1  0.302400  0.806800  0.986500  1.0
  H  H323  1  0.802400  0.193200  0.513500  1.0
  H  H324  1  0.802400  0.306800  0.486500  1.0
  H  H325  1  0.697600  0.306800  0.986500  1.0
  H  H326  1  0.697600  0.193200  0.013500  1.0
  H  H327  1  0.197600  0.806800  0.486500  1.0
  H  H328  1  0.197600  0.693200  0.513500  1.0
  H  H329  1  0.328700  0.728000  0.100000  1.0
  H  H330  1  0.328700  0.772000  0.900000  1.0
  H  H331  1  0.828700  0.228000  0.600000  1.0
  H  H332  1  0.828700  0.272000  0.400000  1.0
  H  H333  1  0.671300  0.272000  0.900000  1.0
  H  H334  1  0.671300  0.228000  0.100000  1.0
  H  H335  1  0.171300  0.772000  0.400000  1.0
  H  H336  1  0.171300  0.728000  0.600000  1.0
  H  H337  1  0.363200  0.775900  0.095500  1.0
  H  H338  1  0.363200  0.724100  0.904500  1.0
  H  H339  1  0.863200  0.275900  0.595500  1.0
  H  H340  1  0.863200  0.224100  0.404500  1.0
  H  H341  1  0.636800  0.224100  0.904500  1.0
  H  H342  1  0.636800  0.275900  0.095500  1.0
  H  H343  1  0.136800  0.724100  0.404500  1.0
  H  H344  1  0.136800  0.775900  0.595500  1.0
  H  H345  1  0.393200  0.719100  0.065600  1.0
  H  H346  1  0.393200  0.780900  0.934400  1.0
  H  H347  1  0.893200  0.219100  0.565600  1.0
  H  H348  1  0.893200  0.280900  0.434400  1.0
  H  H349  1  0.606800  0.280900  0.934400  1.0
  H  H350  1  0.606800  0.219100  0.065600  1.0
  H  H351  1  0.106800  0.780900  0.434400  1.0
  H  H352  1  0.106800  0.719100  0.565600  1.0
  H  H353  1  0.218300  0.622100  0.906200  1.0
  H  H354  1  0.218300  0.877900  0.093800  1.0
  H  H355  1  0.718300  0.122100  0.406200  1.0
  H  H356  1  0.718300  0.377900  0.593800  1.0
  H  H357  1  0.781700  0.377900  0.093800  1.0
  H  H358  1  0.781700  0.122100  0.906200  1.0
  H  H359  1  0.281700  0.877900  0.593800  1.0
  H  H360  1  0.281700  0.622100  0.406200  1.0
  H  H361  1  0.100400  0.726600  0.828700  1.0
  H  H362  1  0.100400  0.773400  0.171300  1.0
  H  H363  1  0.600400  0.226600  0.328700  1.0
  H  H364  1  0.600400  0.273400  0.671300  1.0
  H  H365  1  0.899600  0.273400  0.171300  1.0
  H  H366  1  0.899600  0.226600  0.828700  1.0
  H  H367  1  0.399600  0.773400  0.671300  1.0
  H  H368  1  0.399600  0.726600  0.328700  1.0
  H  H369  1  0.025900  0.788600  0.824800  1.0
  H  H370  1  0.025900  0.711400  0.175200  1.0
  H  H371  1  0.525900  0.288600  0.324800  1.0
  H  H372  1  0.525900  0.211400  0.675200  1.0
  H  H373  1  0.974100  0.211400  0.175200  1.0
  H  H374  1  0.974100  0.288600  0.824800  1.0
  H  H375  1  0.474100  0.711400  0.675200  1.0
  H  H376  1  0.474100  0.788600  0.324800  1.0
  H  H377  1  0.959400  0.838000  0.895900  1.0
  H  H378  1  0.959400  0.662000  0.104100  1.0
  H  H379  1  0.459400  0.338000  0.395900  1.0
  H  H380  1  0.459400  0.162000  0.604100  1.0
  H  H381  1  0.040600  0.162000  0.104100  1.0
  H  H382  1  0.040600  0.338000  0.895900  1.0
  H  H383  1  0.540600  0.662000  0.604100  1.0
  H  H384  1  0.540600  0.838000  0.395900  1.0
  H  H385  1  0.929100  0.909000  0.938900  1.0
  H  H386  1  0.929100  0.591000  0.061100  1.0
  H  H387  1  0.429100  0.409000  0.438900  1.0
  H  H388  1  0.429100  0.091000  0.561100  1.0
  H  H389  1  0.070900  0.091000  0.061100  1.0
  H  H390  1  0.070900  0.409000  0.938900  1.0
  H  H391  1  0.570900  0.591000  0.561100  1.0
  H  H392  1  0.570900  0.909000  0.438900  1.0
  H  H393  1  0.870400  0.976000  0.932900  1.0
  H  H394  1  0.870400  0.524000  0.067100  1.0
  H  H395  1  0.370400  0.476000  0.432900  1.0
  H  H396  1  0.370400  0.024000  0.567100  1.0
  H  H397  1  0.129600  0.024000  0.067100  1.0
  H  H398  1  0.129600  0.476000  0.932900  1.0
  H  H399  1  0.629600  0.524000  0.567100  1.0
  H  H400  1  0.629600  0.976000  0.432900  1.0
  H  H401  1  0.789100  0.021300  0.994200  1.0
  H  H402  1  0.789100  0.478700  0.005800  1.0
  H  H403  1  0.289100  0.521300  0.494200  1.0
  H  H404  1  0.289100  0.978700  0.505800  1.0
  H  H405  1  0.210900  0.978700  0.005800  1.0
  H  H406  1  0.210900  0.521300  0.994200  1.0
  H  H407  1  0.710900  0.478700  0.505800  1.0
  H  H408  1  0.710900  0.021300  0.494200  1.0
  H  H409  1  0.657200  0.079000  0.157700  1.0
  H  H410  1  0.657200  0.421000  0.842300  1.0
  H  H411  1  0.157200  0.579000  0.657700  1.0
  H  H412  1  0.157200  0.921000  0.342300  1.0
  H  H413  1  0.342800  0.921000  0.842300  1.0
  H  H414  1  0.342800  0.579000  0.157700  1.0
  H  H415  1  0.842800  0.421000  0.342300  1.0
  H  H416  1  0.842800  0.079000  0.657700  1.0
  H  H417  1  0.105000  0.635100  0.005500  1.0
  H  H418  1  0.105000  0.864900  0.994500  1.0
  H  H419  1  0.605000  0.135100  0.505500  1.0
  H  H420  1  0.605000  0.364900  0.494500  1.0
  H  H421  1  0.895000  0.364900  0.994500  1.0
  H  H422  1  0.895000  0.135100  0.005500  1.0
  H  H423  1  0.395000  0.864900  0.494500  1.0
  H  H424  1  0.395000  0.635100  0.505500  1.0
  H  H425  1  0.157300  0.679900  0.034400  1.0
  H  H426  1  0.157300  0.820100  0.965600  1.0
  H  H427  1  0.657300  0.179900  0.534400  1.0
  H  H428  1  0.657300  0.320100  0.465600  1.0
  H  H429  1  0.842700  0.320100  0.965600  1.0
  H  H430  1  0.842700  0.179900  0.034400  1.0
  H  H431  1  0.342700  0.820100  0.465600  1.0
  H  H432  1  0.342700  0.679900  0.534400  1.0
  H  H433  1  0.182000  0.623700  0.995500  1.0
  H  H434  1  0.182000  0.876300  0.004500  1.0
  H  H435  1  0.682000  0.123700  0.495500  1.0
  H  H436  1  0.682000  0.376300  0.504500  1.0
  H  H437  1  0.818000  0.376300  0.004500  1.0
  H  H438  1  0.818000  0.123700  0.995500  1.0
  H  H439  1  0.318000  0.876300  0.504500  1.0
  H  H440  1  0.318000  0.623700  0.495500  1.0
  H  H441  1  0.200300  0.695100  0.832500  1.0
  H  H442  1  0.200300  0.804900  0.167500  1.0
  H  H443  1  0.700300  0.195100  0.332500  1.0
  H  H444  1  0.700300  0.304900  0.667500  1.0
  H  H445  1  0.799700  0.304900  0.167500  1.0
  H  H446  1  0.799700  0.195100  0.832500  1.0
  H  H447  1  0.299700  0.804900  0.667500  1.0
  H  H448  1  0.299700  0.695100  0.332500  1.0
  H  H449  1  0.152300  0.646600  0.806000  1.0
  H  H450  1  0.152300  0.853400  0.194000  1.0
  H  H451  1  0.652300  0.146600  0.306000  1.0
  H  H452  1  0.652300  0.353400  0.694000  1.0
  H  H453  1  0.847700  0.353400  0.194000  1.0
  H  H454  1  0.847700  0.146600  0.806000  1.0
  H  H455  1  0.347700  0.853400  0.694000  1.0
  H  H456  1  0.347700  0.646600  0.306000  1.0
  H  H457  1  0.225400  0.638500  0.821500  1.0
  H  H458  1  0.225400  0.861500  0.178500  1.0
  H  H459  1  0.725400  0.138500  0.321500  1.0
  H  H460  1  0.725400  0.361500  0.678500  1.0
  H  H461  1  0.774600  0.361500  0.178500  1.0
  H  H462  1  0.774600  0.138500  0.821500  1.0
  H  H463  1  0.274600  0.861500  0.678500  1.0
  H  H464  1  0.274600  0.638500  0.321500  1.0
  H  H465  1  0.670200  0.103000  0.078400  1.0
  H  H466  1  0.670200  0.397000  0.921600  1.0
  H  H467  1  0.170200  0.603000  0.578400  1.0
  H  H468  1  0.170200  0.897000  0.421600  1.0
  H  H469  1  0.329800  0.897000  0.921600  1.0
  H  H470  1  0.329800  0.603000  0.078400  1.0
  H  H471  1  0.829800  0.397000  0.421600  1.0
  H  H472  1  0.829800  0.103000  0.578400  1.0
  H  H473  1  0.690400  0.053800  0.027200  1.0
  H  H474  1  0.690400  0.446200  0.972800  1.0
  H  H475  1  0.190400  0.553800  0.527200  1.0
  H  H476  1  0.190400  0.946200  0.472800  1.0
  H  H477  1  0.309600  0.946200  0.972800  1.0
  H  H478  1  0.309600  0.553800  0.027200  1.0
  H  H479  1  0.809600  0.446200  0.472800  1.0
  H  H480  1  0.809600  0.053800  0.527200  1.0
  H  H481  1  0.745200  0.094700  0.060200  1.0
  H  H482  1  0.745200  0.405300  0.939800  1.0
  H  H483  1  0.245200  0.594700  0.560200  1.0
  H  H484  1  0.245200  0.905300  0.439800  1.0
  H  H485  1  0.254800  0.905300  0.939800  1.0
  H  H486  1  0.254800  0.594700  0.060200  1.0
  H  H487  1  0.754800  0.405300  0.439800  1.0
  H  H488  1  0.754800  0.094700  0.560200  1.0
  H  H489  1  0.734800  0.017400  0.222100  1.0
  H  H490  1  0.734800  0.482600  0.777900  1.0
  H  H491  1  0.234800  0.517400  0.722100  1.0
  H  H492  1  0.234800  0.982600  0.277900  1.0
  H  H493  1  0.265200  0.982600  0.777900  1.0
  H  H494  1  0.265200  0.517400  0.222100  1.0
  H  H495  1  0.765200  0.482600  0.277900  1.0
  H  H496  1  0.765200  0.017400  0.722100  1.0
  H  H497  1  0.688400  0.970000  0.187900  1.0
  H  H498  1  0.688400  0.530000  0.812100  1.0
  H  H499  1  0.188400  0.470000  0.687900  1.0
  H  H500  1  0.188400  0.030000  0.312100  1.0
  H  H501  1  0.311600  0.030000  0.812100  1.0
  H  H502  1  0.311600  0.470000  0.187900  1.0
  H  H503  1  0.811600  0.530000  0.312100  1.0
  H  H504  1  0.811600  0.970000  0.687900  1.0
  H  H505  1  0.658800  0.027200  0.214900  1.0
  H  H506  1  0.658800  0.472800  0.785100  1.0
  H  H507  1  0.158800  0.527200  0.714900  1.0
  H  H508  1  0.158800  0.972800  0.285100  1.0
  H  H509  1  0.341200  0.972800  0.785100  1.0
  H  H510  1  0.341200  0.527200  0.214900  1.0
  H  H511  1  0.841200  0.472800  0.285100  1.0
  H  H512  1  0.841200  0.027200  0.714900  1.0
  H  H513  1  0.001400  0.063300  0.201900  1.0
  H  H514  1  0.001400  0.436700  0.798100  1.0
  H  H515  1  0.501400  0.563300  0.701900  1.0
  H  H516  1  0.501400  0.936700  0.298100  1.0
  H  H517  1  0.998600  0.936700  0.798100  1.0
  H  H518  1  0.998600  0.563300  0.201900  1.0
  H  H519  1  0.498600  0.436700  0.298100  1.0
  H  H520  1  0.498600  0.063300  0.701900  1.0
  H  H521  1  0.858200  0.975200  0.281900  1.0
  H  H522  1  0.858200  0.524800  0.718100  1.0
  H  H523  1  0.358200  0.475200  0.781900  1.0
  H  H524  1  0.358200  0.024800  0.218100  1.0
  H  H525  1  0.141800  0.024800  0.718100  1.0
  H  H526  1  0.141800  0.475200  0.281900  1.0
  H  H527  1  0.641800  0.524800  0.218100  1.0
  H  H528  1  0.641800  0.975200  0.781900  1.0
  H  H529  1  0.775900  0.919400  0.287300  1.0
  H  H530  1  0.775900  0.580600  0.712700  1.0
  H  H531  1  0.275900  0.419400  0.787300  1.0
  H  H532  1  0.275900  0.080600  0.212700  1.0
  H  H533  1  0.224100  0.080600  0.712700  1.0
  H  H534  1  0.224100  0.419400  0.287300  1.0
  H  H535  1  0.724100  0.580600  0.212700  1.0
  H  H536  1  0.724100  0.919400  0.787300  1.0
  H  H537  1  0.719000  0.862900  0.213700  1.0
  H  H538  1  0.719000  0.637100  0.786300  1.0
  H  H539  1  0.219000  0.362900  0.713700  1.0
  H  H540  1  0.219000  0.137100  0.286300  1.0
  H  H541  1  0.281000  0.137100  0.786300  1.0
  H  H542  1  0.281000  0.362900  0.213700  1.0
  H  H543  1  0.781000  0.637100  0.286300  1.0
  H  H544  1  0.781000  0.862900  0.713700  1.0
  H  H545  1  0.913700  0.036300  0.087500  1.0
  H  H546  1  0.913700  0.463700  0.912500  1.0
  H  H547  1  0.413700  0.536300  0.587500  1.0
  H  H548  1  0.413700  0.963700  0.412500  1.0
  H  H549  1  0.086300  0.963700  0.912500  1.0
  H  H550  1  0.086300  0.536300  0.087500  1.0
  H  H551  1  0.586300  0.463700  0.412500  1.0
  H  H552  1  0.586300  0.036300  0.587500  1.0
  H  H553  1  0.964800  0.989300  0.068100  1.0
  H  H554  1  0.964800  0.510700  0.931900  1.0
  H  H555  1  0.464800  0.489300  0.568100  1.0
  H  H556  1  0.464800  0.010700  0.431900  1.0
  H  H557  1  0.035200  0.010700  0.931900  1.0
  H  H558  1  0.035200  0.489300  0.068100  1.0
  H  H559  1  0.535200  0.510700  0.431900  1.0
  H  H560  1  0.535200  0.989300  0.568100  1.0
  H  H561  1  0.989100  0.046500  0.104700  1.0
  H  H562  1  0.989100  0.453500  0.895300  1.0
  H  H563  1  0.489100  0.546500  0.604700  1.0
  H  H564  1  0.489100  0.953500  0.395300  1.0
  H  H565  1  0.010900  0.953500  0.895300  1.0
  H  H566  1  0.010900  0.546500  0.104700  1.0
  H  H567  1  0.510900  0.453500  0.395300  1.0
  H  H568  1  0.510900  0.046500  0.604700  1.0
  H  H569  1  0.966500  0.995700  0.279700  1.0
  H  H570  1  0.966500  0.504300  0.720300  1.0
  H  H571  1  0.466500  0.495700  0.779700  1.0
  H  H572  1  0.466500  0.004300  0.220300  1.0
  H  H573  1  0.033500  0.004300  0.720300  1.0
  H  H574  1  0.033500  0.495700  0.279700  1.0
  H  H575  1  0.533500  0.504300  0.220300  1.0
  H  H576  1  0.533500  0.995700  0.779700  1.0
  H  H577  1  0.921300  0.046400  0.300800  1.0
  H  H578  1  0.921300  0.453600  0.699200  1.0
  H  H579  1  0.421300  0.546400  0.800800  1.0
  H  H580  1  0.421300  0.953600  0.199200  1.0
  H  H581  1  0.078700  0.953600  0.699200  1.0
  H  H582  1  0.078700  0.546400  0.300800  1.0
  H  H583  1  0.578700  0.453600  0.199200  1.0
  H  H584  1  0.578700  0.046400  0.800800  1.0
  H  H585  1  0.997200  0.050300  0.288700  1.0
  H  H586  1  0.997200  0.449700  0.711300  1.0
  H  H587  1  0.497200  0.550300  0.788700  1.0
  H  H588  1  0.497200  0.949700  0.211300  1.0
  H  H589  1  0.002800  0.949700  0.711300  1.0
  H  H590  1  0.002800  0.550300  0.288700  1.0
  H  H591  1  0.502800  0.449700  0.211300  1.0
  H  H592  1  0.502800  0.050300  0.788700  1.0
  H  H593  1  0.537900  0.649800  0.875600  1.0
  H  H594  1  0.537900  0.850200  0.124400  1.0
  H  H595  1  0.037900  0.149800  0.375600  1.0
  H  H596  1  0.037900  0.350200  0.624400  1.0
  H  H597  1  0.462100  0.350200  0.124400  1.0
  H  H598  1  0.462100  0.149800  0.875600  1.0
  H  H599  1  0.962100  0.850200  0.624400  1.0
  H  H600  1  0.962100  0.649800  0.375600  1.0
  H  H601  1  0.497700  0.702300  0.905600  1.0
  H  H602  1  0.497700  0.797700  0.094400  1.0
  H  H603  1  0.997700  0.202300  0.405600  1.0
  H  H604  1  0.997700  0.297700  0.594400  1.0
  H  H605  1  0.502300  0.297700  0.094400  1.0
  H  H606  1  0.502300  0.202300  0.905600  1.0
  H  H607  1  0.002300  0.797700  0.594400  1.0
  H  H608  1  0.002300  0.702300  0.405600  1.0
  H  H609  1  0.459900  0.648100  0.881700  1.0
  H  H610  1  0.459900  0.851900  0.118300  1.0
  H  H611  1  0.959900  0.148100  0.381700  1.0
  H  H612  1  0.959900  0.351900  0.618300  1.0
  H  H613  1  0.540100  0.351900  0.118300  1.0
  H  H614  1  0.540100  0.148100  0.881700  1.0
  H  H615  1  0.040100  0.851900  0.618300  1.0
  H  H616  1  0.040100  0.648100  0.381700  1.0
  H  H617  1  0.621900  0.731300  0.189000  1.0
  H  H618  1  0.621900  0.768700  0.811000  1.0
  H  H619  1  0.121900  0.231300  0.689000  1.0
  H  H620  1  0.121900  0.268700  0.311000  1.0
  H  H621  1  0.378100  0.268700  0.811000  1.0
  H  H622  1  0.378100  0.231300  0.189000  1.0
  H  H623  1  0.878100  0.768700  0.311000  1.0
  H  H624  1  0.878100  0.731300  0.689000  1.0
  H  H625  1  0.548800  0.680600  0.124000  1.0
  H  H626  1  0.548800  0.819400  0.876000  1.0
  H  H627  1  0.048800  0.180600  0.624000  1.0
  H  H628  1  0.048800  0.319400  0.376000  1.0
  H  H629  1  0.451200  0.319400  0.876000  1.0
  H  H630  1  0.451200  0.180600  0.124000  1.0
  H  H631  1  0.951200  0.819400  0.376000  1.0
  H  H632  1  0.951200  0.680600  0.624000  1.0
  H  H633  1  0.850500  0.762400  0.077500  1.0
  H  H634  1  0.850500  0.737600  0.922500  1.0
  H  H635  1  0.350500  0.262400  0.577500  1.0
  H  H636  1  0.350500  0.237600  0.422500  1.0
  H  H637  1  0.149500  0.237600  0.922500  1.0
  H  H638  1  0.149500  0.262400  0.077500  1.0
  H  H639  1  0.649500  0.737600  0.422500  1.0
  H  H640  1  0.649500  0.762400  0.577500  1.0
  H  H641  1  0.834600  0.747400  0.149900  1.0
  H  H642  1  0.834600  0.752600  0.850100  1.0
  H  H643  1  0.334600  0.247400  0.649900  1.0
  H  H644  1  0.334600  0.252600  0.350100  1.0
  H  H645  1  0.165400  0.252600  0.850100  1.0
  H  H646  1  0.165400  0.247400  0.149900  1.0
  H  H647  1  0.665400  0.752600  0.350100  1.0
  H  H648  1  0.665400  0.747400  0.649900  1.0
  H  H649  1  0.888100  0.795000  0.224700  1.0
  H  H650  1  0.888100  0.705000  0.775300  1.0
  H  H651  1  0.388100  0.295000  0.724700  1.0
  H  H652  1  0.388100  0.205000  0.275300  1.0
  H  H653  1  0.111900  0.205000  0.775300  1.0
  H  H654  1  0.111900  0.295000  0.224700  1.0
  H  H655  1  0.611900  0.705000  0.275300  1.0
  H  H656  1  0.611900  0.795000  0.724700  1.0
  H  H657  1  0.963400  0.857800  0.231800  1.0
  H  H658  1  0.963400  0.642200  0.768200  1.0
  H  H659  1  0.463400  0.357800  0.731800  1.0
  H  H660  1  0.463400  0.142200  0.268200  1.0
  H  H661  1  0.036600  0.142200  0.768200  1.0
  H  H662  1  0.036600  0.357800  0.231800  1.0
  H  H663  1  0.536600  0.642200  0.268200  1.0
  H  H664  1  0.536600  0.857800  0.731800  1.0
  H  H665  1  0.981400  0.877800  0.159800  1.0
  H  H666  1  0.981400  0.622200  0.840200  1.0
  H  H667  1  0.481400  0.377800  0.659800  1.0
  H  H668  1  0.481400  0.122200  0.340200  1.0
  H  H669  1  0.018600  0.122200  0.840200  1.0
  H  H670  1  0.018600  0.377800  0.159800  1.0
  H  H671  1  0.518600  0.622200  0.340200  1.0
  H  H672  1  0.518600  0.877800  0.659800  1.0
  H  H673  1  0.697400  0.787600  0.176400  1.0
  H  H674  1  0.697400  0.712400  0.823600  1.0
  H  H675  1  0.197400  0.287600  0.676400  1.0
  H  H676  1  0.197400  0.212400  0.323600  1.0
  H  H677  1  0.302600  0.212400  0.823600  1.0
  H  H678  1  0.302600  0.287600  0.176400  1.0
  H  H679  1  0.802600  0.712400  0.323600  1.0
  H  H680  1  0.802600  0.787600  0.676400  1.0
  H  H681  1  0.447900  0.600600  0.946500  1.0
  H  H682  1  0.447900  0.899400  0.053500  1.0
  H  H683  1  0.947900  0.100600  0.446500  1.0
  H  H684  1  0.947900  0.399400  0.553500  1.0
  H  H685  1  0.552100  0.399400  0.053500  1.0
  H  H686  1  0.552100  0.100600  0.946500  1.0
  H  H687  1  0.052100  0.899400  0.553500  1.0
  H  H688  1  0.052100  0.600600  0.446500  1.0
  H  H689  1  0.776600  0.807100  0.938200  1.0
  H  H690  1  0.776600  0.692900  0.061800  1.0
  H  H691  1  0.276600  0.307100  0.438200  1.0
  H  H692  1  0.276600  0.192900  0.561800  1.0
  H  H693  1  0.223400  0.192900  0.061800  1.0
  H  H694  1  0.223400  0.307100  0.938200  1.0
  H  H695  1  0.723400  0.692900  0.561800  1.0
  H  H696  1  0.723400  0.807100  0.438200  1.0
  H  H697  1  0.766800  0.838800  0.874900  1.0
  H  H698  1  0.766800  0.661200  0.125100  1.0
  H  H699  1  0.266800  0.338800  0.374900  1.0
  H  H700  1  0.266800  0.161200  0.625100  1.0
  H  H701  1  0.233200  0.161200  0.125100  1.0
  H  H702  1  0.233200  0.338800  0.874900  1.0
  H  H703  1  0.733200  0.661200  0.625100  1.0
  H  H704  1  0.733200  0.838800  0.374900  1.0
  H  H705  1  0.695000  0.906600  0.889300  1.0
  H  H706  1  0.695000  0.593400  0.110700  1.0
  H  H707  1  0.195000  0.406600  0.389300  1.0
  H  H708  1  0.195000  0.093400  0.610700  1.0
  H  H709  1  0.305000  0.093400  0.110700  1.0
  H  H710  1  0.305000  0.406600  0.889300  1.0
  H  H711  1  0.805000  0.593400  0.610700  1.0
  H  H712  1  0.805000  0.906600  0.389300  1.0
  H  H713  1  0.633800  0.945500  0.965300  1.0
  H  H714  1  0.633800  0.554500  0.034700  1.0
  H  H715  1  0.133800  0.445500  0.465300  1.0
  H  H716  1  0.133800  0.054500  0.534700  1.0
  H  H717  1  0.366200  0.054500  0.034700  1.0
  H  H718  1  0.366200  0.445500  0.965300  1.0
  H  H719  1  0.866200  0.554500  0.534700  1.0
  H  H720  1  0.866200  0.945500  0.465300  1.0
  H  H721  1  0.643000  0.914800  0.027400  1.0
  H  H722  1  0.643000  0.585200  0.972600  1.0
  H  H723  1  0.143000  0.414800  0.527400  1.0
  H  H724  1  0.143000  0.085200  0.472600  1.0
  H  H725  1  0.357000  0.085200  0.972600  1.0
  H  H726  1  0.357000  0.414800  0.027400  1.0
  H  H727  1  0.857000  0.585200  0.472600  1.0
  H  H728  1  0.857000  0.914800  0.527400  1.0
  H  H729  1  0.448900  0.584100  0.030700  1.0
  H  H730  1  0.448900  0.915900  0.969300  1.0
  H  H731  1  0.948900  0.084100  0.530700  1.0
  H  H732  1  0.948900  0.415900  0.469300  1.0
  H  H733  1  0.551100  0.415900  0.969300  1.0
  H  H734  1  0.551100  0.084100  0.030700  1.0
  H  H735  1  0.051100  0.915900  0.469300  1.0
  H  H736  1  0.051100  0.584100  0.530700  1.0
  H  H737  1  0.468300  0.635400  0.080400  1.0
  H  H738  1  0.468300  0.864600  0.919600  1.0
  H  H739  1  0.968300  0.135400  0.580400  1.0
  H  H740  1  0.968300  0.364600  0.419600  1.0
  H  H741  1  0.531700  0.364600  0.919600  1.0
  H  H742  1  0.531700  0.135400  0.080400  1.0
  H  H743  1  0.031700  0.864600  0.419600  1.0
  H  H744  1  0.031700  0.635400  0.580400  1.0
  H  H745  1  0.523000  0.592800  0.051200  1.0
  H  H746  1  0.523000  0.907200  0.948800  1.0
  H  H747  1  0.023000  0.092800  0.551200  1.0
  H  H748  1  0.023000  0.407200  0.448800  1.0
  H  H749  1  0.477000  0.407200  0.948800  1.0
  H  H750  1  0.477000  0.092800  0.051200  1.0
  H  H751  1  0.977000  0.907200  0.448800  1.0
  H  H752  1  0.977000  0.592800  0.551200  1.0
  C  C753  1  0.491000  0.046000  0.132500  1
  C  C754  1  0.491000  0.454000  0.867500  1
  C  C755  1  0.991000  0.546000  0.632500  1
  C  C756  1  0.991000  0.954000  0.367500  1
  C  C757  1  0.509000  0.954000  0.867500  1
  C  C758  1  0.509000  0.546000  0.132500  1
  C  C759  1  0.009000  0.454000  0.367500  1
  C  C760  1  0.009000  0.046000  0.632500  1
  C  C761  1  0.651900  0.999700  0.329000  1
  C  C762  1  0.651900  0.500300  0.671000  1
  C  C763  1  0.151900  0.499700  0.829000  1
  C  C764  1  0.151900  0.000300  0.171000  1
  C  C765  1  0.348100  0.000300  0.671000  1
  C  C766  1  0.348100  0.499700  0.329000  1
  C  C767  1  0.848100  0.500300  0.171000  1
  C  C768  1  0.848100  0.999700  0.829000  1
  C  C769  1  0.927700  0.833000  0.117700  1
  C  C770  1  0.927700  0.667000  0.882300  1
  C  C771  1  0.427700  0.333000  0.617700  1
  C  C772  1  0.427700  0.167000  0.382300  1
  C  C773  1  0.072300  0.167000  0.882300  1
  C  C774  1  0.072300  0.333000  0.117700  1
  C  C775  1  0.572300  0.667000  0.382300  1
  C  C776  1  0.572300  0.833000  0.617700  1
  C  C777  1  0.890900  0.796400  0.127800  1
  C  C778  1  0.890900  0.703600  0.872200  1
  C  C779  1  0.390900  0.296400  0.627800  1
  C  C780  1  0.390900  0.203600  0.372200  1
  C  C781  1  0.109100  0.203600  0.872200  1
  C  C782  1  0.109100  0.296400  0.127800  1
  C  C783  1  0.609100  0.703600  0.372200  1
  C  C784  1  0.609100  0.796400  0.627800  1
  C  C785  1  0.890500  0.796900  0.176700  1
  C  C786  1  0.890500  0.703100  0.823300  1
  C  C787  1  0.390500  0.296900  0.676700  1
  C  C788  1  0.390500  0.203100  0.323300  1
  C  C789  1  0.109500  0.203100  0.823300  1
  C  C790  1  0.109500  0.296900  0.176700  1
  C  C791  1  0.609500  0.703100  0.323300  1
  C  C792  1  0.609500  0.796900  0.676700  1
  C  C793  1  0.929500  0.829100  0.212600  1
  C  C794  1  0.929500  0.670900  0.787400  1
  C  C795  1  0.429500  0.329100  0.712600  1
  C  C796  1  0.429500  0.170900  0.287400  1
  C  C797  1  0.070500  0.170900  0.787400  1
  C  C798  1  0.070500  0.329100  0.212600  1
  C  C799  1  0.570500  0.670900  0.287400  1
  C  C800  1  0.570500  0.829100  0.712600  1
  C  C801  1  0.972100  0.862700  0.202800  1
  C  C802  1  0.972100  0.637300  0.797200  1
  C  C803  1  0.472100  0.362700  0.702800  1
  C  C804  1  0.472100  0.137300  0.297200  1
  C  C805  1  0.027900  0.137300  0.797200  1
  C  C806  1  0.027900  0.362700  0.202800  1
  C  C807  1  0.527900  0.637300  0.297200  1
  C  C808  1  0.527900  0.862700  0.702800  1
  C  C809  1  0.973600  0.866900  0.154800  1
  C  C810  1  0.973600  0.633100  0.845200  1
  C  C811  1  0.473600  0.366900  0.654800  1
  C  C812  1  0.473600  0.133100  0.345200  1
  C  C813  1  0.026400  0.133100  0.845200  1
  C  C814  1  0.026400  0.366900  0.154800  1
  C  C815  1  0.526400  0.633100  0.345200  1
  C  C816  1  0.526400  0.866900  0.654800  1
  C  C817  1  0.651000  0.777400  0.102200  1
  C  C818  1  0.651000  0.722600  0.897800  1
  C  C819  1  0.151000  0.277400  0.602200  1
  C  C820  1  0.151000  0.222600  0.397800  1
  C  C821  1  0.349000  0.222600  0.897800  1
  C  C822  1  0.349000  0.277400  0.102200  1
  C  C823  1  0.849000  0.722600  0.397800  1
  C  C824  1  0.849000  0.777400  0.602200  1
  C  C825  1  0.645600  0.775400  0.150700  1
  C  C826  1  0.645600  0.724600  0.849300  1
  C  C827  1  0.145600  0.275400  0.650700  1
  C  C828  1  0.145600  0.224600  0.349300  1
  C  C829  1  0.354400  0.224600  0.849300  1
  C  C830  1  0.354400  0.275400  0.150700  1
  C  C831  1  0.854400  0.724600  0.349300  1
  C  C832  1  0.854400  0.775400  0.650700  1
  C  C833  1  0.598400  0.740700  0.155100  1
  C  C834  1  0.598400  0.759300  0.844900  1
  C  C835  1  0.098400  0.240700  0.655100  1
  C  C836  1  0.098400  0.259300  0.344900  1
  C  C837  1  0.401600  0.259300  0.844900  1
  C  C838  1  0.401600  0.240700  0.155100  1
  C  C839  1  0.901600  0.759300  0.344900  1
  C  C840  1  0.901600  0.740700  0.655100  1
  C  C841  1  0.559300  0.709100  0.111600  1
  C  C842  1  0.559300  0.790900  0.888400  1
  C  C843  1  0.059300  0.209100  0.611600  1
  C  C844  1  0.059300  0.290900  0.388400  1
  C  C845  1  0.440700  0.290900  0.888400  1
  C  C846  1  0.440700  0.209100  0.111600  1
  C  C847  1  0.940700  0.790900  0.388400  1
  C  C848  1  0.940700  0.709100  0.611600  1
  C  C849  1  0.491100  0.644900  0.004400  1
  C  C850  1  0.491100  0.855100  0.995600  1
  C  C851  1  0.991100  0.144900  0.504400  1
  C  C852  1  0.991100  0.355100  0.495600  1
  C  C853  1  0.508900  0.355100  0.995600  1
  C  C854  1  0.508900  0.144900  0.004400  1
  C  C855  1  0.008900  0.855100  0.495600  1
  C  C856  1  0.008900  0.644900  0.504400  1
  C  C857  1  0.475100  0.634900  0.953900  1
  C  C858  1  0.475100  0.865100  0.046100  1
  C  C859  1  0.975100  0.134900  0.453900  1
  C  C860  1  0.975100  0.365100  0.546100  1
  C  C861  1  0.524900  0.365100  0.046100  1
  C  C862  1  0.524900  0.134900  0.953900  1
  C  C863  1  0.024900  0.865100  0.546100  1
  C  C864  1  0.024900  0.634900  0.453900  1
  C  C865  1  0.718000  0.851400  0.988000  1
  C  C866  1  0.718000  0.648600  0.012000  1
  C  C867  1  0.218000  0.351400  0.488000  1
  C  C868  1  0.218000  0.148600  0.512000  1
  C  C869  1  0.282000  0.148600  0.012000  1
  C  C870  1  0.282000  0.351400  0.988000  1
  C  C871  1  0.782000  0.648600  0.512000  1
  C  C872  1  0.782000  0.851400  0.488000  1
  C  C873  1  0.763200  0.818100  0.943200  1
  C  C874  1  0.763200  0.681900  0.056800  1
  C  C875  1  0.263200  0.318100  0.443200  1
  C  C876  1  0.263200  0.181900  0.556800  1
  C  C877  1  0.236800  0.181900  0.056800  1
  C  C878  1  0.236800  0.318100  0.943200  1
  C  C879  1  0.736800  0.681900  0.556800  1
  C  C880  1  0.736800  0.818100  0.443200  1
  C  C881  1  0.766000  0.835600  0.902700  1
  C  C882  1  0.766000  0.664400  0.097300  1
  C  C883  1  0.266000  0.335600  0.402700  1
  C  C884  1  0.266000  0.164400  0.597300  1
  C  C885  1  0.234000  0.164400  0.097300  1
  C  C886  1  0.234000  0.335600  0.902700  1
  C  C887  1  0.734000  0.664400  0.597300  1
  C  C888  1  0.734000  0.835600  0.402700  1
  C  C889  1  0.727300  0.878500  0.903600  1
  C  C890  1  0.727300  0.621500  0.096400  1
  C  C891  1  0.227300  0.378500  0.403600  1
  C  C892  1  0.227300  0.121500  0.596400  1
  C  C893  1  0.272700  0.121500  0.096400  1
  C  C894  1  0.272700  0.378500  0.903600  1
  C  C895  1  0.772700  0.621500  0.596400  1
  C  C896  1  0.772700  0.878500  0.403600  1
  C  C897  1  0.688700  0.905700  0.941400  1
  C  C898  1  0.688700  0.594300  0.058600  1
  C  C899  1  0.188700  0.405700  0.441400  1
  C  C900  1  0.188700  0.094300  0.558600  1
  C  C901  1  0.311300  0.094300  0.058600  1
  C  C902  1  0.311300  0.405700  0.941400  1
  C  C903  1  0.811300  0.594300  0.558600  1
  C  C904  1  0.811300  0.905700  0.441400  1
  C  C905  1  0.689500  0.892400  0.984300  1
  C  C906  1  0.689500  0.607600  0.015700  1
  C  C907  1  0.189500  0.392400  0.484300  1
  C  C908  1  0.189500  0.107600  0.515700  1
  C  C909  1  0.310500  0.107600  0.015700  1
  C  C910  1  0.310500  0.392400  0.984300  1
  C  C911  1  0.810500  0.607600  0.515700  1
  C  C912  1  0.810500  0.892400  0.484300  1
  C  C913  1  0.465900  0.618700  0.037900  1
  C  C914  1  0.465900  0.881300  0.962100  1
  C  C915  1  0.965900  0.118700  0.537900  1
  C  C916  1  0.965900  0.381300  0.462100  1
  C  C917  1  0.534100  0.381300  0.962100  1
  C  C918  1  0.534100  0.118700  0.037900  1
  C  C919  1  0.034100  0.881300  0.462100  1
  C  C920  1  0.034100  0.618700  0.537900  1
  C  C921  1  0.569800  0.713400  0.066200  1
  C  C922  1  0.569800  0.786600  0.933800  1
  C  C923  1  0.069800  0.213400  0.566200  1
  C  C924  1  0.069800  0.286600  0.433800  1
  C  C925  1  0.430200  0.286600  0.933800  1
  C  C926  1  0.430200  0.213400  0.066200  1
  C  C927  1  0.930200  0.786600  0.433800  1
  C  C928  1  0.930200  0.713400  0.566200  1
  C  C929  1  0.511700  0.668100  0.938400  1
  C  C930  1  0.511700  0.831900  0.061600  1
  C  C931  1  0.011700  0.168100  0.438400  1
  C  C932  1  0.011700  0.331900  0.561600  1
  C  C933  1  0.488300  0.331900  0.061600  1
  C  C934  1  0.488300  0.168100  0.938400  1
  C  C935  1  0.988300  0.831900  0.561600  1
  C  C936  1  0.988300  0.668100  0.438400  1
  C  C937  1  0.516200  0.667200  0.886500  1
  C  C938  1  0.516200  0.832800  0.113500  1
  C  C939  1  0.016200  0.167200  0.386500  1
  C  C940  1  0.016200  0.332800  0.613500  1
  C  C941  1  0.483800  0.332800  0.113500  1
  C  C942  1  0.483800  0.167200  0.886500  1
  C  C943  1  0.983800  0.832800  0.613500  1
  C  C944  1  0.983800  0.667200  0.386500  1
  C  C945  1  0.361000  0.754900  0.051100  1
  C  C946  1  0.361000  0.745100  0.948900  1
  C  C947  1  0.861000  0.254900  0.551100  1
  C  C948  1  0.861000  0.245100  0.448900  1
  C  C949  1  0.639000  0.245100  0.948900  1
  C  C950  1  0.639000  0.254900  0.051100  1
  C  C951  1  0.139000  0.745100  0.448900  1
  C  C952  1  0.139000  0.754900  0.551100  1
  C  C953  1  0.326900  0.710400  0.051300  1
  C  C954  1  0.326900  0.789600  0.948700  1
  C  C955  1  0.826900  0.210400  0.551300  1
  C  C956  1  0.826900  0.289600  0.448700  1
  C  C957  1  0.673100  0.289600  0.948700  1
  C  C958  1  0.673100  0.210400  0.051300  1
  C  C959  1  0.173100  0.789600  0.448700  1
  C  C960  1  0.173100  0.710400  0.551300  1
  C  C961  1  0.311500  0.730600  0.033100  1.0
  C  C962  1  0.311500  0.769400  0.966900  1.0
  C  C963  1  0.811500  0.230600  0.533100  1.0
  C  C964  1  0.811500  0.269400  0.466900  1.0
  C  C965  1  0.688500  0.269400  0.966900  1.0
  C  C966  1  0.688500  0.230600  0.033100  1.0
  C  C967  1  0.188500  0.769400  0.466900  1.0
  C  C968  1  0.188500  0.730600  0.533100  1.0
  C  C969  1  0.352500  0.739100  0.077200  1.0
  C  C970  1  0.352500  0.760900  0.922800  1.0
  C  C971  1  0.852500  0.239100  0.577200  1.0
  C  C972  1  0.852500  0.260900  0.422800  1.0
  C  C973  1  0.647500  0.260900  0.922800  1.0
  C  C974  1  0.647500  0.239100  0.077200  1.0
  C  C975  1  0.147500  0.760900  0.422800  1.0
  C  C976  1  0.147500  0.739100  0.577200  1.0
  C  C977  1  0.144470  0.665400  0.959080  1.0
  C  C978  1  0.144470  0.834600  0.040920  1.0
  C  C979  1  0.644470  0.165400  0.459080  1.0
  C  C980  1  0.644470  0.334600  0.540920  1.0
  C  C981  1  0.855530  0.334600  0.040920  1.0
  C  C982  1  0.855530  0.165400  0.959080  1.0
  C  C983  1  0.355530  0.834600  0.540920  1.0
  C  C984  1  0.355530  0.665400  0.459080  1.0
  C  C985  1  0.183680  0.646450  0.914080  1.0
  C  C986  1  0.183680  0.853550  0.085920  1.0
  C  C987  1  0.683680  0.146450  0.414080  1.0
  C  C988  1  0.683680  0.353550  0.585920  1.0
  C  C989  1  0.816320  0.353550  0.085920  1.0
  C  C990  1  0.816320  0.146450  0.914080  1.0
  C  C991  1  0.316320  0.853550  0.585920  1.0
  C  C992  1  0.316320  0.646450  0.414080  1.0
  C  C993  1  0.162630  0.669660  0.883910  1.0
  C  C994  1  0.162630  0.830340  0.116090  1.0
  C  C995  1  0.662630  0.169660  0.383910  1.0
  C  C996  1  0.662630  0.330340  0.616090  1.0
  C  C997  1  0.837370  0.330340  0.116090  1.0
  C  C998  1  0.837370  0.169660  0.883910  1.0
  C  C999  1  0.337370  0.830340  0.616090  1.0
  C  C1000  1  0.337370  0.669660  0.383910  1.0
  C  C1001  1  0.071790  0.738490  0.901190  1.0
  C  C1002  1  0.071790  0.761510  0.098810  1.0
  C  C1003  1  0.571790  0.238490  0.401190  1.0
  C  C1004  1  0.571790  0.261510  0.598810  1.0
  C  C1005  1  0.928210  0.261510  0.098810  1.0
  C  C1006  1  0.928210  0.238490  0.901190  1.0
  C  C1007  1  0.428210  0.761510  0.598810  1.0
  C  C1008  1  0.428210  0.738490  0.401190  1.0
  C  C1009  1  0.072130  0.745850  0.856520  1.0
  C  C1010  1  0.072130  0.754150  0.143480  1.0
  C  C1011  1  0.572130  0.245850  0.356520  1.0
  C  C1012  1  0.572130  0.254150  0.643480  1.0
  C  C1013  1  0.927870  0.254150  0.143480  1.0
  C  C1014  1  0.927870  0.245850  0.856520  1.0
  C  C1015  1  0.427870  0.754150  0.643480  1.0
  C  C1016  1  0.427870  0.745850  0.356520  1.0
  C  C1017  1  0.028320  0.783280  0.854780  1.0
  C  C1018  1  0.028320  0.716720  0.145220  1.0
  C  C1019  1  0.528320  0.283280  0.354780  1.0
  C  C1020  1  0.528320  0.216720  0.645220  1.0
  C  C1021  1  0.971680  0.216720  0.145220  1.0
  C  C1022  1  0.971680  0.283280  0.854780  1.0
  C  C1023  1  0.471680  0.716720  0.645220  1.0
  C  C1024  1  0.471680  0.783280  0.354780  1.0
  C  C1025  1  0.988250  0.812670  0.897120  1.0
  C  C1026  1  0.988250  0.687330  0.102880  1.0
  C  C1027  1  0.488250  0.312670  0.397120  1.0
  C  C1028  1  0.488250  0.187330  0.602880  1.0
  C  C1029  1  0.011750  0.187330  0.102880  1.0
  C  C1030  1  0.011750  0.312670  0.897120  1.0
  C  C1031  1  0.511750  0.687330  0.602880  1.0
  C  C1032  1  0.511750  0.812670  0.397120  1.0
  C  C1033  1  0.991400  0.804110  0.940950  1.0
  C  C1034  1  0.991400  0.695890  0.059050  1.0
  C  C1035  1  0.491400  0.304110  0.440950  1.0
  C  C1036  1  0.491400  0.195890  0.559050  1.0
  C  C1037  1  0.008600  0.195890  0.059050  1.0
  C  C1038  1  0.008600  0.304110  0.940950  1.0
  C  C1039  1  0.508600  0.695890  0.559050  1.0
  C  C1040  1  0.508600  0.804110  0.440950  1.0
  C  C1041  1  0.953900  0.829190  0.989840  1.0
  C  C1042  1  0.953900  0.670810  0.010160  1.0
  C  C1043  1  0.453900  0.329190  0.489840  1.0
  C  C1044  1  0.453900  0.170810  0.510160  1.0
  C  C1045  1  0.046100  0.170810  0.010160  1.0
  C  C1046  1  0.046100  0.329190  0.989840  1.0
  C  C1047  1  0.546100  0.670810  0.510160  1.0
  C  C1048  1  0.546100  0.829190  0.489840  1.0
  C  C1049  1  0.925630  0.834380  0.066340  1.0
  C  C1050  1  0.925630  0.665620  0.933660  1.0
  C  C1051  1  0.425630  0.334380  0.566340  1.0
  C  C1052  1  0.425630  0.165620  0.433660  1.0
  C  C1053  1  0.074370  0.165620  0.933660  1.0
  C  C1054  1  0.074370  0.334380  0.066340  1.0
  C  C1055  1  0.574370  0.665620  0.433660  1.0
  C  C1056  1  0.574370  0.834380  0.566340  1.0
  C  C1057  1  0.910740  0.870860  0.013220  1.0
  C  C1058  1  0.910740  0.629140  0.986780  1.0
  C  C1059  1  0.410740  0.370860  0.513220  1.0
  C  C1060  1  0.410740  0.129140  0.486780  1.0
  C  C1061  1  0.089260  0.129140  0.986780  1.0
  C  C1062  1  0.089260  0.370860  0.013220  1.0
  C  C1063  1  0.589260  0.629140  0.486780  1.0
  C  C1064  1  0.589260  0.870860  0.513220  1.0
  C  C1065  1  0.881160  0.912270  0.002190  1.0
  C  C1066  1  0.881160  0.587730  0.997810  1.0
  C  C1067  1  0.381160  0.412270  0.502190  1.0
  C  C1068  1  0.381160  0.087730  0.497810  1.0
  C  C1069  1  0.118840  0.087730  0.997810  1.0
  C  C1070  1  0.118840  0.412270  0.002190  1.0
  C  C1071  1  0.618840  0.587730  0.497810  1.0
  C  C1072  1  0.618840  0.912270  0.502190  1.0
  C  C1073  1  0.895790  0.926610  0.963110  1.0
  C  C1074  1  0.895790  0.573390  0.036890  1.0
  C  C1075  1  0.395790  0.426610  0.463110  1.0
  C  C1076  1  0.395790  0.073390  0.536890  1.0
  C  C1077  1  0.104210  0.073390  0.036890  1.0
  C  C1078  1  0.104210  0.426610  0.963110  1.0
  C  C1079  1  0.604210  0.573390  0.536890  1.0
  C  C1080  1  0.604210  0.926610  0.463110  1.0
  C  C1081  1  0.861300  0.966870  0.959940  1.0
  C  C1082  1  0.861300  0.533130  0.040060  1.0
  C  C1083  1  0.361300  0.466870  0.459940  1.0
  C  C1084  1  0.361300  0.033130  0.540060  1.0
  C  C1085  1  0.138700  0.033130  0.040060  1.0
  C  C1086  1  0.138700  0.466870  0.959940  1.0
  C  C1087  1  0.638700  0.533130  0.540060  1.0
  C  C1088  1  0.638700  0.966870  0.459940  1.0
  C  C1089  1  0.813400  0.994140  0.996390  1.0
  C  C1090  1  0.813400  0.505860  0.003610  1.0
  C  C1091  1  0.313400  0.494140  0.496390  1.0
  C  C1092  1  0.313400  0.005860  0.503610  1.0
  C  C1093  1  0.186600  0.005860  0.003610  1.0
  C  C1094  1  0.186600  0.494140  0.996390  1.0
  C  C1095  1  0.686600  0.505860  0.503610  1.0
  C  C1096  1  0.686600  0.994140  0.496390  1.0
  C  C1097  1  0.802590  0.979930  0.036190  1.0
  C  C1098  1  0.802590  0.520070  0.963810  1.0
  C  C1099  1  0.302590  0.479930  0.536190  1.0
  C  C1100  1  0.302590  0.020070  0.463810  1.0
  C  C1101  1  0.197410  0.020070  0.963810  1.0
  C  C1102  1  0.197410  0.479930  0.036190  1.0
  C  C1103  1  0.697410  0.520070  0.463810  1.0
  C  C1104  1  0.697410  0.979930  0.536190  1.0
  C  C1105  1  0.716450  0.046630  0.092440  1.0
  C  C1106  1  0.716450  0.453370  0.907560  1.0
  C  C1107  1  0.216450  0.546630  0.592440  1.0
  C  C1108  1  0.216450  0.953370  0.407560  1.0
  C  C1109  1  0.283550  0.953370  0.907560  1.0
  C  C1110  1  0.283550  0.546630  0.092440  1.0
  C  C1111  1  0.783550  0.453370  0.407560  1.0
  C  C1112  1  0.783550  0.046630  0.592440  1.0
  C  C1113  1  0.688360  0.053350  0.138420  1.0
  C  C1114  1  0.688360  0.446650  0.861580  1.0
  C  C1115  1  0.188360  0.553350  0.638420  1.0
  C  C1116  1  0.188360  0.946650  0.361580  1.0
  C  C1117  1  0.311640  0.946650  0.861580  1.0
  C  C1118  1  0.311640  0.553350  0.138420  1.0
  C  C1119  1  0.811640  0.446650  0.361580  1.0
  C  C1120  1  0.811640  0.053350  0.638420  1.0
  C  C1121  1  0.714820  0.014780  0.151480  1.0
  C  C1122  1  0.714820  0.485220  0.848520  1.0
  C  C1123  1  0.214820  0.514780  0.651480  1.0
  C  C1124  1  0.214820  0.985220  0.348520  1.0
  C  C1125  1  0.285180  0.985220  0.848520  1.0
  C  C1126  1  0.285180  0.514780  0.151480  1.0
  C  C1127  1  0.785180  0.485220  0.348520  1.0
  C  C1128  1  0.785180  0.014780  0.651480  1.0
  C  C1129  1  0.147500  0.649630  0.002450  1.0
  C  C1130  1  0.147500  0.850370  0.997550  1.0
  C  C1131  1  0.647500  0.149630  0.502450  1.0
  C  C1132  1  0.647500  0.350370  0.497550  1.0
  C  C1133  1  0.852500  0.350370  0.997550  1.0
  C  C1134  1  0.852500  0.149630  0.002450  1.0
  C  C1135  1  0.352500  0.850370  0.497550  1.0
  C  C1136  1  0.352500  0.649630  0.502450  1.0
  C  C1137  1  0.187400  0.661760  0.831220  1.0
  C  C1138  1  0.187400  0.838240  0.168780  1.0
  C  C1139  1  0.687400  0.161760  0.331220  1.0
  C  C1140  1  0.687400  0.338240  0.668780  1.0
  C  C1141  1  0.812600  0.338240  0.168780  1.0
  C  C1142  1  0.812600  0.161760  0.831220  1.0
  C  C1143  1  0.312600  0.838240  0.668780  1.0
  C  C1144  1  0.312600  0.661760  0.331220  1.0
  C  C1145  1  0.704500  0.077280  0.061840  1.0
  C  C1146  1  0.704500  0.422720  0.938160  1.0
  C  C1147  1  0.204500  0.577280  0.561840  1.0
  C  C1148  1  0.204500  0.922720  0.438160  1.0
  C  C1149  1  0.295500  0.922720  0.938160  1.0
  C  C1150  1  0.295500  0.577280  0.061840  1.0
  C  C1151  1  0.795500  0.422720  0.438160  1.0
  C  C1152  1  0.795500  0.077280  0.561840  1.0
  C  C1153  1  0.697680  0.006640  0.198240  1.0
  C  C1154  1  0.697680  0.493360  0.801760  1.0
  C  C1155  1  0.197680  0.506640  0.698240  1.0
  C  C1156  1  0.197680  0.993360  0.301760  1.0
  C  C1157  1  0.302320  0.993360  0.801760  1.0
  C  C1158  1  0.302320  0.506640  0.198240  1.0
  C  C1159  1  0.802320  0.493360  0.301760  1.0
  C  C1160  1  0.802320  0.006640  0.698240  1.0
  C  C1161  1  0.937100  0.012730  0.143270  1.0
  C  C1162  1  0.937100  0.487270  0.856730  1.0
  C  C1163  1  0.437100  0.512730  0.643270  1.0
  C  C1164  1  0.437100  0.987270  0.356730  1.0
  C  C1165  1  0.062900  0.987270  0.856730  1.0
  C  C1166  1  0.062900  0.512730  0.143270  1.0
  C  C1167  1  0.562900  0.487270  0.356730  1.0
  C  C1168  1  0.562900  0.012730  0.643270  1.0
  C  C1169  1  0.967970  0.037700  0.192400  1.0
  C  C1170  1  0.967970  0.462300  0.807600  1.0
  C  C1171  1  0.467970  0.537700  0.692400  1.0
  C  C1172  1  0.467970  0.962300  0.307600  1.0
  C  C1173  1  0.032030  0.962300  0.807600  1.0
  C  C1174  1  0.032030  0.537700  0.192400  1.0
  C  C1175  1  0.532030  0.462300  0.307600  1.0
  C  C1176  1  0.532030  0.037700  0.692400  1.0
  C  C1177  1  0.940290  0.017880  0.223390  1.0
  C  C1178  1  0.940290  0.482120  0.776610  1.0
  C  C1179  1  0.440290  0.517880  0.723390  1.0
  C  C1180  1  0.440290  0.982120  0.276610  1.0
  C  C1181  1  0.059710  0.982120  0.776610  1.0
  C  C1182  1  0.059710  0.517880  0.223390  1.0
  C  C1183  1  0.559710  0.482120  0.276610  1.0
  C  C1184  1  0.559710  0.017880  0.723390  1.0
  C  C1185  1  0.847000  0.950850  0.204530  1.0
  C  C1186  1  0.847000  0.549150  0.795470  1.0
  C  C1187  1  0.347000  0.450850  0.704530  1.0
  C  C1188  1  0.347000  0.049150  0.295470  1.0
  C  C1189  1  0.153000  0.049150  0.795470  1.0
  C  C1190  1  0.153000  0.450850  0.204530  1.0
  C  C1191  1  0.653000  0.549150  0.295470  1.0
  C  C1192  1  0.653000  0.950850  0.704530  1.0
  C  C1193  1  0.834690  0.952480  0.252430  1.0
  C  C1194  1  0.834690  0.547520  0.747570  1.0
  C  C1195  1  0.334690  0.452480  0.752430  1.0
  C  C1196  1  0.334690  0.047520  0.247570  1.0
  C  C1197  1  0.165310  0.047520  0.747570  1.0
  C  C1198  1  0.165310  0.452480  0.252430  1.0
  C  C1199  1  0.665310  0.547520  0.247570  1.0
  C  C1200  1  0.665310  0.952480  0.752430  1.0
  C  C1201  1  0.785960  0.919000  0.255220  1.0
  C  C1202  1  0.785960  0.581000  0.744780  1.0
  C  C1203  1  0.285960  0.419000  0.755220  1.0
  C  C1204  1  0.285960  0.081000  0.244780  1.0
  C  C1205  1  0.214040  0.081000  0.744780  1.0
  C  C1206  1  0.214040  0.419000  0.255220  1.0
  C  C1207  1  0.714040  0.581000  0.244780  1.0
  C  C1208  1  0.714040  0.919000  0.755220  1.0
  C  C1209  1  0.751990  0.885100  0.211390  1.0
  C  C1210  1  0.751990  0.614900  0.788610  1.0
  C  C1211  1  0.251990  0.385100  0.711390  1.0
  C  C1212  1  0.251990  0.114900  0.288610  1.0
  C  C1213  1  0.248010  0.114900  0.788610  1.0
  C  C1214  1  0.248010  0.385100  0.211390  1.0
  C  C1215  1  0.748010  0.614900  0.288610  1.0
  C  C1216  1  0.748010  0.885100  0.711390  1.0
  C  C1217  1  0.767560  0.884520  0.163980  1.0
  C  C1218  1  0.767560  0.615480  0.836020  1.0
  C  C1219  1  0.267560  0.384520  0.663980  1.0
  C  C1220  1  0.267560  0.115480  0.336020  1.0
  C  C1221  1  0.232440  0.115480  0.836020  1.0
  C  C1222  1  0.232440  0.384520  0.163980  1.0
  C  C1223  1  0.732440  0.615480  0.336020  1.0
  C  C1224  1  0.732440  0.884520  0.663980  1.0
  C  C1225  1  0.737350  0.854160  0.112530  1.0
  C  C1226  1  0.737350  0.645840  0.887470  1.0
  C  C1227  1  0.237350  0.354160  0.612530  1.0
  C  C1228  1  0.237350  0.145840  0.387470  1.0
  C  C1229  1  0.262650  0.145840  0.887470  1.0
  C  C1230  1  0.262650  0.354160  0.112530  1.0
  C  C1231  1  0.762650  0.645840  0.387470  1.0
  C  C1232  1  0.762650  0.854160  0.612530  1.0
  C  C1233  1  0.719230  0.842590  0.032780  1.0
  C  C1234  1  0.719230  0.657410  0.967220  1.0
  C  C1235  1  0.219230  0.342590  0.532780  1.0
  C  C1236  1  0.219230  0.157410  0.467220  1.0
  C  C1237  1  0.280770  0.157410  0.967220  1.0
  C  C1238  1  0.280770  0.342590  0.032780  1.0
  C  C1239  1  0.780770  0.657410  0.467220  1.0
  C  C1240  1  0.780770  0.842590  0.532780  1.0
  C  C1241  1  0.694840  0.811880  0.089450  1.0
  C  C1242  1  0.694840  0.688120  0.910550  1.0
  C  C1243  1  0.194840  0.311880  0.589450  1.0
  C  C1244  1  0.194840  0.188120  0.410550  1.0
  C  C1245  1  0.305160  0.188120  0.910550  1.0
  C  C1246  1  0.305160  0.311880  0.089450  1.0
  C  C1247  1  0.805160  0.688120  0.410550  1.0
  C  C1248  1  0.805160  0.811880  0.589450  1.0
  C  C1249  1  0.581700  0.706200  0.072200  1.0
  C  C1250  1  0.581700  0.793800  0.927800  1.0
  C  C1251  1  0.081700  0.206200  0.572200  1.0
  C  C1252  1  0.081700  0.293800  0.427800  1.0
  C  C1253  1  0.418300  0.293800  0.927800  1.0
  C  C1254  1  0.418300  0.206200  0.072200  1.0
  C  C1255  1  0.918300  0.793800  0.427800  1.0
  C  C1256  1  0.918300  0.706200  0.572200  1.0
  C  C1257  1  0.510100  0.660900  0.948800  1.0
  C  C1258  1  0.510100  0.839100  0.051200  1.0
  C  C1259  1  0.010100  0.160900  0.448800  1.0
  C  C1260  1  0.010100  0.339100  0.551200  1.0
  C  C1261  1  0.489900  0.339100  0.051200  1.0
  C  C1262  1  0.489900  0.160900  0.948800  1.0
  C  C1263  1  0.989900  0.839100  0.551200  1.0
  C  C1264  1  0.989900  0.660900  0.448800  1.0
  C  C1265  1  0.952570  0.022030  0.096760  1.0
  C  C1266  1  0.952570  0.477970  0.903240  1.0
  C  C1267  1  0.452570  0.522030  0.596760  1.0
  C  C1268  1  0.452570  0.977970  0.403240  1.0
  C  C1269  1  0.047430  0.977970  0.903240  1.0
  C  C1270  1  0.047430  0.522030  0.096760  1.0
  C  C1271  1  0.547430  0.477970  0.403240  1.0
  C  C1272  1  0.547430  0.022030  0.596760  1.0
  C  C1273  1  0.957900  0.028500  0.278030  1.0
  C  C1274  1  0.957900  0.471500  0.721970  1.0
  C  C1275  1  0.457900  0.528500  0.778030  1.0
  C  C1276  1  0.457900  0.971500  0.221970  1.0
  C  C1277  1  0.042100  0.971500  0.721970  1.0
  C  C1278  1  0.042100  0.528500  0.278030  1.0
  C  C1279  1  0.542100  0.471500  0.221970  1.0
  C  C1280  1  0.542100  0.028500  0.778030  1.0
  C  C1281  1  0.500500  0.665700  0.898300  1.0
  C  C1282  1  0.500500  0.834300  0.101700  1.0
  C  C1283  1  0.000500  0.165700  0.398300  1.0
  C  C1284  1  0.000500  0.334300  0.601700  1.0
  C  C1285  1  0.499500  0.334300  0.101700  1.0
  C  C1286  1  0.499500  0.165700  0.898300  1.0
  C  C1287  1  0.999500  0.834300  0.601700  1.0
  C  C1288  1  0.999500  0.665700  0.398300  1.0
  C  C1289  1  0.663700  0.774000  0.106200  1.0
  C  C1290  1  0.663700  0.726000  0.893800  1.0
  C  C1291  1  0.163700  0.274000  0.606200  1.0
  C  C1292  1  0.163700  0.226000  0.393800  1.0
  C  C1293  1  0.336300  0.226000  0.893800  1.0
  C  C1294  1  0.336300  0.274000  0.106200  1.0
  C  C1295  1  0.836300  0.726000  0.393800  1.0
  C  C1296  1  0.836300  0.774000  0.606200  1.0
  C  C1297  1  0.622200  0.733800  0.157500  1.0
  C  C1298  1  0.622200  0.766200  0.842500  1.0
  C  C1299  1  0.122200  0.233800  0.657500  1.0
  C  C1300  1  0.122200  0.266200  0.342500  1.0
  C  C1301  1  0.377800  0.266200  0.842500  1.0
  C  C1302  1  0.377800  0.233800  0.157500  1.0
  C  C1303  1  0.877800  0.766200  0.342500  1.0
  C  C1304  1  0.877800  0.733800  0.657500  1.0
  C  C1305  1  0.579000  0.703000  0.118800  1.0
  C  C1306  1  0.579000  0.797000  0.881200  1.0
  C  C1307  1  0.079000  0.203000  0.618800  1.0
  C  C1308  1  0.079000  0.297000  0.381200  1.0
  C  C1309  1  0.421000  0.297000  0.881200  1.0
  C  C1310  1  0.421000  0.203000  0.118800  1.0
  C  C1311  1  0.921000  0.797000  0.381200  1.0
  C  C1312  1  0.921000  0.703000  0.618800  1.0
  C  C1313  1  0.918100  0.821500  0.110900  1.0
  C  C1314  1  0.918100  0.678500  0.889100  1.0
  C  C1315  1  0.418100  0.321500  0.610900  1.0
  C  C1316  1  0.418100  0.178500  0.389100  1.0
  C  C1317  1  0.081900  0.178500  0.889100  1.0
  C  C1318  1  0.081900  0.321500  0.110900  1.0
  C  C1319  1  0.581900  0.678500  0.389100  1.0
  C  C1320  1  0.581900  0.821500  0.610900  1.0
  C  C1321  1  0.873600  0.782300  0.108200  1.0
  C  C1322  1  0.873600  0.717700  0.891800  1.0
  C  C1323  1  0.373600  0.282300  0.608200  1.0
  C  C1324  1  0.373600  0.217700  0.391800  1.0
  C  C1325  1  0.126400  0.217700  0.891800  1.0
  C  C1326  1  0.126400  0.282300  0.108200  1.0
  C  C1327  1  0.626400  0.717700  0.391800  1.0
  C  C1328  1  0.626400  0.782300  0.608200  1.0
  C  C1329  1  0.864200  0.773600  0.151600  1.0
  C  C1330  1  0.864200  0.726400  0.848400  1.0
  C  C1331  1  0.364200  0.273600  0.651600  1.0
  C  C1332  1  0.364200  0.226400  0.348400  1.0
  C  C1333  1  0.135800  0.226400  0.848400  1.0
  C  C1334  1  0.135800  0.273600  0.151600  1.0
  C  C1335  1  0.635800  0.726400  0.348400  1.0
  C  C1336  1  0.635800  0.773600  0.651600  1.0
  C  C1337  1  0.896400  0.801700  0.196000  1.0
  C  C1338  1  0.896400  0.698300  0.804000  1.0
  C  C1339  1  0.396400  0.301700  0.696000  1.0
  C  C1340  1  0.396400  0.198300  0.304000  1.0
  C  C1341  1  0.103600  0.198300  0.804000  1.0
  C  C1342  1  0.103600  0.301700  0.196000  1.0
  C  C1343  1  0.603600  0.698300  0.304000  1.0
  C  C1344  1  0.603600  0.801700  0.696000  1.0
  C  C1345  1  0.940500  0.839400  0.200600  1.0
  C  C1346  1  0.940500  0.660600  0.799400  1.0
  C  C1347  1  0.440500  0.339400  0.700600  1.0
  C  C1348  1  0.440500  0.160600  0.299400  1.0
  C  C1349  1  0.059500  0.160600  0.799400  1.0
  C  C1350  1  0.059500  0.339400  0.200600  1.0
  C  C1351  1  0.559500  0.660600  0.299400  1.0
  C  C1352  1  0.559500  0.839400  0.700600  1.0
  C  C1353  1  0.952000  0.851100  0.157200  1.0
  C  C1354  1  0.952000  0.648900  0.842800  1.0
  C  C1355  1  0.452000  0.351100  0.657200  1.0
  C  C1356  1  0.452000  0.148900  0.342800  1.0
  C  C1357  1  0.048000  0.148900  0.842800  1.0
  C  C1358  1  0.048000  0.351100  0.157200  1.0
  C  C1359  1  0.548000  0.648900  0.342800  1.0
  C  C1360  1  0.548000  0.851100  0.657200  1.0
  C  C1361  1  0.666400  0.768500  0.150600  1.0
  C  C1362  1  0.666400  0.731500  0.849400  1.0
  C  C1363  1  0.166400  0.268500  0.650600  1.0
  C  C1364  1  0.166400  0.231500  0.349400  1.0
  C  C1365  1  0.333600  0.231500  0.849400  1.0
  C  C1366  1  0.333600  0.268500  0.150600  1.0
  C  C1367  1  0.833600  0.731500  0.349400  1.0
  C  C1368  1  0.833600  0.768500  0.650600  1.0
  C  C1369  1  0.498800  0.636200  0.014200  1.0
  C  C1370  1  0.498800  0.863800  0.985800  1.0
  C  C1371  1  0.998800  0.136200  0.514200  1.0
  C  C1372  1  0.998800  0.363800  0.485800  1.0
  C  C1373  1  0.501200  0.363800  0.985800  1.0
  C  C1374  1  0.501200  0.136200  0.014200  1.0
  C  C1375  1  0.001200  0.863800  0.485800  1.0
  C  C1376  1  0.001200  0.636200  0.514200  1.0
  C  C1377  1  0.478600  0.626600  0.966000  1.0
  C  C1378  1  0.478600  0.873400  0.034000  1.0
  C  C1379  1  0.978600  0.126600  0.466000  1.0
  C  C1380  1  0.978600  0.373400  0.534000  1.0
  C  C1381  1  0.521400  0.373400  0.034000  1.0
  C  C1382  1  0.521400  0.126600  0.966000  1.0
  C  C1383  1  0.021400  0.873400  0.534000  1.0
  C  C1384  1  0.021400  0.626600  0.466000  1.0
  C  C1385  1  0.713500  0.858100  0.989100  1.0
  C  C1386  1  0.713500  0.641900  0.010900  1.0
  C  C1387  1  0.213500  0.358100  0.489100  1.0
  C  C1388  1  0.213500  0.141900  0.510900  1.0
  C  C1389  1  0.286500  0.141900  0.010900  1.0
  C  C1390  1  0.286500  0.358100  0.989100  1.0
  C  C1391  1  0.786500  0.641900  0.510900  1.0
  C  C1392  1  0.786500  0.858100  0.489100  1.0
  C  C1393  1  0.748300  0.835300  0.944000  1.0
  C  C1394  1  0.748300  0.664700  0.056000  1.0
  C  C1395  1  0.248300  0.335300  0.444000  1.0
  C  C1396  1  0.248300  0.164700  0.556000  1.0
  C  C1397  1  0.251700  0.164700  0.056000  1.0
  C  C1398  1  0.251700  0.335300  0.944000  1.0
  C  C1399  1  0.751700  0.664700  0.556000  1.0
  C  C1400  1  0.751700  0.835300  0.444000  1.0
  C  C1401  1  0.742200  0.853900  0.905600  1.0
  C  C1402  1  0.742200  0.646100  0.094400  1.0
  C  C1403  1  0.242200  0.353900  0.405600  1.0
  C  C1404  1  0.242200  0.146100  0.594400  1.0
  C  C1405  1  0.257800  0.146100  0.094400  1.0
  C  C1406  1  0.257800  0.353900  0.905600  1.0
  C  C1407  1  0.757800  0.646100  0.594400  1.0
  C  C1408  1  0.757800  0.853900  0.405600  1.0
  C  C1409  1  0.699600  0.894200  0.914500  1.0
  C  C1410  1  0.699600  0.605800  0.085500  1.0
  C  C1411  1  0.199600  0.394200  0.414500  1.0
  C  C1412  1  0.199600  0.105800  0.585500  1.0
  C  C1413  1  0.300400  0.105800  0.085500  1.0
  C  C1414  1  0.300400  0.394200  0.914500  1.0
  C  C1415  1  0.800400  0.605800  0.585500  1.0
  C  C1416  1  0.800400  0.894200  0.414500  1.0
  C  C1417  1  0.662500  0.917600  0.960100  1.0
  C  C1418  1  0.662500  0.582400  0.039900  1.0
  C  C1419  1  0.162500  0.417600  0.460100  1.0
  C  C1420  1  0.162500  0.082400  0.539900  1.0
  C  C1421  1  0.337500  0.082400  0.039900  1.0
  C  C1422  1  0.337500  0.417600  0.960100  1.0
  C  C1423  1  0.837500  0.582400  0.539900  1.0
  C  C1424  1  0.837500  0.917600  0.460100  1.0
  C  C1425  1  0.668400  0.899800  0.997000  1.0
  C  C1426  1  0.668400  0.600200  0.003000  1.0
  C  C1427  1  0.168400  0.399800  0.497000  1.0
  C  C1428  1  0.168400  0.100200  0.503000  1.0
  C  C1429  1  0.331600  0.100200  0.003000  1.0
  C  C1430  1  0.331600  0.399800  0.997000  1.0
  C  C1431  1  0.831600  0.600200  0.503000  1.0
  C  C1432  1  0.831600  0.899800  0.497000  1.0
  C  C1433  1  0.483500  0.609900  0.046900  1.0
  C  C1434  1  0.483500  0.890100  0.953100  1.0
  C  C1435  1  0.983500  0.109900  0.546900  1.0
  C  C1436  1  0.983500  0.390100  0.453100  1.0
  C  C1437  1  0.516500  0.390100  0.953100  1.0
  C  C1438  1  0.516500  0.109900  0.046900  1.0
  C  C1439  1  0.016500  0.890100  0.453100  1.0
  C  C1440  1  0.016500  0.609900  0.546900  1.0
  N  N1441  1  0.533800  0.000800  0.100900  1
  N  N1442  1  0.533800  0.499200  0.899100  1
  N  N1443  1  0.033800  0.500800  0.600900  1
  N  N1444  1  0.033800  0.999200  0.399100  1
  N  N1445  1  0.466200  0.999200  0.899100  1
  N  N1446  1  0.466200  0.500800  0.100900  1
  N  N1447  1  0.966200  0.499200  0.399100  1
  N  N1448  1  0.966200  0.000800  0.600900  1
  N  N1449  1  0.598900  0.038800  0.345100  1
  N  N1450  1  0.598900  0.461200  0.654900  1
  N  N1451  1  0.098900  0.538800  0.845100  1
  N  N1452  1  0.098900  0.961200  0.154900  1
  N  N1453  1  0.401100  0.961200  0.654900  1
  N  N1454  1  0.401100  0.538800  0.345100  1
  N  N1455  1  0.901100  0.461200  0.154900  1
  N  N1456  1  0.901100  0.038800  0.845100  1
  N  N1457  1  0.613200  0.747500  0.061800  1
  N  N1458  1  0.613200  0.752500  0.938200  1
  N  N1459  1  0.113200  0.247500  0.561800  1
  N  N1460  1  0.113200  0.252500  0.438200  1
  N  N1461  1  0.386800  0.252500  0.938200  1
  N  N1462  1  0.386800  0.247500  0.061800  1
  N  N1463  1  0.886800  0.752500  0.438200  1
  N  N1464  1  0.886800  0.747500  0.561800  1
  N  N1465  1  0.535400  0.684900  0.019700  1
  N  N1466  1  0.535400  0.815100  0.980300  1
  N  N1467  1  0.035400  0.184900  0.519700  1
  N  N1468  1  0.035400  0.315100  0.480300  1
  N  N1469  1  0.464600  0.315100  0.980300  1
  N  N1470  1  0.464600  0.184900  0.019700  1
  N  N1471  1  0.964600  0.815100  0.480300  1
  N  N1472  1  0.964600  0.684900  0.519700  1
  N  N1473  1  0.551000  0.699000  0.979900  1
  N  N1474  1  0.551000  0.801000  0.020100  1
  N  N1475  1  0.051000  0.199000  0.479900  1
  N  N1476  1  0.051000  0.301000  0.520100  1
  N  N1477  1  0.449000  0.301000  0.020100  1
  N  N1478  1  0.449000  0.199000  0.979900  1
  N  N1479  1  0.949000  0.801000  0.520100  1
  N  N1480  1  0.949000  0.699000  0.479900  1
  N  N1481  1  0.100160  0.699980  0.957570  1.0
  N  N1482  1  0.100160  0.800020  0.042430  1.0
  N  N1483  1  0.600160  0.199980  0.457570  1.0
  N  N1484  1  0.600160  0.300020  0.542430  1.0
  N  N1485  1  0.899840  0.300020  0.042430  1.0
  N  N1486  1  0.899840  0.199980  0.957570  1.0
  N  N1487  1  0.399840  0.800020  0.542430  1.0
  N  N1488  1  0.399840  0.699980  0.457570  1.0
  N  N1489  1  0.111120  0.702440  0.910690  1.0
  N  N1490  1  0.111120  0.797560  0.089310  1.0
  N  N1491  1  0.611120  0.202440  0.410690  1.0
  N  N1492  1  0.611120  0.297560  0.589310  1.0
  N  N1493  1  0.888880  0.297560  0.089310  1.0
  N  N1494  1  0.888880  0.202440  0.910690  1.0
  N  N1495  1  0.388880  0.797560  0.589310  1.0
  N  N1496  1  0.388880  0.702440  0.410690  1.0
  N  N1497  1  0.032000  0.765920  0.941450  1.0
  N  N1498  1  0.032000  0.734080  0.058550  1.0
  N  N1499  1  0.532000  0.265920  0.441450  1.0
  N  N1500  1  0.532000  0.234080  0.558550  1.0
  N  N1501  1  0.968000  0.234080  0.058550  1.0
  N  N1502  1  0.968000  0.265920  0.941450  1.0
  N  N1503  1  0.468000  0.734080  0.558550  1.0
  N  N1504  1  0.468000  0.765920  0.441450  1.0
  N  N1505  1  0.963420  0.806090  0.023790  1.0
  N  N1506  1  0.963420  0.693910  0.976210  1.0
  N  N1507  1  0.463420  0.306090  0.523790  1.0
  N  N1508  1  0.463420  0.193910  0.476210  1.0
  N  N1509  1  0.036580  0.193910  0.976210  1.0
  N  N1510  1  0.036580  0.306090  0.023790  1.0
  N  N1511  1  0.536580  0.693910  0.476210  1.0
  N  N1512  1  0.536580  0.806090  0.523790  1.0
  N  N1513  1  0.892900  0.873440  0.061620  1.0
  N  N1514  1  0.892900  0.626560  0.938380  1.0
  N  N1515  1  0.392900  0.373440  0.561620  1.0
  N  N1516  1  0.392900  0.126560  0.438380  1.0
  N  N1517  1  0.107100  0.126560  0.938380  1.0
  N  N1518  1  0.107100  0.373440  0.061620  1.0
  N  N1519  1  0.607100  0.626560  0.438380  1.0
  N  N1520  1  0.607100  0.873440  0.561620  1.0
  N  N1521  1  0.835240  0.940030  0.039020  1.0
  N  N1522  1  0.835240  0.559970  0.960980  1.0
  N  N1523  1  0.335240  0.440030  0.539020  1.0
  N  N1524  1  0.335240  0.059970  0.460980  1.0
  N  N1525  1  0.164760  0.059970  0.960980  1.0
  N  N1526  1  0.164760  0.440030  0.039020  1.0
  N  N1527  1  0.664760  0.559970  0.460980  1.0
  N  N1528  1  0.664760  0.940030  0.539020  1.0
  N  N1529  1  0.759180  0.004720  0.078650  1.0
  N  N1530  1  0.759180  0.495280  0.921350  1.0
  N  N1531  1  0.259180  0.504720  0.578650  1.0
  N  N1532  1  0.259180  0.995280  0.421350  1.0
  N  N1533  1  0.240820  0.995280  0.921350  1.0
  N  N1534  1  0.240820  0.504720  0.078650  1.0
  N  N1535  1  0.740820  0.495280  0.421350  1.0
  N  N1536  1  0.740820  0.004720  0.578650  1.0
  N  N1537  1  0.758270  0.984990  0.115440  1.0
  N  N1538  1  0.758270  0.515010  0.884560  1.0
  N  N1539  1  0.258270  0.484990  0.615440  1.0
  N  N1540  1  0.258270  0.015010  0.384560  1.0
  N  N1541  1  0.241730  0.015010  0.884560  1.0
  N  N1542  1  0.241730  0.484990  0.115440  1.0
  N  N1543  1  0.741730  0.515010  0.384560  1.0
  N  N1544  1  0.741730  0.984990  0.615440  1.0
  N  N1545  1  0.891390  0.979220  0.143420  1.0
  N  N1546  1  0.891390  0.520780  0.856580  1.0
  N  N1547  1  0.391390  0.479220  0.643420  1.0
  N  N1548  1  0.391390  0.020780  0.356580  1.0
  N  N1549  1  0.108610  0.020780  0.856580  1.0
  N  N1550  1  0.108610  0.479220  0.143420  1.0
  N  N1551  1  0.608610  0.520780  0.356580  1.0
  N  N1552  1  0.608610  0.979220  0.643420  1.0
  N  N1553  1  0.892430  0.982620  0.193650  1.0
  N  N1554  1  0.892430  0.517380  0.806350  1.0
  N  N1555  1  0.392430  0.482620  0.693650  1.0
  N  N1556  1  0.392430  0.017380  0.306350  1.0
  N  N1557  1  0.107570  0.017380  0.806350  1.0
  N  N1558  1  0.107570  0.482620  0.193650  1.0
  N  N1559  1  0.607570  0.517380  0.306350  1.0
  N  N1560  1  0.607570  0.982620  0.693650  1.0
  N  N1561  1  0.813790  0.918580  0.161420  1.0
  N  N1562  1  0.813790  0.581420  0.838580  1.0
  N  N1563  1  0.313790  0.418580  0.661420  1.0
  N  N1564  1  0.313790  0.081420  0.338580  1.0
  N  N1565  1  0.186210  0.081420  0.838580  1.0
  N  N1566  1  0.186210  0.418580  0.161420  1.0
  N  N1567  1  0.686210  0.581420  0.338580  1.0
  N  N1568  1  0.686210  0.918580  0.661420  1.0
  N  N1569  1  0.753310  0.872650  0.076120  1.0
  N  N1570  1  0.753310  0.627350  0.923880  1.0
  N  N1571  1  0.253310  0.372650  0.576120  1.0
  N  N1572  1  0.253310  0.127350  0.423880  1.0
  N  N1573  1  0.246690  0.127350  0.923880  1.0
  N  N1574  1  0.246690  0.372650  0.076120  1.0
  N  N1575  1  0.746690  0.627350  0.423880  1.0
  N  N1576  1  0.746690  0.872650  0.576120  1.0
  N  N1577  1  0.684600  0.804450  0.038110  1.0
  N  N1578  1  0.684600  0.695550  0.961890  1.0
  N  N1579  1  0.184600  0.304450  0.538110  1.0
  N  N1580  1  0.184600  0.195550  0.461890  1.0
  N  N1581  1  0.315400  0.195550  0.961890  1.0
  N  N1582  1  0.315400  0.304450  0.038110  1.0
  N  N1583  1  0.815400  0.695550  0.461890  1.0
  N  N1584  1  0.815400  0.804450  0.538110  1.0
  N  N1585  1  0.622300  0.740400  0.065800  1.0
  N  N1586  1  0.622300  0.759600  0.934200  1.0
  N  N1587  1  0.122300  0.240400  0.565800  1.0
  N  N1588  1  0.122300  0.259600  0.434200  1.0
  N  N1589  1  0.377700  0.259600  0.934200  1.0
  N  N1590  1  0.377700  0.240400  0.065800  1.0
  N  N1591  1  0.877700  0.759600  0.434200  1.0
  N  N1592  1  0.877700  0.740400  0.565800  1.0
  N  N1593  1  0.544000  0.677800  0.026800  1.0
  N  N1594  1  0.544000  0.822200  0.973200  1.0
  N  N1595  1  0.044000  0.177800  0.526800  1.0
  N  N1596  1  0.044000  0.322200  0.473200  1.0
  N  N1597  1  0.456000  0.322200  0.973200  1.0
  N  N1598  1  0.456000  0.177800  0.026800  1.0
  N  N1599  1  0.956000  0.822200  0.473200  1.0
  N  N1600  1  0.956000  0.677800  0.526800  1.0
  N  N1601  1  0.548200  0.692600  0.987200  1.0
  N  N1602  1  0.548200  0.807400  0.012800  1.0
  N  N1603  1  0.048200  0.192600  0.487200  1.0
  N  N1604  1  0.048200  0.307400  0.512800  1.0
  N  N1605  1  0.451800  0.307400  0.012800  1.0
  N  N1606  1  0.451800  0.192600  0.987200  1.0
  N  N1607  1  0.951800  0.807400  0.512800  1.0
  N  N1608  1  0.951800  0.692600  0.487200  1.0
  O  O1609  1  0.549300  0.994800  0.058100  1
  O  O1610  1  0.549300  0.505200  0.941900  1
  O  O1611  1  0.049300  0.494800  0.558100  1
  O  O1612  1  0.049300  0.005200  0.441900  1
  O  O1613  1  0.450700  0.005200  0.941900  1
  O  O1614  1  0.450700  0.494800  0.058100  1
  O  O1615  1  0.950700  0.505200  0.441900  1
  O  O1616  1  0.950700  0.994800  0.558100  1
  O  O1617  1  0.555200  0.973000  0.120600  1
  O  O1618  1  0.555200  0.527000  0.879400  1
  O  O1619  1  0.055200  0.473000  0.620600  1
  O  O1620  1  0.055200  0.027000  0.379400  1
  O  O1621  1  0.444800  0.027000  0.879400  1
  O  O1622  1  0.444800  0.473000  0.120600  1
  O  O1623  1  0.944800  0.527000  0.379400  1
  O  O1624  1  0.944800  0.973000  0.620600  1
  O  O1625  1  0.585000  0.055610  0.312440  1
  O  O1626  1  0.585000  0.444390  0.687560  1
  O  O1627  1  0.085000  0.555610  0.812440  1
  O  O1628  1  0.085000  0.944390  0.187560  1
  O  O1629  1  0.415000  0.944390  0.687560  1
  O  O1630  1  0.415000  0.555610  0.312440  1
  O  O1631  1  0.915000  0.444390  0.187560  1
  O  O1632  1  0.915000  0.055610  0.812440  1
  O  O1633  1  0.573700  0.052880  0.386580  1
  O  O1634  1  0.573700  0.447120  0.613420  1
  O  O1635  1  0.073700  0.552880  0.886580  1
  O  O1636  1  0.073700  0.947120  0.113420  1
  O  O1637  1  0.426300  0.947120  0.613420  1
  O  O1638  1  0.426300  0.552880  0.386580  1
  O  O1639  1  0.926300  0.447120  0.113420  1
  O  O1640  1  0.926300  0.052880  0.886580  1
  O  O1641  1  0.345100  0.750000  0.000000  1
  O  O1642  1  0.845100  0.250000  0.500000  1
  O  O1643  1  0.654900  0.250000  0.000000  1
  O  O1644  1  0.154900  0.750000  0.500000  1
  F  F1645  1  0.369450  0.966360  0.058030  1
  F  F1646  1  0.369450  0.533640  0.941970  1
  F  F1647  1  0.869450  0.466360  0.558030  1
  F  F1648  1  0.869450  0.033640  0.441970  1
  F  F1649  1  0.630550  0.033640  0.941970  1
  F  F1650  1  0.630550  0.466360  0.058030  1
  F  F1651  1  0.130550  0.533640  0.441970  1
  F  F1652  1  0.130550  0.966360  0.558030  1
  F  F1653  1  0.264700  0.945410  0.064700  1
  F  F1654  1  0.264700  0.554590  0.935300  1
  F  F1655  1  0.764700  0.445410  0.564700  1
  F  F1656  1  0.764700  0.054590  0.435300  1
  F  F1657  1  0.735300  0.054590  0.935300  1
  F  F1658  1  0.735300  0.445410  0.064700  1
  F  F1659  1  0.235300  0.554590  0.435300  1
  F  F1660  1  0.235300  0.945410  0.564700  1
  F  F1661  1  0.311600  0.016640  0.126940  1
  F  F1662  1  0.311600  0.483360  0.873060  1
  F  F1663  1  0.811600  0.516640  0.626940  1
  F  F1664  1  0.811600  0.983360  0.373060  1
  F  F1665  1  0.688400  0.983360  0.873060  1
  F  F1666  1  0.688400  0.516640  0.126940  1
  F  F1667  1  0.188400  0.483360  0.373060  1
  F  F1668  1  0.188400  0.016640  0.626940  1
  F  F1669  1  0.343100  0.939700  0.118500  1
  F  F1670  1  0.343100  0.560300  0.881500  1
  F  F1671  1  0.843100  0.439700  0.618500  1
  F  F1672  1  0.843100  0.060300  0.381500  1
  F  F1673  1  0.656900  0.060300  0.881500  1
  F  F1674  1  0.656900  0.439700  0.118500  1
  F  F1675  1  0.156900  0.560300  0.381500  1
  F  F1676  1  0.156900  0.939700  0.618500  1
  F  F1677  1  0.583600  0.141200  0.222400  1
  F  F1678  1  0.583600  0.358800  0.777600  1
  F  F1679  1  0.083600  0.641200  0.722400  1
  F  F1680  1  0.083600  0.858800  0.277600  1
  F  F1681  1  0.416400  0.858800  0.777600  1
  F  F1682  1  0.416400  0.641200  0.222400  1
  F  F1683  1  0.916400  0.358800  0.277600  1
  F  F1684  1  0.916400  0.141200  0.722400  1
  F  F1685  1  0.600200  0.163000  0.157200  1
  F  F1686  1  0.600200  0.337000  0.842800  1
  F  F1687  1  0.100200  0.663000  0.657200  1
  F  F1688  1  0.100200  0.837000  0.342800  1
  F  F1689  1  0.399800  0.837000  0.842800  1
  F  F1690  1  0.399800  0.663000  0.157200  1
  F  F1691  1  0.899800  0.337000  0.342800  1
  F  F1692  1  0.899800  0.163000  0.657200  1
  F  F1693  1  0.511000  0.193100  0.207800  1
  F  F1694  1  0.511000  0.306900  0.792200  1
  F  F1695  1  0.011000  0.693100  0.707800  1
  F  F1696  1  0.011000  0.806900  0.292200  1
  F  F1697  1  0.489000  0.806900  0.792200  1
  F  F1698  1  0.489000  0.693100  0.207800  1
  F  F1699  1  0.989000  0.306900  0.292200  1
  F  F1700  1  0.989000  0.193100  0.707800  1
  F  F1701  1  0.610300  0.222560  0.240860  1
  F  F1702  1  0.610300  0.277440  0.759140  1
  F  F1703  1  0.110300  0.722560  0.740860  1
  F  F1704  1  0.110300  0.777440  0.259140  1
  F  F1705  1  0.389700  0.777440  0.759140  1
  F  F1706  1  0.389700  0.722560  0.240860  1
  F  F1707  1  0.889700  0.277440  0.259140  1
  F  F1708  1  0.889700  0.222560  0.740860  1
  F  F1709  1  0.591100  0.865300  0.256300  1
  F  F1710  1  0.591100  0.634700  0.743700  1
  F  F1711  1  0.091100  0.365300  0.756300  1
  F  F1712  1  0.091100  0.134700  0.243700  1
  F  F1713  1  0.408900  0.134700  0.743700  1
  F  F1714  1  0.408900  0.365300  0.256300  1
  F  F1715  1  0.908900  0.634700  0.243700  1
  F  F1716  1  0.908900  0.865300  0.756300  1
  F  F1717  1  0.567300  0.877500  0.335700  1
  F  F1718  1  0.567300  0.622500  0.664300  1
  F  F1719  1  0.067300  0.377500  0.835700  1
  F  F1720  1  0.067300  0.122500  0.164300  1
  F  F1721  1  0.432700  0.122500  0.664300  1
  F  F1722  1  0.432700  0.377500  0.335700  1
  F  F1723  1  0.932700  0.622500  0.164300  1
  F  F1724  1  0.932700  0.877500  0.835700  1
  F  F1725  1  0.626900  0.808100  0.284800  1
  F  F1726  1  0.626900  0.691900  0.715200  1
  F  F1727  1  0.126900  0.308100  0.784800  1
  F  F1728  1  0.126900  0.191900  0.215200  1
  F  F1729  1  0.373100  0.191900  0.715200  1
  F  F1730  1  0.373100  0.308100  0.284800  1
  F  F1731  1  0.873100  0.691900  0.215200  1
  F  F1732  1  0.873100  0.808100  0.784800  1
  F  F1733  1  0.670400  0.885500  0.318500  1
  F  F1734  1  0.670400  0.614500  0.681500  1
  F  F1735  1  0.170400  0.385500  0.818500  1
  F  F1736  1  0.170400  0.114500  0.181500  1
  F  F1737  1  0.329600  0.114500  0.681500  1
  F  F1738  1  0.329600  0.385500  0.318500  1
  F  F1739  1  0.829600  0.614500  0.181500  1
  F  F1740  1  0.829600  0.885500  0.818500  1
  F  F1741  1  0.377500  0.976300  0.104400  1
  F  F1742  1  0.377500  0.523700  0.895600  1
  F  F1743  1  0.877500  0.476300  0.604400  1
  F  F1744  1  0.877500  0.023700  0.395600  1
  F  F1745  1  0.622500  0.023700  0.895600  1
  F  F1746  1  0.622500  0.476300  0.104400  1
  F  F1747  1  0.122500  0.523700  0.395600  1
  F  F1748  1  0.122500  0.976300  0.604400  1
  F  F1749  1  0.311300  0.914900  0.052000  1
  F  F1750  1  0.311300  0.585100  0.948000  1
  F  F1751  1  0.811300  0.414900  0.552000  1
  F  F1752  1  0.811300  0.085100  0.448000  1
  F  F1753  1  0.688700  0.085100  0.948000  1
  F  F1754  1  0.688700  0.414900  0.052000  1
  F  F1755  1  0.188700  0.585100  0.448000  1
  F  F1756  1  0.188700  0.914900  0.552000  1
  F  F1757  1  0.268900  0.993000  0.102800  1
  F  F1758  1  0.268900  0.507000  0.897200  1
  F  F1759  1  0.768900  0.493000  0.602800  1
  F  F1760  1  0.768900  0.007000  0.397200  1
  F  F1761  1  0.731100  0.007000  0.897200  1
  F  F1762  1  0.731100  0.493000  0.102800  1
  F  F1763  1  0.231100  0.507000  0.397200  1
  F  F1764  1  0.231100  0.993000  0.602800  1
  F  F1765  1  0.307000  0.943000  0.135300  1
  F  F1766  1  0.307000  0.557000  0.864700  1
  F  F1767  1  0.807000  0.443000  0.635300  1
  F  F1768  1  0.807000  0.057000  0.364700  1
  F  F1769  1  0.693000  0.057000  0.864700  1
  F  F1770  1  0.693000  0.443000  0.135300  1
  F  F1771  1  0.193000  0.557000  0.364700  1
  F  F1772  1  0.193000  0.943000  0.635300  1
  F  F1773  1  0.518300  0.156900  0.184600  1
  F  F1774  1  0.518300  0.343100  0.815400  1
  F  F1775  1  0.018300  0.656900  0.684600  1
  F  F1776  1  0.018300  0.843100  0.315400  1
  F  F1777  1  0.481700  0.843100  0.815400  1
  F  F1778  1  0.481700  0.656900  0.184600  1
  F  F1779  1  0.981700  0.343100  0.315400  1
  F  F1780  1  0.981700  0.156900  0.684600  1
  F  F1781  1  0.619400  0.179800  0.165200  1
  F  F1782  1  0.619400  0.320200  0.834800  1
  F  F1783  1  0.119400  0.679800  0.665200  1
  F  F1784  1  0.119400  0.820200  0.334800  1
  F  F1785  1  0.380600  0.820200  0.834800  1
  F  F1786  1  0.380600  0.679800  0.165200  1
  F  F1787  1  0.880600  0.320200  0.334800  1
  F  F1788  1  0.880600  0.179800  0.665200  1
  F  F1789  1  0.560100  0.230000  0.233200  1
  F  F1790  1  0.560100  0.270000  0.766800  1
  F  F1791  1  0.060100  0.730000  0.733200  1
  F  F1792  1  0.060100  0.770000  0.266800  1
  F  F1793  1  0.439900  0.770000  0.766800  1
  F  F1794  1  0.439900  0.730000  0.233200  1
  F  F1795  1  0.939900  0.270000  0.266800  1
  F  F1796  1  0.939900  0.230000  0.733200  1
  F  F1797  1  0.605500  0.162500  0.232000  1
  F  F1798  1  0.605500  0.337500  0.768000  1
  F  F1799  1  0.105500  0.662500  0.732000  1
  F  F1800  1  0.105500  0.837500  0.268000  1
  F  F1801  1  0.394500  0.837500  0.768000  1
  F  F1802  1  0.394500  0.662500  0.232000  1
  F  F1803  1  0.894500  0.337500  0.268000  1
  F  F1804  1  0.894500  0.162500  0.732000  1
  F  F1805  1  0.596400  0.873200  0.257500  1
  F  F1806  1  0.596400  0.626800  0.742500  1
  F  F1807  1  0.096400  0.373200  0.757500  1
  F  F1808  1  0.096400  0.126800  0.242500  1
  F  F1809  1  0.403600  0.126800  0.742500  1
  F  F1810  1  0.403600  0.373200  0.257500  1
  F  F1811  1  0.903600  0.626800  0.242500  1
  F  F1812  1  0.903600  0.873200  0.757500  1
  F  F1813  1  0.590800  0.888700  0.340900  1
  F  F1814  1  0.590800  0.611300  0.659100  1
  F  F1815  1  0.090800  0.388700  0.840900  1
  F  F1816  1  0.090800  0.111300  0.159100  1
  F  F1817  1  0.409200  0.111300  0.659100  1
  F  F1818  1  0.409200  0.388700  0.340900  1
  F  F1819  1  0.909200  0.611300  0.159100  1
  F  F1820  1  0.909200  0.888700  0.840900  1
  F  F1821  1  0.579000  0.808400  0.281000  1
  F  F1822  1  0.579000  0.691600  0.719000  1
  F  F1823  1  0.079000  0.308400  0.781000  1
  F  F1824  1  0.079000  0.191600  0.219000  1
  F  F1825  1  0.421000  0.191600  0.719000  1
  F  F1826  1  0.421000  0.308400  0.281000  1
  F  F1827  1  0.921000  0.691600  0.219000  1
  F  F1828  1  0.921000  0.808400  0.781000  1
  F  F1829  1  0.675500  0.846000  0.289300  1
  F  F1830  1  0.675500  0.654000  0.710700  1
  F  F1831  1  0.175500  0.346000  0.789300  1
  F  F1832  1  0.175500  0.154000  0.210700  1
  F  F1833  1  0.324500  0.154000  0.710700  1
  F  F1834  1  0.324500  0.346000  0.289300  1
  F  F1835  1  0.824500  0.654000  0.210700  1
  F  F1836  1  0.824500  0.846000  0.789300  1
