
#######################################################################
#
#                 Cambridge Crystallographic Data Centre
#                                CCDC 
#
#######################################################################
#
# If this CIF has been generated from an entry in the Cambridge 
# Structural Database, then it will include bibliographic, chemical, 
# crystal, experimental, refinement or atomic coordinate data resulting 
# from the CCDC's data processing and validation procedures.
#
#######################################################################

data_SIZKET01
_chemical_formula_moiety         
'C116 H100 Fe4 N32 6+,6(B1 F4 1-),6(C1 H3 N1 O2),C4 H10 O1,4(H2 O1)'
_chemical_name_systematic        
'tetrakis(\m~2~-2-Phenyl-4,5-bis(6-(3,5-dimethyl-1H-pyrazol-1-yl)pyridin-2-yl)imidazolato)-di-iron(ii)-di-iron(iii) hexakis(tetrafluoroborate) diethyl ether nitromethane solvate tetrahydrate'
_symmetry_cell_setting           monoclinic
_symmetry_space_group_name_H-M   'C 2/c'
_symmetry_Int_Tables_number      15
_space_group_name_Hall           '-C 2yn'
loop_
_symmetry_equiv_pos_site_id
_symmetry_equiv_pos_as_xyz
1 x,y,z
2 -x,y,1/2-z
3 1/2+x,1/2+y,z
4 1/2-x,1/2+y,1/2-z
5 -x,-y,-z
6 x,-y,1/2+z
7 1/2-x,1/2-y,-z
8 1/2+x,1/2-y,1/2+z
_cell_length_a                   30.44(3)
_cell_length_b                   20.141(18)
_cell_length_c                   28.47(2)
_cell_angle_alpha                90
_cell_angle_beta                 121.620(11)
_cell_angle_gamma                90
_cell_volume                     14863.5
_exptl_crystal_colour            'dark red'
_exptl_crystal_description       blocks
_cell_formula_units_Z            4
loop_
_atom_site_label
_atom_site_type_symbol
_atom_site_fract_x
_atom_site_fract_y
_atom_site_fract_z
B1 B 0.0921(2) 0.6785(3) 0.1255(3)
F1 F 0.05803(15) 0.63055(17) 0.09167(16)
F2 F 0.0647(2) 0.7353(2) 0.11929(16)
F3 F 0.12694(16) 0.6884(4) 0.1103(2)
F4 F 0.1185(2) 0.6569(3) 0.1788(2)
B3 B 0.2059(2) 0.4236(4) 0.0258(3)
F9 F 0.2224(3) 0.4164(3) 0.0812(2)
F10 F 0.1572(2) 0.3998(4) -0.0058(2)
F11 F 0.2078(4) 0.4890(3) 0.0147(3)
F12 F 0.24086(17) 0.3897(5) 0.0183(3)
B6 B 0.2980(5) 0.3874(6) 0.4400(5)
F21 F 0.2563(4) 0.4089(7) 0.3910(5)
F22 F 0.3357(5) 0.4327(7) 0.4582(5)
F23 F 0.2848(4) 0.3731(9) 0.4767(4)
F24 F 0.3185(7) 0.3296(7) 0.4330(4)
O1 O 0.0581(2) 0.4507(3) 0.0633(2)
O2 O 0.1206(2) 0.4448(3) 0.1476(2)
N20 N 0.1009(2) 0.4662(3) 0.1001(3)
C81 C 0.1325(3) 0.5090(4) 0.0865(3)
H71 H 0.1203 0.5545 0.0818
H72 H 0.1293 0.4936 0.0526
H73 H 0.1683 0.5070 0.1162
O3 O 0.31244(19) 0.4150(2) 0.25683(19)
O4 O 0.38658(17) 0.4263(2) 0.3337(2)
N21 N 0.3451(2) 0.4011(3) 0.3063(2)
C82 C 0.3290(2) 0.3481(3) 0.3293(2)
H74 H 0.3398 0.3589 0.3671
H75 H 0.3447 0.3065 0.3286
H76 H 0.2917 0.3437 0.3075
O5 O 0.0000 -0.3451(12) 0.2500
C83 C 0.0331(8) -0.3115(13) 0.3025(8)
H77 H 0.0447 -0.2690 0.2960
H78 H 0.0135 -0.3024 0.3203
C84 C 0.0772(11) -0.3525(17) 0.3381(8)
H79 H 0.1000 -0.3287 0.3720
H80 H 0.0955 -0.3632 0.3196
H81 H 0.0656 -0.3932 0.3465
C83A C -0.0331(8) -0.3115(13) 0.1975(8)
H77A H -0.0447 -0.2690 0.2040
H78A H -0.0135 -0.3024 0.1797
C84A C -0.0772(11) -0.3525(17) 0.1619(8)
H79A H -0.1000 -0.3287 0.1280
H80A H -0.0955 -0.3632 0.1804
H81A H -0.0656 -0.3932 0.1535
Fe1 Fe 0.0000 -0.03071(3) 0.2500
Fe2 Fe 0.09908(2) 0.17596(2) 0.17177(2)
Fe3 Fe 0.0000 0.38115(3) 0.2500
N1 N -0.04243(8) -0.10016(11) 0.25759(9)
N2 N -0.08931(9) -0.11112(11) 0.20825(9)
N3 N -0.05855(8) -0.03200(11) 0.17553(8)
N4 N 0.02379(8) 0.03658(11) 0.21770(8)
N5 N 0.06162(8) 0.10710(10) 0.18818(8)
N6 N 0.03902(8) 0.16476(11) 0.09899(8)
N7 N 0.07865(9) 0.24082(11) 0.07393(9)
N8 N 0.11544(9) 0.24173(11) 0.13045(9)
N9 N 0.14342(8) 0.10861(11) 0.16420(9)
N10 N 0.19365(9) 0.10757(12) 0.21103(10)
N11 N 0.16142(8) 0.18621(10) 0.24284(8)
N12 N 0.07612(8) 0.24669(10) 0.20347(8)
N13 N 0.03811(8) 0.31540(11) 0.23366(9)
C1 C -0.04092(12) -0.14447(16) 0.29368(13)
C2 C -0.08592(13) -0.18368(17) 0.26763(14)
H1 H -0.0938 -0.2183 0.2841
C3 C -0.11609(13) -0.16263(16) 0.21425(14)
C4 C -0.09881(10) -0.07179(14) 0.16270(11)
C5 C -0.14348(12) -0.07213(16) 0.11067(12)
H2 H -0.1713 -0.1004 0.1021
C6 C -0.14522(12) -0.02832(18) 0.07150(13)
H3 H -0.1752 -0.0259 0.0362
C7 C -0.10288(11) 0.01175(17) 0.08445(12)
H4 H -0.1041 0.0406 0.0579
C8 C -0.05905(10) 0.00860(14) 0.13684(11)
C9 C -0.01016(10) 0.04610(13) 0.16065(10)
C10 C 0.06634(10) 0.07437(12) 0.23196(10)
C11 C 0.01322(10) 0.08926(13) 0.14236(10)
C12 C 0.00219(11) 0.11884(14) 0.08992(11)
C13 C -0.03689(13) 0.10421(18) 0.03650(12)
H5 H -0.0611 0.0709 0.0299
C14 C -0.04006(14) 0.1387(2) -0.00693(13)
H6 H -0.0671 0.1296 -0.0431
C15 C -0.00361(13) 0.18660(17) 0.00225(12)
H7 H -0.0058 0.2109 -0.0271
C16 C 0.03619(11) 0.19741(15) 0.05626(11)
C17 C 0.09244(13) 0.28355(16) 0.04581(13)
C18 C 0.13842(13) 0.31164(16) 0.08507(14)
H8 H 0.1577 0.3428 0.0787
C19 C 0.15148(11) 0.28518(15) 0.13670(12)
C20 C 0.00245(14) -0.1475(2) 0.35282(14)
H9 H 0.0055 -0.1050 0.3704
H10 H 0.0344 -0.1573 0.3545
H11 H -0.0045 -0.1820 0.3718
C21 C -0.16878(14) -0.1874(2) 0.16946(15)
H12 H -0.1675 -0.2003 0.1374
H13 H -0.1940 -0.1523 0.1594
H14 H -0.1785 -0.2254 0.1830
C22 C 0.06184(15) 0.2955(2) -0.01544(14)
H15 H 0.0784 0.3298 -0.0246
H16 H 0.0272 0.3096 -0.0266
H17 H 0.0602 0.2548 -0.0345
C23 C 0.19824(13) 0.30232(19) 0.19160(14)
H18 H 0.2221 0.2652 0.2047
H19 H 0.1879 0.3116 0.2179
H20 H 0.2149 0.3412 0.1877
C24 C 0.14327(13) 0.06290(15) 0.13054(13)
C25 C 0.19240(13) 0.03203(18) 0.15470(15)
H21 H 0.2019 -0.0014 0.1386
C26 C 0.22339(13) 0.05971(17) 0.20551(16)
C27 C 0.20453(10) 0.15300(14) 0.25368(11)
C28 C 0.25243(11) 0.16531(15) 0.29995(12)
H22 H 0.2819 0.1418 0.3067
C29 C 0.25522(11) 0.21404(17) 0.33622(12)
H23 H 0.2873 0.2241 0.3679
C30 C 0.21139(11) 0.24801(16) 0.32629(12)
H24 H 0.2137 0.2810 0.3508
C31 C 0.16398(10) 0.23244(13) 0.27946(11)
C32 C 0.11253(10) 0.26265(13) 0.25837(11)
C33 C 0.03278(10) 0.28077(13) 0.19019(11)
C34 C 0.08945(10) 0.30516(14) 0.27757(11)
C35 C 0.0722(6) 0.4183(7) 0.3660(6)
C36 C -0.0512(5) 0.4899(8) 0.2879(6)
C37 C 0.09676(14) 0.04743(18) 0.07473(13)
H25 H 0.0875 0.0863 0.0512
H26 H 0.0681 0.0352 0.0788
H27 H 0.1047 0.0109 0.0582
C38 C 0.27803(14) 0.0421(2) 0.24953(19)
H28 H 0.2797 0.0335 0.2840
H29 H 0.3008 0.0787 0.2544
H30 H 0.2887 0.0028 0.2384
C39 C -0.1017(7) 0.4995(9) 0.2326(7)
H31 H -0.1244 0.4621 0.2258
H32 H -0.0944 0.5023 0.2033
H33 H -0.1183 0.5401 0.2336
N14 N 0.0658(5) 0.3777(7) 0.3254(5)
N15 N 0.0268(6) 0.4560(7) 0.3490(6)
N16 N -0.0128(7) 0.4518(10) 0.2946(6)
C40 C 0.1062(8) 0.3363(8) 0.3322(8)
C41 C 0.1575(5) 0.3778(7) 0.4237(5)
H34 H 0.1890 0.3781 0.4577
C42 C 0.1188(5) 0.4210(6) 0.4158(5)
H35 H 0.1240 0.4512 0.4434
C43 C 0.1109(3) 0.0819(5) 0.2894(3)
C44 C 0.1082(3) 0.1264(3) 0.3259(2)
H36 H 0.0775 0.1495 0.3151
C45 C 0.1516(3) 0.1358(4) 0.3780(2)
H37 H 0.1499 0.1654 0.4025
C46 C 0.1960(3) 0.1036(5) 0.3943(3)
H38 H 0.2247 0.1119 0.4297
C47 C 0.2006(2) 0.0595(4) 0.3612(3)
H39 H 0.2318 0.0366 0.3740
C48 C 0.1572(2) 0.0480(3) 0.3061(2)
H40 H 0.1598 0.0186 0.2820
C49 C 0.1506(6) 0.3336(7) 0.3821(6)
H41 H 0.1764 0.3026 0.3888
C50 C 0.0142(6) 0.5012(7) 0.3780(7)
C51 C -0.0340(6) 0.5214(7) 0.3394(7)
H42 H -0.0535 0.5521 0.3459
C52 C -0.0109(6) 0.2865(9) 0.1310(5)
C53 C -0.0560(3) 0.2517(4) 0.1087(3)
H43 H -0.0618 0.2234 0.1311
C54 C -0.0944(3) 0.2578(5) 0.0517(3)
H44 H -0.1251 0.2332 0.0361
C55 C -0.0855(3) 0.3004(6) 0.0203(3)
H45 H -0.1107 0.3050 -0.0173
C56 C -0.0399(3) 0.3375(5) 0.0425(3)
H46 H -0.0347 0.3662 0.0198
C57 C -0.0030(3) 0.3316(4) 0.0972(3)
H47 H 0.0274 0.3570 0.1126
C58 C 0.0469(8) 0.5165(9) 0.4370(7)
H48 H 0.0307 0.5511 0.4466
H49 H 0.0804 0.5317 0.4450
H50 H 0.0512 0.4770 0.4584
Fe2A Fe -0.09908(2) 0.17596(2) 0.32823(2)
N1A N 0.04243(8) -0.10016(11) 0.24241(9)
N2A N 0.08931(9) -0.11112(11) 0.29175(9)
N3A N 0.05855(8) -0.03200(11) 0.32447(8)
N4A N -0.02379(8) 0.03658(11) 0.28230(8)
N5A N -0.06162(8) 0.10710(10) 0.31182(8)
N6A N -0.03902(8) 0.16476(11) 0.40101(8)
N7A N -0.07865(9) 0.24082(11) 0.42607(9)
N8A N -0.11544(9) 0.24173(11) 0.36955(9)
N9A N -0.14342(8) 0.10861(11) 0.33580(9)
N10A N -0.19365(9) 0.10757(12) 0.28897(10)
N11A N -0.16142(8) 0.18621(10) 0.25716(8)
N12A N -0.07612(8) 0.24669(10) 0.29653(8)
N13A N -0.03811(8) 0.31540(11) 0.26634(9)
C1A C 0.04092(12) -0.14447(16) 0.20632(13)
C2A C 0.08592(13) -0.18368(17) 0.23237(14)
H1A H 0.0938 -0.2183 0.2159
C3A C 0.11609(13) -0.16263(16) 0.28575(14)
C4A C 0.09881(10) -0.07179(14) 0.33730(11)
C5A C 0.14348(12) -0.07213(16) 0.38933(12)
H2A H 0.1713 -0.1004 0.3979
C6A C 0.14522(12) -0.02832(18) 0.42850(13)
H3A H 0.1752 -0.0259 0.4638
C7A C 0.10288(11) 0.01175(17) 0.41555(12)
H4A H 0.1041 0.0406 0.4421
C8A C 0.05905(10) 0.00860(14) 0.36316(11)
C9A C 0.01016(10) 0.04610(13) 0.33935(10)
C10A C -0.06634(10) 0.07437(12) 0.26804(10)
C11A C -0.01322(10) 0.08926(13) 0.35764(10)
C12A C -0.00219(11) 0.11884(14) 0.41008(11)
C13A C 0.03689(13) 0.10421(18) 0.46350(12)
H5A H 0.0611 0.0709 0.4701
C14A C 0.04006(14) 0.1387(2) 0.50693(13)
H6A H 0.0671 0.1296 0.5431
C15A C 0.00361(13) 0.18660(17) 0.49775(12)
H7A H 0.0058 0.2109 0.5271
C16A C -0.03619(11) 0.19741(15) 0.44374(11)
C17A C -0.09244(13) 0.28355(16) 0.45419(13)
C18A C -0.13842(13) 0.31164(16) 0.41493(14)
H8A H -0.1577 0.3428 0.4213
C19A C -0.15148(11) 0.28518(15) 0.36330(12)
C20A C -0.00245(14) -0.1475(2) 0.14718(14)
H9A H -0.0055 -0.1050 0.1296
H10A H -0.0344 -0.1573 0.1455
H11A H 0.0045 -0.1820 0.1282
C21A C 0.16878(14) -0.1874(2) 0.33054(15)
H12A H 0.1675 -0.2003 0.3626
H13A H 0.1940 -0.1523 0.3406
H14A H 0.1785 -0.2254 0.3170
C22A C -0.06184(15) 0.2955(2) 0.51544(14)
H15A H -0.0784 0.3298 0.5246
H16A H -0.0272 0.3096 0.5266
H17A H -0.0602 0.2548 0.5345
C23A C -0.19824(13) 0.30232(19) 0.30840(14)
H18A H -0.2221 0.2652 0.2953
H19A H -0.1879 0.3116 0.2821
H20A H -0.2149 0.3412 0.3123
C24A C -0.14327(13) 0.06290(15) 0.36946(13)
C25A C -0.19240(13) 0.03203(18) 0.34530(15)
H21A H -0.2019 -0.0014 0.3614
C26A C -0.22339(13) 0.05971(17) 0.29449(16)
C27A C -0.20453(10) 0.15300(14) 0.24632(11)
C28A C -0.25243(11) 0.16531(15) 0.20005(12)
H22A H -0.2819 0.1418 0.1933
C29A C -0.25522(11) 0.21404(17) 0.16378(12)
H23A H -0.2873 0.2241 0.1321
C30A C -0.21139(11) 0.24801(16) 0.17371(12)
H24A H -0.2137 0.2810 0.1492
C31A C -0.16398(10) 0.23244(13) 0.22054(11)
C32A C -0.11253(10) 0.26265(13) 0.24163(11)
C33A C -0.03278(10) 0.28077(13) 0.30981(11)
C34A C -0.08945(10) 0.30516(14) 0.22243(11)
C35A C -0.0722(6) 0.4183(7) 0.1340(6)
C36A C 0.0512(5) 0.4899(8) 0.2121(6)
C37A C -0.09676(14) 0.04743(18) 0.42527(13)
H25A H -0.0875 0.0863 0.4488
H26A H -0.0681 0.0352 0.4212
H27A H -0.1047 0.0109 0.4418
C38A C -0.27803(14) 0.0421(2) 0.25047(19)
H28A H -0.2797 0.0335 0.2160
H29A H -0.3008 0.0787 0.2456
H30A H -0.2887 0.0028 0.2616
C39A C 0.1017(7) 0.4995(9) 0.2674(7)
H31A H 0.1244 0.4621 0.2742
H32A H 0.0944 0.5023 0.2967
H33A H 0.1183 0.5401 0.2664
N14A N -0.0658(5) 0.3777(7) 0.1746(5)
N15A N -0.0268(6) 0.4560(7) 0.1510(6)
N16A N 0.0128(7) 0.4518(10) 0.2054(6)
C40A C -0.1062(8) 0.3363(8) 0.1678(8)
C41A C -0.1575(5) 0.3778(7) 0.0763(5)
H34A H -0.1890 0.3781 0.0423
C42A C -0.1188(5) 0.4210(6) 0.0842(5)
H35A H -0.1240 0.4512 0.0566
C43A C -0.1109(3) 0.0819(5) 0.2106(3)
C44A C -0.1082(3) 0.1264(3) 0.1741(2)
H36A H -0.0775 0.1495 0.1849
C45A C -0.1516(3) 0.1358(4) 0.1220(2)
H37A H -0.1499 0.1654 0.0975
C46A C -0.1960(3) 0.1036(5) 0.1057(3)
H38A H -0.2247 0.1119 0.0703
C47A C -0.2006(2) 0.0595(4) 0.1388(3)
H39A H -0.2318 0.0366 0.1260
C48A C -0.1572(2) 0.0480(3) 0.1939(2)
H40A H -0.1598 0.0186 0.2180
C49A C -0.1506(6) 0.3336(7) 0.1179(6)
H41A H -0.1764 0.3026 0.1112
C50A C -0.0142(6) 0.5012(7) 0.1220(7)
C51A C 0.0340(6) 0.5214(7) 0.1606(7)
H42A H 0.0535 0.5521 0.1541
C52A C 0.0109(6) 0.2865(9) 0.3690(5)
C53A C 0.0560(3) 0.2517(4) 0.3913(3)
H43A H 0.0618 0.2234 0.3689
C54A C 0.0944(3) 0.2578(5) 0.4483(3)
H44A H 0.1251 0.2332 0.4639
C55A C 0.0855(3) 0.3004(6) 0.4797(3)
H45A H 0.1107 0.3050 0.5173
C56A C 0.0399(3) 0.3375(5) 0.4575(3)
H46A H 0.0347 0.3662 0.4802
C57A C 0.0030(3) 0.3316(4) 0.4028(3)
H47A H -0.0274 0.3570 0.3874
C58A C -0.0469(8) 0.5165(9) 0.0630(7)
H48A H -0.0307 0.5511 0.0534
H49A H -0.0804 0.5317 0.0550
H50A H -0.0512 0.4770 0.0416
N17? N 0.0618(6) 0.3868(7) 0.3143(5)
N18? N 0.0197(6) 0.4646(8) 0.3348(6)
N19? N -0.0201(6) 0.4490(10) 0.2809(6)
C59? C 0.1177(9) 0.0723(16) 0.2847(9)
C60? C 0.1278(6) 0.1091(9) 0.3314(6)
H51? H 0.1010 0.1340 0.3300
C61? C 0.1767(8) 0.1095(12) 0.3798(8)
H52? H 0.1835 0.1376 0.4093
C62? C 0.2126(7) 0.0705(12) 0.3835(7)
H53? H 0.2455 0.0710 0.4157
C63? C 0.2028(5) 0.0279(9) 0.3401(7)
H54? H 0.2291 -0.0013 0.3455
C64? C 0.1548(6) 0.0264(9) 0.2879(7)
H55? H 0.1486 -0.0020 0.2588
C65? C 0.1022(7) 0.3490(8) 0.3248(7)
C66? C 0.1507(6) 0.3544(7) 0.3753(6)
H56? H 0.1788 0.3275 0.3825
C67? C 0.1551(5) 0.4016(7) 0.4144(5)
H57? H 0.1866 0.4071 0.4479
C68? C 0.1116(5) 0.4407(7) 0.4025(6)
H58? H 0.1136 0.4726 0.4276
C69? C 0.0044(6) 0.5089(7) 0.3595(6)
C70? C -0.0461(5) 0.5249(7) 0.3190(7)
H59? H -0.0669 0.5557 0.3233
C71? C -0.012(2) 0.282(3) 0.1366(18)
C72? C -0.0568(8) 0.2368(11) 0.1251(11)
H60? H -0.0580 0.2129 0.1528
C73? C -0.0973(7) 0.2340(11) 0.0671(10)
H61? H -0.1254 0.2054 0.0566
C74? C -0.0964(9) 0.2727(12) 0.0251(11)
H62? H -0.1245 0.2697 -0.0114
C75? C -0.0586(10) 0.3113(12) 0.0357(9)
H63? H -0.0589 0.3382 0.0086
C76? C -0.0157(9) 0.3105(12) 0.0919(10)
H64? H 0.0141 0.3329 0.0985
C77? C 0.0379(7) 0.5341(10) 0.4192(7)
H65? H 0.0174 0.5625 0.4279
H66? H 0.0669 0.5590 0.4232
H67? H 0.0506 0.4965 0.4443
C78? C 0.0662(6) 0.4302(8) 0.3528(6)
C79? C -0.0616(7) 0.4883(8) 0.2703(7)
C80? C -0.1135(8) 0.4838(11) 0.2193(9)
H68? H -0.1334 0.4495 0.2237
H69? H -0.1098 0.4729 0.1883
H70? H -0.1311 0.5261 0.2126
B2? B 0.0967(7) 0.6853(8) 0.1392(8)
F5? F 0.1044(10) 0.6225(6) 0.1281(11)
F6? F 0.0520(4) 0.6887(9) 0.1371(7)
F7? F 0.1028(8) 0.7311(9) 0.1098(7)
F8? F 0.1353(5) 0.6930(9) 0.1923(5)
B4? B 0.2013(8) 0.4228(12) 0.0195(10)
F13? F 0.1846(9) 0.4817(16) 0.0277(10)
F14? F 0.1652(10) 0.3806(15) -0.0146(13)
F15? F 0.2332(7) 0.4399(17) 0.0032(8)
F16? F 0.2320(10) 0.3945(16) 0.0695(11)
B5? B 0.2932(4) 0.3908(6) 0.4394(4)
F17? F 0.2575(4) 0.4036(5) 0.3843(4)
F18? F 0.3409(3) 0.4092(7) 0.4522(5)
F19? F 0.2810(4) 0.4210(10) 0.4726(6)
F20? F 0.2893(5) 0.3245(5) 0.4433(5)
C85? C 0.0511(9) -0.361(2) 0.2962(7)
H82? H 0.0555 -0.4091 0.3027
H83? H 0.0781 -0.3442 0.2904
C86? C 0.0513(13) -0.3269(15) 0.3409(9)
H84? H 0.0708 -0.2860 0.3490
H85? H 0.0671 -0.3551 0.3734
H86? H 0.0161 -0.3168 0.3304
loop_
_geom_bond_atom_site_label_1
_geom_bond_atom_site_label_2
_geom_bond_site_symmetry_1
_geom_bond_site_symmetry_2
Fe1 N1 1_555 1_555
Fe2 N5 1_555 1_555
Fe3 N13 1_555 1_555
N1 N2 1_555 1_555
N2 C3 1_555 1_555
N3 Fe1 1_555 1_555
N4 Fe1 1_555 1_555
N5 C10 1_555 1_555
N6 Fe2 1_555 1_555
N7 N8 1_555 1_555
N8 Fe2 1_555 1_555
N9 Fe2 1_555 1_555
N10 N9 1_555 1_555
N11 Fe2 1_555 1_555
N12 Fe2 1_555 1_555
N13 C33 1_555 1_555
C1 N1 1_555 1_555
C2 C1 1_555 1_555
H1 C2 1_555 1_555
C3 C2 1_555 1_555
C4 N2 1_555 1_555
C5 C4 1_555 1_555
H2 C5 1_555 1_555
C6 C5 1_555 1_555
H3 C6 1_555 1_555
C7 C6 1_555 1_555
H4 C7 1_555 1_555
C8 N3 1_555 1_555
C9 N4 1_555 1_555
C10 N4 1_555 1_555
C11 N5 1_555 1_555
C12 N6 1_555 1_555
C13 C12 1_555 1_555
H5 C13 1_555 1_555
C14 C13 1_555 1_555
H6 C14 1_555 1_555
C15 C14 1_555 1_555
H7 C15 1_555 1_555
C16 N6 1_555 1_555
C17 N7 1_555 1_555
C18 C17 1_555 1_555
H8 C18 1_555 1_555
C19 N8 1_555 1_555
C20 C1 1_555 1_555
H9 C20 1_555 1_555
H10 C20 1_555 1_555
H11 C20 1_555 1_555
C21 C3 1_555 1_555
H12 C21 1_555 1_555
H13 C21 1_555 1_555
H14 C21 1_555 1_555
C22 C17 1_555 1_555
H15 C22 1_555 1_555
H16 C22 1_555 1_555
H17 C22 1_555 1_555
C23 C19 1_555 1_555
H18 C23 1_555 1_555
H19 C23 1_555 1_555
H20 C23 1_555 1_555
C24 N9 1_555 1_555
C25 C24 1_555 1_555
H21 C25 1_555 1_555
C26 N10 1_555 1_555
C27 N10 1_555 1_555
C28 C27 1_555 1_555
H22 C28 1_555 1_555
C29 C28 1_555 1_555
H23 C29 1_555 1_555
C30 C29 1_555 1_555
H24 C30 1_555 1_555
C31 N11 1_555 1_555
C32 N12 1_555 1_555
C33 N12 1_555 1_555
C34 N13 1_555 1_555
C35 N14 1_555 1_555
C36 C39 1_555 1_555
C37 C24 1_555 1_555
H25 C37 1_555 1_555
H26 C37 1_555 1_555
H27 C37 1_555 1_555
C38 C26 1_555 1_555
H28 C38 1_555 1_555
H29 C38 1_555 1_555
H30 C38 1_555 1_555
C39 H31 1_555 1_555
H32 C39 1_555 1_555
H33 C39 1_555 1_555
N14 Fe3 1_555 1_555
N15 C35 1_555 1_555
N16 Fe3 1_555 1_555
C40 C34 1_555 1_555
C41 H34 1_555 1_555
C42 C35 1_555 1_555
H35 C42 1_555 1_555
C43 C10 1_555 1_555
C44 C43 1_555 1_555
H36 C44 1_555 1_555
C45 C44 1_555 1_555
H37 C45 1_555 1_555
C46 C45 1_555 1_555
H38 C46 1_555 1_555
C47 C46 1_555 1_555
H39 C47 1_555 1_555
C48 C43 1_555 1_555
H40 C48 1_555 1_555
C49 C40 1_555 1_555
H41 C49 1_555 1_555
C50 N15 1_555 1_555
C51 C36 1_555 1_555
H42 C51 1_555 1_555
C52 C33 1_555 1_555
C53 C52 1_555 1_555
H43 C53 1_555 1_555
C54 C53 1_555 1_555
H44 C54 1_555 1_555
C55 C54 1_555 1_555
H45 C55 1_555 1_555
C56 C55 1_555 1_555
H46 C56 1_555 1_555
C57 C52 1_555 1_555
H47 C57 1_555 1_555
C58 C50 1_555 1_555
H48 C58 1_555 1_555
H49 C58 1_555 1_555
H50 C58 1_555 1_555
B1 F1 1_555 1_555
F2 B1 1_555 1_555
F3 B1 1_555 1_555
F4 B1 1_555 1_555
B3 F9 1_555 1_555
F10 B3 1_555 1_555
F11 B3 1_555 1_555
F12 B3 1_555 1_555
B6 F21 1_555 1_555
F22 B6 1_555 1_555
F23 B6 1_555 1_555
F24 B6 1_555 1_555
O1 N20 1_555 1_555
O2 N20 1_555 1_555
N20 C81 1_555 1_555
C81 H71 1_555 1_555
H72 C81 1_555 1_555
H73 C81 1_555 1_555
O3 N21 1_555 1_555
O4 N21 1_555 1_555
N21 C82 1_555 1_555
C82 H74 1_555 1_555
H75 C82 1_555 1_555
H76 C82 1_555 1_555
O5 C83 1_555 1_555
C83 H77 1_555 1_555
H78 C83 1_555 1_555
C84 C83 1_555 1_555
H79 C84 1_555 1_555
H80 C84 1_555 1_555
H81 C84 1_555 1_555
Fe2A N5A 1_555 1_555
N1A Fe1 1_555 1_555
N2A N1A 1_555 1_555
N3A Fe1 1_555 1_555
N4A Fe1 1_555 1_555
N5A C10A 1_555 1_555
N6A Fe2A 1_555 1_555
N7A N8A 1_555 1_555
N8A Fe2A 1_555 1_555
N9A Fe2A 1_555 1_555
N10A N9A 1_555 1_555
N11A Fe2A 1_555 1_555
N12A Fe2A 1_555 1_555
N13A Fe3 1_555 1_555
C1A N1A 1_555 1_555
C2A C1A 1_555 1_555
H1A C2A 1_555 1_555
C3A N2A 1_555 1_555
C4A N2A 1_555 1_555
C5A C4A 1_555 1_555
H2A C5A 1_555 1_555
C6A C5A 1_555 1_555
H3A C6A 1_555 1_555
C7A C6A 1_555 1_555
H4A C7A 1_555 1_555
C8A N3A 1_555 1_555
C9A N4A 1_555 1_555
C10A N4A 1_555 1_555
C11A N5A 1_555 1_555
C12A N6A 1_555 1_555
C13A C12A 1_555 1_555
H5A C13A 1_555 1_555
C14A C13A 1_555 1_555
H6A C14A 1_555 1_555
C15A C14A 1_555 1_555
H7A C15A 1_555 1_555
C16A N6A 1_555 1_555
C17A N7A 1_555 1_555
C18A C17A 1_555 1_555
H8A C18A 1_555 1_555
C19A N8A 1_555 1_555
C20A C1A 1_555 1_555
H9A C20A 1_555 1_555
H10A C20A 1_555 1_555
H11A C20A 1_555 1_555
C21A C3A 1_555 1_555
H12A C21A 1_555 1_555
H13A C21A 1_555 1_555
H14A C21A 1_555 1_555
C22A C17A 1_555 1_555
H15A C22A 1_555 1_555
H16A C22A 1_555 1_555
H17A C22A 1_555 1_555
C23A C19A 1_555 1_555
H18A C23A 1_555 1_555
H19A C23A 1_555 1_555
H20A C23A 1_555 1_555
C24A N9A 1_555 1_555
C25A C24A 1_555 1_555
H21A C25A 1_555 1_555
C26A N10A 1_555 1_555
C27A N10A 1_555 1_555
C28A C27A 1_555 1_555
H22A C28A 1_555 1_555
C29A C28A 1_555 1_555
H23A C29A 1_555 1_555
C30A C29A 1_555 1_555
H24A C30A 1_555 1_555
C31A N11A 1_555 1_555
C32A N12A 1_555 1_555
C33A N12A 1_555 1_555
C34A N13A 1_555 1_555
C35A N14A 1_555 1_555
C36A C39A 1_555 1_555
C37A C24A 1_555 1_555
H25A C37A 1_555 1_555
H26A C37A 1_555 1_555
H27A C37A 1_555 1_555
C38A C26A 1_555 1_555
H28A C38A 1_555 1_555
H29A C38A 1_555 1_555
H30A C38A 1_555 1_555
C39A H31A 1_555 1_555
H32A C39A 1_555 1_555
H33A C39A 1_555 1_555
N14A Fe3 1_555 1_555
N15A C35A 1_555 1_555
N16A Fe3 1_555 1_555
C40A C34A 1_555 1_555
C41A H34A 1_555 1_555
C42A C35A 1_555 1_555
H35A C42A 1_555 1_555
C43A C10A 1_555 1_555
C44A C43A 1_555 1_555
H36A C44A 1_555 1_555
C45A C44A 1_555 1_555
H37A C45A 1_555 1_555
C46A C45A 1_555 1_555
H38A C46A 1_555 1_555
C47A C46A 1_555 1_555
H39A C47A 1_555 1_555
C48A C43A 1_555 1_555
H40A C48A 1_555 1_555
C49A C40A 1_555 1_555
H41A C49A 1_555 1_555
C50A N15A 1_555 1_555
C51A C36A 1_555 1_555
H42A C51A 1_555 1_555
C52A C33A 1_555 1_555
C53A C52A 1_555 1_555
H43A C53A 1_555 1_555
C54A C53A 1_555 1_555
H44A C54A 1_555 1_555
C55A C54A 1_555 1_555
H45A C55A 1_555 1_555
C56A C55A 1_555 1_555
H46A C56A 1_555 1_555
C57A C52A 1_555 1_555
H47A C57A 1_555 1_555
C58A C50A 1_555 1_555
H48A C58A 1_555 1_555
H49A C58A 1_555 1_555
H50A C58A 1_555 1_555
C83A O5 1_555 1_555
H77A C83A 1_555 1_555
H78A C83A 1_555 1_555
C84A C83A 1_555 1_555
H79A C84A 1_555 1_555
H80A C84A 1_555 1_555
H81A C84A 1_555 1_555
N3 C4 1_555 1_555
N7 C16 1_555 1_555
N11 C27 1_555 1_555
C7 C8 1_555 1_555
C8 C9 1_555 1_555
C9 C11 1_555 1_555
C11 C12 1_555 1_555
C15 C16 1_555 1_555
C18 C19 1_555 1_555
C25 C26 1_555 1_555
C30 C31 1_555 1_555
C31 C32 1_555 1_555
C32 C34 1_555 1_555
C36 N16 1_555 1_555
N14 C40 1_555 1_555
N15 N16 1_555 1_555
C41 C42 1_555 1_555
C41 C49 1_555 1_555
C47 C48 1_555 1_555
C50 C51 1_555 1_555
C56 C57 1_555 1_555
N3A C4A 1_555 1_555
N7A C16A 1_555 1_555
N11A C27A 1_555 1_555
N13A C33A 1_555 1_555
C2A C3A 1_555 1_555
C7A C8A 1_555 1_555
C8A C9A 1_555 1_555
C9A C11A 1_555 1_555
C11A C12A 1_555 1_555
C15A C16A 1_555 1_555
C18A C19A 1_555 1_555
C25A C26A 1_555 1_555
C30A C31A 1_555 1_555
C31A C32A 1_555 1_555
C32A C34A 1_555 1_555
C36A N16A 1_555 1_555
N14A C40A 1_555 1_555
N15A N16A 1_555 1_555
C41A C42A 1_555 1_555
C41A C49A 1_555 1_555
C47A C48A 1_555 1_555
C50A C51A 1_555 1_555
C56A C57A 1_555 1_555

#END
