# generated using pymatgen
data_H210Pd6C182N70O167
_symmetry_space_group_name_H-M   'P 1'
_cell_length_a   20.02500000
_cell_length_b   26.09400000
_cell_length_c   26.21500000
_cell_angle_alpha   107.59300000
_cell_angle_beta   102.77900000
_cell_angle_gamma   95.76200000
_symmetry_Int_Tables_number   1
_chemical_formula_structural   H210Pd6C182N70O167
_chemical_formula_sum   'H420 Pd12 C364 N140 O334'
_cell_volume   12526.26803962
_cell_formula_units_Z   2
loop_
 _symmetry_equiv_pos_site_id
 _symmetry_equiv_pos_as_xyz
  1  'x, y, z'
loop_
 _atom_site_type_symbol
 _atom_site_label
 _atom_site_symmetry_multiplicity
 _atom_site_fract_x
 _atom_site_fract_y
 _atom_site_fract_z
 _atom_site_occupancy
  H  H1  1  0.867600  0.140400  0.330500  1
  H  H2  1  0.132400  0.859600  0.669500  1
  H  H3  1  0.863800  0.221900  0.312000  1
  H  H4  1  0.136200  0.778100  0.688000  1
  H  H5  1  0.022800  0.192800  0.241500  1
  H  H6  1  0.977200  0.807200  0.758500  1
  H  H7  1  0.024900  0.113800  0.265400  1
  H  H8  1  0.975100  0.886200  0.734600  1
  H  H9  1  0.870200  0.522900  0.333500  1
  H  H10  1  0.129800  0.477100  0.666500  1
  H  H11  1  0.927900  0.457100  0.290400  1
  H  H12  1  0.072100  0.542900  0.709600  1
  H  H13  1  0.812700  0.345900  0.330500  1
  H  H14  1  0.187300  0.654100  0.669500  1
  H  H15  1  0.755700  0.414600  0.369800  1
  H  H16  1  0.244300  0.585400  0.630200  1
  H  H17  1  0.143900  0.461500  0.213800  1
  H  H18  1  0.856100  0.538500  0.786200  1
  H  H19  1  0.044100  0.430400  0.232900  1
  H  H20  1  0.955900  0.569600  0.767100  1
  H  H21  1  0.098300  0.280700  0.201700  1
  H  H22  1  0.901700  0.719300  0.798300  1
  H  H23  1  0.196800  0.315600  0.182800  1
  H  H24  1  0.803200  0.684400  0.817200  1
  H  H25  1  0.680100  0.923700  0.684900  1
  H  H26  1  0.319900  0.076300  0.315100  1
  H  H27  1  0.690600  0.016000  0.696000  1
  H  H28  1  0.309400  0.984000  0.304000  1
  H  H29  1  0.518300  0.018600  0.753000  1
  H  H30  1  0.481700  0.981400  0.247000  1
  H  H31  1  0.511700  0.925800  0.739200  1
  H  H32  1  0.488300  0.074200  0.260800  1
  H  H33  1  0.727000  0.280400  0.634600  1
  H  H34  1  0.273000  0.719600  0.365400  1
  H  H35  1  0.656600  0.248900  0.681900  1
  H  H36  1  0.343400  0.751100  0.318100  1
  H  H37  1  0.740200  0.111000  0.652700  1
  H  H38  1  0.259800  0.889000  0.347300  1
  H  H39  1  0.805900  0.145300  0.604600  1
  H  H40  1  0.194100  0.854700  0.395400  1
  H  H41  1  0.437600  0.298000  0.757500  1
  H  H42  1  0.562400  0.702000  0.242500  1
  H  H43  1  0.534000  0.258700  0.743400  1
  H  H44  1  0.466000  0.741300  0.256600  1
  H  H45  1  0.454800  0.131500  0.783600  1
  H  H46  1  0.545200  0.868500  0.216400  1
  H  H47  1  0.362600  0.175100  0.798900  1
  H  H48  1  0.637400  0.824900  0.201100  1
  H  H49  1  0.981800  0.999200  0.216500  1
  H  H50  1  0.018200  0.000800  0.783500  1
  H  H51  1  0.933200  0.963000  0.122000  1
  H  H52  1  0.066800  0.037000  0.878000  1
  H  H53  1  0.745800  0.985600  0.151000  1
  H  H54  1  0.254200  0.014400  0.849000  1
  H  H55  1  0.800000  0.020500  0.244400  1
  H  H56  1  0.200000  0.979500  0.755600  1
  H  H57  1  0.888400  0.969700  0.036100  1
  H  H58  1  0.111600  0.030300  0.963900  1
  H  H59  1  0.837000  0.938000  0.942200  1
  H  H60  1  0.163000  0.062000  0.057800  1
  H  H61  1  0.656800  0.883200  0.969800  1
  H  H62  1  0.343200  0.116800  0.030200  1
  H  H63  1  0.708200  0.920600  0.063800  1
  H  H64  1  0.291800  0.079400  0.936200  1
  H  H65  1  0.551900  0.851600  0.801500  1
  H  H66  1  0.448100  0.148400  0.198500  1
  H  H67  1  0.603600  0.879700  0.895600  1
  H  H68  1  0.396400  0.120300  0.104400  1
  H  H69  1  0.790300  0.895700  0.861500  1
  H  H70  1  0.209700  0.104300  0.138500  1
  H  H71  1  0.733900  0.865900  0.768600  1
  H  H72  1  0.266100  0.134100  0.231400  1
  H  H73  1  0.626300  0.454900  0.324300  1
  H  H74  1  0.373700  0.545100  0.675700  1
  H  H75  1  0.560100  0.412400  0.233500  1
  H  H76  1  0.439900  0.587600  0.766500  1
  H  H77  1  0.684000  0.512200  0.186700  1
  H  H78  1  0.316000  0.487800  0.813300  1
  H  H79  1  0.747700  0.551400  0.278100  1
  H  H80  1  0.252300  0.448600  0.721900  1
  H  H81  1  0.543900  0.356500  0.146000  1
  H  H82  1  0.456100  0.643500  0.854000  1
  H  H83  1  0.474800  0.317500  0.056000  1
  H  H84  1  0.525200  0.682500  0.944000  1
  H  H85  1  0.516000  0.460400  0.028200  1
  H  H86  1  0.484000  0.539600  0.971800  1
  H  H87  1  0.588400  0.498800  0.118400  1
  H  H88  1  0.411600  0.501200  0.881600  1
  H  H89  1  0.416200  0.372400  0.853400  1
  H  H90  1  0.583800  0.627600  0.146600  1
  H  H91  1  0.486800  0.411700  0.942800  1
  H  H92  1  0.513200  0.588300  0.057200  1
  H  H93  1  0.382900  0.299500  0.988100  1
  H  H94  1  0.617100  0.700500  0.011900  1
  H  H95  1  0.316900  0.260600  0.897400  1
  H  H96  1  0.683100  0.739400  0.102600  1
  H  H97  1  0.169000  0.465500  0.115900  1
  H  H98  1  0.831000  0.534500  0.884100  1
  H  H99  1  0.099600  0.438800  0.026200  1
  H  H100  1  0.900400  0.561200  0.973800  1
  H  H101  1  0.188800  0.305300  0.989000  1
  H  H102  1  0.811200  0.694700  0.011000  1
  H  H103  1  0.251900  0.332200  0.079600  1
  H  H104  1  0.748100  0.667800  0.920400  1
  H  H105  1  0.088200  0.428900  0.935800  1
  H  H106  1  0.911800  0.571100  0.064200  1
  H  H107  1  0.024200  0.403500  0.845700  1
  H  H108  1  0.975800  0.596500  0.154300  1
  H  H109  1  0.017700  0.244100  0.830600  1
  H  H110  1  0.982300  0.755900  0.169400  1
  H  H111  1  0.083500  0.269000  0.921300  1
  H  H112  1  0.916500  0.731000  0.078700  1
  H  H113  1  0.946400  0.209600  0.650200  1
  H  H114  1  0.053600  0.790400  0.349800  1
  H  H115  1  0.006400  0.231800  0.740900  1
  H  H116  1  0.993600  0.768200  0.259100  1
  H  H117  1  0.930400  0.372800  0.774600  1
  H  H118  1  0.069600  0.627200  0.225400  1
  H  H119  1  0.871500  0.347000  0.682800  1
  H  H120  1  0.128500  0.653000  0.317200  1
  H  H121  1  0.109100  0.128300  0.437500  1
  H  H122  1  0.890900  0.871700  0.562500  1
  H  H123  1  0.077800  0.137800  0.380100  1
  H  H124  1  0.922200  0.862200  0.619900  1
  H  H125  1  0.102100  0.081200  0.379900  1
  H  H126  1  0.897900  0.918800  0.620100  1
  H  H127  1  0.012200  0.148900  0.470100  1
  H  H128  1  0.987800  0.851100  0.529900  1
  H  H129  1  0.935600  0.116400  0.435200  1
  H  H130  1  0.064400  0.883600  0.564800  1
  H  H131  1  0.974400  0.160100  0.415000  1
  H  H132  1  0.025600  0.839900  0.585000  1
  H  H133  1  0.056200  0.030300  0.421800  1
  H  H134  1  0.943800  0.969700  0.578200  1
  H  H135  1  0.015600  0.061600  0.464100  1
  H  H136  1  0.984400  0.938400  0.535900  1
  H  H137  1  0.913200  0.010100  0.411300  1
  H  H138  1  0.086800  0.989900  0.588700  1
  H  H139  1  0.967200  0.968900  0.415100  1
  H  H140  1  0.032800  0.031100  0.584900  1
  H  H141  1  0.968800  0.905500  0.315000  1
  H  H142  1  0.031200  0.094500  0.685000  1
  H  H143  1  0.021800  0.951600  0.308300  1
  H  H144  1  0.978200  0.048400  0.691700  1
  H  H145  1  0.946600  0.928800  0.265100  1
  H  H146  1  0.053400  0.071200  0.734900  1
  H  H147  1  0.854400  0.918000  0.330800  1
  H  H148  1  0.145600  0.082000  0.669200  1
  H  H149  1  0.838400  0.943600  0.282100  1
  H  H150  1  0.161600  0.056400  0.717900  1
  H  H151  1  0.833400  0.977200  0.342800  1
  H  H152  1  0.166600  0.022800  0.657200  1
  H  H153  1  0.854400  0.493400  0.464600  1
  H  H154  1  0.145600  0.506600  0.535400  1
  H  H155  1  0.788800  0.502300  0.489600  1
  H  H156  1  0.211200  0.497700  0.510400  1
  H  H157  1  0.832200  0.543400  0.537600  1
  H  H158  1  0.167800  0.456600  0.462400  1
  H  H159  1  0.921600  0.598100  0.502800  1
  H  H160  1  0.078400  0.401900  0.497200  1
  H  H161  1  0.890100  0.614800  0.449700  1
  H  H162  1  0.109900  0.385200  0.550300  1
  H  H163  1  0.910000  0.555500  0.441700  1
  H  H164  1  0.090000  0.444500  0.558300  1
  H  H165  1  0.747900  0.569600  0.510300  1
  H  H166  1  0.252100  0.430400  0.489700  1
  H  H167  1  0.819100  0.626900  0.534000  1
  H  H168  1  0.180900  0.373100  0.466000  1
  H  H169  1  0.769700  0.657500  0.476500  1
  H  H170  1  0.230300  0.342500  0.523500  1
  H  H171  1  0.704100  0.636000  0.494400  1
  H  H172  1  0.295900  0.364000  0.505600  1
  H  H173  1  0.606200  0.602700  0.424200  1
  H  H174  1  0.393800  0.397300  0.575800  1
  H  H175  1  0.629500  0.547800  0.431100  1
  H  H176  1  0.370500  0.452200  0.568900  1
  H  H177  1  0.607000  0.553000  0.370700  1
  H  H178  1  0.393000  0.447000  0.629300  1
  H  H179  1  0.676400  0.663100  0.398500  1
  H  H180  1  0.323600  0.336900  0.601500  1
  H  H181  1  0.680400  0.615200  0.344800  1
  H  H182  1  0.319600  0.384800  0.655200  1
  H  H183  1  0.750400  0.651400  0.389100  1
  H  H184  1  0.249600  0.348600  0.610900  1
  H  H185  1  0.318100  0.481300  0.347200  1
  H  H186  1  0.681900  0.518700  0.652800  1
  H  H187  1  0.245300  0.447200  0.305300  1
  H  H188  1  0.754700  0.552800  0.694700  1
  H  H189  1  0.275900  0.505300  0.303000  1
  H  H190  1  0.724100  0.494700  0.697000  1
  H  H191  1  0.367800  0.402200  0.318100  1
  H  H192  1  0.632200  0.597800  0.681900  1
  H  H193  1  0.368500  0.375200  0.254700  1
  H  H194  1  0.631500  0.624800  0.745300  1
  H  H195  1  0.297500  0.368300  0.272500  1
  H  H196  1  0.702500  0.631700  0.727500  1
  H  H197  1  0.425200  0.480000  0.309900  1
  H  H198  1  0.574800  0.520000  0.690100  1
  H  H199  1  0.381700  0.519000  0.284400  1
  H  H200  1  0.618300  0.481000  0.715600  1
  H  H201  1  0.456800  0.489300  0.230100  1
  H  H202  1  0.543200  0.510700  0.769900  1
  H  H203  1  0.429600  0.426800  0.222400  1
  H  H204  1  0.570400  0.573200  0.777600  1
  H  H205  1  0.395200  0.532300  0.171900  1
  H  H206  1  0.604800  0.467700  0.828100  1
  H  H207  1  0.342800  0.535700  0.210500  1
  H  H208  1  0.657200  0.464300  0.789500  1
  H  H209  1  0.313500  0.510800  0.144400  1
  H  H210  1  0.686500  0.489200  0.855600  1
  H  H211  1  0.424600  0.447800  0.125300  1
  H  H212  1  0.575400  0.552200  0.874700  1
  H  H213  1  0.344000  0.425000  0.093600  1
  H  H214  1  0.656000  0.575000  0.906400  1
  H  H215  1  0.387000  0.391500  0.127000  1
  H  H216  1  0.613000  0.608500  0.873000  1
  H  H217  1  0.442800  0.826200  0.568800  1
  H  H218  1  0.557200  0.173800  0.431200  1
  H  H219  1  0.478300  0.877100  0.624100  1
  H  H220  1  0.521700  0.122900  0.375900  1
  H  H221  1  0.436900  0.823200  0.627700  1
  H  H222  1  0.563100  0.176800  0.372300  1
  H  H223  1  0.546900  0.825800  0.543700  1
  H  H224  1  0.453100  0.174200  0.456300  1
  H  H225  1  0.615800  0.819300  0.584000  1
  H  H226  1  0.384200  0.180700  0.416000  1
  H  H227  1  0.587100  0.875600  0.598700  1
  H  H228  1  0.412900  0.124400  0.401300  1
  H  H229  1  0.497200  0.739000  0.550600  1
  H  H230  1  0.502800  0.261000  0.449400  1
  H  H231  1  0.579300  0.750500  0.579900  1
  H  H232  1  0.420700  0.249500  0.420100  1
  H  H233  1  0.519900  0.687000  0.609000  1
  H  H234  1  0.480100  0.313000  0.391000  1
  H  H235  1  0.473600  0.731100  0.631800  1
  H  H236  1  0.526400  0.268900  0.368200  1
  H  H237  1  0.554700  0.691000  0.705200  1
  H  H238  1  0.445300  0.309000  0.294800  1
  H  H239  1  0.484000  0.747900  0.699300  1
  H  H240  1  0.516000  0.252100  0.300700  1
  H  H241  1  0.547400  0.749100  0.749300  1
  H  H242  1  0.452600  0.250900  0.250700  1
  H  H243  1  0.650500  0.701300  0.694900  1
  H  H244  1  0.349500  0.298700  0.305100  1
  H  H245  1  0.661800  0.755500  0.747300  1
  H  H246  1  0.338200  0.244500  0.252700  1
  H  H247  1  0.687700  0.758400  0.694600  1
  H  H248  1  0.312300  0.241600  0.305400  1
  H  H249  1  0.263000  0.232000  0.632000  1
  H  H250  1  0.737000  0.768000  0.368000  1
  H  H251  1  0.325000  0.216000  0.669000  1
  H  H252  1  0.675000  0.784000  0.331000  1
  H  H253  1  0.315000  0.282000  0.677000  1
  H  H254  1  0.685000  0.718000  0.323000  1
  H  H255  1  0.196700  0.162000  0.660300  1
  H  H256  1  0.803300  0.838000  0.339700  1
  H  H257  1  0.194700  0.179200  0.723900  1
  H  H258  1  0.805300  0.820800  0.276100  1
  H  H259  1  0.263600  0.162500  0.707100  1
  H  H260  1  0.736400  0.837500  0.292900  1
  H  H261  1  0.206000  0.301700  0.690500  1
  H  H262  1  0.794000  0.698300  0.309500  1
  H  H263  1  0.152100  0.245000  0.666900  1
  H  H264  1  0.847900  0.755000  0.333100  1
  H  H265  1  0.128700  0.306000  0.746300  1
  H  H266  1  0.871300  0.694000  0.253700  1
  H  H267  1  0.147100  0.251000  0.757100  1
  H  H268  1  0.852900  0.749000  0.242900  1
  H  H269  1  0.208300  0.392300  0.797800  1
  H  H270  1  0.791700  0.607700  0.202200  1
  H  H271  1  0.255800  0.368400  0.757800  1
  H  H272  1  0.744200  0.631600  0.242200  1
  H  H273  1  0.288200  0.391200  0.823600  1
  H  H274  1  0.711800  0.608800  0.176400  1
  H  H275  1  0.166900  0.342500  0.849500  1
  H  H276  1  0.833100  0.657500  0.150500  1
  H  H277  1  0.245700  0.343300  0.880300  1
  H  H278  1  0.754300  0.656700  0.119700  1
  H  H279  1  0.192100  0.286600  0.851200  1
  H  H280  1  0.807900  0.713400  0.148800  1
  H  H281  1  0.707600  0.145300  0.448200  1
  H  H282  1  0.292400  0.854700  0.551800  1
  H  H283  1  0.709400  0.156300  0.512000  1
  H  H284  1  0.290600  0.843700  0.488000  1
  H  H285  1  0.772200  0.134000  0.488900  1
  H  H286  1  0.227800  0.866000  0.511100  1
  H  H287  1  0.691700  0.232000  0.453800  1
  H  H288  1  0.308300  0.768000  0.546200  1
  H  H289  1  0.745100  0.285000  0.497100  1
  H  H290  1  0.254900  0.715000  0.502900  1
  H  H291  1  0.693900  0.250100  0.518300  1
  H  H292  1  0.306100  0.749900  0.481700  1
  H  H293  1  0.846600  0.183400  0.462200  1
  H  H294  1  0.153400  0.816600  0.537800  1
  H  H295  1  0.792700  0.208200  0.425300  1
  H  H296  1  0.207300  0.791800  0.574700  1
  H  H297  1  0.844200  0.296200  0.481200  1
  H  H298  1  0.155800  0.703800  0.518800  1
  H  H299  1  0.904000  0.264700  0.462400  1
  H  H300  1  0.096000  0.735300  0.537600  1
  H  H301  1  0.000500  0.265100  0.530100  1
  H  H302  1  0.999500  0.734900  0.469900  1
  H  H303  1  0.952000  0.211100  0.527300  1
  H  H304  1  0.048000  0.788900  0.472700  1
  H  H305  1  0.990700  0.256500  0.586100  1
  H  H306  1  0.009300  0.743500  0.413900  1
  H  H307  1  0.961900  0.351200  0.552500  1
  H  H308  1  0.038100  0.648800  0.447500  1
  H  H309  1  0.953900  0.345700  0.610100  1
  H  H310  1  0.046100  0.654300  0.389900  1
  H  H311  1  0.889400  0.355800  0.568200  1
  H  H312  1  0.110600  0.644200  0.431800  1
  H  H313  1  0.508100  0.045400  0.928500  1
  H  H314  1  0.491900  0.954600  0.071500  1
  H  H315  1  0.582100  0.978600  0.896200  1
  H  H316  1  0.417900  0.021400  0.103800  1
  H  H317  1  0.799500  0.987300  0.821000  1
  H  H318  1  0.200500  0.012700  0.179000  1
  H  H319  1  0.862600  0.054000  0.791200  1
  H  H320  1  0.137400  0.946000  0.208800  1
  H  H321  1  0.837900  0.247400  0.784000  1
  H  H322  1  0.162100  0.752600  0.216000  1
  H  H323  1  0.762700  0.313700  0.816900  1
  H  H324  1  0.237300  0.686300  0.183100  1
  H  H325  1  0.562400  0.313200  0.912700  1
  H  H326  1  0.437600  0.686800  0.087300  1
  H  H327  1  0.498300  0.244800  0.940700  1
  H  H328  1  0.501700  0.755200  0.059300  1
  H  H329  1  0.649700  0.119100  0.874700  1
  H  H330  1  0.350300  0.880900  0.125300  1
  H  H331  1  0.707000  0.178800  0.850800  1
  H  H332  1  0.293000  0.821200  0.149200  1
  H  H333  1  0.662600  0.407100  0.045000  1
  H  H334  1  0.337400  0.592900  0.955000  1
  H  H335  1  0.755400  0.425700  0.001900  1
  H  H336  1  0.244600  0.574300  0.998100  1
  H  H337  1  0.931200  0.313400  0.921900  1
  H  H338  1  0.068800  0.686600  0.078100  1
  H  H339  1  0.955500  0.219900  0.910900  1
  H  H340  1  0.044500  0.780100  0.089100  1
  H  H341  1  0.858600  0.059200  0.964500  1
  H  H342  1  0.141400  0.940800  0.035500  1
  H  H343  1  0.762700  0.040600  0.005300  1
  H  H344  1  0.237300  0.959400  0.994700  1
  H  H345  1  0.585300  0.149900  0.082700  1
  H  H346  1  0.414700  0.850100  0.917300  1
  H  H347  1  0.559900  0.243000  0.091300  1
  H  H348  1  0.440100  0.757000  0.908700  1
  H  H349  1  0.747700  0.272900  0.006800  1
  H  H350  1  0.252300  0.727100  0.993200  1
  H  H351  1  0.769600  0.192500  0.998800  1
  H  H352  1  0.230400  0.807500  0.001200  1
  H  H353  1  0.990600  0.385700  0.076300  1
  H  H354  1  0.009400  0.614300  0.923700  1
  H  H355  1  0.048700  0.304900  0.051400  1
  H  H356  1  0.951300  0.695100  0.948600  1
  H  H357  1  0.022300  0.116200  0.071500  1
  H  H358  1  0.977700  0.883800  0.928500  1
  H  H359  1  0.944400  0.064700  0.108000  1
  H  H360  1  0.055600  0.935300  0.892000  1
  H  H361  1  0.738000  0.106100  0.194900  1
  H  H362  1  0.262000  0.893900  0.805100  1
  H  H363  1  0.680400  0.185900  0.218000  1
  H  H364  1  0.319600  0.814100  0.782000  1
  H  H365  1  0.711000  0.380000  0.200500  1
  H  H366  1  0.289000  0.620000  0.799500  1
  H  H367  1  0.788700  0.429000  0.163300  1
  H  H368  1  0.211300  0.571000  0.836700  1
  H  H369  1  0.896300  0.267700  0.119800  1
  H  H370  1  0.103700  0.732300  0.880200  1
  H  H371  1  0.830300  0.224400  0.149200  1
  H  H372  1  0.169700  0.775600  0.850800  1
  H  H373  1  0.872800  0.907400  0.046300  1
  H  H374  1  0.127200  0.092600  0.953700  1
  H  H375  1  0.827200  0.882100  0.953000  1
  H  H376  1  0.172800  0.117900  0.047000  1
  H  H377  1  0.655300  0.942800  0.979000  1
  H  H378  1  0.344700  0.057200  0.021000  1
  H  H379  1  0.705300  0.974700  0.072700  1
  H  H380  1  0.294700  0.025300  0.927300  1
  H  H381  1  0.003700  0.969300  0.409600  1
  H  H382  1  0.996300  0.030700  0.590400  1
  H  H383  1  0.050200  0.993600  0.376900  1
  H  H384  1  0.949800  0.006400  0.623100  1
  H  H385  1  0.889700  0.930200  0.349800  1
  H  H386  1  0.110300  0.069800  0.650200  1
  H  H387  1  0.856400  0.955400  0.303500  1
  H  H388  1  0.143600  0.044600  0.696500  1
  H  H389  1  0.873200  0.990800  0.367900  1
  H  H390  1  0.126800  0.009200  0.632100  1
  H  H391  1  0.864600  0.535700  0.525600  1
  H  H392  1  0.135400  0.464300  0.474400  1
  H  H393  1  0.804400  0.491000  0.482600  1
  H  H394  1  0.195600  0.509000  0.517400  1
  H  H395  1  0.752900  0.531400  0.501900  1
  H  H396  1  0.247100  0.468600  0.498100  1
  H  H397  1  0.810400  0.621000  0.535900  1
  H  H398  1  0.189600  0.379000  0.464100  1
  H  H399  1  0.839100  0.647700  0.486800  1
  H  H400  1  0.160900  0.352300  0.513200  1
  H  H401  1  0.508800  0.737600  0.718700  1
  H  H402  1  0.491200  0.262400  0.281300  1
  H  H403  1  0.587600  0.747500  0.754700  1
  H  H404  1  0.412400  0.252500  0.245300  1
  H  H405  1  0.630000  0.691600  0.659400  1
  H  H406  1  0.370000  0.308400  0.340600  1
  H  H407  1  0.679400  0.748700  0.697500  1
  H  H408  1  0.320600  0.251300  0.302500  1
  H  H409  1  0.644700  0.738300  0.633200  1
  H  H410  1  0.355300  0.261700  0.366800  1
  H  H411  1  0.495700  0.740500  0.554000  1
  H  H412  1  0.504300  0.259500  0.446000  1
  H  H413  1  0.464100  0.746600  0.606400  1
  H  H414  1  0.535900  0.253400  0.393600  1
  H  H415  1  0.557400  0.690100  0.610500  1
  H  H416  1  0.442600  0.309900  0.389500  1
  H  H417  1  0.612400  0.740700  0.612900  1
  H  H418  1  0.387600  0.259300  0.387100  1
  H  H419  1  0.517600  0.694400  0.696900  1
  H  H420  1  0.482400  0.305600  0.303100  1
  Pd  Pd421  1  0.948350  0.051014  0.319260  1
  Pd  Pd422  1  0.051650  0.948986  0.680740  1
  Pd  Pd423  1  0.756710  0.534950  0.386510  1
  Pd  Pd424  1  0.243290  0.465050  0.613490  1
  Pd  Pd425  1  0.270480  0.423500  0.187050  1
  Pd  Pd426  1  0.729520  0.576500  0.812950  1
  Pd  Pd427  1  0.586230  0.835350  0.695780  1
  Pd  Pd428  1  0.413770  0.164650  0.304220  1
  Pd  Pd429  1  0.307590  0.275790  0.787570  1
  Pd  Pd430  1  0.692410  0.724210  0.212430  1
  Pd  Pd431  1  0.839220  0.247070  0.580160  1
  Pd  Pd432  1  0.160780  0.752930  0.419840  1
  C  C433  1  0.900400  0.152200  0.313400  1
  C  C434  1  0.099600  0.847800  0.686600  1
  C  C435  1  0.897600  0.200500  0.302100  1
  C  C436  1  0.102400  0.799500  0.697900  1
  C  C437  1  0.944200  0.217000  0.276300  1
  C  C438  1  0.055800  0.783000  0.723700  1
  C  C439  1  0.991500  0.183400  0.261100  1
  C  C440  1  0.008500  0.816600  0.738900  1
  C  C441  1  0.992000  0.136300  0.274900  1
  C  C442  1  0.008000  0.863700  0.725100  1
  C  C443  1  0.858700  0.486500  0.332900  1
  C  C444  1  0.141300  0.513500  0.667100  1
  C  C445  1  0.893200  0.447600  0.307200  1
  C  C446  1  0.106800  0.552400  0.692800  1
  C  C447  1  0.876500  0.394200  0.306300  1
  C  C448  1  0.123500  0.605800  0.693700  1
  C  C449  1  0.825100  0.382000  0.330400  1
  C  C450  1  0.174900  0.618000  0.669600  1
  C  C451  1  0.792300  0.423200  0.354400  1
  C  C452  1  0.207700  0.576800  0.645600  1
  C  C453  1  0.134800  0.424500  0.212400  1
  C  C454  1  0.865200  0.575500  0.787600  1
  C  C455  1  0.075700  0.406400  0.223900  1
  C  C456  1  0.924300  0.593600  0.776100  1
  C  C457  1  0.061800  0.352300  0.222200  1
  C  C458  1  0.938200  0.647700  0.777800  1
  C  C459  1  0.107500  0.318300  0.205400  1
  C  C460  1  0.892500  0.681700  0.794600  1
  C  C461  1  0.165900  0.339300  0.194300  1
  C  C462  1  0.834100  0.660700  0.805700  1
  C  C463  1  0.948300  0.270200  0.267300  1
  C  C464  1  0.051700  0.729800  0.732700  1
  C  C465  1  0.916800  0.353100  0.282100  1
  C  C466  1  0.083200  0.646900  0.717900  1
  C  C467  1  0.003800  0.334100  0.241500  1
  C  C468  1  0.996200  0.665900  0.758500  1
  C  C469  1  0.646400  0.943300  0.697900  1
  C  C470  1  0.353600  0.056700  0.302100  1
  C  C471  1  0.652800  0.998000  0.704300  1
  C  C472  1  0.347200  0.002000  0.295700  1
  C  C473  1  0.603200  0.026300  0.723200  1
  C  C474  1  0.396800  0.973700  0.276800  1
  C  C475  1  0.551100  0.999500  0.737800  1
  C  C476  1  0.448900  0.000500  0.262200  1
  C  C477  1  0.547800  0.944600  0.729900  1
  C  C478  1  0.452200  0.055400  0.270100  1
  C  C479  1  0.729100  0.245400  0.638200  1
  C  C480  1  0.270900  0.754600  0.361800  1
  C  C481  1  0.687400  0.227100  0.666667  1
  C  C482  1  0.312600  0.772900  0.333333  1
  C  C483  1  0.690800  0.176800  0.673100  1
  C  C484  1  0.309200  0.823200  0.326900  1
  C  C485  1  0.736500  0.145900  0.649200  1
  C  C486  1  0.263500  0.854100  0.350800  1
  C  C487  1  0.775500  0.166500  0.620900  1
  C  C488  1  0.224500  0.833500  0.379100  1
  C  C489  1  0.441300  0.263700  0.762300  1
  C  C490  1  0.558700  0.736300  0.237700  1
  C  C491  1  0.498200  0.240300  0.753300  1
  C  C492  1  0.501800  0.759700  0.246700  1
  C  C493  1  0.502500  0.189100  0.759100  1
  C  C494  1  0.497500  0.810900  0.240900  1
  C  C495  1  0.451800  0.165400  0.777300  1
  C  C496  1  0.548200  0.834600  0.222700  1
  C  C497  1  0.397400  0.191400  0.786200  1
  C  C498  1  0.602600  0.808600  0.213800  1
  C  C499  1  0.604800  0.084200  0.725500  1
  C  C500  1  0.395200  0.915800  0.274500  1
  C  C501  1  0.645700  0.154300  0.701700  1
  C  C502  1  0.354300  0.845700  0.298300  1
  C  C503  1  0.558400  0.160400  0.742600  1
  C  C504  1  0.441600  0.839600  0.257400  1
  C  C505  1  0.933100  0.996100  0.202400  1
  C  C506  1  0.066900  0.003900  0.797600  1
  C  C507  1  0.904600  0.974700  0.146200  1
  C  C508  1  0.095400  0.025300  0.853800  1
  C  C509  1  0.833200  0.970100  0.124800  1
  C  C510  1  0.166800  0.029900  0.875200  1
  C  C511  1  0.794700  0.988000  0.163500  1
  C  C512  1  0.205300  0.012000  0.836500  1
  C  C513  1  0.827100  0.008700  0.219000  1
  C  C514  1  0.172900  0.991300  0.781000  1
  C  C515  1  0.802000  0.948000  0.059600  1
  C  C516  1  0.198000  0.052000  0.940400  1
  C  C517  1  0.840600  0.953100  0.022600  1
  C  C518  1  0.159400  0.046900  0.977400  1
  C  C519  1  0.809600  0.934300  0.966600  1
  C  C520  1  0.190400  0.065700  0.033400  1
  C  C521  1  0.738500  0.909600  0.943700  1
  C  C522  1  0.261500  0.090400  0.056300  1
  C  C523  1  0.703300  0.902700  0.982500  1
  C  C524  1  0.296700  0.097300  0.017500  1
  C  C525  1  0.735000  0.923600  0.038800  1
  C  C526  1  0.265000  0.076400  0.961200  1
  C  C527  1  0.601300  0.860300  0.814300  1
  C  C528  1  0.398700  0.139700  0.185700  1
  C  C529  1  0.631600  0.877100  0.870300  1
  C  C530  1  0.368400  0.122900  0.129700  1
  C  C531  1  0.704000  0.890300  0.889900  1
  C  C532  1  0.296000  0.109700  0.110100  1
  C  C533  1  0.741000  0.886200  0.850200  1
  C  C534  1  0.259000  0.113800  0.149800  1
  C  C535  1  0.707100  0.868700  0.794800  1
  C  C536  1  0.292900  0.131300  0.205200  1
  C  C537  1  0.638000  0.466200  0.295600  1
  C  C538  1  0.362000  0.533800  0.704400  1
  C  C539  1  0.598300  0.441000  0.241800  1
  C  C540  1  0.401700  0.559000  0.758200  1
  C  C541  1  0.614700  0.457800  0.199700  1
  C  C542  1  0.385300  0.542200  0.800300  1
  C  C543  1  0.671400  0.499700  0.214400  1
  C  C544  1  0.328600  0.500300  0.785600  1
  C  C545  1  0.709100  0.522900  0.268700  1
  C  C546  1  0.290900  0.477100  0.731300  1
  C  C547  1  0.572000  0.432000  0.141600  1
  C  C548  1  0.428000  0.568000  0.858400  1
  C  C549  1  0.538300  0.377700  0.122100  1
  C  C550  1  0.461700  0.622300  0.877900  1
  C  C551  1  0.497200  0.354600  0.068700  1
  C  C552  1  0.502800  0.645400  0.931300  1
  C  C553  1  0.487800  0.384900  0.033000  1
  C  C554  1  0.512200  0.615100  0.967000  1
  C  C555  1  0.521900  0.439100  0.052100  1
  C  C556  1  0.478100  0.560900  0.947900  1
  C  C557  1  0.564400  0.462200  0.105900  1
  C  C558  1  0.435600  0.537800  0.894100  1
  C  C559  1  0.410000  0.356900  0.880900  1
  C  C560  1  0.590000  0.643100  0.119100  1
  C  C561  1  0.451600  0.380900  0.934400  1
  C  C562  1  0.548400  0.619100  0.065600  1
  C  C563  1  0.442900  0.360600  0.975900  1
  C  C564  1  0.557100  0.639400  0.024100  1
  C  C565  1  0.391000  0.314800  0.961000  1
  C  C566  1  0.609000  0.685200  0.039000  1
  C  C567  1  0.351800  0.291900  0.906900  1
  C  C568  1  0.648200  0.708100  0.093100  1
  C  C569  1  0.172300  0.432100  0.089800  1
  C  C570  1  0.827700  0.567900  0.910200  1
  C  C571  1  0.131300  0.416600  0.036300  1
  C  C572  1  0.868700  0.583400  0.963700  1
  C  C573  1  0.135900  0.368700  0.996800  1
  C  C574  1  0.864100  0.631300  0.003200  1
  C  C575  1  0.183100  0.338100  0.014600  1
  C  C576  1  0.816900  0.661900  0.985400  1
  C  C577  1  0.221200  0.354600  0.068300  1
  C  C578  1  0.778800  0.645400  0.931700  1
  C  C579  1  0.093400  0.351900  0.939100  1
  C  C580  1  0.906600  0.648100  0.060900  1
  C  C581  1  0.074200  0.391200  0.914500  1
  C  C582  1  0.925800  0.608800  0.085500  1
  C  C583  1  0.036400  0.376100  0.861200  1
  C  C584  1  0.963600  0.623900  0.138800  1
  C  C585  1  0.014600  0.320700  0.827900  1
  C  C586  1  0.985400  0.679300  0.172100  1
  C  C587  1  0.032600  0.281800  0.852000  1
  C  C588  1  0.967400  0.718200  0.148000  1
  C  C589  1  0.071300  0.296600  0.906000  1
  C  C590  1  0.928700  0.703400  0.094000  1
  C  C591  1  0.943200  0.243100  0.676100  1
  C  C592  1  0.056800  0.756900  0.323900  1
  C  C593  1  0.978800  0.256200  0.729900  1
  C  C594  1  0.021200  0.743800  0.270100  1
  C  C595  1  0.975700  0.305200  0.769600  1
  C  C596  1  0.024300  0.694800  0.230400  1
  C  C597  1  0.934300  0.338900  0.749700  1
  C  C598  1  0.065700  0.661100  0.250300  1
  C  C599  1  0.899400  0.323500  0.695000  1
  C  C600  1  0.100600  0.676500  0.305000  1
  C  C601  1  0.080700  0.110800  0.399200  1
  C  C602  1  0.919300  0.889200  0.600800  1
  C  C603  1  0.980700  0.132200  0.432700  1
  C  C604  1  0.019300  0.867800  0.567300  1
  C  C605  1  0.012700  0.044700  0.424200  1
  C  C606  1  0.987300  0.955300  0.575800  1
  C  C607  1  0.955600  0.999000  0.401000  1
  C  C608  1  0.044400  0.001000  0.599000  1
  C  C609  1  0.972700  0.938100  0.304000  1
  C  C610  1  0.027300  0.061900  0.696000  1
  C  C611  1  0.858000  0.951800  0.322000  1
  C  C612  1  0.142000  0.048200  0.678000  1
  C  C613  1  0.833300  0.520200  0.488100  1
  C  C614  1  0.166700  0.479800  0.511900  1
  C  C615  1  0.891500  0.584700  0.464800  1
  C  C616  1  0.108500  0.415300  0.535200  1
  C  C617  1  0.778700  0.595400  0.500900  1
  C  C618  1  0.221300  0.404600  0.499100  1
  C  C619  1  0.739100  0.624100  0.474100  1
  C  C620  1  0.260900  0.375900  0.525900  1
  C  C621  1  0.630400  0.572800  0.409900  1
  C  C622  1  0.369600  0.427200  0.590100  1
  C  C623  1  0.702400  0.634600  0.384300  1
  C  C624  1  0.297600  0.365400  0.615700  1
  C  C625  1  0.287900  0.471900  0.309500  1
  C  C626  1  0.712100  0.528100  0.690500  1
  C  C627  1  0.341100  0.393100  0.279400  1
  C  C628  1  0.658900  0.606900  0.720600  1
  C  C629  1  0.390000  0.481000  0.277300  1
  C  C630  1  0.610000  0.519000  0.722700  1
  C  C631  1  0.415600  0.462800  0.226500  1
  C  C632  1  0.584400  0.537200  0.773500  1
  C  C633  1  0.352400  0.514100  0.176000  1
  C  C634  1  0.647600  0.485900  0.824000  1
  C  C635  1  0.380900  0.428100  0.126500  1
  C  C636  1  0.619100  0.571900  0.873500  1
  C  C637  1  0.467000  0.837200  0.608300  1
  C  C638  1  0.533000  0.162800  0.391700  1
  C  C639  1  0.573800  0.835700  0.582400  1
  C  C640  1  0.426200  0.164300  0.417600  1
  C  C641  1  0.533000  0.754500  0.586600  1
  C  C642  1  0.467000  0.245500  0.413400  1
  C  C643  1  0.520000  0.726500  0.624900  1
  C  C644  1  0.480000  0.273500  0.375100  1
  C  C645  1  0.527000  0.734400  0.709000  1
  C  C646  1  0.473000  0.265600  0.291000  1
  C  C647  1  0.651500  0.740900  0.706800  1
  C  C648  1  0.348500  0.259100  0.293200  1
  C  C649  1  0.289900  0.240300  0.665300  1
  C  C650  1  0.710100  0.759700  0.334700  1
  C  C651  1  0.224100  0.180600  0.698800  1
  C  C652  1  0.775900  0.819400  0.301200  1
  C  C653  1  0.190700  0.268500  0.698700  1
  C  C654  1  0.809300  0.731500  0.301300  1
  C  C655  1  0.166000  0.284100  0.750200  1
  C  C656  1  0.834000  0.715900  0.249800  1
  C  C657  1  0.246300  0.371800  0.793600  1
  C  C658  1  0.753700  0.628200  0.206400  1
  C  C659  1  0.205900  0.322700  0.848800  1
  C  C660  1  0.794100  0.677300  0.151200  1
  C  C661  1  0.737700  0.157800  0.486200  1
  C  C662  1  0.262300  0.842200  0.513800  1
  C  C663  1  0.721900  0.248100  0.491700  1
  C  C664  1  0.278100  0.751900  0.508300  1
  C  C665  1  0.820600  0.213900  0.463500  1
  C  C666  1  0.179400  0.786100  0.536500  1
  C  C667  1  0.869900  0.266400  0.484800  1
  C  C668  1  0.130100  0.733600  0.515200  1
  C  C669  1  0.967700  0.250400  0.547100  1
  C  C670  1  0.032300  0.749600  0.452900  1
  C  C671  1  0.930000  0.337700  0.570900  1
  C  C672  1  0.070000  0.662300  0.429100  1
  C  C673  1  0.571300  0.101600  0.905900  1
  C  C674  1  0.428700  0.898400  0.094100  1
  C  C675  1  0.546200  0.051600  0.913700  1
  C  C676  1  0.453800  0.948400  0.086300  1
  C  C677  1  0.586600  0.015200  0.896200  1
  C  C678  1  0.413400  0.984800  0.103800  1
  C  C679  1  0.638200  0.042500  0.877400  1
  C  C680  1  0.361800  0.957500  0.122600  1
  C  C681  1  0.733200  0.046300  0.841200  1
  C  C682  1  0.266800  0.953700  0.158800  1
  C  C683  1  0.789200  0.022300  0.821900  1
  C  C684  1  0.210800  0.977700  0.178100  1
  C  C685  1  0.823500  0.058400  0.806000  1
  C  C686  1  0.176500  0.941600  0.194000  1
  C  C687  1  0.789200  0.106000  0.815600  1
  C  C688  1  0.210800  0.894000  0.184400  1
  C  C689  1  0.780900  0.193800  0.814200  1
  C  C690  1  0.219100  0.806200  0.185800  1
  C  C691  1  0.802300  0.241900  0.801500  1
  C  C692  1  0.197700  0.758100  0.198500  1
  C  C693  1  0.760900  0.278100  0.819600  1
  C  C694  1  0.239100  0.721900  0.180400  1
  C  C695  1  0.714400  0.253800  0.843400  1
  C  C696  1  0.285600  0.746200  0.156600  1
  C  C697  1  0.623900  0.251500  0.885100  1
  C  C698  1  0.376100  0.748500  0.114900  1
  C  C699  1  0.570600  0.277200  0.908900  1
  C  C700  1  0.429400  0.722800  0.091100  1
  C  C701  1  0.535800  0.240200  0.924000  1
  C  C702  1  0.464200  0.759800  0.076000  1
  C  C703  1  0.567200  0.191200  0.909600  1
  C  C704  1  0.432800  0.808800  0.090400  1
  C  C705  1  0.687500  0.327200  0.033800  1
  C  C706  1  0.312500  0.672800  0.966200  1
  C  C707  1  0.691400  0.382200  0.031700  1
  C  C708  1  0.308600  0.617800  0.968300  1
  C  C709  1  0.741900  0.392700  0.008300  1
  C  C710  1  0.258100  0.607300  0.991700  1
  C  C711  1  0.771800  0.343900  0.994700  1
  C  C712  1  0.228200  0.656100  0.005300  1
  C  C713  1  0.851800  0.293100  0.960000  1
  C  C714  1  0.148200  0.706900  0.040000  1
  C  C715  1  0.908300  0.286800  0.933200  1
  C  C716  1  0.091700  0.713200  0.066800  1
  C  C717  1  0.921800  0.236400  0.927500  1
  C  C718  1  0.078200  0.763600  0.072500  1
  C  C719  1  0.874300  0.212200  0.951900  1
  C  C720  1  0.125700  0.787800  0.048100  1
  C  C721  1  0.830200  0.137700  0.973800  1
  C  C722  1  0.169800  0.862300  0.026200  1
  C  C723  1  0.828500  0.083500  0.976400  1
  C  C724  1  0.171500  0.916500  0.023600  1
  C  C725  1  0.776300  0.073500  0.998800  1
  C  C726  1  0.223700  0.926500  0.001200  1
  C  C727  1  0.745000  0.121300  0.011100  1
  C  C728  1  0.255000  0.878700  0.988900  1
  C  C729  1  0.664600  0.171400  0.044800  1
  C  C730  1  0.335400  0.828600  0.955200  1
  C  C731  1  0.608100  0.176500  0.071300  1
  C  C732  1  0.391900  0.823500  0.928700  1
  C  C733  1  0.594800  0.227100  0.076200  1
  C  C734  1  0.405200  0.772900  0.923800  1
  C  C735  1  0.643000  0.252600  0.054300  1
  C  C736  1  0.357000  0.747400  0.945700  1
  C  C737  1  0.925200  0.336800  0.104400  1
  C  C738  1  0.074800  0.663200  0.895600  1
  C  C739  1  0.979200  0.351700  0.081500  1
  C  C740  1  0.020800  0.648300  0.918500  1
  C  C741  1  0.011300  0.308000  0.068400  1
  C  C742  1  0.988700  0.692000  0.931600  1
  C  C743  1  0.977100  0.267100  0.085500  1
  C  C744  1  0.022900  0.732900  0.914500  1
  C  C745  1  0.964400  0.180700  0.093600  1
  C  C746  1  0.035600  0.819300  0.906400  1
  C  C747  1  0.985600  0.128600  0.086800  1
  C  C748  1  0.014400  0.871400  0.913200  1
  C  C749  1  0.942800  0.100600  0.106700  1
  C  C750  1  0.057200  0.899400  0.893300  1
  C  C751  1  0.894300  0.134500  0.125400  1
  C  C752  1  0.105700  0.865500  0.874600  1
  C  C753  1  0.802900  0.154000  0.164000  1
  C  C754  1  0.197100  0.846000  0.836000  1
  C  C755  1  0.749000  0.139600  0.188800  1
  C  C756  1  0.251000  0.860400  0.811200  1
  C  C757  1  0.718000  0.183100  0.201300  1
  C  C758  1  0.282000  0.816900  0.798700  1
  C  C759  1  0.751600  0.225100  0.185100  1
  C  C760  1  0.248400  0.774900  0.814900  1
  C  C761  1  0.764100  0.311900  0.177100  1
  C  C762  1  0.235900  0.688100  0.822900  1
  C  C763  1  0.746300  0.366200  0.184400  1
  C  C764  1  0.253700  0.633800  0.815600  1
  C  C765  1  0.788800  0.392900  0.164200  1
  C  C766  1  0.211200  0.607100  0.835800  1
  C  C767  1  0.833500  0.358300  0.144600  1
  C  C768  1  0.166500  0.641700  0.855400  1
  C  C769  1  0.799000  0.949000  0.070900  1
  C  C770  1  0.201000  0.051000  0.929100  1
  C  C771  1  0.829800  0.917500  0.032800  1
  C  C772  1  0.170200  0.082500  0.967200  1
  C  C773  1  0.801800  0.900500  0.977300  1
  C  C774  1  0.198200  0.099500  0.022700  1
  C  C775  1  0.738000  0.910000  0.955800  1
  C  C776  1  0.262000  0.090000  0.044200  1
  C  C777  1  0.701000  0.937400  0.993000  1
  C  C778  1  0.299000  0.062600  0.007000  1
  C  C779  1  0.730600  0.956200  0.048400  1
  C  C780  1  0.269400  0.043800  0.951600  1
  C  C781  1  0.007400  0.996000  0.389900  1
  C  C782  1  0.992600  0.004000  0.610100  1
  C  C783  1  0.889000  0.964000  0.340200  1
  C  C784  1  0.111000  0.036000  0.659800  1
  C  C785  1  0.801000  0.529200  0.500000  1
  C  C786  1  0.199000  0.470800  0.500000  1
  C  C787  1  0.808200  0.619800  0.493500  1
  C  C788  1  0.191800  0.380200  0.506500  1
  C  C789  1  0.555700  0.730500  0.717600  1
  C  C790  1  0.444300  0.269500  0.282400  1
  C  C791  1  0.637900  0.731100  0.667000  1
  C  C792  1  0.362100  0.268900  0.333000  1
  C  C793  1  0.506500  0.755500  0.595000  1
  C  C794  1  0.493500  0.244500  0.405000  1
  C  C795  1  0.569000  0.730400  0.623000  1
  C  C796  1  0.431000  0.269600  0.377000  1
  N  N797  1  0.947700  0.121780  0.301000  1
  N  N798  1  0.052300  0.878220  0.699000  1
  N  N799  1  0.810100  0.474900  0.356800  1
  N  N800  1  0.189900  0.525100  0.643200  1
  N  N801  1  0.181200  0.392000  0.199000  1
  N  N802  1  0.818800  0.608000  0.801000  1
  N  N803  1  0.905500  0.303300  0.286400  1
  N  N804  1  0.094500  0.696700  0.713600  1
  N  N805  1  0.964000  0.370000  0.259600  1
  N  N806  1  0.036000  0.630000  0.740400  1
  N  N807  1  0.996900  0.282700  0.244100  1
  N  N808  1  0.003100  0.717300  0.755900  1
  N  N809  1  0.594100  0.917000  0.709400  1
  N  N810  1  0.405900  0.083000  0.290600  1
  N  N811  1  0.772100  0.215800  0.615500  1
  N  N812  1  0.227900  0.784200  0.384500  1
  N  N813  1  0.391200  0.239200  0.777700  1
  N  N814  1  0.608800  0.760800  0.222300  1
  N  N815  1  0.650600  0.104400  0.703200  1
  N  N816  1  0.349400  0.895600  0.296800  1
  N  N817  1  0.601900  0.184540  0.721800  1
  N  N818  1  0.398100  0.815460  0.278200  1
  N  N819  1  0.557600  0.110100  0.745800  1
  N  N820  1  0.442400  0.889900  0.254200  1
  N  N821  1  0.894800  0.013000  0.238500  1
  N  N822  1  0.105200  0.987000  0.761500  1
  N  N823  1  0.638800  0.855600  0.776400  1
  N  N824  1  0.361200  0.144400  0.223600  1
  N  N825  1  0.692900  0.506500  0.308900  1
  N  N826  1  0.307100  0.493500  0.691100  1
  N  N827  1  0.361000  0.312200  0.866600  1
  N  N828  1  0.639000  0.687800  0.133400  1
  N  N829  1  0.217100  0.401500  0.106400  1
  N  N830  1  0.782900  0.598500  0.893600  1
  N  N831  1  0.903300  0.276100  0.657900  1
  N  N832  1  0.096700  0.723900  0.342100  1
  N  N833  1  0.011000  0.088500  0.399100  1
  N  N834  1  0.989000  0.911500  0.600900  1
  N  N835  1  0.944000  0.980900  0.339400  1
  N  N836  1  0.056000  0.019100  0.660600  1
  N  N837  1  0.821700  0.563700  0.465000  1
  N  N838  1  0.178300  0.436300  0.535000  1
  N  N839  1  0.702500  0.595300  0.415400  1
  N  N840  1  0.297500  0.404700  0.584600  1
  N  N841  1  0.325300  0.444400  0.268500  1
  N  N842  1  0.674700  0.555600  0.731500  1
  N  N843  1  0.361000  0.458900  0.178000  1
  N  N844  1  0.639000  0.541100  0.822000  1
  N  N845  1  0.530300  0.815000  0.614600  1
  N  N846  1  0.469700  0.185000  0.385400  1
  N  N847  1  0.578700  0.752800  0.680300  1
  N  N848  1  0.421300  0.247200  0.319700  1
  N  N849  1  0.250000  0.238500  0.706500  1
  N  N850  1  0.750000  0.761500  0.293500  1
  N  N851  1  0.225900  0.316200  0.796300  1
  N  N852  1  0.774100  0.683800  0.203700  1
  N  N853  1  0.773800  0.214700  0.500500  1
  N  N854  1  0.226200  0.785300  0.499500  1
  N  N855  1  0.907100  0.278300  0.543900  1
  N  N856  1  0.092900  0.721700  0.456100  1
  N  N857  1  0.626000  0.094500  0.883700  1
  N  N858  1  0.374000  0.905500  0.116300  1
  N  N859  1  0.687500  0.020000  0.858600  1
  N  N860  1  0.312500  0.980000  0.141400  1
  N  N861  1  0.735400  0.097700  0.837100  1
  N  N862  1  0.264600  0.902300  0.162900  1
  N  N863  1  0.810500  0.149900  0.803800  1
  N  N864  1  0.189500  0.850100  0.196200  1
  N  N865  1  0.728500  0.202400  0.839200  1
  N  N866  1  0.271500  0.797600  0.160800  1
  N  N867  1  0.667300  0.276800  0.865500  1
  N  N868  1  0.332700  0.723200  0.134500  1
  N  N869  1  0.619700  0.199500  0.886600  1
  N  N870  1  0.380300  0.800500  0.113400  1
  N  N871  1  0.543600  0.146500  0.918800  1
  N  N872  1  0.456400  0.853500  0.081200  1
  N  N873  1  0.738300  0.305900  0.010700  1
  N  N874  1  0.261700  0.694100  0.989300  1
  N  N875  1  0.824100  0.338400  0.970800  1
  N  N876  1  0.175900  0.661600  0.029200  1
  N  N877  1  0.831400  0.246700  0.969900  1
  N  N878  1  0.168600  0.753300  0.030100  1
  N  N879  1  0.874000  0.161300  0.953600  1
  N  N880  1  0.126000  0.838700  0.046400  1
  N  N881  1  0.778900  0.159600  0.995500  1
  N  N882  1  0.221100  0.840400  0.004500  1
  N  N883  1  0.691600  0.125500  0.033900  1
  N  N884  1  0.308400  0.874500  0.966100  1
  N  N885  1  0.685400  0.218100  0.035700  1
  N  N886  1  0.314600  0.781900  0.964300  1
  N  N887  1  0.643700  0.303500  0.054500  1
  N  N888  1  0.356300  0.696500  0.945500  1
  N  N889  1  0.924600  0.285300  0.107000  1
  N  N890  1  0.075400  0.714700  0.893000  1
  N  N891  1  0.995700  0.218900  0.078600  1
  N  N892  1  0.004300  0.781100  0.921400  1
  N  N893  1  0.909500  0.182900  0.116200  1
  N  N894  1  0.090500  0.817100  0.883800  1
  N  N895  1  0.844900  0.120600  0.146900  1
  N  N896  1  0.155100  0.879400  0.853100  1
  N  N897  1  0.802600  0.206500  0.162400  1
  N  N898  1  0.197400  0.793500  0.837600  1
  N  N899  1  0.732700  0.274100  0.192400  1
  N  N900  1  0.267300  0.725900  0.807600  1
  N  N901  1  0.817900  0.308600  0.152300  1
  N  N902  1  0.182100  0.691400  0.847700  1
  N  N903  1  0.882800  0.370200  0.121400  1
  N  N904  1  0.117200  0.629800  0.878600  1
  N  N905  1  0.946100  0.113300  0.560800  1
  N  N906  1  0.053900  0.886700  0.439200  1
  N  N907  1  0.587600  0.064300  0.172800  1
  N  N908  1  0.412400  0.935700  0.827200  1
  N  N909  1  0.943900  0.723700  0.593800  1
  N  N910  1  0.056100  0.276300  0.406200  1
  N  N911  1  0.819100  0.832000  0.171700  1
  N  N912  1  0.180900  0.168000  0.828300  1
  N  N913  1  0.433700  0.295400  0.161600  1
  N  N914  1  0.566300  0.704600  0.838400  1
  N  N915  1  0.156800  0.053800  0.293700  1
  N  N916  1  0.843200  0.946200  0.706300  1
  N  N917  1  0.743700  0.521800  0.093900  1
  N  N918  1  0.256300  0.478200  0.906100  1
  N  N919  1  0.777800  0.068000  0.358500  1
  N  N920  1  0.222200  0.932000  0.641500  1
  N  N921  1  0.566300  0.588900  0.237000  1
  N  N922  1  0.433700  0.411100  0.763000  1
  N  N923  1  0.214900  0.583300  0.243500  1
  N  N924  1  0.785100  0.416700  0.756500  1
  N  N925  1  0.564400  0.436500  0.399500  1
  N  N926  1  0.435600  0.563500  0.600500  1
  N  N927  1  0.889000  0.624600  0.323300  1
  N  N928  1  0.111000  0.375400  0.676700  1
  N  N929  1  0.709400  0.273200  0.361800  1
  N  N930  1  0.290600  0.726800  0.638200  1
  N  N931  1  0.970500  0.700900  0.594500  1
  N  N932  1  0.029500  0.299100  0.405500  1
  N  N933  1  0.368300  0.292400  0.161300  1
  N  N934  1  0.631700  0.707600  0.838700  1
  N  N935  1  0.887400  0.651900  0.353000  1
  N  N936  1  0.112600  0.348100  0.647000  1
  O  O937  1  0.001000  0.139200  0.598300  1
  O  O938  1  0.999000  0.860800  0.401700  1
  O  O939  1  0.891900  0.131600  0.554400  1
  O  O940  1  0.108100  0.868400  0.445600  1
  O  O941  1  0.945300  0.065300  0.527500  1
  O  O942  1  0.054700  0.934700  0.472500  1
  O  O943  1  0.584100  0.067800  0.220300  1
  O  O944  1  0.415900  0.932200  0.779700  1
  O  O945  1  0.616200  0.028700  0.146500  1
  O  O946  1  0.383800  0.971300  0.853500  1
  O  O947  1  0.554500  0.097100  0.150200  1
  O  O948  1  0.445500  0.902900  0.849800  1
  O  O949  1  0.901300  0.753100  0.609100  1
  O  O950  1  0.098700  0.246900  0.390900  1
  O  O951  1  0.964000  0.685300  0.614700  1
  O  O952  1  0.036000  0.314700  0.385300  1
  O  O953  1  0.011800  0.707500  0.567600  1
  O  O954  1  0.988200  0.292500  0.432400  1
  O  O955  1  0.757900  0.818800  0.170700  1
  O  O956  1  0.242100  0.181200  0.829300  1
  O  O957  1  0.834500  0.852800  0.139100  1
  O  O958  1  0.165500  0.147200  0.860900  1
  O  O959  1  0.868500  0.823700  0.205600  1
  O  O960  1  0.131500  0.176300  0.794400  1
  O  O961  1  0.374000  0.296300  0.136300  1
  O  O962  1  0.626000  0.703700  0.863700  1
  O  O963  1  0.466200  0.259400  0.143000  1
  O  O964  1  0.533800  0.740600  0.857000  1
  O  O965  1  0.467000  0.335100  0.206300  1
  O  O966  1  0.533000  0.664900  0.793700  1
  O  O967  1  0.170700  0.087900  0.272200  1
  O  O968  1  0.829300  0.912100  0.727800  1
  O  O969  1  0.202400  0.049900  0.333600  1
  O  O970  1  0.797600  0.950100  0.666400  1
  O  O971  1  0.099500  0.022500  0.276800  1
  O  O972  1  0.900500  0.977500  0.723200  1
  O  O973  1  0.691700  0.539700  0.080400  1
  O  O974  1  0.308300  0.460300  0.919600  1
  O  O975  1  0.765700  0.507700  0.134300  1
  O  O976  1  0.234300  0.492300  0.865700  1
  O  O977  1  0.791400  0.525200  0.067400  1
  O  O978  1  0.208600  0.474800  0.932600  1
  O  O979  1  0.380200  0.487400  0.998500  1
  O  O980  1  0.619800  0.512600  0.001500  1
  O  O981  1  0.751100  0.081200  0.319200  1
  O  O982  1  0.248900  0.918800  0.680800  1
  O  O983  1  0.838200  0.084900  0.385700  1
  O  O984  1  0.161800  0.915100  0.614300  1
  O  O985  1  0.741200  0.043300  0.380800  1
  O  O986  1  0.258800  0.956700  0.619200  1
  O  O987  1  0.670600  0.092200  0.339000  1
  O  O988  1  0.329400  0.907800  0.661000  1
  O  O989  1  0.612800  0.627100  0.249700  1
  O  O990  1  0.387200  0.372900  0.750300  1
  O  O991  1  0.535700  0.565100  0.187800  1
  O  O992  1  0.464300  0.434900  0.812200  1
  O  O993  1  0.549800  0.569800  0.272000  1
  O  O994  1  0.450200  0.430200  0.728000  1
  O  O995  1  0.265500  0.600900  0.284500  1
  O  O996  1  0.734500  0.399100  0.715500  1
  O  O997  1  0.158800  0.553500  0.233400  1
  O  O998  1  0.841200  0.446500  0.766600  1
  O  O999  1  0.217400  0.606500  0.207800  1
  O  O1000  1  0.782600  0.393500  0.792200  1
  O  O1001  1  0.525300  0.415400  0.352800  1
  O  O1002  1  0.474700  0.584600  0.647200  1
  O  O1003  1  0.627500  0.441200  0.414500  1
  O  O1004  1  0.372500  0.558800  0.585500  1
  O  O1005  1  0.535100  0.461100  0.436800  1
  O  O1006  1  0.464900  0.538900  0.563200  1
  O  O1007  1  0.878300  0.586600  0.289100  1
  O  O1008  1  0.121700  0.413400  0.710900  1
  O  O1009  1  0.854600  0.630200  0.359800  1
  O  O1010  1  0.145400  0.369800  0.640200  1
  O  O1011  1  0.933500  0.660600  0.321800  1
  O  O1012  1  0.066500  0.339400  0.678200  1
  O  O1013  1  0.769200  0.265800  0.360400  1
  O  O1014  1  0.230800  0.734200  0.639600  1
  O  O1015  1  0.696000  0.318400  0.380900  1
  O  O1016  1  0.304000  0.681600  0.619100  1
  O  O1017  1  0.659000  0.231100  0.342800  1
  O  O1018  1  0.341000  0.768900  0.657200  1
  O  O1019  1  0.626000  0.344500  0.745600  1
  O  O1020  1  0.374000  0.655500  0.254400  1
  O  O1021  1  0.653600  0.380900  0.860900  1
  O  O1022  1  0.346400  0.619100  0.139100  1
  O  O1023  1  0.730200  0.796200  0.532800  1
  O  O1024  1  0.269800  0.203800  0.467200  1
  O  O1025  1  0.657600  0.880400  0.135300  1
  O  O1026  1  0.342400  0.119600  0.864700  1
  O  O1027  1  0.598900  0.954000  0.205100  1
  O  O1028  1  0.401100  0.046000  0.794900  1
  O  O1029  1  0.692600  0.878100  0.492600  1
  O  O1030  1  0.307400  0.121900  0.507400  1
  O  O1031  1  0.534500  0.949700  0.571500  1
  O  O1032  1  0.465500  0.050300  0.428500  1
  O  O1033  1  0.661300  0.973100  0.556500  1
  O  O1034  1  0.338700  0.026900  0.443500  1
  O  O1035  1  0.033200  0.531700  0.284700  1
  O  O1036  1  0.966800  0.468300  0.715300  1
  O  O1037  1  0.572600  0.442000  0.908500  1
  O  O1038  1  0.427400  0.558000  0.091500  1
  O  O1039  1  0.236200  0.535900  0.075600  1
  O  O1040  1  0.763800  0.464100  0.924400  1
  O  O1041  1  0.232200  0.355000  0.347700  1
  O  O1042  1  0.767800  0.645000  0.652300  1
  O  O1043  1  0.257400  0.177300  0.354400  1
  O  O1044  1  0.742600  0.822700  0.645600  1
  O  O1045  1  0.645300  0.590600  0.573900  1
  O  O1046  1  0.354700  0.409400  0.426100  1
  O  O1047  1  0.755900  0.365400  0.612300  1
  O  O1048  1  0.244100  0.634600  0.387700  1
  O  O1049  1  0.613900  0.714400  0.483600  1
  O  O1050  1  0.386100  0.285600  0.516400  1
  O  O1051  1  0.785600  0.437500  0.560400  1
  O  O1052  1  0.214400  0.562500  0.439600  1
  O  O1053  1  0.810900  0.376700  0.461900  1
  O  O1054  1  0.189100  0.623300  0.538100  1
  O  O1055  1  0.663800  0.481700  0.530200  1
  O  O1056  1  0.336200  0.518300  0.469800  1
  O  O1057  1  0.448300  0.009900  0.608200  1
  O  O1058  1  0.551700  0.990100  0.391800  1
  O  O1059  1  0.823400  0.754900  0.684500  1
  O  O1060  1  0.176600  0.245100  0.315500  1
  O  O1061  1  0.884600  0.607300  0.643100  1
  O  O1062  1  0.115400  0.392700  0.356900  1
  O  O1063  1  0.910300  0.502800  0.625500  1
  O  O1064  1  0.089700  0.497200  0.374500  1
  O  O1065  1  0.555300  0.635400  0.516200  1
  O  O1066  1  0.444700  0.364600  0.483800  1
  O  O1067  1  0.219000  0.080700  0.556400  1
  O  O1068  1  0.781000  0.919300  0.443600  1
  O  O1069  1  0.659700  0.040000  0.495300  1
  O  O1070  1  0.340300  0.960000  0.504700  1
  O  O1071  1  0.573000  0.114900  0.520900  1
  O  O1072  1  0.427000  0.885100  0.479100  1
  O  O1073  1  0.590900  0.259700  0.216200  1
  O  O1074  1  0.409100  0.740300  0.783800  1
  O  O1075  1  0.647000  0.326700  0.267600  1
  O  O1076  1  0.353000  0.673300  0.732400  1
  O  O1077  1  0.602700  0.038000  0.046100  1
  O  O1078  1  0.397300  0.962000  0.953900  1
  O  O1079  1  0.981100  0.861700  0.154100  1
  O  O1080  1  0.018900  0.138300  0.845900  1
  O  O1081  1  0.483300  0.646800  0.324400  1
  O  O1082  1  0.516700  0.353200  0.675600  1
  O  O1083  1  0.432000  0.137900  0.970600  1
  O  O1084  1  0.568000  0.862100  0.029400  1
  O  O1085  1  0.516800  0.104300  0.606300  1
  O  O1086  1  0.483200  0.895700  0.393700  1
  O  O1087  1  0.991300  0.489900  0.566400  1
  O  O1088  1  0.008700  0.510100  0.433600  1
  O  O1089  1  0.467000  0.254400  0.602100  1
  O  O1090  1  0.533000  0.745600  0.397900  1
  O  O1091  1  0.410000  0.161000  0.606700  1
  O  O1092  1  0.590000  0.839000  0.393300  1
  O  O1093  1  0.564600  0.175400  0.260500  1
  O  O1094  1  0.435400  0.824600  0.739500  1
  O  O1095  1  0.997500  0.116200  0.938000  1
  O  O1096  1  0.002500  0.883800  0.062000  1
  O  O1097  1  0.620000  0.340500  0.448600  1
  O  O1098  1  0.380000  0.659500  0.551400  1
  O  O1099  1  0.071100  0.853300  0.241500  1
  O  O1100  1  0.928900  0.146700  0.758500  1
  O  O1101  1  0.433800  0.775300  0.455000  1
  O  O1102  1  0.566200  0.224700  0.545000  1
  O  O1103  1  0.222300  0.213700  0.961100  1
  O  O1104  1  0.777700  0.786300  0.038900  1
  O  O1105  1  0.332600  0.106700  0.650600  1
  O  O1106  1  0.667400  0.893300  0.349400  1
  O  O1107  1  0.626900  0.974500  0.314500  1
  O  O1108  1  0.373100  0.025500  0.685500  1
  O  O1109  1  0.956200  0.005100  0.922100  1
  O  O1110  1  0.043800  0.994900  0.077900  1
  O  O1111  1  0.907200  0.930600  0.846200  1
  O  O1112  1  0.092800  0.069400  0.153800  1
  O  O1113  1  0.916600  0.473100  0.101000  1
  O  O1114  1  0.083400  0.526900  0.899000  1
  O  O1115  1  0.622600  0.324100  0.548100  1
  O  O1116  1  0.377400  0.675900  0.451900  1
  O  O1117  1  0.799300  0.030100  0.468900  1
  O  O1118  1  0.200700  0.969900  0.531100  1
  O  O1119  1  0.103200  0.564000  0.034700  1
  O  O1120  1  0.896800  0.436000  0.965300  1
  O  O1121  1  0.947300  0.544900  0.233600  1
  O  O1122  1  0.052700  0.455100  0.766400  1
  O  O1123  1  0.224300  0.983700  0.358600  1
  O  O1124  1  0.775700  0.016300  0.641400  1
  O  O1125  1  0.881400  0.090300  0.649900  1
  O  O1126  1  0.118600  0.909700  0.350100  1
  O  O1127  1  0.991900  0.482200  0.034800  1
  O  O1128  1  0.008100  0.517800  0.965200  1
  O  O1129  1  0.125800  0.153900  0.555900  1
  O  O1130  1  0.874200  0.846100  0.444100  1
  O  O1131  1  0.396900  0.224400  0.030500  1
  O  O1132  1  0.603100  0.775600  0.969500  1
  O  O1133  1  0.459600  0.062600  0.023600  1
  O  O1134  1  0.540400  0.937400  0.976400  1
  O  O1135  1  0.135600  0.248000  0.562200  1
  O  O1136  1  0.864400  0.752000  0.437800  1
  O  O1137  1  0.107700  0.207200  0.012300  1
  O  O1138  1  0.892300  0.792800  0.987700  1
  O  O1139  1  0.174000  0.248300  0.475600  1
  O  O1140  1  0.826000  0.751700  0.524400  1
  O  O1141  1  0.416400  0.605000  0.375800  1
  O  O1142  1  0.583600  0.395000  0.624200  1
  O  O1143  1  0.540400  0.465100  0.567500  1
  O  O1144  1  0.459600  0.534900  0.432500  1
  O  O1145  1  0.131000  0.189000  0.203600  1
  O  O1146  1  0.869000  0.811000  0.796400  1
  O  O1147  1  0.152100  0.188400  0.137900  1
  O  O1148  1  0.847900  0.811600  0.862100  1
  O  O1149  1  0.225100  0.235000  0.208500  1
  O  O1150  1  0.774900  0.765000  0.791500  1
  O  O1151  1  0.058600  0.580800  0.542100  1
  O  O1152  1  0.941400  0.419200  0.457900  1
  O  O1153  1  0.007200  0.614300  0.596500  1
  O  O1154  1  0.992800  0.385700  0.403500  1
  O  O1155  1  0.108200  0.566400  0.133100  1
  O  O1156  1  0.891800  0.433600  0.866900  1
  O  O1157  1  0.038800  0.510000  0.174800  1
  O  O1158  1  0.961200  0.490000  0.825200  1
  O  O1159  1  0.236900  0.230600  0.083000  1
  O  O1160  1  0.763100  0.769400  0.917000  1
  O  O1161  1  0.733500  0.184000  0.332800  1
  O  O1162  1  0.266500  0.816000  0.667200  1
  O  O1163  1  0.243000  0.970600  0.443500  1
  O  O1164  1  0.757000  0.029400  0.556500  1
  O  O1165  1  0.972200  0.732600  0.558500  1
  O  O1166  1  0.027800  0.267400  0.441500  1
  O  O1167  1  0.925100  0.725300  0.612700  1
  O  O1168  1  0.074900  0.274700  0.387300  1
  O  O1169  1  0.986100  0.658800  0.604800  1
  O  O1170  1  0.013900  0.341200  0.395200  1
  O  O1171  1  0.312600  0.308400  0.155800  1
  O  O1172  1  0.687400  0.691600  0.844200  1
  O  O1173  1  0.424500  0.322300  0.189900  1
  O  O1174  1  0.575500  0.677700  0.810100  1
  O  O1175  1  0.367100  0.240900  0.143700  1
  O  O1176  1  0.632900  0.759100  0.856300  1
  O  O1177  1  0.823300  0.520600  0.147200  1
  O  O1178  1  0.176700  0.479400  0.852800  1
  O  O1179  1  0.664000  0.534000  0.004000  1
  O  O1180  1  0.336000  0.466000  0.996000  1
  O  O1181  1  0.687000  0.535600  0.041000  1
  O  O1182  1  0.313000  0.464400  0.959000  1
  O  O1183  1  0.262400  0.475400  0.992400  1
  O  O1184  1  0.737600  0.524600  0.007600  1
  O  O1185  1  0.316800  0.468800  0.026800  1
  O  O1186  1  0.683200  0.531200  0.973200  1
  O  O1187  1  0.790500  0.068000  0.355300  1
  O  O1188  1  0.209500  0.932000  0.644700  1
  O  O1189  1  0.731000  0.134900  0.321900  1
  O  O1190  1  0.269000  0.865100  0.678100  1
  O  O1191  1  0.160000  0.554300  0.181900  1
  O  O1192  1  0.840000  0.445700  0.818100  1
  O  O1193  1  0.190600  0.566600  0.275300  1
  O  O1194  1  0.809400  0.433400  0.724700  1
  O  O1195  1  0.750400  0.375200  0.730100  1
  O  O1196  1  0.249600  0.624800  0.269900  1
  O  O1197  1  0.225800  0.548100  0.215500  1
  O  O1198  1  0.774200  0.451900  0.784500  1
  O  O1199  1  0.069400  0.328600  0.664100  1
  O  O1200  1  0.930600  0.671400  0.335900  1
  O  O1201  1  0.847700  0.609000  0.330100  1
  O  O1202  1  0.152300  0.391000  0.669900  1
  O  O1203  1  0.118900  0.322000  0.603600  1
  O  O1204  1  0.881100  0.678000  0.396400  1
  O  O1205  1  0.070200  0.537400  0.291400  1
  O  O1206  1  0.929800  0.462600  0.708600  1
  O  O1207  1  0.589800  0.460000  0.934000  1
  O  O1208  1  0.410200  0.540000  0.066000  1
  O  O1209  1  0.634300  0.345400  0.325700  1
  O  O1210  1  0.365700  0.654600  0.674300  1
  O  O1211  1  0.607700  0.309400  0.221400  1
  O  O1212  1  0.392300  0.690600  0.778600  1
  O  O1213  1  0.515800  0.224800  0.164300  1
  O  O1214  1  0.484200  0.775200  0.835700  1
  O  O1215  1  0.617000  0.298000  0.236000  1
  O  O1216  1  0.383000  0.702000  0.764000  1
  O  O1217  1  0.998500  0.868200  0.180600  1
  O  O1218  1  0.001500  0.131800  0.819400  1
  O  O1219  1  0.011800  0.521700  0.559700  1
  O  O1220  1  0.988200  0.478300  0.440300  1
  O  O1221  1  0.616000  0.411000  0.403000  1
  O  O1222  1  0.384000  0.589000  0.597000  1
  O  O1223  1  0.974000  0.107000  0.905500  1
  O  O1224  1  0.026000  0.893000  0.094500  1
  O  O1225  1  0.094400  0.865200  0.266100  1
  O  O1226  1  0.905600  0.134800  0.733900  1
  O  O1227  1  0.256100  0.223400  0.979200  1
  O  O1228  1  0.743900  0.776600  0.020800  1
  O  O1229  1  0.975400  0.011500  0.956500  1
  O  O1230  1  0.024600  0.988500  0.043500  1
  O  O1231  1  0.904600  0.917300  0.815000  1
  O  O1232  1  0.095400  0.082700  0.185000  1
  O  O1233  1  0.896500  0.480100  0.122500  1
  O  O1234  1  0.103500  0.519900  0.877500  1
  O  O1235  1  0.920800  0.566100  0.249700  1
  O  O1236  1  0.079200  0.433900  0.750300  1
  O  O1237  1  0.842700  0.053100  0.646900  1
  O  O1238  1  0.157300  0.946900  0.353100  1
  O  O1239  1  0.816000  0.034000  0.642800  1
  O  O1240  1  0.184000  0.966000  0.357200  1
  O  O1241  1  0.970000  0.477000  0.077000  1
  O  O1242  1  0.030000  0.523000  0.923000  1
  O  O1243  1  0.109800  0.133900  0.563100  1
  O  O1244  1  0.890200  0.866100  0.436900  1
  O  O1245  1  0.360600  0.223300  0.023400  1
  O  O1246  1  0.639400  0.776700  0.976600  1
  O  O1247  1  0.151400  0.236200  0.515400  1
  O  O1248  1  0.848600  0.763800  0.484600  1
  O  O1249  1  0.450700  0.566300  0.440500  1
  O  O1250  1  0.549300  0.433700  0.559500  1
  O  O1251  1  0.460700  0.599200  0.418100  1
  O  O1252  1  0.539300  0.400800  0.581900  1
  O  O1253  1  0.162000  0.203300  0.200000  1
  O  O1254  1  0.838000  0.796700  0.800000  1
  O  O1255  1  0.057100  0.626100  0.562600  1
  O  O1256  1  0.942900  0.373900  0.437400  1
  O  O1257  1  0.069400  0.524700  0.134200  1
  O  O1258  1  0.930600  0.475300  0.865800  1
  O  O1259  1  0.182100  0.215200  0.122100  1
  O  O1260  1  0.817900  0.784800  0.877900  1
  O  O1261  1  0.223800  0.228900  0.127900  1
  O  O1262  1  0.776200  0.771100  0.872100  1
  O  O1263  1  0.266800  0.246900  0.162300  1
  O  O1264  1  0.733200  0.753100  0.837700  1
  O  O1265  1  0.681500  0.175300  0.337600  1
  O  O1266  1  0.318500  0.824700  0.662400  1
  O  O1267  1  0.733000  0.229600  0.343900  1
  O  O1268  1  0.267000  0.770400  0.656100  1
  O  O1269  1  0.479100  0.460500  0.394700  1
  O  O1270  1  0.520900  0.539500  0.605300  1
