
#######################################################################
#
#                 Cambridge Crystallographic Data Centre
#                                CCDC 
#
#######################################################################
#
# If this CIF has been generated from an entry in the Cambridge 
# Structural Database, then it will include bibliographic, chemical, 
# crystal, experimental, refinement or atomic coordinate data resulting 
# from the CCDC's data processing and validation procedures.
#
#######################################################################

data_SIZQEY
_chemical_formula_moiety         
'C120 H156 N30 Pd6 12+,3(C16 H10 N8),12(N1 O3 1-),68.5(H2 O1)'
_chemical_name_systematic        
"bis(\m~3~-2,4,6-tris(4-Pyridyl)-1,3,5-triazine)-tris(\m~2~-1,4-bis(4-pyridyl)benzene)-hexakis(N,N,N',N'-tetramethylethylenediamine)-hexa-palladium tris(porphyrazine) clathrate dodecanitrate hydrate"
_symmetry_cell_setting           triclinic
_symmetry_space_group_name_H-M   'P -1'
_symmetry_Int_Tables_number      2
_space_group_name_Hall           '-P 1'
loop_
_symmetry_equiv_pos_site_id
_symmetry_equiv_pos_as_xyz
1 x,y,z
2 -x,-y,-z
_cell_length_a                   20.025(3)
_cell_length_b                   26.094(4)
_cell_length_c                   26.215(4)
_cell_angle_alpha                107.593(2)
_cell_angle_beta                 102.779(2)
_cell_angle_gamma                95.762(2)
_cell_volume                     12526.3
_exptl_crystal_colour            black
_exptl_crystal_description       plate
_cell_formula_units_Z            2
loop_
_atom_site_label
_atom_site_type_symbol
_atom_site_fract_x
_atom_site_fract_y
_atom_site_fract_z
Pd1 Pd 0.94835(3) 0.051014(19) 1.31926(2)
Pd2 Pd 0.75671(3) 0.53495(2) 1.38651(2)
Pd3 Pd 1.27048(3) 0.42350(2) 1.18705(2)
Pd4 Pd 0.58623(3) -0.16465(2) 0.69578(2)
Pd5 Pd 0.30759(2) 0.27579(2) 0.78757(2)
Pd6 Pd 0.83922(3) 0.24707(2) 0.58016(2)
C1 C 0.9004(4) 0.1522(3) 1.3134(3)
C2 C 0.8976(3) 0.2005(2) 1.3021(3)
C3 C 0.9442(3) 0.2170(2) 1.2763(3)
C4 C 0.9915(4) 0.1834(2) 1.2611(3)
C5 C 0.9920(3) 0.1363(2) 1.2749(3)
C6 C 0.8587(4) 0.4865(3) 1.3329(3)
C7 C 0.8932(3) 0.4476(3) 1.3072(3)
C8 C 0.8765(3) 0.3942(2) 1.3063(3)
C9 C 0.8251(3) 0.3820(2) 1.3304(3)
C10 C 0.7923(4) 0.4232(3) 1.3544(3)
C11 C 1.1348(4) 0.4245(3) 1.2124(3)
C12 C 1.0757(4) 0.4064(3) 1.2239(3)
C13 C 1.0618(4) 0.3523(2) 1.2222(3)
C14 C 1.1075(4) 0.3183(3) 1.2054(3)
C15 C 1.1659(4) 0.3393(3) 1.1943(3)
C16 C 0.9483(3) 0.2702(2) 1.2673(3)
C17 C 0.9168(3) 0.3531(2) 1.2821(3)
C18 C 1.0038(3) 0.3341(2) 1.2415(3)
N1 N 0.9477(3) 0.12178(19) 1.3010(2)
N2 N 0.8101(3) 0.4749(2) 1.3568(2)
N3 N 1.1812(3) 0.3920(2) 1.1990(3)
N4 N 0.9055(3) 0.3033(2) 1.2864(2)
N5 N 0.9640(3) 0.3700(2) 1.2596(2)
N6 N 0.9969(3) 0.2827(2) 1.2441(2)
C19 C 0.6464(3) -0.0567(3) 0.6979(3)
C20 C 0.6528(3) -0.0020(3) 0.7043(3)
C21 C 0.6032(3) 0.0263(2) 0.7232(3)
C22 C 0.5511(3) -0.0005(3) 0.7378(3)
C23 C 0.5478(3) -0.0554(3) 0.7299(3)
C24 C 0.7291(3) 0.2454(3) 0.6382(3)
C25 C 0.6874(3) 0.2271(3) 0.6667(3)
C26 C 0.6908(3) 0.1768(2) 0.6731(3)
C27 C 0.7365(4) 0.1459(3) 0.6492(3)
C28 C 0.7755(4) 0.1665(3) 0.6209(3)
C29 C 0.4413(3) 0.2637(3) 0.7623(3)
C30 C 0.4982(3) 0.2403(2) 0.7533(3)
C31 C 0.5025(3) 0.1891(2) 0.7591(2)
C32 C 0.4518(3) 0.1654(2) 0.7773(2)
C33 C 0.3974(3) 0.1914(3) 0.7862(3)
C34 C 0.6048(3) 0.0842(2) 0.7255(3)
C35 C 0.6457(3) 0.1543(2) 0.7017(3)
C36 C 0.5584(3) 0.1604(2) 0.7426(2)
N7 N 0.5941(3) -0.0830(2) 0.7094(2)
N8 N 0.7721(3) 0.2158(2) 0.6155(2)
N9 N 0.3912(3) 0.2392(2) 0.7777(2)
N10 N 0.6506(3) 0.1044(2) 0.7032(2)
N11 N 0.6019(2) 0.18454(19) 0.7218(2)
N12 N 0.5576(3) 0.1101(2) 0.7458(2)
C37 C 0.9331(4) -0.0039(3) 1.2024(3)
C38 C 0.9046(4) -0.0253(3) 1.1462(3)
C39 C 0.8332(4) -0.0299(3) 1.1248(3)
C40 C 0.7947(4) -0.0120(3) 1.1635(3)
C41 C 0.8271(4) 0.0087(3) 1.2190(3)
C48 C 0.802(2) -0.052(2) 1.0596(10)
C49 C 0.8406(7) -0.0469(6) 1.0226(6)
C50 C 0.8096(6) -0.0657(6) 0.9666(5)
C51 C 0.7385(19) -0.0904(19) 0.9437(10)
C52 C 0.7033(8) -0.0973(8) 0.9825(6)
C53 C 0.7350(8) -0.0764(7) 1.0388(6)
C54 C 0.6013(4) -0.1397(3) 0.8143(3)
C55 C 0.6316(4) -0.1229(3) 0.8703(3)
C56 C 0.7040(4) -0.1097(3) 0.8899(3)
C57 C 0.7410(4) -0.1138(3) 0.8502(3)
C58 C 0.7071(4) -0.1313(3) 0.7948(3)
N13 N 0.8948(3) 0.0130(2) 1.2385(2)
N14 N 0.6388(3) -0.1444(2) 0.7764(3)
C59 C 0.6380(3) 0.4662(3) 1.2956(3)
C60 C 0.5983(3) 0.4410(3) 1.2418(3)
C61 C 0.6147(3) 0.4578(3) 1.1997(3)
C62 C 0.6714(4) 0.4997(3) 1.2144(3)
C63 C 0.7091(3) 0.5229(3) 1.2687(3)
C64 C 0.5720(4) 0.4320(3) 1.1416(3)
C65 C 0.5383(4) 0.3777(3) 1.1221(3)
C66 C 0.4972(4) 0.3546(3) 1.0687(3)
C67 C 0.4878(4) 0.3849(3) 1.0330(3)
C68 C 0.5219(4) 0.4391(3) 1.0521(3)
C69 C 0.5644(4) 0.4622(3) 1.1059(3)
C70 C 0.4100(4) 0.3569(3) 0.8809(3)
C71 C 0.4516(4) 0.3809(3) 0.9344(3)
C72 C 0.4429(3) 0.3606(3) 0.9759(3)
C73 C 0.3910(3) 0.3148(3) 0.9610(3)
C74 C 0.3518(3) 0.2919(3) 0.9069(3)
N15 N 0.6929(3) 0.5065(2) 1.3089(2)
N16 N 0.3610(3) 0.3122(2) 0.8666(2)
C75 C 1.1723(4) 0.4321(3) 1.0898(3)
C76 C 1.1313(4) 0.4166(3) 1.0363(3)
C77 C 1.1359(4) 0.3687(3) 0.9968(3)
C78 C 1.1831(4) 0.3381(3) 1.0146(3)
C79 C 1.2212(4) 0.3546(3) 1.0683(3)
C80 C 1.0934(4) 0.3519(3) 0.9391(3)
C81 C 1.0742(4) 0.3912(3) 0.9145(3)
C82 C 1.0364(3) 0.3761(3) 0.8612(3)
C83 C 1.0146(3) 0.3207(3) 0.8279(3)
C84 C 1.0326(4) 0.2818(3) 0.8520(3)
C85 C 1.0713(4) 0.2966(3) 0.9060(3)
C86 C 0.9432(3) 0.2431(3) 0.6761(3)
C87 C 0.9788(3) 0.2562(3) 0.7299(3)
C88 C 0.9757(3) 0.3052(3) 0.7696(3)
C89 C 0.9343(3) 0.3389(3) 0.7497(3)
C90 C 0.8994(3) 0.3235(3) 0.6950(3)
N17 N 1.2171(3) 0.4015(2) 1.1064(2)
N18 N 0.9033(3) 0.2761(2) 0.6579(2)
C91 C 1.0807(5) 0.1108(5) 1.3992(4)
C92 C 0.9807(6) 0.1322(5) 1.4327(4)
C93 C 1.0127(7) 0.0447(5) 1.4242(4)
C94 C 0.9556(18) -0.0010(8) 1.4010(8)
C95 C 0.9727(7) -0.0619(4) 1.3040(6)
C98 C 0.858(3) -0.0482(12) 1.322(2)
C99 C 0.8333(14) 0.5202(6) 1.4881(6)
C101 C 0.8915(6) 0.5847(5) 1.4648(4)
C102 C 0.7787(19) 0.5954(14) 1.5009(8)
C104 C 0.7391(7) 0.6241(5) 1.4741(4)
C105 C 0.6304(5) 0.5728(4) 1.4099(4)
C106 C 0.7024(5) 0.6346(3) 1.3843(4)
C107 C 1.2879(6) 0.4719(4) 1.3095(4)
C108 C 1.3411(5) 0.3931(4) 1.2794(4)
C109 C 1.3900(6) 0.4810(4) 1.2773(5)
C110 C 1.4156(5) 0.4628(4) 1.2265(5)
C111 C 1.3524(5) 0.5141(3) 1.1760(4)
C112 C 1.3809(5) 0.4281(4) 1.1265(5)
C113 C 0.4670(5) -0.1628(5) 0.6083(4)
C114 C 0.5738(6) -0.1643(5) 0.5824(4)
C115 C 0.533(2) -0.2455(9) 0.5866(11)
C116 C 0.520(2) -0.2735(7) 0.6249(8)
C121 C 0.527(2) -0.2656(9) 0.7090(10)
C122 C 0.6515(13) -0.2591(8) 0.7068(16)
C123 C 0.2899(5) 0.2403(4) 0.6653(4)
C124 C 0.2241(5) 0.1806(3) 0.6988(3)
C125 C 0.1907(4) 0.2685(4) 0.6987(4)
C126 C 0.1660(4) 0.2841(4) 0.7502(4)
C127 C 0.2463(5) 0.3718(4) 0.7936(4)
C128 C 0.2059(4) 0.3227(4) 0.8488(4)
C129 C 0.7377(6) 0.1578(4) 0.4862(4)
C130 C 0.7219(5) 0.2481(4) 0.4917(4)
C131 C 0.8206(5) 0.2139(5) 0.4635(4)
C132 C 0.8699(5) 0.2664(4) 0.4848(4)
C133 C 0.9677(5) 0.2504(4) 0.5471(4)
C134 C 0.9300(4) 0.3377(3) 0.5709(4)
N19 N 1.0110(3) 0.0885(2) 1.3991(2)
N20 N 0.9440(6) -0.0191(3) 1.3394(3)
N21 N 0.8217(3) 0.5637(2) 1.4650(2)
N22 N 0.7025(3) 0.5953(2) 1.4154(2)
N23 N 1.3253(4) 0.4444(3) 1.2685(3)
N24 N 1.3610(3) 0.4589(2) 1.1780(3)
N25 N 0.5303(4) -0.1850(3) 0.6146(3)
N26 N 0.5787(5) -0.2472(3) 0.6803(3)
N27 N 0.2500(3) 0.2385(3) 0.7065(2)
N28 N 0.2259(3) 0.3162(3) 0.7963(3)
N29 N 0.7738(3) 0.2147(3) 0.5005(3)
N30 N 0.9071(3) 0.2783(3) 0.5439(3)
H1 H 0.8676 0.1404 1.3305
H2 H 0.8638 0.2219 1.3120
H3 H 1.0228 0.1928 1.2415
H4 H 1.0249 0.1138 1.2654
H5 H 0.8702 0.5229 1.3335
H6 H 0.9279 0.4571 1.2904
H7 H 0.8127 0.3459 1.3305
H8 H 0.7557 0.4146 1.3698
H9 H 1.1439 0.4615 1.2138
H10 H 1.0441 0.4304 1.2329
H11 H 1.0983 0.2807 1.2017
H12 H 1.1968 0.3156 1.1828
H13 H 0.6801 -0.0763 0.6849
H14 H 0.6906 0.0160 0.6960
H15 H 0.5183 0.0186 0.7530
H16 H 0.5117 -0.0742 0.7392
H17 H 0.7270 0.2804 0.6346
H18 H 0.6566 0.2489 0.6819
H19 H 0.7402 0.1110 0.6527
H20 H 0.8059 0.1453 0.6046
H21 H 0.4376 0.2980 0.7575
H22 H 0.5340 0.2587 0.7434
H23 H 0.4548 0.1315 0.7836
H24 H 0.3626 0.1751 0.7989
H25 H 0.9818 -0.0008 1.2165
H26 H 0.9332 -0.0370 1.1220
H27 H 0.7458 -0.0144 1.1510
H28 H 0.8000 0.0205 1.2444
H33 H 0.8884 -0.0303 1.0361
H34 H 0.8370 -0.0620 0.9422
H35 H 0.6568 -0.1168 0.9698
H36 H 0.7082 -0.0794 1.0638
H37 H 0.5519 -0.1484 0.8015
H38 H 0.6036 -0.1203 0.8956
H39 H 0.7903 -0.1043 0.8615
H40 H 0.7339 -0.1341 0.7686
H41 H 0.6263 0.4549 1.3243
H42 H 0.5601 0.4124 1.2335
H43 H 0.6840 0.5122 1.1867
H44 H 0.7477 0.5514 1.2781
H45 H 0.5439 0.3565 1.1460
H46 H 0.4748 0.3175 1.0560
H47 H 0.5160 0.4604 1.0282
H48 H 0.5884 0.4988 1.1184
H49 H 0.4162 0.3724 0.8534
H50 H 0.4868 0.4117 0.9428
H51 H 0.3829 0.2995 0.9881
H52 H 0.3169 0.2606 0.8974
H53 H 1.1690 0.4655 1.1159
H54 H 1.0996 0.4388 1.0262
H55 H 1.1888 0.3053 0.9890
H56 H 1.2519 0.3322 1.0796
H57 H 1.0882 0.4289 0.9358
H58 H 1.0242 0.4035 0.8457
H59 H 1.0177 0.2441 0.8306
H60 H 1.0835 0.2690 0.9213
H61 H 0.9464 0.2096 0.6502
H62 H 1.0064 0.2318 0.7409
H63 H 0.9304 0.3728 0.7746
H64 H 0.8715 0.3470 0.6828
H65 H 1.1091 0.1283 1.4375
H66 H 1.0778 0.1378 1.3801
H67 H 1.1021 0.0812 1.3799
H68 H 1.0122 0.1489 1.4701
H69 H 0.9356 0.1164 1.4352
H70 H 0.9744 0.1601 1.4150
H71 H 1.0562 0.0303 1.4218
H72 H 1.0156 0.0616 1.4641
H73 H 0.9132 0.0101 1.4113
H74 H 0.9672 -0.0311 1.4151
H75 H 0.9688 -0.0945 1.3150
H76 H 1.0218 -0.0484 1.3083
H77 H 0.9466 -0.0712 1.2651
H83 H 0.8544 -0.0820 1.3308
H84 H 0.8384 -0.0564 1.2821
H85 H 0.8334 -0.0228 1.3428
H87 H 0.8544 0.4934 1.4646
H88 H 0.7888 0.5023 1.4896
H89 H 0.8322 0.5434 1.5376
H92 H 0.9216 0.5981 1.5028
H93 H 0.8901 0.6148 1.4497
H94 H 0.9100 0.5555 1.4417
H95 H 0.7479 0.5696 1.5103
H97 H 0.8191 0.6269 1.5340
H99 H 0.7697 0.6575 1.4765
H100 H 0.7041 0.6360 1.4944
H101 H 0.6062 0.6027 1.4242
H102 H 0.6295 0.5478 1.4311
H103 H 0.6070 0.5530 1.3707
H104 H 0.6764 0.6631 1.3985
H105 H 0.6804 0.6152 1.3448
H106 H 0.7504 0.6514 1.3891
H107 H 1.3181 0.4813 1.3472
H108 H 1.2453 0.4472 1.3053
H109 H 1.2759 0.5053 1.3030
H110 H 1.3678 0.4022 1.3181
H111 H 1.3685 0.3752 1.2547
H112 H 1.2975 0.3683 1.2725
H113 H 1.4252 0.4800 1.3099
H114 H 1.3817 0.5190 1.2844
H115 H 1.4568 0.4893 1.2301
H116 H 1.4296 0.4268 1.2224
H117 H 1.3952 0.5323 1.1719
H118 H 1.3428 0.5357 1.2105
H119 H 1.3135 0.5108 1.1444
H120 H 1.4246 0.4478 1.1253
H121 H 1.3440 0.4250 1.0936
H122 H 1.3870 0.3915 1.1270
H123 H 0.4428 -0.1738 0.5688
H124 H 0.4783 -0.1229 0.6241
H125 H 0.4369 -0.1768 0.6277
H126 H 0.5469 -0.1742 0.5437
H127 H 0.6158 -0.1807 0.5840
H128 H 0.5871 -0.1244 0.5987
H129 H 0.4972 -0.2610 0.5506
H130 H 0.5793 -0.2495 0.5799
H131 H 0.5199 -0.3130 0.6090
H132 H 0.4736 -0.2689 0.6318
H133 H 0.5547 -0.3090 0.7052
H144 H 0.4840 -0.2521 0.6993
H145 H 0.5474 -0.2509 0.7493
H146 H 0.6505 -0.2987 0.6949
H147 H 0.6618 -0.2445 0.7473
H148 H 0.6877 -0.2416 0.6946
H149 H 0.263(6) 0.232(4) 0.632(5)
H150 H 0.325(5) 0.216(4) 0.669(4)
H151 H 0.315(5) 0.282(5) 0.677(4)
H152 H 0.1967 0.1620 0.6603
H153 H 0.1947 0.1792 0.7239
H154 H 0.2636 0.1625 0.7071
H155 H 0.2060 0.3017 0.6905
H156 H 0.1521 0.2450 0.6669
H157 H 0.1287 0.3060 0.7463
H158 H 0.1471 0.2510 0.7571
H159 H 0.2083 0.3923 0.7978
H160 H 0.2558 0.3684 0.7578
H161 H 0.2882 0.3912 0.8236
H162 H 0.1669 0.3425 0.8495
H163 H 0.2457 0.3433 0.8803
H164 H 0.1921 0.2866 0.8512
H165 H 0.7076 0.1453 0.4482
H166 H 0.7094 0.1563 0.5120
H167 H 0.7722 0.1340 0.4889
H168 H 0.6917 0.2320 0.4538
H169 H 0.7451 0.2850 0.4971
H170 H 0.6939 0.2501 0.5183
H171 H 0.8466 0.1834 0.4622
H172 H 0.7927 0.2082 0.4253
H173 H 0.8442 0.2962 0.4812
H174 H 0.9040 0.2647 0.4624
H175 H 1.0005 0.2651 0.5301
H176 H 0.9520 0.2111 0.5273
H177 H 0.9907 0.2565 0.5861
H178 H 0.9619 0.3512 0.5525
H179 H 0.9539 0.3457 0.6101
H180 H 0.8894 0.3558 0.5682
C135 C 0.5713(4) 0.1016(3) 0.9059(3)
C136 C 0.5462(4) 0.0516(3) 0.9137(3)
C137 C 0.5866(4) 0.0152(3) 0.8962(3)
C138 C 0.6382(3) 0.0425(3) 0.8774(3)
C139 C 0.7332(4) 0.0463(2) 0.8412(3)
C140 C 0.7892(4) 0.0223(3) 0.8219(3)
C141 C 0.8235(4) 0.0584(3) 0.8060(3)
C142 C 0.7892(3) 0.1060(3) 0.8156(3)
C143 C 0.7809(4) 0.1938(3) 0.8142(3)
C144 C 0.8023(4) 0.2419(3) 0.8015(3)
C145 C 0.7609(4) 0.2781(3) 0.8196(3)
C146 C 0.7144(4) 0.2538(3) 0.8434(3)
C147 C 0.6239(4) 0.2515(3) 0.8851(3)
C148 C 0.5706(4) 0.2772(3) 0.9089(3)
C149 C 0.5358(4) 0.2402(3) 0.9240(3)
C150 C 0.5672(3) 0.1912(3) 0.9096(3)
N31 N 0.6260(3) 0.0945(2) 0.8837(2)
N32 N 0.6875(3) 0.0200(2) 0.8586(2)
N33 N 0.7354(3) 0.0977(2) 0.8371(2)
N34 N 0.8105(3) 0.1499(2) 0.8038(3)
N35 N 0.7285(3) 0.2024(2) 0.8392(2)
N36 N 0.6673(3) 0.2768(2) 0.8655(2)
N37 N 0.6197(3) 0.1995(2) 0.8866(2)
N38 N 0.5436(3) 0.1465(2) 0.9188(2)
H181 H 0.5081 0.0454 0.9285
H182 H 0.5821 -0.0214 0.8962
H183 H 0.7995 -0.0127 0.8210
H184 H 0.8626 0.0540 0.7912
H185 H 0.8379 0.2474 0.7840
H186 H 0.7627 0.3137 0.8169
H187 H 0.5624 0.3132 0.9127
H188 H 0.4983 0.2448 0.9407
H189 H 0.6497 0.1191 0.8747
H190 H 0.7070 0.1788 0.8508
C151 C 0.6875(5) 0.3272(4) 1.0338(4)
C152 C 0.6914(6) 0.3822(4) 1.0317(4)
C153 C 0.7419(6) 0.3927(4) 1.0083(4)
C154 C 0.7718(5) 0.3439(4) 0.9947(4)
C155 C 0.8518(4) 0.2931(3) 0.9600(3)
C156 C 0.9083(4) 0.2868(4) 0.9332(4)
C157 C 0.9218(4) 0.2364(3) 0.9275(3)
C158 C 0.8743(4) 0.2122(3) 0.9519(3)
C159 C 0.8302(3) 0.1377(3) 0.9738(3)
C160 C 0.8285(4) 0.0835(3) 0.9764(3)
C161 C 0.7763(4) 0.0735(3) 0.9988(3)
C162 C 0.7450(4) 0.1213(3) 1.0111(3)
C163 C 0.6646(4) 0.1714(4) 1.0448(3)
C164 C 0.6081(4) 0.1765(4) 1.0713(4)
C165 C 0.5948(4) 0.2271(4) 1.0762(4)
C166 C 0.6430(4) 0.2526(4) 1.0543(3)
N39 N 0.7383(3) 0.3059(3) 1.0107(3)
N40 N 0.8241(4) 0.3384(3) 0.9708(3)
N41 N 0.8314(3) 0.2467(3) 0.9699(2)
N42 N 0.8740(3) 0.1613(2) 0.9536(2)
N43 N 0.7789(3) 0.1596(2) 0.9955(2)
N44 N 0.6916(3) 0.1255(3) 1.0339(3)
N45 N 0.6854(3) 0.2181(3) 1.0357(2)
N46 N 0.6437(4) 0.3035(3) 1.0545(3)
H191 H 0.6626 0.4071 1.0450
H192 H 0.7554 0.4257 1.0019
H193 H 0.9312 0.3134 0.9219
H194 H 0.9555 0.2199 0.9109
H195 H 0.8586 0.0592 0.9645
H196 H 0.7627 0.0406 1.0053
H197 H 0.5853 0.1499 1.0827
H198 H 0.5599 0.2430 1.0913
H199 H 0.7477 0.2729 1.0068
H200 H 0.7696 0.1925 0.9988
C167 C 0.9252(5) 0.3368(3) 1.1044(3)
C168 C 0.9792(6) 0.3517(4) 1.0815(4)
C169 C 1.0113(6) 0.3080(4) 1.0684(4)
C170 C 0.9771(5) 0.2671(4) 1.0855(4)
C171 C 0.9644(4) 0.1807(3) 1.0936(3)
C172 C 0.9856(5) 0.1286(4) 1.0868(4)
C173 C 0.9428(5) 0.1006(4) 1.1067(4)
C174 C 0.8943(4) 0.1345(3) 1.1254(3)
C175 C 0.8029(4) 0.1540(3) 1.1640(3)
C176 C 0.7490(5) 0.1396(4) 1.1888(4)
C177 C 0.7180(5) 0.1831(5) 1.2013(4)
C178 C 0.7516(4) 0.2251(4) 1.1851(4)
C179 C 0.7641(5) 0.3119(4) 1.1771(4)
C180 C 0.7463(6) 0.3662(4) 1.1844(4)
C181 C 0.7888(6) 0.3929(4) 1.1642(4)
C182 C 0.8335(5) 0.3583(3) 1.1446(4)
N47 N 0.9246(4) 0.2853(3) 1.1070(3)
N48 N 0.9957(4) 0.2189(3) 1.0786(3)
N49 N 0.9095(4) 0.1829(3) 1.1162(3)
N50 N 0.8449(4) 0.1206(3) 1.1469(3)
N51 N 0.8026(3) 0.2065(3) 1.1624(3)
N52 N 0.7327(4) 0.2741(4) 1.1924(3)
N53 N 0.8179(4) 0.3086(3) 1.1523(3)
N54 N 0.8828(5) 0.3702(3) 1.1214(3)
H201 H 0.9906 0.3857 1.0763
H202 H 1.0487 0.3049 1.0514
H203 H 1.0223 0.1162 1.0715
H204 H 0.9444 0.0647 1.1080
H205 H 0.7380 0.1061 1.1949
H206 H 0.6804 0.1859 1.2180
H207 H 0.7110 0.3800 1.2005
H208 H 0.7887 0.4290 1.1633
H209 H 0.8963 0.2677 1.1198
H210 H 0.8303 0.2244 1.1492
N55 N 0.9461(6) 0.1133(4) 0.5608(4)
O1 O 1.0010(5) 0.1392(3) 0.5983(4)
O2 O 0.8919(4) 0.1316(3) 0.5544(4)
O3 O 0.9453(6) 0.0653(4) 0.5275(3)
N56 N 0.5876(6) 0.0643(5) 0.1728(4)
O4 O 0.5841(6) 0.0678(8) 0.2203(4)
O5 O 0.6162(5) 0.0287(4) 0.1465(4)
O6 O 0.5545(6) 0.0971(4) 0.1502(5)
N57 N 0.9439(17) 0.7237(13) 0.5938(14)
O8 O 0.9013(9) 0.7531(7) 0.6091(7)
O9 O 0.9640(8) 0.6853(6) 0.6147(6)
O10 O 1.0118(13) 0.7075(10) 0.5676(10)
N59 N 0.8191(4) 0.8320(3) 0.1717(4)
O13 O 0.7579(3) 0.8188(3) 0.1707(3)
O14 O 0.8345(4) 0.8528(4) 0.1391(4)
O15 O 0.8685(4) 0.8237(4) 0.2056(3)
N60 N 0.4337(8) 0.2954(6) 0.1616(6)
O16 O 0.3740(9) 0.2963(9) 0.1363(8)
O17 O 0.4662(7) 0.2594(5) 0.1430(5)
O18 O 0.4670(11) 0.3351(6) 0.2063(7)
N62 N 0.1568(6) 0.0538(4) 0.2937(5)
O22 O 0.1707(7) 0.0879(4) 0.2722(5)
O23 O 0.2024(5) 0.0499(6) 0.3336(5)
O24 O 0.0995(4) 0.0225(3) 0.2768(4)
N63 N 0.7437(7) 0.5218(6) 0.0939(6)
O25 O 0.6917(5) 0.5397(4) 0.0804(5)
O26 O 0.7657(8) 0.5077(6) 0.1343(6)
O27 O 0.7914(6) 0.5252(5) 0.0674(5)
O31 O 1.3802(16) 0.4874(12) 0.9985(12)
N64 N 0.7778(10) 0.0680(15) 0.3585(11)
O34 O 0.7511(8) 0.0812(8) 0.3192(7)
O35 O 0.8382(7) 0.0849(6) 0.3857(7)
O36 O 0.7412(10) 0.0433(8) 0.3808(8)
O37 O 0.6706(15) 0.0922(12) 0.3390(12)
N65 N 0.5663(3) 0.5889(2) 0.2370(3)
O40 O 0.6128(3) 0.6271(2) 0.2497(3)
O41 O 0.5357(4) 0.5651(3) 0.1878(3)
O42 O 0.5498(3) 0.5698(2) 0.2720(3)
N66 N 1.2149(8) 0.5833(5) 1.2435(7)
O43 O 1.2655(13) 0.6009(11) 1.2845(9)
O44 O 1.1588(9) 0.5535(7) 1.2334(10)
O45 O 1.2174(10) 0.6065(9) 1.2078(9)
N67 N 0.5644(10) 0.4365(9) 1.3995(8)
O50 O 0.5253(8) 0.4154(7) 1.3528(7)
O51 O 0.6275(8) 0.4412(7) 1.4145(7)
O52 O 0.5351(17) 0.4611(16) 1.4368(12)
N68 N 0.8890(9) 0.6246(8) 1.3233(7)
O54 O 0.8783(10) 0.5866(7) 1.2891(8)
O55 O 0.8546(11) 0.6302(10) 1.3598(9)
O56 O 0.9335(11) 0.6606(9) 1.3218(8)
N70 N 0.7094(11) 0.2732(9) 0.3618(14)
O59 O 0.7692(9) 0.2658(8) 0.3604(8)
O60 O 0.6960(10) 0.3184(8) 0.3809(9)
O61 O 0.6590(10) 0.2311(8) 0.3428(8)
O62 O 0.6260(4) 0.3445(3) 0.7456(3)
O63 O 0.6536(5) 0.3809(4) 0.8609(4)
O64 O 0.7302(6) 0.7962(5) 0.5328(5)
O65 O 0.6576(4) 0.8804(3) 0.1353(3)
O66 O 0.5989(4) 0.9540(4) 0.2051(4)
O67 O 0.6926(5) 0.8781(4) 0.4926(4)
O68 O 0.5345(6) 0.9497(5) 0.5715(5)
O69 O 0.6613(7) 0.9731(5) 0.5565(5)
O70 O 0.0332(9) 0.5317(6) 0.2847(6)
O72 O 0.5726(7) 0.4420(5) -0.0915(6)
O74 O 0.2362(6) 0.5359(5) 0.0756(5)
O75 O 0.2322(4) 0.3550(4) 0.3477(4)
O76 O 0.2574(5) 0.1773(4) 0.3544(4)
O77 O 0.6453(5) 0.5906(4) 0.5739(4)
O78 O 0.7559(4) 0.3654(3) 0.6123(3)
O79 O 0.6139(5) 0.7144(4) 0.4836(4)
O80 O 0.7856(4) 0.4375(3) 0.5604(3)
O81 O 0.8109(4) 0.3767(3) 0.4619(3)
O82 O 0.6638(5) 0.4817(4) 0.5302(4)
O83 O 0.4483(7) 1.0099(6) 0.6082(6)
O84 O 0.8234(4) 0.7549(3) 0.6845(3)
O85 O 0.8846(4) 0.6073(3) 0.6431(3)
O86 O 0.9103(4) 0.5028(4) 0.6255(4)
O87 O 0.5553(6) 0.6354(4) 0.5162(4)
O88 O 0.2190(5) 0.0807(4) 0.5564(4)
O89 O 0.6597(6) 0.0400(5) 0.4953(5)
O90 O 0.5730(5) 0.1149(4) 0.5209(4)
O93 O 0.5909(11) 0.2597(9) 0.2162(9)
O94 O 0.647(2) 0.3267(17) 0.2676(17)
O97 O 0.6027(4) 0.0380(3) 0.0461(3)
O98 O 0.9811(5) 0.8617(4) 0.1541(4)
O100 O 0.4833(6) 0.6468(5) 0.3244(5)
O101 O 0.4320(3) 0.1379(2) 0.9706(2)
O102 O 0.5168(5) 0.1043(4) 0.6063(4)
O103 O -0.0087(8) 0.4899(6) 0.5664(6)
O105 O 0.4670(6) 0.2544(5) 0.6021(5)
O106 O 0.4100(6) 0.1610(5) 0.6067(5)
O107 O 0.5646(7) 0.1754(6) 0.2605(6)
O108 O 0.9975(5) 0.1162(4) 0.9380(4)
O111 O 0.6200(13) 0.3405(11) 0.4486(11)
O112 O 1.0711(5) 0.8533(4) 0.2415(4)
O114 O 0.4338(4) -0.2247(3) 0.4550(3)
O115 O 1.2223(8) 0.2137(5) 0.9611(6)
O117 O 0.3326(6) 0.1067(4) 0.6506(4)
O118 O 0.6269(5) 0.9745(4) 0.3145(4)
O119 O 0.9562(9) 0.0051(7) 0.9221(8)
O121 O 0.9072(7) -0.0694(6) 0.8462(7)
O123 O 0.9166(7) 0.4731(5) 1.1010(6)
O125 O 0.6226(7) 0.3241(5) 0.5481(5)
O126 O 0.7993(8) 0.0301(6) 0.4689(6)
O127 O 0.1032(8) 0.5640(6) 0.0347(6)
O129 O -0.0527(16) 0.5449(12) 0.2336(12)
O130 O 0.2243(18) -0.0163(13) 0.3586(13)
O132 O 0.8814(18) 0.0903(15) 0.6499(14)
O134 O 0.9919(13) 0.4822(10) 1.0348(11)
O136 O 0.1258(7) 0.1539(6) 0.5559(6)
O139 O 0.3969(10) 0.2244(7) 1.0305(7)
O140 O 0.4596(4) 0.0626(3) 0.0236(3)
O141 O 0.1356(11) 0.2480(9) 0.5622(9)
O142 O 0.1077(7) 0.2072(6) 0.0123(6)
O144 O 0.1740(9) 0.2483(7) 0.4756(8)
O145 O 0.4164(16) 0.6050(12) 0.3758(13)
O147 O 0.5404(11) 0.4651(10) 0.5675(9)
O149 O 1.1310(5) 0.1890(4) 1.2036(3)
O151 O 1.1521(19) 0.1884(15) 1.1379(15)
O152 O 1.2251(18) 0.2350(14) 1.2085(14)
O153 O 0.0586(8) 0.5808(7) 0.5421(7)
O155 O 1.0072(18) 0.6143(15) 0.5965(14)
O157 O 1.1082(17) 0.5664(14) 1.1331(14)
O158 O 1.0388(12) 0.5100(10) 1.1748(10)
O160 O 1.2369(15) 0.2306(12) 1.0830(13)
O163 O 0.7335(14) 0.1840(12) 0.3328(11)
O167 O 0.243(2) -0.0294(18) 0.4435(18)
loop_
_geom_bond_atom_site_label_1
_geom_bond_atom_site_label_2
_geom_bond_site_symmetry_1
_geom_bond_site_symmetry_2
Pd1 N1 1_555 1_555
Pd2 N2 1_555 1_555
Pd3 N3 1_555 1_555
Pd4 N7 1_555 1_555
Pd5 N9 1_555 1_555
Pd6 N8 1_555 1_555
C1 C2 1_555 1_555
C2 C3 1_555 1_555
C3 C4 1_555 1_555
C4 C5 1_555 1_555
C5 N1 1_555 1_555
C6 C7 1_555 1_555
C7 C8 1_555 1_555
C8 C9 1_555 1_555
C9 C10 1_555 1_555
C10 N2 1_555 1_555
C11 C12 1_555 1_555
C12 C13 1_555 1_555
C13 C14 1_555 1_555
C14 C15 1_555 1_555
C15 N3 1_555 1_555
C16 C3 1_555 1_555
C17 C8 1_555 1_555
C18 C13 1_555 1_555
N1 C1 1_555 1_555
N2 C6 1_555 1_555
N3 C11 1_555 1_555
N4 C16 1_555 1_555
N5 C17 1_555 1_555
N6 C16 1_555 1_555
C19 C20 1_555 1_555
C20 C21 1_555 1_555
C21 C22 1_555 1_555
C22 C23 1_555 1_555
C23 N7 1_555 1_555
C24 C25 1_555 1_555
C25 C26 1_555 1_555
C26 C27 1_555 1_555
C27 C28 1_555 1_555
C28 N8 1_555 1_555
C29 C30 1_555 1_555
C30 C31 1_555 1_555
C31 C32 1_555 1_555
C32 C33 1_555 1_555
C33 N9 1_555 1_555
C34 C21 1_555 1_555
C35 C26 1_555 1_555
C36 C31 1_555 1_555
N7 C19 1_555 1_555
N8 C24 1_555 1_555
N9 C29 1_555 1_555
N10 C34 1_555 1_555
N11 C35 1_555 1_555
N12 C34 1_555 1_555
C37 C38 1_555 1_555
C38 C39 1_555 1_555
C39 C40 1_555 1_555
C40 C41 1_555 1_555
C41 N13 1_555 1_555
C48 C39 1_555 1_555
C49 C48 1_555 1_555
C50 C49 1_555 1_555
C51 C50 1_555 1_555
C52 C51 1_555 1_555
C53 C48 1_555 1_555
C54 C55 1_555 1_555
C55 C56 1_555 1_555
C56 C51 1_555 1_555
C57 C56 1_555 1_555
C58 C57 1_555 1_555
N13 Pd1 1_555 1_555
N14 Pd4 1_555 1_555
C59 C60 1_555 1_555
C60 C61 1_555 1_555
C61 C62 1_555 1_555
C62 C63 1_555 1_555
C63 N15 1_555 1_555
C64 C61 1_555 1_555
C65 C64 1_555 1_555
C66 C65 1_555 1_555
C67 C66 1_555 1_555
C68 C67 1_555 1_555
C69 C64 1_555 1_555
C70 C71 1_555 1_555
C71 C72 1_555 1_555
C72 C67 1_555 1_555
C73 C72 1_555 1_555
C74 C73 1_555 1_555
N15 Pd2 1_555 1_555
N16 Pd5 1_555 1_555
C75 C76 1_555 1_555
C76 C77 1_555 1_555
C77 C78 1_555 1_555
C78 C79 1_555 1_555
C79 N17 1_555 1_555
C80 C77 1_555 1_555
C81 C80 1_555 1_555
C82 C81 1_555 1_555
C83 C82 1_555 1_555
C84 C83 1_555 1_555
C85 C80 1_555 1_555
C86 C87 1_555 1_555
C87 C88 1_555 1_555
C88 C83 1_555 1_555
C89 C88 1_555 1_555
C90 C89 1_555 1_555
N17 Pd3 1_555 1_555
N18 Pd6 1_555 1_555
C91 N19 1_555 1_555
C92 N19 1_555 1_555
C93 C94 1_555 1_555
C94 N20 1_555 1_555
C95 N20 1_555 1_555
C98 N20 1_555 1_555
C99 N21 1_555 1_555
C101 N21 1_555 1_555
C102 C104 1_555 1_555
C104 N22 1_555 1_555
C105 N22 1_555 1_555
C106 N22 1_555 1_555
C107 N23 1_555 1_555
C108 N23 1_555 1_555
C109 C110 1_555 1_555
C110 N24 1_555 1_555
C111 N24 1_555 1_555
C112 N24 1_555 1_555
C113 N25 1_555 1_555
C114 N25 1_555 1_555
C115 C116 1_555 1_555
C116 N26 1_555 1_555
C121 N26 1_555 1_555
C122 N26 1_555 1_555
C123 N27 1_555 1_555
C124 N27 1_555 1_555
C125 C126 1_555 1_555
C126 N28 1_555 1_555
C127 N28 1_555 1_555
C128 N28 1_555 1_555
C129 N29 1_555 1_555
C130 N29 1_555 1_555
C131 C132 1_555 1_555
C132 N30 1_555 1_555
C133 N30 1_555 1_555
C134 N30 1_555 1_555
N19 Pd1 1_555 1_555
N20 Pd1 1_555 1_555
N21 Pd2 1_555 1_555
N22 Pd2 1_555 1_555
N23 Pd3 1_555 1_555
N24 Pd3 1_555 1_555
N25 Pd4 1_555 1_555
N26 Pd4 1_555 1_555
N27 Pd5 1_555 1_555
N28 Pd5 1_555 1_555
N29 Pd6 1_555 1_555
N30 Pd6 1_555 1_555
C135 C136 1_555 1_555
C136 C137 1_555 1_555
C137 C138 1_555 1_555
C138 N31 1_555 1_555
C139 C140 1_555 1_555
C140 C141 1_555 1_555
C141 C142 1_555 1_555
C142 N33 1_555 1_555
C143 C144 1_555 1_555
C144 C145 1_555 1_555
C145 C146 1_555 1_555
C146 N35 1_555 1_555
C147 C148 1_555 1_555
C148 C149 1_555 1_555
C149 C150 1_555 1_555
C150 N37 1_555 1_555
N31 C135 1_555 1_555
N32 C138 1_555 1_555
N33 C139 1_555 1_555
N34 C142 1_555 1_555
N35 C143 1_555 1_555
N36 C146 1_555 1_555
N37 C147 1_555 1_555
N38 C135 1_555 1_555
C151 C152 1_555 1_555
C152 C153 1_555 1_555
C153 C154 1_555 1_555
C154 N39 1_555 1_555
C155 C156 1_555 1_555
C156 C157 1_555 1_555
C157 C158 1_555 1_555
C158 N41 1_555 1_555
C159 C160 1_555 1_555
C160 C161 1_555 1_555
C161 C162 1_555 1_555
C162 N43 1_555 1_555
C163 C164 1_555 1_555
C164 C165 1_555 1_555
C165 C166 1_555 1_555
C166 N45 1_555 1_555
N39 C151 1_555 1_555
N40 C154 1_555 1_555
N41 C155 1_555 1_555
N42 C158 1_555 1_555
N43 C159 1_555 1_555
N44 C162 1_555 1_555
N45 C163 1_555 1_555
N46 C151 1_555 1_555
C167 C168 1_555 1_555
C168 C169 1_555 1_555
C169 C170 1_555 1_555
C170 N47 1_555 1_555
C171 C172 1_555 1_555
C172 C173 1_555 1_555
C173 C174 1_555 1_555
C174 N49 1_555 1_555
C175 C176 1_555 1_555
C176 C177 1_555 1_555
C177 C178 1_555 1_555
C178 N51 1_555 1_555
C179 C180 1_555 1_555
C180 C181 1_555 1_555
C181 C182 1_555 1_555
C182 N53 1_555 1_555
N47 C167 1_555 1_555
N48 C170 1_555 1_555
N49 C171 1_555 1_555
N50 C174 1_555 1_555
N51 C175 1_555 1_555
N52 C178 1_555 1_555
N53 C179 1_555 1_555
N54 C167 1_555 1_555
N55 O1 1_555 1_555
O2 N55 1_555 1_555
O3 N55 1_555 1_555
N56 O4 1_555 1_555
O5 N56 1_555 1_555
O6 N56 1_555 1_555
N57 O8 1_555 1_555
O9 N57 1_555 1_555
O10 N57 1_555 1_555
N59 O13 1_555 1_555
O14 N59 1_555 1_555
O15 N59 1_555 1_555
N60 O16 1_555 1_555
O17 N60 1_555 1_555
O18 N60 1_555 1_555
N62 O22 1_555 1_555
O23 N62 1_555 1_555
O24 N62 1_555 1_555
N63 O25 1_555 1_555
O26 N63 1_555 1_555
O27 N63 1_555 1_555
N64 O34 1_555 1_555
O35 N64 1_555 1_555
O36 N64 1_555 1_555
N65 O40 1_555 1_555
O41 N65 1_555 1_555
O42 N65 1_555 1_555
N66 O43 1_555 1_555
O44 N66 1_555 1_555
O45 N66 1_555 1_555
N67 O50 1_555 1_555
O51 N67 1_555 1_555
O52 N67 1_555 1_555
N68 O54 1_555 1_555
O55 N68 1_555 1_555
O56 N68 1_555 1_555
N70 O59 1_555 1_555
O60 N70 1_555 1_555
O61 N70 1_555 1_555
H1 C1 1_555 1_555
H2 C2 1_555 1_555
H3 C4 1_555 1_555
H4 C5 1_555 1_555
H5 C6 1_555 1_555
H6 C7 1_555 1_555
H7 C9 1_555 1_555
H8 C10 1_555 1_555
H9 C11 1_555 1_555
H10 C12 1_555 1_555
H11 C14 1_555 1_555
H12 C15 1_555 1_555
H13 C19 1_555 1_555
H14 C20 1_555 1_555
H15 C22 1_555 1_555
H16 C23 1_555 1_555
H17 C24 1_555 1_555
H18 C25 1_555 1_555
H19 C27 1_555 1_555
H20 C28 1_555 1_555
H21 C29 1_555 1_555
H22 C30 1_555 1_555
H23 C32 1_555 1_555
H24 C33 1_555 1_555
H25 C37 1_555 1_555
H26 C38 1_555 1_555
H27 C40 1_555 1_555
H28 C41 1_555 1_555
H33 C49 1_555 1_555
H34 C50 1_555 1_555
H35 C52 1_555 1_555
H36 C53 1_555 1_555
H37 C54 1_555 1_555
H38 C55 1_555 1_555
H39 C57 1_555 1_555
H40 C58 1_555 1_555
H41 C59 1_555 1_555
H42 C60 1_555 1_555
H43 C62 1_555 1_555
H44 C63 1_555 1_555
H45 C65 1_555 1_555
H46 C66 1_555 1_555
H47 C68 1_555 1_555
H48 C69 1_555 1_555
H49 C70 1_555 1_555
H50 C71 1_555 1_555
H51 C73 1_555 1_555
H52 C74 1_555 1_555
H53 C75 1_555 1_555
H54 C76 1_555 1_555
H55 C78 1_555 1_555
H56 C79 1_555 1_555
H57 C81 1_555 1_555
H58 C82 1_555 1_555
H59 C84 1_555 1_555
H60 C85 1_555 1_555
H61 C86 1_555 1_555
H62 C87 1_555 1_555
H63 C89 1_555 1_555
H64 C90 1_555 1_555
H65 C91 1_555 1_555
H66 C91 1_555 1_555
H67 C91 1_555 1_555
H68 C92 1_555 1_555
H69 C92 1_555 1_555
H70 C92 1_555 1_555
H71 C93 1_555 1_555
H72 C93 1_555 1_555
H73 C94 1_555 1_555
H74 C94 1_555 1_555
H75 C95 1_555 1_555
H76 C95 1_555 1_555
H77 C95 1_555 1_555
H83 C98 1_555 1_555
H84 C98 1_555 1_555
H85 C98 1_555 1_555
H87 C99 1_555 1_555
H88 C99 1_555 1_555
H89 C99 1_555 1_555
H92 C101 1_555 1_555
H93 C101 1_555 1_555
H94 C101 1_555 1_555
H95 C102 1_555 1_555
H97 C102 1_555 1_555
H99 C104 1_555 1_555
H100 C104 1_555 1_555
H101 C105 1_555 1_555
H102 C105 1_555 1_555
H103 C105 1_555 1_555
H104 C106 1_555 1_555
H105 C106 1_555 1_555
H106 C106 1_555 1_555
H107 C107 1_555 1_555
H108 C107 1_555 1_555
H109 C107 1_555 1_555
H110 C108 1_555 1_555
H111 C108 1_555 1_555
H112 C108 1_555 1_555
H113 C109 1_555 1_555
H114 C109 1_555 1_555
H115 C110 1_555 1_555
H116 C110 1_555 1_555
H117 C111 1_555 1_555
H118 C111 1_555 1_555
H119 C111 1_555 1_555
H120 C112 1_555 1_555
H121 C112 1_555 1_555
H122 C112 1_555 1_555
H123 C113 1_555 1_555
H124 C113 1_555 1_555
H125 C113 1_555 1_555
H126 C114 1_555 1_555
H127 C114 1_555 1_555
H128 C114 1_555 1_555
H129 C115 1_555 1_555
H130 C115 1_555 1_555
H131 C116 1_555 1_555
H132 C116 1_555 1_555
H133 C121 1_555 1_555
H144 C121 1_555 1_555
H145 C121 1_555 1_555
H146 C122 1_555 1_555
H147 C122 1_555 1_555
H148 C122 1_555 1_555
H149 C123 1_555 1_555
H150 C123 1_555 1_555
H151 C123 1_555 1_555
H152 C124 1_555 1_555
H153 C124 1_555 1_555
H154 C124 1_555 1_555
H155 C125 1_555 1_555
H156 C125 1_555 1_555
H157 C126 1_555 1_555
H158 C126 1_555 1_555
H159 C127 1_555 1_555
H160 C127 1_555 1_555
H161 C127 1_555 1_555
H162 C128 1_555 1_555
H163 C128 1_555 1_555
H164 C128 1_555 1_555
H165 C129 1_555 1_555
H166 C129 1_555 1_555
H167 C129 1_555 1_555
H168 C130 1_555 1_555
H169 C130 1_555 1_555
H170 C130 1_555 1_555
H171 C131 1_555 1_555
H172 C131 1_555 1_555
H173 C132 1_555 1_555
H174 C132 1_555 1_555
H175 C133 1_555 1_555
H176 C133 1_555 1_555
H177 C133 1_555 1_555
H178 C134 1_555 1_555
H179 C134 1_555 1_555
H180 C134 1_555 1_555
H181 C136 1_555 1_555
H182 C137 1_555 1_555
H183 C140 1_555 1_555
H184 C141 1_555 1_555
H185 C144 1_555 1_555
H186 C145 1_555 1_555
H187 C148 1_555 1_555
H188 C149 1_555 1_555
H189 N31 1_555 1_555
H190 N35 1_555 1_555
H191 C152 1_555 1_555
H192 C153 1_555 1_555
H193 C156 1_555 1_555
H194 C157 1_555 1_555
H195 C160 1_555 1_555
H196 C161 1_555 1_555
H197 C164 1_555 1_555
H198 C165 1_555 1_555
H199 N39 1_555 1_555
H200 N43 1_555 1_555
H201 C168 1_555 1_555
H202 C169 1_555 1_555
H203 C172 1_555 1_555
H204 C173 1_555 1_555
H205 C176 1_555 1_555
H206 C177 1_555 1_555
H207 C180 1_555 1_555
H208 C181 1_555 1_555
H209 N47 1_555 1_555
H210 N51 1_555 1_555
C17 N4 1_555 1_555
C18 N5 1_555 1_555
C18 N6 1_555 1_555
C35 N10 1_555 1_555
C36 N11 1_555 1_555
C36 N12 1_555 1_555
C37 N13 1_555 1_555
C52 C53 1_555 1_555
C54 N14 1_555 1_555
C58 N14 1_555 1_555
C59 N15 1_555 1_555
C68 C69 1_555 1_555
C70 N16 1_555 1_555
C74 N16 1_555 1_555
C75 N17 1_555 1_555
C84 C85 1_555 1_555
C86 N18 1_555 1_555
C90 N18 1_555 1_555
C93 N19 1_555 1_555
C102 N21 1_555 1_555
C109 N23 1_555 1_555
C115 N25 1_555 1_555
C125 N27 1_555 1_555
C131 N29 1_555 1_555
C139 N32 1_555 1_555
C143 N34 1_555 1_555
C147 N36 1_555 1_555
C150 N38 1_555 1_555
C155 N40 1_555 1_555
C159 N42 1_555 1_555
C163 N44 1_555 1_555
C166 N46 1_555 1_555
C171 N48 1_555 1_555
C175 N50 1_555 1_555
C179 N52 1_555 1_555
C182 N54 1_555 1_555

#END
