
#######################################################################
#
#                 Cambridge Crystallographic Data Centre
#                                CCDC 
#
#######################################################################
#
# If this CIF has been generated from an entry in the Cambridge 
# Structural Database, then it will include bibliographic, chemical, 
# crystal, experimental, refinement or atomic coordinate data resulting 
# from the CCDC's data processing and validation procedures.
#
#######################################################################

data_SODBIX
_chemical_formula_moiety         
'C172 H96 Co4 I12 N20,2(C1 H1 Cl3),2(C6 H5 N1 O2)'
_chemical_name_systematic        
'tetrakis(\m~2~-5-(4-Pyridyl)-10,15,20-tris(4-iodophenyl)porphyrinato)-tetra-cobalt(ii) chloroform nitrobenzene solvate'
_symmetry_cell_setting           monoclinic
_symmetry_space_group_name_H-M   'P 21/n'
_symmetry_Int_Tables_number      14
_space_group_name_Hall           '-P 2yn'
loop_
_symmetry_equiv_pos_site_id
_symmetry_equiv_pos_as_xyz
1 x,y,z
2 1/2-x,1/2+y,1/2-z
3 -x,-y,-z
4 1/2+x,1/2-y,1/2+z
_cell_length_a                   15.6332(4)
_cell_length_b                   19.7226(5)
_cell_length_c                   29.5831(7)
_cell_angle_alpha                90
_cell_angle_beta                 101.8975(13)
_cell_angle_gamma                90
_cell_volume                     8925.34
_exptl_crystal_colour            purple
_exptl_crystal_description       prism
_cell_formula_units_Z            2
_exptl_crystal_recrystallization_method chloroform/methanol/nitrobenzene
loop_
_atom_site_label
_atom_site_type_symbol
_atom_site_fract_x
_atom_site_fract_y
_atom_site_fract_z
Co1 Co 1.00514(6) 0.12909(5) 0.50814(4)
C1 C 1.0989(6) 0.1980(4) 0.4412(3)
C2 C 1.0822(6) 0.2398(5) 0.4002(3)
H1 H 1.1228 0.2513 0.3815
C3 C 0.9975(6) 0.2593(5) 0.3936(3)
H2 H 0.9671 0.2873 0.3695
C4 C 0.9625(5) 0.2293(4) 0.4303(3)
C5 C 0.8775(5) 0.2433(4) 0.4386(2)
C6 C 0.8399(5) 0.2055(4) 0.4690(2)
C7 C 0.7530(5) 0.2158(4) 0.4759(3)
H3 H 0.7137 0.2506 0.4627
C8 C 0.7379(5) 0.1680(4) 0.5040(3)
H4 H 0.6848 0.1609 0.5142
C9 C 0.8162(5) 0.1279(4) 0.5168(3)
C10 C 0.8246(5) 0.0706(4) 0.5454(2)
C11 C 0.9053(5) 0.0366(4) 0.5606(2)
C12 C 0.9150(5) -0.0212(4) 0.5887(3)
H5 H 0.8702 -0.0455 0.5989
C13 C 1.0015(5) -0.0351(4) 0.5981(3)
H6 H 1.0293 -0.0710 0.6170
C14 C 1.0431(5) 0.0132(4) 0.5750(2)
C15 C 1.1344(5) 0.0166(4) 0.5797(3)
C16 C 1.1722(5) 0.0615(4) 0.5543(3)
C17 C 1.2678(6) 0.0730(5) 0.5610(4)
H7 H 1.3114 0.0530 0.5843
C18 C 1.2818(6) 0.1145(5) 0.5299(4)
H8 H 1.3375 0.1289 0.5255
C19 C 1.1962(5) 0.1362(4) 0.5018(3)
C20 C 1.1821(5) 0.1768(4) 0.4635(3)
N1 N 1.0238(4) 0.1896(3) 0.4572(2)
N2 N 0.8807(4) 0.1534(3) 0.4955(2)
N3 N 0.9826(4) 0.0573(3) 0.55025(19)
N4 N 1.1298(4) 0.1022(3) 0.5199(2)
C21 C 0.8301(3) 0.3019(2) 0.41200(15)
C22 C 0.8647(3) 0.3667(3) 0.42063(14)
H9 H 0.9165 0.3733 0.4435
C23 C 0.8237(3) 0.42170(19) 0.39586(16)
H10 H 0.8474 0.4659 0.4018
N5 N 0.7480(3) 0.4120(2) 0.36244(14)
C24 C 0.7133(2) 0.3472(2) 0.35381(14)
H11 H 0.6616 0.3406 0.3310
C25 C 0.7544(3) 0.29221(19) 0.37858(17)
H12 H 0.7307 0.2480 0.3727
C26 C 0.7456(3) 0.0470(3) 0.56092(19)
C27 C 0.6763(4) 0.0214(3) 0.52829(15)
H13 H 0.6786 0.0220 0.4965
C28 C 0.6036(3) -0.0052(3) 0.5422(2)
H14 H 0.5562 -0.0228 0.5199
C29 C 0.6002(3) -0.0062(3) 0.5888(2)
C30 C 0.6696(4) 0.0195(3) 0.62146(17)
H15 H 0.6673 0.0188 0.6533
C31 C 0.7423(3) 0.0461(3) 0.60750(17)
H16 H 0.7897 0.0636 0.6298
I1 I 0.48843(5) -0.04602(4) 0.60813(3)
C32 C 1.1918(3) -0.0278(2) 0.61366(16)
C33 C 1.1922(3) -0.0234(2) 0.66060(18)
H17 H 1.1556 0.0084 0.6715
C34 C 1.2463(3) -0.0657(3) 0.69165(13)
H18 H 1.2466 -0.0627 0.7237
C35 C 1.2999(3) -0.1123(3) 0.67575(16)
C36 C 1.2994(3) -0.1167(2) 0.62881(18)
H19 H 1.3361 -0.1486 0.6179
C37 C 1.2454(3) -0.0745(3) 0.59776(13)
H20 H 1.2451 -0.0775 0.5657
I2 I 1.37888(4) -0.17848(3) 0.72165(2)
C38 C 1.2607(4) 0.2007(3) 0.4462(2)
C39 C 1.3139(5) 0.2497(4) 0.4715(2)
H21 H 1.2999 0.2676 0.4989
C40 C 1.3876(4) 0.2727(3) 0.4567(3)
H22 H 1.4240 0.3062 0.4740
C41 C 1.4081(4) 0.2466(4) 0.4166(3)
C42 C 1.3549(5) 0.1976(4) 0.3913(2)
H23 H 1.3689 0.1798 0.3638
C43 C 1.2812(4) 0.1746(3) 0.4060(2)
H24 H 1.2448 0.1411 0.3887
I3 I 1.51615(4) 0.28385(4) 0.39260(3)
Co2 Co 0.69796(6) 0.49100(5) 0.31769(3)
C44 C 0.6255(5) 0.5587(4) 0.3927(3)
C45 C 0.6503(6) 0.6083(4) 0.4291(3)
H25 H 0.6188 0.6192 0.4524
C46 C 0.7251(5) 0.6357(4) 0.4241(3)
H26 H 0.7565 0.6705 0.4427
C47 C 0.7498(5) 0.6037(4) 0.3859(3)
C48 C 0.8279(5) 0.6171(4) 0.3719(3)
C49 C 0.8588(5) 0.5776(5) 0.3399(3)
C50 C 0.9490(5) 0.5858(5) 0.3325(3)
H27 H 0.9905 0.6199 0.3443
C51 C 0.9577(6) 0.5326(5) 0.3048(3)
H28 H 1.0087 0.5228 0.2932
C52 C 0.8787(5) 0.4930(4) 0.2955(3)
C53 C 0.8627(5) 0.4371(4) 0.2676(3)
C54 C 0.7818(5) 0.4093(4) 0.2519(3)
C55 C 0.7620(6) 0.3559(4) 0.2184(3)
H29 H 0.8023 0.3321 0.2042
C56 C 0.6754(6) 0.3464(4) 0.2112(3)
H30 H 0.6430 0.3142 0.1905
C57 C 0.6392(5) 0.3933(4) 0.2400(2)
C58 C 0.5503(5) 0.3937(4) 0.2437(3)
C59 C 0.5230(5) 0.4283(4) 0.2797(3)
C60 C 0.4350(5) 0.4247(4) 0.2861(3)
H31 H 0.3872 0.4023 0.2668
C61 C 0.4338(5) 0.4605(5) 0.3259(3)
H32 H 0.3843 0.4673 0.3394
C62 C 0.5209(5) 0.4858(5) 0.3435(3)
C63 C 0.5460(5) 0.5243(4) 0.3815(3)
N6 N 0.6891(4) 0.5558(3) 0.3675(2)
N7 N 0.8188(4) 0.5232(3) 0.3183(2)
N8 N 0.7047(4) 0.4302(3) 0.2649(2)
N9 N 0.5762(4) 0.4650(3) 0.3134(2)
C64 C 0.8788(4) 0.6772(2) 0.39388(18)
C65 C 0.8433(3) 0.7415(3) 0.38401(16)
H33 H 0.7916 0.7470 0.3610
C66 C 0.8836(3) 0.7975(2) 0.40778(18)
H34 H 0.8594 0.8415 0.4010
N10 N 1.0406(3) 0.2106(2) 0.55859(16)
C67 C 1.0052(3) 0.2749(3) 0.54872(15)
H35 H 0.9534 0.2805 0.5257
C68 C 0.9545(4) 0.6690(2) 0.42751(19)
H36 H 0.9787 0.6251 0.4343
C69 C 0.9395(4) 0.4053(4) 0.2510(3)
C70 C 1.0009(5) 0.3690(4) 0.2824(2)
H37 H 0.9923 0.3617 0.3129
C71 C 1.0750(5) 0.3434(5) 0.2693(3)
H38 H 1.1169 0.3186 0.2908
C72 C 1.0876(5) 0.3542(5) 0.2247(4)
C73 C 1.0261(6) 0.3905(5) 0.1932(3)
H39 H 1.0348 0.3978 0.1628
C74 C 0.9521(5) 0.4161(5) 0.2064(3)
H40 H 0.9101 0.4409 0.1849
I4 I 1.2110(2) 0.3178(2) 0.21722(18)
C75 C 0.4890(3) 0.3483(3) 0.21274(16)
C76 C 0.4537(3) 0.2919(3) 0.23032(14)
H41 H 0.4658 0.2838 0.2627
C77 C 0.4009(3) 0.2473(2) 0.2006(2)
H42 H 0.3768 0.2087 0.2126
C78 C 0.3833(3) 0.2591(3) 0.15323(19)
C79 C 0.4186(3) 0.3155(3) 0.13565(13)
H43 H 0.4066 0.3236 0.1033
C80 C 0.4714(3) 0.3602(2) 0.16540(18)
H44 H 0.4955 0.3987 0.1534
I6 I 0.30634(5) 0.19093(4) 0.10885(3)
C81 C 0.4807(3) 0.5370(3) 0.41190(18)
C82 C 0.4497(4) 0.4822(3) 0.4334(2)
H45 H 0.4684 0.4375 0.4282
C83 C 0.3913(4) 0.4928(3) 0.4623(2)
H46 H 0.3701 0.4553 0.4770
C84 C 0.3640(3) 0.5581(3) 0.46980(19)
C85 C 0.3950(4) 0.6129(3) 0.4483(2)
H47 H 0.3763 0.6576 0.4535
C86 C 0.4534(4) 0.6023(3) 0.4194(2)
H48 H 0.4746 0.6398 0.4047
I7 I 0.28059(4) 0.57417(4) 0.51506(2)
Co1B Co 0.99486(6) 0.87091(5) 0.49186(4)
C1B C 0.9011(6) 0.8020(4) 0.5588(3)
C2B C 0.9178(6) 0.7602(5) 0.5998(3)
H1B H 0.8772 0.7487 0.6185
C3B C 1.0025(6) 0.7407(5) 0.6064(3)
H2B H 1.0329 0.7127 0.6305
C4B C 1.0375(5) 0.7707(4) 0.5697(3)
C5B C 1.1225(5) 0.7567(4) 0.5614(2)
C6B C 1.1601(5) 0.7945(4) 0.5310(2)
C7B C 1.2470(5) 0.7842(4) 0.5241(3)
H3B H 1.2863 0.7494 0.5373
C8B C 1.2621(5) 0.8320(4) 0.4960(3)
H4B H 1.3152 0.8391 0.4858
C9B C 1.1838(5) 0.8721(4) 0.4832(3)
C10B C 1.1754(5) 0.9294(4) 0.4546(2)
C11B C 1.0947(5) 0.9634(4) 0.4394(2)
C12B C 1.0850(5) 1.0212(4) 0.4113(3)
H5B H 1.1298 1.0455 0.4011
C13B C 0.9985(5) 1.0351(4) 0.4019(3)
H6B H 0.9707 1.0710 0.3830
C14B C 0.9569(5) 0.9868(4) 0.4250(2)
C15B C 0.8656(5) 0.9834(4) 0.4203(3)
C16B C 0.8278(5) 0.9385(4) 0.4457(3)
C17B C 0.7322(6) 0.9270(5) 0.4390(4)
H7B H 0.6886 0.9470 0.4157
C18B C 0.7182(6) 0.8855(5) 0.4701(4)
H8B H 0.6625 0.8711 0.4745
C19B C 0.8038(5) 0.8638(4) 0.4982(3)
C20B C 0.8179(5) 0.8232(4) 0.5365(3)
N1B N 0.9762(4) 0.8104(3) 0.5428(2)
N2B N 1.1193(4) 0.8466(3) 0.5045(2)
N3B N 1.0174(4) 0.9427(3) 0.44975(19)
N4B N 0.8702(4) 0.8978(3) 0.4801(2)
C21B C 1.1699(3) 0.6981(2) 0.58800(15)
C22B C 1.1353(3) 0.6333(3) 0.57937(14)
H9B H 1.0835 0.6267 0.5565
C23B C 1.1763(3) 0.57830(19) 0.60414(16)
H10B H 1.1526 0.5341 0.5982
N5B N 1.2520(3) 0.5880(2) 0.63756(14)
C24B C 1.2867(2) 0.6528(2) 0.64619(14)
H11B H 1.3384 0.6594 0.6690
C25B C 1.2456(3) 0.70779(19) 0.62142(17)
H12B H 1.2693 0.7520 0.6273
C26B C 1.2544(3) 0.9530(3) 0.43908(19)
C27B C 1.3237(4) 0.9786(3) 0.47171(15)
H13B H 1.3214 0.9780 0.5035
C28B C 1.3964(3) 1.0052(3) 0.4578(2)
H14B H 1.4438 1.0228 0.4801
C29B C 1.3998(3) 1.0062(3) 0.4112(2)
C30B C 1.3304(4) 0.9805(3) 0.37854(17)
H15B H 1.3327 0.9812 0.3467
C31B C 1.2577(3) 0.9539(3) 0.39250(17)
H16B H 1.2103 0.9364 0.3702
I1B I 1.51157(5) 1.04602(4) 0.39187(3)
C32B C 0.8082(3) 1.0278(2) 0.38634(16)
C33B C 0.8078(3) 1.0234(2) 0.33940(18)
H17B H 0.8444 0.9916 0.3285
C34B C 0.7537(3) 1.0657(3) 0.30835(13)
H18B H 0.7534 1.0627 0.2763
C35B C 0.7001(3) 1.1123(3) 0.32425(16)
C36B C 0.7006(3) 1.1167(2) 0.37119(18)
H19B H 0.6639 1.1486 0.3821
C37B C 0.7546(3) 1.0745(3) 0.40224(13)
H20B H 0.7549 1.0775 0.4343
I2B I 0.62112(4) 1.17848(3) 0.27835(2)
C38B C 0.7393(4) 0.7993(3) 0.5538(2)
C39B C 0.6861(5) 0.7503(4) 0.5285(2)
H21B H 0.7001 0.7324 0.5011
C40B C 0.6124(4) 0.7273(3) 0.5433(3)
H22B H 0.5760 0.6938 0.5260
C41B C 0.5919(4) 0.7534(4) 0.5834(3)
C42B C 0.6451(5) 0.8024(4) 0.6087(2)
H23B H 0.6311 0.8202 0.6362
C43B C 0.7188(4) 0.8254(3) 0.5940(2)
H24B H 0.7552 0.8589 0.6113
I3B I 0.48385(4) 0.71615(4) 0.60740(3)
Co2B Co 1.30204(6) 0.50900(5) 0.68231(3)
C44B C 1.3745(5) 0.4413(4) 0.6073(3)
C45B C 1.3497(6) 0.3917(4) 0.5709(3)
H25B H 1.3812 0.3808 0.5476
C46B C 1.2749(5) 0.3643(4) 0.5759(3)
H26B H 1.2435 0.3295 0.5573
C47B C 1.2502(5) 0.3963(4) 0.6141(3)
C48B C 1.1721(5) 0.3829(4) 0.6281(3)
C49B C 1.1412(5) 0.4224(5) 0.6601(3)
C50B C 1.0510(5) 0.4142(5) 0.6675(3)
H27B H 1.0095 0.3801 0.6557
C51B C 1.0423(6) 0.4674(5) 0.6952(3)
H28B H 0.9913 0.4772 0.7068
C52B C 1.1213(5) 0.5070(4) 0.7045(3)
C53B C 1.1373(5) 0.5629(4) 0.7324(3)
C54B C 1.2182(5) 0.5907(4) 0.7481(3)
C55B C 1.2380(6) 0.6441(4) 0.7816(3)
H29B H 1.1977 0.6679 0.7958
C56B C 1.3246(6) 0.6536(4) 0.7888(3)
H30B H 1.3570 0.6858 0.8095
C57B C 1.3608(5) 0.6067(4) 0.7600(2)
C58B C 1.4497(5) 0.6063(4) 0.7563(3)
C59B C 1.4770(5) 0.5717(4) 0.7203(3)
C60B C 1.5650(5) 0.5753(4) 0.7139(3)
H31B H 1.6128 0.5977 0.7332
C61B C 1.5662(5) 0.5395(5) 0.6741(3)
H32B H 1.6157 0.5327 0.6606
C62B C 1.4791(5) 0.5142(5) 0.6565(3)
C63B C 1.4540(5) 0.4757(4) 0.6185(3)
N6B N 1.3109(4) 0.4442(3) 0.6325(2)
N7B N 1.1812(4) 0.4768(3) 0.6817(2)
N8B N 1.2953(4) 0.5698(3) 0.7351(2)
N9B N 1.4238(4) 0.5350(3) 0.6866(2)
C64B C 1.1212(4) 0.3228(2) 0.60612(18)
C65B C 1.1567(3) 0.2585(3) 0.61599(16)
H33B H 1.2084 0.2530 0.6390
C66B C 1.1164(3) 0.2025(2) 0.59222(18)
H34B H 1.1406 0.1585 0.5990
N10B N 0.9594(3) 0.7894(2) 0.44141(16)
C67B C 0.9948(3) 0.7251(3) 0.45128(15)
H35B H 1.0466 0.7195 0.4743
C68B C 1.0455(4) 0.3310(2) 0.57249(19)
H36B H 1.0213 0.3749 0.5657
C69B C 1.0605(4) 0.5947(4) 0.7490(3)
C70B C 0.9991(5) 0.6310(4) 0.7176(2)
H37B H 1.0077 0.6383 0.6871
C71B C 0.9250(5) 0.6566(5) 0.7307(3)
H38B H 0.8831 0.6814 0.7092
C72B C 0.9124(5) 0.6458(5) 0.7753(4)
C73B C 0.9739(6) 0.6095(5) 0.8068(3)
H39B H 0.9652 0.6022 0.8372
C74B C 1.0479(5) 0.5839(5) 0.7936(3)
H40B H 1.0899 0.5591 0.8151
I4B I 0.7890(2) 0.6822(2) 0.78278(18)
C75B C 1.5110(3) 0.6517(3) 0.78726(16)
C76B C 1.5463(3) 0.7081(3) 0.76968(14)
H41B H 1.5342 0.7162 0.7373
C77B C 1.5991(3) 0.7527(2) 0.7994(2)
H42B H 1.6232 0.7913 0.7874
C78B C 1.6167(3) 0.7409(3) 0.84677(19)
C79B C 1.5814(3) 0.6845(3) 0.86435(13)
H43B H 1.5934 0.6764 0.8967
C80B C 1.5286(3) 0.6398(2) 0.83460(18)
H44B H 1.5045 0.6013 0.8466
I6B I 1.69366(5) 0.80907(4) 0.89115(3)
C81B C 1.5193(3) 0.4630(3) 0.58810(18)
C82B C 1.5503(4) 0.5178(3) 0.5666(2)
H45B H 1.5316 0.5625 0.5718
C83B C 1.6087(4) 0.5072(3) 0.5377(2)
H46B H 1.6299 0.5447 0.5230
C84B C 1.6360(3) 0.4419(3) 0.53020(19)
C85B C 1.6050(4) 0.3871(3) 0.5517(2)
H47B H 1.6237 0.3424 0.5465
C86B C 1.5466(4) 0.3977(3) 0.5806(2)
H48B H 1.5254 0.3602 0.5953
I7B I 1.71941(4) 0.42583(4) 0.48494(2)
loop_
_geom_bond_atom_site_label_1
_geom_bond_atom_site_label_2
_geom_bond_site_symmetry_1
_geom_bond_site_symmetry_2
Co1 N1 1_555 1_555
C1 C2 1_555 1_555
C2 H1 1_555 1_555
C3 C2 1_555 1_555
H2 C3 1_555 1_555
C4 C3 1_555 1_555
C5 C4 1_555 1_555
C6 C5 1_555 1_555
C7 C6 1_555 1_555
H3 C7 1_555 1_555
C8 C7 1_555 1_555
H4 C8 1_555 1_555
C9 C8 1_555 1_555
C10 C9 1_555 1_555
C11 C10 1_555 1_555
C12 C11 1_555 1_555
H5 C12 1_555 1_555
C13 C12 1_555 1_555
H6 C13 1_555 1_555
C14 C13 1_555 1_555
C15 C14 1_555 1_555
C16 C15 1_555 1_555
C17 C16 1_555 1_555
H7 C17 1_555 1_555
C18 C17 1_555 1_555
H8 C18 1_555 1_555
C19 C18 1_555 1_555
C20 C1 1_555 1_555
N1 C1 1_555 1_555
N2 Co1 1_555 1_555
N3 Co1 1_555 1_555
N4 Co1 1_555 1_555
C21 C5 1_555 1_555
C22 C21 1_555 1_555
H9 C22 1_555 1_555
C23 C22 1_555 1_555
H10 C23 1_555 1_555
N5 C23 1_555 1_555
C24 N5 1_555 1_555
H11 C24 1_555 1_555
C25 C21 1_555 1_555
H12 C25 1_555 1_555
C26 C10 1_555 1_555
C27 C26 1_555 1_555
H13 C27 1_555 1_555
C28 C27 1_555 1_555
H14 C28 1_555 1_555
C29 C28 1_555 1_555
C30 C29 1_555 1_555
H15 C30 1_555 1_555
C31 C26 1_555 1_555
H16 C31 1_555 1_555
I1 C29 1_555 1_555
C32 C15 1_555 1_555
C33 C32 1_555 1_555
H17 C33 1_555 1_555
C34 C33 1_555 1_555
H18 C34 1_555 1_555
C35 C34 1_555 1_555
C36 C35 1_555 1_555
H19 C36 1_555 1_555
C37 C32 1_555 1_555
H20 C37 1_555 1_555
I2 C35 1_555 1_555
C38 C20 1_555 1_555
C39 C38 1_555 1_555
H21 C39 1_555 1_555
C40 C39 1_555 1_555
H22 C40 1_555 1_555
C41 C40 1_555 1_555
C42 C41 1_555 1_555
H23 C42 1_555 1_555
C43 C38 1_555 1_555
H24 C43 1_555 1_555
I3 C41 1_555 1_555
Co2 N5 1_555 1_555
C44 C45 1_555 1_555
C45 H25 1_555 1_555
C46 C45 1_555 1_555
H26 C46 1_555 1_555
C47 C46 1_555 1_555
C48 C47 1_555 1_555
C49 C48 1_555 1_555
C50 C49 1_555 1_555
H27 C50 1_555 1_555
C51 C50 1_555 1_555
H28 C51 1_555 1_555
C52 C51 1_555 1_555
C53 C52 1_555 1_555
C54 C53 1_555 1_555
C55 C54 1_555 1_555
H29 C55 1_555 1_555
C56 C55 1_555 1_555
H30 C56 1_555 1_555
C57 C56 1_555 1_555
C58 C57 1_555 1_555
C59 C58 1_555 1_555
C60 C59 1_555 1_555
H31 C60 1_555 1_555
C61 C60 1_555 1_555
H32 C61 1_555 1_555
C62 C61 1_555 1_555
C63 C44 1_555 1_555
N6 Co2 1_555 1_555
N7 Co2 1_555 1_555
N8 Co2 1_555 1_555
N9 Co2 1_555 1_555
C64 C48 1_555 1_555
C65 C64 1_555 1_555
H33 C65 1_555 1_555
C66 C65 1_555 1_555
H34 C66 1_555 1_555
N10 Co1 1_555 1_555
C67 N10 1_555 1_555
H35 C67 1_555 1_555
C68 C64 1_555 1_555
H36 C68 1_555 1_555
C69 C53 1_555 1_555
C70 C69 1_555 1_555
H37 C70 1_555 1_555
C71 C70 1_555 1_555
H38 C71 1_555 1_555
C72 C71 1_555 1_555
C73 C72 1_555 1_555
H39 C73 1_555 1_555
C74 C69 1_555 1_555
H40 C74 1_555 1_555
I4 C72 1_555 1_555
C75 C58 1_555 1_555
C76 C75 1_555 1_555
H41 C76 1_555 1_555
C77 C76 1_555 1_555
H42 C77 1_555 1_555
C78 C77 1_555 1_555
C79 C78 1_555 1_555
H43 C79 1_555 1_555
C80 C75 1_555 1_555
H44 C80 1_555 1_555
I6 C78 1_555 1_555
C81 C63 1_555 1_555
C82 C81 1_555 1_555
H45 C82 1_555 1_555
C83 C82 1_555 1_555
H46 C83 1_555 1_555
C84 C83 1_555 1_555
C85 C84 1_555 1_555
H47 C85 1_555 1_555
C86 C81 1_555 1_555
H48 C86 1_555 1_555
I7 C84 1_555 1_555
Co1B N1B 1_555 1_555
C1B C2B 1_555 1_555
C2B H1B 1_555 1_555
C3B C2B 1_555 1_555
H2B C3B 1_555 1_555
C4B C3B 1_555 1_555
C5B C4B 1_555 1_555
C6B C5B 1_555 1_555
C7B C6B 1_555 1_555
H3B C7B 1_555 1_555
C8B C7B 1_555 1_555
H4B C8B 1_555 1_555
C9B C8B 1_555 1_555
C10B C9B 1_555 1_555
C11B C10B 1_555 1_555
C12B C11B 1_555 1_555
H5B C12B 1_555 1_555
C13B C12B 1_555 1_555
H6B C13B 1_555 1_555
C14B C13B 1_555 1_555
C15B C14B 1_555 1_555
C16B C15B 1_555 1_555
C17B C16B 1_555 1_555
H7B C17B 1_555 1_555
C18B C17B 1_555 1_555
H8B C18B 1_555 1_555
C19B C18B 1_555 1_555
C20B C1B 1_555 1_555
N1B C1B 1_555 1_555
N2B Co1B 1_555 1_555
N3B Co1B 1_555 1_555
N4B Co1B 1_555 1_555
C21B C5B 1_555 1_555
C22B C21B 1_555 1_555
H9B C22B 1_555 1_555
C23B C22B 1_555 1_555
H10B C23B 1_555 1_555
N5B C23B 1_555 1_555
C24B N5B 1_555 1_555
H11B C24B 1_555 1_555
C25B C21B 1_555 1_555
H12B C25B 1_555 1_555
C26B C10B 1_555 1_555
C27B C26B 1_555 1_555
H13B C27B 1_555 1_555
C28B C27B 1_555 1_555
H14B C28B 1_555 1_555
C29B C28B 1_555 1_555
C30B C29B 1_555 1_555
H15B C30B 1_555 1_555
C31B C26B 1_555 1_555
H16B C31B 1_555 1_555
I1B C29B 1_555 1_555
C32B C15B 1_555 1_555
C33B C32B 1_555 1_555
H17B C33B 1_555 1_555
C34B C33B 1_555 1_555
H18B C34B 1_555 1_555
C35B C34B 1_555 1_555
C36B C35B 1_555 1_555
H19B C36B 1_555 1_555
C37B C32B 1_555 1_555
H20B C37B 1_555 1_555
I2B C35B 1_555 1_555
C38B C20B 1_555 1_555
C39B C38B 1_555 1_555
H21B C39B 1_555 1_555
C40B C39B 1_555 1_555
H22B C40B 1_555 1_555
C41B C40B 1_555 1_555
C42B C41B 1_555 1_555
H23B C42B 1_555 1_555
C43B C38B 1_555 1_555
H24B C43B 1_555 1_555
I3B C41B 1_555 1_555
Co2B N5B 1_555 1_555
C44B C45B 1_555 1_555
C45B H25B 1_555 1_555
C46B C45B 1_555 1_555
H26B C46B 1_555 1_555
C47B C46B 1_555 1_555
C48B C47B 1_555 1_555
C49B C48B 1_555 1_555
C50B C49B 1_555 1_555
H27B C50B 1_555 1_555
C51B C50B 1_555 1_555
H28B C51B 1_555 1_555
C52B C51B 1_555 1_555
C53B C52B 1_555 1_555
C54B C53B 1_555 1_555
C55B C54B 1_555 1_555
H29B C55B 1_555 1_555
C56B C55B 1_555 1_555
H30B C56B 1_555 1_555
C57B C56B 1_555 1_555
C58B C57B 1_555 1_555
C59B C58B 1_555 1_555
C60B C59B 1_555 1_555
H31B C60B 1_555 1_555
C61B C60B 1_555 1_555
H32B C61B 1_555 1_555
C62B C61B 1_555 1_555
C63B C44B 1_555 1_555
N6B Co2B 1_555 1_555
N7B Co2B 1_555 1_555
N8B Co2B 1_555 1_555
N9B Co2B 1_555 1_555
C64B C48B 1_555 1_555
C65B C64B 1_555 1_555
H33B C65B 1_555 1_555
C66B N10 1_555 1_555
H34B C66B 1_555 1_555
N10B C66 1_555 1_555
C67B C68 1_555 1_555
H35B C67B 1_555 1_555
C68B C67 1_555 1_555
H36B C68B 1_555 1_555
C69B C53B 1_555 1_555
C70B C69B 1_555 1_555
H37B C70B 1_555 1_555
C71B C70B 1_555 1_555
H38B C71B 1_555 1_555
C72B C71B 1_555 1_555
C73B C72B 1_555 1_555
H39B C73B 1_555 1_555
C74B C69B 1_555 1_555
H40B C74B 1_555 1_555
I4B C72B 1_555 1_555
C75B C58B 1_555 1_555
C76B C75B 1_555 1_555
H41B C76B 1_555 1_555
C77B C76B 1_555 1_555
H42B C77B 1_555 1_555
C78B C77B 1_555 1_555
C79B C78B 1_555 1_555
H43B C79B 1_555 1_555
C80B C75B 1_555 1_555
H44B C80B 1_555 1_555
I6B C78B 1_555 1_555
C81B C63B 1_555 1_555
C82B C81B 1_555 1_555
H45B C82B 1_555 1_555
C83B C82B 1_555 1_555
H46B C83B 1_555 1_555
C84B C83B 1_555 1_555
C85B C84B 1_555 1_555
H47B C85B 1_555 1_555
C86B C81B 1_555 1_555
H48B C86B 1_555 1_555
I7B C84B 1_555 1_555
C4 N1 1_555 1_555
C6 N2 1_555 1_555
C9 N2 1_555 1_555
C11 N3 1_555 1_555
C14 N3 1_555 1_555
C16 N4 1_555 1_555
C19 C20 1_555 1_555
C19 N4 1_555 1_555
C24 C25 1_555 1_555
C30 C31 1_555 1_555
C36 C37 1_555 1_555
C42 C43 1_555 1_555
C44 N6 1_555 1_555
C47 N6 1_555 1_555
C49 N7 1_555 1_555
C52 N7 1_555 1_555
C54 N8 1_555 1_555
C57 N8 1_555 1_555
C59 N9 1_555 1_555
C62 C63 1_555 1_555
C62 N9 1_555 1_555
C73 C74 1_555 1_555
C79 C80 1_555 1_555
C85 C86 1_555 1_555
Co1B N10B 1_555 1_555
C4B N1B 1_555 1_555
C6B N2B 1_555 1_555
C9B N2B 1_555 1_555
C11B N3B 1_555 1_555
C14B N3B 1_555 1_555
C16B N4B 1_555 1_555
C19B C20B 1_555 1_555
C19B N4B 1_555 1_555
C24B C25B 1_555 1_555
C30B C31B 1_555 1_555
C36B C37B 1_555 1_555
C42B C43B 1_555 1_555
C44B N6B 1_555 1_555
C47B N6B 1_555 1_555
C49B N7B 1_555 1_555
C52B N7B 1_555 1_555
C54B N8B 1_555 1_555
C57B N8B 1_555 1_555
C59B N9B 1_555 1_555
C62B C63B 1_555 1_555
C62B N9B 1_555 1_555
C64B C68B 1_555 1_555
C65B C66B 1_555 1_555
N10B C67B 1_555 1_555
C73B C74B 1_555 1_555
C79B C80B 1_555 1_555
C85B C86B 1_555 1_555

#END
