
#######################################################################
#
#                 Cambridge Crystallographic Data Centre
#                                CCDC 
#
#######################################################################
#
# If this CIF has been generated from an entry in the Cambridge 
# Structural Database, then it will include bibliographic, chemical, 
# crystal, experimental, refinement or atomic coordinate data resulting 
# from the CCDC's data processing and validation procedures.
#
#######################################################################

data_SODBOD
_chemical_formula_moiety         'C172 H96 I12 N20 Zn4,3(C6 H5 N1 O2)'
_chemical_name_systematic        
'tetrakis(\m~2~-5-(4-Pyridyl)-10,15,20-tris(4-iodophenyl)porphyrinato)-tetra-zinc(ii) nitrobenzene solvate'
_symmetry_cell_setting           monoclinic
_symmetry_space_group_name_H-M   'P 21/n'
_symmetry_Int_Tables_number      14
_space_group_name_Hall           '-P 2yn'
loop_
_symmetry_equiv_pos_site_id
_symmetry_equiv_pos_as_xyz
1 x,y,z
2 1/2-x,1/2+y,1/2-z
3 -x,-y,-z
4 1/2+x,1/2-y,1/2+z
_cell_length_a                   17.9678(3)
_cell_length_b                   20.0493(4)
_cell_length_c                   31.2029(7)
_cell_angle_alpha                90
_cell_angle_beta                 105.7560(8)
_cell_angle_gamma                90
_cell_volume                     10818.2
_exptl_crystal_colour            purple
_exptl_crystal_description       prism
_cell_formula_units_Z            2
loop_
_atom_site_label
_atom_site_type_symbol
_atom_site_fract_x
_atom_site_fract_y
_atom_site_fract_z
Zn1 Zn 0.383807(6) 0.017819(5) 0.274724(3)
C1 C 0.24480(5) -0.01279(5) 0.31059(3)
C2 C 0.22409(6) -0.05853(5) 0.34347(3)
H1 H 0.1766 -0.0575 0.3513
C3 C 0.27963(5) -0.09926(5) 0.35946(3)
H2 H 0.2810 -0.1329 0.3811
C4 C 0.33989(6) -0.08431(5) 0.33822(3)
C5 C 0.41134(6) -0.11664(4) 0.34799(3)
C6 C 0.47308(5) -0.09835(4) 0.32896(3)
C7 C 0.54787(6) -0.13129(5) 0.33927(3)
H3 H 0.5651 -0.1654 0.3608
C8 C 0.58907(6) -0.10439(5) 0.31249(3)
H4 H 0.6400 -0.1156 0.3117
C9 C 0.53792(6) -0.05495(5) 0.28560(3)
C10 C 0.55686(5) -0.01915(5) 0.25147(3)
C11 C 0.50572(6) 0.02434(5) 0.22055(3)
C12 C 0.52178(6) 0.05406(5) 0.18430(3)
H5 H 0.5663 0.0474 0.1739
C13 C 0.46058(6) 0.09511(5) 0.16630(3)
H6 H 0.4551 0.1227 0.1409
C14 C 0.40701(5) 0.08961(5) 0.19175(3)
C15 C 0.33352(6) 0.12277(4) 0.18187(3)
C16 C 0.27800(5) 0.11189(4) 0.20407(3)
C17 C 0.20974(6) 0.14812(5) 0.19868(3)
H7 H 0.1928 0.1832 0.1778
C18 C 0.17189(6) 0.12624(5) 0.22720(3)
H8 H 0.1239 0.1425 0.2301
C19 C 0.21651(5) 0.07434(4) 0.25228(3)
C20 C 0.20064(6) 0.03861(4) 0.28714(3)
N1 N 0.31735(4) -0.03230(4) 0.30859(2)
N2 N 0.46859(4) -0.05306(4) 0.29677(2)
N3 N 0.43432(5) 0.04563(3) 0.22530(2)
N4 N 0.28397(4) 0.06628(4) 0.23836(2)
C21 C 0.42576(5) -0.17086(5) 0.37997(3)
C22 C 0.43017(6) -0.16372(5) 0.42493(3)
H9 H 0.4246 -0.1209 0.4367
C23 C 0.44284(6) -0.22007(5) 0.45285(3)
H10 H 0.4451 -0.2139 0.4834
N5 N 0.45184(4) -0.28154(3) 0.43895(2)
C24 C 0.44973(5) -0.28816(5) 0.39639(3)
H11 H 0.4569 -0.3316 0.3860
C25 C 0.43792(5) -0.23656(4) 0.36611(3)
H12 H 0.4379 -0.2449 0.3361
C26 C 0.63069(6) -0.03561(6) 0.23873(3)
C27 C 0.69819(7) -0.00673(7) 0.26324(4)
H13 H 0.6996 0.0227 0.2873
C28 C 0.76774(7) -0.02410(7) 0.24989(4)
H14 H 0.8159 -0.0058 0.2662
C29 C 0.76648(6) -0.06202(5) 0.21788(3)
C30 C 0.69959(7) -0.09096(6) 0.19500(4)
H15 H 0.7001 -0.1211 0.1716
C31 C 0.63320(7) -0.07827(6) 0.20437(4)
H16 H 0.5869 -0.0987 0.1873
I1 I 0.871053(5) -0.080019(5) 0.199885(3)
C32 C 0.31788(6) 0.16903(4) 0.14471(3)
C33 C 0.25355(6) 0.16060(5) 0.10666(3)
H17 H 0.2205 0.1233 0.1056
C34 C 0.23751(6) 0.20382(5) 0.07179(3)
H18 H 0.1958 0.1953 0.0462
C35 C 0.28287(5) 0.26075(4) 0.07397(3)
C36 C 0.34639(5) 0.27120(5) 0.11081(3)
H19 H 0.3781 0.3095 0.1121
C37 C 0.36298(5) 0.22506(4) 0.14568(3)
H20 H 0.4062 0.2324 0.1706
I2 I 0.257591(5) 0.329169(4) 0.020324(2)
C38 C 0.12616(6) 0.05582(5) 0.29724(3)
C39 C 0.06670(11) 0.01275(9) 0.28701(6)
H21 H 0.0698 -0.0293 0.2735
C40 C -0.00509(12) 0.03593(10) 0.29848(6)
H22 H -0.0497 0.0083 0.2913
C43 C -0.00766(6) 0.09388(5) 0.31838(3)
C44 C 0.05482(12) 0.13863(10) 0.33067(6)
H25 H 0.0518 0.1812 0.3434
C45 C 0.12078(10) 0.11372(7) 0.32216(5)
H26 H 0.1673 0.1378 0.3342
I3 I -0.112841(5) 0.121222(5) 0.332168(3)
Zn2 Zn 0.488786(6) -0.359294(5) 0.488356(3)
C48 C 0.36914(6) -0.34669(4) 0.54241(3)
C49 C 0.35145(6) -0.30785(5) 0.57637(3)
H29 H 0.3065 -0.3117 0.5867
C50 C 0.40782(6) -0.26606(5) 0.59071(3)
H30 H 0.4115 -0.2337 0.6134
C51 C 0.46280(5) -0.27718(5) 0.56649(3)
C52 C 0.53225(6) -0.24440(5) 0.57341(3)
C53 C 0.59111(6) -0.25592(5) 0.55208(3)
C54 C 0.65978(6) -0.21859(5) 0.55724(3)
H31 H 0.6755 -0.1812 0.5762
C55 C 0.69957(7) -0.24622(6) 0.52981(4)
H32 H 0.7497 -0.2341 0.5279
C56 C 0.64999(6) -0.29770(5) 0.50423(3)
C57 C 0.66393(5) -0.33293(5) 0.46920(3)
C58 C 0.61663(6) -0.38577(5) 0.44450(3)
C59 C 0.63043(6) -0.41095(5) 0.40312(3)
H33 H 0.6711 -0.4008 0.3901
C60 C 0.56966(6) -0.45237(5) 0.38861(3)
H34 H 0.5602 -0.4787 0.3624
C61 C 0.52091(5) -0.45099(4) 0.41874(3)
C62 C 0.45095(6) -0.48436(5) 0.41183(3)
C63 C 0.39915(5) -0.47911(5) 0.43876(3)
C64 C 0.33395(6) -0.52140(5) 0.43706(3)
H35 H 0.3184 -0.5594 0.4186
C65 C 0.29910(6) -0.49657(5) 0.46682(3)
H36 H 0.2541 -0.5134 0.4735
C66 C 0.34387(5) -0.43949(4) 0.48630(3)
C67 C 0.32287(6) -0.39865(5) 0.51919(3)
N6 N 0.43773(4) -0.32781(4) 0.53680(2)
N7 N 0.58512(5) -0.30385(4) 0.51834(3)
N8 N 0.55031(4) -0.40759(3) 0.45216(2)
N9 N 0.40476(4) -0.43142(3) 0.47000(2)
C68 C 0.55316(6) -0.18991(5) 0.60828(3)
C69 C 0.52328(7) -0.12561(5) 0.59977(4)
H37 H 0.4914 -0.1137 0.5712
C70 C 0.54154(6) -0.07917(5) 0.63452(4)
H38 H 0.5223 -0.0350 0.6286
N10 N 0.41537(4) 0.09366(3) 0.32446(2)
C71 C 0.38853(7) 0.15548(5) 0.31536(3)
H39 H 0.3589 0.1663 0.2861
C72 C 0.59652(7) -0.20439(5) 0.65167(3)
H40 H 0.6161 -0.2482 0.6588
C73 C 0.73972(6) -0.32058(5) 0.45768(3)
C74 C 0.74699(7) -0.26263(6) 0.43382(4)
H41 H 0.7056 -0.2315 0.4263
C75 C 0.81348(7) -0.25056(7) 0.42118(4)
H42 H 0.8167 -0.2107 0.4053
C76 C 0.87349(6) -0.29221(5) 0.43028(4)
C77 C 0.86572(7) -0.35231(5) 0.45224(3)
H43 H 0.9058 -0.3847 0.4577
C78 C 0.79952(6) -0.36393(5) 0.46578(3)
H44 H 0.7960 -0.4040 0.4814
I4 I 0.987346(9) -0.271770(8) 0.423197(5)
C79 C 0.42959(6) -0.53410(5) 0.37344(3)
C80 C 0.35747(6) -0.53007(5) 0.33930(3)
H45 H 0.3213 -0.4970 0.3422
C81 C 0.33860(6) -0.56923(4) 0.30439(3)
H46 H 0.2907 -0.5644 0.2823
C82 C 0.39142(7) -0.61817(5) 0.30089(3)
C83 C 0.46166(6) -0.62820(5) 0.33296(3)
H47 H 0.4952 -0.6634 0.3298
C84 C 0.48124(5) -0.58733(4) 0.36842(3)
H48 H 0.5291 -0.5934 0.3903
I6 I 0.364545(5) -0.681592(4) 0.243294(2)
C85 C 0.25051(6) -0.41508(5) 0.53137(3)
C86 C 0.17838(6) -0.39156(7) 0.50421(4)
H49 H 0.1769 -0.3649 0.4788
C87 C 0.11185(7) -0.40705(8) 0.51437(4)
H50 H 0.0638 -0.3941 0.4947
C88 C 0.11265(7) -0.44090(6) 0.55235(4)
C89 C 0.18251(6) -0.46340(6) 0.58034(3)
H51 H 0.1841 -0.4896 0.6060
C90 C 0.24790(7) -0.44629(6) 0.56940(4)
H52 H 0.2958 -0.4571 0.5901
I7 I 0.007473(5) -0.463811(5) 0.567705(3)
Zn1B Zn 0.616193(6) -0.017819(5) 0.725276(3)
C1B C 0.75520(5) 0.01279(5) 0.68941(3)
C2B C 0.77591(6) 0.05853(5) 0.65653(3)
H1B H 0.8234 0.0575 0.6487
C3B C 0.72037(5) 0.09926(5) 0.64054(3)
H2B H 0.7190 0.1329 0.6189
C4B C 0.66011(6) 0.08431(5) 0.66178(3)
C5B C 0.58866(6) 0.11664(4) 0.65201(3)
C6B C 0.52692(5) 0.09835(4) 0.67104(3)
C7B C 0.45213(6) 0.13129(5) 0.66073(3)
H3B H 0.4349 0.1654 0.6392
C8B C 0.41093(6) 0.10439(5) 0.68751(3)
H4B H 0.3600 0.1156 0.6883
C9B C 0.46208(6) 0.05495(5) 0.71440(3)
C10B C 0.44314(5) 0.01915(5) 0.74853(3)
C11B C 0.49428(6) -0.02434(5) 0.77945(3)
C12B C 0.47822(6) -0.05406(5) 0.81570(3)
H5B H 0.4337 -0.0474 0.8261
C13B C 0.53942(6) -0.09511(5) 0.83370(3)
H6B H 0.5449 -0.1227 0.8591
C14B C 0.59299(5) -0.08961(5) 0.80825(3)
C15B C 0.66648(6) -0.12277(4) 0.81813(3)
C16B C 0.72200(5) -0.11189(4) 0.79593(3)
C17B C 0.79026(6) -0.14812(5) 0.80132(3)
H7B H 0.8072 -0.1832 0.8222
C18B C 0.82811(6) -0.12624(5) 0.77280(3)
H8B H 0.8761 -0.1425 0.7699
C19B C 0.78349(5) -0.07434(4) 0.74772(3)
C20B C 0.79936(6) -0.03861(4) 0.71286(3)
N1B N 0.68265(4) 0.03230(4) 0.69141(2)
N2B N 0.53141(4) 0.05306(4) 0.70323(2)
N3B N 0.56568(5) -0.04563(3) 0.77470(2)
N4B N 0.71603(4) -0.06628(4) 0.76164(2)
C21B C 0.57424(5) 0.17086(5) 0.62003(3)
C22B C 0.56983(6) 0.16372(5) 0.57507(3)
H9B H 0.5754 0.1209 0.5633
C23B C 0.55716(6) 0.22007(5) 0.54715(3)
H10B H 0.5549 0.2139 0.5166
N5B N 0.54816(4) 0.28154(3) 0.56105(2)
C24B C 0.55027(5) 0.28816(5) 0.60361(3)
H11B H 0.5431 0.3316 0.6140
C25B C 0.56208(5) 0.23656(4) 0.63389(3)
H12B H 0.5621 0.2449 0.6639
C26B C 0.36931(6) 0.03561(6) 0.76127(3)
C27B C 0.30181(7) 0.00673(7) 0.73676(4)
H13B H 0.3004 -0.0227 0.7127
C28B C 0.23226(7) 0.02410(7) 0.75011(4)
H14B H 0.1841 0.0058 0.7338
C29B C 0.23352(6) 0.06202(5) 0.78212(3)
C30B C 0.30041(7) 0.09096(6) 0.80500(4)
H15B H 0.2999 0.1211 0.8284
C31B C 0.36680(7) 0.07827(6) 0.79563(4)
H16B H 0.4131 0.0987 0.8127
I1B I 0.128947(5) 0.080019(5) 0.800115(3)
C32B C 0.68212(6) -0.16903(4) 0.85529(3)
C33B C 0.74645(6) -0.16060(5) 0.89334(3)
H17B H 0.7795 -0.1233 0.8944
C34B C 0.76249(6) -0.20382(5) 0.92821(3)
H18B H 0.8042 -0.1953 0.9538
C35B C 0.71713(5) -0.26075(4) 0.92603(3)
C36B C 0.65361(5) -0.27120(5) 0.88919(3)
H19B H 0.6219 -0.3095 0.8879
C37B C 0.63702(5) -0.22506(4) 0.85432(3)
H20B H 0.5938 -0.2324 0.8294
I2B I 0.742409(5) -0.329169(4) 0.979676(2)
C38B C 0.87384(6) -0.05582(5) 0.70276(3)
C39B C 0.93330(11) -0.01275(9) 0.71299(6)
H21B H 0.9302 0.0293 0.7265
C40B C 1.00509(12) -0.03593(10) 0.70152(6)
H22B H 1.0497 -0.0083 0.7087
C43B C 1.00766(6) -0.09388(5) 0.68162(3)
C44B C 0.94518(12) -0.13863(10) 0.66933(6)
H25B H 0.9482 -0.1812 0.6566
C45B C 0.87922(10) -0.11372(7) 0.67784(5)
H26B H 0.8327 -0.1378 0.6658
I3B I 1.112841(5) -0.121222(5) 0.667832(3)
Zn2B Zn 0.511214(6) 0.359294(5) 0.511644(3)
C48B C 0.63086(6) 0.34669(4) 0.45759(3)
C49B C 0.64855(6) 0.30785(5) 0.42363(3)
H29B H 0.6935 0.3117 0.4133
C50B C 0.59218(6) 0.26606(5) 0.40929(3)
H30B H 0.5885 0.2337 0.3866
C51B C 0.53720(5) 0.27718(5) 0.43351(3)
C52B C 0.46775(6) 0.24440(5) 0.42659(3)
C53B C 0.40889(6) 0.25592(5) 0.44792(3)
C54B C 0.34022(6) 0.21859(5) 0.44276(3)
H31B H 0.3245 0.1812 0.4238
C55B C 0.30043(7) 0.24622(6) 0.47019(4)
H32B H 0.2503 0.2341 0.4721
C56B C 0.35001(6) 0.29770(5) 0.49577(3)
C57B C 0.33607(5) 0.33293(5) 0.53080(3)
C58B C 0.38337(6) 0.38577(5) 0.55550(3)
C59B C 0.36957(6) 0.41095(5) 0.59688(3)
H33B H 0.3289 0.4008 0.6099
C60B C 0.43034(6) 0.45237(5) 0.61139(3)
H34B H 0.4398 0.4787 0.6376
C61B C 0.47909(5) 0.45099(4) 0.58126(3)
C62B C 0.54905(6) 0.48436(5) 0.58817(3)
C63B C 0.60085(5) 0.47911(5) 0.56124(3)
C64B C 0.66605(6) 0.52140(5) 0.56294(3)
H35B H 0.6816 0.5594 0.5814
C65B C 0.70090(6) 0.49657(5) 0.53318(3)
H36B H 0.7459 0.5134 0.5265
C66B C 0.65613(5) 0.43949(4) 0.51370(3)
C67B C 0.67713(6) 0.39865(5) 0.48081(3)
N6B N 0.56227(4) 0.32781(4) 0.46320(2)
N7B N 0.41488(5) 0.30385(4) 0.48166(3)
N8B N 0.44969(4) 0.40759(3) 0.54784(2)
N9B N 0.59524(4) 0.43142(3) 0.53000(2)
C68B C 0.44684(6) 0.18991(5) 0.39172(3)
C69B C 0.47672(7) 0.12561(5) 0.40023(4)
H37B H 0.5086 0.1137 0.4288
C70B C 0.45846(6) 0.07917(5) 0.36548(4)
H38B H 0.4777 0.0350 0.3714
N10B N 0.58463(4) -0.09366(3) 0.67554(2)
C71B C 0.61147(7) -0.15548(5) 0.68464(3)
H39B H 0.6411 -0.1663 0.7139
C72B C 0.40348(7) 0.20439(5) 0.34833(3)
H40B H 0.3839 0.2482 0.3412
C73B C 0.26028(6) 0.32058(5) 0.54232(3)
C74B C 0.25301(7) 0.26263(6) 0.56618(4)
H41B H 0.2944 0.2315 0.5737
C75B C 0.18652(7) 0.25056(7) 0.57882(4)
H42B H 0.1833 0.2107 0.5947
C76B C 0.12651(6) 0.29221(5) 0.56972(4)
C77B C 0.13428(7) 0.35231(5) 0.54776(3)
H43B H 0.0942 0.3847 0.5423
C78B C 0.20048(6) 0.36393(5) 0.53422(3)
H44B H 0.2040 0.4040 0.5186
I4B I 0.012654(9) 0.271770(8) 0.576803(5)
C79B C 0.57041(6) 0.53410(5) 0.62656(3)
C80B C 0.64253(6) 0.53007(5) 0.66070(3)
H45B H 0.6787 0.4970 0.6578
C81B C 0.66140(6) 0.56923(4) 0.69561(3)
H46B H 0.7093 0.5644 0.7177
C82B C 0.60858(7) 0.61817(5) 0.69911(3)
C83B C 0.53834(6) 0.62820(5) 0.66704(3)
H47B H 0.5048 0.6634 0.6702
C84B C 0.51876(5) 0.58733(4) 0.63158(3)
H48B H 0.4709 0.5934 0.6097
I6B I 0.635455(5) 0.681592(4) 0.756706(2)
C85B C 0.74949(6) 0.41508(5) 0.46863(3)
C86B C 0.82162(6) 0.39156(7) 0.49579(4)
H49B H 0.8231 0.3649 0.5212
C87B C 0.88815(7) 0.40705(8) 0.48563(4)
H50B H 0.9362 0.3941 0.5053
C88B C 0.88735(7) 0.44090(6) 0.44765(4)
C89B C 0.81749(6) 0.46340(6) 0.41966(3)
H51B H 0.8159 0.4896 0.3940
C90B C 0.75210(7) 0.44629(6) 0.43060(4)
H52B H 0.7042 0.4571 0.4099
I7B I 0.992527(5) 0.463811(5) 0.432295(3)
loop_
_geom_bond_atom_site_label_1
_geom_bond_atom_site_label_2
_geom_bond_site_symmetry_1
_geom_bond_site_symmetry_2
Zn1 N1 1_555 1_555
C1 C2 1_555 1_555
C2 H1 1_555 1_555
C3 C2 1_555 1_555
H2 C3 1_555 1_555
C4 C3 1_555 1_555
C5 C4 1_555 1_555
C6 C5 1_555 1_555
C7 C6 1_555 1_555
H3 C7 1_555 1_555
C8 C7 1_555 1_555
H4 C8 1_555 1_555
C9 C8 1_555 1_555
C10 C9 1_555 1_555
C11 C10 1_555 1_555
C12 C11 1_555 1_555
H5 C12 1_555 1_555
C13 C12 1_555 1_555
H6 C13 1_555 1_555
C14 C13 1_555 1_555
C15 C14 1_555 1_555
C16 C15 1_555 1_555
C17 C16 1_555 1_555
H7 C17 1_555 1_555
C18 C17 1_555 1_555
H8 C18 1_555 1_555
C19 C18 1_555 1_555
C20 C1 1_555 1_555
N1 C1 1_555 1_555
N2 Zn1 1_555 1_555
N3 Zn1 1_555 1_555
N4 Zn1 1_555 1_555
C21 C5 1_555 1_555
C22 C21 1_555 1_555
H9 C22 1_555 1_555
C23 C22 1_555 1_555
H10 C23 1_555 1_555
N5 C23 1_555 1_555
C24 N5 1_555 1_555
H11 C24 1_555 1_555
C25 C21 1_555 1_555
H12 C25 1_555 1_555
C26 C10 1_555 1_555
C27 C26 1_555 1_555
H13 C27 1_555 1_555
C28 C27 1_555 1_555
H14 C28 1_555 1_555
C29 C28 1_555 1_555
C30 C29 1_555 1_555
H15 C30 1_555 1_555
C31 C26 1_555 1_555
H16 C31 1_555 1_555
I1 C29 1_555 1_555
C32 C15 1_555 1_555
C33 C32 1_555 1_555
H17 C33 1_555 1_555
C34 C33 1_555 1_555
H18 C34 1_555 1_555
C35 C34 1_555 1_555
C36 C35 1_555 1_555
H19 C36 1_555 1_555
C37 C32 1_555 1_555
H20 C37 1_555 1_555
I2 C35 1_555 1_555
C38 C20 1_555 1_555
C39 C38 1_555 1_555
H21 C39 1_555 1_555
C40 C39 1_555 1_555
H22 C40 1_555 1_555
C43 C40 1_555 1_555
C44 C43 1_555 1_555
H25 C44 1_555 1_555
C45 C38 1_555 1_555
H26 C45 1_555 1_555
I3 C43 1_555 1_555
Zn2 N5 1_555 1_555
C48 C49 1_555 1_555
C49 H29 1_555 1_555
C50 C49 1_555 1_555
H30 C50 1_555 1_555
C51 C50 1_555 1_555
C52 C51 1_555 1_555
C53 C52 1_555 1_555
C54 C53 1_555 1_555
H31 C54 1_555 1_555
C55 C54 1_555 1_555
H32 C55 1_555 1_555
C56 C55 1_555 1_555
C57 C56 1_555 1_555
C58 C57 1_555 1_555
C59 C58 1_555 1_555
H33 C59 1_555 1_555
C60 C59 1_555 1_555
H34 C60 1_555 1_555
C61 C60 1_555 1_555
C62 C61 1_555 1_555
C63 C62 1_555 1_555
C64 C63 1_555 1_555
H35 C64 1_555 1_555
C65 C64 1_555 1_555
H36 C65 1_555 1_555
C66 C65 1_555 1_555
C67 C48 1_555 1_555
N6 Zn2 1_555 1_555
N7 Zn2 1_555 1_555
N8 Zn2 1_555 1_555
N9 Zn2 1_555 1_555
C68 C52 1_555 1_555
C69 C68 1_555 1_555
H37 C69 1_555 1_555
C70 C69 1_555 1_555
H38 C70 1_555 1_555
N10 Zn1 1_555 1_555
C71 N10 1_555 1_555
H39 C71 1_555 1_555
C72 C68 1_555 1_555
H40 C72 1_555 1_555
C73 C57 1_555 1_555
C74 C73 1_555 1_555
H41 C74 1_555 1_555
C75 C74 1_555 1_555
H42 C75 1_555 1_555
C76 C75 1_555 1_555
C77 C76 1_555 1_555
H43 C77 1_555 1_555
C78 C73 1_555 1_555
H44 C78 1_555 1_555
I4 C76 1_555 1_555
C79 C62 1_555 1_555
C80 C79 1_555 1_555
H45 C80 1_555 1_555
C81 C80 1_555 1_555
H46 C81 1_555 1_555
C82 C81 1_555 1_555
C83 C82 1_555 1_555
H47 C83 1_555 1_555
C84 C79 1_555 1_555
H48 C84 1_555 1_555
I6 C82 1_555 1_555
C85 C67 1_555 1_555
C86 C85 1_555 1_555
H49 C86 1_555 1_555
C87 C86 1_555 1_555
H50 C87 1_555 1_555
C88 C87 1_555 1_555
C89 C88 1_555 1_555
H51 C89 1_555 1_555
C90 C85 1_555 1_555
H52 C90 1_555 1_555
I7 C88 1_555 1_555
Zn1B N1B 1_555 1_555
C1B C2B 1_555 1_555
C2B H1B 1_555 1_555
C3B C2B 1_555 1_555
H2B C3B 1_555 1_555
C4B C3B 1_555 1_555
C5B C4B 1_555 1_555
C6B C5B 1_555 1_555
C7B C6B 1_555 1_555
H3B C7B 1_555 1_555
C8B C7B 1_555 1_555
H4B C8B 1_555 1_555
C9B C8B 1_555 1_555
C10B C9B 1_555 1_555
C11B C10B 1_555 1_555
C12B C11B 1_555 1_555
H5B C12B 1_555 1_555
C13B C12B 1_555 1_555
H6B C13B 1_555 1_555
C14B C13B 1_555 1_555
C15B C14B 1_555 1_555
C16B C15B 1_555 1_555
C17B C16B 1_555 1_555
H7B C17B 1_555 1_555
C18B C17B 1_555 1_555
H8B C18B 1_555 1_555
C19B C18B 1_555 1_555
C20B C1B 1_555 1_555
N1B C1B 1_555 1_555
N2B Zn1B 1_555 1_555
N3B Zn1B 1_555 1_555
N4B Zn1B 1_555 1_555
C21B C5B 1_555 1_555
C22B C21B 1_555 1_555
H9B C22B 1_555 1_555
C23B C22B 1_555 1_555
H10B C23B 1_555 1_555
N5B C23B 1_555 1_555
C24B N5B 1_555 1_555
H11B C24B 1_555 1_555
C25B C21B 1_555 1_555
H12B C25B 1_555 1_555
C26B C10B 1_555 1_555
C27B C26B 1_555 1_555
H13B C27B 1_555 1_555
C28B C27B 1_555 1_555
H14B C28B 1_555 1_555
C29B C28B 1_555 1_555
C30B C29B 1_555 1_555
H15B C30B 1_555 1_555
C31B C26B 1_555 1_555
H16B C31B 1_555 1_555
I1B C29B 1_555 1_555
C32B C15B 1_555 1_555
C33B C32B 1_555 1_555
H17B C33B 1_555 1_555
C34B C33B 1_555 1_555
H18B C34B 1_555 1_555
C35B C34B 1_555 1_555
C36B C35B 1_555 1_555
H19B C36B 1_555 1_555
C37B C32B 1_555 1_555
H20B C37B 1_555 1_555
I2B C35B 1_555 1_555
C38B C20B 1_555 1_555
C39B C38B 1_555 1_555
H21B C39B 1_555 1_555
C40B C39B 1_555 1_555
H22B C40B 1_555 1_555
C43B C40B 1_555 1_555
C44B C43B 1_555 1_555
H25B C44B 1_555 1_555
C45B C38B 1_555 1_555
H26B C45B 1_555 1_555
I3B C43B 1_555 1_555
Zn2B N5B 1_555 1_555
C48B C49B 1_555 1_555
C49B H29B 1_555 1_555
C50B C49B 1_555 1_555
H30B C50B 1_555 1_555
C51B C50B 1_555 1_555
C52B C51B 1_555 1_555
C53B C52B 1_555 1_555
C54B C53B 1_555 1_555
H31B C54B 1_555 1_555
C55B C54B 1_555 1_555
H32B C55B 1_555 1_555
C56B C55B 1_555 1_555
C57B C56B 1_555 1_555
C58B C57B 1_555 1_555
C59B C58B 1_555 1_555
H33B C59B 1_555 1_555
C60B C59B 1_555 1_555
H34B C60B 1_555 1_555
C61B C60B 1_555 1_555
C62B C61B 1_555 1_555
C63B C62B 1_555 1_555
C64B C63B 1_555 1_555
H35B C64B 1_555 1_555
C65B C64B 1_555 1_555
H36B C65B 1_555 1_555
C66B C65B 1_555 1_555
C67B C48B 1_555 1_555
N6B Zn2B 1_555 1_555
N7B Zn2B 1_555 1_555
N8B Zn2B 1_555 1_555
N9B Zn2B 1_555 1_555
C68B C52B 1_555 1_555
C69B C68B 1_555 1_555
H37B C69B 1_555 1_555
C70B N10 1_555 1_555
H38B C70B 1_555 1_555
N10B C70 1_555 1_555
C71B C72 1_555 1_555
H39B C71B 1_555 1_555
C72B C71 1_555 1_555
H40B C72B 1_555 1_555
C73B C57B 1_555 1_555
C74B C73B 1_555 1_555
H41B C74B 1_555 1_555
C75B C74B 1_555 1_555
H42B C75B 1_555 1_555
C76B C75B 1_555 1_555
C77B C76B 1_555 1_555
H43B C77B 1_555 1_555
C78B C73B 1_555 1_555
H44B C78B 1_555 1_555
I4B C76B 1_555 1_555
C79B C62B 1_555 1_555
C80B C79B 1_555 1_555
H45B C80B 1_555 1_555
C81B C80B 1_555 1_555
H46B C81B 1_555 1_555
C82B C81B 1_555 1_555
C83B C82B 1_555 1_555
H47B C83B 1_555 1_555
C84B C79B 1_555 1_555
H48B C84B 1_555 1_555
I6B C82B 1_555 1_555
C85B C67B 1_555 1_555
C86B C85B 1_555 1_555
H49B C86B 1_555 1_555
C87B C86B 1_555 1_555
H50B C87B 1_555 1_555
C88B C87B 1_555 1_555
C89B C88B 1_555 1_555
H51B C89B 1_555 1_555
C90B C85B 1_555 1_555
H52B C90B 1_555 1_555
I7B C88B 1_555 1_555
C4 N1 1_555 1_555
C6 N2 1_555 1_555
C9 N2 1_555 1_555
C11 N3 1_555 1_555
C14 N3 1_555 1_555
C16 N4 1_555 1_555
C19 C20 1_555 1_555
C19 N4 1_555 1_555
C24 C25 1_555 1_555
C30 C31 1_555 1_555
C36 C37 1_555 1_555
C44 C45 1_555 1_555
C48 N6 1_555 1_555
C51 N6 1_555 1_555
C53 N7 1_555 1_555
C56 N7 1_555 1_555
C58 N8 1_555 1_555
C61 N8 1_555 1_555
C63 N9 1_555 1_555
C66 C67 1_555 1_555
C66 N9 1_555 1_555
C77 C78 1_555 1_555
C83 C84 1_555 1_555
C89 C90 1_555 1_555
Zn1B N10B 1_555 1_555
C4B N1B 1_555 1_555
C6B N2B 1_555 1_555
C9B N2B 1_555 1_555
C11B N3B 1_555 1_555
C14B N3B 1_555 1_555
C16B N4B 1_555 1_555
C19B C20B 1_555 1_555
C19B N4B 1_555 1_555
C24B C25B 1_555 1_555
C30B C31B 1_555 1_555
C36B C37B 1_555 1_555
C44B C45B 1_555 1_555
C48B N6B 1_555 1_555
C51B N6B 1_555 1_555
C53B N7B 1_555 1_555
C56B N7B 1_555 1_555
C58B N8B 1_555 1_555
C61B N8B 1_555 1_555
C63B N9B 1_555 1_555
C66B C67B 1_555 1_555
C66B N9B 1_555 1_555
C68B C72B 1_555 1_555
C69B C70B 1_555 1_555
N10B C71B 1_555 1_555
C77B C78B 1_555 1_555
C83B C84B 1_555 1_555
C89B C90B 1_555 1_555

#END
