
#######################################################################
#
#                 Cambridge Crystallographic Data Centre
#                                CCDC 
#
#######################################################################
#
# If this CIF has been generated from an entry in the Cambridge 
# Structural Database, then it will include bibliographic, chemical, 
# crystal, experimental, refinement or atomic coordinate data resulting 
# from the CCDC's data processing and validation procedures.
#
#######################################################################

data_SODQOS
_chemical_formula_moiety         
'2(Na1 1+),C112 H68 Er2 N32 O2 Os4 2-,20(H2 O1),4(C1 H4 O1)'
_chemical_name_systematic        
'Disodium hexakis(\m~2~-cyano)-octakis(1,10-phenanthroline)-diaqua-decacyano-tetra-osmium(ii)-di-erbium(iii) methanol solvate icosahydrate'
_symmetry_cell_setting           monoclinic
_symmetry_space_group_name_H-M   'P 21/c'
_symmetry_Int_Tables_number      14
_space_group_name_Hall           '-P 2ybc'
loop_
_symmetry_equiv_pos_site_id
_symmetry_equiv_pos_as_xyz
1 x,y,z
2 -x,1/2+y,1/2-z
3 -x,-y,-z
4 x,1/2-y,1/2+z
_cell_length_a                   14.1699(18)
_cell_length_b                   27.810(4)
_cell_length_c                   17.237(3)
_cell_angle_alpha                90
_cell_angle_beta                 101.968(7)
_cell_angle_gamma                90
_cell_volume                     6644.85
_exptl_crystal_colour            red
_exptl_crystal_description       block
_cell_formula_units_Z            2
_exptl_crystal_preparation       luminescent
loop_
_atom_site_label
_atom_site_type_symbol
_atom_site_fract_x
_atom_site_fract_y
_atom_site_fract_z
Os1 Os -0.065096(16) -0.121817(9) -0.464876(15)
Os2 Os 0.42973(2) 0.130044(9) -0.175308(16)
Er1 Er 0.268084(18) -0.020278(9) -0.355042(16)
C1 C 0.0747(5) -0.1898(3) -0.3522(5)
H1 H 0.1157 -0.1625 -0.3402
C2 C 0.1031(6) -0.2330(3) -0.3131(6)
H2 H 0.1624 -0.2350 -0.2754
C3 C 0.0446(6) -0.2725(3) -0.3296(6)
H3 H 0.0628 -0.3019 -0.3026
C4 C -0.0413(6) -0.2698(3) -0.3856(6)
C5 C -0.1072(7) -0.3087(3) -0.4071(6)
H4 H -0.0922 -0.3392 -0.3828
C6 C -0.1895(7) -0.3033(3) -0.4606(6)
H5 H -0.2308 -0.3302 -0.4745
C7 C -0.2168(5) -0.2576(3) -0.4976(5)
C8 C -0.3020(5) -0.2489(3) -0.5525(5)
H6 H -0.3460 -0.2745 -0.5690
C9 C -0.3228(5) -0.2041(3) -0.5828(4)
H7 H -0.3806 -0.1984 -0.6208
C10 C -0.2579(5) -0.1661(3) -0.5574(4)
H8 H -0.2733 -0.1348 -0.5782
C11 C -0.1548(5) -0.2182(2) -0.4757(4)
C12 C -0.0659(5) -0.2248(3) -0.4211(5)
C13 C 0.0516(4) -0.0833(2) -0.4276(4)
C14 C -0.1371(4) -0.0667(2) -0.5204(4)
C15 C -0.0126(5) -0.1368(2) -0.5638(5)
C16 C -0.1123(5) -0.1065(3) -0.3637(4)
C17 C 0.2366(6) 0.1794(3) -0.2544(5)
H9 H 0.2183 0.1492 -0.2789
C18 C 0.1735(7) 0.2179(3) -0.2718(6)
H10 H 0.1129 0.2140 -0.3071
C19 C 0.1998(8) 0.2621(3) -0.2374(6)
H11 H 0.1584 0.2891 -0.2504
C20 C 0.2862(7) 0.2668(3) -0.1842(6)
C21 C 0.3202(9) 0.3112(3) -0.1412(7)
H12 H 0.2835 0.3399 -0.1529
C22 C 0.4022(9) 0.3120(3) -0.0858(7)
H13 H 0.4220 0.3413 -0.0589
C23 C 0.4596(7) 0.2707(3) -0.0665(5)
C24 C 0.5427(8) 0.2689(4) -0.0064(6)
H14 H 0.5624 0.2965 0.0254
C25 C 0.5954(8) 0.2277(4) 0.0068(5)
H15 H 0.6518 0.2264 0.0477
C26 C 0.5658(7) 0.1872(4) -0.0407(5)
H16 H 0.6046 0.1591 -0.0326
C27 C 0.4329(6) 0.2278(3) -0.1094(5)
C28 C 0.3443(6) 0.2264(3) -0.1682(5)
C29 C 0.3687(4) 0.0826(2) -0.2546(4)
C30 C 0.5410(6) 0.0858(3) -0.1393(5)
C31 C 0.3567(6) 0.1022(2) -0.0954(4)
C32 C 0.5014(5) 0.1620(2) -0.2528(4)
C33 C 0.5161(5) -0.0137(2) -0.2904(4)
H17 H 0.4971 0.0000 -0.2456
C34 C 0.6144(5) -0.0200(3) -0.2878(5)
H18 H 0.6606 -0.0114 -0.2417
C35 C 0.6436(5) -0.0388(3) -0.3527(5)
H19 H 0.7103 -0.0435 -0.3516
C36 C 0.5745(5) -0.0511(2) -0.4206(5)
C37 C 0.5990(6) -0.0693(2) -0.4911(5)
H20 H 0.6650 -0.0731 -0.4933
C38 C 0.5311(6) -0.0810(2) -0.5540(5)
H21 H 0.5497 -0.0935 -0.5999
C39 C 0.4303(6) -0.0750(2) -0.5539(4)
C40 C 0.3568(6) -0.0860(3) -0.6185(4)
H22 H 0.3718 -0.0999 -0.6648
C41 C 0.2630(6) -0.0769(3) -0.6152(5)
H23 H 0.2125 -0.0846 -0.6589
C42 C 0.2423(6) -0.0560(3) -0.5465(4)
H24 H 0.1771 -0.0485 -0.5458
C43 C 0.4031(5) -0.0555(2) -0.4857(4)
C44 C 0.4755(5) -0.0441(2) -0.4177(4)
C45 C 0.3530(5) -0.0174(2) -0.1546(4)
H25 H 0.3204 0.0126 -0.1608
C46 C 0.4102(6) -0.0283(3) -0.0814(4)
H26 H 0.4150 -0.0065 -0.0384
C47 C 0.4593(7) -0.0705(3) -0.0717(5)
H27 H 0.5008 -0.0778 -0.0224
C48 C 0.4484(5) -0.1035(3) -0.1351(4)
C49 C 0.4921(6) -0.1504(3) -0.1280(5)
H28 H 0.5376 -0.1584 -0.0810
C50 C 0.4703(6) -0.1832(3) -0.1862(5)
H29 H 0.4987 -0.2143 -0.1792
C51 C 0.4043(5) -0.1716(2) -0.2588(4)
C52 C 0.3734(5) -0.2053(3) -0.3187(5)
H30 H 0.3953 -0.2376 -0.3126
C53 C 0.3115(5) -0.1910(2) -0.3859(5)
H31 H 0.2884 -0.2136 -0.4267
C54 C 0.2820(5) -0.1429(2) -0.3946(4)
H32 H 0.2405 -0.1335 -0.4429
C55 C 0.3670(5) -0.1245(2) -0.2699(4)
C56 C 0.3874(5) -0.0904(2) -0.2063(4)
N1 N -0.0070(4) -0.1851(2) -0.4053(4)
N2 N -0.1758(4) -0.17279(19) -0.5051(3)
N3 N 0.1239(4) -0.0631(2) -0.4059(3)
N4 N -0.1837(4) -0.0355(2) -0.5538(3)
N5 N 0.0180(5) -0.1432(3) -0.6205(4)
N6 N -0.1333(5) -0.0979(3) -0.3040(4)
N7 N 0.3214(4) 0.1830(2) -0.2050(3)
N8 N 0.4852(5) 0.1868(2) -0.0970(4)
N9 N 0.3326(4) 0.05362(18) -0.3004(3)
N10 N 0.6079(6) 0.0613(3) -0.1185(5)
N11 N 0.3129(5) 0.0876(2) -0.0503(4)
N12 N 0.5403(4) 0.1830(2) -0.2963(4)
N13 N 0.4469(4) -0.02607(18) -0.3532(3)
N14 N 0.3094(4) -0.04628(19) -0.4826(3)
N15 N 0.3413(4) -0.04681(18) -0.2168(3)
N16 N 0.3088(4) -0.10975(18) -0.3391(3)
O1 O 0.1546(3) 0.00107(19) -0.2792(3)
H33 H 0.1564 0.0312 -0.2569
H34 H 0.1511 -0.0151 -0.2390
Os1B Os 0.065096(16) 0.121817(9) -0.535124(15)
Os2B Os -0.42973(2) -0.130044(9) -0.824692(16)
Er1B Er -0.268084(18) 0.020278(9) -0.644958(16)
C1B C -0.0747(5) 0.1898(3) -0.6478(5)
H1B H -0.1157 0.1625 -0.6598
C2B C -0.1031(6) 0.2330(3) -0.6869(6)
H2B H -0.1624 0.2350 -0.7246
C3B C -0.0446(6) 0.2725(3) -0.6704(6)
H3B H -0.0628 0.3019 -0.6974
C4B C 0.0413(6) 0.2698(3) -0.6144(6)
C5B C 0.1072(7) 0.3087(3) -0.5929(6)
H4B H 0.0922 0.3392 -0.6172
C6B C 0.1895(7) 0.3033(3) -0.5394(6)
H5B H 0.2308 0.3302 -0.5255
C7B C 0.2168(5) 0.2576(3) -0.5024(5)
C8B C 0.3020(5) 0.2489(3) -0.4475(5)
H6B H 0.3460 0.2745 -0.4310
C9B C 0.3228(5) 0.2041(3) -0.4172(4)
H7B H 0.3806 0.1984 -0.3792
C10B C 0.2579(5) 0.1661(3) -0.4426(4)
H8B H 0.2733 0.1348 -0.4218
C11B C 0.1548(5) 0.2182(2) -0.5243(4)
C12B C 0.0659(5) 0.2248(3) -0.5789(5)
C13B C -0.0516(4) 0.0833(2) -0.5724(4)
C14B C 0.1371(4) 0.0667(2) -0.4796(4)
C15B C 0.0126(5) 0.1368(2) -0.4362(5)
C16B C 0.1123(5) 0.1065(3) -0.6363(4)
C17B C -0.2366(6) -0.1794(3) -0.7456(5)
H9B H -0.2183 -0.1492 -0.7211
C18B C -0.1735(7) -0.2179(3) -0.7282(6)
H10B H -0.1129 -0.2140 -0.6929
C19B C -0.1998(8) -0.2621(3) -0.7626(6)
H11B H -0.1584 -0.2891 -0.7496
C20B C -0.2862(7) -0.2668(3) -0.8158(6)
C21B C -0.3202(9) -0.3112(3) -0.8588(7)
H12B H -0.2835 -0.3399 -0.8471
C22B C -0.4022(9) -0.3120(3) -0.9142(7)
H13B H -0.4220 -0.3413 -0.9411
C23B C -0.4596(7) -0.2707(3) -0.9335(5)
C24B C -0.5427(8) -0.2689(4) -0.9936(6)
H14B H -0.5624 -0.2965 -1.0254
C25B C -0.5954(8) -0.2277(4) -1.0068(5)
H15B H -0.6518 -0.2264 -1.0477
C26B C -0.5658(7) -0.1872(4) -0.9593(5)
H16B H -0.6046 -0.1591 -0.9674
C27B C -0.4329(6) -0.2278(3) -0.8906(5)
C28B C -0.3443(6) -0.2264(3) -0.8318(5)
C29B C -0.3687(4) -0.0826(2) -0.7454(4)
C30B C -0.5410(6) -0.0858(3) -0.8607(5)
C31B C -0.3567(6) -0.1022(2) -0.9046(4)
C32B C -0.5014(5) -0.1620(2) -0.7472(4)
C33B C -0.5161(5) 0.0137(2) -0.7096(4)
H17B H -0.4971 0.0000 -0.7544
C34B C -0.6144(5) 0.0200(3) -0.7122(5)
H18B H -0.6606 0.0114 -0.7583
C35B C -0.6436(5) 0.0388(3) -0.6473(5)
H19B H -0.7103 0.0435 -0.6484
C36B C -0.5745(5) 0.0511(2) -0.5794(5)
C37B C -0.5990(6) 0.0693(2) -0.5089(5)
H20B H -0.6650 0.0731 -0.5067
C38B C -0.5311(6) 0.0810(2) -0.4460(5)
H21B H -0.5497 0.0935 -0.4001
C39B C -0.4303(6) 0.0750(2) -0.4461(4)
C40B C -0.3568(6) 0.0860(3) -0.3815(4)
H22B H -0.3718 0.0999 -0.3352
C41B C -0.2630(6) 0.0769(3) -0.3848(5)
H23B H -0.2125 0.0846 -0.3411
C42B C -0.2423(6) 0.0560(3) -0.4535(4)
H24B H -0.1771 0.0485 -0.4542
C43B C -0.4031(5) 0.0555(2) -0.5143(4)
C44B C -0.4755(5) 0.0441(2) -0.5823(4)
C45B C -0.3530(5) 0.0174(2) -0.8454(4)
H25B H -0.3204 -0.0126 -0.8392
C46B C -0.4102(6) 0.0283(3) -0.9186(4)
H26B H -0.4150 0.0065 -0.9616
C47B C -0.4593(7) 0.0705(3) -0.9283(5)
H27B H -0.5008 0.0778 -0.9776
C48B C -0.4484(5) 0.1035(3) -0.8649(4)
C49B C -0.4921(6) 0.1504(3) -0.8720(5)
H28B H -0.5376 0.1584 -0.9190
C50B C -0.4703(6) 0.1832(3) -0.8138(5)
H29B H -0.4987 0.2143 -0.8208
C51B C -0.4043(5) 0.1716(2) -0.7412(4)
C52B C -0.3734(5) 0.2053(3) -0.6813(5)
H30B H -0.3953 0.2376 -0.6874
C53B C -0.3115(5) 0.1910(2) -0.6141(5)
H31B H -0.2884 0.2136 -0.5733
C54B C -0.2820(5) 0.1429(2) -0.6054(4)
H32B H -0.2405 0.1335 -0.5571
C55B C -0.3670(5) 0.1245(2) -0.7301(4)
C56B C -0.3874(5) 0.0904(2) -0.7937(4)
N1B N 0.0070(4) 0.1851(2) -0.5947(4)
N2B N 0.1758(4) 0.17279(19) -0.4949(3)
N3B N -0.1239(4) 0.0631(2) -0.5941(3)
N4B N 0.1837(4) 0.0355(2) -0.4462(3)
N5B N -0.0180(5) 0.1432(3) -0.3795(4)
N6B N 0.1333(5) 0.0979(3) -0.6960(4)
N7B N -0.3214(4) -0.1830(2) -0.7950(3)
N8B N -0.4852(5) -0.1868(2) -0.9030(4)
N9B N -0.3326(4) -0.05362(18) -0.6996(3)
N10B N -0.6079(6) -0.0613(3) -0.8815(5)
N11B N -0.3129(5) -0.0876(2) -0.9497(4)
N12B N -0.5403(4) -0.1830(2) -0.7037(4)
N13B N -0.4469(4) 0.02607(18) -0.6468(3)
N14B N -0.3094(4) 0.04628(19) -0.5174(3)
N15B N -0.3413(4) 0.04681(18) -0.7832(3)
N16B N -0.3088(4) 0.10975(18) -0.6609(3)
O1B O -0.1546(3) -0.00107(19) -0.7208(3)
H33B H -0.1564 -0.0312 -0.7431
H34B H -0.1511 0.0151 -0.7610
Na1 Na 0.91125(17) 0.01226(11) -0.01617(16)
O2 O 0.7345(12) -0.0156(6) -0.0584(10)
C57 C 0.7335(16) -0.1243(7) -0.1563(10)
H35 H 0.7197 -0.1579 -0.1455
H36 H 0.6989 -0.1156 -0.2098
H37 H 0.7124 -0.1034 -0.1174
O3 O 0.8400(12) -0.1181(5) -0.1506(6)
H38 H 0.8657 -0.1074 -0.1057
C58 C 0.9813(15) 0.2158(7) 0.1006(13)
H39 H 1.0191 0.2407 0.0807
H40 H 1.0112 0.1843 0.0968
H41 H 0.9795 0.2225 0.1560
O4 O 0.8866(11) 0.2155(5) 0.0547(10)
H42 H 0.8583 0.1926 0.0734
O5 O 0.8896(11) 0.0008(5) -0.2354(11)
H43 H 0.8601 -0.0031 -0.2832
H44 H 0.9142 0.0286 -0.2359
O6 O 0.8088(5) 0.2013(3) -0.4215(5)
H45 H 0.8558 0.1828 -0.4033
H46 H 0.8061 0.2301 -0.4057
O7 O 0.8585(8) -0.0600(5) 0.1567(8)
H47 H 0.9108 -0.0735 0.1797
H48 H 0.8835 -0.0609 0.1160
O8 O 0.7334(5) 0.1978(3) -0.2870(5)
H49 H 0.7183 0.2247 -0.3097
H50 H 0.7600 0.1771 -0.3117
O9 O 0.9759(8) 0.1035(4) -0.2294(6)
H51 H 0.9778 0.1145 -0.2719
H52 H 0.9300 0.1089 -0.2104
O10 O 0.9772(6) 0.0216(3) -0.3761(5)
H53 H 1.0154 -0.0006 -0.3835
H54 H 0.9873 0.0471 -0.4004
O11 O 0.7753(13) 0.1218(8) -0.1821(10)
O12 O 0.9104(14) 0.0860(7) 0.2151(9)
O13 O 0.888(2) 0.1376(10) -0.0380(12)
O14 O 0.794(2) 0.1372(13) 0.132(2)
loop_
_geom_bond_atom_site_label_1
_geom_bond_atom_site_label_2
_geom_bond_site_symmetry_1
_geom_bond_site_symmetry_2
Os1 C13 1_555 1_555
Os2 C29 1_555 1_555
Er1 N3 1_555 1_555
C1 H1 1_555 1_555
C2 C1 1_555 1_555
H2 C2 1_555 1_555
C3 C2 1_555 1_555
H3 C3 1_555 1_555
C4 C3 1_555 1_555
C5 C4 1_555 1_555
H4 C5 1_555 1_555
C6 C5 1_555 1_555
H5 C6 1_555 1_555
C7 C6 1_555 1_555
C8 C7 1_555 1_555
H6 C8 1_555 1_555
C9 C8 1_555 1_555
H7 C9 1_555 1_555
C10 C9 1_555 1_555
H8 C10 1_555 1_555
C11 C7 1_555 1_555
C12 C4 1_555 1_555
C13 N3 1_555 1_555
C14 Os1 1_555 1_555
C15 Os1 1_555 1_555
C16 Os1 1_555 1_555
C17 H9 1_555 1_555
C18 C17 1_555 1_555
H10 C18 1_555 1_555
C19 C18 1_555 1_555
H11 C19 1_555 1_555
C20 C19 1_555 1_555
C21 C20 1_555 1_555
H12 C21 1_555 1_555
C22 C21 1_555 1_555
H13 C22 1_555 1_555
C23 C22 1_555 1_555
C24 C23 1_555 1_555
H14 C24 1_555 1_555
C25 C24 1_555 1_555
H15 C25 1_555 1_555
C26 C25 1_555 1_555
H16 C26 1_555 1_555
C27 C23 1_555 1_555
C28 C20 1_555 1_555
C29 N9 1_555 1_555
C30 Os2 1_555 1_555
C31 Os2 1_555 1_555
C32 Os2 1_555 1_555
C33 H17 1_555 1_555
C34 C33 1_555 1_555
H18 C34 1_555 1_555
C35 C34 1_555 1_555
H19 C35 1_555 1_555
C36 C35 1_555 1_555
C37 C36 1_555 1_555
H20 C37 1_555 1_555
C38 C37 1_555 1_555
H21 C38 1_555 1_555
C39 C38 1_555 1_555
C40 C39 1_555 1_555
H22 C40 1_555 1_555
C41 C40 1_555 1_555
H23 C41 1_555 1_555
C42 C41 1_555 1_555
H24 C42 1_555 1_555
C43 C39 1_555 1_555
C44 C36 1_555 1_555
C45 H25 1_555 1_555
C46 C45 1_555 1_555
H26 C46 1_555 1_555
C47 C46 1_555 1_555
H27 C47 1_555 1_555
C48 C47 1_555 1_555
C49 C48 1_555 1_555
H28 C49 1_555 1_555
C50 C49 1_555 1_555
H29 C50 1_555 1_555
C51 C50 1_555 1_555
C52 C51 1_555 1_555
H30 C52 1_555 1_555
C53 C52 1_555 1_555
H31 C53 1_555 1_555
C54 C53 1_555 1_555
H32 C54 1_555 1_555
C55 C51 1_555 1_555
C56 C48 1_555 1_555
N1 Os1 1_555 1_555
N2 Os1 1_555 1_555
N4 C14 1_555 1_555
N5 C15 1_555 1_555
N6 C16 1_555 1_555
N7 Os2 1_555 1_555
N8 Os2 1_555 1_555
N9 Er1 1_555 1_555
N10 C30 1_555 1_555
N11 C31 1_555 1_555
N12 C32 1_555 1_555
N13 Er1 1_555 1_555
N14 Er1 1_555 1_555
N15 Er1 1_555 1_555
N16 Er1 1_555 1_555
O1 Er1 1_555 1_555
H33 O1 1_555 1_555
H34 O1 1_555 1_555
C57 H35 1_555 1_555
H36 C57 1_555 1_555
H37 C57 1_555 1_555
O3 C57 1_555 1_555
H38 O3 1_555 1_555
C58 H39 1_555 1_555
H40 C58 1_555 1_555
H41 C58 1_555 1_555
O4 C58 1_555 1_555
H42 O4 1_555 1_555
O5 H43 1_555 1_555
H44 O5 1_555 1_555
O6 H45 1_555 1_555
H46 O6 1_555 1_555
O7 H47 1_555 1_555
H48 O7 1_555 1_555
O8 H49 1_555 1_555
H50 O8 1_555 1_555
O9 H51 1_555 1_555
H52 O9 1_555 1_555
O10 H53 1_555 1_555
H54 O10 1_555 1_555
Os1B C13B 1_555 1_555
Os2B C29B 1_555 1_555
Er1B N4 1_555 1_555
C1B H1B 1_555 1_555
C2B C1B 1_555 1_555
H2B C2B 1_555 1_555
C3B C2B 1_555 1_555
H3B C3B 1_555 1_555
C4B C3B 1_555 1_555
C5B C4B 1_555 1_555
H4B C5B 1_555 1_555
C6B C5B 1_555 1_555
H5B C6B 1_555 1_555
C7B C6B 1_555 1_555
C8B C7B 1_555 1_555
H6B C8B 1_555 1_555
C9B C8B 1_555 1_555
H7B C9B 1_555 1_555
C10B C9B 1_555 1_555
H8B C10B 1_555 1_555
C11B C7B 1_555 1_555
C12B C4B 1_555 1_555
C13B N3B 1_555 1_555
C14B Os1B 1_555 1_555
C15B Os1B 1_555 1_555
C16B Os1B 1_555 1_555
C17B H9B 1_555 1_555
C18B C17B 1_555 1_555
H10B C18B 1_555 1_555
C19B C18B 1_555 1_555
H11B C19B 1_555 1_555
C20B C19B 1_555 1_555
C21B C20B 1_555 1_555
H12B C21B 1_555 1_555
C22B C21B 1_555 1_555
H13B C22B 1_555 1_555
C23B C22B 1_555 1_555
C24B C23B 1_555 1_555
H14B C24B 1_555 1_555
C25B C24B 1_555 1_555
H15B C25B 1_555 1_555
C26B C25B 1_555 1_555
H16B C26B 1_555 1_555
C27B C23B 1_555 1_555
C28B C20B 1_555 1_555
C29B N9B 1_555 1_555
C30B Os2B 1_555 1_555
C31B Os2B 1_555 1_555
C32B Os2B 1_555 1_555
C33B H17B 1_555 1_555
C34B C33B 1_555 1_555
H18B C34B 1_555 1_555
C35B C34B 1_555 1_555
H19B C35B 1_555 1_555
C36B C35B 1_555 1_555
C37B C36B 1_555 1_555
H20B C37B 1_555 1_555
C38B C37B 1_555 1_555
H21B C38B 1_555 1_555
C39B C38B 1_555 1_555
C40B C39B 1_555 1_555
H22B C40B 1_555 1_555
C41B C40B 1_555 1_555
H23B C41B 1_555 1_555
C42B C41B 1_555 1_555
H24B C42B 1_555 1_555
C43B C39B 1_555 1_555
C44B C36B 1_555 1_555
C45B H25B 1_555 1_555
C46B C45B 1_555 1_555
H26B C46B 1_555 1_555
C47B C46B 1_555 1_555
H27B C47B 1_555 1_555
C48B C47B 1_555 1_555
C49B C48B 1_555 1_555
H28B C49B 1_555 1_555
C50B C49B 1_555 1_555
H29B C50B 1_555 1_555
C51B C50B 1_555 1_555
C52B C51B 1_555 1_555
H30B C52B 1_555 1_555
C53B C52B 1_555 1_555
H31B C53B 1_555 1_555
C54B C53B 1_555 1_555
H32B C54B 1_555 1_555
C55B C51B 1_555 1_555
C56B C48B 1_555 1_555
N1B Os1B 1_555 1_555
N2B Os1B 1_555 1_555
N3B Er1B 1_555 1_555
N4B Er1 1_555 1_555
N5B C15B 1_555 1_555
N6B C16B 1_555 1_555
N7B Os2B 1_555 1_555
N8B Os2B 1_555 1_555
N9B Er1B 1_555 1_555
N10B C30B 1_555 1_555
N11B C31B 1_555 1_555
N12B C32B 1_555 1_555
N13B Er1B 1_555 1_555
N14B Er1B 1_555 1_555
N15B Er1B 1_555 1_555
N16B Er1B 1_555 1_555
O1B Er1B 1_555 1_555
H33B O1B 1_555 1_555
H34B O1B 1_555 1_555
C1 N1 1_555 1_555
C10 N2 1_555 1_555
C11 C12 1_555 1_555
C11 N2 1_555 1_555
C12 N1 1_555 1_555
C17 N7 1_555 1_555
C26 N8 1_555 1_555
C27 C28 1_555 1_555
C27 N8 1_555 1_555
C28 N7 1_555 1_555
C33 N13 1_555 1_555
C42 N14 1_555 1_555
C43 C44 1_555 1_555
C43 N14 1_555 1_555
C44 N13 1_555 1_555
C45 N15 1_555 1_555
C54 N16 1_555 1_555
C55 C56 1_555 1_555
C55 N16 1_555 1_555
C56 N15 1_555 1_555
C1B N1B 1_555 1_555
C10B N2B 1_555 1_555
C11B C12B 1_555 1_555
C11B N2B 1_555 1_555
C12B N1B 1_555 1_555
C14B N4B 1_555 1_555
C17B N7B 1_555 1_555
C26B N8B 1_555 1_555
C27B C28B 1_555 1_555
C27B N8B 1_555 1_555
C28B N7B 1_555 1_555
C33B N13B 1_555 1_555
C42B N14B 1_555 1_555
C43B C44B 1_555 1_555
C43B N14B 1_555 1_555
C44B N13B 1_555 1_555
C45B N15B 1_555 1_555
C54B N16B 1_555 1_555
C55B C56B 1_555 1_555
C55B N16B 1_555 1_555
C56B N15B 1_555 1_555

#END
