
#######################################################################
#
#                 Cambridge Crystallographic Data Centre
#                                CCDC 
#
#######################################################################
#
# If this CIF has been generated from an entry in the Cambridge 
# Structural Database, then it will include bibliographic, chemical, 
# crystal, experimental, refinement or atomic coordinate data resulting 
# from the CCDC's data processing and validation procedures.
#
#######################################################################

data_SODQAE
_chemical_formula_moiety         
'2(Na1 1+),C112 H68 N32 O2 Os4 Pr2 2-,4(C1 H4 O1),17(H2 O1)'
_chemical_name_systematic        
'Disodium hexakis(\m~2~-cyano)-octakis(1,10-phenanthroline)-diaqua-decacyano-tetra-osmium(ii)-di-praseodymium(iii) methanol solvate heptadecahydrate'
_symmetry_cell_setting           monoclinic
_symmetry_space_group_name_H-M   'P 21/c'
_symmetry_Int_Tables_number      14
_space_group_name_Hall           '-P 2ybc'
loop_
_symmetry_equiv_pos_site_id
_symmetry_equiv_pos_as_xyz
1 x,y,z
2 -x,1/2+y,1/2-z
3 -x,-y,-z
4 x,1/2-y,1/2+z
_cell_length_a                   14.3807(15)
_cell_length_b                   27.939(3)
_cell_length_c                   17.3682(19)
_cell_angle_alpha                90
_cell_angle_beta                 100.375(6)
_cell_angle_gamma                90
_cell_volume                     6864.14
_exptl_crystal_colour            red
_exptl_crystal_description       block
_cell_formula_units_Z            2
_exptl_crystal_preparation       luminescent
loop_
_atom_site_label
_atom_site_type_symbol
_atom_site_fract_x
_atom_site_fract_y
_atom_site_fract_z
Os1 Os 0.56924(2) -0.131358(10) 0.674743(17)
Os2 Os 1.068006(18) 0.124220(9) 0.966862(16)
Pr1 Pr 0.73583(3) 0.020539(13) 0.85260(2)
C1 C 0.7578(6) -0.1816(3) 0.7507(5)
H1 H 0.7756 -0.1518 0.7753
C2 C 0.8191(7) -0.2203(3) 0.7667(6)
H2 H 0.8779 -0.2168 0.8012
C3 C 0.7937(8) -0.2635(3) 0.7320(7)
H3 H 0.8342 -0.2904 0.7436
C4 C 0.7082(8) -0.2680(3) 0.6796(6)
C5 C 0.6737(11) -0.3120(3) 0.6369(8)
H4 H 0.7095 -0.3406 0.6467
C6 C 0.5928(11) -0.3125(4) 0.5844(8)
H5 H 0.5722 -0.3418 0.5590
C7 C 0.5372(8) -0.2709(3) 0.5656(6)
C8 C 0.4553(10) -0.2688(4) 0.5081(7)
H6 H 0.4349 -0.2964 0.4776
C9 C 0.4051(10) -0.2276(4) 0.4959(6)
H7 H 0.3501 -0.2258 0.4564
C10 C 0.4359(8) -0.1874(4) 0.5430(6)
H8 H 0.3989 -0.1590 0.5356
C11 C 0.5647(7) -0.2286(3) 0.6088(5)
C12 C 0.6505(7) -0.2276(3) 0.6654(5)
C13 C 0.6304(5) -0.0850(2) 0.7526(4)
C14 C 0.4631(8) -0.0861(3) 0.6404(6)
C15 C 0.4970(6) -0.1631(3) 0.7526(5)
C16 C 0.6423(7) -0.1029(3) 0.5957(5)
C17 C 0.9351(6) 0.1952(3) 0.8603(6)
H9 H 0.8932 0.1689 0.8481
C18 C 0.9112(7) 0.2391(4) 0.8242(7)
H10 H 0.8535 0.2422 0.7881
C19 C 0.9702(7) 0.2778(3) 0.8402(7)
H11 H 0.9542 0.3076 0.8149
C20 C 1.0545(7) 0.2726(3) 0.8945(6)
C21 C 1.1240(8) 0.3100(3) 0.9165(6)
H12 H 1.1130 0.3406 0.8929
C22 C 1.2021(8) 0.3031(3) 0.9680(6)
H13 H 1.2438 0.3292 0.9828
C23 C 1.2254(6) 0.2565(3) 1.0026(5)
C24 C 1.3083(6) 0.2462(3) 1.0570(5)
H14 H 1.3528 0.2708 1.0739
C25 C 1.3245(6) 0.2007(3) 1.0855(5)
H15 H 1.3801 0.1935 1.1222
C26 C 1.2583(5) 0.1649(3) 1.0597(4)
H16 H 1.2705 0.1334 1.0797
C27 C 1.1625(5) 0.2186(3) 0.9810(4)
C28 C 1.0760(6) 0.2271(3) 0.9282(5)
C29 C 0.9535(5) 0.0868(2) 0.9270(4)
C30 C 1.1349(5) 0.0678(2) 1.0182(4)
C31 C 1.1180(5) 0.1101(3) 0.8671(5)
C32 C 1.0148(5) 0.1375(3) 1.0654(5)
C33 C 0.6406(6) 0.0188(3) 0.6520(4)
H17 H 0.6717 -0.0114 0.6577
C34 C 0.5820(8) 0.0293(3) 0.5803(5)
H18 H 0.5761 0.0072 0.5383
C35 C 0.5337(8) 0.0715(3) 0.5712(5)
H19 H 0.4910 0.0783 0.5240
C36 C 0.5483(6) 0.1050(3) 0.6335(5)
C37 C 0.5055(7) 0.1512(3) 0.6269(6)
H20 H 0.4601 0.1588 0.5817
C38 C 0.5283(7) 0.1843(3) 0.6836(5)
H21 H 0.5005 0.2152 0.6771
C39 C 0.5947(5) 0.1732(3) 0.7543(5)
C40 C 0.6248(6) 0.2074(3) 0.8120(5)
H22 H 0.6019 0.2393 0.8061
C41 C 0.6885(6) 0.1940(3) 0.8778(5)
H23 H 0.7119 0.2169 0.9170
C42 C 0.7180(5) 0.1460(2) 0.8858(5)
H24 H 0.7594 0.1368 0.9325
C43 C 0.6317(5) 0.1265(2) 0.7648(4)
C44 C 0.6096(5) 0.0921(3) 0.7016(4)
C45 C 0.4845(5) 0.0143(3) 0.7965(4)
H25 H 0.5038 0.0007 0.7519
C46 C 0.3873(6) 0.0196(3) 0.7949(5)
H26 H 0.3423 0.0107 0.7502
C47 C 0.3591(5) 0.0381(3) 0.8606(5)
H27 H 0.2938 0.0422 0.8617
C48 C 0.4265(5) 0.0510(2) 0.9254(5)
C49 C 0.4030(6) 0.0696(3) 0.9973(6)
H28 H 0.3384 0.0732 1.0013
C50 C 0.4692(7) 0.0816(3) 1.0578(5)
H29 H 0.4506 0.0937 1.1038
C51 C 0.5674(6) 0.0769(2) 1.0556(5)
C52 C 0.6405(7) 0.0886(3) 1.1182(5)
H30 H 0.6255 0.1021 1.1646
C53 C 0.7330(7) 0.0806(3) 1.1128(5)
H31 H 0.7823 0.0886 1.1550
C54 C 0.7536(6) 0.0607(3) 1.0451(4)
H32 H 0.8178 0.0542 1.0426
C55 C 0.5947(5) 0.0576(2) 0.9868(4)
C56 C 0.5231(5) 0.0452(2) 0.9208(4)
N1 N 0.6748(5) -0.1849(2) 0.7023(4)
N2 N 0.5142(6) -0.1873(2) 0.5971(4)
N3 N 0.6680(4) -0.0573(2) 0.7992(3)
N4 N 0.3994(8) -0.0606(4) 0.6195(6)
N5 N 0.4574(5) -0.1841(2) 0.7946(4)
N6 N 0.6863(6) -0.0874(3) 0.5515(4)
N7 N 1.0151(4) 0.1890(2) 0.9115(4)
N8 N 1.1790(4) 0.1728(2) 1.0085(3)
N9 N 0.8824(4) 0.0666(2) 0.9037(4)
N10 N 0.8212(4) -0.0354(2) 0.9508(4)
N11 N 1.1428(6) 0.1015(3) 0.8084(5)
N12 N 0.9848(6) 0.1428(3) 1.1230(5)
N13 N 0.6546(4) 0.0487(2) 0.7121(3)
N14 N 0.6912(4) 0.1128(2) 0.8317(4)
N15 N 0.5510(4) 0.02686(19) 0.8556(3)
N16 N 0.6875(4) 0.0502(2) 0.9828(3)
O3 O 0.8506(4) -0.0014(3) 0.7700(4)
H39 H 0.8969 0.0029 0.7465
H40 H 0.8901 -0.0238 0.7833
Os1B Os 1.43076(2) 0.131358(10) 1.325257(17)
Os2B Os 0.931994(18) -0.124220(9) 1.033138(16)
Pr1B Pr 1.26417(3) -0.020539(13) 1.14740(2)
C1B C 1.2422(6) 0.1816(3) 1.2493(5)
H1B H 1.2244 0.1518 1.2247
C2B C 1.1809(7) 0.2203(3) 1.2333(6)
H2B H 1.1221 0.2168 1.1988
C3B C 1.2063(8) 0.2635(3) 1.2680(7)
H3B H 1.1658 0.2904 1.2564
C4B C 1.2918(8) 0.2680(3) 1.3204(6)
C5B C 1.3263(11) 0.3120(3) 1.3631(8)
H4B H 1.2905 0.3406 1.3533
C6B C 1.4072(11) 0.3125(4) 1.4156(8)
H5B H 1.4278 0.3418 1.4410
C7B C 1.4628(8) 0.2709(3) 1.4344(6)
C8B C 1.5447(10) 0.2688(4) 1.4919(7)
H6B H 1.5651 0.2964 1.5224
C9B C 1.5949(10) 0.2276(4) 1.5041(6)
H7B H 1.6499 0.2258 1.5436
C10B C 1.5641(8) 0.1874(4) 1.4570(6)
H8B H 1.6011 0.1590 1.4644
C11B C 1.4353(7) 0.2286(3) 1.3912(5)
C12B C 1.3495(7) 0.2276(3) 1.3346(5)
C13B C 1.3696(5) 0.0850(2) 1.2474(4)
C14B C 1.5369(8) 0.0861(3) 1.3596(6)
C15B C 1.5030(6) 0.1631(3) 1.2474(5)
C16B C 1.3577(7) 0.1029(3) 1.4043(5)
C17B C 1.0649(6) -0.1952(3) 1.1397(6)
H9B H 1.1068 -0.1689 1.1519
C18B C 1.0888(7) -0.2391(4) 1.1758(7)
H10B H 1.1465 -0.2422 1.2119
C19B C 1.0298(7) -0.2778(3) 1.1598(7)
H11B H 1.0458 -0.3076 1.1851
C20B C 0.9455(7) -0.2726(3) 1.1055(6)
C21B C 0.8760(8) -0.3100(3) 1.0835(6)
H12B H 0.8870 -0.3406 1.1071
C22B C 0.7979(8) -0.3031(3) 1.0320(6)
H13B H 0.7562 -0.3292 1.0172
C23B C 0.7746(6) -0.2565(3) 0.9974(5)
C24B C 0.6917(6) -0.2462(3) 0.9430(5)
H14B H 0.6472 -0.2708 0.9261
C25B C 0.6755(6) -0.2007(3) 0.9145(5)
H15B H 0.6199 -0.1935 0.8778
C26B C 0.7417(5) -0.1649(3) 0.9403(4)
H16B H 0.7295 -0.1334 0.9203
C27B C 0.8375(5) -0.2186(3) 1.0190(4)
C28B C 0.9240(6) -0.2271(3) 1.0718(5)
C29B C 1.0465(5) -0.0868(2) 1.0730(4)
C30B C 0.8651(5) -0.0678(2) 0.9818(4)
C31B C 0.8820(5) -0.1101(3) 1.1329(5)
C32B C 0.9852(5) -0.1375(3) 0.9346(5)
C33B C 1.3594(6) -0.0188(3) 1.3480(4)
H17B H 1.3283 0.0114 1.3423
C34B C 1.4180(8) -0.0293(3) 1.4197(5)
H18B H 1.4239 -0.0072 1.4617
C35B C 1.4663(8) -0.0715(3) 1.4288(5)
H19B H 1.5090 -0.0783 1.4760
C36B C 1.4517(6) -0.1050(3) 1.3665(5)
C37B C 1.4945(7) -0.1512(3) 1.3731(6)
H20B H 1.5399 -0.1588 1.4183
C38B C 1.4717(7) -0.1843(3) 1.3164(5)
H21B H 1.4995 -0.2152 1.3229
C39B C 1.4053(5) -0.1732(3) 1.2457(5)
C40B C 1.3752(6) -0.2074(3) 1.1880(5)
H22B H 1.3981 -0.2393 1.1939
C41B C 1.3115(6) -0.1940(3) 1.1222(5)
H23B H 1.2881 -0.2169 1.0830
C42B C 1.2820(5) -0.1460(2) 1.1142(5)
H24B H 1.2406 -0.1368 1.0675
C43B C 1.3683(5) -0.1265(2) 1.2352(4)
C44B C 1.3904(5) -0.0921(3) 1.2984(4)
C45B C 1.5155(5) -0.0143(3) 1.2035(4)
H25B H 1.4962 -0.0007 1.2481
C46B C 1.6127(6) -0.0196(3) 1.2051(5)
H26B H 1.6577 -0.0107 1.2498
C47B C 1.6409(5) -0.0381(3) 1.1394(5)
H27B H 1.7062 -0.0422 1.1383
C48B C 1.5735(5) -0.0510(2) 1.0746(5)
C49B C 1.5970(6) -0.0696(3) 1.0027(6)
H28B H 1.6616 -0.0732 0.9987
C50B C 1.5308(7) -0.0816(3) 0.9422(5)
H29B H 1.5494 -0.0937 0.8962
C51B C 1.4326(6) -0.0769(2) 0.9444(5)
C52B C 1.3595(7) -0.0886(3) 0.8818(5)
H30B H 1.3745 -0.1021 0.8354
C53B C 1.2670(7) -0.0806(3) 0.8872(5)
H31B H 1.2177 -0.0886 0.8450
C54B C 1.2464(6) -0.0607(3) 0.9549(4)
H32B H 1.1822 -0.0542 0.9574
C55B C 1.4053(5) -0.0576(2) 1.0132(4)
C56B C 1.4769(5) -0.0452(2) 1.0792(4)
N1B N 1.3252(5) 0.1849(2) 1.2977(4)
N2B N 1.4858(6) 0.1873(2) 1.4029(4)
N3B N 1.3320(4) 0.0573(2) 1.2008(3)
N4B N 1.6006(8) 0.0606(4) 1.3805(6)
N5B N 1.5426(5) 0.1841(2) 1.2054(4)
N6B N 1.3137(6) 0.0874(3) 1.4485(4)
N7B N 0.9849(4) -0.1890(2) 1.0885(4)
N8B N 0.8210(4) -0.1728(2) 0.9915(3)
N9B N 1.1176(4) -0.0666(2) 1.0963(4)
N10B N 1.1788(4) 0.0354(2) 1.0492(4)
N11B N 0.8572(6) -0.1015(3) 1.1916(5)
N12B N 1.0152(6) -0.1428(3) 0.8770(5)
N13B N 1.3454(4) -0.0487(2) 1.2879(3)
N14B N 1.3088(4) -0.1128(2) 1.1683(4)
N15B N 1.4490(4) -0.02686(19) 1.1444(3)
N16B N 1.3125(4) -0.0502(2) 1.0172(3)
O3B O 1.1494(4) 0.0014(3) 1.2300(4)
H39B H 1.1031 -0.0029 1.2535
H40B H 1.1099 0.0238 1.2167
Na1 Na 0.0890(3) -0.00822(12) 0.4932(2)
O1 O 0.1349(3) 0.00754(14) 0.5873(2)
C57 C 0.0129(13) -0.2811(7) 0.9005(12)
H33 H -0.0250 -0.2563 0.9203
H34 H -0.0163 -0.3125 0.9047
H35 H 0.0158 -0.2745 0.8456
O9 O 0.1082(10) -0.2810(5) 0.9466(9)
H49 H 0.1156 -0.3045 0.9772
C58 C 0.2687(15) 0.1230(6) 0.6583(9)
H36 H 0.3048 0.1091 0.7064
H37 H 0.2816 0.1574 0.6571
H38 H 0.2876 0.1076 0.6128
O6 O 0.1736(16) 0.1158(8) 0.6563(9)
O4 O 0.1398(9) 0.0561(5) 0.3515(9)
H41 H 0.0914 0.0706 0.3269
H42 H 0.1913 0.0651 0.3799
O5 O 1.0265(6) -0.0230(3) 0.8769(6)
H43 H 1.0585 -0.0078 0.8483
H44 H 0.9898 -0.0002 0.8836
O7 O 0.2701(7) -0.2057(5) 0.8007(8)
H45 H 0.2600 -0.1849 0.7645
H46 H 0.3275 -0.1993 0.7993
O8 O 0.1902(5) -0.1962(3) 0.9321(6)
H47 H 0.1794 -0.2038 0.8839
H48 H 0.1590 -0.2155 0.9553
O10 O 0.0219(11) -0.1040(4) 0.7285(7)
H50 H 0.0758 -0.1098 0.7170
H51 H 0.0203 -0.1155 0.7735
O11 O 0.2163(16) -0.1302(11) 0.6906(12)
O12 O 0.131(2) -0.3561(9) 1.0414(12)
O13 O 1.1118(13) 0.0012(6) 0.7426(12)
O14 O 0.2805(14) 0.0158(7) 0.5572(12)
Na2? Na 0.1349(3) 0.00754(14) 0.5873(2)
O2? O 0.0890(3) -0.00822(12) 0.4932(2)
O15? O 0.0163(11) 0.0112(10) 0.4433(14)
loop_
_geom_bond_atom_site_label_1
_geom_bond_atom_site_label_2
_geom_bond_site_symmetry_1
_geom_bond_site_symmetry_2
Os1 C13 1_555 1_555
Os2 C29 1_555 1_555
Pr1 N3 1_555 1_555
C1 H1 1_555 1_555
C2 C1 1_555 1_555
H2 C2 1_555 1_555
C3 C2 1_555 1_555
H3 C3 1_555 1_555
C4 C3 1_555 1_555
C5 C4 1_555 1_555
H4 C5 1_555 1_555
C6 C5 1_555 1_555
H5 C6 1_555 1_555
C7 C6 1_555 1_555
C8 C7 1_555 1_555
H6 C8 1_555 1_555
C9 C8 1_555 1_555
H7 C9 1_555 1_555
C10 C9 1_555 1_555
H8 C10 1_555 1_555
C11 C7 1_555 1_555
C12 C4 1_555 1_555
C13 N3 1_555 1_555
C14 Os1 1_555 1_555
C15 Os1 1_555 1_555
C16 Os1 1_555 1_555
C17 H9 1_555 1_555
C18 C17 1_555 1_555
H10 C18 1_555 1_555
C19 C18 1_555 1_555
H11 C19 1_555 1_555
C20 C19 1_555 1_555
C21 C20 1_555 1_555
H12 C21 1_555 1_555
C22 C21 1_555 1_555
H13 C22 1_555 1_555
C23 C22 1_555 1_555
C24 C23 1_555 1_555
H14 C24 1_555 1_555
C25 C24 1_555 1_555
H15 C25 1_555 1_555
C26 C25 1_555 1_555
H16 C26 1_555 1_555
C27 C23 1_555 1_555
C28 C20 1_555 1_555
C29 N9 1_555 1_555
C30 Os2 1_555 1_555
C31 Os2 1_555 1_555
C32 Os2 1_555 1_555
C33 H17 1_555 1_555
C34 C33 1_555 1_555
H18 C34 1_555 1_555
C35 C34 1_555 1_555
H19 C35 1_555 1_555
C36 C35 1_555 1_555
C37 C36 1_555 1_555
H20 C37 1_555 1_555
C38 C37 1_555 1_555
H21 C38 1_555 1_555
C39 C38 1_555 1_555
C40 C39 1_555 1_555
H22 C40 1_555 1_555
C41 C40 1_555 1_555
H23 C41 1_555 1_555
C42 C41 1_555 1_555
H24 C42 1_555 1_555
C43 C39 1_555 1_555
C44 C36 1_555 1_555
C45 H25 1_555 1_555
C46 C45 1_555 1_555
H26 C46 1_555 1_555
C47 C46 1_555 1_555
H27 C47 1_555 1_555
C48 C47 1_555 1_555
C49 C48 1_555 1_555
H28 C49 1_555 1_555
C50 C49 1_555 1_555
H29 C50 1_555 1_555
C51 C50 1_555 1_555
C52 C51 1_555 1_555
H30 C52 1_555 1_555
C53 C52 1_555 1_555
H31 C53 1_555 1_555
C54 C53 1_555 1_555
H32 C54 1_555 1_555
C55 C51 1_555 1_555
C56 C48 1_555 1_555
C57 H33 1_555 1_555
H34 C57 1_555 1_555
H35 C57 1_555 1_555
C58 H36 1_555 1_555
H37 C58 1_555 1_555
H38 C58 1_555 1_555
N1 Os1 1_555 1_555
N2 Os1 1_555 1_555
N4 C14 1_555 1_555
N5 C15 1_555 1_555
N6 C16 1_555 1_555
N7 Os2 1_555 1_555
N8 Os2 1_555 1_555
N9 Pr1 1_555 1_555
N10 Pr1 1_555 1_555
N11 C31 1_555 1_555
N12 C32 1_555 1_555
N13 Pr1 1_555 1_555
N14 Pr1 1_555 1_555
N15 Pr1 1_555 1_555
N16 Pr1 1_555 1_555
O3 Pr1 1_555 1_555
H39 O3 1_555 1_555
H40 O3 1_555 1_555
O4 H41 1_555 1_555
H42 O4 1_555 1_555
O5 H43 1_555 1_555
H44 O5 1_555 1_555
O6 C58 1_555 1_555
O7 H45 1_555 1_555
H46 O7 1_555 1_555
O8 H47 1_555 1_555
H48 O8 1_555 1_555
O9 C57 1_555 1_555
H49 O9 1_555 1_555
O10 H50 1_555 1_555
H51 O10 1_555 1_555
Os1B C13B 1_555 1_555
Os2B C29B 1_555 1_555
Pr1B N3B 1_555 1_555
C1B H1B 1_555 1_555
C2B C1B 1_555 1_555
H2B C2B 1_555 1_555
C3B C2B 1_555 1_555
H3B C3B 1_555 1_555
C4B C3B 1_555 1_555
C5B C4B 1_555 1_555
H4B C5B 1_555 1_555
C6B C5B 1_555 1_555
H5B C6B 1_555 1_555
C7B C6B 1_555 1_555
C8B C7B 1_555 1_555
H6B C8B 1_555 1_555
C9B C8B 1_555 1_555
H7B C9B 1_555 1_555
C10B C9B 1_555 1_555
H8B C10B 1_555 1_555
C11B C7B 1_555 1_555
C12B C4B 1_555 1_555
C13B N3B 1_555 1_555
C14B Os1B 1_555 1_555
C15B Os1B 1_555 1_555
C16B Os1B 1_555 1_555
C17B H9B 1_555 1_555
C18B C17B 1_555 1_555
H10B C18B 1_555 1_555
C19B C18B 1_555 1_555
H11B C19B 1_555 1_555
C20B C19B 1_555 1_555
C21B C20B 1_555 1_555
H12B C21B 1_555 1_555
C22B C21B 1_555 1_555
H13B C22B 1_555 1_555
C23B C22B 1_555 1_555
C24B C23B 1_555 1_555
H14B C24B 1_555 1_555
C25B C24B 1_555 1_555
H15B C25B 1_555 1_555
C26B C25B 1_555 1_555
H16B C26B 1_555 1_555
C27B C23B 1_555 1_555
C28B C20B 1_555 1_555
C29B N9B 1_555 1_555
C30B N10 1_555 1_555
C31B Os2B 1_555 1_555
C32B Os2B 1_555 1_555
C33B H17B 1_555 1_555
C34B C33B 1_555 1_555
H18B C34B 1_555 1_555
C35B C34B 1_555 1_555
H19B C35B 1_555 1_555
C36B C35B 1_555 1_555
C37B C36B 1_555 1_555
H20B C37B 1_555 1_555
C38B C37B 1_555 1_555
H21B C38B 1_555 1_555
C39B C38B 1_555 1_555
C40B C39B 1_555 1_555
H22B C40B 1_555 1_555
C41B C40B 1_555 1_555
H23B C41B 1_555 1_555
C42B C41B 1_555 1_555
H24B C42B 1_555 1_555
C43B C39B 1_555 1_555
C44B C36B 1_555 1_555
C45B H25B 1_555 1_555
C46B C45B 1_555 1_555
H26B C46B 1_555 1_555
C47B C46B 1_555 1_555
H27B C47B 1_555 1_555
C48B C47B 1_555 1_555
C49B C48B 1_555 1_555
H28B C49B 1_555 1_555
C50B C49B 1_555 1_555
H29B C50B 1_555 1_555
C51B C50B 1_555 1_555
C52B C51B 1_555 1_555
H30B C52B 1_555 1_555
C53B C52B 1_555 1_555
H31B C53B 1_555 1_555
C54B C53B 1_555 1_555
H32B C54B 1_555 1_555
C55B C51B 1_555 1_555
C56B C48B 1_555 1_555
N1B Os1B 1_555 1_555
N2B Os1B 1_555 1_555
N4B C14B 1_555 1_555
N5B C15B 1_555 1_555
N6B C16B 1_555 1_555
N7B Os2B 1_555 1_555
N8B Os2B 1_555 1_555
N9B Pr1B 1_555 1_555
N10B C30 1_555 1_555
N11B C31B 1_555 1_555
N12B C32B 1_555 1_555
N13B Pr1B 1_555 1_555
N14B Pr1B 1_555 1_555
N15B Pr1B 1_555 1_555
N16B Pr1B 1_555 1_555
O3B Pr1B 1_555 1_555
H39B O3B 1_555 1_555
H40B O3B 1_555 1_555
C1 N1 1_555 1_555
C10 N2 1_555 1_555
C11 C12 1_555 1_555
C11 N2 1_555 1_555
C12 N1 1_555 1_555
C17 N7 1_555 1_555
C26 N8 1_555 1_555
C27 C28 1_555 1_555
C27 N8 1_555 1_555
C28 N7 1_555 1_555
C33 N13 1_555 1_555
C42 N14 1_555 1_555
C43 C44 1_555 1_555
C43 N14 1_555 1_555
C44 N13 1_555 1_555
C45 N15 1_555 1_555
C54 N16 1_555 1_555
C55 C56 1_555 1_555
C55 N16 1_555 1_555
C56 N15 1_555 1_555
Os2B C30B 1_555 1_555
Pr1B N10B 1_555 1_555
C1B N1B 1_555 1_555
C10B N2B 1_555 1_555
C11B C12B 1_555 1_555
C11B N2B 1_555 1_555
C12B N1B 1_555 1_555
C17B N7B 1_555 1_555
C26B N8B 1_555 1_555
C27B C28B 1_555 1_555
C27B N8B 1_555 1_555
C28B N7B 1_555 1_555
C33B N13B 1_555 1_555
C42B N14B 1_555 1_555
C43B C44B 1_555 1_555
C43B N14B 1_555 1_555
C44B N13B 1_555 1_555
C45B N15B 1_555 1_555
C54B N16B 1_555 1_555
C55B C56B 1_555 1_555
C55B N16B 1_555 1_555
C56B N15B 1_555 1_555

#END
