
#######################################################################
#
#                 Cambridge Crystallographic Data Centre
#                                CCDC 
#
#######################################################################
#
# If this CIF has been generated from an entry in the Cambridge 
# Structural Database, then it will include bibliographic, chemical, 
# crystal, experimental, refinement or atomic coordinate data resulting 
# from the CCDC's data processing and validation procedures.
#
#######################################################################

data_SODQUY
_chemical_formula_moiety         
'2(Na1 1+),C112 H68 N32 O2 Os4 Yb2 2-,20(H2 O1)'
_chemical_name_systematic        
'Disodium hexakis(\m~2~-cyano)-octakis(1,10-phenanthroline)-diaqua-decacyano-tetra-osmium(ii)-di-ytterbium(iii) icosahydrate'
_symmetry_cell_setting           monoclinic
_symmetry_space_group_name_H-M   'P 21/c'
_symmetry_Int_Tables_number      14
_space_group_name_Hall           '-P 2ybc'
loop_
_symmetry_equiv_pos_site_id
_symmetry_equiv_pos_as_xyz
1 x,y,z
2 -x,1/2+y,1/2-z
3 -x,-y,-z
4 x,1/2-y,1/2+z
_cell_length_a                   14.1796(11)
_cell_length_b                   27.713(2)
_cell_length_c                   17.1951(13)
_cell_angle_alpha                90
_cell_angle_beta                 101.828(5)
_cell_angle_gamma                90
_cell_volume                     6613.51
_exptl_crystal_colour            red
_exptl_crystal_description       block
_cell_formula_units_Z            2
_exptl_crystal_preparation       luminescent
loop_
_atom_site_label
_atom_site_type_symbol
_atom_site_fract_x
_atom_site_fract_y
_atom_site_fract_z
Os1 Os 0.06601(4) -0.12090(2) 1.46179(3)
Os2 Os 0.42996(4) -0.13143(2) 1.82120(4)
Yb1 Yb 0.26615(4) 0.02017(2) 1.64633(3)
C1 C 0.2582(10) -0.1667(6) 1.5528(9)
H1 H 0.2747 -0.1353 1.5732
C2 C 0.3217(12) -0.2049(7) 1.5788(10)
H2 H 0.3778 -0.2000 1.6190
C3 C 0.3018(14) -0.2485(7) 1.5459(12)
H3 H 0.3466 -0.2742 1.5598
C4 C 0.2168(14) -0.2566(7) 1.4919(12)
C5 C 0.1835(17) -0.3027(7) 1.4528(16)
H4 H 0.2211 -0.3307 1.4687
C6 C 0.1063(16) -0.3073(8) 1.3980(19)
H5 H 0.0931 -0.3376 1.3721
C7 C 0.0388(13) -0.2675(7) 1.3748(15)
C8 C -0.0456(14) -0.2693(8) 1.3177(16)
H6 H -0.0642 -0.2981 1.2887
C9 C -0.0998(13) -0.2301(7) 1.3042(15)
H7 H -0.1597 -0.2318 1.2674
C10 C -0.0722(11) -0.1872(7) 1.3418(13)
H8 H -0.1109 -0.1594 1.3273
C11 C 0.0645(11) -0.2231(6) 1.4144(11)
C12 C 0.1545(11) -0.2170(5) 1.4696(11)
C13 C 0.1373(10) -0.0666(5) 1.5208(8)
C14 C -0.0510(10) -0.0819(5) 1.4244(8)
C15 C 0.1136(10) -0.1014(6) 1.3627(10)
C16 C 0.0110(11) -0.1394(6) 1.5600(11)
C17 C 0.5624(16) -0.1924(10) 1.9542(12)
H9 H 0.6037 -0.1651 1.9635
C18 C 0.588(2) -0.2339(12) 2.0014(15)
H10 H 0.6430 -0.2334 2.0440
C19 C 0.538(2) -0.2721(10) 1.9861(16)
H11 H 0.5558 -0.3002 2.0169
C20 C 0.4545(19) -0.2735(9) 1.9241(16)
C21 C 0.398(3) -0.3152(9) 1.9046(17)
H12 H 0.4181 -0.3449 1.9304
C22 C 0.316(2) -0.3130(7) 1.8489(17)
H13 H 0.2769 -0.3410 1.8363
C23 C 0.2871(19) -0.2690(7) 1.8095(15)
C24 C 0.2017(19) -0.2631(8) 1.7574(18)
H14 H 0.1590 -0.2898 1.7463
C25 C 0.1743(13) -0.2185(7) 1.7194(12)
H15 H 0.1155 -0.2154 1.6816
C26 C 0.2362(13) -0.1793(6) 1.7391(10)
H16 H 0.2175 -0.1487 1.7164
C27 C 0.3436(14) -0.2280(6) 1.8236(10)
C28 C 0.4280(14) -0.2306(7) 1.8822(12)
C29 C 0.3693(10) -0.0826(5) 1.7431(9)
C30 C 0.3585(13) -0.1036(5) 1.9044(9)
C31 C 0.5407(14) -0.0886(8) 1.8592(10)
C32 C 0.5000(12) -0.1629(6) 1.7415(10)
C33 C 0.3496(11) 0.0169(6) 1.8462(8)
H17 H 0.3168 -0.0132 1.8395
C34 C 0.4079(12) 0.0272(6) 1.9202(9)
H18 H 0.4129 0.0049 1.9629
C35 C 0.4579(13) 0.0699(7) 1.9302(11)
H19 H 0.5010 0.0769 1.9790
C36 C 0.4444(12) 0.1034(6) 1.8672(9)
C37 C 0.4863(13) 0.1505(7) 1.8731(12)
H20 H 0.5308 0.1589 1.9204
C38 C 0.4655(12) 0.1835(7) 1.8149(11)
H21 H 0.4948 0.2145 1.8215
C39 C 0.3981(11) 0.1717(6) 1.7419(10)
C40 C 0.3668(13) 0.2046(6) 1.6814(10)
H22 H 0.3889 0.2370 1.6872
C41 C 0.3057(12) 0.1912(5) 1.6145(11)
H23 H 0.2825 0.2140 1.5739
C42 C 0.2769(11) 0.1430(6) 1.6060(9)
H24 H 0.2358 0.1335 1.5576
C43 C 0.3631(10) 0.1247(5) 1.7306(9)
C44 C 0.3842(9) 0.0904(5) 1.7939(8)
C45 C 0.5132(10) 0.0147(6) 1.7095(10)
H25 H 0.4952 0.0010 1.7549
C46 C 0.6100(11) 0.0211(6) 1.7109(10)
H26 H 0.6564 0.0130 1.7572
C47 C 0.6388(11) 0.0388(6) 1.6462(11)
H27 H 0.7055 0.0428 1.6468
C48 C 0.5713(11) 0.0510(5) 1.5794(10)
C49 C 0.5947(15) 0.0687(6) 1.5080(12)
H28 H 0.6605 0.0726 1.5053
C50 C 0.5247(13) 0.0803(6) 1.4431(11)
H29 H 0.5428 0.0923 1.3965
C51 C 0.4244(12) 0.0747(5) 1.4444(10)
C52 C 0.3515(14) 0.0852(6) 1.3815(10)
H30 H 0.3668 0.0994 1.3353
C53 C 0.2581(15) 0.0760(6) 1.3831(9)
H31 H 0.2081 0.0830 1.3387
C54 C 0.2374(13) 0.0557(6) 1.4530(10)
H32 H 0.1722 0.0482 1.4541
C55 C 0.3990(11) 0.0554(5) 1.5157(9)
C56 C 0.4706(10) 0.0446(5) 1.5824(9)
N1 N 0.1761(8) -0.1729(4) 1.5009(8)
N2 N 0.0079(8) -0.1835(4) 1.3983(8)
N3 N 0.1838(8) -0.0355(5) 1.5555(7)
N4 N -0.1238(8) -0.0615(4) 1.4030(7)
N5 N 0.1345(11) -0.0924(7) 1.3025(9)
N6 N -0.0212(12) -0.1469(7) 1.6156(11)
N7 N 0.4839(11) -0.1894(6) 1.8979(8)
N8 N 0.3224(10) -0.1839(5) 1.7898(8)
N9 N 0.3327(8) -0.0528(4) 1.6991(6)
N10 N 0.3167(11) -0.0894(5) 1.9483(8)
N11 N 0.6087(13) -0.0630(9) 1.8800(10)
N12 N 0.5408(11) -0.1828(5) 1.6989(9)
N13 N 0.3375(8) 0.0467(4) 1.7849(6)
N14 N 0.3035(7) 0.1093(4) 1.6619(6)
N15 N 0.4432(8) 0.0267(4) 1.6480(7)
N16 N 0.3048(8) 0.0463(4) 1.5178(7)
O1 O 0.1569(7) -0.0022(4) 1.7228(7)
H33 H 0.1062 0.0104 1.7333
H34 H 0.1668 -0.0259 1.7548
Os1B Os -0.06601(4) 0.12090(2) 1.53821(3)
Os2B Os -0.42996(4) 0.13143(2) 1.17880(4)
Yb1B Yb -0.26615(4) -0.02017(2) 1.35367(3)
C1B C -0.2582(10) 0.1667(6) 1.4472(9)
H1B H -0.2747 0.1353 1.4268
C2B C -0.3217(12) 0.2049(7) 1.4212(10)
H2B H -0.3778 0.2000 1.3810
C3B C -0.3018(14) 0.2485(7) 1.4541(12)
H3B H -0.3466 0.2742 1.4402
C4B C -0.2168(14) 0.2566(7) 1.5081(12)
C5B C -0.1835(17) 0.3027(7) 1.5472(16)
H4B H -0.2211 0.3307 1.5313
C6B C -0.1063(16) 0.3073(8) 1.6020(19)
H5B H -0.0931 0.3376 1.6279
C7B C -0.0388(13) 0.2675(7) 1.6252(15)
C8B C 0.0456(14) 0.2693(8) 1.6823(16)
H6B H 0.0642 0.2981 1.7113
C9B C 0.0998(13) 0.2301(7) 1.6958(15)
H7B H 0.1597 0.2318 1.7326
C10B C 0.0722(11) 0.1872(7) 1.6582(13)
H8B H 0.1109 0.1594 1.6727
C11B C -0.0645(11) 0.2231(6) 1.5856(11)
C12B C -0.1545(11) 0.2170(5) 1.5304(11)
C13B C -0.1373(10) 0.0666(5) 1.4792(8)
C14B C 0.0510(10) 0.0819(5) 1.5756(8)
C15B C -0.1136(10) 0.1014(6) 1.6373(10)
C16B C -0.0110(11) 0.1394(6) 1.4400(11)
C17B C -0.5624(16) 0.1924(10) 1.0458(12)
H9B H -0.6037 0.1651 1.0365
C18B C -0.588(2) 0.2339(12) 0.9986(15)
H10B H -0.6430 0.2334 0.9560
C19B C -0.538(2) 0.2721(10) 1.0139(16)
H11B H -0.5558 0.3002 0.9831
C20B C -0.4545(19) 0.2735(9) 1.0759(16)
C21B C -0.398(3) 0.3152(9) 1.0954(17)
H12B H -0.4181 0.3449 1.0696
C22B C -0.316(2) 0.3130(7) 1.1511(17)
H13B H -0.2769 0.3410 1.1637
C23B C -0.2871(19) 0.2690(7) 1.1905(15)
C24B C -0.2017(19) 0.2631(8) 1.2426(18)
H14B H -0.1590 0.2898 1.2537
C25B C -0.1743(13) 0.2185(7) 1.2806(12)
H15B H -0.1155 0.2154 1.3184
C26B C -0.2362(13) 0.1793(6) 1.2609(10)
H16B H -0.2175 0.1487 1.2836
C27B C -0.3436(14) 0.2280(6) 1.1764(10)
C28B C -0.4280(14) 0.2306(7) 1.1178(12)
C29B C -0.3693(10) 0.0826(5) 1.2569(9)
C30B C -0.3585(13) 0.1036(5) 1.0956(9)
C31B C -0.5407(14) 0.0886(8) 1.1408(10)
C32B C -0.5000(12) 0.1629(6) 1.2585(10)
C33B C -0.3496(11) -0.0169(6) 1.1538(8)
H17B H -0.3168 0.0132 1.1605
C34B C -0.4079(12) -0.0272(6) 1.0798(9)
H18B H -0.4129 -0.0049 1.0371
C35B C -0.4579(13) -0.0699(7) 1.0698(11)
H19B H -0.5010 -0.0769 1.0210
C36B C -0.4444(12) -0.1034(6) 1.1328(9)
C37B C -0.4863(13) -0.1505(7) 1.1269(12)
H20B H -0.5308 -0.1589 1.0796
C38B C -0.4655(12) -0.1835(7) 1.1851(11)
H21B H -0.4948 -0.2145 1.1785
C39B C -0.3981(11) -0.1717(6) 1.2581(10)
C40B C -0.3668(13) -0.2046(6) 1.3186(10)
H22B H -0.3889 -0.2370 1.3128
C41B C -0.3057(12) -0.1912(5) 1.3855(11)
H23B H -0.2825 -0.2140 1.4261
C42B C -0.2769(11) -0.1430(6) 1.3940(9)
H24B H -0.2358 -0.1335 1.4424
C43B C -0.3631(10) -0.1247(5) 1.2694(9)
C44B C -0.3842(9) -0.0904(5) 1.2061(8)
C45B C -0.5132(10) -0.0147(6) 1.2905(10)
H25B H -0.4952 -0.0010 1.2451
C46B C -0.6100(11) -0.0211(6) 1.2891(10)
H26B H -0.6564 -0.0130 1.2428
C47B C -0.6388(11) -0.0388(6) 1.3538(11)
H27B H -0.7055 -0.0428 1.3532
C48B C -0.5713(11) -0.0510(5) 1.4206(10)
C49B C -0.5947(15) -0.0687(6) 1.4920(12)
H28B H -0.6605 -0.0726 1.4947
C50B C -0.5247(13) -0.0803(6) 1.5569(11)
H29B H -0.5428 -0.0923 1.6035
C51B C -0.4244(12) -0.0747(5) 1.5556(10)
C52B C -0.3515(14) -0.0852(6) 1.6185(10)
H30B H -0.3668 -0.0994 1.6647
C53B C -0.2581(15) -0.0760(6) 1.6169(9)
H31B H -0.2081 -0.0830 1.6613
C54B C -0.2374(13) -0.0557(6) 1.5470(10)
H32B H -0.1722 -0.0482 1.5459
C55B C -0.3990(11) -0.0554(5) 1.4843(9)
C56B C -0.4706(10) -0.0446(5) 1.4176(9)
N1B N -0.1761(8) 0.1729(4) 1.4991(8)
N2B N -0.0079(8) 0.1835(4) 1.6017(8)
N3B N -0.1838(8) 0.0355(5) 1.4445(7)
N4B N 0.1238(8) 0.0615(4) 1.5970(7)
N5B N -0.1345(11) 0.0924(7) 1.6975(9)
N6B N 0.0212(12) 0.1469(7) 1.3844(11)
N7B N -0.4839(11) 0.1894(6) 1.1021(8)
N8B N -0.3224(10) 0.1839(5) 1.2102(8)
N9B N -0.3327(8) 0.0528(4) 1.3009(6)
N10B N -0.3167(11) 0.0894(5) 1.0517(8)
N11B N -0.6087(13) 0.0630(9) 1.1200(10)
N12B N -0.5408(11) 0.1828(5) 1.3011(9)
N13B N -0.3375(8) -0.0467(4) 1.2151(6)
N14B N -0.3035(7) -0.1093(4) 1.3381(6)
N15B N -0.4432(8) -0.0267(4) 1.3520(7)
N16B N -0.3048(8) -0.0463(4) 1.4822(7)
O1B O -0.1569(7) 0.0022(4) 1.2772(7)
H33B H -0.1062 -0.0104 1.2667
H34B H -0.1668 0.0259 1.2452
Na1 Na 0.0907(7) 0.0077(4) 2.0113(6)
O2 O 0.8166(12) -0.2086(8) 1.5811(13)
O3 O 0.9782(12) -0.0202(7) 1.6218(12)
O4 O 0.7321(10) -0.2003(7) 1.7078(12)
O5 O 0.1094(19) 0.0033(11) 1.2304(18)
O6 O 0.979(2) -0.1002(9) 1.7630(15)
O7 O 0.1377(15) -0.0589(9) 1.8471(17)
O8 O 0.205(3) 0.139(2) 0.873(3)
O9 O 0.091(3) 0.0866(15) 0.789(2)
O10 O 0.259(5) -0.118(2) 1.146(2)
O12 O 0.913(8) -0.289(3) 1.578(4)
O13 O 0.784(5) -0.119(3) 1.817(4)
Na2? Na 0.0896(9) 0.0445(5) 1.0147(8)
Na3? Na 0.1124(9) -0.0061(5) 1.0796(8)
O11? O 0.165(5) -0.115(2) 1.154(2)
O14? O 0.862(8) -0.298(3) 1.506(4)
O15? O 0.760(5) -0.157(3) 1.847(4)
loop_
_geom_bond_atom_site_label_1
_geom_bond_atom_site_label_2
_geom_bond_site_symmetry_1
_geom_bond_site_symmetry_2
Os1 C13 1_555 1_555
Os2 C29 1_555 1_555
Yb1 N3 1_555 1_555
C1 H1 1_555 1_555
C2 C1 1_555 1_555
H2 C2 1_555 1_555
C3 C2 1_555 1_555
H3 C3 1_555 1_555
C4 C3 1_555 1_555
C5 C4 1_555 1_555
H4 C5 1_555 1_555
C6 C5 1_555 1_555
H5 C6 1_555 1_555
C7 C6 1_555 1_555
C8 C7 1_555 1_555
H6 C8 1_555 1_555
C9 C8 1_555 1_555
H7 C9 1_555 1_555
C10 C9 1_555 1_555
H8 C10 1_555 1_555
C11 C7 1_555 1_555
C12 C4 1_555 1_555
C13 N3 1_555 1_555
C14 Os1 1_555 1_555
C15 Os1 1_555 1_555
C16 Os1 1_555 1_555
C17 H9 1_555 1_555
C18 C17 1_555 1_555
H10 C18 1_555 1_555
C19 C18 1_555 1_555
H11 C19 1_555 1_555
C20 C19 1_555 1_555
C21 C20 1_555 1_555
H12 C21 1_555 1_555
C22 C21 1_555 1_555
H13 C22 1_555 1_555
C23 C22 1_555 1_555
C24 C23 1_555 1_555
H14 C24 1_555 1_555
C25 C24 1_555 1_555
H15 C25 1_555 1_555
C26 C25 1_555 1_555
H16 C26 1_555 1_555
C27 C23 1_555 1_555
C28 C20 1_555 1_555
C29 N9 1_555 1_555
C30 Os2 1_555 1_555
C31 Os2 1_555 1_555
C32 Os2 1_555 1_555
C33 H17 1_555 1_555
C34 C33 1_555 1_555
H18 C34 1_555 1_555
C35 C34 1_555 1_555
H19 C35 1_555 1_555
C36 C35 1_555 1_555
C37 C36 1_555 1_555
H20 C37 1_555 1_555
C38 C37 1_555 1_555
H21 C38 1_555 1_555
C39 C38 1_555 1_555
C40 C39 1_555 1_555
H22 C40 1_555 1_555
C41 C40 1_555 1_555
H23 C41 1_555 1_555
C42 C41 1_555 1_555
H24 C42 1_555 1_555
C43 C39 1_555 1_555
C44 C36 1_555 1_555
C45 H25 1_555 1_555
C46 C45 1_555 1_555
H26 C46 1_555 1_555
C47 C46 1_555 1_555
H27 C47 1_555 1_555
C48 C47 1_555 1_555
C49 C48 1_555 1_555
H28 C49 1_555 1_555
C50 C49 1_555 1_555
H29 C50 1_555 1_555
C51 C50 1_555 1_555
C52 C51 1_555 1_555
H30 C52 1_555 1_555
C53 C52 1_555 1_555
H31 C53 1_555 1_555
C54 C53 1_555 1_555
H32 C54 1_555 1_555
C55 C51 1_555 1_555
C56 C48 1_555 1_555
N1 Os1 1_555 1_555
N2 Os1 1_555 1_555
N4 C14 1_555 1_555
N5 C15 1_555 1_555
N6 C16 1_555 1_555
N7 Os2 1_555 1_555
N8 Os2 1_555 1_555
N9 Yb1 1_555 1_555
N10 C30 1_555 1_555
N11 C31 1_555 1_555
N12 C32 1_555 1_555
N13 Yb1 1_555 1_555
N14 Yb1 1_555 1_555
N15 Yb1 1_555 1_555
N16 Yb1 1_555 1_555
O1 Yb1 1_555 1_555
H33 O1 1_555 1_555
H34 O1 1_555 1_555
Os1B C13B 1_555 1_555
Os2B C29B 1_555 1_555
Yb1B N4 1_555 1_555
C1B H1B 1_555 1_555
C2B C1B 1_555 1_555
H2B C2B 1_555 1_555
C3B C2B 1_555 1_555
H3B C3B 1_555 1_555
C4B C3B 1_555 1_555
C5B C4B 1_555 1_555
H4B C5B 1_555 1_555
C6B C5B 1_555 1_555
H5B C6B 1_555 1_555
C7B C6B 1_555 1_555
C8B C7B 1_555 1_555
H6B C8B 1_555 1_555
C9B C8B 1_555 1_555
H7B C9B 1_555 1_555
C10B C9B 1_555 1_555
H8B C10B 1_555 1_555
C11B C7B 1_555 1_555
C12B C4B 1_555 1_555
C13B N3B 1_555 1_555
C14B Os1B 1_555 1_555
C15B Os1B 1_555 1_555
C16B Os1B 1_555 1_555
C17B H9B 1_555 1_555
C18B C17B 1_555 1_555
H10B C18B 1_555 1_555
C19B C18B 1_555 1_555
H11B C19B 1_555 1_555
C20B C19B 1_555 1_555
C21B C20B 1_555 1_555
H12B C21B 1_555 1_555
C22B C21B 1_555 1_555
H13B C22B 1_555 1_555
C23B C22B 1_555 1_555
C24B C23B 1_555 1_555
H14B C24B 1_555 1_555
C25B C24B 1_555 1_555
H15B C25B 1_555 1_555
C26B C25B 1_555 1_555
H16B C26B 1_555 1_555
C27B C23B 1_555 1_555
C28B C20B 1_555 1_555
C29B N9B 1_555 1_555
C30B Os2B 1_555 1_555
C31B Os2B 1_555 1_555
C32B Os2B 1_555 1_555
C33B H17B 1_555 1_555
C34B C33B 1_555 1_555
H18B C34B 1_555 1_555
C35B C34B 1_555 1_555
H19B C35B 1_555 1_555
C36B C35B 1_555 1_555
C37B C36B 1_555 1_555
H20B C37B 1_555 1_555
C38B C37B 1_555 1_555
H21B C38B 1_555 1_555
C39B C38B 1_555 1_555
C40B C39B 1_555 1_555
H22B C40B 1_555 1_555
C41B C40B 1_555 1_555
H23B C41B 1_555 1_555
C42B C41B 1_555 1_555
H24B C42B 1_555 1_555
C43B C39B 1_555 1_555
C44B C36B 1_555 1_555
C45B H25B 1_555 1_555
C46B C45B 1_555 1_555
H26B C46B 1_555 1_555
C47B C46B 1_555 1_555
H27B C47B 1_555 1_555
C48B C47B 1_555 1_555
C49B C48B 1_555 1_555
H28B C49B 1_555 1_555
C50B C49B 1_555 1_555
H29B C50B 1_555 1_555
C51B C50B 1_555 1_555
C52B C51B 1_555 1_555
H30B C52B 1_555 1_555
C53B C52B 1_555 1_555
H31B C53B 1_555 1_555
C54B C53B 1_555 1_555
H32B C54B 1_555 1_555
C55B C51B 1_555 1_555
C56B C48B 1_555 1_555
N1B Os1B 1_555 1_555
N2B Os1B 1_555 1_555
N3B Yb1B 1_555 1_555
N4B Yb1 1_555 1_555
N5B C15B 1_555 1_555
N6B C16B 1_555 1_555
N7B Os2B 1_555 1_555
N8B Os2B 1_555 1_555
N9B Yb1B 1_555 1_555
N10B C30B 1_555 1_555
N11B C31B 1_555 1_555
N12B C32B 1_555 1_555
N13B Yb1B 1_555 1_555
N14B Yb1B 1_555 1_555
N15B Yb1B 1_555 1_555
N16B Yb1B 1_555 1_555
O1B Yb1B 1_555 1_555
H33B O1B 1_555 1_555
H34B O1B 1_555 1_555
C1 N1 1_555 1_555
C10 N2 1_555 1_555
C11 C12 1_555 1_555
C11 N2 1_555 1_555
C12 N1 1_555 1_555
C17 N7 1_555 1_555
C26 N8 1_555 1_555
C27 C28 1_555 1_555
C27 N8 1_555 1_555
C28 N7 1_555 1_555
C33 N13 1_555 1_555
C42 N14 1_555 1_555
C43 C44 1_555 1_555
C43 N14 1_555 1_555
C44 N13 1_555 1_555
C45 N15 1_555 1_555
C54 N16 1_555 1_555
C55 C56 1_555 1_555
C55 N16 1_555 1_555
C56 N15 1_555 1_555
C1B N1B 1_555 1_555
C10B N2B 1_555 1_555
C11B C12B 1_555 1_555
C11B N2B 1_555 1_555
C12B N1B 1_555 1_555
C14B N4B 1_555 1_555
C17B N7B 1_555 1_555
C26B N8B 1_555 1_555
C27B C28B 1_555 1_555
C27B N8B 1_555 1_555
C28B N7B 1_555 1_555
C33B N13B 1_555 1_555
C42B N14B 1_555 1_555
C43B C44B 1_555 1_555
C43B N14B 1_555 1_555
C44B N13B 1_555 1_555
C45B N15B 1_555 1_555
C54B N16B 1_555 1_555
C55B C56B 1_555 1_555
C55B N16B 1_555 1_555
C56B N15B 1_555 1_555

#END
