# generated using pymatgen
data_Mn12H252C204N24O77
_symmetry_space_group_name_H-M   'P 1'
_cell_length_a   33.88002610
_cell_length_b   33.88002610
_cell_length_c   33.88002610
_cell_angle_alpha   108.04903094
_cell_angle_beta   108.04903094
_cell_angle_gamma   112.35465182
_symmetry_Int_Tables_number   1
_chemical_formula_structural   Mn12H252C204N24O77
_chemical_formula_sum   'Mn48 H1008 C816 N96 O308'
_cell_volume   29879.89514063
_cell_formula_units_Z   4
loop_
 _symmetry_equiv_pos_site_id
 _symmetry_equiv_pos_as_xyz
  1  'x, y, z'
loop_
 _atom_site_type_symbol
 _atom_site_label
 _atom_site_symmetry_multiplicity
 _atom_site_fract_x
 _atom_site_fract_y
 _atom_site_fract_z
 _atom_site_occupancy
  C  C1  1  0.680500  0.947590  0.490490  1.0
  C  C2  1  0.190010  0.180500  0.732910  1.0
  C  C3  1  0.457100  0.690010  0.009510  1.0
  C  C4  1  0.447590  0.957100  0.767090  1.0
  C  C5  1  0.319500  0.052410  0.509510  1.0
  C  C6  1  0.809990  0.819500  0.267090  1.0
  C  C7  1  0.542900  0.309990  0.990490  1.0
  C  C8  1  0.552410  0.042900  0.232910  1.0
  C  C9  1  0.634040  0.925790  0.444670  1.0
  C  C10  1  0.189370  0.134040  0.708250  1.0
  C  C11  1  0.481120  0.689370  0.055330  1.0
  C  C12  1  0.425790  0.981120  0.791750  1.0
  C  C13  1  0.365960  0.074210  0.555330  1.0
  C  C14  1  0.810630  0.865960  0.291750  1.0
  C  C15  1  0.518880  0.310630  0.944670  1.0
  C  C16  1  0.574210  0.018880  0.208250  1.0
  C  C17  1  0.632640  0.950440  0.416000  1.0
  C  C18  1  0.216640  0.132640  0.682200  1.0
  C  C19  1  0.534440  0.716640  0.084000  1.0
  C  C20  1  0.450440  0.034440  0.817800  1.0
  C  C21  1  0.367360  0.049560  0.584000  1.0
  C  C22  1  0.783360  0.867360  0.317800  1.0
  C  C23  1  0.465560  0.283360  0.916000  1.0
  C  C24  1  0.549560  0.965560  0.182200  1.0
  C  C25  1  0.660500  0.000970  0.436270  1.0
  C  C26  1  0.224230  0.160500  0.659530  1.0
  C  C27  1  0.564700  0.724230  0.063730  1.0
  C  C28  1  0.500970  0.064700  0.840470  1.0
  C  C29  1  0.339500  0.999030  0.563730  1.0
  C  C30  1  0.775770  0.839500  0.340470  1.0
  C  C31  1  0.435300  0.275770  0.936270  1.0
  C  C32  1  0.499030  0.935300  0.159530  1.0
  C  C33  1  0.658800  0.025600  0.411200  1.0
  C  C34  1  0.247600  0.158800  0.633200  1.0
  C  C35  1  0.614400  0.747600  0.088800  1.0
  C  C36  1  0.525600  0.114400  0.866800  1.0
  C  C37  1  0.341200  0.974400  0.588800  1.0
  C  C38  1  0.752400  0.841200  0.366800  1.0
  C  C39  1  0.385600  0.252400  0.911200  1.0
  C  C40  1  0.474400  0.885600  0.133200  1.0
  C  C41  1  0.626900  0.998100  0.362600  1.0
  C  C42  1  0.264300  0.126900  0.628800  1.0
  C  C43  1  0.635500  0.764300  0.137400  1.0
  C  C44  1  0.498100  0.135500  0.871200  1.0
  C  C45  1  0.373100  0.001900  0.637400  1.0
  C  C46  1  0.735700  0.873100  0.371200  1.0
  C  C47  1  0.364500  0.235700  0.862600  1.0
  C  C48  1  0.501900  0.864500  0.128800  1.0
  C  C49  1  0.597000  0.947500  0.338900  1.0
  C  C50  1  0.258100  0.097000  0.649500  1.0
  C  C51  1  0.608600  0.758100  0.161100  1.0
  C  C52  1  0.447500  0.108600  0.850500  1.0
  C  C53  1  0.403000  0.052500  0.661100  1.0
  C  C54  1  0.741900  0.903000  0.350500  1.0
  C  C55  1  0.391400  0.241900  0.838900  1.0
  C  C56  1  0.552500  0.891400  0.149500  1.0
  C  C57  1  0.600600  0.923650  0.367650  1.0
  C  C58  1  0.232950  0.100600  0.676950  1.0
  C  C59  1  0.556000  0.732950  0.132350  1.0
  C  C60  1  0.423650  0.056000  0.823050  1.0
  C  C61  1  0.399400  0.076350  0.632350  1.0
  C  C62  1  0.767050  0.899400  0.323050  1.0
  C  C63  1  0.444000  0.267050  0.867650  1.0
  C  C64  1  0.576350  0.944000  0.176950  1.0
  C  C65  1  0.690200  0.081200  0.438600  1.0
  C  C66  1  0.251600  0.190200  0.609000  1.0
  C  C67  1  0.642600  0.751600  0.061400  1.0
  C  C68  1  0.581200  0.142600  0.891000  1.0
  C  C69  1  0.309800  0.918800  0.561400  1.0
  C  C70  1  0.748400  0.809800  0.391000  1.0
  C  C71  1  0.357400  0.248400  0.938600  1.0
  C  C72  1  0.418800  0.857400  0.109000  1.0
  C  C73  1  0.567900  0.917800  0.286500  1.0
  C  C74  1  0.281400  0.067900  0.650100  1.0
  C  C75  1  0.631300  0.781400  0.213500  1.0
  C  C76  1  0.417800  0.131300  0.849900  1.0
  C  C77  1  0.432100  0.082200  0.713500  1.0
  C  C78  1  0.718600  0.932100  0.349900  1.0
  C  C79  1  0.368700  0.218600  0.786500  1.0
  C  C80  1  0.582200  0.868700  0.150100  1.0
  C  C81  1  0.484700  0.847700  0.219800  1.0
  C  C82  1  0.264900  0.984700  0.637000  1.0
  C  C83  1  0.627900  0.764900  0.280200  1.0
  C  C84  1  0.347700  0.127900  0.863000  1.0
  C  C85  1  0.515300  0.152300  0.780200  1.0
  C  C86  1  0.735100  0.015300  0.363000  1.0
  C  C87  1  0.372100  0.235100  0.719800  1.0
  C  C88  1  0.652300  0.872100  0.137000  1.0
  C  C89  1  0.498900  0.809800  0.209900  1.0
  C  C90  1  0.289000  0.998900  0.689100  1.0
  C  C91  1  0.599900  0.789000  0.290100  1.0
  C  C92  1  0.309800  0.099900  0.810900  1.0
  C  C93  1  0.501100  0.190200  0.790100  1.0
  C  C94  1  0.711000  0.001100  0.310900  1.0
  C  C95  1  0.400100  0.211000  0.709900  1.0
  C  C96  1  0.690200  0.900100  0.189100  1.0
  C  C97  1  0.496800  0.920500  0.287300  1.0
  C  C98  1  0.209500  0.996800  0.576300  1.0
  C  C99  1  0.633200  0.709500  0.212700  1.0
  C  C100  1  0.420500  0.133200  0.923700  1.0
  C  C101  1  0.503200  0.079500  0.712700  1.0
  C  C102  1  0.790500  0.003200  0.423700  1.0
  C  C103  1  0.366800  0.290500  0.787300  1.0
  C  C104  1  0.579500  0.866800  0.076300  1.0
  C  C105  1  0.510010  0.983770  0.414280  1.0
  C  C106  1  0.095730  0.010010  0.526240  1.0
  C  C107  1  0.569490  0.595730  0.085720  1.0
  C  C108  1  0.483770  0.069490  0.973760  1.0
  C  C109  1  0.489990  0.016230  0.585720  1.0
  C  C110  1  0.904270  0.989990  0.473760  1.0
  C  C111  1  0.430510  0.404270  0.914280  1.0
  C  C112  1  0.516230  0.930510  0.026240  1.0
  C  C113  1  0.479360  0.939240  0.414460  1.0
  C  C114  1  0.064900  0.979360  0.540120  1.0
  C  C115  1  0.524780  0.564900  0.085540  1.0
  C  C116  1  0.439240  0.024780  0.959880  1.0
  C  C117  1  0.520640  0.060760  0.585540  1.0
  C  C118  1  0.935100  0.020640  0.459880  1.0
  C  C119  1  0.475220  0.435100  0.914460  1.0
  C  C120  1  0.560760  0.975220  0.040120  1.0
  C  C121  1  0.441570  0.935350  0.429300  1.0
  C  C122  1  0.012270  0.941570  0.506220  1.0
  C  C123  1  0.506050  0.512270  0.070700  1.0
  C  C124  1  0.435350  0.006050  0.993780  1.0
  C  C125  1  0.558430  0.064650  0.570700  1.0
  C  C126  1  0.987730  0.058430  0.493780  1.0
  C  C127  1  0.493950  0.487730  0.929300  1.0
  C  C128  1  0.564650  0.993950  0.006220  1.0
  C  C129  1  0.443830  0.978980  0.454610  1.0
  C  C130  1  0.989220  0.943830  0.464850  1.0
  C  C131  1  0.524370  0.489220  0.045390  1.0
  C  C132  1  0.478980  0.024370  0.035150  1.0
  C  C133  1  0.556170  0.021020  0.545390  1.0
  C  C134  1  0.010780  0.056170  0.535150  1.0
  C  C135  1  0.475630  0.510780  0.954610  1.0
  C  C136  1  0.521020  0.975630  0.964850  1.0
  C  C137  1  0.409530  0.979680  0.467610  1.0
  C  C138  1  0.941920  0.909530  0.429850  1.0
  C  C139  1  0.512070  0.441920  0.032390  1.0
  C  C140  1  0.479680  0.012070  0.070150  1.0
  C  C141  1  0.590470  0.020320  0.532390  1.0
  C  C142  1  0.058080  0.090470  0.570150  1.0
  C  C143  1  0.487930  0.558080  0.967610  1.0
  C  C144  1  0.520320  0.987930  0.929850  1.0
  C  C145  1  0.370480  0.935500  0.454780  1.0
  C  C146  1  0.915700  0.870480  0.434980  1.0
  C  C147  1  0.480720  0.415700  0.045220  1.0
  C  C148  1  0.435500  0.980720  0.065020  1.0
  C  C149  1  0.629520  0.064500  0.545220  1.0
  C  C150  1  0.084300  0.129520  0.565020  1.0
  C  C151  1  0.519280  0.584300  0.954780  1.0
  C  C152  1  0.564500  0.019280  0.934980  1.0
  C  C153  1  0.366220  0.891630  0.430590  1.0
  C  C154  1  0.935630  0.866220  0.474590  1.0
  C  C155  1  0.461040  0.435630  0.069410  1.0
  C  C156  1  0.391630  0.961040  0.025410  1.0
  C  C157  1  0.633780  0.108370  0.569410  1.0
  C  C158  1  0.064370  0.133780  0.525410  1.0
  C  C159  1  0.538960  0.564370  0.930590  1.0
  C  C160  1  0.608370  0.038960  0.974590  1.0
  C  C161  1  0.402780  0.892060  0.418000  1.0
  C  C162  1  0.984780  0.902780  0.510720  1.0
  C  C163  1  0.474060  0.484780  0.082000  1.0
  C  C164  1  0.392060  0.974060  0.989280  1.0
  C  C165  1  0.597220  0.107940  0.582000  1.0
  C  C166  1  0.015220  0.097220  0.489280  1.0
  C  C167  1  0.525940  0.515220  0.918000  1.0
  C  C168  1  0.607940  0.025940  0.010720  1.0
  C  C169  1  0.411400  0.025950  0.492350  1.0
  C  C170  1  0.919050  0.911400  0.385450  1.0
  C  C171  1  0.533600  0.419050  0.007650  1.0
  C  C172  1  0.525950  0.033600  0.114550  1.0
  C  C173  1  0.588600  0.974050  0.507650  1.0
  C  C174  1  0.080950  0.088600  0.614550  1.0
  C  C175  1  0.466400  0.580950  0.992350  1.0
  C  C176  1  0.474050  0.966400  0.885450  1.0
  C  C177  1  0.323600  0.844070  0.415470  1.0
  C  C178  1  0.908130  0.823600  0.479530  1.0
  C  C179  1  0.428600  0.408130  0.084530  1.0
  C  C180  1  0.344070  0.928600  0.020470  1.0
  C  C181  1  0.676400  0.155930  0.584530  1.0
  C  C182  1  0.091870  0.176400  0.520470  1.0
  C  C183  1  0.571400  0.591870  0.915470  1.0
  C  C184  1  0.655930  0.071400  0.979530  1.0
  C  C185  1  0.291380  0.763370  0.412530  1.0
  C  C186  1  0.878850  0.791380  0.528010  1.0
  C  C187  1  0.350840  0.378850  0.087470  1.0
  C  C188  1  0.263370  0.850840  0.971990  1.0
  C  C189  1  0.708620  0.236630  0.587470  1.0
  C  C190  1  0.121150  0.208620  0.471990  1.0
  C  C191  1  0.649160  0.621150  0.912530  1.0
  C  C192  1  0.736630  0.149160  0.028010  1.0
  C  C193  1  0.254830  0.738780  0.361010  1.0
  C  C194  1  0.893820  0.754830  0.516050  1.0
  C  C195  1  0.377770  0.393820  0.138990  1.0
  C  C196  1  0.238780  0.877770  0.983950  1.0
  C  C197  1  0.745170  0.261220  0.638990  1.0
  C  C198  1  0.106180  0.245170  0.483950  1.0
  C  C199  1  0.622230  0.606180  0.861010  1.0
  C  C200  1  0.761220  0.122230  0.016050  1.0
  C  C201  1  0.370900  0.840500  0.487000  1.0
  C  C202  1  0.883900  0.870900  0.530400  1.0
  C  C203  1  0.353500  0.383900  0.013000  1.0
  C  C204  1  0.340500  0.853500  0.969600  1.0
  C  C205  1  0.629100  0.159500  0.513000  1.0
  C  C206  1  0.116100  0.129100  0.469600  1.0
  C  C207  1  0.646500  0.616100  0.987000  1.0
  C  C208  1  0.659500  0.146500  0.030400  1.0
  C  C209  1  0.387500  0.811400  0.506100  1.0
  C  C210  1  0.881400  0.887500  0.576100  1.0
  C  C211  1  0.305300  0.381400  0.993900  1.0
  C  C212  1  0.311400  0.805300  0.923900  1.0
  C  C213  1  0.612500  0.188600  0.493900  1.0
  C  C214  1  0.118600  0.112500  0.423900  1.0
  C  C215  1  0.694700  0.618600  0.006100  1.0
  C  C216  1  0.688600  0.194700  0.076100  1.0
  C  C217  1  0.530360  0.914590  0.568750  1.0
  C  C218  1  0.961610  0.030360  0.615770  1.0
  C  C219  1  0.345840  0.461610  0.931250  1.0
  C  C220  1  0.414590  0.845840  0.884230  1.0
  C  C221  1  0.469640  0.085410  0.431250  1.0
  C  C222  1  0.038390  0.969640  0.384230  1.0
  C  C223  1  0.654160  0.538390  0.068750  1.0
  C  C224  1  0.585410  0.154160  0.115770  1.0
  C  C225  1  0.543940  0.884800  0.539940  1.0
  C  C226  1  0.004000  0.043940  0.659140  1.0
  C  C227  1  0.344860  0.504000  0.960060  1.0
  C  C228  1  0.384800  0.844860  0.840860  1.0
  C  C229  1  0.456060  0.115200  0.460060  1.0
  C  C230  1  0.996000  0.956060  0.340860  1.0
  C  C231  1  0.655140  0.496000  0.039940  1.0
  C  C232  1  0.615200  0.155140  0.159140  1.0
  C  C233  1  0.585770  0.881100  0.563270  1.0
  C  C234  1  0.022500  0.085770  0.704670  1.0
  C  C235  1  0.317830  0.522500  0.936730  1.0
  C  C236  1  0.381100  0.817830  0.795330  1.0
  C  C237  1  0.414230  0.118900  0.436730  1.0
  C  C238  1  0.977500  0.914230  0.295330  1.0
  C  C239  1  0.682170  0.477500  0.063270  1.0
  C  C240  1  0.618900  0.182170  0.204670  1.0
  C  C241  1  0.623700  0.918300  0.609800  1.0
  C  C242  1  0.013900  0.123700  0.705400  1.0
  C  C243  1  0.308500  0.513900  0.890200  1.0
  C  C244  1  0.418300  0.808500  0.794600  1.0
  C  C245  1  0.376300  0.081700  0.390200  1.0
  C  C246  1  0.986100  0.876300  0.294600  1.0
  C  C247  1  0.691500  0.486100  0.109800  1.0
  C  C248  1  0.581700  0.191500  0.205400  1.0
  C  C249  1  0.660900  0.915200  0.634300  1.0
  C  C250  1  0.026600  0.160900  0.745700  1.0
  C  C251  1  0.280900  0.526600  0.865700  1.0
  C  C252  1  0.415200  0.780900  0.754300  1.0
  C  C253  1  0.339100  0.084800  0.365700  1.0
  C  C254  1  0.973400  0.839100  0.254300  1.0
  C  C255  1  0.719100  0.473400  0.134300  1.0
  C  C256  1  0.584800  0.219100  0.245700  1.0
  C  C257  1  0.665400  0.876700  0.614300  1.0
  C  C258  1  0.051100  0.165400  0.788700  1.0
  C  C259  1  0.262400  0.551100  0.885700  1.0
  C  C260  1  0.376700  0.762400  0.711300  1.0
  C  C261  1  0.334600  0.123300  0.385700  1.0
  C  C262  1  0.948900  0.834600  0.211300  1.0
  C  C263  1  0.737600  0.448900  0.114300  1.0
  C  C264  1  0.623300  0.237600  0.288700  1.0
  C  C265  1  0.630110  0.838700  0.567610  1.0
  C  C266  1  0.062500  0.130110  0.791410  1.0
  C  C267  1  0.271090  0.562500  0.932390  1.0
  C  C268  1  0.338700  0.771090  0.708590  1.0
  C  C269  1  0.369890  0.161300  0.432390  1.0
  C  C270  1  0.937500  0.869890  0.208590  1.0
  C  C271  1  0.728910  0.437500  0.067610  1.0
  C  C272  1  0.661300  0.228910  0.291410  1.0
  C  C273  1  0.589690  0.841500  0.541990  1.0
  C  C274  1  0.047700  0.089690  0.748190  1.0
  C  C275  1  0.299510  0.547700  0.958010  1.0
  C  C276  1  0.341500  0.799510  0.751810  1.0
  C  C277  1  0.410310  0.158500  0.458010  1.0
  C  C278  1  0.952300  0.910310  0.251810  1.0
  C  C279  1  0.700490  0.452300  0.041990  1.0
  C  C280  1  0.658500  0.200490  0.248190  1.0
  C  C281  1  0.701700  0.959200  0.686500  1.0
  C  C282  1  0.015200  0.201700  0.742500  1.0
  C  C283  1  0.272700  0.515200  0.813500  1.0
  C  C284  1  0.459200  0.772700  0.757500  1.0
  C  C285  1  0.298300  0.040800  0.313500  1.0
  C  C286  1  0.984800  0.798300  0.257500  1.0
  C  C287  1  0.727300  0.484800  0.186500  1.0
  C  C288  1  0.540800  0.227300  0.242500  1.0
  C  C289  1  0.631340  0.793860  0.546000  1.0
  C  C290  1  0.085340  0.131340  0.837480  1.0
  C  C291  1  0.247860  0.585340  0.954000  1.0
  C  C292  1  0.293860  0.747860  0.662520  1.0
  C  C293  1  0.368660  0.206140  0.454000  1.0
  C  C294  1  0.914660  0.868660  0.162520  1.0
  C  C295  1  0.752140  0.414660  0.046000  1.0
  C  C296  1  0.706140  0.252140  0.337480  1.0
  C  C297  1  0.629500  0.737300  0.478000  1.0
  C  C298  1  0.151500  0.129500  0.892200  1.0
  C  C299  1  0.259300  0.651500  0.022000  1.0
  C  C300  1  0.237300  0.759300  0.607800  1.0
  C  C301  1  0.370500  0.262700  0.522000  1.0
  C  C302  1  0.848500  0.870500  0.107800  1.0
  C  C303  1  0.740700  0.348500  0.978000  1.0
  C  C304  1  0.762700  0.240700  0.392200  1.0
  C  C305  1  0.586300  0.691300  0.472600  1.0
  C  C306  1  0.113700  0.086300  0.895000  1.0
  C  C307  1  0.218700  0.613700  0.027400  1.0
  C  C308  1  0.191300  0.718700  0.605000  1.0
  C  C309  1  0.413700  0.308700  0.527400  1.0
  C  C310  1  0.886300  0.913700  0.105000  1.0
  C  C311  1  0.781300  0.386300  0.972600  1.0
  C  C312  1  0.808700  0.281300  0.395000  1.0
  C  C313  1  0.670400  0.826900  0.503700  1.0
  C  C314  1  0.166700  0.170400  0.843500  1.0
  C  C315  1  0.323200  0.666700  0.996300  1.0
  C  C316  1  0.326900  0.823200  0.656500  1.0
  C  C317  1  0.329600  0.173100  0.496300  1.0
  C  C318  1  0.833300  0.829600  0.156500  1.0
  C  C319  1  0.676800  0.333300  0.003700  1.0
  C  C320  1  0.673100  0.176800  0.343500  1.0
  C  C321  1  0.674800  0.821000  0.460800  1.0
  C  C322  1  0.214000  0.174800  0.853800  1.0
  C  C323  1  0.360200  0.714000  0.039200  1.0
  C  C324  1  0.321000  0.860200  0.646200  1.0
  C  C325  1  0.325200  0.179000  0.539200  1.0
  C  C326  1  0.786000  0.825200  0.146200  1.0
  C  C327  1  0.639800  0.286000  0.960800  1.0
  C  C328  1  0.679000  0.139800  0.353800  1.0
  C  C329  1  0.414140  0.742280  0.395620  1.0
  C  C330  1  0.018520  0.914140  0.671860  1.0
  C  C331  1  0.346660  0.518520  0.104380  1.0
  C  C332  1  0.242280  0.846660  0.828140  1.0
  C  C333  1  0.585860  0.257720  0.604380  1.0
  C  C334  1  0.981480  0.085860  0.328140  1.0
  C  C335  1  0.653340  0.481480  0.895620  1.0
  C  C336  1  0.757720  0.153340  0.171860  1.0
  C  C337  1  0.374720  0.688650  0.367950  1.0
  C  C338  1  0.006770  0.874720  0.686070  1.0
  C  C339  1  0.320700  0.506770  0.132050  1.0
  C  C340  1  0.188650  0.820700  0.813930  1.0
  C  C341  1  0.625280  0.311350  0.632050  1.0
  C  C342  1  0.993230  0.125280  0.313930  1.0
  C  C343  1  0.679300  0.493230  0.867950  1.0
  C  C344  1  0.811350  0.179300  0.186070  1.0
  C  C345  1  0.327230  0.672410  0.335980  1.0
  C  C346  1  0.991250  0.827230  0.654820  1.0
  C  C347  1  0.336430  0.491250  0.164020  1.0
  C  C348  1  0.172410  0.836430  0.845180  1.0
  C  C349  1  0.672770  0.327590  0.664020  1.0
  C  C350  1  0.008750  0.172770  0.345180  1.0
  C  C351  1  0.663570  0.508750  0.835980  1.0
  C  C352  1  0.827590  0.163570  0.154820  1.0
  C  C353  1  0.292280  0.624530  0.310910  1.0
  C  C354  1  0.981370  0.792280  0.667750  1.0
  C  C355  1  0.313620  0.481370  0.189090  1.0
  C  C356  1  0.124530  0.813620  0.832250  1.0
  C  C357  1  0.707720  0.375470  0.689090  1.0
  C  C358  1  0.018630  0.207720  0.332250  1.0
  C  C359  1  0.686380  0.518630  0.810910  1.0
  C  C360  1  0.875470  0.186380  0.167750  1.0
  C  C361  1  0.303570  0.590160  0.317110  1.0
  C  C362  1  0.986460  0.803570  0.713410  1.0
  C  C363  1  0.273050  0.486460  0.182890  1.0
  C  C364  1  0.090160  0.773050  0.786590  1.0
  C  C365  1  0.696430  0.409840  0.682890  1.0
  C  C366  1  0.013540  0.196430  0.286590  1.0
  C  C367  1  0.726950  0.513540  0.817110  1.0
  C  C368  1  0.909840  0.226950  0.213410  1.0
  C  C369  1  0.350770  0.606180  0.349310  1.0
  C  C370  1  0.001460  0.850770  0.744590  1.0
  C  C371  1  0.256870  0.501460  0.150690  1.0
  C  C372  1  0.106180  0.756870  0.755410  1.0
  C  C373  1  0.649230  0.393820  0.650690  1.0
  C  C374  1  0.998540  0.149230  0.255410  1.0
  C  C375  1  0.743130  0.498540  0.849310  1.0
  C  C376  1  0.893820  0.243130  0.244590  1.0
  C  C377  1  0.385170  0.654490  0.374500  1.0
  C  C378  1  0.010670  0.885170  0.730680  1.0
  C  C379  1  0.279990  0.510670  0.125500  1.0
  C  C380  1  0.154490  0.779990  0.769320  1.0
  C  C381  1  0.614830  0.345510  0.625500  1.0
  C  C382  1  0.989330  0.114830  0.269320  1.0
  C  C383  1  0.720010  0.489330  0.874500  1.0
  C  C384  1  0.845510  0.220010  0.230680  1.0
  C  C385  1  0.240540  0.606740  0.275980  1.0
  C  C386  1  0.964560  0.740540  0.633800  1.0
  C  C387  1  0.330760  0.464560  0.224020  1.0
  C  C388  1  0.106740  0.830760  0.866200  1.0
  C  C389  1  0.759460  0.393260  0.724020  1.0
  C  C390  1  0.035440  0.259460  0.366200  1.0
  C  C391  1  0.669240  0.535440  0.775980  1.0
  C  C392  1  0.893260  0.169240  0.133800  1.0
  C  C393  1  0.362350  0.568790  0.356060  1.0
  C  C394  1  0.006290  0.862350  0.793560  1.0
  C  C395  1  0.212730  0.506290  0.143940  1.0
  C  C396  1  0.068790  0.712730  0.706440  1.0
  C  C397  1  0.637650  0.431210  0.643940  1.0
  C  C398  1  0.993710  0.137650  0.206440  1.0
  C  C399  1  0.787270  0.493710  0.856060  1.0
  C  C400  1  0.931210  0.287270  0.293560  1.0
  C  C401  1  0.008130  0.406500  0.065630  1.0
  C  C402  1  0.942500  0.508130  0.601630  1.0
  C  C403  1  0.340870  0.442500  0.434370  1.0
  C  C404  1  0.906500  0.840870  0.898370  1.0
  C  C405  1  0.991870  0.593500  0.934370  1.0
  C  C406  1  0.057500  0.491870  0.398370  1.0
  C  C407  1  0.659130  0.557500  0.565630  1.0
  C  C408  1  0.093500  0.159130  0.101630  1.0
  C  C409  1  0.048880  0.441970  0.115450  1.0
  C  C410  1  0.933430  0.548880  0.606910  1.0
  C  C411  1  0.326520  0.433430  0.384550  1.0
  C  C412  1  0.941970  0.826520  0.893090  1.0
  C  C413  1  0.951120  0.558030  0.884550  1.0
  C  C414  1  0.066570  0.451120  0.393090  1.0
  C  C415  1  0.673480  0.566570  0.615450  1.0
  C  C416  1  0.058030  0.173480  0.106910  1.0
  C  C417  1  0.040920  0.442100  0.156020  1.0
  C  C418  1  0.884900  0.540920  0.598820  1.0
  C  C419  1  0.286080  0.384900  0.343980  1.0
  C  C420  1  0.942100  0.786080  0.901180  1.0
  C  C421  1  0.959080  0.557900  0.843980  1.0
  C  C422  1  0.115100  0.459080  0.401180  1.0
  C  C423  1  0.713920  0.615100  0.656020  1.0
  C  C424  1  0.057900  0.213920  0.098820  1.0
  C  C425  1  0.994600  0.427300  0.153300  1.0
  C  C426  1  0.841300  0.494600  0.567300  1.0
  C  C427  1  0.274000  0.341300  0.346700  1.0
  C  C428  1  0.927300  0.774000  0.932700  1.0
  C  C429  1  0.005400  0.572700  0.846700  1.0
  C  C430  1  0.158700  0.505400  0.432700  1.0
  C  C431  1  0.726000  0.658700  0.653300  1.0
  C  C432  1  0.072700  0.226000  0.067300  1.0
  C  C433  1  0.986000  0.426500  0.189700  1.0
  C  C434  1  0.796300  0.486000  0.559500  1.0
  C  C435  1  0.236800  0.296300  0.310300  1.0
  C  C436  1  0.926500  0.736800  0.940500  1.0
  C  C437  1  0.014000  0.573500  0.810300  1.0
  C  C438  1  0.203700  0.514000  0.440500  1.0
  C  C439  1  0.763200  0.703700  0.689700  1.0
  C  C440  1  0.073500  0.263200  0.059500  1.0
  C  C441  1  0.023500  0.441900  0.232200  1.0
  C  C442  1  0.791300  0.523500  0.581600  1.0
  C  C443  1  0.209700  0.291300  0.267800  1.0
  C  C444  1  0.941900  0.709700  0.918400  1.0
  C  C445  1  0.976500  0.558100  0.767800  1.0
  C  C446  1  0.208700  0.476500  0.418400  1.0
  C  C447  1  0.790300  0.708700  0.732200  1.0
  C  C448  1  0.058100  0.290300  0.081600  1.0
  C  C449  1  0.071100  0.456800  0.237900  1.0
  C  C450  1  0.833200  0.571100  0.614300  1.0
  C  C451  1  0.218900  0.333200  0.262100  1.0
  C  C452  1  0.956800  0.718900  0.885700  1.0
  C  C453  1  0.928900  0.543200  0.762100  1.0
  C  C454  1  0.166800  0.428900  0.385700  1.0
  C  C455  1  0.781100  0.666800  0.737900  1.0
  C  C456  1  0.043200  0.281100  0.114300  1.0
  C  C457  1  0.078580  0.458160  0.199940  1.0
  C  C458  1  0.878640  0.578580  0.620420  1.0
  C  C459  1  0.258220  0.378640  0.300060  1.0
  C  C460  1  0.958160  0.758220  0.879580  1.0
  C  C461  1  0.921420  0.541840  0.800060  1.0
  C  C462  1  0.121360  0.421420  0.379580  1.0
  C  C463  1  0.741780  0.621360  0.699940  1.0
  C  C464  1  0.041840  0.241780  0.120420  1.0
  C  C465  1  0.932900  0.408100  0.182800  1.0
  C  C466  1  0.750100  0.432900  0.524800  1.0
  C  C467  1  0.225300  0.250100  0.317200  1.0
  C  C468  1  0.908100  0.725300  0.975200  1.0
  C  C469  1  0.067100  0.591900  0.817200  1.0
  C  C470  1  0.249900  0.567100  0.475200  1.0
  C  C471  1  0.774700  0.749900  0.682800  1.0
  C  C472  1  0.091900  0.274700  0.024800  1.0
  C  C473  1  0.112900  0.469200  0.282100  1.0
  C  C474  1  0.830800  0.612900  0.643700  1.0
  C  C475  1  0.187100  0.330800  0.217900  1.0
  C  C476  1  0.969200  0.687100  0.856300  1.0
  C  C477  1  0.887100  0.530800  0.717900  1.0
  C  C478  1  0.169200  0.387100  0.356300  1.0
  C  C479  1  0.812900  0.669200  0.782100  1.0
  C  C480  1  0.030800  0.312900  0.143700  1.0
  C  C481  1  0.199200  0.522200  0.339000  1.0
  C  C482  1  0.860200  0.699200  0.677000  1.0
  C  C483  1  0.183200  0.360200  0.161000  1.0
  C  C484  1  0.022200  0.683200  0.823000  1.0
  C  C485  1  0.800800  0.477800  0.661000  1.0
  C  C486  1  0.139800  0.300800  0.323000  1.0
  C  C487  1  0.816800  0.639800  0.839000  1.0
  C  C488  1  0.977800  0.316800  0.177000  1.0
  C  C489  1  0.218100  0.492300  0.315200  1.0
  C  C490  1  0.902900  0.718100  0.725800  1.0
  C  C491  1  0.177100  0.402900  0.184800  1.0
  C  C492  1  0.992300  0.677100  0.774200  1.0
  C  C493  1  0.781900  0.507700  0.684800  1.0
  C  C494  1  0.097100  0.281900  0.274200  1.0
  C  C495  1  0.822900  0.597100  0.815200  1.0
  C  C496  1  0.007700  0.322900  0.225800  1.0
  C  C497  1  0.140300  0.556200  0.324900  1.0
  C  C498  1  0.815400  0.640300  0.584100  1.0
  C  C499  1  0.231300  0.315400  0.175100  1.0
  C  C500  1  0.056200  0.731300  0.915900  1.0
  C  C501  1  0.859700  0.443800  0.675100  1.0
  C  C502  1  0.184600  0.359700  0.415900  1.0
  C  C503  1  0.768700  0.684600  0.824900  1.0
  C  C504  1  0.943800  0.268700  0.084100  1.0
  C  C505  1  0.172200  0.606600  0.336200  1.0
  C  C506  1  0.836000  0.672200  0.565600  1.0
  C  C507  1  0.270400  0.336000  0.163800  1.0
  C  C508  1  0.106600  0.770400  0.934400  1.0
  C  C509  1  0.827800  0.393400  0.663800  1.0
  C  C510  1  0.164000  0.327800  0.434400  1.0
  C  C511  1  0.729600  0.664000  0.836200  1.0
  C  C512  1  0.893400  0.229600  0.065600  1.0
  C  C513  1  0.067440  0.604050  0.057690  1.0
  C  C514  1  0.009750  0.567440  0.463390  1.0
  C  C515  1  0.546360  0.509750  0.442310  1.0
  C  C516  1  0.104050  0.046360  0.036610  1.0
  C  C517  1  0.932560  0.395950  0.942310  1.0
  C  C518  1  0.990250  0.432560  0.536610  1.0
  C  C519  1  0.453640  0.490250  0.557690  1.0
  C  C520  1  0.895950  0.953640  0.963390  1.0
  C  C521  1  0.089710  0.574030  0.058580  1.0
  C  C522  1  0.031130  0.589710  0.515680  1.0
  C  C523  1  0.515450  0.531130  0.441420  1.0
  C  C524  1  0.074030  0.015450  0.984320  1.0
  C  C525  1  0.910290  0.425970  0.941420  1.0
  C  C526  1  0.968870  0.410290  0.484320  1.0
  C  C527  1  0.484550  0.468870  0.558580  1.0
  C  C528  1  0.925970  0.984550  0.015680  1.0
  C  C529  1  0.075240  0.533190  0.012790  1.0
  C  C530  1  0.062450  0.575240  0.542050  1.0
  C  C531  1  0.520400  0.562450  0.487210  1.0
  C  C532  1  0.033190  0.020400  0.957950  1.0
  C  C533  1  0.924760  0.466810  0.987210  1.0
  C  C534  1  0.937550  0.424760  0.457950  1.0
  C  C535  1  0.479600  0.437550  0.512790  1.0
  C  C536  1  0.966810  0.979600  0.042050  1.0
  C  C537  1  0.033320  0.516200  0.971380  1.0
  C  C538  1  0.061940  0.533320  0.517120  1.0
  C  C539  1  0.544820  0.561940  0.528620  1.0
  C  C540  1  0.016200  0.044820  0.982880  1.0
  C  C541  1  0.966680  0.483800  0.028620  1.0
  C  C542  1  0.938060  0.466680  0.482880  1.0
  C  C543  1  0.455180  0.438060  0.471380  1.0
  C  C544  1  0.983800  0.955180  0.017120  1.0
  C  C545  1  0.020940  0.482840  0.927380  1.0
  C  C546  1  0.093560  0.520940  0.538100  1.0
  C  C547  1  0.555460  0.593560  0.572620  1.0
  C  C548  1  0.982840  0.055460  0.961900  1.0
  C  C549  1  0.979060  0.517160  0.072620  1.0
  C  C550  1  0.906440  0.479060  0.461900  1.0
  C  C551  1  0.444540  0.406440  0.427380  1.0
  C  C552  1  0.017160  0.944540  0.038100  1.0
  C  C553  1  0.050810  0.464800  0.923210  1.0
  C  C554  1  0.127600  0.550810  0.586010  1.0
  C  C555  1  0.541590  0.627600  0.576790  1.0
  C  C556  1  0.964800  0.041590  0.913990  1.0
  C  C557  1  0.949190  0.535200  0.076790  1.0
  C  C558  1  0.872400  0.449190  0.413990  1.0
  C  C559  1  0.458410  0.372400  0.423210  1.0
  C  C560  1  0.035200  0.958410  0.086010  1.0
  C  C561  1  0.092530  0.480040  0.963370  1.0
  C  C562  1  0.129160  0.592530  0.612490  1.0
  C  C563  1  0.516670  0.629160  0.536630  1.0
  C  C564  1  0.980040  0.016670  0.887510  1.0
  C  C565  1  0.907470  0.519960  0.036630  1.0
  C  C566  1  0.870840  0.407470  0.387510  1.0
  C  C567  1  0.483330  0.370840  0.463370  1.0
  C  C568  1  0.019960  0.983330  0.112490  1.0
  C  C569  1  0.105470  0.514750  0.009000  1.0
  C  C570  1  0.096470  0.605470  0.590720  1.0
  C  C571  1  0.505750  0.596470  0.491000  1.0
  C  C572  1  0.014750  0.005750  0.909280  1.0
  C  C573  1  0.894530  0.485250  0.991000  1.0
  C  C574  1  0.903530  0.394530  0.409280  1.0
  C  C575  1  0.494250  0.403530  0.509000  1.0
  C  C576  1  0.985250  0.994250  0.090720  1.0
  C  C577  1  0.975550  0.464730  0.883280  1.0
  C  C578  1  0.092270  0.475550  0.510820  1.0
  C  C579  1  0.581450  0.592270  0.616720  1.0
  C  C580  1  0.964730  0.081450  0.989180  1.0
  C  C581  1  0.024450  0.535270  0.116720  1.0
  C  C582  1  0.907730  0.524450  0.489180  1.0
  C  C583  1  0.418550  0.407730  0.383280  1.0
  C  C584  1  0.035270  0.918550  0.010820  1.0
  C  C585  1  0.128170  0.465780  0.959550  1.0
  C  C586  1  0.168620  0.628170  0.662390  1.0
  C  C587  1  0.506230  0.668620  0.540450  1.0
  C  C588  1  0.965780  0.006230  0.837610  1.0
  C  C589  1  0.871830  0.534220  0.040450  1.0
  C  C590  1  0.831380  0.371830  0.337610  1.0
  C  C591  1  0.493770  0.331380  0.459550  1.0
  C  C592  1  0.034220  0.993770  0.162390  1.0
  C  C593  1  0.165400  0.418400  0.984600  1.0
  C  C594  1  0.180800  0.665400  0.747000  1.0
  C  C595  1  0.433800  0.680800  0.515400  1.0
  C  C596  1  0.918400  0.933800  0.753000  1.0
  C  C597  1  0.834600  0.581600  0.015400  1.0
  C  C598  1  0.819200  0.334600  0.253000  1.0
  C  C599  1  0.566200  0.319200  0.484600  1.0
  C  C600  1  0.081600  0.066200  0.247000  1.0
  C  C601  1  0.086800  0.400500  0.983500  1.0
  C  C602  1  0.103300  0.586800  0.686300  1.0
  C  C603  1  0.417000  0.603300  0.516500  1.0
  C  C604  1  0.900500  0.917000  0.813700  1.0
  C  C605  1  0.913200  0.599500  0.016500  1.0
  C  C606  1  0.896700  0.413200  0.313700  1.0
  C  C607  1  0.583000  0.396700  0.483500  1.0
  C  C608  1  0.099500  0.083000  0.186300  1.0
  C  C609  1  0.093400  0.376000  0.011200  1.0
  C  C610  1  0.082200  0.593400  0.717400  1.0
  C  C611  1  0.364800  0.582200  0.488800  1.0
  C  C612  1  0.876000  0.864800  0.782600  1.0
  C  C613  1  0.906600  0.624000  0.988800  1.0
  C  C614  1  0.917800  0.406600  0.282600  1.0
  C  C615  1  0.635200  0.417800  0.511200  1.0
  C  C616  1  0.124000  0.135200  0.217400  1.0
  C  C617  1  0.063130  0.590360  0.242690  1.0
  C  C618  1  0.820440  0.563130  0.472770  1.0
  C  C619  1  0.347670  0.320440  0.257310  1.0
  C  C620  1  0.090360  0.847670  0.027230  1.0
  C  C621  1  0.936870  0.409640  0.757310  1.0
  C  C622  1  0.179560  0.436870  0.527230  1.0
  C  C623  1  0.652330  0.679560  0.742690  1.0
  C  C624  1  0.909640  0.152330  0.972770  1.0
  C  C625  1  0.101340  0.618550  0.233490  1.0
  C  C626  1  0.867850  0.601340  0.482790  1.0
  C  C627  1  0.385060  0.367850  0.266510  1.0
  C  C628  1  0.118550  0.885060  0.017210  1.0
  C  C629  1  0.898660  0.381450  0.766510  1.0
  C  C630  1  0.132150  0.398660  0.517210  1.0
  C  C631  1  0.614940  0.632150  0.733490  1.0
  C  C632  1  0.881450  0.114940  0.982790  1.0
  C  C633  1  0.113750  0.667480  0.240430  1.0
  C  C634  1  0.873320  0.613750  0.446270  1.0
  C  C635  1  0.427050  0.373320  0.259570  1.0
  C  C636  1  0.167480  0.927050  0.053730  1.0
  C  C637  1  0.886250  0.332520  0.759570  1.0
  C  C638  1  0.126680  0.386250  0.553730  1.0
  C  C639  1  0.572950  0.626680  0.740430  1.0
  C  C640  1  0.832520  0.072950  0.946270  1.0
  C  C641  1  0.081700  0.682300  0.247600  1.0
  C  C642  1  0.834100  0.581700  0.399400  1.0
  C  C643  1  0.434700  0.334100  0.252400  1.0
  C  C644  1  0.182300  0.934700  0.100600  1.0
  C  C645  1  0.918300  0.317700  0.752400  1.0
  C  C646  1  0.165900  0.418300  0.600600  1.0
  C  C647  1  0.565300  0.665900  0.747600  1.0
  C  C648  1  0.817700  0.065300  0.899400  1.0
  C  C649  1  0.088500  0.727600  0.253700  1.0
  C  C650  1  0.834800  0.588500  0.360900  1.0
  C  C651  1  0.473900  0.334800  0.246300  1.0
  C  C652  1  0.227600  0.973900  0.139100  1.0
  C  C653  1  0.911500  0.272400  0.746300  1.0
  C  C654  1  0.165200  0.411500  0.639100  1.0
  C  C655  1  0.526100  0.665200  0.753700  1.0
  C  C656  1  0.772400  0.026100  0.860900  1.0
  C  C657  1  0.132300  0.760100  0.259600  1.0
  C  C658  1  0.872700  0.632300  0.372200  1.0
  C  C659  1  0.500500  0.372700  0.240400  1.0
  C  C660  1  0.260100  0.000500  0.127800  1.0
  C  C661  1  0.867700  0.239900  0.740400  1.0
  C  C662  1  0.127300  0.367700  0.627800  1.0
  C  C663  1  0.499500  0.627300  0.759600  1.0
  C  C664  1  0.739900  0.999500  0.872200  1.0
  C  C665  1  0.166400  0.749170  0.255370  1.0
  C  C666  1  0.911030  0.666400  0.417230  1.0
  C  C667  1  0.493800  0.411030  0.244630  1.0
  C  C668  1  0.249170  0.993800  0.082770  1.0
  C  C669  1  0.833600  0.250830  0.744630  1.0
  C  C670  1  0.088970  0.333600  0.582770  1.0
  C  C671  1  0.506200  0.588970  0.755370  1.0
  C  C672  1  0.750830  0.006200  0.917230  1.0
  C  C673  1  0.155310  0.700260  0.243970  1.0
  C  C674  1  0.911340  0.655310  0.455050  1.0
  C  C675  1  0.456290  0.411340  0.256030  1.0
  C  C676  1  0.200260  0.956290  0.044950  1.0
  C  C677  1  0.844690  0.299740  0.756030  1.0
  C  C678  1  0.088660  0.344690  0.544950  1.0
  C  C679  1  0.543710  0.588660  0.743970  1.0
  C  C680  1  0.799740  0.043710  0.955050  1.0
  C  C681  1  0.049800  0.737800  0.253200  1.0
  C  C682  1  0.796600  0.549800  0.312000  1.0
  C  C683  1  0.484600  0.296600  0.246800  1.0
  C  C684  1  0.237800  0.984600  0.188000  1.0
  C  C685  1  0.950200  0.262200  0.746800  1.0
  C  C686  1  0.203400  0.450200  0.688000  1.0
  C  C687  1  0.515400  0.703400  0.753200  1.0
  C  C688  1  0.762200  0.015400  0.812000  1.0
  C  C689  1  0.212700  0.784720  0.262020  1.0
  C  C690  1  0.950680  0.712700  0.427980  1.0
  C  C691  1  0.522700  0.450680  0.237980  1.0
  C  C692  1  0.284720  0.022700  0.072020  1.0
  C  C693  1  0.787300  0.215280  0.737980  1.0
  C  C694  1  0.049320  0.287300  0.572020  1.0
  C  C695  1  0.477300  0.549320  0.762020  1.0
  C  C696  1  0.715280  0.977300  0.927980  1.0
  C  C697  1  0.271000  0.806400  0.230200  1.0
  C  C698  1  0.040800  0.771000  0.464600  1.0
  C  C699  1  0.576200  0.540800  0.269800  1.0
  C  C700  1  0.306400  0.076200  0.035400  1.0
  C  C701  1  0.729000  0.193600  0.769800  1.0
  C  C702  1  0.959200  0.229000  0.535400  1.0
  C  C703  1  0.423800  0.459200  0.730200  1.0
  C  C704  1  0.693600  0.923800  0.964600  1.0
  C  C705  1  0.317100  0.813100  0.265200  1.0
  C  C706  1  0.051900  0.817100  0.504000  1.0
  C  C707  1  0.547900  0.551900  0.234800  1.0
  C  C708  1  0.313100  0.047900  0.996000  1.0
  C  C709  1  0.682900  0.186900  0.734800  1.0
  C  C710  1  0.948100  0.182900  0.496000  1.0
  C  C711  1  0.452100  0.448100  0.765200  1.0
  C  C712  1  0.686900  0.952100  0.004000  1.0
  C  C713  1  0.181500  0.755000  0.177700  1.0
  C  C714  1  0.003800  0.681500  0.426500  1.0
  C  C715  1  0.577300  0.503800  0.322300  1.0
  C  C716  1  0.255000  0.077300  0.073500  1.0
  C  C717  1  0.818500  0.245000  0.822300  1.0
  C  C718  1  0.996200  0.318500  0.573500  1.0
  C  C719  1  0.422700  0.496200  0.677700  1.0
  C  C720  1  0.745000  0.922700  0.926500  1.0
  C  C721  1  0.189000  0.733100  0.133900  1.0
  C  C722  1  0.055100  0.689000  0.455900  1.0
  C  C723  1  0.599200  0.555100  0.366100  1.0
  C  C724  1  0.233100  0.099200  0.044100  1.0
  C  C725  1  0.811000  0.266900  0.866100  1.0
  C  C726  1  0.944900  0.311000  0.544100  1.0
  C  C727  1  0.400800  0.444900  0.633900  1.0
  C  C728  1  0.766900  0.900800  0.955900  1.0
  C  C729  1  0.342110  0.718070  0.232300  1.0
  C  C730  1  0.109810  0.842110  0.624040  1.0
  C  C731  1  0.485770  0.609810  0.267700  1.0
  C  C732  1  0.218070  0.985770  0.875960  1.0
  C  C733  1  0.657890  0.281930  0.767700  1.0
  C  C734  1  0.890190  0.157890  0.375960  1.0
  C  C735  1  0.514230  0.390190  0.732300  1.0
  C  C736  1  0.781930  0.014230  0.124040  1.0
  C  C737  1  0.391140  0.741840  0.245620  1.0
  C  C738  1  0.145520  0.891140  0.649300  1.0
  C  C739  1  0.496220  0.645520  0.254380  1.0
  C  C740  1  0.241840  0.996220  0.850700  1.0
  C  C741  1  0.608860  0.258160  0.754380  1.0
  C  C742  1  0.854480  0.108860  0.350700  1.0
  C  C743  1  0.503780  0.354480  0.745620  1.0
  C  C744  1  0.758160  0.003780  0.149300  1.0
  C  C745  1  0.406350  0.724030  0.214000  1.0
  C  C746  1  0.192350  0.906350  0.682320  1.0
  C  C747  1  0.510030  0.692350  0.286000  1.0
  C  C748  1  0.224030  0.010030  0.817680  1.0
  C  C749  1  0.593650  0.275970  0.786000  1.0
  C  C750  1  0.807650  0.093650  0.317680  1.0
  C  C751  1  0.489970  0.307650  0.714000  1.0
  C  C752  1  0.775970  0.989970  0.182320  1.0
  C  C753  1  0.372170  0.683420  0.168450  1.0
  C  C754  1  0.203720  0.872170  0.688750  1.0
  C  C755  1  0.514970  0.703720  0.331550  1.0
  C  C756  1  0.183420  0.014970  0.811250  1.0
  C  C757  1  0.627830  0.316580  0.831550  1.0
  C  C758  1  0.796280  0.127830  0.311250  1.0
  C  C759  1  0.485030  0.296280  0.668450  1.0
  C  C760  1  0.816580  0.985030  0.188750  1.0
  C  C761  1  0.322000  0.660070  0.156330  1.0
  C  C762  1  0.165670  0.822000  0.661930  1.0
  C  C763  1  0.503740  0.665670  0.343670  1.0
  C  C764  1  0.160070  0.003740  0.838070  1.0
  C  C765  1  0.678000  0.339930  0.843670  1.0
  C  C766  1  0.834330  0.178000  0.338070  1.0
  C  C767  1  0.496260  0.334330  0.656330  1.0
  C  C768  1  0.839930  0.996260  0.161930  1.0
  C  C769  1  0.307620  0.678560  0.188000  1.0
  C  C770  1  0.119620  0.807620  0.629060  1.0
  C  C771  1  0.490560  0.619620  0.312000  1.0
  C  C772  1  0.178560  0.990560  0.870940  1.0
  C  C773  1  0.692380  0.321440  0.812000  1.0
  C  C774  1  0.880380  0.192380  0.370940  1.0
  C  C775  1  0.509440  0.380380  0.688000  1.0
  C  C776  1  0.821440  0.009440  0.129060  1.0
  C  C777  1  0.427990  0.786800  0.292750  1.0
  C  C778  1  0.135240  0.927990  0.641190  1.0
  C  C779  1  0.494050  0.635240  0.207250  1.0
  C  C780  1  0.286800  0.994050  0.858810  1.0
  C  C781  1  0.572010  0.213200  0.707250  1.0
  C  C782  1  0.864760  0.072010  0.358810  1.0
  C  C783  1  0.505950  0.364760  0.792750  1.0
  C  C784  1  0.713200  0.005950  0.141190  1.0
  C  C785  1  0.254290  0.652310  0.174240  1.0
  C  C786  1  0.080050  0.754290  0.601980  1.0
  C  C787  1  0.478070  0.580050  0.325760  1.0
  C  C788  1  0.152310  0.978070  0.898020  1.0
  C  C789  1  0.745710  0.347690  0.825760  1.0
  C  C790  1  0.919950  0.245710  0.398020  1.0
  C  C791  1  0.521930  0.419950  0.674240  1.0
  C  C792  1  0.847690  0.021930  0.101980  1.0
  C  C793  1  0.388040  0.663600  0.136360  1.0
  C  C794  1  0.251680  0.888040  0.724440  1.0
  C  C795  1  0.527240  0.751680  0.363640  1.0
  C  C796  1  0.163600  0.027240  0.775560  1.0
  C  C797  1  0.611960  0.336400  0.863640  1.0
  C  C798  1  0.748320  0.111960  0.275560  1.0
  C  C799  1  0.472760  0.248320  0.636360  1.0
  C  C800  1  0.836400  0.972760  0.224440  1.0
  C  C801  1  0.210400  0.458300  0.000100  1.0
  C  C802  1  0.210300  0.710400  0.752100  1.0
  C  C803  1  0.458200  0.710300  0.499900  1.0
  C  C804  1  0.958300  0.958200  0.747900  1.0
  C  C805  1  0.789600  0.541700  0.999900  1.0
  C  C806  1  0.789700  0.289600  0.247900  1.0
  C  C807  1  0.541800  0.289700  0.500100  1.0
  C  C808  1  0.041700  0.041800  0.252100  1.0
  C  C809  1  0.444700  0.894700  0.280600  1.0
  C  C810  1  0.164100  0.944700  0.550000  1.0
  C  C811  1  0.614100  0.664100  0.219400  1.0
  C  C812  1  0.394700  0.114100  0.950000  1.0
  C  C813  1  0.555300  0.105300  0.719400  1.0
  C  C814  1  0.835900  0.055300  0.450000  1.0
  C  C815  1  0.385900  0.335900  0.780600  1.0
  C  C816  1  0.605300  0.885900  0.050000  1.0
  H  H817  1  0.673400  0.952600  0.517000  1.0
  H  H818  1  0.156400  0.173400  0.720800  1.0
  H  H819  1  0.435600  0.656400  0.983000  1.0
  H  H820  1  0.452600  0.935600  0.779200  1.0
  H  H821  1  0.326600  0.047400  0.483000  1.0
  H  H822  1  0.843600  0.826600  0.279200  1.0
  H  H823  1  0.564400  0.343600  0.017000  1.0
  H  H824  1  0.547400  0.064400  0.220800  1.0
  H  H825  1  0.705400  0.979000  0.496600  1.0
  H  H826  1  0.208800  0.205400  0.726400  1.0
  H  H827  1  0.482400  0.708800  0.003400  1.0
  H  H828  1  0.479000  0.982400  0.773600  1.0
  H  H829  1  0.294600  0.021000  0.503400  1.0
  H  H830  1  0.791200  0.794600  0.273600  1.0
  H  H831  1  0.517600  0.291200  0.996600  1.0
  H  H832  1  0.521000  0.017600  0.226400  1.0
  H  H833  1  0.692400  0.925100  0.487300  1.0
  H  H834  1  0.205100  0.192400  0.767300  1.0
  H  H835  1  0.437800  0.705100  0.012700  1.0
  H  H836  1  0.425100  0.937800  0.732700  1.0
  H  H837  1  0.307600  0.074900  0.512700  1.0
  H  H838  1  0.794900  0.807600  0.232700  1.0
  H  H839  1  0.562200  0.294900  0.987300  1.0
  H  H840  1  0.574900  0.062200  0.267300  1.0
  H  H841  1  0.682100  0.019500  0.469600  1.0
  H  H842  1  0.212500  0.182100  0.662600  1.0
  H  H843  1  0.549900  0.712500  0.030400  1.0
  H  H844  1  0.519500  0.049900  0.837400  1.0
  H  H845  1  0.317900  0.980500  0.530400  1.0
  H  H846  1  0.787500  0.817900  0.337400  1.0
  H  H847  1  0.450100  0.287500  0.969600  1.0
  H  H848  1  0.480500  0.950100  0.162600  1.0
  H  H849  1  0.625400  0.014600  0.344600  1.0
  H  H850  1  0.280800  0.125400  0.610800  1.0
  H  H851  1  0.670000  0.780800  0.155400  1.0
  H  H852  1  0.514600  0.170000  0.889200  1.0
  H  H853  1  0.374600  0.985400  0.655400  1.0
  H  H854  1  0.719200  0.874600  0.389200  1.0
  H  H855  1  0.330000  0.219200  0.844600  1.0
  H  H856  1  0.485400  0.830000  0.110800  1.0
  H  H857  1  0.722800  0.091500  0.461700  1.0
  H  H858  1  0.261100  0.222800  0.631300  1.0
  H  H859  1  0.629800  0.761100  0.038300  1.0
  H  H860  1  0.591500  0.129800  0.868700  1.0
  H  H861  1  0.277200  0.908500  0.538300  1.0
  H  H862  1  0.738900  0.777200  0.368700  1.0
  H  H863  1  0.370200  0.238900  0.961700  1.0
  H  H864  1  0.408500  0.870200  0.131300  1.0
  H  H865  1  0.675100  0.094000  0.455100  1.0
  H  H866  1  0.220000  0.175100  0.581100  1.0
  H  H867  1  0.638900  0.720000  0.044900  1.0
  H  H868  1  0.594000  0.138900  0.918900  1.0
  H  H869  1  0.324900  0.906000  0.544900  1.0
  H  H870  1  0.780000  0.824900  0.418900  1.0
  H  H871  1  0.361100  0.280000  0.955100  1.0
  H  H872  1  0.406000  0.861100  0.081100  1.0
  H  H873  1  0.692700  0.093700  0.416400  1.0
  H  H874  1  0.276300  0.192700  0.599000  1.0
  H  H875  1  0.677300  0.776300  0.083600  1.0
  H  H876  1  0.593700  0.177300  0.901000  1.0
  H  H877  1  0.307300  0.906300  0.583600  1.0
  H  H878  1  0.723700  0.807300  0.401000  1.0
  H  H879  1  0.322700  0.223700  0.916400  1.0
  H  H880  1  0.406300  0.822700  0.099000  1.0
  H  H881  1  0.580200  0.897100  0.274700  1.0
  H  H882  1  0.305500  0.080200  0.683100  1.0
  H  H883  1  0.622400  0.805500  0.225300  1.0
  H  H884  1  0.397100  0.122400  0.816900  1.0
  H  H885  1  0.419800  0.102900  0.725300  1.0
  H  H886  1  0.694500  0.919800  0.316900  1.0
  H  H887  1  0.377600  0.194500  0.774700  1.0
  H  H888  1  0.602900  0.877600  0.183100  1.0
  H  H889  1  0.570900  0.939400  0.272100  1.0
  H  H890  1  0.298800  0.070900  0.631500  1.0
  H  H891  1  0.667300  0.798800  0.227900  1.0
  H  H892  1  0.439400  0.167300  0.868500  1.0
  H  H893  1  0.429100  0.060600  0.727900  1.0
  H  H894  1  0.701200  0.929100  0.368500  1.0
  H  H895  1  0.332700  0.201200  0.772100  1.0
  H  H896  1  0.560600  0.832700  0.131500  1.0
  H  H897  1  0.449600  0.831600  0.210800  1.0
  H  H898  1  0.238800  0.949600  0.618000  1.0
  H  H899  1  0.620800  0.738800  0.289200  1.0
  H  H900  1  0.331600  0.120800  0.882000  1.0
  H  H901  1  0.550400  0.168400  0.789200  1.0
  H  H902  1  0.761200  0.050400  0.382000  1.0
  H  H903  1  0.379200  0.261200  0.710800  1.0
  H  H904  1  0.668400  0.879200  0.118000  1.0
  H  H905  1  0.489700  0.863800  0.200300  1.0
  H  H906  1  0.289400  0.989700  0.625900  1.0
  H  H907  1  0.663500  0.789400  0.299700  1.0
  H  H908  1  0.363800  0.163500  0.874100  1.0
  H  H909  1  0.510300  0.136200  0.799700  1.0
  H  H910  1  0.710600  0.010300  0.374100  1.0
  H  H911  1  0.336500  0.210600  0.700300  1.0
  H  H912  1  0.636200  0.836500  0.125900  1.0
  H  H913  1  0.505500  0.803000  0.236900  1.0
  H  H914  1  0.268600  0.005500  0.702500  1.0
  H  H915  1  0.566100  0.768600  0.263100  1.0
  H  H916  1  0.303000  0.066100  0.797500  1.0
  H  H917  1  0.494500  0.197000  0.763100  1.0
  H  H918  1  0.731400  0.994500  0.297500  1.0
  H  H919  1  0.433900  0.231400  0.736900  1.0
  H  H920  1  0.697000  0.933900  0.202500  1.0
  H  H921  1  0.470500  0.779000  0.181300  1.0
  H  H922  1  0.289200  0.970500  0.691500  1.0
  H  H923  1  0.597700  0.789200  0.318700  1.0
  H  H924  1  0.279000  0.097700  0.808500  1.0
  H  H925  1  0.529500  0.221000  0.818700  1.0
  H  H926  1  0.710800  0.029500  0.308500  1.0
  H  H927  1  0.402300  0.210800  0.681300  1.0
  H  H928  1  0.721000  0.902300  0.191500  1.0
  H  H929  1  0.497500  0.937800  0.268500  1.0
  H  H930  1  0.229000  0.997500  0.559700  1.0
  H  H931  1  0.669300  0.729000  0.231500  1.0
  H  H932  1  0.437800  0.169300  0.940300  1.0
  H  H933  1  0.502500  0.062200  0.731500  1.0
  H  H934  1  0.771000  0.002500  0.440300  1.0
  H  H935  1  0.330700  0.271000  0.768500  1.0
  H  H936  1  0.562200  0.830700  0.059700  1.0
  H  H937  1  0.519700  0.945500  0.321200  1.0
  H  H938  1  0.198500  0.019700  0.574200  1.0
  H  H939  1  0.624300  0.698500  0.178800  1.0
  H  H940  1  0.445500  0.124300  0.925800  1.0
  H  H941  1  0.480300  0.054500  0.678800  1.0
  H  H942  1  0.801500  0.980300  0.425800  1.0
  H  H943  1  0.375700  0.301500  0.821200  1.0
  H  H944  1  0.554500  0.875700  0.074200  1.0
  H  H945  1  0.534300  0.980500  0.406000  1.0
  H  H946  1  0.128300  0.034300  0.553800  1.0
  H  H947  1  0.574500  0.628300  0.094000  1.0
  H  H948  1  0.480500  0.074500  0.946200  1.0
  H  H949  1  0.465700  0.019500  0.594000  1.0
  H  H950  1  0.871700  0.965700  0.446200  1.0
  H  H951  1  0.425500  0.371700  0.906000  1.0
  H  H952  1  0.519500  0.925500  0.053800  1.0
  H  H953  1  0.526700  0.012000  0.445900  1.0
  H  H954  1  0.080800  0.026700  0.514700  1.0
  H  H955  1  0.566100  0.580800  0.054100  1.0
  H  H956  1  0.512000  0.066100  0.985300  1.0
  H  H957  1  0.473300  0.988000  0.554100  1.0
  H  H958  1  0.919200  0.973300  0.485300  1.0
  H  H959  1  0.433900  0.419200  0.945900  1.0
  H  H960  1  0.488000  0.933900  0.014700  1.0
  H  H961  1  0.489400  0.988400  0.390800  1.0
  H  H962  1  0.098600  0.989400  0.501000  1.0
  H  H963  1  0.597600  0.598600  0.109200  1.0
  H  H964  1  0.488400  0.097600  0.999000  1.0
  H  H965  1  0.510600  0.011600  0.609200  1.0
  H  H966  1  0.901400  0.010600  0.499000  1.0
  H  H967  1  0.402400  0.401400  0.890800  1.0
  H  H968  1  0.511600  0.902400  0.001000  1.0
  H  H969  1  0.470500  0.009300  0.463000  1.0
  H  H970  1  0.007500  0.970500  0.461200  1.0
  H  H971  1  0.546300  0.507500  0.037000  1.0
  H  H972  1  0.509300  0.046300  0.038800  1.0
  H  H973  1  0.529500  0.990700  0.537000  1.0
  H  H974  1  0.992500  0.029500  0.538800  1.0
  H  H975  1  0.453700  0.492500  0.963000  1.0
  H  H976  1  0.490700  0.953700  0.961200  1.0
  H  H977  1  0.346000  0.935400  0.462800  1.0
  H  H978  1  0.883200  0.846000  0.410600  1.0
  H  H979  1  0.472600  0.383200  0.037200  1.0
  H  H980  1  0.435400  0.972600  0.089400  1.0
  H  H981  1  0.654000  0.064600  0.537200  1.0
  H  H982  1  0.116800  0.154000  0.589400  1.0
  H  H983  1  0.527400  0.616800  0.962800  1.0
  H  H984  1  0.564600  0.027400  0.910600  1.0
  H  H985  1  0.442800  0.054000  0.502400  1.0
  H  H986  1  0.940400  0.942800  0.388800  1.0
  H  H987  1  0.551600  0.440400  0.997600  1.0
  H  H988  1  0.554000  0.051600  0.111200  1.0
  H  H989  1  0.557200  0.946000  0.497600  1.0
  H  H990  1  0.059600  0.057200  0.611200  1.0
  H  H991  1  0.448400  0.559600  0.002400  1.0
  H  H992  1  0.446000  0.948400  0.888800  1.0
  H  H993  1  0.407600  0.027600  0.520200  1.0
  H  H994  1  0.887400  0.907600  0.380000  1.0
  H  H995  1  0.507400  0.387400  0.979800  1.0
  H  H996  1  0.527600  0.007400  0.120000  1.0
  H  H997  1  0.592400  0.972400  0.479800  1.0
  H  H998  1  0.112600  0.092400  0.620000  1.0
  H  H999  1  0.492600  0.612600  0.020200  1.0
  H  H1000  1  0.472400  0.992600  0.880000  1.0
  H  H1001  1  0.384800  0.026400  0.470600  1.0
  H  H1002  1  0.914200  0.884800  0.358400  1.0
  H  H1003  1  0.555800  0.414200  0.029400  1.0
  H  H1004  1  0.526400  0.055800  0.141600  1.0
  H  H1005  1  0.615200  0.973600  0.529400  1.0
  H  H1006  1  0.085800  0.115200  0.641600  1.0
  H  H1007  1  0.444200  0.585800  0.970600  1.0
  H  H1008  1  0.473600  0.944200  0.858400  1.0
  H  H1009  1  0.304300  0.826300  0.380400  1.0
  H  H1010  1  0.923900  0.804300  0.478000  1.0
  H  H1011  1  0.445900  0.423900  0.119600  1.0
  H  H1012  1  0.326300  0.945900  0.022000  1.0
  H  H1013  1  0.695700  0.173700  0.619600  1.0
  H  H1014  1  0.076100  0.195700  0.522000  1.0
  H  H1015  1  0.554100  0.576100  0.880400  1.0
  H  H1016  1  0.673700  0.054100  0.978000  1.0
  H  H1017  1  0.302600  0.850400  0.428000  1.0
  H  H1018  1  0.874600  0.802600  0.452200  1.0
  H  H1019  1  0.422400  0.374600  0.072000  1.0
  H  H1020  1  0.350400  0.922400  0.047800  1.0
  H  H1021  1  0.697400  0.149600  0.572000  1.0
  H  H1022  1  0.125400  0.197400  0.547800  1.0
  H  H1023  1  0.577600  0.625400  0.928000  1.0
  H  H1024  1  0.649600  0.077600  0.952200  1.0
  H  H1025  1  0.302000  0.741100  0.417700  1.0
  H  H1026  1  0.884300  0.802000  0.560900  1.0
  H  H1027  1  0.323400  0.384300  0.082300  1.0
  H  H1028  1  0.241100  0.823400  0.939100  1.0
  H  H1029  1  0.698000  0.258900  0.582300  1.0
  H  H1030  1  0.115700  0.198000  0.439100  1.0
  H  H1031  1  0.676600  0.615700  0.917700  1.0
  H  H1032  1  0.758900  0.176600  0.060900  1.0
  H  H1033  1  0.274800  0.768100  0.431500  1.0
  H  H1034  1  0.843300  0.774800  0.506700  1.0
  H  H1035  1  0.336600  0.343300  0.068500  1.0
  H  H1036  1  0.268100  0.836600  0.993300  1.0
  H  H1037  1  0.725200  0.231900  0.568500  1.0
  H  H1038  1  0.156700  0.225200  0.493300  1.0
  H  H1039  1  0.663400  0.656700  0.931500  1.0
  H  H1040  1  0.731900  0.163400  0.006700  1.0
  H  H1041  1  0.232800  0.703700  0.349500  1.0
  H  H1042  1  0.883300  0.732800  0.529100  1.0
  H  H1043  1  0.354200  0.383300  0.150500  1.0
  H  H1044  1  0.203700  0.854200  0.970900  1.0
  H  H1045  1  0.767200  0.296300  0.650500  1.0
  H  H1046  1  0.116700  0.267200  0.470900  1.0
  H  H1047  1  0.645800  0.616700  0.849500  1.0
  H  H1048  1  0.796300  0.145800  0.029100  1.0
  H  H1049  1  0.234700  0.753600  0.356900  1.0
  H  H1050  1  0.877800  0.734700  0.481100  1.0
  H  H1051  1  0.396700  0.377800  0.143100  1.0
  H  H1052  1  0.253600  0.896700  0.018900  1.0
  H  H1053  1  0.765300  0.246400  0.643100  1.0
  H  H1054  1  0.122200  0.265300  0.518900  1.0
  H  H1055  1  0.603300  0.622200  0.856900  1.0
  H  H1056  1  0.746400  0.103300  0.981100  1.0
  H  H1057  1  0.400100  0.870800  0.495500  1.0
  H  H1058  1  0.904600  0.900100  0.529300  1.0
  H  H1059  1  0.375300  0.404600  0.004500  1.0
  H  H1060  1  0.370800  0.875300  0.970700  1.0
  H  H1061  1  0.599900  0.129200  0.504500  1.0
  H  H1062  1  0.095400  0.099900  0.470700  1.0
  H  H1063  1  0.624700  0.595400  0.995500  1.0
  H  H1064  1  0.629200  0.124700  0.029300  1.0
  H  H1065  1  0.353400  0.850200  0.502800  1.0
  H  H1066  1  0.850600  0.853400  0.503200  1.0
  H  H1067  1  0.347400  0.350600  0.997200  1.0
  H  H1068  1  0.350200  0.847400  0.996800  1.0
  H  H1069  1  0.646600  0.149800  0.497200  1.0
  H  H1070  1  0.149400  0.146600  0.496800  1.0
  H  H1071  1  0.652600  0.649400  0.002800  1.0
  H  H1072  1  0.649800  0.152600  0.003200  1.0
  H  H1073  1  0.412700  0.832500  0.540000  1.0
  H  H1074  1  0.872700  0.912700  0.580200  1.0
  H  H1075  1  0.292500  0.372700  0.960000  1.0
  H  H1076  1  0.332500  0.792500  0.919800  1.0
  H  H1077  1  0.587300  0.167500  0.460000  1.0
  H  H1078  1  0.127300  0.087300  0.419800  1.0
  H  H1079  1  0.707500  0.627300  0.040000  1.0
  H  H1080  1  0.667500  0.207500  0.080200  1.0
  H  H1081  1  0.359500  0.784100  0.503200  1.0
  H  H1082  1  0.856300  0.859500  0.575400  1.0
  H  H1083  1  0.280900  0.356300  0.996800  1.0
  H  H1084  1  0.284100  0.780900  0.924600  1.0
  H  H1085  1  0.640500  0.215900  0.496800  1.0
  H  H1086  1  0.143700  0.140500  0.424600  1.0
  H  H1087  1  0.719100  0.643700  0.003200  1.0
  H  H1088  1  0.715900  0.219100  0.075400  1.0
  H  H1089  1  0.554300  0.949300  0.582400  1.0
  H  H1090  1  0.971900  0.054300  0.605000  1.0
  H  H1091  1  0.366900  0.471900  0.917600  1.0
  H  H1092  1  0.449300  0.866900  0.895000  1.0
  H  H1093  1  0.445700  0.050700  0.417600  1.0
  H  H1094  1  0.028100  0.945700  0.395000  1.0
  H  H1095  1  0.633100  0.528100  0.082400  1.0
  H  H1096  1  0.550700  0.133100  0.105000  1.0
  H  H1097  1  0.530100  0.907100  0.594400  1.0
  H  H1098  1  0.935700  0.030100  0.623000  1.0
  H  H1099  1  0.312700  0.435700  0.905600  1.0
  H  H1100  1  0.407100  0.812700  0.877000  1.0
  H  H1101  1  0.469900  0.092900  0.405600  1.0
  H  H1102  1  0.064300  0.969900  0.377000  1.0
  H  H1103  1  0.687300  0.564300  0.094400  1.0
  H  H1104  1  0.592900  0.187300  0.123000  1.0
  H  H1105  1  0.497900  0.907200  0.548500  1.0
  H  H1106  1  0.949400  0.997900  0.590700  1.0
  H  H1107  1  0.358700  0.449400  0.951500  1.0
  H  H1108  1  0.407200  0.858700  0.909300  1.0
  H  H1109  1  0.502100  0.092800  0.451500  1.0
  H  H1110  1  0.050600  0.002100  0.409300  1.0
  H  H1111  1  0.641300  0.550600  0.048500  1.0
  H  H1112  1  0.592800  0.141300  0.090700  1.0
  H  H1113  1  0.622800  0.946600  0.624200  1.0
  H  H1114  1  0.998600  0.122800  0.676200  1.0
  H  H1115  1  0.322400  0.498600  0.875800  1.0
  H  H1116  1  0.446600  0.822400  0.823800  1.0
  H  H1117  1  0.377200  0.053400  0.375800  1.0
  H  H1118  1  0.001400  0.877200  0.323800  1.0
  H  H1119  1  0.677600  0.501400  0.124200  1.0
  H  H1120  1  0.553400  0.177600  0.176200  1.0
  H  H1121  1  0.692500  0.875500  0.631800  1.0
  H  H1122  1  0.060700  0.192500  0.817000  1.0
  H  H1123  1  0.243700  0.560700  0.868200  1.0
  H  H1124  1  0.375500  0.743700  0.683000  1.0
  H  H1125  1  0.307500  0.124500  0.368200  1.0
  H  H1126  1  0.939300  0.807500  0.183000  1.0
  H  H1127  1  0.756300  0.439300  0.131800  1.0
  H  H1128  1  0.624500  0.256300  0.317000  1.0
  H  H1129  1  0.705200  0.989900  0.688300  1.0
  H  H1130  1  0.016900  0.205200  0.715300  1.0
  H  H1131  1  0.301600  0.516900  0.811700  1.0
  H  H1132  1  0.489900  0.801600  0.784700  1.0
  H  H1133  1  0.294800  0.010100  0.311700  1.0
  H  H1134  1  0.983100  0.794800  0.284700  1.0
  H  H1135  1  0.698400  0.483100  0.188300  1.0
  H  H1136  1  0.510100  0.198400  0.215300  1.0
  H  H1137  1  0.733000  0.961200  0.693600  1.0
  H  H1138  1  0.039400  0.233000  0.771800  1.0
  H  H1139  1  0.267600  0.539400  0.806400  1.0
  H  H1140  1  0.461200  0.767600  0.728200  1.0
  H  H1141  1  0.267000  0.038800  0.306400  1.0
  H  H1142  1  0.960600  0.767000  0.228200  1.0
  H  H1143  1  0.732400  0.460600  0.193600  1.0
  H  H1144  1  0.538800  0.232400  0.271800  1.0
  H  H1145  1  0.692100  0.953700  0.709600  1.0
  H  H1146  1  0.982500  0.192100  0.738400  1.0
  H  H1147  1  0.244100  0.482500  0.790400  1.0
  H  H1148  1  0.453700  0.744100  0.761600  1.0
  H  H1149  1  0.307900  0.046300  0.290400  1.0
  H  H1150  1  0.017500  0.807900  0.261600  1.0
  H  H1151  1  0.755900  0.517500  0.209600  1.0
  H  H1152  1  0.546300  0.255900  0.238400  1.0
  H  H1153  1  0.603400  0.765600  0.542000  1.0
  H  H1154  1  0.061400  0.103400  0.837800  1.0
  H  H1155  1  0.223600  0.561400  0.958000  1.0
  H  H1156  1  0.265600  0.723600  0.662200  1.0
  H  H1157  1  0.396600  0.234400  0.458000  1.0
  H  H1158  1  0.938600  0.896600  0.162200  1.0
  H  H1159  1  0.776400  0.438600  0.042000  1.0
  H  H1160  1  0.734400  0.276400  0.337800  1.0
  H  H1161  1  0.661800  0.798100  0.567700  1.0
  H  H1162  1  0.094100  0.161800  0.863700  1.0
  H  H1163  1  0.230400  0.594100  0.932300  1.0
  H  H1164  1  0.298100  0.730400  0.636300  1.0
  H  H1165  1  0.338200  0.201900  0.432300  1.0
  H  H1166  1  0.905900  0.838200  0.136300  1.0
  H  H1167  1  0.769600  0.405900  0.067700  1.0
  H  H1168  1  0.701900  0.269600  0.363700  1.0
  H  H1169  1  0.661100  0.742900  0.499200  1.0
  H  H1170  1  0.161900  0.161100  0.918200  1.0
  H  H1171  1  0.243700  0.661900  0.000800  1.0
  H  H1172  1  0.242900  0.743700  0.581800  1.0
  H  H1173  1  0.338900  0.257100  0.500800  1.0
  H  H1174  1  0.838100  0.838900  0.081800  1.0
  H  H1175  1  0.756300  0.338100  0.999200  1.0
  H  H1176  1  0.757100  0.256300  0.418200  1.0
  H  H1177  1  0.627300  0.730000  0.446500  1.0
  H  H1178  1  0.180800  0.127300  0.897300  1.0
  H  H1179  1  0.283500  0.680800  0.053500  1.0
  H  H1180  1  0.230000  0.783500  0.602700  1.0
  H  H1181  1  0.372700  0.270000  0.553500  1.0
  H  H1182  1  0.819200  0.872700  0.102700  1.0
  H  H1183  1  0.716500  0.319200  0.946500  1.0
  H  H1184  1  0.770000  0.216500  0.397300  1.0
  H  H1185  1  0.581300  0.661300  0.449200  1.0
  H  H1186  1  0.132100  0.081300  0.920000  1.0
  H  H1187  1  0.212100  0.632100  0.050800  1.0
  H  H1188  1  0.161300  0.712100  0.580000  1.0
  H  H1189  1  0.418700  0.338700  0.550800  1.0
  H  H1190  1  0.867900  0.918700  0.080000  1.0
  H  H1191  1  0.787900  0.367900  0.949200  1.0
  H  H1192  1  0.838700  0.287900  0.420000  1.0
  H  H1193  1  0.596300  0.691600  0.503500  1.0
  H  H1194  1  0.092800  0.096300  0.904700  1.0
  H  H1195  1  0.188100  0.592800  0.996500  1.0
  H  H1196  1  0.191600  0.688100  0.595300  1.0
  H  H1197  1  0.403700  0.308400  0.496500  1.0
  H  H1198  1  0.907200  0.903700  0.095300  1.0
  H  H1199  1  0.811900  0.407200  0.003500  1.0
  H  H1200  1  0.808400  0.311900  0.404700  1.0
  H  H1201  1  0.666500  0.855100  0.515200  1.0
  H  H1202  1  0.151300  0.166500  0.811400  1.0
  H  H1203  1  0.339900  0.651300  0.984800  1.0
  H  H1204  1  0.355100  0.839900  0.688600  1.0
  H  H1205  1  0.333500  0.144900  0.484800  1.0
  H  H1206  1  0.848700  0.833500  0.188600  1.0
  H  H1207  1  0.660100  0.348700  0.015200  1.0
  H  H1208  1  0.644900  0.160100  0.311400  1.0
  H  H1209  1  0.701400  0.835000  0.528800  1.0
  H  H1210  1  0.172600  0.201400  0.866400  1.0
  H  H1211  1  0.306200  0.672600  0.971200  1.0
  H  H1212  1  0.335000  0.806200  0.633600  1.0
  H  H1213  1  0.298600  0.165000  0.471200  1.0
  H  H1214  1  0.827400  0.798600  0.133600  1.0
  H  H1215  1  0.693800  0.327400  0.028800  1.0
  H  H1216  1  0.665000  0.193800  0.366400  1.0
  H  H1217  1  0.700500  0.852800  0.467500  1.0
  H  H1218  1  0.233000  0.200500  0.847700  1.0
  H  H1219  1  0.385300  0.733000  0.032500  1.0
  H  H1220  1  0.352800  0.885300  0.652300  1.0
  H  H1221  1  0.299500  0.147200  0.532500  1.0
  H  H1222  1  0.767000  0.799500  0.152300  1.0
  H  H1223  1  0.614700  0.267000  0.967500  1.0
  H  H1224  1  0.647200  0.114700  0.347700  1.0
  H  H1225  1  0.685100  0.797400  0.452700  1.0
  H  H1226  1  0.232400  0.185100  0.887700  1.0
  H  H1227  1  0.344700  0.732400  0.047300  1.0
  H  H1228  1  0.297400  0.844700  0.612300  1.0
  H  H1229  1  0.314900  0.202600  0.547300  1.0
  H  H1230  1  0.767600  0.814900  0.112300  1.0
  H  H1231  1  0.655300  0.267600  0.952700  1.0
  H  H1232  1  0.702600  0.155300  0.387700  1.0
  H  H1233  1  0.319400  0.695400  0.331800  1.0
  H  H1234  1  0.987600  0.819400  0.624000  1.0
  H  H1235  1  0.363600  0.487600  0.168200  1.0
  H  H1236  1  0.195400  0.863600  0.876000  1.0
  H  H1237  1  0.680600  0.304600  0.668200  1.0
  H  H1238  1  0.012400  0.180600  0.376000  1.0
  H  H1239  1  0.636400  0.512400  0.831800  1.0
  H  H1240  1  0.804600  0.136400  0.124000  1.0
  H  H1241  1  0.279100  0.556300  0.299400  1.0
  H  H1242  1  0.979700  0.779100  0.722800  1.0
  H  H1243  1  0.256900  0.479700  0.200600  1.0
  H  H1244  1  0.056300  0.756900  0.777200  1.0
  H  H1245  1  0.720900  0.443700  0.700600  1.0
  H  H1246  1  0.020300  0.220900  0.277200  1.0
  H  H1247  1  0.743100  0.520300  0.799400  1.0
  H  H1248  1  0.943700  0.243100  0.222800  1.0
  H  H1249  1  0.417100  0.665300  0.397200  1.0
  H  H1250  1  0.019900  0.917100  0.751800  1.0
  H  H1251  1  0.268100  0.519900  0.102800  1.0
  H  H1252  1  0.165300  0.768100  0.748200  1.0
  H  H1253  1  0.582900  0.334700  0.602800  1.0
  H  H1254  1  0.980100  0.082900  0.248200  1.0
  H  H1255  1  0.731900  0.480100  0.897200  1.0
  H  H1256  1  0.834700  0.231900  0.251800  1.0
  H  H1257  1  0.985400  0.417500  0.057700  1.0
  H  H1258  1  0.927700  0.485400  0.567900  1.0
  H  H1259  1  0.359800  0.427700  0.442300  1.0
  H  H1260  1  0.917500  0.859800  0.932100  1.0
  H  H1261  1  0.014600  0.582500  0.942300  1.0
  H  H1262  1  0.072300  0.514600  0.432100  1.0
  H  H1263  1  0.640200  0.572300  0.557700  1.0
  H  H1264  1  0.082500  0.140200  0.067900  1.0
  H  H1265  1  0.990900  0.374200  0.062700  1.0
  H  H1266  1  0.928200  0.490900  0.616700  1.0
  H  H1267  1  0.311500  0.428200  0.437300  1.0
  H  H1268  1  0.874200  0.811500  0.883300  1.0
  H  H1269  1  0.009100  0.625800  0.937300  1.0
  H  H1270  1  0.071800  0.509100  0.383300  1.0
  H  H1271  1  0.688500  0.571800  0.562700  1.0
  H  H1272  1  0.125800  0.188500  0.116700  1.0
  H  H1273  1  0.021500  0.404500  0.043600  1.0
  H  H1274  1  0.977900  0.521500  0.617000  1.0
  H  H1275  1  0.360900  0.477900  0.456400  1.0
  H  H1276  1  0.904500  0.860900  0.883000  1.0
  H  H1277  1  0.978500  0.595500  0.956400  1.0
  H  H1278  1  0.022100  0.478500  0.383000  1.0
  H  H1279  1  0.639100  0.522100  0.543600  1.0
  H  H1280  1  0.095500  0.139100  0.117000  1.0
  H  H1281  1  0.968000  0.417500  0.124500  1.0
  H  H1282  1  0.843500  0.468000  0.550500  1.0
  H  H1283  1  0.293000  0.343500  0.375500  1.0
  H  H1284  1  0.917500  0.793000  0.949500  1.0
  H  H1285  1  0.032000  0.582500  0.875500  1.0
  H  H1286  1  0.156500  0.532000  0.449500  1.0
  H  H1287  1  0.707000  0.656500  0.624500  1.0
  H  H1288  1  0.082500  0.207000  0.050500  1.0
  H  H1289  1  0.017700  0.442600  0.258100  1.0
  H  H1290  1  0.759600  0.517700  0.575100  1.0
  H  H1291  1  0.184500  0.259600  0.241900  1.0
  H  H1292  1  0.942600  0.684500  0.924900  1.0
  H  H1293  1  0.982300  0.557400  0.741900  1.0
  H  H1294  1  0.240400  0.482300  0.424900  1.0
  H  H1295  1  0.815500  0.740400  0.758100  1.0
  H  H1296  1  0.057400  0.315500  0.075100  1.0
  H  H1297  1  0.912000  0.404300  0.152700  1.0
  H  H1298  1  0.759300  0.412000  0.507700  1.0
  H  H1299  1  0.251600  0.259300  0.347300  1.0
  H  H1300  1  0.904300  0.751600  0.992300  1.0
  H  H1301  1  0.088000  0.595700  0.847300  1.0
  H  H1302  1  0.240700  0.588000  0.492300  1.0
  H  H1303  1  0.748400  0.740700  0.652700  1.0
  H  H1304  1  0.095700  0.248400  0.007700  1.0
  H  H1305  1  0.934000  0.431900  0.209100  1.0
  H  H1306  1  0.724900  0.434000  0.502100  1.0
  H  H1307  1  0.222800  0.224900  0.290900  1.0
  H  H1308  1  0.931900  0.722800  0.997900  1.0
  H  H1309  1  0.066000  0.568100  0.790900  1.0
  H  H1310  1  0.275100  0.566000  0.497900  1.0
  H  H1311  1  0.777200  0.775100  0.709100  1.0
  H  H1312  1  0.068100  0.277200  0.002100  1.0
  H  H1313  1  0.919700  0.376500  0.182200  1.0
  H  H1314  1  0.737500  0.419700  0.543200  1.0
  H  H1315  1  0.194300  0.237500  0.317800  1.0
  H  H1316  1  0.876500  0.694300  0.956800  1.0
  H  H1317  1  0.080300  0.623500  0.817800  1.0
  H  H1318  1  0.262500  0.580300  0.456800  1.0
  H  H1319  1  0.805700  0.762500  0.682200  1.0
  H  H1320  1  0.123500  0.305700  0.043200  1.0
  H  H1321  1  0.101700  0.467300  0.305600  1.0
  H  H1322  1  0.796100  0.601700  0.634400  1.0
  H  H1323  1  0.161700  0.296100  0.194400  1.0
  H  H1324  1  0.967300  0.661700  0.865600  1.0
  H  H1325  1  0.898300  0.532700  0.694400  1.0
  H  H1326  1  0.203900  0.398300  0.365600  1.0
  H  H1327  1  0.838300  0.703900  0.805600  1.0
  H  H1328  1  0.032700  0.338300  0.134400  1.0
  H  H1329  1  0.122000  0.444500  0.274100  1.0
  H  H1330  1  0.847900  0.622000  0.677500  1.0
  H  H1331  1  0.170400  0.347900  0.225900  1.0
  H  H1332  1  0.944500  0.670400  0.822500  1.0
  H  H1333  1  0.878000  0.555500  0.725900  1.0
  H  H1334  1  0.152100  0.378000  0.322500  1.0
  H  H1335  1  0.829600  0.652100  0.774100  1.0
  H  H1336  1  0.055500  0.329600  0.177500  1.0
  H  H1337  1  0.190900  0.511400  0.360900  1.0
  H  H1338  1  0.830000  0.690900  0.679500  1.0
  H  H1339  1  0.150500  0.330000  0.139100  1.0
  H  H1340  1  0.011400  0.650500  0.820500  1.0
  H  H1341  1  0.809100  0.488600  0.639100  1.0
  H  H1342  1  0.170000  0.309100  0.320500  1.0
  H  H1343  1  0.849500  0.670000  0.860900  1.0
  H  H1344  1  0.988600  0.349500  0.179500  1.0
  H  H1345  1  0.225600  0.557200  0.358200  1.0
  H  H1346  1  0.867400  0.725600  0.668400  1.0
  H  H1347  1  0.199000  0.367400  0.141800  1.0
  H  H1348  1  0.057200  0.699000  0.831600  1.0
  H  H1349  1  0.774400  0.442800  0.641800  1.0
  H  H1350  1  0.132600  0.274400  0.331600  1.0
  H  H1351  1  0.801000  0.632600  0.858200  1.0
  H  H1352  1  0.942800  0.301000  0.168400  1.0
  H  H1353  1  0.212400  0.491400  0.284400  1.0
  H  H1354  1  0.928000  0.712400  0.721000  1.0
  H  H1355  1  0.207000  0.428000  0.215600  1.0
  H  H1356  1  0.991400  0.707000  0.779000  1.0
  H  H1357  1  0.787600  0.508600  0.715600  1.0
  H  H1358  1  0.072000  0.287600  0.279000  1.0
  H  H1359  1  0.793000  0.572000  0.784400  1.0
  H  H1360  1  0.008600  0.293000  0.221000  1.0
  H  H1361  1  0.253700  0.508400  0.335700  1.0
  H  H1362  1  0.918000  0.753700  0.745300  1.0
  H  H1363  1  0.172700  0.418000  0.164300  1.0
  H  H1364  1  0.008400  0.672700  0.754700  1.0
  H  H1365  1  0.746300  0.491600  0.664300  1.0
  H  H1366  1  0.082000  0.246300  0.254700  1.0
  H  H1367  1  0.827300  0.582000  0.835700  1.0
  H  H1368  1  0.991600  0.327300  0.245300  1.0
  H  H1369  1  0.106700  0.544300  0.301600  1.0
  H  H1370  1  0.805100  0.606700  0.562400  1.0
  H  H1371  1  0.242700  0.305100  0.198400  1.0
  H  H1372  1  0.044300  0.742700  0.937600  1.0
  H  H1373  1  0.893300  0.455700  0.698400  1.0
  H  H1374  1  0.194900  0.393300  0.437600  1.0
  H  H1375  1  0.757300  0.694900  0.801600  1.0
  H  H1376  1  0.955700  0.257300  0.062400  1.0
  H  H1377  1  0.139900  0.556800  0.354100  1.0
  H  H1378  1  0.785800  0.639900  0.583100  1.0
  H  H1379  1  0.202700  0.285800  0.145900  1.0
  H  H1380  1  0.056800  0.702700  0.916900  1.0
  H  H1381  1  0.860100  0.443200  0.645900  1.0
  H  H1382  1  0.214200  0.360100  0.416900  1.0
  H  H1383  1  0.797300  0.714200  0.854100  1.0
  H  H1384  1  0.943200  0.297300  0.083100  1.0
  H  H1385  1  0.157500  0.626300  0.343200  1.0
  H  H1386  1  0.814300  0.657500  0.531200  1.0
  H  H1387  1  0.283100  0.314300  0.156800  1.0
  H  H1388  1  0.126300  0.783100  0.968800  1.0
  H  H1389  1  0.842500  0.373700  0.656800  1.0
  H  H1390  1  0.185700  0.342500  0.468800  1.0
  H  H1391  1  0.716900  0.685700  0.843200  1.0
  H  H1392  1  0.873700  0.216900  0.031200  1.0
  H  H1393  1  0.178000  0.607200  0.309400  1.0
  H  H1394  1  0.868600  0.678000  0.570800  1.0
  H  H1395  1  0.297800  0.368600  0.190600  1.0
  H  H1396  1  0.107200  0.797800  0.929200  1.0
  H  H1397  1  0.822000  0.392800  0.690600  1.0
  H  H1398  1  0.131400  0.322000  0.429200  1.0
  H  H1399  1  0.702200  0.631400  0.809400  1.0
  H  H1400  1  0.892800  0.202200  0.070800  1.0
  H  H1401  1  0.082500  0.630600  0.089900  1.0
  H  H1402  1  0.992600  0.582500  0.451900  1.0
  H  H1403  1  0.540700  0.492600  0.410100  1.0
  H  H1404  1  0.130600  0.040700  0.048100  1.0
  H  H1405  1  0.917500  0.369400  0.910100  1.0
  H  H1406  1  0.007400  0.417500  0.548100  1.0
  H  H1407  1  0.459300  0.507400  0.589900  1.0
  H  H1408  1  0.869400  0.959300  0.951900  1.0
  H  H1409  1  0.032300  0.583600  0.045700  1.0
  H  H1410  1  0.986600  0.532300  0.448700  1.0
  H  H1411  1  0.537900  0.486600  0.454300  1.0
  H  H1412  1  0.083600  0.037900  0.051300  1.0
  H  H1413  1  0.967700  0.416400  0.954300  1.0
  H  H1414  1  0.013400  0.467700  0.551300  1.0
  H  H1415  1  0.462100  0.513400  0.545700  1.0
  H  H1416  1  0.916400  0.962100  0.948700  1.0
  H  H1417  1  0.072800  0.617700  0.036900  1.0
  H  H1418  1  0.035900  0.572800  0.455100  1.0
  H  H1419  1  0.580800  0.535900  0.463100  1.0
  H  H1420  1  0.117700  0.080800  0.044900  1.0
  H  H1421  1  0.927200  0.382300  0.963100  1.0
  H  H1422  1  0.964100  0.427200  0.544900  1.0
  H  H1423  1  0.419200  0.464100  0.536900  1.0
  H  H1424  1  0.882300  0.919200  0.955100  1.0
  H  H1425  1  0.012600  0.528300  0.973900  1.0
  H  H1426  1  0.038700  0.512600  0.484300  1.0
  H  H1427  1  0.554400  0.538700  0.526100  1.0
  H  H1428  1  0.028300  0.054400  0.015700  1.0
  H  H1429  1  0.987400  0.471700  0.026100  1.0
  H  H1430  1  0.961300  0.487400  0.515700  1.0
  H  H1431  1  0.445600  0.461300  0.473900  1.0
  H  H1432  1  0.971700  0.945600  0.984300  1.0
  H  H1433  1  0.042800  0.442000  0.892800  1.0
  H  H1434  1  0.150000  0.542800  0.600800  1.0
  H  H1435  1  0.549200  0.650000  0.607200  1.0
  H  H1436  1  0.942000  0.049200  0.899200  1.0
  H  H1437  1  0.957200  0.558000  0.107200  1.0
  H  H1438  1  0.850000  0.457200  0.399200  1.0
  H  H1439  1  0.450800  0.350000  0.392800  1.0
  H  H1440  1  0.058000  0.950800  0.100800  1.0
  H  H1441  1  0.954900  0.475200  0.892300  1.0
  H  H1442  1  0.062600  0.454900  0.479700  1.0
  H  H1443  1  0.582900  0.562600  0.607700  1.0
  H  H1444  1  0.975200  0.082900  0.020300  1.0
  H  H1445  1  0.045100  0.524800  0.107700  1.0
  H  H1446  1  0.937400  0.545100  0.520300  1.0
  H  H1447  1  0.417100  0.437400  0.392300  1.0
  H  H1448  1  0.024800  0.917100  0.979700  1.0
  H  H1449  1  0.957500  0.428900  0.865400  1.0
  H  H1450  1  0.092100  0.457500  0.528600  1.0
  H  H1451  1  0.563500  0.592100  0.634600  1.0
  H  H1452  1  0.928900  0.063500  0.971400  1.0
  H  H1453  1  0.042500  0.571100  0.134600  1.0
  H  H1454  1  0.907900  0.542500  0.471400  1.0
  H  H1455  1  0.436500  0.407900  0.365400  1.0
  H  H1456  1  0.071100  0.936500  0.028600  1.0
  H  H1457  1  0.984600  0.478100  0.863500  1.0
  H  H1458  1  0.121100  0.484600  0.506500  1.0
  H  H1459  1  0.614600  0.621100  0.636500  1.0
  H  H1460  1  0.978100  0.114600  0.993500  1.0
  H  H1461  1  0.015400  0.521900  0.136500  1.0
  H  H1462  1  0.878900  0.515400  0.493500  1.0
  H  H1463  1  0.385400  0.378900  0.363500  1.0
  H  H1464  1  0.021900  0.885400  0.006500  1.0
  H  H1465  1  0.159500  0.495000  0.970100  1.0
  H  H1466  1  0.189400  0.659500  0.664500  1.0
  H  H1467  1  0.524900  0.689400  0.529900  1.0
  H  H1468  1  0.995000  0.024900  0.835500  1.0
  H  H1469  1  0.840500  0.505000  0.029900  1.0
  H  H1470  1  0.810600  0.340500  0.335500  1.0
  H  H1471  1  0.475100  0.310600  0.470100  1.0
  H  H1472  1  0.005000  0.975100  0.164500  1.0
  H  H1473  1  0.115500  0.442600  0.926100  1.0
  H  H1474  1  0.189400  0.615500  0.672900  1.0
  H  H1475  1  0.516500  0.689400  0.573900  1.0
  H  H1476  1  0.942600  0.016500  0.827100  1.0
  H  H1477  1  0.884500  0.557400  0.073900  1.0
  H  H1478  1  0.810600  0.384500  0.327100  1.0
  H  H1479  1  0.483500  0.310600  0.426100  1.0
  H  H1480  1  0.057400  0.983500  0.172900  1.0
  H  H1481  1  0.168000  0.402300  0.004500  1.0
  H  H1482  1  0.163500  0.668000  0.765700  1.0
  H  H1483  1  0.397800  0.663500  0.495500  1.0
  H  H1484  1  0.902300  0.897800  0.734300  1.0
  H  H1485  1  0.832000  0.597700  0.995500  1.0
  H  H1486  1  0.836500  0.332000  0.234300  1.0
  H  H1487  1  0.602200  0.336500  0.504500  1.0
  H  H1488  1  0.097700  0.102200  0.265700  1.0
  H  H1489  1  0.150800  0.394200  0.951000  1.0
  H  H1490  1  0.199800  0.650800  0.756600  1.0
  H  H1491  1  0.443200  0.699800  0.549000  1.0
  H  H1492  1  0.894200  0.943200  0.743400  1.0
  H  H1493  1  0.849200  0.605800  0.049000  1.0
  H  H1494  1  0.800200  0.349200  0.243400  1.0
  H  H1495  1  0.556800  0.300200  0.451000  1.0
  H  H1496  1  0.105800  0.056800  0.256600  1.0
  H  H1497  1  0.247300  0.493400  0.980700  1.0
  H  H1498  1  0.266600  0.747300  0.753900  1.0
  H  H1499  1  0.512700  0.766600  0.519300  1.0
  H  H1500  1  0.993400  0.012700  0.746100  1.0
  H  H1501  1  0.752700  0.506600  0.019300  1.0
  H  H1502  1  0.733400  0.252700  0.246100  1.0
  H  H1503  1  0.487300  0.233400  0.480700  1.0
  H  H1504  1  0.006600  0.987300  0.253900  1.0
  H  H1505  1  0.069100  0.416100  0.992200  1.0
  H  H1506  1  0.076900  0.569100  0.653000  1.0
  H  H1507  1  0.423900  0.576900  0.507800  1.0
  H  H1508  1  0.916100  0.923900  0.847000  1.0
  H  H1509  1  0.930900  0.583900  0.007800  1.0
  H  H1510  1  0.923100  0.430900  0.347000  1.0
  H  H1511  1  0.576100  0.423100  0.492200  1.0
  H  H1512  1  0.083900  0.076100  0.153000  1.0
  H  H1513  1  0.066100  0.375800  0.949500  1.0
  H  H1514  1  0.116600  0.566100  0.690300  1.0
  H  H1515  1  0.426300  0.616600  0.550500  1.0
  H  H1516  1  0.875800  0.926300  0.809700  1.0
  H  H1517  1  0.933900  0.624200  0.050500  1.0
  H  H1518  1  0.883400  0.433900  0.309700  1.0
  H  H1519  1  0.573700  0.383400  0.449500  1.0
  H  H1520  1  0.124200  0.073700  0.190300  1.0
  H  H1521  1  0.061600  0.353900  0.007500  1.0
  H  H1522  1  0.054100  0.561600  0.707700  1.0
  H  H1523  1  0.346400  0.554100  0.492500  1.0
  H  H1524  1  0.853900  0.846400  0.792300  1.0
  H  H1525  1  0.938400  0.646100  0.992500  1.0
  H  H1526  1  0.945900  0.438400  0.292300  1.0
  H  H1527  1  0.653600  0.445900  0.507500  1.0
  H  H1528  1  0.146100  0.153600  0.207700  1.0
  H  H1529  1  0.106800  0.356200  0.000000  1.0
  H  H1530  1  0.106800  0.606800  0.750600  1.0
  H  H1531  1  0.356200  0.606800  0.500000  1.0
  H  H1532  1  0.856200  0.856200  0.749400  1.0
  H  H1533  1  0.893200  0.643800  1.000000  1.0
  H  H1534  1  0.893200  0.393200  0.249400  1.0
  H  H1535  1  0.643800  0.393200  0.500000  1.0
  H  H1536  1  0.143800  0.143800  0.250600  1.0
  H  H1537  1  0.058800  0.558100  0.234500  1.0
  H  H1538  1  0.824300  0.558800  0.500700  1.0
  H  H1539  1  0.323600  0.324300  0.265500  1.0
  H  H1540  1  0.058100  0.823600  0.999300  1.0
  H  H1541  1  0.941200  0.441900  0.765500  1.0
  H  H1542  1  0.175700  0.441200  0.499300  1.0
  H  H1543  1  0.676400  0.675700  0.734500  1.0
  H  H1544  1  0.941900  0.176400  0.000700  1.0
  H  H1545  1  0.032300  0.586600  0.223300  1.0
  H  H1546  1  0.809000  0.532300  0.445700  1.0
  H  H1547  1  0.363300  0.309000  0.276700  1.0
  H  H1548  1  0.086600  0.863300  0.054300  1.0
  H  H1549  1  0.967700  0.413400  0.776700  1.0
  H  H1550  1  0.191000  0.467700  0.554300  1.0
  H  H1551  1  0.636700  0.691000  0.723300  1.0
  H  H1552  1  0.913400  0.136700  0.945700  1.0
  H  H1553  1  0.072900  0.607700  0.276400  1.0
  H  H1554  1  0.796500  0.572900  0.465200  1.0
  H  H1555  1  0.331300  0.296500  0.223600  1.0
  H  H1556  1  0.107700  0.831300  0.034800  1.0
  H  H1557  1  0.927100  0.392300  0.723600  1.0
  H  H1558  1  0.203500  0.427100  0.534800  1.0
  H  H1559  1  0.668700  0.703500  0.776400  1.0
  H  H1560  1  0.892300  0.168700  0.965200  1.0
  H  H1561  1  0.054500  0.660700  0.248400  1.0
  H  H1562  1  0.806100  0.554500  0.393800  1.0
  H  H1563  1  0.412300  0.306100  0.251600  1.0
  H  H1564  1  0.160700  0.912300  0.106200  1.0
  H  H1565  1  0.945500  0.339300  0.751600  1.0
  H  H1566  1  0.193900  0.445500  0.606200  1.0
  H  H1567  1  0.587700  0.693900  0.748400  1.0
  H  H1568  1  0.839300  0.087700  0.893800  1.0
  H  H1569  1  0.139500  0.792400  0.267100  1.0
  H  H1570  1  0.872400  0.639500  0.347100  1.0
  H  H1571  1  0.525300  0.372400  0.232900  1.0
  H  H1572  1  0.292400  0.025300  0.152900  1.0
  H  H1573  1  0.860500  0.207600  0.732900  1.0
  H  H1574  1  0.127600  0.360500  0.652900  1.0
  H  H1575  1  0.474700  0.627600  0.767100  1.0
  H  H1576  1  0.707600  0.974700  0.847100  1.0
  H  H1577  1  0.039300  0.745200  0.227500  1.0
  H  H1578  1  0.811800  0.539300  0.294100  1.0
  H  H1579  1  0.517700  0.311800  0.272500  1.0
  H  H1580  1  0.245200  0.017700  0.205900  1.0
  H  H1581  1  0.960700  0.254800  0.772500  1.0
  H  H1582  1  0.188200  0.460700  0.705900  1.0
  H  H1583  1  0.482300  0.688200  0.727500  1.0
  H  H1584  1  0.754800  0.982300  0.794100  1.0
  H  H1585  1  0.062500  0.765900  0.283600  1.0
  H  H1586  1  0.778900  0.562500  0.296600  1.0
  H  H1587  1  0.482300  0.278900  0.216400  1.0
  H  H1588  1  0.265900  0.982300  0.203400  1.0
  H  H1589  1  0.937500  0.234100  0.716400  1.0
  H  H1590  1  0.221100  0.437500  0.703400  1.0
  H  H1591  1  0.517700  0.721100  0.783600  1.0
  H  H1592  1  0.734100  0.017700  0.796600  1.0
  H  H1593  1  0.021900  0.709200  0.248100  1.0
  H  H1594  1  0.773800  0.521900  0.312700  1.0
  H  H1595  1  0.461100  0.273800  0.251900  1.0
  H  H1596  1  0.209200  0.961100  0.187300  1.0
  H  H1597  1  0.978100  0.290800  0.751900  1.0
  H  H1598  1  0.226200  0.478100  0.687300  1.0
  H  H1599  1  0.538900  0.726200  0.748100  1.0
  H  H1600  1  0.790800  0.038900  0.812700  1.0
  H  H1601  1  0.239600  0.792200  0.291200  1.0
  H  H1602  1  0.948400  0.739600  0.447400  1.0
  H  H1603  1  0.501000  0.448400  0.208800  1.0
  H  H1604  1  0.292200  0.001000  0.052600  1.0
  H  H1605  1  0.760400  0.207800  0.708800  1.0
  H  H1606  1  0.051600  0.260400  0.552600  1.0
  H  H1607  1  0.499000  0.551600  0.791200  1.0
  H  H1608  1  0.707800  0.999000  0.947400  1.0
  H  H1609  1  0.213200  0.815300  0.267300  1.0
  H  H1610  1  0.945900  0.713200  0.397900  1.0
  H  H1611  1  0.548000  0.445900  0.232700  1.0
  H  H1612  1  0.315300  0.048000  0.102100  1.0
  H  H1613  1  0.786800  0.184700  0.732700  1.0
  H  H1614  1  0.054100  0.286800  0.602100  1.0
  H  H1615  1  0.452000  0.554100  0.767300  1.0
  H  H1616  1  0.684700  0.952000  0.897900  1.0
  H  H1617  1  0.270200  0.797100  0.199100  1.0
  H  H1618  1  0.071100  0.770200  0.473100  1.0
  H  H1619  1  0.598000  0.571100  0.300900  1.0
  H  H1620  1  0.297100  0.098000  0.026900  1.0
  H  H1621  1  0.729800  0.202900  0.800900  1.0
  H  H1622  1  0.928900  0.229800  0.526900  1.0
  H  H1623  1  0.402000  0.428900  0.699100  1.0
  H  H1624  1  0.702900  0.902000  0.973100  1.0
  H  H1625  1  0.273600  0.838400  0.241200  1.0
  H  H1626  1  0.032400  0.773600  0.435200  1.0
  H  H1627  1  0.597200  0.532400  0.258800  1.0
  H  H1628  1  0.338400  0.097200  0.064800  1.0
  H  H1629  1  0.726400  0.161600  0.758800  1.0
  H  H1630  1  0.967600  0.226400  0.564800  1.0
  H  H1631  1  0.402800  0.467600  0.741200  1.0
  H  H1632  1  0.661600  0.902800  0.935200  1.0
  H  H1633  1  0.322600  0.787800  0.248200  1.0
  H  H1634  1  0.074400  0.822600  0.534800  1.0
  H  H1635  1  0.539600  0.574400  0.251800  1.0
  H  H1636  1  0.287800  0.039600  0.965200  1.0
  H  H1637  1  0.677400  0.212200  0.751800  1.0
  H  H1638  1  0.925600  0.177400  0.465200  1.0
  H  H1639  1  0.460400  0.425600  0.748200  1.0
  H  H1640  1  0.712200  0.960400  0.034800  1.0
  H  H1641  1  0.345000  0.845300  0.275700  1.0
  H  H1642  1  0.069300  0.845000  0.499700  1.0
  H  H1643  1  0.569600  0.569300  0.224300  1.0
  H  H1644  1  0.345300  0.069600  0.000300  1.0
  H  H1645  1  0.655000  0.154700  0.724300  1.0
  H  H1646  1  0.930700  0.155000  0.500300  1.0
  H  H1647  1  0.430400  0.430700  0.775700  1.0
  H  H1648  1  0.654700  0.930400  0.999700  1.0
  H  H1649  1  0.179800  0.784000  0.179800  1.0
  H  H1650  1  1.000000  0.679800  0.395800  1.0
  H  H1651  1  0.604200  0.500000  0.320200  1.0
  H  H1652  1  0.284000  0.104200  0.104200  1.0
  H  H1653  1  0.820200  0.216000  0.820200  1.0
  H  H1654  1  1.000000  0.320200  0.604200  1.0
  H  H1655  1  0.395800  0.500000  0.679800  1.0
  H  H1656  1  0.716000  0.895800  0.895800  1.0
  H  H1657  1  0.150400  0.730400  0.173000  1.0
  H  H1658  1  0.977400  0.650400  0.420000  1.0
  H  H1659  1  0.557400  0.477400  0.327000  1.0
  H  H1660  1  0.230400  0.057400  0.080000  1.0
  H  H1661  1  0.849600  0.269600  0.827000  1.0
  H  H1662  1  0.022600  0.349600  0.580000  1.0
  H  H1663  1  0.442600  0.522600  0.673000  1.0
  H  H1664  1  0.769600  0.942600  0.920000  1.0
  H  H1665  1  0.158600  0.717400  0.104000  1.0
  H  H1666  1  0.054600  0.658600  0.441200  1.0
  H  H1667  1  0.613400  0.554600  0.396000  1.0
  H  H1668  1  0.217400  0.113400  0.058800  1.0
  H  H1669  1  0.841400  0.282600  0.896000  1.0
  H  H1670  1  0.945400  0.341400  0.558800  1.0
  H  H1671  1  0.386600  0.445400  0.604000  1.0
  H  H1672  1  0.782600  0.886600  0.941200  1.0
  H  H1673  1  0.215100  0.759900  0.134200  1.0
  H  H1674  1  0.080900  0.715100  0.455200  1.0
  H  H1675  1  0.625700  0.580900  0.365800  1.0
  H  H1676  1  0.259900  0.125700  0.044800  1.0
  H  H1677  1  0.784900  0.240100  0.865800  1.0
  H  H1678  1  0.919100  0.284900  0.544800  1.0
  H  H1679  1  0.374300  0.419100  0.634200  1.0
  H  H1680  1  0.740100  0.874300  0.955200  1.0
  H  H1681  1  0.332000  0.729300  0.254300  1.0
  H  H1682  1  0.077700  0.832000  0.602700  1.0
  H  H1683  1  0.475000  0.577700  0.245700  1.0
  H  H1684  1  0.229300  0.975000  0.897300  1.0
  H  H1685  1  0.668000  0.270700  0.745700  1.0
  H  H1686  1  0.922300  0.168000  0.397300  1.0
  H  H1687  1  0.525000  0.422300  0.754300  1.0
  H  H1688  1  0.770700  0.025000  0.102700  1.0
  H  H1689  1  0.440200  0.739600  0.223400  1.0
  H  H1690  1  0.216800  0.940200  0.700600  1.0
  H  H1691  1  0.516200  0.716800  0.276600  1.0
  H  H1692  1  0.239600  0.016200  0.799400  1.0
  H  H1693  1  0.559800  0.260400  0.776600  1.0
  H  H1694  1  0.783200  0.059800  0.299400  1.0
  H  H1695  1  0.483800  0.283200  0.723400  1.0
  H  H1696  1  0.760400  0.983800  0.200600  1.0
  H  H1697  1  0.298300  0.631700  0.126400  1.0
  H  H1698  1  0.171900  0.798300  0.666600  1.0
  H  H1699  1  0.505300  0.671900  0.373600  1.0
  H  H1700  1  0.131700  0.005300  0.833400  1.0
  H  H1701  1  0.701700  0.368300  0.873600  1.0
  H  H1702  1  0.828100  0.201700  0.333400  1.0
  H  H1703  1  0.494700  0.328100  0.626400  1.0
  H  H1704  1  0.868300  0.994700  0.166600  1.0
  H  H1705  1  0.544400  0.799000  0.198600  1.0
  H  H1706  1  0.345800  0.044400  0.745400  1.0
  H  H1707  1  0.600400  0.845800  0.301400  1.0
  H  H1708  1  0.299000  0.100400  0.754600  1.0
  H  H1709  1  0.455600  0.201000  0.801400  1.0
  H  H1710  1  0.654200  0.955600  0.254600  1.0
  H  H1711  1  0.399600  0.154200  0.698600  1.0
  H  H1712  1  0.701000  0.899600  0.245400  1.0
  H  H1713  1  0.381100  0.858100  0.231600  1.0
  H  H1714  1  0.149500  0.881100  0.523000  1.0
  H  H1715  1  0.626500  0.649500  0.268400  1.0
  H  H1716  1  0.358100  0.126500  0.977000  1.0
  H  H1717  1  0.618900  0.141900  0.768400  1.0
  H  H1718  1  0.850500  0.118900  0.477000  1.0
  H  H1719  1  0.373500  0.350500  0.731600  1.0
  H  H1720  1  0.641900  0.873500  0.023000  1.0
  H  H1721  1  0.258500  0.730100  0.306000  1.0
  H  H1722  1  0.952500  0.758500  0.528400  1.0
  H  H1723  1  0.424100  0.452500  0.194000  1.0
  H  H1724  1  0.230100  0.924100  0.971600  1.0
  H  H1725  1  0.741500  0.269900  0.694000  1.0
  H  H1726  1  0.047500  0.241500  0.471600  1.0
  H  H1727  1  0.575900  0.547500  0.806000  1.0
  H  H1728  1  0.769900  0.075900  0.028400  1.0
  H  H1729  1  0.431200  0.816500  0.482500  1.0
  H  H1730  1  0.948700  0.931200  0.614700  1.0
  H  H1731  1  0.334000  0.448700  0.017500  1.0
  H  H1732  1  0.316500  0.834000  0.885300  1.0
  H  H1733  1  0.568800  0.183500  0.517500  1.0
  H  H1734  1  0.051300  0.068800  0.385300  1.0
  H  H1735  1  0.666000  0.551300  0.982500  1.0
  H  H1736  1  0.683500  0.166000  0.114700  1.0
  H  H1737  1  0.523000  0.663700  0.456300  1.0
  H  H1738  1  0.066700  0.023000  0.859300  1.0
  H  H1739  1  0.207400  0.566700  0.043700  1.0
  H  H1740  1  0.163700  0.707400  0.640700  1.0
  H  H1741  1  0.477000  0.336300  0.543700  1.0
  H  H1742  1  0.933300  0.977000  0.140700  1.0
  H  H1743  1  0.792600  0.433300  0.956300  1.0
  H  H1744  1  0.836300  0.292600  0.359300  1.0
  H  H1745  1  0.626400  0.826600  0.431600  1.0
  H  H1746  1  0.194800  0.126400  0.799800  1.0
  H  H1747  1  0.395000  0.694800  0.068400  1.0
  H  H1748  1  0.326600  0.895000  0.700200  1.0
  H  H1749  1  0.373600  0.173400  0.568400  1.0
  H  H1750  1  0.805200  0.873600  0.200200  1.0
  H  H1751  1  0.605000  0.305200  0.931600  1.0
  H  H1752  1  0.673400  0.105000  0.299800  1.0
  H  H1753  1  0.207700  0.435100  0.295600  1.0
  H  H1754  1  0.912100  0.707700  0.772600  1.0
  H  H1755  1  0.139500  0.412100  0.204400  1.0
  H  H1756  1  0.935100  0.639500  0.727400  1.0
  H  H1757  1  0.792300  0.564900  0.704400  1.0
  H  H1758  1  0.087900  0.292300  0.227400  1.0
  H  H1759  1  0.860500  0.587900  0.795600  1.0
  H  H1760  1  0.064900  0.360500  0.272600  1.0
  H  H1761  1  0.240600  0.654700  0.386900  1.0
  H  H1762  1  0.853700  0.740600  0.585900  1.0
  H  H1763  1  0.267800  0.353700  0.113100  1.0
  H  H1764  1  0.154700  0.767800  0.914100  1.0
  H  H1765  1  0.759400  0.345300  0.613100  1.0
  H  H1766  1  0.146300  0.259400  0.414100  1.0
  H  H1767  1  0.732200  0.646300  0.886900  1.0
  H  H1768  1  0.845300  0.232200  0.085900  1.0
  H  H1769  1  0.214200  0.487500  0.023700  1.0
  H  H1770  1  0.190500  0.714200  0.726700  1.0
  H  H1771  1  0.463800  0.690500  0.476300  1.0
  H  H1772  1  0.987500  0.963800  0.773300  1.0
  H  H1773  1  0.785800  0.512500  0.976300  1.0
  H  H1774  1  0.809500  0.285800  0.273300  1.0
  H  H1775  1  0.536200  0.309500  0.523700  1.0
  H  H1776  1  0.012500  0.036200  0.226700  1.0
  H  H1777  1  0.236000  0.453100  0.017100  1.0
  H  H1778  1  0.218900  0.736000  0.782900  1.0
  H  H1779  1  0.436000  0.718900  0.482900  1.0
  H  H1780  1  0.953100  0.936000  0.717100  1.0
  H  H1781  1  0.764000  0.546900  0.982900  1.0
  H  H1782  1  0.781100  0.264000  0.217100  1.0
  H  H1783  1  0.564000  0.281100  0.517100  1.0
  H  H1784  1  0.046900  0.064000  0.282900  1.0
  H  H1785  1  0.111800  0.425900  0.066500  1.0
  H  H1786  1  0.045300  0.611800  0.685900  1.0
  H  H1787  1  0.359400  0.545300  0.433500  1.0
  H  H1788  1  0.925900  0.859400  0.814100  1.0
  H  H1789  1  0.888200  0.574100  0.933500  1.0
  H  H1790  1  0.954700  0.388200  0.314100  1.0
  H  H1791  1  0.640600  0.454700  0.566500  1.0
  H  H1792  1  0.074100  0.140600  0.185900  1.0
  H  H1793  1  0.346000  0.830400  0.327200  1.0
  H  H1794  1  0.018800  0.846000  0.515600  1.0
  H  H1795  1  0.503200  0.518800  0.172800  1.0
  H  H1796  1  0.330400  0.003200  0.984400  1.0
  H  H1797  1  0.654000  0.169600  0.672800  1.0
  H  H1798  1  0.981200  0.154000  0.484400  1.0
  H  H1799  1  0.496800  0.481200  0.827200  1.0
  H  H1800  1  0.669600  0.996800  0.015600  1.0
  H  H1801  1  0.178900  0.677400  0.134900  1.0
  H  H1802  1  0.044000  0.678900  0.501500  1.0
  H  H1803  1  0.542500  0.544000  0.365100  1.0
  H  H1804  1  0.177400  0.042500  0.998500  1.0
  H  H1805  1  0.821100  0.322600  0.865100  1.0
  H  H1806  1  0.956000  0.321100  0.498500  1.0
  H  H1807  1  0.457500  0.456000  0.634900  1.0
  H  H1808  1  0.822600  0.957500  0.001500  1.0
  H  H1809  1  0.441300  0.870800  0.292300  1.0
  H  H1810  1  0.149000  0.941300  0.570500  1.0
  H  H1811  1  0.578500  0.649000  0.207700  1.0
  H  H1812  1  0.370800  0.078500  0.929500  1.0
  H  H1813  1  0.558700  0.129200  0.707700  1.0
  H  H1814  1  0.851000  0.058700  0.429500  1.0
  H  H1815  1  0.421500  0.351000  0.792300  1.0
  H  H1816  1  0.629200  0.921500  0.070500  1.0
  H  H1817  1  0.439900  0.919200  0.300100  1.0
  H  H1818  1  0.139800  0.939900  0.520700  1.0
  H  H1819  1  0.619100  0.639800  0.199900  1.0
  H  H1820  1  0.419200  0.119100  0.979300  1.0
  H  H1821  1  0.560100  0.080800  0.699900  1.0
  H  H1822  1  0.860200  0.060100  0.479300  1.0
  H  H1823  1  0.380900  0.360200  0.800100  1.0
  H  H1824  1  0.580800  0.880900  0.020700  1.0
  Mn  Mn1825  1  0.531560  0.848080  0.369460  1.0
  Mn  Mn1826  1  0.162100  0.031560  0.683480  1.0
  Mn  Mn1827  1  0.478620  0.662100  0.130540  1.0
  Mn  Mn1828  1  0.348080  0.978620  0.816520  1.0
  Mn  Mn1829  1  0.468440  0.151920  0.630540  1.0
  Mn  Mn1830  1  0.837900  0.968440  0.316520  1.0
  Mn  Mn1831  1  0.521380  0.337900  0.869460  1.0
  Mn  Mn1832  1  0.651920  0.021380  0.183480  1.0
  Mn  Mn1833  1  0.446700  0.836500  0.396880  1.0
  Mn  Mn1834  1  0.049820  0.946700  0.610200  1.0
  Mn  Mn1835  1  0.439620  0.549820  0.103120  1.0
  Mn  Mn1836  1  0.336500  0.939620  0.889800  1.0
  Mn  Mn1837  1  0.553300  0.163500  0.603120  1.0
  Mn  Mn1838  1  0.950180  0.053300  0.389800  1.0
  Mn  Mn1839  1  0.560380  0.450180  0.896880  1.0
  Mn  Mn1840  1  0.663500  0.060380  0.110200  1.0
  Mn  Mn1841  1  0.527180  0.813610  0.447410  1.0
  Mn  Mn1842  1  0.079770  0.027180  0.713570  1.0
  Mn  Mn1843  1  0.366200  0.579770  0.052590  1.0
  Mn  Mn1844  1  0.313610  0.866200  0.786430  1.0
  Mn  Mn1845  1  0.472820  0.186390  0.552590  1.0
  Mn  Mn1846  1  0.920230  0.972820  0.286430  1.0
  Mn  Mn1847  1  0.633800  0.420230  0.947410  1.0
  Mn  Mn1848  1  0.686390  0.133800  0.213570  1.0
  Mn  Mn1849  1  0.149750  0.522710  0.190320  1.0
  Mn  Mn1850  1  0.959430  0.649750  0.627040  1.0
  Mn  Mn1851  1  0.332390  0.459430  0.309680  1.0
  Mn  Mn1852  1  0.022710  0.832390  0.872960  1.0
  Mn  Mn1853  1  0.850250  0.477290  0.809680  1.0
  Mn  Mn1854  1  0.040570  0.350250  0.372960  1.0
  Mn  Mn1855  1  0.667610  0.540570  0.690320  1.0
  Mn  Mn1856  1  0.977290  0.167610  0.127040  1.0
  Mn  Mn1857  1  0.158420  0.548500  0.108500  1.0
  Mn  Mn1858  1  0.049920  0.658420  0.609920  1.0
  Mn  Mn1859  1  0.440000  0.549920  0.391500  1.0
  Mn  Mn1860  1  0.048500  0.940000  0.890080  1.0
  Mn  Mn1861  1  0.841580  0.451500  0.891500  1.0
  Mn  Mn1862  1  0.950080  0.341580  0.390080  1.0
  Mn  Mn1863  1  0.560000  0.450080  0.608500  1.0
  Mn  Mn1864  1  0.951500  0.060000  0.109920  1.0
  Mn  Mn1865  1  0.180760  0.631040  0.206140  1.0
  Mn  Mn1866  1  0.974620  0.680760  0.549720  1.0
  Mn  Mn1867  1  0.424900  0.474620  0.293860  1.0
  Mn  Mn1868  1  0.131040  0.924900  0.950280  1.0
  Mn  Mn1869  1  0.819240  0.368960  0.793860  1.0
  Mn  Mn1870  1  0.025380  0.319240  0.450280  1.0
  Mn  Mn1871  1  0.575100  0.525380  0.706140  1.0
  Mn  Mn1872  1  0.868960  0.075100  0.049720  1.0
  N  N1873  1  0.595970  0.886500  0.432190  1.0
  N  N1874  1  0.163780  0.095970  0.709470  1.0
  N  N1875  1  0.454310  0.663780  0.067810  1.0
  N  N1876  1  0.386500  0.954310  0.790530  1.0
  N  N1877  1  0.404030  0.113500  0.567810  1.0
  N  N1878  1  0.836220  0.904030  0.290530  1.0
  N  N1879  1  0.545690  0.336220  0.932190  1.0
  N  N1880  1  0.613500  0.045690  0.209470  1.0
  N  N1881  1  0.515300  0.886180  0.272460  1.0
  N  N1882  1  0.242840  0.015300  0.629120  1.0
  N  N1883  1  0.613720  0.742840  0.227540  1.0
  N  N1884  1  0.386180  0.113720  0.870880  1.0
  N  N1885  1  0.484700  0.113820  0.727540  1.0
  N  N1886  1  0.757160  0.984700  0.370880  1.0
  N  N1887  1  0.386280  0.257160  0.772460  1.0
  N  N1888  1  0.613820  0.886280  0.129120  1.0
  N  N1889  1  0.483690  0.901280  0.399850  1.0
  N  N1890  1  0.083840  0.983690  0.582410  1.0
  N  N1891  1  0.501430  0.583840  0.100150  1.0
  N  N1892  1  0.401280  0.001430  0.917590  1.0
  N  N1893  1  0.516310  0.098720  0.600150  1.0
  N  N1894  1  0.916160  0.016310  0.417590  1.0
  N  N1895  1  0.498570  0.416160  0.899850  1.0
  N  N1896  1  0.598720  0.998570  0.082410  1.0
  N  N1897  1  0.336210  0.812090  0.431320  1.0
  N  N1898  1  0.904890  0.836210  0.524120  1.0
  N  N1899  1  0.380770  0.404890  0.068680  1.0
  N  N1900  1  0.312090  0.880770  0.975880  1.0
  N  N1901  1  0.663790  0.187910  0.568680  1.0
  N  N1902  1  0.095110  0.163790  0.475880  1.0
  N  N1903  1  0.619230  0.595110  0.931320  1.0
  N  N1904  1  0.687910  0.119230  0.024120  1.0
  N  N1905  1  0.517940  0.859960  0.493140  1.0
  N  N1906  1  0.024800  0.017940  0.657980  1.0
  N  N1907  1  0.366820  0.524800  0.006860  1.0
  N  N1908  1  0.359960  0.866820  0.842020  1.0
  N  N1909  1  0.482060  0.140040  0.506860  1.0
  N  N1910  1  0.975200  0.982060  0.342020  1.0
  N  N1911  1  0.633180  0.475200  0.993140  1.0
  N  N1912  1  0.640040  0.133180  0.157980  1.0
  N  N1913  1  0.628890  0.783110  0.497800  1.0
  N  N1914  1  0.131090  0.128890  0.845780  1.0
  N  N1915  1  0.285310  0.631090  0.002200  1.0
  N  N1916  1  0.283110  0.785310  0.654220  1.0
  N  N1917  1  0.371110  0.216890  0.502200  1.0
  N  N1918  1  0.868910  0.871110  0.154220  1.0
  N  N1919  1  0.714690  0.368910  0.997800  1.0
  N  N1920  1  0.716890  0.214690  0.345780  1.0
  N  N1921  1  0.089760  0.475480  0.124240  1.0
  N  N1922  1  0.965520  0.589760  0.614280  1.0
  N  N1923  1  0.351240  0.465520  0.375760  1.0
  N  N1924  1  0.975480  0.851240  0.885720  1.0
  N  N1925  1  0.910240  0.524520  0.875760  1.0
  N  N1926  1  0.034480  0.410240  0.385720  1.0
  N  N1927  1  0.648760  0.534480  0.624240  1.0
  N  N1928  1  0.024520  0.148760  0.114280  1.0
  N  N1929  1  0.155000  0.516610  0.303130  1.0
  N  N1930  1  0.851870  0.655000  0.638390  1.0
  N  N1931  1  0.213480  0.351870  0.196870  1.0
  N  N1932  1  0.016610  0.713480  0.861610  1.0
  N  N1933  1  0.845000  0.483390  0.696870  1.0
  N  N1934  1  0.148130  0.345000  0.361610  1.0
  N  N1935  1  0.786520  0.648130  0.803130  1.0
  N  N1936  1  0.983390  0.286520  0.138390  1.0
  N  N1937  1  0.122220  0.582780  0.098440  1.0
  N  N1938  1  0.023780  0.622220  0.539440  1.0
  N  N1939  1  0.484340  0.523780  0.401560  1.0
  N  N1940  1  0.082780  0.984340  0.960560  1.0
  N  N1941  1  0.877780  0.417220  0.901560  1.0
  N  N1942  1  0.976220  0.377780  0.460560  1.0
  N  N1943  1  0.515660  0.476220  0.598440  1.0
  N  N1944  1  0.917220  0.015660  0.039440  1.0
  N  N1945  1  0.136720  0.441580  0.990700  1.0
  N  N1946  1  0.146020  0.636720  0.695140  1.0
  N  N1947  1  0.450880  0.646020  0.509300  1.0
  N  N1948  1  0.941580  0.950880  0.804860  1.0
  N  N1949  1  0.863280  0.558420  0.009300  1.0
  N  N1950  1  0.853980  0.363280  0.304860  1.0
  N  N1951  1  0.549120  0.353980  0.490700  1.0
  N  N1952  1  0.058420  0.049120  0.195140  1.0
  N  N1953  1  0.126590  0.600100  0.220990  1.0
  N  N1954  1  0.905600  0.626590  0.526490  1.0
  N  N1955  1  0.379110  0.405600  0.279010  1.0
  N  N1956  1  0.100100  0.879110  0.973510  1.0
  N  N1957  1  0.873410  0.399900  0.779010  1.0
  N  N1958  1  0.094400  0.373410  0.473510  1.0
  N  N1959  1  0.620890  0.594400  0.720990  1.0
  N  N1960  1  0.899900  0.120890  0.026490  1.0
  N  N1961  1  0.222300  0.768880  0.222380  1.0
  N  N1962  1  0.999920  0.722300  0.453420  1.0
  N  N1963  1  0.546500  0.499920  0.277620  1.0
  N  N1964  1  0.268880  0.046500  0.046580  1.0
  N  N1965  1  0.777700  0.231120  0.777620  1.0
  N  N1966  1  0.000080  0.277700  0.546580  1.0
  N  N1967  1  0.453500  0.500080  0.722380  1.0
  N  N1968  1  0.731120  0.953500  0.953420  1.0
  O  O1969  1  0.371900  0.621900  0.250000  1
  O  O1970  1  0.121900  0.871900  0.750000  1
  O  O1971  1  0.628100  0.378100  0.750000  1
  O  O1972  1  0.878100  0.128100  0.250000  1
  O  O1973  1  0.219200  0.468400  0.967200  1.0
  O  O1974  1  0.252000  0.719200  0.750800  1.0
  O  O1975  1  0.501200  0.752000  0.532800  1.0
  O  O1976  1  0.968400  0.001200  0.749200  1.0
  O  O1977  1  0.780800  0.531600  0.032800  1.0
  O  O1978  1  0.748000  0.280800  0.249200  1.0
  O  O1979  1  0.498800  0.248000  0.467200  1.0
  O  O1980  1  0.031600  0.998800  0.250800  1.0
  O  O1981  1  0.496960  0.825060  0.398740  1.0
  O  O1982  1  0.098220  0.996960  0.671900  1.0
  O  O1983  1  0.426320  0.598220  0.101260  1.0
  O  O1984  1  0.325060  0.926320  0.828100  1.0
  O  O1985  1  0.503040  0.174940  0.601260  1.0
  O  O1986  1  0.901780  0.003040  0.328100  1.0
  O  O1987  1  0.573680  0.401780  0.898740  1.0
  O  O1988  1  0.674940  0.073680  0.171900  1.0
  O  O1989  1  0.597450  0.864570  0.459600  1.0
  O  O1990  1  0.137850  0.097450  0.732880  1.0
  O  O1991  1  0.404970  0.637850  0.040400  1.0
  O  O1992  1  0.364570  0.904970  0.767120  1.0
  O  O1993  1  0.402550  0.135430  0.540400  1.0
  O  O1994  1  0.862150  0.902550  0.267120  1.0
  O  O1995  1  0.595030  0.362150  0.959600  1.0
  O  O1996  1  0.635430  0.095030  0.232880  1.0
  O  O1997  1  0.569750  0.874800  0.343050  1.0
  O  O1998  1  0.226700  0.069750  0.694950  1.0
  O  O1999  1  0.531750  0.726700  0.156950  1.0
  O  O2000  1  0.374800  0.031750  0.805050  1.0
  O  O2001  1  0.430250  0.125200  0.656950  1.0
  O  O2002  1  0.773300  0.930250  0.305050  1.0
  O  O2003  1  0.468250  0.273300  0.843050  1.0
  O  O2004  1  0.625200  0.968250  0.194950  1.0
  O  O2005  1  0.538630  0.821540  0.202710  1.0
  O  O2006  1  0.335920  0.038630  0.717090  1.0
  O  O2007  1  0.618830  0.835920  0.297290  1.0
  O  O2008  1  0.321540  0.118830  0.782910  1.0
  O  O2009  1  0.461370  0.178460  0.797290  1.0
  O  O2010  1  0.664080  0.961370  0.282910  1.0
  O  O2011  1  0.381170  0.164080  0.702710  1.0
  O  O2012  1  0.678460  0.881170  0.217090  1.0
  O  O2013  1  0.408700  0.870600  0.233500  1.0
  O  O2014  1  0.175200  0.908700  0.538100  1.0
  O  O2015  1  0.637100  0.675200  0.266500  1.0
  O  O2016  1  0.370600  0.137100  0.961900  1.0
  O  O2017  1  0.591300  0.129400  0.766500  1.0
  O  O2018  1  0.824800  0.091300  0.461900  1.0
  O  O2019  1  0.362900  0.324800  0.733500  1.0
  O  O2020  1  0.629400  0.862900  0.038100  1.0
  O  O2021  1  0.515090  0.904050  0.382700  1.0
  O  O2022  1  0.132390  0.015090  0.611040  1.0
  O  O2023  1  0.521350  0.632390  0.117300  1.0
  O  O2024  1  0.404050  0.021350  0.888960  1.0
  O  O2025  1  0.484910  0.095950  0.617300  1.0
  O  O2026  1  0.867610  0.984910  0.388960  1.0
  O  O2027  1  0.478650  0.367610  0.882700  1.0
  O  O2028  1  0.595950  0.978650  0.111040  1.0
  O  O2029  1  0.396260  0.848200  0.394920  1.0
  O  O2030  1  0.001340  0.896260  0.548060  1.0
  O  O2031  1  0.453280  0.501340  0.105080  1.0
  O  O2032  1  0.348200  0.953280  0.951940  1.0
  O  O2033  1  0.603740  0.151800  0.605080  1.0
  O  O2034  1  0.998660  0.103740  0.451940  1.0
  O  O2035  1  0.546720  0.498660  0.894920  1.0
  O  O2036  1  0.651800  0.046720  0.048060  1.0
  O  O2037  1  0.279000  0.743900  0.334900  1.0
  O  O2038  1  0.944100  0.779000  0.535100  1.0
  O  O2039  1  0.409000  0.444100  0.165100  1.0
  O  O2040  1  0.243900  0.909000  0.964900  1.0
  O  O2041  1  0.721000  0.256100  0.665100  1.0
  O  O2042  1  0.055900  0.221000  0.464900  1.0
  O  O2043  1  0.591000  0.555900  0.834900  1.0
  O  O2044  1  0.756100  0.091000  0.035100  1.0
  O  O2045  1  0.406830  0.793030  0.478960  1.0
  O  O2046  1  0.927870  0.906830  0.613800  1.0
  O  O2047  1  0.314070  0.427870  0.021040  1.0
  O  O2048  1  0.293030  0.814070  0.886200  1.0
  O  O2049  1  0.593170  0.206970  0.521040  1.0
  O  O2050  1  0.072130  0.093170  0.386200  1.0
  O  O2051  1  0.685930  0.572130  0.978960  1.0
  O  O2052  1  0.706970  0.185930  0.113800  1.0
  O  O2053  1  0.477550  0.861940  0.472470  1.0
  O  O2054  1  0.005080  0.977550  0.615610  1.0
  O  O2055  1  0.389470  0.505080  0.027530  1.0
  O  O2056  1  0.361940  0.889470  0.884390  1.0
  O  O2057  1  0.522450  0.138060  0.527530  1.0
  O  O2058  1  0.994920  0.022450  0.384390  1.0
  O  O2059  1  0.610530  0.494920  0.972470  1.0
  O  O2060  1  0.638060  0.110530  0.115610  1.0
  O  O2061  1  0.558070  0.804180  0.497410  1.0
  O  O2062  1  0.060660  0.058070  0.753890  1.0
  O  O2063  1  0.306770  0.560660  0.002590  1.0
  O  O2064  1  0.304180  0.806770  0.746110  1.0
  O  O2065  1  0.441930  0.195820  0.502590  1.0
  O  O2066  1  0.939340  0.941930  0.246110  1.0
  O  O2067  1  0.693230  0.439340  0.997410  1.0
  O  O2068  1  0.695820  0.193230  0.253890  1.0
  O  O2069  1  0.544200  0.689300  0.459100  1.0
  O  O2070  1  0.085100  0.044200  0.854900  1.0
  O  O2071  1  0.230200  0.585100  0.040900  1.0
  O  O2072  1  0.189300  0.730200  0.645100  1.0
  O  O2073  1  0.455800  0.310700  0.540900  1.0
  O  O2074  1  0.914900  0.955800  0.145100  1.0
  O  O2075  1  0.769800  0.414900  0.959100  1.0
  O  O2076  1  0.810700  0.269800  0.354900  1.0
  O  O2077  1  0.635000  0.806300  0.425300  1.0
  O  O2078  1  0.209700  0.135000  0.828700  1.0
  O  O2079  1  0.381000  0.709700  0.074700  1.0
  O  O2080  1  0.306300  0.881000  0.671300  1.0
  O  O2081  1  0.365000  0.193700  0.574700  1.0
  O  O2082  1  0.790300  0.865000  0.171300  1.0
  O  O2083  1  0.619000  0.290300  0.925300  1.0
  O  O2084  1  0.693700  0.119000  0.328700  1.0
  O  O2085  1  0.402260  0.769590  0.382870  1.0
  O  O2086  1  0.019390  0.902260  0.632670  1.0
  O  O2087  1  0.386720  0.519390  0.117130  1.0
  O  O2088  1  0.269590  0.886720  0.867330  1.0
  O  O2089  1  0.597740  0.230410  0.617130  1.0
  O  O2090  1  0.980610  0.097740  0.367330  1.0
  O  O2091  1  0.613280  0.480610  0.882870  1.0
  O  O2092  1  0.730410  0.113280  0.132670  1.0
  O  O2093  1  0.454910  0.755540  0.427370  1.0
  O  O2094  1  0.027540  0.954910  0.699370  1.0
  O  O2095  1  0.328170  0.527540  0.072630  1.0
  O  O2096  1  0.255540  0.828170  0.800630  1.0
  O  O2097  1  0.545090  0.244460  0.572630  1.0
  O  O2098  1  0.972460  0.045090  0.300630  1.0
  O  O2099  1  0.671830  0.472460  0.927370  1.0
  O  O2100  1  0.744460  0.171830  0.199370  1.0
  O  O2101  1  0.231360  0.637720  0.271540  1.0
  O  O2102  1  0.959820  0.731360  0.593640  1.0
  O  O2103  1  0.366180  0.459820  0.228460  1.0
  O  O2104  1  0.137720  0.866180  0.906360  1.0
  O  O2105  1  0.768640  0.362280  0.728460  1.0
  O  O2106  1  0.040180  0.268640  0.406360  1.0
  O  O2107  1  0.633820  0.540180  0.771540  1.0
  O  O2108  1  0.862280  0.133820  0.093640  1.0
  O  O2109  1  0.210490  0.560880  0.254110  1.0
  O  O2110  1  0.956380  0.710490  0.649610  1.0
  O  O2111  1  0.306770  0.456380  0.245890  1.0
  O  O2112  1  0.060880  0.806770  0.850390  1.0
  O  O2113  1  0.789510  0.439120  0.745890  1.0
  O  O2114  1  0.043620  0.289510  0.350390  1.0
  O  O2115  1  0.693230  0.543620  0.754110  1.0
  O  O2116  1  0.939120  0.193230  0.149610  1.0
  O  O2117  1  0.329040  0.525410  0.334770  1.0
  O  O2118  1  0.994270  0.829040  0.803630  1.0
  O  O2119  1  0.190640  0.494270  0.165230  1.0
  O  O2120  1  0.025410  0.690640  0.696370  1.0
  O  O2121  1  0.670960  0.474590  0.665230  1.0
  O  O2122  1  0.005730  0.170960  0.196370  1.0
  O  O2123  1  0.809360  0.505730  0.834770  1.0
  O  O2124  1  0.974590  0.309360  0.303630  1.0
  O  O2125  1  0.406800  0.586330  0.384170  1.0
  O  O2126  1  0.022630  0.906800  0.820470  1.0
  O  O2127  1  0.202160  0.522630  0.115830  1.0
  O  O2128  1  0.086330  0.702160  0.679530  1.0
  O  O2129  1  0.593200  0.413670  0.615830  1.0
  O  O2130  1  0.977370  0.093200  0.179530  1.0
  O  O2131  1  0.797840  0.477370  0.884170  1.0
  O  O2132  1  0.913670  0.297840  0.320470  1.0
  O  O2133  1  0.097490  0.478020  0.088310  1.0
  O  O2134  1  0.009180  0.597490  0.619470  1.0
  O  O2135  1  0.389710  0.509180  0.411690  1.0
  O  O2136  1  0.978020  0.889710  0.880530  1.0
  O  O2137  1  0.902510  0.521980  0.911690  1.0
  O  O2138  1  0.990820  0.402510  0.380530  1.0
  O  O2139  1  0.610290  0.490820  0.588310  1.0
  O  O2140  1  0.021980  0.110290  0.119470  1.0
  O  O2141  1  0.125240  0.473920  0.207640  1.0
  O  O2142  1  0.917600  0.625240  0.651320  1.0
  O  O2143  1  0.266280  0.417600  0.292360  1.0
  O  O2144  1  0.973920  0.766280  0.848680  1.0
  O  O2145  1  0.874760  0.526080  0.792360  1.0
  O  O2146  1  0.082400  0.374760  0.348680  1.0
  O  O2147  1  0.733720  0.582400  0.707640  1.0
  O  O2148  1  0.026080  0.233720  0.151320  1.0
  O  O2149  1  0.197300  0.450900  0.308800  1.0
  O  O2150  1  0.888500  0.697300  0.746400  1.0
  O  O2151  1  0.142100  0.388500  0.191200  1.0
  O  O2152  1  0.950900  0.642100  0.753600  1.0
  O  O2153  1  0.802700  0.549100  0.691200  1.0
  O  O2154  1  0.111500  0.302700  0.253600  1.0
  O  O2155  1  0.857900  0.611500  0.808800  1.0
  O  O2156  1  0.049100  0.357900  0.246400  1.0
  O  O2157  1  0.220100  0.626500  0.380000  1.0
  O  O2158  1  0.840100  0.720100  0.593600  1.0
  O  O2159  1  0.246500  0.340100  0.120000  1.0
  O  O2160  1  0.126500  0.746500  0.906400  1.0
  O  O2161  1  0.779900  0.373500  0.620000  1.0
  O  O2162  1  0.159900  0.279900  0.406400  1.0
  O  O2163  1  0.753500  0.659900  0.880000  1.0
  O  O2164  1  0.873500  0.253500  0.093600  1.0
  O  O2165  1  0.136870  0.623120  0.139430  1.0
  O  O2166  1  0.997440  0.636870  0.513750  1.0
  O  O2167  1  0.483690  0.497440  0.360570  1.0
  O  O2168  1  0.123120  0.983690  0.986250  1.0
  O  O2169  1  0.863130  0.376880  0.860570  1.0
  O  O2170  1  0.002560  0.363130  0.486250  1.0
  O  O2171  1  0.516310  0.502560  0.639430  1.0
  O  O2172  1  0.876880  0.016310  0.013750  1.0
  O  O2173  1  0.146870  0.528450  0.045500  1.0
  O  O2174  1  0.101370  0.646870  0.618420  1.0
  O  O2175  1  0.482950  0.601370  0.454500  1.0
  O  O2176  1  0.028450  0.982950  0.881580  1.0
  O  O2177  1  0.853130  0.471550  0.954500  1.0
  O  O2178  1  0.898630  0.353130  0.381580  1.0
  O  O2179  1  0.517050  0.398630  0.545500  1.0
  O  O2180  1  0.971550  0.017050  0.118420  1.0
  O  O2181  1  0.124400  0.410620  0.056820  1.0
  O  O2182  1  0.067580  0.624400  0.713780  1.0
  O  O2183  1  0.353800  0.567580  0.443180  1.0
  O  O2184  1  0.910620  0.853800  0.786220  1.0
  O  O2185  1  0.875600  0.589380  0.943180  1.0
  O  O2186  1  0.932420  0.375600  0.286220  1.0
  O  O2187  1  0.646200  0.432420  0.556820  1.0
  O  O2188  1  0.089380  0.146200  0.213780  1.0
  O  O2189  1  0.117170  0.557240  0.218470  1.0
  O  O2190  1  0.898700  0.617170  0.559930  1.0
  O  O2191  1  0.338770  0.398700  0.281530  1.0
  O  O2192  1  0.057240  0.838770  0.940070  1.0
  O  O2193  1  0.882830  0.442760  0.781530  1.0
  O  O2194  1  0.101300  0.382830  0.440070  1.0
  O  O2195  1  0.661230  0.601300  0.718470  1.0
  O  O2196  1  0.942760  0.161230  0.059930  1.0
  O  O2197  1  0.189520  0.691850  0.240170  1.0
  O  O2198  1  0.949350  0.689520  0.497670  1.0
  O  O2199  1  0.451680  0.449350  0.259830  1.0
  O  O2200  1  0.191850  0.951680  0.002330  1.0
  O  O2201  1  0.810480  0.308150  0.759830  1.0
  O  O2202  1  0.050650  0.310480  0.502330  1.0
  O  O2203  1  0.548320  0.550650  0.740170  1.0
  O  O2204  1  0.808150  0.048320  0.997670  1.0
  O  O2205  1  0.317700  0.810700  0.304000  1.0
  O  O2206  1  0.013700  0.817700  0.507000  1.0
  O  O2207  1  0.506700  0.513700  0.196000  1.0
  O  O2208  1  0.310700  0.006700  0.993000  1.0
  O  O2209  1  0.682300  0.189300  0.696000  1.0
  O  O2210  1  0.986300  0.182300  0.493000  1.0
  O  O2211  1  0.493300  0.486300  0.804000  1.0
  O  O2212  1  0.689300  0.993300  0.007000  1.0
  O  O2213  1  0.201390  0.700450  0.135840  1.0
  O  O2214  1  0.065550  0.701390  0.500940  1.0
  O  O2215  1  0.564610  0.565550  0.364160  1.0
  O  O2216  1  0.200450  0.064610  0.999060  1.0
  O  O2217  1  0.798610  0.299550  0.864160  1.0
  O  O2218  1  0.934450  0.298610  0.499060  1.0
  O  O2219  1  0.435390  0.434450  0.635840  1.0
  O  O2220  1  0.799550  0.935390  0.000940  1.0
  O  O2221  1  0.170410  0.569330  0.171100  1.0
  O  O2222  1  0.999310  0.670410  0.601080  1.0
  O  O2223  1  0.398230  0.499310  0.328900  1.0
  O  O2224  1  0.069330  0.898230  0.898920  1.0
  O  O2225  1  0.829590  0.430670  0.828900  1.0
  O  O2226  1  0.000690  0.329590  0.398920  1.0
  O  O2227  1  0.601770  0.500690  0.671100  1.0
  O  O2228  1  0.930670  0.101770  0.101080  1.0
  O  O2229  1  0.473100  0.805830  0.303710  1.0
  O  O2230  1  0.169390  0.973100  0.667270  1.0
  O  O2231  1  0.502120  0.669390  0.196290  1.0
  O  O2232  1  0.305830  0.002120  0.832730  1.0
  O  O2233  1  0.526900  0.194170  0.696290  1.0
  O  O2234  1  0.830610  0.026900  0.332730  1.0
  O  O2235  1  0.497880  0.330610  0.803710  1.0
  O  O2236  1  0.694170  0.997880  0.167270  1.0
  O  O2237  1  0.412630  0.802990  0.318940  1.0
  O  O2238  1  0.093690  0.912630  0.609640  1.0
  O  O2239  1  0.484050  0.593690  0.181060  1.0
  O  O2240  1  0.302990  0.984050  0.890360  1.0
  O  O2241  1  0.587370  0.197010  0.681060  1.0
  O  O2242  1  0.906310  0.087370  0.390360  1.0
  O  O2243  1  0.515950  0.406310  0.818940  1.0
  O  O2244  1  0.697010  0.015950  0.109640  1.0
  O  O2245  1  0.224680  0.617760  0.132280  1.0
  O  O2246  1  0.092400  0.724680  0.606920  1.0
  O  O2247  1  0.485480  0.592400  0.367720  1.0
  O  O2248  1  0.117760  0.985480  0.893080  1.0
  O  O2249  1  0.775320  0.382240  0.867720  1.0
  O  O2250  1  0.907600  0.275320  0.393080  1.0
  O  O2251  1  0.514520  0.407600  0.632280  1.0
  O  O2252  1  0.882240  0.014520  0.106920  1.0
  O  O2253  1  0.242980  0.667180  0.205060  1.0
  O  O2254  1  0.037920  0.742980  0.575800  1.0
  O  O2255  1  0.462120  0.537920  0.294940  1.0
  O  O2256  1  0.167180  0.962120  0.924200  1.0
  O  O2257  1  0.757020  0.332820  0.794940  1.0
  O  O2258  1  0.962080  0.257020  0.424200  1.0
  O  O2259  1  0.537880  0.462080  0.705060  1.0
  O  O2260  1  0.832820  0.037880  0.075800  1.0
  O  O2261  1  0.355830  0.624250  0.097520  1.0
  O  O2262  1  0.258310  0.855830  0.731580  1.0
  O  O2263  1  0.526730  0.758310  0.402480  1.0
  O  O2264  1  0.124250  0.026730  0.768420  1.0
  O  O2265  1  0.644170  0.375750  0.902480  1.0
  O  O2266  1  0.741690  0.144170  0.268420  1.0
  O  O2267  1  0.473270  0.241690  0.597520  1.0
  O  O2268  1  0.875750  0.973270  0.231580  1.0
  O  O2269  1  0.432960  0.687790  0.147930  1.0
  O  O2270  1  0.285030  0.932960  0.745170  1.0
  O  O2271  1  0.539860  0.785030  0.352070  1.0
  O  O2272  1  0.187790  0.039860  0.754830  1.0
  O  O2273  1  0.567040  0.312210  0.852070  1.0
  O  O2274  1  0.714970  0.067040  0.254830  1.0
  O  O2275  1  0.460140  0.214970  0.647930  1.0
  O  O2276  1  0.812210  0.960140  0.245170  1.0
