
#######################################################################
#
#                 Cambridge Crystallographic Data Centre
#                                CCDC 
#
#######################################################################
#
# If this CIF has been generated from an entry in the Cambridge 
# Structural Database, then it will include bibliographic, chemical, 
# crystal, experimental, refinement or atomic coordinate data resulting 
# from the CCDC's data processing and validation procedures.
#
#######################################################################

data_SODTIQ
_chemical_formula_moiety         'C204 H252 Mn12 N24 O76,H2 O1'
_chemical_name_systematic        
'tetrakis(\m~6~-benzene-1,3,5-tricarboxylato)-tetrakis(\m~3~-oxido)-dodecakis(\m~2~-2-((bis(2-hydroxyethyl)amino)methyl)-6-(N-hydroxyethanimidoyl)-4-methylphenolato)-dodeca-manganese unknown solvate monohydrate'
_symmetry_cell_setting           tetragonal
_symmetry_space_group_name_H-M   'I 41/a'
_symmetry_Int_Tables_number      88
_space_group_name_Hall           '-I 4ad'
loop_
_symmetry_equiv_pos_site_id
_symmetry_equiv_pos_as_xyz
1 x,y,z
2 3/4-y,1/4+x,1/4+z
3 1/2-x,-y,1/2+z
4 3/4+y,3/4-x,3/4+z
5 1/2+x,1/2+y,1/2+z
6 1/4-y,3/4+x,3/4+z
7 -x,1/2-y,z
8 1/4+y,1/4-x,1/4+z
9 -x,-y,-z
10 1/4+y,3/4-x,3/4-z
11 1/2+x,y,1/2-z
12 1/4-y,1/4+x,1/4-z
13 1/2-x,1/2-y,1/2-z
14 3/4+y,1/4-x,1/4-z
15 x,1/2+y,-z
16 3/4-y,3/4+x,3/4-z
_cell_length_a                   39.8049(17)
_cell_length_b                   39.8049(17)
_cell_length_c                   37.7169(16)
_cell_angle_alpha                90
_cell_angle_beta                 90
_cell_angle_gamma                90
_cell_volume                     59759.8
_exptl_crystal_colour            black
_exptl_crystal_description       column
_cell_formula_units_Z            8
loop_
_atom_site_label
_atom_site_type_symbol
_atom_site_fract_x
_atom_site_fract_y
_atom_site_fract_z
C1 C 0.3883(2) 0.12121(19) -0.0688(2)
H1 H 0.3811 0.1019 -0.0545
H2 H 0.3885 0.1149 -0.0939
H3 H 0.3727 0.1400 -0.0651
C2 C 0.42354(18) 0.13179(14) -0.05758(19)
C3 C 0.4509(2) 0.13310(16) -0.08354(19)
C4 C 0.4521(2) 0.11163(18) -0.1126(2)
H4 H 0.4339 0.0965 -0.1160
C5 C 0.4778(3) 0.1110(2) -0.1366(2)
C6 C 0.5043(3) 0.1331(2) -0.1312(2)
H5 H 0.5223 0.1331 -0.1477
C7 C 0.5058(2) 0.1553(2) -0.1028(2)
C8 C 0.4777(2) 0.15465(16) -0.0783(2)
C9 C 0.4762(3) 0.0852(3) -0.1664(2)
H6 H 0.4535 0.0848 -0.1763
H7 H 0.4819 0.0630 -0.1570
H8 H 0.4923 0.0913 -0.1850
C10 C 0.5317(2) 0.1818(2) -0.0996(2)
H9 H 0.5211 0.2042 -0.1013
H10 H 0.5482 0.1797 -0.1191
C11 C 0.5716(2) 0.2086(2) -0.0563(2)
H11 H 0.5856 0.2036 -0.0352
H12 H 0.5869 0.2128 -0.0766
C12 C 0.5505(3) 0.2396(2) -0.0494(3)
H13 H 0.5303 0.2328 -0.0358
H14 H 0.5636 0.2551 -0.0341
C13 C 0.5682(3) 0.1445(2) -0.0650(2)
H15 H 0.5859 0.1456 -0.0834
H16 H 0.5523 0.1265 -0.0720
C14 C 0.52974(19) 0.05598(16) -0.03975(18)
H17 H 0.5201 0.0739 -0.0544
H18 H 0.5197 0.0344 -0.0464
H19 H 0.5541 0.0551 -0.0435
C15 C 0.52271(16) 0.06283(14) -0.00207(18)
C16 C 0.53224(15) 0.03846(14) 0.02619(19)
C17 C 0.54027(16) 0.00512(14) 0.01590(19)
H20 H 0.5379 -0.0009 -0.0084
C18 C 0.55127(18) -0.01888(15) 0.0392(2)
C19 C 0.55512(17) -0.00990(15) 0.0744(2)
H21 H 0.5633 -0.0261 0.0907
C20 C 0.54741(17) 0.02200(15) 0.08637(19)
C21 C 0.53564(16) 0.04636(15) 0.06158(18)
C22 C 0.5611(2) -0.05345(16) 0.0275(2)
H22 H 0.5544 -0.0568 0.0028
H23 H 0.5499 -0.0701 0.0425
H24 H 0.5855 -0.0561 0.0297
C23 C 0.5525(2) 0.03203(16) 0.1239(2)
H25 H 0.5708 0.0488 0.1249
H26 H 0.5599 0.0121 0.1375
C24 C 0.52973(2) 0.05774(2) 0.17889(2)
H27 H 0.5107 0.0716 0.1873
H28 H 0.5309 0.0376 0.1943
C25 C 0.56147(2) 0.07752(2) 0.18370(2)
H29 H 0.5607 0.0898 0.2065
H30 H 0.5810 0.0621 0.1843
C26 C 0.4913(3) 0.0217(3) 0.1378(3)
H31 H 0.4876 0.0169 0.1123
H32 H 0.4970 0.0002 0.1496
C27 C 0.4589(3) 0.0350(3) 0.1536(4)
H33 H 0.4399 0.0201 0.1474
H34 H 0.4607 0.0361 0.1798
C28 C 0.40774(19) 0.02351(16) 0.0619(2)
H35 H 0.4063 0.0113 0.0394
H36 H 0.3913 0.0143 0.0786
H37 H 0.4304 0.0211 0.0717
C29 C 0.40046(17) 0.05960(16) 0.0556(2)
C30 C 0.36603(17) 0.07070(16) 0.0482(2)
C31 C 0.34240(19) 0.0478(2) 0.0339(3)
H38 H 0.3498 0.0260 0.0274
C32 C 0.3100(2) 0.0557(2) 0.0291(3)
C33 C 0.2985(2) 0.0872(2) 0.0361(3)
H39 H 0.2756 0.0926 0.0319
C34 C 0.32049(17) 0.11190(18) 0.0494(2)
C35 C 0.35491(16) 0.10310(16) 0.0554(2)
C36 C 0.2855(2) 0.0280(3) 0.0128(4)
H40 H 0.2982 0.0135 -0.0034
H41 H 0.2673 0.0391 -0.0003
H42 H 0.2760 0.0144 0.0319
C37 C 0.30826(18) 0.14574(18) 0.0604(2)
H43 H 0.3101 0.1479 0.0865
H44 H 0.2843 0.1480 0.0539
C38 C 0.3149(2) 0.2071(2) 0.0556(3)
H45 H 0.2913 0.2095 0.0476
H46 H 0.3281 0.2254 0.0446
C39 C 0.3162(3) 0.2112(3) 0.0975(4)
H47 H 0.3154 0.2354 0.1033
H48 H 0.2959 0.2006 0.1078
C40 C 0.3264(3) 0.1699(2) 0.0032(3)
H49 H 0.3367 0.1481 -0.0032
H50 H 0.3024 0.1688 -0.0038
C41 C 0.3427(3) 0.1965(3) -0.0175(3)
H51 H 0.3424 0.1901 -0.0429
H52 H 0.3298 0.2175 -0.0149
C42 C 0.46626(15) 0.13812(14) 0.11960(17)
C43 C 0.47299(14) 0.15906(14) 0.15229(16)
C44 C 0.50460(14) 0.15942(14) 0.16817(16)
H53 H 0.5221 0.1461 0.1585
C45 C 0.51067(13) 0.17842(13) 0.19705(16)
C46 C 0.48474(14) 0.19815(14) 0.21169(18)
H54 H 0.4889 0.2117 0.2320
C47 C 0.45305(14) 0.19764(14) 0.19618(17)
C48 C 0.44741(14) 0.17809(14) 0.16742(16)
H55 H 0.4255 0.1773 0.1574
C49 C 0.54511(14) 0.17891(14) 0.21435(17)
C50 C 0.42519(14) 0.21875(14) 0.21246(18)
C51 C 0.66637(18) 0.2680(2) 0.3255(2)
H56 H 0.6872 0.2551 0.3274
H57 H 0.6603 0.2770 0.3488
H58 H 0.6697 0.2867 0.3088
C52 C 0.63882(16) 0.24573(19) 0.3123(2)
C53 C 0.62258(18) 0.2214(2) 0.3365(2)
C54 C 0.6397(2) 0.2070(2) 0.3657(2)
H59 H 0.6625 0.2130 0.3695
C55 C 0.6254(3) 0.1849(3) 0.3886(2)
C56 C 0.5931(3) 0.1747(2) 0.3834(3)
H60 H 0.5834 0.1585 0.3989
C57 C 0.5739(2) 0.1882(2) 0.3550(2)
C58 C 0.58982(19) 0.21024(19) 0.3316(2)
C59 C 0.6462(3) 0.1710(4) 0.4209(3)
H61 H 0.6698 0.1775 0.4182
H62 H 0.6444 0.1465 0.4216
H63 H 0.6373 0.1805 0.4430
C60 C 0.5371(2) 0.1808(2) 0.3500(2)
H64 H 0.5300 0.1644 0.3683
H65 H 0.5242 0.2017 0.3538
C61 C 0.4920(2) 0.1690(3) 0.3088(3)
H66 H 0.4798 0.1593 0.3293
H67 H 0.4867 0.1551 0.2877
C62 C 0.4795(3) 0.2053(3) 0.3024(3)
H68 H 0.4973 0.2183 0.2903
H69 H 0.4595 0.2048 0.2868
C63 C 0.5455(3) 0.1296(3) 0.3142(4)
H70 H 0.5680 0.1304 0.3253
H71 H 0.5314 0.1145 0.3287
C64 C 0.5491(4) 0.1147(4) 0.2787(4)
H72 H 0.5628 0.0940 0.2797
H73 H 0.5599 0.1307 0.2621
C65 C 0.73946(15) 0.20285(16) 0.1931(2)
H74 H 0.7291 0.1810 0.1884
H75 H 0.7528 0.2015 0.2149
H76 H 0.7540 0.2091 0.1732
C66 C 0.71287(15) 0.22855(16) 0.19742(18)
C67 C 0.72258(14) 0.26463(16) 0.20218(17)
C68 C 0.75575(15) 0.27287(17) 0.21093(18)
H77 H 0.7709 0.2552 0.2165
C69 C 0.76726(15) 0.30536(17) 0.21180(19)
C70 C 0.74539(15) 0.33140(17) 0.2038(2)
H78 H 0.7532 0.3540 0.2040
C71 C 0.71207(15) 0.32456(17) 0.1954(2)
C72 C 0.70014(14) 0.29086(15) 0.19439(18)
C73 C 0.80295(16) 0.31377(19) 0.2215(2)
H79 H 0.8140 0.2937 0.2311
H80 H 0.8030 0.3316 0.2395
H81 H 0.8150 0.3215 0.2004
C74 C 0.68903(17) 0.35142(18) 0.1828(3)
H82 H 0.6827 0.3472 0.1578
H83 H 0.7005 0.3734 0.1840
C75 C 0.6342(3) 0.3812(3) 0.2004(3)
H84 H 0.6149 0.3806 0.2171
H85 H 0.6462 0.4028 0.2030
O1 O 0.6410(4) 0.3918(4) 0.1398(3)
H86 H 0.6327 0.3866 0.1200
C76 C 0.6651(2) 0.3514(3) 0.2481(3)
H87 H 0.6774 0.3304 0.2535
H88 H 0.6801 0.3704 0.2538
C77 C 0.6357(3) 0.3531(3) 0.2709(3)
H89 H 0.6424 0.3501 0.2960
H90 H 0.6247 0.3753 0.2685
C78 C 0.64227(19) 0.11504(18) 0.2946(2)
H91 H 0.6324 0.1331 0.3088
H92 H 0.6655 0.1112 0.3022
H93 H 0.6292 0.0944 0.2979
C79 C 0.64186(14) 0.12465(16) 0.25680(18)
C80 C 0.65665(18) 0.10292(18) 0.2296(2)
C81 C 0.6765(3) 0.0759(2) 0.2418(3)
H94 H 0.6789 0.0727 0.2666
C82 C 0.6927(3) 0.0536(3) 0.2188(3)
C83 C 0.6841(3) 0.0563(3) 0.1836(3)
H95 H 0.6929 0.0400 0.1676
C84 C 0.6637(2) 0.08093(19) 0.1699(2)
C85 C 0.65049(16) 0.10554(16) 0.1942(2)
C86 C 0.7174(4) 0.0294(4) 0.2328(4)
H96 H 0.7392 0.0333 0.2215
H97 H 0.7099 0.0065 0.2276
H98 H 0.7196 0.0323 0.2585
C87 C 0.6550(2) 0.08298(19) 0.1323(2)
H99 H 0.6307 0.0781 0.1297
H100 H 0.6674 0.0653 0.1194
C88 C 0.6526(3) 0.1172(3) 0.0764(3)
H101 H 0.6639 0.1370 0.0659
H102 H 0.6618 0.0970 0.0646
C89 C 0.6154(3) 0.1194(4) 0.0675(4)
H103 H 0.6085 0.1433 0.0689
H104 H 0.6123 0.1120 0.0427
C90 C 0.6979(2) 0.1244(3) 0.1206(3)
H105 H 0.7122 0.1080 0.1080
H106 H 0.7035 0.1235 0.1461
C91 C 0.7051(3) 0.1610(3) 0.1059(4)
H107 H 0.7274 0.1686 0.1140
H108 H 0.7053 0.1605 0.0796
C92 C 0.57183(15) 0.19587(14) 0.08606(16)
H109 H 0.5715 0.1742 0.0965
C93 C 0.55254(14) 0.20184(13) 0.05632(17)
C94 C 0.55184(14) 0.23416(13) 0.04181(16)
H110 H 0.5380 0.2386 0.0218
C95 C 0.57140(14) 0.26015(14) 0.05643(17)
C96 C 0.59087(14) 0.25280(14) 0.08713(17)
H111 H 0.6035 0.2701 0.0982
C97 C 0.59147(14) 0.22053(13) 0.10091(16)
C98 C 0.53303(15) 0.17422(14) 0.03898(17)
C99 C 0.61189(15) 0.21387(14) 0.13382(16)
C100 C 0.56960(15) 0.29404(14) 0.04236(17)
Mn1 Mn 0.47353(2) 0.15701(2) -0.00509(3)
Mn2 Mn 0.49646(2) 0.10666(2) 0.05684(3)
Mn3 Mn 0.41951(2) 0.13308(2) 0.05331(3)
Mn4 Mn 0.59132(2) 0.21836(2) 0.25893(3)
Mn5 Mn 0.64079(2) 0.25071(2) 0.20079(3)
Mn6 Mn 0.62207(2) 0.17179(2) 0.19717(3)
N1 N 0.42917(15) 0.13864(12) -0.02514(15)
N2 N 0.54921(18) 0.17833(16) -0.06451(18)
N3 N 0.50887(13) 0.09128(12) 0.00744(14)
N4 N 0.52228(19) 0.04640(16) 0.14151(18)
N5 N 0.42444(13) 0.08242(12) 0.05762(16)
N6 N 0.32821(17) 0.17399(16) 0.0429(2)
N7 N 0.63074(13) 0.24502(13) 0.27950(15)
N8 N 0.52924(18) 0.16763(18) 0.31576(19)
N9 N 0.68106(12) 0.22050(12) 0.19672(15)
N10 N 0.65708(16) 0.35222(18) 0.2062(3)
N11 N 0.62626(12) 0.15275(12) 0.24715(14)
N12 N 0.66210(19) 0.11552(18) 0.1156(2)
O2 O 0.46468(9) 0.13658(9) 0.03836(11)
O3 O 0.40376(11) 0.13664(11) -0.00121(13)
O4 O 0.48100(11) 0.17595(10) -0.05075(11)
O5 O 0.5401(2) 0.25719(17) -0.07873(19)
H112 H 0.5280 0.2734 -0.0724
O6 O 0.6142(2) 0.1523(2) -0.0229(3)
H113 H 0.6227 0.1457 -0.0038
O7 O 0.50313(11) 0.11417(10) -0.01822(12)
O8 O 0.52851(10) 0.07657(9) 0.07523(12)
O9 O 0.5650(2) 0.1001(2) 0.1560(3)
H114 H 0.5828 0.1112 0.1587
O10 O 0.45362(17) 0.06742(18) 0.13955(19)
H115 H 0.4514 0.0661 0.1174
O11 O 0.45596(11) 0.07157(10) 0.06649(13)
O12 O 0.37435(10) 0.12824(10) 0.06758(12)
O13 O 0.3430(2) 0.1979(2) 0.1128(2)
H116 H 0.3422 0.2015 0.1348
O14 O 0.3730(2) 0.2017(2) -0.0080(2)
H117 H 0.3843 0.1841 -0.0107
O15 O 0.49223(10) 0.12490(10) 0.10551(11)
O16 O 0.43663(10) 0.13600(10) 0.10846(11)
O17 O 0.56741(9) 0.16105(9) 0.20123(11)
O18 O 0.54814(9) 0.19775(10) 0.24137(11)
O19 O 0.43080(9) 0.23443(10) 0.24016(12)
O20 O 0.39768(9) 0.21815(9) 0.19552(12)
O21 O 0.64611(10) 0.26558(11) 0.25640(13)
O22 O 0.57052(11) 0.22184(10) 0.30424(12)
O23 O 0.4724(3) 0.2188(2) 0.3303(2)
H118 H 0.4659 0.2385 0.3264
O24 O 0.5132(5) 0.1068(5) 0.2667(5)
H119 H 0.5136 0.0995 0.2458
O25 O 0.67341(9) 0.18716(10) 0.18972(13)
O26 O 0.66804(10) 0.28646(10) 0.18509(12)
C101 C 0.6239(3) 0.3760(4) 0.1657(4)
H120 H 0.6248 0.3515 0.1610
H121 H 0.6000 0.3829 0.1640
O27 O 0.61470(18) 0.32848(15) 0.2609(2)
H122 H 0.6238 0.3097 0.2644
O28 O 0.61080(10) 0.17073(10) 0.27203(12)
O29 O 0.63108(10) 0.12875(9) 0.17940(12)
O30 O 0.5945(3) 0.1015(3) 0.0878(3)
H123 H 0.5786 0.0942 0.0754
O31 O 0.68161(17) 0.18255(18) 0.1170(2)
H124 H 0.6818 0.1833 0.1393
O32 O 0.61391(9) 0.21499(9) 0.21568(11)
O33 O 0.51451(10) 0.18178(9) 0.01239(11)
O34 O 0.53571(10) 0.14535(9) 0.05166(11)
O35 O 0.63040(10) 0.23732(10) 0.14492(11)
O36 O 0.60957(10) 0.18537(9) 0.14745(11)
O37 O 0.58545(10) 0.31703(9) 0.05872(12)
O38 O 0.55345(10) 0.29862(9) 0.01359(11)
C102 C 0.5847(3) 0.1347(3) -0.0294(3)
H125 H 0.5686 0.1391 -0.0099
H126 H 0.5896 0.1103 -0.0295
C1F C 0.6117(2) 0.37879(19) -0.0688(2)
H1F H 0.6189 0.3981 -0.0545
H2F H 0.6115 0.3851 -0.0939
H3F H 0.6273 0.3600 -0.0651
C2F C 0.57646(18) 0.36821(14) -0.05758(19)
C3F C 0.5491(2) 0.36690(16) -0.08354(19)
C4F C 0.5479(2) 0.38837(18) -0.1126(2)
H4F H 0.5661 0.4035 -0.1160
C5F C 0.5222(3) 0.3890(2) -0.1366(2)
C6F C 0.4957(3) 0.3669(2) -0.1312(2)
H5F H 0.4777 0.3669 -0.1477
C7F C 0.4942(2) 0.3447(2) -0.1028(2)
C8F C 0.5223(2) 0.34535(16) -0.0783(2)
C9F C 0.5238(3) 0.4148(3) -0.1664(2)
H6F H 0.5465 0.4152 -0.1763
H7F H 0.5181 0.4370 -0.1570
H8F H 0.5077 0.4087 -0.1850
C10F C 0.4683(2) 0.3182(2) -0.0996(2)
H9F H 0.4789 0.2958 -0.1013
H10F H 0.4518 0.3203 -0.1191
C11F C 0.4284(2) 0.2914(2) -0.0563(2)
H11F H 0.4144 0.2964 -0.0352
H12F H 0.4131 0.2872 -0.0766
C12F C 0.4495(3) 0.2604(2) -0.0494(3)
H13F H 0.4697 0.2672 -0.0358
H14F H 0.4364 0.2449 -0.0341
C13F C 0.4318(3) 0.3555(2) -0.0650(2)
H15F H 0.4141 0.3544 -0.0834
H16F H 0.4477 0.3735 -0.0720
C14F C 0.47026(19) 0.44402(16) -0.03975(18)
H17F H 0.4799 0.4261 -0.0544
H18F H 0.4803 0.4656 -0.0464
H19F H 0.4459 0.4449 -0.0435
C15F C 0.47729(16) 0.43717(14) -0.00207(18)
C16F C 0.46776(15) 0.46154(14) 0.02619(19)
C17F C 0.45973(16) 0.49488(14) 0.01590(19)
H20F H 0.4621 0.5009 -0.0084
C18F C 0.44873(18) 0.51888(15) 0.0392(2)
C19F C 0.44488(17) 0.50990(15) 0.0744(2)
H21F H 0.4367 0.5261 0.0907
C20F C 0.45259(17) 0.47800(15) 0.08637(19)
C21F C 0.46436(16) 0.45364(15) 0.06158(18)
C22F C 0.4389(2) 0.55345(16) 0.0275(2)
H22F H 0.4456 0.5568 0.0028
H23F H 0.4501 0.5701 0.0425
H24F H 0.4145 0.5561 0.0297
C23F C 0.4475(2) 0.46797(16) 0.1239(2)
H25F H 0.4292 0.4512 0.1249
H26F H 0.4401 0.4879 0.1375
C24F C 0.47027(2) 0.44226(2) 0.17889(2)
H27F H 0.4893 0.4284 0.1873
H28F H 0.4691 0.4624 0.1943
C25F C 0.43853(2) 0.42248(2) 0.18370(2)
H29F H 0.4393 0.4102 0.2065
H30F H 0.4190 0.4379 0.1843
C26F C 0.5087(3) 0.4783(3) 0.1378(3)
H31F H 0.5124 0.4831 0.1123
H32F H 0.5030 0.4998 0.1496
C27F C 0.5411(3) 0.4650(3) 0.1536(4)
H33F H 0.5601 0.4799 0.1474
H34F H 0.5393 0.4639 0.1798
C28F C 0.59226(19) 0.47649(16) 0.0619(2)
H35F H 0.5937 0.4887 0.0394
H36F H 0.6087 0.4857 0.0786
H37F H 0.5696 0.4789 0.0717
C29F C 0.59954(17) 0.44040(16) 0.0556(2)
C30F C 0.63397(17) 0.42930(16) 0.0482(2)
C31F C 0.65760(19) 0.4522(2) 0.0339(3)
H38F H 0.6502 0.4740 0.0274
C32F C 0.6900(2) 0.4443(2) 0.0291(3)
C33F C 0.7015(2) 0.4128(2) 0.0361(3)
H39F H 0.7244 0.4074 0.0319
C34F C 0.67951(17) 0.38810(18) 0.0494(2)
C35F C 0.64509(16) 0.39690(16) 0.0554(2)
C36F C 0.7145(2) 0.4720(3) 0.0128(4)
H40F H 0.7018 0.4865 -0.0034
H41F H 0.7327 0.4609 -0.0003
H42F H 0.7240 0.4856 0.0319
C37F C 0.69174(18) 0.35426(18) 0.0604(2)
H43F H 0.6899 0.3521 0.0865
H44F H 0.7157 0.3520 0.0539
C38F C 0.6851(2) 0.2929(2) 0.0556(3)
H45F H 0.7087 0.2905 0.0476
H46F H 0.6719 0.2746 0.0446
C39F C 0.6838(3) 0.2888(3) 0.0975(4)
H47F H 0.6846 0.2646 0.1033
H48F H 0.7041 0.2994 0.1078
C40F C 0.6736(3) 0.3301(2) 0.0032(3)
H49F H 0.6633 0.3519 -0.0032
H50F H 0.6976 0.3312 -0.0038
C41F C 0.6573(3) 0.3035(3) -0.0175(3)
H51F H 0.6576 0.3099 -0.0429
H52F H 0.6702 0.2825 -0.0149
C42F C 0.53374(15) 0.36188(14) 0.11960(17)
C43F C 0.52701(14) 0.34094(14) 0.15229(16)
C44F C 0.49540(14) 0.34058(14) 0.16817(16)
H53F H 0.4779 0.3539 0.1585
C45F C 0.48933(13) 0.32158(13) 0.19705(16)
C46F C 0.51526(14) 0.30185(14) 0.21169(18)
H54F H 0.5111 0.2883 0.2320
C47F C 0.54695(14) 0.30236(14) 0.19618(17)
C48F C 0.55259(14) 0.32191(14) 0.16742(16)
H55F H 0.5745 0.3227 0.1574
C49F C 0.45489(14) 0.32109(14) 0.21435(17)
C50F C 0.57481(14) 0.28125(14) 0.21246(18)
C51F C 0.33363(18) 0.2320(2) 0.3255(2)
H56F H 0.3128 0.2449 0.3274
H57F H 0.3397 0.2230 0.3488
H58F H 0.3303 0.2133 0.3088
C52F C 0.36118(16) 0.25427(19) 0.3123(2)
C53F C 0.37742(18) 0.2786(2) 0.3365(2)
C54F C 0.3603(2) 0.2930(2) 0.3657(2)
H59F H 0.3375 0.2870 0.3695
C55F C 0.3746(3) 0.3151(3) 0.3886(2)
C56F C 0.4069(3) 0.3253(2) 0.3834(3)
H60F H 0.4166 0.3415 0.3989
C57F C 0.4261(2) 0.3118(2) 0.3550(2)
C58F C 0.41018(19) 0.28976(19) 0.3316(2)
C59F C 0.3538(3) 0.3290(4) 0.4209(3)
H61F H 0.3302 0.3225 0.4182
H62F H 0.3556 0.3535 0.4216
H63F H 0.3627 0.3195 0.4430
C60F C 0.4629(2) 0.3192(2) 0.3500(2)
H64F H 0.4700 0.3356 0.3683
H65F H 0.4758 0.2983 0.3538
C61F C 0.5080(2) 0.3310(3) 0.3088(3)
H66F H 0.5202 0.3407 0.3293
H67F H 0.5133 0.3449 0.2877
C62F C 0.5205(3) 0.2947(3) 0.3024(3)
H68F H 0.5027 0.2817 0.2903
H69F H 0.5405 0.2952 0.2868
C63F C 0.4545(3) 0.3704(3) 0.3142(4)
H70F H 0.4320 0.3696 0.3253
H71F H 0.4686 0.3855 0.3287
C64F C 0.4509(4) 0.3853(4) 0.2787(4)
H72F H 0.4372 0.4060 0.2797
H73F H 0.4401 0.3693 0.2621
C65F C 0.26054(15) 0.29715(16) 0.1931(2)
H74F H 0.2709 0.3190 0.1884
H75F H 0.2472 0.2985 0.2149
H76F H 0.2460 0.2909 0.1732
C66F C 0.28713(15) 0.27145(16) 0.19742(18)
C67F C 0.27742(14) 0.23537(16) 0.20218(17)
C68F C 0.24425(15) 0.22713(17) 0.21093(18)
H77F H 0.2291 0.2448 0.2165
C69F C 0.23274(15) 0.19464(17) 0.21180(19)
C70F C 0.25461(15) 0.16860(17) 0.2038(2)
H78F H 0.2468 0.1460 0.2040
C71F C 0.28793(15) 0.17544(17) 0.1954(2)
C72F C 0.29986(14) 0.20914(15) 0.19439(18)
C73F C 0.19705(16) 0.18623(19) 0.2215(2)
H79F H 0.1860 0.2063 0.2311
H80F H 0.1970 0.1684 0.2395
H81F H 0.1850 0.1785 0.2004
C74F C 0.31097(17) 0.14858(18) 0.1828(3)
H82F H 0.3173 0.1528 0.1578
H83F H 0.2995 0.1266 0.1840
C75F C 0.3658(3) 0.1188(3) 0.2004(3)
H84F H 0.3851 0.1194 0.2171
H85F H 0.3538 0.0972 0.2030
O1F O 0.3590(4) 0.1082(4) 0.1398(3)
H86F H 0.3673 0.1134 0.1200
C76F C 0.3349(2) 0.1486(3) 0.2481(3)
H87F H 0.3226 0.1696 0.2535
H88F H 0.3199 0.1296 0.2538
C77F C 0.3643(3) 0.1469(3) 0.2709(3)
H89F H 0.3576 0.1499 0.2960
H90F H 0.3753 0.1247 0.2685
C78F C 0.35773(19) 0.38496(18) 0.2946(2)
H91F H 0.3676 0.3669 0.3088
H92F H 0.3345 0.3888 0.3022
H93F H 0.3708 0.4056 0.2979
C79F C 0.35814(14) 0.37535(16) 0.25680(18)
C80F C 0.34335(18) 0.39708(18) 0.2296(2)
C81F C 0.3235(3) 0.4241(2) 0.2418(3)
H94F H 0.3211 0.4273 0.2666
C82F C 0.3073(3) 0.4464(3) 0.2188(3)
C83F C 0.3159(3) 0.4437(3) 0.1836(3)
H95F H 0.3071 0.4600 0.1676
C84F C 0.3363(2) 0.41907(19) 0.1699(2)
C85F C 0.34951(16) 0.39446(16) 0.1942(2)
C86F C 0.2826(4) 0.4706(4) 0.2328(4)
H96F H 0.2608 0.4667 0.2215
H97F H 0.2901 0.4935 0.2276
H98F H 0.2804 0.4677 0.2585
C87F C 0.3450(2) 0.41702(19) 0.1323(2)
H99F H 0.3693 0.4219 0.1297
H100F H 0.3326 0.4347 0.1194
C88F C 0.3474(3) 0.3828(3) 0.0764(3)
H101F H 0.3361 0.3630 0.0659
H102F H 0.3382 0.4030 0.0646
C89F C 0.3846(3) 0.3806(4) 0.0675(4)
H103F H 0.3915 0.3567 0.0689
H104F H 0.3877 0.3880 0.0427
C90F C 0.3021(2) 0.3756(3) 0.1206(3)
H105F H 0.2878 0.3920 0.1080
H106F H 0.2965 0.3765 0.1461
C91F C 0.2949(3) 0.3390(3) 0.1059(4)
H107F H 0.2726 0.3314 0.1140
H108F H 0.2947 0.3395 0.0796
C92F C 0.42817(15) 0.30413(14) 0.08606(16)
H109F H 0.4285 0.3258 0.0965
C93F C 0.44746(14) 0.29816(13) 0.05632(17)
C94F C 0.44816(14) 0.26584(13) 0.04181(16)
H110F H 0.4620 0.2614 0.0218
C95F C 0.42860(14) 0.23985(14) 0.05643(17)
C96F C 0.40913(14) 0.24720(14) 0.08713(17)
H111F H 0.3965 0.2299 0.0982
C97F C 0.40853(14) 0.27947(13) 0.10091(16)
C98F C 0.46697(15) 0.32578(14) 0.03898(17)
C99F C 0.38811(15) 0.28613(14) 0.13382(16)
C100F C 0.43040(15) 0.20596(14) 0.04236(17)
Mn1F Mn 0.52647(2) 0.34299(2) -0.00509(3)
Mn2F Mn 0.50354(2) 0.39334(2) 0.05684(3)
Mn3F Mn 0.58049(2) 0.36692(2) 0.05331(3)
Mn4F Mn 0.40868(2) 0.28164(2) 0.25893(3)
Mn5F Mn 0.35921(2) 0.24929(2) 0.20079(3)
Mn6F Mn 0.37793(2) 0.32821(2) 0.19717(3)
N1F N 0.57083(15) 0.36136(12) -0.02514(15)
N2F N 0.45079(18) 0.32167(16) -0.06451(18)
N3F N 0.49113(13) 0.40872(12) 0.00744(14)
N4F N 0.47772(19) 0.45360(16) 0.14151(18)
N5F N 0.57556(13) 0.41758(12) 0.05762(16)
N6F N 0.67179(17) 0.32601(16) 0.0429(2)
N7F N 0.36926(13) 0.25498(13) 0.27950(15)
N8F N 0.47076(18) 0.33237(18) 0.31576(19)
N9F N 0.31894(12) 0.27950(12) 0.19672(15)
N10F N 0.34292(16) 0.14778(18) 0.2062(3)
N11F N 0.37374(12) 0.34725(12) 0.24715(14)
N12F N 0.33790(19) 0.38448(18) 0.1156(2)
O2F O 0.53532(9) 0.36342(9) 0.03836(11)
O3F O 0.59624(11) 0.36336(11) -0.00121(13)
O4F O 0.51900(11) 0.32405(10) -0.05075(11)
O5F O 0.4599(2) 0.24281(17) -0.07873(19)
H112F H 0.4720 0.2266 -0.0724
O6F O 0.3858(2) 0.3477(2) -0.0229(3)
H113F H 0.3773 0.3543 -0.0038
O7F O 0.49687(11) 0.38583(10) -0.01822(12)
O8F O 0.47149(10) 0.42343(9) 0.07523(12)
O9F O 0.4350(2) 0.3999(2) 0.1560(3)
H114F H 0.4172 0.3888 0.1587
O10F O 0.54638(17) 0.43258(18) 0.13955(19)
H115F H 0.5486 0.4339 0.1174
O11F O 0.54404(11) 0.42843(10) 0.06649(13)
O12F O 0.62565(10) 0.37176(10) 0.06758(12)
O13F O 0.6570(2) 0.3021(2) 0.1128(2)
H116F H 0.6578 0.2985 0.1348
O14F O 0.6270(2) 0.2983(2) -0.0080(2)
H117F H 0.6157 0.3159 -0.0107
O15F O 0.50777(10) 0.37510(10) 0.10551(11)
O16F O 0.56337(10) 0.36400(10) 0.10846(11)
O17F O 0.43259(9) 0.33895(9) 0.20123(11)
O18F O 0.45186(9) 0.30225(10) 0.24137(11)
O19F O 0.56920(9) 0.26557(10) 0.24016(12)
O20F O 0.60232(9) 0.28185(9) 0.19552(12)
O21F O 0.35389(10) 0.23442(11) 0.25640(13)
O22F O 0.42948(11) 0.27816(10) 0.30424(12)
O23F O 0.5276(3) 0.2812(2) 0.3303(2)
H118F H 0.5341 0.2615 0.3264
O24F O 0.4868(5) 0.3932(5) 0.2667(5)
H119F H 0.4864 0.4005 0.2458
O25F O 0.32659(9) 0.31284(10) 0.18972(13)
O26F O 0.33196(10) 0.21354(10) 0.18509(12)
C101F C 0.3761(3) 0.1240(4) 0.1657(4)
H120F H 0.3752 0.1485 0.1610
H121F H 0.4000 0.1171 0.1640
O27F O 0.38530(18) 0.17152(15) 0.2609(2)
H122F H 0.3762 0.1903 0.2644
O28F O 0.38920(10) 0.32927(10) 0.27203(12)
O29F O 0.36892(10) 0.37125(9) 0.17940(12)
O30F O 0.4055(3) 0.3985(3) 0.0878(3)
H123F H 0.4214 0.4058 0.0754
O31F O 0.31839(17) 0.31745(18) 0.1170(2)
H124F H 0.3182 0.3167 0.1393
O32F O 0.38609(9) 0.28501(9) 0.21568(11)
O33F O 0.48549(10) 0.31822(9) 0.01239(11)
O34F O 0.46429(10) 0.35465(9) 0.05166(11)
O35F O 0.36960(10) 0.26268(10) 0.14492(11)
O36F O 0.39043(10) 0.31463(9) 0.14745(11)
O37F O 0.41455(10) 0.18297(9) 0.05872(12)
O38F O 0.44655(10) 0.20138(9) 0.01359(11)
C102F C 0.4153(3) 0.3653(3) -0.0294(3)
H125F H 0.4314 0.3609 -0.0099
H126F H 0.4104 0.3897 -0.0295
O39 O 0.5000 0.2500 0.1281(6)
loop_
_geom_bond_atom_site_label_1
_geom_bond_atom_site_label_2
_geom_bond_site_symmetry_1
_geom_bond_site_symmetry_2
C1 H1 1_555 1_555
H2 C1 1_555 1_555
H3 C1 1_555 1_555
C2 C1 1_555 1_555
C3 C2 1_555 1_555
C4 C3 1_555 1_555
H4 C4 1_555 1_555
C5 C4 1_555 1_555
C6 C5 1_555 1_555
H5 C6 1_555 1_555
C7 C6 1_555 1_555
C8 C3 1_555 1_555
C9 C5 1_555 1_555
H6 C9 1_555 1_555
H7 C9 1_555 1_555
H8 C9 1_555 1_555
C10 C7 1_555 1_555
H9 C10 1_555 1_555
H10 C10 1_555 1_555
C11 H11 1_555 1_555
H12 C11 1_555 1_555
C12 C11 1_555 1_555
H13 C12 1_555 1_555
H14 C12 1_555 1_555
C13 H15 1_555 1_555
H16 C13 1_555 1_555
C14 H17 1_555 1_555
H18 C14 1_555 1_555
H19 C14 1_555 1_555
C15 C14 1_555 1_555
C16 C15 1_555 1_555
C17 C16 1_555 1_555
H20 C17 1_555 1_555
C18 C17 1_555 1_555
C19 C18 1_555 1_555
H21 C19 1_555 1_555
C20 C19 1_555 1_555
C21 C16 1_555 1_555
C22 C18 1_555 1_555
H22 C22 1_555 1_555
H23 C22 1_555 1_555
H24 C22 1_555 1_555
C23 C20 1_555 1_555
H25 C23 1_555 1_555
H26 C23 1_555 1_555
C24 H27 1_555 1_555
H28 C24 1_555 1_555
C25 C24 1_555 1_555
H29 C25 1_555 1_555
H30 C25 1_555 1_555
C26 H31 1_555 1_555
H32 C26 1_555 1_555
C27 C26 1_555 1_555
H33 C27 1_555 1_555
H34 C27 1_555 1_555
C28 H35 1_555 1_555
H36 C28 1_555 1_555
H37 C28 1_555 1_555
C29 C28 1_555 1_555
C30 C29 1_555 1_555
C31 C30 1_555 1_555
H38 C31 1_555 1_555
C32 C31 1_555 1_555
C33 C32 1_555 1_555
H39 C33 1_555 1_555
C34 C33 1_555 1_555
C35 C30 1_555 1_555
C36 C32 1_555 1_555
H40 C36 1_555 1_555
H41 C36 1_555 1_555
H42 C36 1_555 1_555
C37 C34 1_555 1_555
H43 C37 1_555 1_555
H44 C37 1_555 1_555
C38 H45 1_555 1_555
H46 C38 1_555 1_555
C39 C38 1_555 1_555
H47 C39 1_555 1_555
H48 C39 1_555 1_555
C40 H49 1_555 1_555
H50 C40 1_555 1_555
C41 C40 1_555 1_555
H51 C41 1_555 1_555
H52 C41 1_555 1_555
C42 C43 1_555 1_555
C43 C44 1_555 1_555
C44 H53 1_555 1_555
C45 C44 1_555 1_555
C46 C45 1_555 1_555
H54 C46 1_555 1_555
C47 C46 1_555 1_555
C48 C43 1_555 1_555
H55 C48 1_555 1_555
C49 C45 1_555 1_555
C50 C47 1_555 1_555
C51 H56 1_555 1_555
H57 C51 1_555 1_555
H58 C51 1_555 1_555
C52 C51 1_555 1_555
C53 C52 1_555 1_555
C54 C53 1_555 1_555
H59 C54 1_555 1_555
C55 C54 1_555 1_555
C56 C55 1_555 1_555
H60 C56 1_555 1_555
C57 C56 1_555 1_555
C58 C53 1_555 1_555
C59 C55 1_555 1_555
H61 C59 1_555 1_555
H62 C59 1_555 1_555
H63 C59 1_555 1_555
C60 C57 1_555 1_555
H64 C60 1_555 1_555
H65 C60 1_555 1_555
C61 H66 1_555 1_555
H67 C61 1_555 1_555
C62 C61 1_555 1_555
H68 C62 1_555 1_555
H69 C62 1_555 1_555
C63 H70 1_555 1_555
H71 C63 1_555 1_555
C64 C63 1_555 1_555
H72 C64 1_555 1_555
H73 C64 1_555 1_555
C65 H74 1_555 1_555
H75 C65 1_555 1_555
H76 C65 1_555 1_555
C66 C65 1_555 1_555
C67 C66 1_555 1_555
C68 C67 1_555 1_555
H77 C68 1_555 1_555
C69 C68 1_555 1_555
C70 C69 1_555 1_555
H78 C70 1_555 1_555
C71 C70 1_555 1_555
C72 C67 1_555 1_555
C73 C69 1_555 1_555
H79 C73 1_555 1_555
H80 C73 1_555 1_555
H81 C73 1_555 1_555
C74 C71 1_555 1_555
H82 C74 1_555 1_555
H83 C74 1_555 1_555
C75 H84 1_555 1_555
H85 C75 1_555 1_555
O1 H86 1_555 1_555
C76 H87 1_555 1_555
H88 C76 1_555 1_555
C77 C76 1_555 1_555
H89 C77 1_555 1_555
H90 C77 1_555 1_555
C78 H91 1_555 1_555
H92 C78 1_555 1_555
H93 C78 1_555 1_555
C79 C78 1_555 1_555
C80 C79 1_555 1_555
C81 C80 1_555 1_555
H94 C81 1_555 1_555
C82 C81 1_555 1_555
C83 C82 1_555 1_555
H95 C83 1_555 1_555
C84 C83 1_555 1_555
C85 C80 1_555 1_555
C86 C82 1_555 1_555
H96 C86 1_555 1_555
H97 C86 1_555 1_555
H98 C86 1_555 1_555
C87 C84 1_555 1_555
H99 C87 1_555 1_555
H100 C87 1_555 1_555
C88 H101 1_555 1_555
H102 C88 1_555 1_555
C89 C88 1_555 1_555
H103 C89 1_555 1_555
H104 C89 1_555 1_555
C90 H105 1_555 1_555
H106 C90 1_555 1_555
C91 C90 1_555 1_555
H107 C91 1_555 1_555
H108 C91 1_555 1_555
C92 H109 1_555 1_555
C93 C92 1_555 1_555
C94 C93 1_555 1_555
H110 C94 1_555 1_555
C95 C94 1_555 1_555
C96 C95 1_555 1_555
H111 C96 1_555 1_555
C97 C92 1_555 1_555
C98 C93 1_555 1_555
C99 C97 1_555 1_555
C100 C95 1_555 1_555
Mn1 N1 1_555 1_555
Mn2 N3 1_555 1_555
Mn3 N5 1_555 1_555
Mn4 N7 1_555 1_555
Mn5 N9 1_555 1_555
Mn6 N11 1_555 1_555
N1 C2 1_555 1_555
N2 C10 1_555 1_555
N3 C15 1_555 1_555
N4 C23 1_555 1_555
N5 C29 1_555 1_555
N6 C37 1_555 1_555
N7 C52 1_555 1_555
N8 C60 1_555 1_555
N9 C66 1_555 1_555
N10 C74 1_555 1_555
N11 C79 1_555 1_555
N12 C87 1_555 1_555
O2 Mn1 1_555 1_555
O3 Mn3 1_555 1_555
O4 C8 1_555 1_555
O5 C12 1_555 1_555
H112 O5 1_555 1_555
O6 H113 1_555 1_555
O7 Mn1 1_555 1_555
O8 C21 1_555 1_555
O9 C25 1_555 1_555
H114 O9 1_555 1_555
O10 C27 1_555 1_555
H115 O10 1_555 1_555
O11 Mn2 1_555 1_555
O12 C35 1_555 1_555
O13 C39 1_555 1_555
H116 O13 1_555 1_555
O14 C41 1_555 1_555
H117 O14 1_555 1_555
O15 C42 1_555 1_555
O16 C42 1_555 1_555
O17 C49 1_555 1_555
O18 C49 1_555 1_555
O19 C50 1_555 1_555
O20 C50 1_555 1_555
O21 Mn5 1_555 1_555
O22 C58 1_555 1_555
O23 C62 1_555 1_555
H118 O23 1_555 1_555
O24 C64 1_555 1_555
H119 O24 1_555 1_555
O25 Mn6 1_555 1_555
O26 C72 1_555 1_555
C101 C75 1_555 1_555
H120 C101 1_555 1_555
H121 C101 1_555 1_555
O27 C77 1_555 1_555
H122 O27 1_555 1_555
O28 Mn4 1_555 1_555
O29 C85 1_555 1_555
O30 C89 1_555 1_555
H123 O30 1_555 1_555
O31 C91 1_555 1_555
H124 O31 1_555 1_555
O32 Mn4 1_555 1_555
O33 C98 1_555 1_555
O34 C98 1_555 1_555
O35 C99 1_555 1_555
O36 C99 1_555 1_555
O37 C100 1_555 1_555
O38 C100 1_555 1_555
C102 C13 1_555 1_555
H125 C102 1_555 1_555
H126 C102 1_555 1_555
C1F H1F 1_555 1_555
H2F C1F 1_555 1_555
H3F C1F 1_555 1_555
C2F C1F 1_555 1_555
C3F C2F 1_555 1_555
C4F C3F 1_555 1_555
H4F C4F 1_555 1_555
C5F C4F 1_555 1_555
C6F C5F 1_555 1_555
H5F C6F 1_555 1_555
C7F C6F 1_555 1_555
C8F C3F 1_555 1_555
C9F C5F 1_555 1_555
H6F C9F 1_555 1_555
H7F C9F 1_555 1_555
H8F C9F 1_555 1_555
C10F C7F 1_555 1_555
H9F C10F 1_555 1_555
H10F C10F 1_555 1_555
C11F H11F 1_555 1_555
H12F C11F 1_555 1_555
C12F C11F 1_555 1_555
H13F C12F 1_555 1_555
H14F C12F 1_555 1_555
C13F H15F 1_555 1_555
H16F C13F 1_555 1_555
C14F H17F 1_555 1_555
H18F C14F 1_555 1_555
H19F C14F 1_555 1_555
C15F C14F 1_555 1_555
C16F C15F 1_555 1_555
C17F C16F 1_555 1_555
H20F C17F 1_555 1_555
C18F C17F 1_555 1_555
C19F C18F 1_555 1_555
H21F C19F 1_555 1_555
C20F C19F 1_555 1_555
C21F C16F 1_555 1_555
C22F C18F 1_555 1_555
H22F C22F 1_555 1_555
H23F C22F 1_555 1_555
H24F C22F 1_555 1_555
C23F C20F 1_555 1_555
H25F C23F 1_555 1_555
H26F C23F 1_555 1_555
C24F H27F 1_555 1_555
H28F C24F 1_555 1_555
C25F C24F 1_555 1_555
H29F C25F 1_555 1_555
H30F C25F 1_555 1_555
C26F H31F 1_555 1_555
H32F C26F 1_555 1_555
C27F C26F 1_555 1_555
H33F C27F 1_555 1_555
H34F C27F 1_555 1_555
C28F H35F 1_555 1_555
H36F C28F 1_555 1_555
H37F C28F 1_555 1_555
C29F C28F 1_555 1_555
C30F C29F 1_555 1_555
C31F C30F 1_555 1_555
H38F C31F 1_555 1_555
C32F C31F 1_555 1_555
C33F C32F 1_555 1_555
H39F C33F 1_555 1_555
C34F C33F 1_555 1_555
C35F C30F 1_555 1_555
C36F C32F 1_555 1_555
H40F C36F 1_555 1_555
H41F C36F 1_555 1_555
H42F C36F 1_555 1_555
C37F C34F 1_555 1_555
H43F C37F 1_555 1_555
H44F C37F 1_555 1_555
C38F H45F 1_555 1_555
H46F C38F 1_555 1_555
C39F C38F 1_555 1_555
H47F C39F 1_555 1_555
H48F C39F 1_555 1_555
C40F H49F 1_555 1_555
H50F C40F 1_555 1_555
C41F C40F 1_555 1_555
H51F C41F 1_555 1_555
H52F C41F 1_555 1_555
C42F C43F 1_555 1_555
C43F C44F 1_555 1_555
C44F H53F 1_555 1_555
C45F C44F 1_555 1_555
C46F C45F 1_555 1_555
H54F C46F 1_555 1_555
C47F C46F 1_555 1_555
C48F C43F 1_555 1_555
H55F C48F 1_555 1_555
C49F C45F 1_555 1_555
C50F C47F 1_555 1_555
C51F H56F 1_555 1_555
H57F C51F 1_555 1_555
H58F C51F 1_555 1_555
C52F C51F 1_555 1_555
C53F C52F 1_555 1_555
C54F C53F 1_555 1_555
H59F C54F 1_555 1_555
C55F C54F 1_555 1_555
C56F C55F 1_555 1_555
H60F C56F 1_555 1_555
C57F C56F 1_555 1_555
C58F C53F 1_555 1_555
C59F C55F 1_555 1_555
H61F C59F 1_555 1_555
H62F C59F 1_555 1_555
H63F C59F 1_555 1_555
C60F C57F 1_555 1_555
H64F C60F 1_555 1_555
H65F C60F 1_555 1_555
C61F H66F 1_555 1_555
H67F C61F 1_555 1_555
C62F C61F 1_555 1_555
H68F C62F 1_555 1_555
H69F C62F 1_555 1_555
C63F H70F 1_555 1_555
H71F C63F 1_555 1_555
C64F C63F 1_555 1_555
H72F C64F 1_555 1_555
H73F C64F 1_555 1_555
C65F H74F 1_555 1_555
H75F C65F 1_555 1_555
H76F C65F 1_555 1_555
C66F C65F 1_555 1_555
C67F C66F 1_555 1_555
C68F C67F 1_555 1_555
H77F C68F 1_555 1_555
C69F C68F 1_555 1_555
C70F C69F 1_555 1_555
H78F C70F 1_555 1_555
C71F C70F 1_555 1_555
C72F C67F 1_555 1_555
C73F C69F 1_555 1_555
H79F C73F 1_555 1_555
H80F C73F 1_555 1_555
H81F C73F 1_555 1_555
C74F C71F 1_555 1_555
H82F C74F 1_555 1_555
H83F C74F 1_555 1_555
C75F H84F 1_555 1_555
H85F C75F 1_555 1_555
O1F H86F 1_555 1_555
C76F H87F 1_555 1_555
H88F C76F 1_555 1_555
C77F C76F 1_555 1_555
H89F C77F 1_555 1_555
H90F C77F 1_555 1_555
C78F H91F 1_555 1_555
H92F C78F 1_555 1_555
H93F C78F 1_555 1_555
C79F C78F 1_555 1_555
C80F C79F 1_555 1_555
C81F C80F 1_555 1_555
H94F C81F 1_555 1_555
C82F C81F 1_555 1_555
C83F C82F 1_555 1_555
H95F C83F 1_555 1_555
C84F C83F 1_555 1_555
C85F C80F 1_555 1_555
C86F C82F 1_555 1_555
H96F C86F 1_555 1_555
H97F C86F 1_555 1_555
H98F C86F 1_555 1_555
C87F C84F 1_555 1_555
H99F C87F 1_555 1_555
H100F C87F 1_555 1_555
C88F H101F 1_555 1_555
H102F C88F 1_555 1_555
C89F C88F 1_555 1_555
H103F C89F 1_555 1_555
H104F C89F 1_555 1_555
C90F H105F 1_555 1_555
H106F C90F 1_555 1_555
C91F C90F 1_555 1_555
H107F C91F 1_555 1_555
H108F C91F 1_555 1_555
C92F H109F 1_555 1_555
C93F C92F 1_555 1_555
C94F C93F 1_555 1_555
H110F C94F 1_555 1_555
C95F C94F 1_555 1_555
C96F C95F 1_555 1_555
H111F C96F 1_555 1_555
C97F C92F 1_555 1_555
C98F C93F 1_555 1_555
C99F C97F 1_555 1_555
C100F C95F 1_555 1_555
Mn1F O38 1_555 1_555
Mn2F N3F 1_555 1_555
Mn3F O37 1_555 1_555
Mn4F O19 1_555 1_555
Mn5F O20 1_555 1_555
Mn6F N11F 1_555 1_555
N1F C2F 1_555 1_555
N2F C10F 1_555 1_555
N3F C15F 1_555 1_555
N4F C23F 1_555 1_555
N5F C29F 1_555 1_555
N6F C37F 1_555 1_555
N7F C52F 1_555 1_555
N8F C60F 1_555 1_555
N9F C66F 1_555 1_555
N10F C74F 1_555 1_555
N11F C79F 1_555 1_555
N12F C87F 1_555 1_555
O2F Mn1F 1_555 1_555
O3F Mn3F 1_555 1_555
O4F C8F 1_555 1_555
O5F C12F 1_555 1_555
H112F O5F 1_555 1_555
O6F H113F 1_555 1_555
O7F Mn1F 1_555 1_555
O8F C21F 1_555 1_555
O9F C25F 1_555 1_555
H114F O9F 1_555 1_555
O10F C27F 1_555 1_555
H115F O10F 1_555 1_555
O11F Mn2F 1_555 1_555
O12F C35F 1_555 1_555
O13F C39F 1_555 1_555
H116F O13F 1_555 1_555
O14F C41F 1_555 1_555
H117F O14F 1_555 1_555
O15F C42F 1_555 1_555
O16F C42F 1_555 1_555
O17F C49F 1_555 1_555
O18F C49F 1_555 1_555
O19F Mn4 1_555 1_555
O20F Mn5 1_555 1_555
O21F Mn5F 1_555 1_555
O22F C58F 1_555 1_555
O23F C62F 1_555 1_555
H118F O23F 1_555 1_555
O24F C64F 1_555 1_555
H119F O24F 1_555 1_555
O25F Mn6F 1_555 1_555
O26F C72F 1_555 1_555
C101F C75F 1_555 1_555
H120F C101F 1_555 1_555
H121F C101F 1_555 1_555
O27F C77F 1_555 1_555
H122F O27F 1_555 1_555
O28F Mn4F 1_555 1_555
O29F C85F 1_555 1_555
O30F C89F 1_555 1_555
H123F O30F 1_555 1_555
O31F C91F 1_555 1_555
H124F O31F 1_555 1_555
O32F Mn4F 1_555 1_555
O33F C98F 1_555 1_555
O34F C98F 1_555 1_555
O35F C99F 1_555 1_555
O36F C99F 1_555 1_555
O37F Mn3 1_555 1_555
O38F Mn1 1_555 1_555
C102F C13F 1_555 1_555
H125F C102F 1_555 1_555
H126F C102F 1_555 1_555
C7 C8 1_555 1_555
C11 N2 1_555 1_555
C13 N2 1_555 1_555
C20 C21 1_555 1_555
C24 N4 1_555 1_555
C26 N4 1_555 1_555
C34 C35 1_555 1_555
C38 N6 1_555 1_555
C40 N6 1_555 1_555
C47 C48 1_555 1_555
C57 C58 1_555 1_555
C61 N8 1_555 1_555
C63 N8 1_555 1_555
C71 C72 1_555 1_555
C75 N10 1_555 1_555
O1 C101 1_555 1_555
C76 N10 1_555 1_555
C84 C85 1_555 1_555
C88 N12 1_555 1_555
C90 N12 1_555 1_555
C96 C97 1_555 1_555
Mn1 O4 1_555 1_555
Mn1 O33 1_555 1_555
Mn2 O2 1_555 1_555
Mn2 O8 1_555 1_555
Mn2 O15 1_555 1_555
Mn2 O34 1_555 1_555
Mn3 O2 1_555 1_555
Mn3 O12 1_555 1_555
Mn3 O16 1_555 1_555
Mn4 O18 1_555 1_555
Mn4 O22 1_555 1_555
Mn5 O26 1_555 1_555
Mn5 O32 1_555 1_555
Mn5 O35 1_555 1_555
Mn6 O17 1_555 1_555
Mn6 O29 1_555 1_555
Mn6 O32 1_555 1_555
Mn6 O36 1_555 1_555
N1 O3 1_555 1_555
N3 O7 1_555 1_555
N5 O11 1_555 1_555
N7 O21 1_555 1_555
N9 O25 1_555 1_555
N11 O28 1_555 1_555
O6 C102 1_555 1_555
C7F C8F 1_555 1_555
C11F N2F 1_555 1_555
C13F N2F 1_555 1_555
C20F C21F 1_555 1_555
C24F N4F 1_555 1_555
C26F N4F 1_555 1_555
C34F C35F 1_555 1_555
C38F N6F 1_555 1_555
C40F N6F 1_555 1_555
C47F C48F 1_555 1_555
C50F O19F 1_555 1_555
C50F O20F 1_555 1_555
C57F C58F 1_555 1_555
C61F N8F 1_555 1_555
C63F N8F 1_555 1_555
C71F C72F 1_555 1_555
C75F N10F 1_555 1_555
O1F C101F 1_555 1_555
C76F N10F 1_555 1_555
C84F C85F 1_555 1_555
C88F N12F 1_555 1_555
C90F N12F 1_555 1_555
C96F C97F 1_555 1_555
C100F O37F 1_555 1_555
C100F O38F 1_555 1_555
Mn1F N1F 1_555 1_555
Mn1F O4F 1_555 1_555
Mn1F O33F 1_555 1_555
Mn2F O2F 1_555 1_555
Mn2F O8F 1_555 1_555
Mn2F O15F 1_555 1_555
Mn2F O34F 1_555 1_555
Mn3F N5F 1_555 1_555
Mn3F O2F 1_555 1_555
Mn3F O12F 1_555 1_555
Mn3F O16F 1_555 1_555
Mn4F N7F 1_555 1_555
Mn4F O18F 1_555 1_555
Mn4F O22F 1_555 1_555
Mn5F N9F 1_555 1_555
Mn5F O26F 1_555 1_555
Mn5F O32F 1_555 1_555
Mn5F O35F 1_555 1_555
Mn6F O17F 1_555 1_555
Mn6F O29F 1_555 1_555
Mn6F O32F 1_555 1_555
Mn6F O36F 1_555 1_555
N1F O3F 1_555 1_555
N3F O7F 1_555 1_555
N5F O11F 1_555 1_555
N7F O21F 1_555 1_555
N9F O25F 1_555 1_555
N11F O28F 1_555 1_555
O6F C102F 1_555 1_555

#END
