
#######################################################################
#
#                 Cambridge Crystallographic Data Centre
#                                CCDC 
#
#######################################################################
#
# If this CIF has been generated from an entry in the Cambridge 
# Structural Database, then it will include bibliographic, chemical, 
# crystal, experimental, refinement or atomic coordinate data resulting 
# from the CCDC's data processing and validation procedures.
#
#######################################################################

data_SOJMOV
_chemical_formula_moiety         
'C174 H150 N18 O12 Ru6 6+,C174 H150 N18 O12 Ru6 6+,C4 H10 O1,10(H2 O1),12(C1 F3 O3 S1 1-)'
_chemical_name_systematic        
"tris(\m-6,11-dioxo-6,11-dihydrotetracene-5,12-diolato)-bis(\m-4,4',4''-(benzene-1,3,5-triyltris(1H-pyrazole-1,3-diyl))tripyridine)-hexakis(1-isopropyl-4-methylbenzene)-hexa-ruthenium(ii) tris(\m-6,11-dioxo-6,11-dihydrotetracene-5,12-diolato)-bis(\m-4,4',4''-(benzene-1,3,5-triyltris(1H-pyrazole-1,3-diyl))tripyridine)-hexakis(1-isopropyl-4-methylbenzene)-hexa-ruthenium(ii) dodecakis(trifluoromethanesulfonate) diethyl ether decahydrate"
_symmetry_cell_setting           monoclinic
_symmetry_space_group_name_H-M   'C c'
_symmetry_Int_Tables_number      9
_space_group_name_Hall           'C -2yc'
loop_
_symmetry_equiv_pos_site_id
_symmetry_equiv_pos_as_xyz
1 x,y,z
2 x,-y,1/2+z
3 1/2+x,1/2+y,z
4 1/2+x,1/2-y,1/2+z
_cell_length_a                   44.175(9)
_cell_length_b                   31.227(6)
_cell_length_c                   32.536(7)
_cell_angle_alpha                90
_cell_angle_beta                 115.67(3)
_cell_angle_gamma                90
_cell_volume                     40452.2
_cell_formula_units_Z            4
loop_
_atom_site_label
_atom_site_type_symbol
_atom_site_fract_x
_atom_site_fract_y
_atom_site_fract_z
Ru1 Ru 0.11647(2) -0.24019(2) 0.28608(3)
Ru2 Ru -0.01847(2) -0.19780(3) 0.01246(3)
Ru3 Ru -0.113423(19) 0.07833(3) 0.09202(3)
Ru4 Ru 0.045613(18) 0.05152(2) 0.35339(3)
Ru5 Ru 0.19813(2) 0.40416(2) 0.01001(3)
Ru6 Ru 0.35810(2) 0.32295(2) 0.25342(3)
O1 O 0.08087(16) -0.1951(2) 0.2497(3)
O2 O 0.10584(18) -0.2678(2) 0.2250(3)
O3 O 0.24750(16) 0.38886(19) 0.0309(2)
O4 O 0.35000(16) 0.33279(19) 0.1877(2)
O5 O 0.20546(18) 0.3921(2) 0.0744(2)
O6 O 0.30837(18) 0.3366(2) 0.2304(2)
O7 O -0.00770(17) -0.1705(2) 0.0743(2)
O8 O 0.02198(18) -0.2367(2) 0.0472(3)
O9 O 0.01663(14) 0.0995(2) 0.3146(2)
O10 O 0.01677(14) 0.0117(2) 0.3010(2)
O11 O -0.08513(15) 0.0287(2) 0.1317(2)
O12 O -0.09038(15) 0.1156(2) 0.1485(2)
N1 N 0.23033(18) -0.05747(19) 0.2278(3)
N2 N 0.18731(17) 0.0787(2) 0.2478(2)
N3 N 0.28220(18) 0.0744(2) 0.2116(3)
N4 N 0.20705(17) -0.0758(2) 0.2388(2)
N5 N 0.16421(16) 0.05760(19) 0.2582(2)
N6 N 0.28435(18) 0.1179(2) 0.2165(3)
N7 N 0.0492(2) 0.1320(2) 0.0337(3)
N8 N 0.1473(2) 0.1456(2) 0.0046(3)
N9 N 0.10787(19) 0.0053(2) 0.0255(3)
N10 N 0.0813(2) -0.0184(2) 0.0220(2)
N11 N 0.1469(2) 0.1879(2) 0.0094(3)
N12 N 0.02963(19) 0.1070(3) 0.0455(3)
N13 N 0.14768(17) -0.2009(2) 0.2671(2)
N14 N 0.0190(2) -0.1531(3) 0.0160(3)
N15 N 0.3400(2) 0.2607(2) 0.2305(3)
N16 N 0.1893(2) 0.3372(2) 0.0058(3)
N17 N -0.0698(2) 0.0941(2) 0.0850(3)
N18 N 0.07380(17) 0.0624(2) 0.3149(2)
C1 C 0.0970(5) -0.3583(6) 0.1306(7)
H1 H 0.1077 -0.3852 0.1403
C2 C 0.2080(2) 0.3095(3) -0.0075(3)
H2 H 0.2248 0.3202 -0.0155
C3 C 0.1215(2) 0.0800(2) 0.2808(3)
C4 C 0.1059(2) 0.0499(3) 0.0232(3)
C5 C 0.1696(2) -0.2179(3) 0.2526(3)
H3 H 0.1704 -0.2480 0.2493
C6 C 0.3065(2) 0.0589(3) 0.1990(3)
H4 H 0.3101 0.0298 0.1940
C7 C 0.0990(2) 0.1387(3) 0.0185(3)
H5 H 0.0969 0.1690 0.0168
C8 C -0.0193(2) 0.1207(3) 0.0615(3)
C9 C 0.4096(2) 0.3446(3) 0.2778(4)
H6 H 0.4197 0.3463 0.2556
C10 C 0.2865(2) 0.3458(3) 0.1909(3)
C11 C 0.2348(2) 0.0764(3) 0.2300(3)
H7 H 0.2366 0.1067 0.2319
C12 C 0.2693(2) 0.3789(2) 0.0716(3)
C13 C 0.3892(3) 0.2992(3) 0.3231(3)
C14 C 0.2317(2) -0.0118(2) 0.2279(3)
C15 C -0.0627(2) 0.0298(3) 0.1737(3)
C16 C 0.1458(2) 0.0890(2) 0.2652(3)
C17 C 0.1905(2) -0.1917(3) 0.2429(3)
H8 H 0.2064 -0.2041 0.2339
C18 C 0.0814(2) 0.1036(3) 0.3088(3)
H9 H 0.0706 0.1265 0.3163
C19 C -0.0216(2) 0.1410(3) 0.2570(3)
C20 C 0.0912(2) -0.0591(3) 0.0253(3)
C21 C -0.0076(2) 0.0985(3) 0.2726(3)
C22 C 0.1040(2) 0.1128(3) 0.2922(3)
H10 H 0.1084 0.1419 0.2881
C23 C 0.3307(2) 0.3607(3) 0.1145(3)
C24 C 0.1239(2) 0.1183(3) 0.0123(3)
C25 C -0.0675(3) -0.0486(3) 0.1679(4)
H11 H -0.0843 -0.0456 0.1375
C26 C 0.1517(3) 0.4405(4) -0.0076(4)
H12 H 0.1371 0.4339 0.0081
C27 C 0.1574(2) 0.1303(3) 0.2595(3)
H13 H 0.1494 0.1574 0.2639
C28 C 0.0352(2) -0.0780(3) 0.2104(4)
H14 H 0.0399 -0.0552 0.2316
C29 C 0.0144(3) -0.1118(3) 0.0239(4)
H15 H -0.0048 -0.1041 0.0283
C30 C 0.1691(2) 0.1335(3) -0.0134(4)
H16 H 0.1724 0.1056 -0.0224
C31 C 0.1114(2) 0.0378(3) 0.2859(3)
H17 H 0.1209 0.0141 0.2773
C32 C 0.18902(19) -0.1474(2) 0.2457(3)
C33 C 0.1791(4) 0.4679(3) 0.0130(5)
H18 H 0.1840 0.4810 0.0433
C34 C 0.3242(2) 0.3476(3) 0.1530(3)
C35 C 0.2573(2) 0.0516(3) 0.2194(3)
C36 C -0.0263(2) -0.0168(3) 0.2364(3)
C37 C 0.2090(2) 0.0112(2) 0.2373(2)
H19 H 0.1926 -0.0031 0.2438
C38 C 0.1289(2) 0.0744(3) 0.0140(3)
H20 H 0.1466 0.0618 0.0092
C39 C 0.1699(2) 0.2033(2) -0.0023(4)
C40 C 0.0884(2) 0.0304(3) 0.3030(3)
H21 H 0.0827 0.0017 0.3064
C41 C 0.1338(2) -0.0207(3) 0.0276(3)
H22 H 0.1547 -0.0119 0.0287
C42 C -0.0086(2) 0.0207(3) 0.2638(3)
C43 C 0.2112(2) -0.1180(2) 0.2355(3)
C44 C 0.1473(2) -0.1577(2) 0.2707(3)
H23 H 0.1323 -0.1457 0.2815
C45 C 0.2523(2) 0.3503(3) 0.1891(3)
C46 C 0.0385(3) -0.2416(3) 0.0885(5)
C47 C 0.2102(2) 0.0555(2) 0.2373(3)
C48 C 0.0168(2) -0.1771(3) 0.1137(4)
C49 C 0.2565(2) 0.0071(2) 0.2190(3)
H24 H 0.2722 -0.0094 0.2130
C50 C -0.0390(3) 0.1495(3) 0.0697(3)
H25 H -0.0362 0.1793 0.0664
C51 C 0.2016(2) 0.2659(3) -0.0089(3)
H26 H 0.2150 0.2469 -0.0169
C52 C 0.0399(4) 0.1735(3) 0.0288(6)
H27 H 0.0506 0.1963 0.0208
C53 C -0.0492(2) 0.1450(3) 0.2137(3)
C54 C 0.0787(2) 0.0685(3) 0.0286(3)
H28 H 0.0625 0.0512 0.0326
C55 C 0.3555(2) 0.2339(3) 0.2125(3)
H29 H 0.3733 0.2444 0.2064
C56 C -0.0319(3) -0.0927(3) 0.2334(4)
H30 H -0.0254 -0.1201 0.2471
C57 C -0.1625(3) 0.1001(6) 0.0806(6)
H31 H -0.1638 0.1163 0.1063
C58 C -0.0491(2) 0.0658(3) 0.2009(3)
C59 C 0.1228(2) -0.0630(3) 0.0278(3)
H32 H 0.1347 -0.0887 0.0294
C60 C 0.2628(2) 0.3687(3) 0.1093(3)
C61 C 0.1850(3) 0.1708(3) -0.0155(4)
H33 H 0.2028 0.1736 -0.0244
C62 C 0.0764(3) 0.1125(3) 0.0278(3)
C63 C 0.3635(3) 0.3584(4) 0.1180(4)
H34 H 0.3817 0.3489 0.1453
C64 C 0.0073(2) 0.1345(3) 0.0481(3)
C65 C 0.1771(3) 0.2492(3) 0.0007(3)
C66 C 0.3203(2) 0.1740(3) 0.2145(3)
C67 C -0.0488(3) 0.2211(4) 0.2232(4)
H35 H -0.0591 0.2482 0.2132
C68 C 0.3454(2) 0.1909(3) 0.2027(3)
H36 H 0.3554 0.1731 0.1882
C69 C 0.2375(3) -0.1267(3) 0.2232(4)
H37 H 0.2457 -0.1539 0.2197
C70 C 0.3102(2) 0.1298(3) 0.2076(3)
C71 C -0.0712(2) -0.1861(3) -0.0104(4)
H38 H -0.0782 -0.1656 0.0074
C72 C 0.0790(3) -0.2878(3) 0.1486(5)
C73 C 0.1660(2) -0.1311(2) 0.2603(3)
H39 H 0.1638 -0.1010 0.2627
C74 C 0.0643(2) -0.1904(3) 0.2074(4)
C75 C -0.0626(2) 0.1863(3) 0.1978(3)
H40 H -0.0814 0.1893 0.1689
C76 C 0.0829(3) -0.2581(3) 0.1849(5)
C77 C 0.4100(3) 0.3040(4) 0.2990(4)
H41 H 0.4203 0.2783 0.2918
C78 C 0.0131(3) 0.1768(3) 0.0371(6)
H42 H 0.0006 0.2019 0.0359
C79 C 0.2002(3) 0.4449(4) -0.0422(4)
H43 H 0.2197 0.4415 -0.0498
C80 C -0.0209(2) 0.0617(3) 0.2468(3)
C81 C 0.1582(3) 0.2780(3) 0.0126(4)
H44 H 0.1403 0.2679 0.0188
C82 C -0.0499(3) -0.2544(3) -0.0164(4)
H45 H -0.0414 -0.2830 -0.0024
C83 C 0.1727(3) 0.4194(3) -0.0646(4)
H46 H 0.1731 0.3979 -0.0870
C84 C 0.2258(2) 0.3629(3) 0.1481(4)
C85 C 0.2486(2) -0.0876(3) 0.2177(3)
H47 H 0.2659 -0.0821 0.2084
C86 C 0.3052(2) 0.2024(3) 0.2314(4)
H48 H 0.2875 0.1929 0.2383
C87 C 0.0456(2) -0.1514(3) 0.1924(3)
C88 C 0.1830(2) 0.1225(3) 0.2460(3)
H49 H 0.1949 0.1432 0.2373
C89 C 0.0589(2) -0.2810(3) 0.1021(5)
C90 C 0.1526(3) -0.2852(4) 0.3358(5)
H50 H 0.1712 -0.2978 0.3301
C91 C -0.0508(2) -0.0126(3) 0.1947(3)
C92 C 0.0114(2) -0.0728(3) 0.1652(4)
H51 H 0.0000 -0.0462 0.1557
C93 C 0.0372(3) -0.0802(3) 0.0257(3)
H52 H 0.0327 -0.0510 0.0293
C94 C 0.0514(2) -0.1162(3) 0.2239(4)
H53 H 0.0669 -0.1198 0.2549
C95 C -0.06375(19) 0.1076(3) 0.1854(3)
C96 C 0.2461(3) 0.3379(4) 0.2250(4)
H54 H 0.2641 0.3285 0.2526
C97 C 0.0716(3) -0.1352(3) 0.0148(3)
H55 H 0.0913 -0.1445 0.0126
C98 C -0.1435(3) 0.0574(5) 0.0222(4)
H56 H -0.1324 0.0429 0.0049
C99 C 0.3914(3) 0.3783(3) 0.2809(3)
C100 C -0.1513(3) 0.0335(4) 0.0538(4)
H57 H -0.1459 0.0023 0.0578
C101 C 0.0668(3) -0.0912(2) 0.0224(3)
C102 C 0.2047(4) 0.4699(4) -0.0046(6)
C103 C 0.3714(3) 0.3732(3) 0.3038(3)
H58 H 0.3545 0.3957 0.3010
C104 C 0.3713(3) 0.3321(4) 0.3262(4)
H59 H 0.3538 0.3271 0.3374
C105 C 0.0464(3) -0.1641(3) 0.0108(4)
H60 H 0.0489 -0.1931 0.0040
C106 C 0.3239(2) 0.0925(3) 0.1953(3)
H61 H 0.3418 0.0919 0.1864
C107 C 0.0918(3) 0.0584(6) 0.4159(4)
C108 C 0.2915(2) 0.3537(3) 0.1526(3)
C109 C 0.0282(2) 0.0267(3) 0.4025(3)
C110 C 0.0225(2) -0.1444(3) 0.1468(4)
C111 C 0.0402(2) -0.2122(3) 0.1252(4)
C112 C -0.0169(2) -0.0590(3) 0.2557(4)
H62 H 0.0007 -0.0620 0.2855
C113 C -0.1532(3) 0.1239(5) 0.0516(5)
H63 H -0.1491 0.1553 0.0566
C114 C -0.0258(3) 0.0764(3) 0.0645(3)
H64 H -0.0124 0.0552 0.0593
C115 C -0.0401(4) -0.2390(4) -0.0477(5)
H65 H -0.0247 -0.2567 -0.0558
C116 C 0.1654(3) 0.3208(3) 0.0155(4)
H66 H 0.1527 0.3396 0.0249
C117 C -0.1441(3) 0.1040(5) 0.0240(5)
C118 C -0.0509(3) 0.0646(3) 0.0745(3)
H67 H -0.0559 0.0350 0.0744
C119 C 0.1190(4) -0.3036(4) 0.3144(7)
H68 H 0.1155 -0.3286 0.2935
C120 C 0.0344(3) 0.0703(5) 0.4088(4)
H69 H 0.0156 0.0907 0.4034
C121 C 0.1481(2) 0.4155(3) -0.0473(4)
C122 C 0.0850(3) 0.0171(6) 0.4104(4)
H70 H 0.1005 -0.0025 0.4043
C123 C 0.3039(2) 0.3767(3) 0.0751(3)
C124 C 0.0998(5) -0.3251(5) 0.1591(7)
H71 H 0.1174 -0.3269 0.1890
C125 C -0.0577(3) -0.0894(4) 0.1889(4)
H72 H -0.0686 -0.1145 0.1727
C126 C 0.0687(4) 0.0873(4) 0.4161(4)
H73 H 0.0727 0.1187 0.4157
C127 C -0.0623(2) 0.1362(3) 0.0823(4)
H74 H -0.0746 0.1573 0.0900
C128 C 0.3150(2) 0.2441(3) 0.2387(4)
H75 H 0.3036 0.2627 0.2503
C129 C 0.1294(3) -0.2218(6) 0.3585(5)
H76 H 0.1308 -0.1910 0.3676
C130 C 0.3103(3) 0.3904(3) 0.0404(4)
H77 H 0.2927 0.4030 0.0144
C131 C 0.3433(3) 0.3864(4) 0.0415(4)
H78 H 0.3472 0.3945 0.0161
C132 C 0.3685(3) 0.3706(4) 0.0804(4)
H79 H 0.3903 0.3678 0.0817
C133 C 0.2140(3) 0.3391(5) 0.2213(6)
H80 H 0.2100 0.3310 0.2467
C134 C 0.1871(3) 0.3518(4) 0.1810(4)
H81 H 0.1650 0.3518 0.1787
C135 C 0.1928(3) 0.3645(3) 0.1442(4)
H82 H 0.1748 0.3740 0.1168
C136 C 0.2329(2) 0.3759(3) 0.1090(3)
C137 C 0.3860(3) 0.2584(4) 0.3417(4)
H83 H 0.4029 0.2564 0.3734
H84 H 0.3895 0.2353 0.3238
H85 H 0.3635 0.2560 0.3405
C138 C 0.4162(4) 0.4493(4) 0.2904(5)
H86 H 0.4167 0.4764 0.2756
H87 H 0.4384 0.4358 0.3024
H88 H 0.4100 0.4547 0.3154
C139 C 0.3908(4) 0.4200(3) 0.2562(4)
H89 H 0.3984 0.4136 0.2320
C140 C 0.3557(5) 0.4415(4) 0.2330(7)
H90 H 0.3574 0.4680 0.2178
H91 H 0.3478 0.4483 0.2561
H92 H 0.3398 0.4219 0.2103
C141 C 0.0749(5) -0.3473(5) 0.0821(7)
H93 H 0.0739 -0.3663 0.0587
C142 C 0.1236(6) 0.3509(7) -0.0983(7)
H94 H 0.1432 0.3333 -0.0799
H95 H 0.1268 0.3641 -0.1234
H96 H 0.1035 0.3328 -0.1106
C143 C 0.2316(6) 0.5021(8) 0.0240(8)
H97 H 0.2279 0.5293 0.0075
H98 H 0.2539 0.4908 0.0300
H99 H 0.2304 0.5068 0.0530
C144 C -0.0870(6) -0.2085(7) 0.0606(9)
H100 H -0.0936 -0.2195 0.0836
H101 H -0.1062 -0.1945 0.0362
H102 H -0.0688 -0.1876 0.0747
C145 C -0.1555(6) 0.0481(8) 0.1602(7)
H103 H -0.1604 0.0312 0.1819
H104 H -0.1646 0.0771 0.1582
H105 H -0.1311 0.0498 0.1706
C146 C -0.0473(6) -0.2706(8) 0.0723(9)
H106 H -0.0535 -0.2829 0.0954
H107 H -0.0276 -0.2523 0.0873
H108 H -0.0422 -0.2938 0.0560
C147 C 0.1192(5) 0.3866(4) -0.0678(5)
H109 H 0.1150 0.3729 -0.0429
C148 C 0.0877(5) 0.4111(5) -0.0995(6)
H110 H 0.0841 0.4353 -0.0829
H111 H 0.0682 0.3920 -0.1099
H112 H 0.0906 0.4218 -0.1259
C149 C -0.0080(3) 0.1772(3) 0.2833(3)
H113 H 0.0089 0.1744 0.3137
C150 C -0.0195(3) 0.2183(3) 0.2645(4)
H114 H -0.0076 0.2433 0.2795
C151 C -0.0442(4) -0.1951(5) -0.0599(6)
C152 C -0.0352(7) -0.1802(7) -0.0983(8)
H115 H -0.0544 -0.1849 -0.1279
H116 H -0.0158 -0.1965 -0.0969
H117 H -0.0296 -0.1496 -0.0945
C153 C -0.0613(3) -0.1692(4) -0.0433(4)
H118 H -0.0620 -0.1376 -0.0485
C154 C -0.0651(2) -0.2274(3) 0.0041(3)
C155 C -0.0748(3) -0.2457(4) 0.0406(4)
H119 H -0.0942 -0.2655 0.0249
C156 C -0.1634(2) 0.0543(5) 0.0836(5)
C157 C -0.1707(6) 0.0280(7) 0.1159(7)
H120 H -0.1948 0.0352 0.1063
C158 C -0.1723(6) -0.0155(7) 0.1118(7)
H121 H -0.1830 -0.0234 0.0795
H122 H -0.1856 -0.0270 0.1269
H123 H -0.1496 -0.0275 0.1262
C159 C 0.1244(3) 0.0740(8) 0.4174(5)
H124 H 0.1420 0.0724 0.4487
H125 H 0.1219 0.1038 0.4068
H126 H 0.1306 0.0561 0.3975
C160 C -0.0052(3) 0.0076(6) 0.3938(5)
H127 H -0.0089 -0.0167 0.3721
C161 C -0.0055(5) -0.0106(8) 0.4348(7)
H128 H -0.0277 -0.0228 0.4274
H129 H -0.0005 0.0118 0.4578
H130 H 0.0116 -0.0332 0.4467
C162 C -0.0342(3) 0.0374(7) 0.3715(6)
H131 H -0.0551 0.0227 0.3668
H132 H -0.0355 0.0468 0.3421
H133 H -0.0312 0.0624 0.3912
C163 C 0.0527(3) 0.0019(5) 0.4036(4)
H134 H 0.0467 -0.0281 0.3921
C164 C 0.0628(2) -0.2191(3) 0.1725(4)
C165 C 0.0043(2) -0.1058(3) 0.1345(4)
H135 H -0.0131 -0.1025 0.1046
C166 C 0.0567(4) -0.3119(5) 0.0707(6)
H136 H 0.0415 -0.3076 0.0396
C167 C 0.1881(4) -0.2178(6) 0.3737(5)
H137 H 0.2024 -0.2257 0.4054
H138 H 0.1832 -0.1871 0.3719
H139 H 0.1998 -0.2245 0.3548
C168 C 0.1565(3) -0.2420(5) 0.3570(5)
C169 C 0.0546(3) -0.3043(5) 0.2901(6)
H140 H 0.0459 -0.3128 0.3126
C170 C 0.0545(6) -0.3425(6) 0.2603(9)
H141 H 0.0677 -0.3660 0.2799
H142 H 0.0646 -0.3338 0.2400
H143 H 0.0314 -0.3520 0.2421
C171 C 0.0905(3) -0.2845(4) 0.3146(5)
C172 C 0.0975(4) -0.2433(5) 0.3366(7)
H144 H 0.0774 -0.2250 0.3305
C173 C 0.0311(4) -0.2705(7) 0.2557(8)
H145 H 0.0084 -0.2823 0.2399
H146 H 0.0397 -0.2634 0.2334
H147 H 0.0305 -0.2446 0.2723
C174 C -0.1311(6) 0.1287(8) -0.0079(8)
H148 H -0.1503 0.1371 -0.0362
H149 H -0.1162 0.1100 -0.0150
H150 H -0.1188 0.1544 0.0079
Ru7 Ru 0.15008(2) 0.40368(3) 0.37939(4)
Ru8 Ru -0.00136(2) 0.34399(3) 0.11961(3)
Ru9 Ru 0.32259(2) -0.23446(2) 0.36198(3)
Ru10 Ru 0.19964(3) -0.25980(3) 0.08134(3)
Ru11 Ru 0.306123(18) 0.04540(2) 0.02443(3)
Ru12 Ru 0.457881(19) 0.03243(3) 0.29174(3)
O13 O 0.1440(2) 0.4075(2) 0.3135(3)
O14 O 0.0996(2) 0.3885(2) 0.3520(3)
O15 O 0.04809(19) 0.3616(2) 0.1472(3)
O16 O 0.00257(18) 0.3505(2) 0.1837(3)
O17 O 0.44352(15) 0.0755(2) 0.2395(2)
O18 O 0.42605(17) -0.0093(2) 0.2448(3)
O19 O 0.32225(16) -0.2141(2) 0.3024(2)
O20 O 0.27690(18) -0.26142(19) 0.3213(2)
O21 O 0.34075(15) 0.08640(18) 0.0679(2)
O22 O 0.33104(15) -0.00199(19) 0.0705(2)
O23 O 0.2038(2) -0.2881(2) 0.1392(2)
O24 O 0.2440(2) -0.2311(2) 0.1217(3)
N19 N 0.2968(2) 0.1194(2) 0.3403(3)
N20 N 0.2027(2) 0.1462(2) 0.3776(3)
N21 N 0.31578(18) 0.0912(2) 0.3314(3)
N22 N 0.23078(17) 0.0018(2) 0.3530(2)
N23 N 0.25405(18) -0.0264(2) 0.3523(2)
N24 N 0.2002(2) 0.1875(2) 0.3654(3)
N25 N 0.11310(18) -0.0466(2) 0.1462(3)
N26 N 0.13525(19) -0.0689(2) 0.1362(3)
N27 N 0.06975(17) 0.0925(2) 0.1633(3)
N28 N 0.06874(19) 0.1353(2) 0.1563(3)
N29 N 0.16584(18) 0.0842(2) 0.1294(3)
N30 N 0.18665(17) 0.0603(2) 0.1172(2)
N31 N 0.28005(17) 0.0572(2) 0.0659(3)
N32 N 0.4153(2) 0.0579(3) 0.2985(3)
N33 N 0.1566(2) 0.3370(3) 0.3726(3)
N34 N 0.0166(2) 0.2819(3) 0.1409(3)
N35 N 0.29423(18) -0.17720(19) 0.3561(3)
N36 N 0.1779(2) -0.2105(2) 0.1040(3)
C175 C 0.1810(3) -0.3545(4) 0.2323(5)
H151 H 0.1628 -0.3742 0.2230
C176 C 0.1976(2) 0.1319(3) 0.1187(4)
H152 H 0.2076 0.1581 0.1162
C177 C 0.3565(2) 0.0006(3) 0.1096(3)
C178 C 0.2759(2) 0.0970(3) 0.0757(3)
H153 H 0.2893 0.1186 0.0711
C179 C 0.3710(2) -0.0407(3) 0.1291(3)
C180 C 0.1174(3) 0.3997(3) 0.2751(4)
C181 C 0.2620(3) -0.2649(3) 0.2776(3)
C182 C 0.2230(2) 0.1180(3) 0.3670(3)
C183 C 0.4070(2) -0.0036(3) 0.2017(3)
C184 C 0.2066(2) 0.0894(3) 0.1118(3)
C185 C 0.1393(2) 0.0189(3) 0.1386(3)
H154 H 0.1560 0.0029 0.1343
C186 C 0.4276(2) 0.1507(3) 0.1975(3)
H155 H 0.4456 0.1488 0.2272
C187 C 0.3986(2) 0.0370(3) 0.1799(3)
C188 C 0.4180(2) 0.0739(3) 0.1996(3)
C189 C 0.2638(2) 0.0614(3) 0.3465(3)
H156 H 0.2772 0.0420 0.3389
C190 C 0.1834(3) 0.1374(3) 0.4010(5)
H157 H 0.1814 0.1103 0.4130
C191 C 0.2241(3) -0.2793(3) 0.1828(3)
C192 C 0.1398(2) 0.0629(3) 0.1375(3)
C193 C 0.2030(2) -0.0176(3) 0.3511(3)
H158 H 0.1834 -0.0041 0.3502
C194 C 0.2331(2) 0.0782(2) 0.0979(3)
C195 C 0.0359(2) 0.1960(3) 0.1606(3)
C196 C 0.3635(2) 0.0792(3) 0.1096(3)
C197 C 0.2491(2) 0.1341(3) 0.3587(3)
H159 H 0.2531 0.1641 0.3597
C198 C 0.2160(3) -0.3028(3) 0.2160(3)
C199 C 0.3721(2) 0.0393(2) 0.1318(3)
C200 C 0.3656(3) 0.0958(3) 0.3161(3)
C201 C 0.2371(2) 0.0466(2) 0.3557(3)
C202 C 0.0464(2) 0.0804(3) 0.1783(3)
H160 H 0.0426 0.0520 0.1855
C203 C -0.0004(2) 0.2541(3) 0.1570(4)
H161 H -0.0191 0.2645 0.1612
C204 C 0.0447(2) 0.1490(3) 0.1662(4)
C205 C 0.2538(2) 0.1088(3) 0.0917(3)
H162 H 0.2522 0.1379 0.0988
C206 C 0.1416(3) 0.3098(3) 0.3884(4)
H163 H 0.1259 0.3203 0.3987
C207 C 0.25906(19) -0.1028(2) 0.3530(3)
C208 C 0.1682(3) 0.1731(3) 0.4034(4)
H164 H 0.1534 0.1773 0.4172
C209 C 0.1478(3) 0.2673(3) 0.3906(3)
H165 H 0.1363 0.2488 0.4023
C210 C 0.0792(3) 0.3811(3) 0.3106(4)
C211 C 0.5087(2) 0.0562(4) 0.3186(5)
H166 H 0.5139 0.0820 0.3047
C212 C 0.0910(2) 0.0228(3) 0.1553(3)
H167 H 0.0744 0.0092 0.1621
C213 C 0.0279(3) 0.3594(3) 0.2209(4)
C214 C 0.2404(2) -0.0638(2) 0.3512(3)
C215 C 0.0929(2) 0.0674(3) 0.1542(3)
C216 C 0.1936(4) -0.2409(6) 0.0127(4)
H168 H 0.1997 -0.2107 0.0092
C217 C 0.1855(3) 0.2796(3) 0.3582(3)
H169 H 0.2005 0.2695 0.3466
C218 C 0.2253(3) -0.3173(3) 0.2931(4)
H170 H 0.2372 -0.3116 0.3248
C219 C 0.2625(2) 0.0216(5) -0.0352(3)
H171 H 0.2438 0.0065 -0.0319
C220 C 0.3683(3) 0.0505(3) 0.3136(3)
H172 H 0.3533 0.0321 0.3191
C221 C 0.3989(3) -0.1171(3) 0.1670(5)
H173 H 0.4086 -0.1438 0.1800
C222 C 0.3049(2) -0.1392(3) 0.3464(3)
H174 H 0.3245 -0.1385 0.3413
C223 C 0.2088(2) -0.0612(2) 0.3506(3)
H175 H 0.1944 -0.0840 0.3501
C224 C 0.0536(3) 0.2229(3) 0.1470(4)
H176 H 0.0732 0.2129 0.1449
C225 C 0.1700(3) 0.2501(3) 0.3763(3)
C226 C -0.0393(3) 0.3961(3) 0.0922(5)
C227 C 0.1798(3) 0.2049(3) 0.3798(3)
C228 C 0.2878(2) -0.1020(3) 0.3440(3)
H177 H 0.2951 -0.0758 0.3364
C229 C 0.3295(4) -0.2785(4) 0.4170(4)
H178 H 0.3095 -0.2914 0.4191
C230 C 0.1452(2) -0.1436(3) 0.1263(3)
C231 C 0.1173(2) 0.0885(3) 0.1450(3)
H179 H 0.1183 0.1189 0.1440
C232 C 0.2503(3) -0.2518(3) 0.1966(3)
C233 C 0.4132(2) 0.1013(3) 0.3002(3)
H180 H 0.4292 0.1188 0.2959
C234 C 0.4101(2) 0.1154(3) 0.1764(3)
C235 C 0.1887(3) -0.3330(3) 0.1999(4)
H181 H 0.1763 -0.3384 0.1682
C236 C 0.2391(2) 0.0347(3) 0.0898(3)
H182 H 0.2271 0.0118 0.0952
C237 C 0.1268(2) -0.1102(3) 0.1365(3)
C238 C 0.3745(3) 0.1569(3) 0.1105(4)
H183 H 0.3564 0.1591 0.0810
C239 C 0.2498(2) -0.1420(3) 0.3635(3)
H184 H 0.2307 -0.1436 0.3698
C240 C 0.2340(3) -0.2948(3) 0.2609(4)
C241 C 0.2602(3) -0.2319(4) 0.1654(4)
C242 C 0.0299(2) 0.1155(3) 0.1810(3)
H185 H 0.0125 0.1176 0.1905
C243 C 0.1146(2) -0.0018(2) 0.1459(3)
C244 C 0.3825(2) 0.1185(3) 0.1320(3)
C245 C 0.3446(7) -0.3732(5) 0.4034(9)
H186 H 0.3367 -0.4017 0.3908
H187 H 0.3378 -0.3671 0.4277
H188 H 0.3692 -0.3721 0.4159
C246 C 0.2639(3) 0.0694(5) -0.0363(3)
C247 C 0.2351(5) 0.0949(6) -0.0356(6)
H189 H 0.2192 0.1021 -0.0669
H190 H 0.2437 0.1213 -0.0181
H191 H 0.2236 0.0779 -0.0213
C248 C 0.1581(5) 0.4139(5) 0.4516(6)
H192 H 0.1463 0.3955 0.4653
C249 C 0.1196(5) -0.2964(8) 0.0259(7)
H193 H 0.1038 -0.3071 -0.0040
H194 H 0.1108 -0.2699 0.0328
H195 H 0.1225 -0.3179 0.0493
C250 C 0.1545(3) -0.2870(7) 0.0255(5)
C251 C 0.2529(4) -0.2616(4) 0.0318(5)
H196 H 0.2592 -0.2319 0.0441
C252 C 0.2520(5) -0.2620(7) -0.0139(7)
H197 H 0.2350 -0.2417 -0.0336
H198 H 0.2463 -0.2908 -0.0269
H199 H 0.2741 -0.2538 -0.0117
C253 C 0.3491(6) -0.1937(6) 0.2462(7)
H200 H 0.3619 -0.1891 0.2780
C254 C 0.0058(6) 0.2843(9) 0.0116(9)
H201 H 0.0064 0.2582 -0.0046
H202 H 0.0261 0.2860 0.0405
H203 H 0.0046 0.3094 -0.0071
C255 C 0.2669(6) 0.4127(9) 0.4680(9)
H204 H 0.2679 0.4060 0.4980
H205 H 0.2668 0.4438 0.4641
H206 H 0.2866 0.4004 0.4658
C256 C 0.5239(8) 0.0486(9) 0.2427(12)
H207 H 0.5022 0.0634 0.2287
H208 H 0.5321 0.0432 0.2196
H209 H 0.5402 0.0665 0.2670
C257 C 0.3171(5) 0.0697(6) -0.0315(6)
H210 H 0.3379 0.0870 -0.0239
C258 C 0.4946(3) -0.0205(4) 0.3145(6)
H211 H 0.4901 -0.0485 0.2981
C259 C 0.5197(3) 0.0059(6) 0.2629(5)
H212 H 0.5044 -0.0146 0.2394
C260 C 0.5559(4) -0.0120(7) 0.2905(7)
H213 H 0.5661 -0.0179 0.2697
H214 H 0.5548 -0.0385 0.3060
H215 H 0.5695 0.0092 0.3132
C261 C 0.2201(4) -0.2705(4) 0.0302(4)
C262 C 0.1796(4) -0.3193(5) 0.0433(5)
C263 C 0.2904(5) 0.0884(5) -0.0330(4)
H216 H 0.2921 0.1197 -0.0262
C264 C 0.2621(2) 0.0275(3) 0.0744(3)
H217 H 0.2660 -0.0014 0.0690
C265 C 0.1559(4) 0.4718(3) 0.3955(5)
H218 H 0.1431 0.4948 0.3735
C266 C 0.3948(2) -0.0426(3) 0.1746(3)
C267 C 0.5081(2) 0.0162(4) 0.3002(5)
C268 C 0.2707(2) -0.2445(3) 0.2462(3)
C269 C 0.2673(2) -0.1787(2) 0.3652(3)
H219 H 0.2605 -0.2052 0.3728
C270 C -0.0171(3) 0.3987(5) 0.0728(5)
H220 H -0.0019 0.4242 0.0805
C271 C 0.0093(2) 0.2113(3) 0.1672(3)
H221 H -0.0024 0.1931 0.1787
C272 C 0.3018(3) -0.2221(3) 0.2615(4)
C273 C 0.2169(2) 0.0744(3) 0.3661(3)
H222 H 0.1993 0.0637 0.3726
C274 C 0.1872(3) -0.1694(3) 0.1033(4)
H223 H 0.2046 -0.1630 0.0947
C275 C 0.0859(2) 0.3835(3) 0.2719(4)
C276 C 0.1875(3) 0.4537(3) 0.3990(4)
H224 H 0.1961 0.4630 0.3766
C277 C 0.0604(2) 0.3713(3) 0.2272(4)
C278 C 0.2696(2) 0.1049(3) 0.3489(3)
C279 C 0.3928(2) 0.0340(3) 0.3030(4)
H225 H 0.3934 0.0039 0.2989
C280 C 0.3399(3) 0.1150(3) 0.3270(3)
C281 C 0.1367(2) -0.1876(3) 0.1270(3)
H226 H 0.1193 -0.1950 0.1354
C282 C 0.0675(3) 0.3752(3) 0.1896(4)
C283 C 0.4974(3) 0.0611(6) 0.3528(4)
H227 H 0.4941 0.0907 0.3620
C284 C 0.0450(3) 0.3707(3) 0.3045(4)
C285 C -0.0546(2) 0.3558(3) 0.0903(4)
H228 H -0.0666 0.3512 0.1098
C286 C -0.0563(6) 0.2752(7) -0.0198(8)
H229 H -0.0534 0.2499 -0.0354
H230 H -0.0616 0.3000 -0.0401
H231 H -0.0748 0.2703 -0.0112
C287 C 0.3613(2) -0.0776(3) 0.1036(4)
H232 H 0.3447 -0.0765 0.0730
C288 C 0.0059(4) 0.3637(5) 0.3370(5)
H233 H 0.0009 0.3667 0.3624
C289 C 0.0433(3) 0.2655(3) 0.1359(4)
H234 H 0.0553 0.2834 0.1246
C290 C 0.3433(3) -0.2985(3) 0.3887(4)
C291 C 0.3932(3) 0.1937(3) 0.1321(4)
H235 H 0.3877 0.2204 0.1166
C292 C 0.3195(2) 0.0250(5) -0.0299(4)
C293 C 0.3875(3) 0.1204(3) 0.3083(3)
H236 H 0.3856 0.1507 0.3083
C294 C 0.3415(4) -0.2381(4) 0.4369(4)
H237 H 0.3284 -0.2227 0.4508
C295 C -0.0257(5) 0.3257(5) 0.0482(6)
C296 C 0.0373(3) 0.3716(4) 0.3420(5)
H238 H 0.0545 0.3779 0.3715
C297 C -0.0494(4) 0.3200(5) 0.0673(5)
H239 H -0.0580 0.2910 0.0699
C298 C 0.3757(3) -0.1161(3) 0.1225(4)
H240 H 0.3696 -0.1416 0.1048
C299 C 0.1431(4) 0.4482(6) 0.4270(5)
C300 C 0.2108(4) -0.3137(4) 0.0458(4)
H241 H 0.2290 -0.3344 0.0638
C301 C 0.3071(4) 0.1611(3) 0.3402(5)
H242 H 0.2968 0.1865 0.3442
C302 C 0.1711(3) -0.1356(3) 0.1154(3)
H243 H 0.1786 -0.1070 0.1160
C303 C 0.2814(3) -0.2925(5) 0.0653(7)
H244 H 0.2822 -0.2908 0.0959
H245 H 0.3031 -0.2840 0.0666
H246 H 0.2763 -0.3220 0.0541
C304 C 0.1511(4) 0.4326(4) 0.2386(6)
H247 H 0.1682 0.4398 0.2678
C305 C 0.3638(3) -0.2136(3) 0.4262(3)
C306 C 0.4829(4) -0.0116(7) 0.3468(6)
H248 H 0.4687 -0.0341 0.3517
C307 C 0.4086(3) -0.0819(4) 0.1931(5)
H249 H 0.4247 -0.0839 0.2240
C308 C -0.0124(3) 0.3514(4) 0.2574(5)
H250 H -0.0295 0.3451 0.2279
C309 C 0.1613(4) -0.2473(7) 0.0125(5)
H251 H 0.1452 -0.2229 0.0063
C310 C 0.1788(3) 0.3219(3) 0.3574(4)
H252 H 0.1898 0.3415 0.3460
C311 C 0.4185(3) 0.1917(3) 0.1740(4)
H253 H 0.4305 0.2170 0.1884
C312 C 0.1718(2) 0.1264(3) 0.1294(3)
H254 H 0.1598 0.1486 0.1360
C313 C 0.0205(2) 0.3612(3) 0.2618(4)
C314 C 0.3344(3) 0.1582(3) 0.3334(5)
H255 H 0.3480 0.1815 0.3330
C315 C 0.0914(3) -0.0722(3) 0.1537(4)
H256 H 0.0741 -0.0633 0.1617
C316 C 0.4850(4) 0.0262(6) 0.3674(5)
C317 C 0.1216(3) 0.4097(3) 0.2341(4)
C318 C 0.0992(3) -0.1131(3) 0.1477(4)
H257 H 0.0883 -0.1385 0.1504
C319 C 0.1529(3) -0.2187(4) 0.1158(4)
H258 H 0.1464 -0.2476 0.1164
C320 C -0.0253(5) 0.2834(7) 0.0213(7)
H259 H -0.0223 0.2589 0.0424
C321 C -0.0103(4) 0.3637(5) 0.0497(6)
H260 H 0.0088 0.3653 0.0411
C322 C -0.0473(5) 0.4320(4) 0.1166(6)
H261 H -0.0654 0.4497 0.0945
H262 H -0.0272 0.4497 0.1325
H263 H -0.0544 0.4202 0.1389
C323 C 0.0976(3) 0.3957(3) 0.1932(4)
C324 C 0.1007(3) 0.4063(4) 0.1532(6)
H264 H 0.0837 0.3974 0.1246
C325 C 0.1291(4) 0.4304(5) 0.1544(6)
H265 H 0.1314 0.4371 0.1274
C326 C 0.1541(5) 0.4439(5) 0.1992(6)
H266 H 0.1727 0.4607 0.2014
C327 C -0.0204(3) 0.3508(5) 0.2931(5)
H267 H -0.0420 0.3423 0.2898
C328 C 0.2410(4) 0.4086(6) 0.3894(7)
H268 H 0.2213 0.4025 0.3608
H269 H 0.2606 0.3936 0.3898
H270 H 0.2453 0.4395 0.3921
C329 C 0.2344(6) 0.3932(6) 0.4301(6)
H271 H 0.2329 0.3614 0.4319
C330 C 0.2023(3) 0.4175(4) 0.4265(4)
C331 C 0.1861(4) 0.4004(5) 0.4502(5)
H272 H 0.1933 0.3709 0.4622
C332 C 0.1093(5) 0.4643(7) 0.4209(9)
H273 H 0.1121 0.4827 0.4466
H274 H 0.0949 0.4399 0.4195
H275 H 0.0989 0.4807 0.3924
C333 C 0.2005(4) -0.3461(5) 0.2780(6)
H276 H 0.1960 -0.3616 0.2999
C334 C 0.3627(6) -0.1865(9) 0.2184(8)
H277 H 0.3848 -0.1752 0.2295
C335 C 0.3138(4) -0.2090(5) 0.2288(5)
C336 C 0.2946(5) -0.2136(6) 0.1826(5)
C337 C 0.3104(5) -0.2084(6) 0.1517(6)
H278 H 0.2980 -0.2134 0.1199
C338 C 0.3432(5) -0.1962(8) 0.1691(7)
H279 H 0.3539 -0.1938 0.1493
C339 C 0.3673(3) -0.2764(5) 0.3791(5)
H280 H 0.3731 -0.2869 0.3543
C340 C 0.3770(3) -0.2331(5) 0.3974(6)
H281 H 0.3895 -0.2148 0.3848
C341 C 0.3692(8) -0.1700(5) 0.4487(9)
H282 H 0.3891 -0.1710 0.4781
H283 H 0.3495 -0.1622 0.4534
H284 H 0.3727 -0.1487 0.4290
C342 C 0.3298(5) -0.3407(5) 0.3669(7)
H285 H 0.3059 -0.3395 0.3619
C343 C 0.3268(6) -0.3487(6) 0.3204(8)
H286 H 0.3178 -0.3775 0.3105
H287 H 0.3490 -0.3464 0.3206
H288 H 0.3117 -0.3274 0.2993
C344 C 0.4720(6) 0.0332(9) 0.4006(5)
H289 H 0.4900 0.0290 0.4313
H290 H 0.4538 0.0128 0.3954
H291 H 0.4634 0.0625 0.3978
C345 C 0.3509(3) 0.0012(7) -0.0282(5)
H292 H 0.3498 -0.0283 -0.0169
C346 C 0.3471(5) -0.0048(7) -0.0773(5)
H293 H 0.3660 -0.0216 -0.0767
H294 H 0.3468 0.0233 -0.0909
H295 H 0.3260 -0.0198 -0.0956
C347 C 0.2913(3) -0.0013(3) -0.0323(3)
H296 H 0.2937 -0.0329 -0.0266
C348 C 0.3830(3) 0.0219(11) 0.0093(11)
H297 H 0.4029 0.0063 0.0113
H298 H 0.3820 0.0205 0.0387
H299 H 0.3845 0.0518 0.0014
S1 S 0.12905(6) 0.08136(7) -0.14267(9)
F1 F 0.06615(14) 0.07194(18) -0.1592(2)
F2 F 0.08131(15) 0.13767(17) -0.1606(2)
F3 F 0.09620(17) 0.1049(3) -0.0963(2)
O25 O 0.13849(19) 0.0423(2) -0.1148(3)
O26 O 0.11765(19) 0.0715(2) -0.1909(2)
O27 O 0.15147(16) 0.1161(2) -0.1265(3)
C349 C 0.0917(3) 0.1001(4) -0.1389(4)
S2 S 0.28714(7) -0.21355(9) 0.50179(11)
F4 F 0.2835(2) -0.2846(3) 0.5411(4)
F5 F 0.3253(3) -0.2813(5) 0.5240(6)
F6 F 0.3262(3) -0.2497(4) 0.5784(4)
O28 O 0.2670(3) -0.2323(4) 0.4611(4)
O29 O 0.2675(4) -0.1938(3) 0.5204(9)
O30 O 0.3148(2) -0.1886(3) 0.5028(4)
C350 C 0.3070(4) -0.2577(5) 0.5392(6)
S3 S 0.47137(14) 0.20129(12) 0.31819(17)
F7 F 0.4642(3) 0.1670(4) 0.3876(3)
F8 F 0.4714(3) 0.2360(4) 0.3917(4)
F9 F 0.5128(3) 0.1911(7) 0.4060(5)
O31 O 0.4846(2) 0.1601(3) 0.3101(4)
O32 O 0.4351(3) 0.2044(3) 0.2967(3)
O33 O 0.4897(6) 0.2371(5) 0.3185(8)
C351 C 0.4815(4) 0.1987(7) 0.3815(8)
S4 S -0.08205(15) -0.05394(13) 0.02355(19)
F10 F -0.0576(4) -0.0555(3) -0.0401(4)
F11 F -0.0762(2) 0.0124(2) -0.0246(3)
F12 F -0.0235(2) -0.0184(5) 0.0307(4)
O34 O -0.0770(5) -0.0271(6) 0.0776(5)
O35 O -0.1292(2) -0.0519(7) -0.0184(6)
O36 O -0.0702(5) -0.1121(3) 0.0341(7)
C352 C -0.0581(2) -0.0273(2) -0.0042(3)
S5 S 0.27835(15) 0.2910(2) 0.34265(17)
F13 F 0.2920(4) 0.3061(5) 0.4319(3)
F14 F 0.3304(4) 0.2585(7) 0.4192(4)
F15 F 0.2742(5) 0.2333(5) 0.4046(5)
O37 O 0.3065(4) 0.3411(4) 0.3501(6)
O38 O 0.2840(5) 0.2520(4) 0.3052(5)
O39 O 0.2349(3) 0.3100(4) 0.3254(5)
C353 C 0.2951(3) 0.2689(4) 0.4052(3)
S6 S 0.38876(9) 0.24839(10) 0.59198(12)
F16 F 0.3695(3) 0.1899(4) 0.5297(3)
F17 F 0.3403(3) 0.2509(4) 0.5116(3)
F18 F 0.3336(2) 0.2055(3) 0.5561(3)
O40 O 0.4035(2) 0.2156(3) 0.6242(3)
O41 O 0.4106(3) 0.2655(3) 0.5738(5)
O42 O 0.3706(3) 0.2811(3) 0.6051(4)
C354 C 0.3567(4) 0.2208(5) 0.5453(5)
S7 S 0.06869(10) -0.20892(16) -0.08827(19)
F19 F 0.0279(4) -0.2709(4) -0.1427(3)
F20 F 0.0817(3) -0.2959(3) -0.0847(4)
F21 F 0.0374(3) -0.2741(5) -0.0640(5)
O43 O 0.0310(3) -0.1749(4) -0.0975(5)
O44 O 0.1030(3) -0.2007(5) -0.0313(3)
O45 O 0.0805(4) -0.1983(5) -0.1365(4)
C355 C 0.0530(3) -0.2684(3) -0.0952(4)
S8 S 0.21660(8) -0.08812(9) 0.02903(13)
F22 F 0.2783(2) -0.0816(3) 0.0420(4)
F23 F 0.2643(3) -0.1443(3) 0.0557(6)
F24 F 0.2463(4) -0.1190(6) -0.0162(5)
O46 O 0.2097(3) -0.0572(4) -0.0060(6)
O47 O 0.2265(3) -0.0743(5) 0.0756(5)
O48 O 0.1932(2) -0.1230(3) 0.0149(3)
C356 C 0.2508(4) -0.1098(5) 0.0280(6)
S9 S 0.3996(5) 0.0946(6) -0.1646(5)
F25 F 0.4029(8) 0.0207(6) -0.1152(9)
F26 F 0.4291(7) 0.0843(10) -0.0702(6)
F27 F 0.3684(6) 0.0782(10) -0.1076(9)
O49 O 0.4381(7) 0.0780(11) -0.1718(10)
O50 O 0.3605(7) 0.0767(11) -0.2164(7)
O51 O 0.3989(9) 0.1547(6) -0.1576(11)
C357 C 0.4001(5) 0.0676(7) -0.1110(6)
S10 S 0.58327(11) 0.1383(2) 0.5275(2)
F28 F 0.5638(4) 0.0690(6) 0.4669(7)
F29 F 0.5507(5) 0.0644(5) 0.5323(6)
F30 F 0.5193(2) 0.1128(5) 0.4696(6)
O52 O 0.6188(3) 0.1031(5) 0.5416(6)
O53 O 0.5809(4) 0.1818(4) 0.4871(5)
O54 O 0.5761(5) 0.1584(5) 0.5765(6)
C358 C 0.5523(3) 0.0928(3) 0.4970(5)
S11 S 0.64545(19) 0.06320(16) 0.3135(2)
F31 F 0.6029(4) 0.0108(5) 0.2426(5)
F32 F 0.5932(4) 0.0876(6) 0.2318(5)
F33 F 0.6413(4) 0.0546(5) 0.2263(4)
O55 O 0.6819(3) 0.0242(4) 0.3345(6)
O56 O 0.6621(4) 0.1194(3) 0.3208(6)
O57 O 0.6185(4) 0.0550(5) 0.3434(5)
C359 C 0.6187(3) 0.0529(4) 0.2484(3)
S12 S 0.6511(3) 0.0714(3) 0.0676(3)
O58 O 0.6900(4) 0.0503(6) 0.0645(8)
O59 O 0.6608(5) 0.1097(5) 0.1148(6)
O60 O 0.6224(5) 0.0968(6) 0.0103(5)
F34 F 0.6082(5) 0.0021(5) 0.0298(5)
F35 F 0.6038(4) 0.0384(6) 0.0940(7)
F36 F 0.6521(4) -0.0078(5) 0.1070(6)
C360 C 0.6267(4) 0.0221(4) 0.0754(5)
O61 O 0.1152(5) -0.2409(7) -0.2403(6)
C361 C 0.1271(7) -0.2763(7) -0.2619(9)
H300 H 0.1085 -0.2878 -0.2896
H301 H 0.1379 -0.2999 -0.2402
C362 C 0.1529(8) -0.2515(11) -0.2736(10)
H302 H 0.1623 -0.2709 -0.2888
H303 H 0.1710 -0.2406 -0.2455
H304 H 0.1416 -0.2275 -0.2939
C363 C 0.0861(6) -0.2596(5) -0.2334(8)
H305 H 0.0933 -0.2846 -0.2127
H306 H 0.0676 -0.2682 -0.2628
C364 C 0.0757(6) -0.2219(5) -0.2118(6)
H307 H 0.0572 -0.2309 -0.2046
H308 H 0.0683 -0.1978 -0.2332
H309 H 0.0949 -0.2130 -0.1837
O62 O 0.1795(3) 0.0267(4) -0.0238(4)
O63 O 0.2316(4) 0.1991(6) 0.2465(6)
O64 O 0.7568(6) 0.1017(8) 0.1003(9)
O65 O 0.2428(3) 0.2132(3) 0.0942(4)
O66 O 0.5709(3) 0.2584(3) 0.4762(4)
O67 O 0.4499(4) 0.2974(4) 0.2182(6)
O68 O 0.2438(5) 0.3492(6) -0.0843(6)
O69 O 0.1219(4) 0.2042(5) 0.1285(6)
O70 O -0.2048(8) -0.0271(10) -0.0546(10)
loop_
_geom_bond_atom_site_label_1
_geom_bond_atom_site_label_2
_geom_bond_site_symmetry_1
_geom_bond_site_symmetry_2
Ru1 O1 1_555 1_555
Ru2 O7 1_555 1_555
Ru3 O11 1_555 1_555
Ru4 O9 1_555 1_555
Ru5 O3 1_555 1_555
Ru6 O4 1_555 1_555
O1 C74 1_555 1_555
O2 Ru1 1_555 1_555
O3 C12 1_555 1_555
O4 C34 1_555 1_555
O5 Ru5 1_555 1_555
O6 Ru6 1_555 1_555
O7 C48 1_555 1_555
O8 Ru2 1_555 1_555
O9 C21 1_555 1_555
O10 Ru4 1_555 1_555
O11 C15 1_555 1_555
O12 Ru3 1_555 1_555
N1 N4 1_555 1_555
N2 N5 1_555 1_555
N3 N6 1_555 1_555
N4 C43 1_555 1_555
N5 C16 1_555 1_555
N6 C70 1_555 1_555
N7 N12 1_555 1_555
N8 N11 1_555 1_555
N9 N10 1_555 1_555
N10 C20 1_555 1_555
N11 C39 1_555 1_555
N12 C64 1_555 1_555
N13 Ru1 1_555 1_555
N14 Ru2 1_555 1_555
N15 Ru6 1_555 1_555
N16 Ru5 1_555 1_555
N17 Ru3 1_555 1_555
N18 Ru4 1_555 1_555
C1 H1 1_555 1_555
C2 N16 1_555 1_555
H2 C2 1_555 1_555
C3 C16 1_555 1_555
C4 N9 1_555 1_555
C5 N13 1_555 1_555
H3 C5 1_555 1_555
C6 N3 1_555 1_555
H4 C6 1_555 1_555
C7 H5 1_555 1_555
C8 C50 1_555 1_555
C9 Ru6 1_555 1_555
H6 C9 1_555 1_555
C10 O6 1_555 1_555
C11 H7 1_555 1_555
C12 C60 1_555 1_555
C13 Ru6 1_555 1_555
C14 N1 1_555 1_555
C15 C58 1_555 1_555
C16 C27 1_555 1_555
C17 C5 1_555 1_555
H8 C17 1_555 1_555
C18 N18 1_555 1_555
H9 C18 1_555 1_555
C19 C21 1_555 1_555
C20 C59 1_555 1_555
C21 C80 1_555 1_555
C22 C3 1_555 1_555
H10 C22 1_555 1_555
C23 C34 1_555 1_555
C24 N8 1_555 1_555
C25 H11 1_555 1_555
C26 Ru5 1_555 1_555
H12 C26 1_555 1_555
C27 H13 1_555 1_555
C28 H14 1_555 1_555
C29 N14 1_555 1_555
H15 C29 1_555 1_555
C30 N8 1_555 1_555
H16 C30 1_555 1_555
C31 C3 1_555 1_555
H17 C31 1_555 1_555
C32 C17 1_555 1_555
C33 Ru5 1_555 1_555
H18 C33 1_555 1_555
C34 C108 1_555 1_555
C35 N3 1_555 1_555
C36 C42 1_555 1_555
C37 C14 1_555 1_555
H19 C37 1_555 1_555
C38 C4 1_555 1_555
H20 C38 1_555 1_555
C39 C61 1_555 1_555
C40 N18 1_555 1_555
H21 C40 1_555 1_555
C41 N9 1_555 1_555
H22 C41 1_555 1_555
C42 O10 1_555 1_555
C43 C32 1_555 1_555
C44 N13 1_555 1_555
H23 C44 1_555 1_555
C45 C10 1_555 1_555
C46 O8 1_555 1_555
C47 N2 1_555 1_555
C48 C110 1_555 1_555
C49 C14 1_555 1_555
H24 C49 1_555 1_555
C50 H25 1_555 1_555
C51 C2 1_555 1_555
H26 C51 1_555 1_555
C52 N7 1_555 1_555
H27 C52 1_555 1_555
C53 C19 1_555 1_555
C54 C4 1_555 1_555
H28 C54 1_555 1_555
C55 N15 1_555 1_555
H29 C55 1_555 1_555
C56 H30 1_555 1_555
C57 Ru3 1_555 1_555
H31 C57 1_555 1_555
C58 C80 1_555 1_555
C59 C41 1_555 1_555
H32 C59 1_555 1_555
C60 C108 1_555 1_555
C61 C30 1_555 1_555
H33 C61 1_555 1_555
C62 N7 1_555 1_555
C63 C23 1_555 1_555
H34 C63 1_555 1_555
C64 C8 1_555 1_555
C65 C39 1_555 1_555
C66 C68 1_555 1_555
C67 H35 1_555 1_555
C68 C55 1_555 1_555
H36 C68 1_555 1_555
C69 C43 1_555 1_555
H37 C69 1_555 1_555
C70 C66 1_555 1_555
C71 Ru2 1_555 1_555
H38 C71 1_555 1_555
C72 C76 1_555 1_555
C73 C32 1_555 1_555
H39 C73 1_555 1_555
C74 C87 1_555 1_555
C75 C53 1_555 1_555
H40 C75 1_555 1_555
C76 O2 1_555 1_555
C77 Ru6 1_555 1_555
H41 C77 1_555 1_555
C78 C52 1_555 1_555
H42 C78 1_555 1_555
C79 Ru5 1_555 1_555
H43 C79 1_555 1_555
C80 C42 1_555 1_555
C81 C65 1_555 1_555
H44 C81 1_555 1_555
C82 Ru2 1_555 1_555
H45 C82 1_555 1_555
C83 Ru5 1_555 1_555
H46 C83 1_555 1_555
C84 C45 1_555 1_555
C85 N1 1_555 1_555
H47 C85 1_555 1_555
C86 C66 1_555 1_555
H48 C86 1_555 1_555
C87 C94 1_555 1_555
C88 N2 1_555 1_555
H49 C88 1_555 1_555
C89 C46 1_555 1_555
C90 Ru1 1_555 1_555
H50 C90 1_555 1_555
C91 C15 1_555 1_555
C92 C28 1_555 1_555
H51 C92 1_555 1_555
C93 C29 1_555 1_555
H52 C93 1_555 1_555
C94 C28 1_555 1_555
H53 C94 1_555 1_555
C95 O12 1_555 1_555
C96 C45 1_555 1_555
H54 C96 1_555 1_555
C97 H55 1_555 1_555
C98 Ru3 1_555 1_555
H56 C98 1_555 1_555
C99 Ru6 1_555 1_555
C100 Ru3 1_555 1_555
H57 C100 1_555 1_555
C101 C20 1_555 1_555
C102 Ru5 1_555 1_555
C103 Ru6 1_555 1_555
H58 C103 1_555 1_555
C104 Ru6 1_555 1_555
H59 C104 1_555 1_555
C105 N14 1_555 1_555
H60 C105 1_555 1_555
C106 C6 1_555 1_555
H61 C106 1_555 1_555
C107 Ru4 1_555 1_555
C108 C10 1_555 1_555
C109 Ru4 1_555 1_555
C110 C87 1_555 1_555
C111 C46 1_555 1_555
C112 C36 1_555 1_555
H62 C112 1_555 1_555
C113 Ru3 1_555 1_555
H63 C113 1_555 1_555
C114 C8 1_555 1_555
H64 C114 1_555 1_555
C115 Ru2 1_555 1_555
H65 C115 1_555 1_555
C116 N16 1_555 1_555
H66 C116 1_555 1_555
C117 Ru3 1_555 1_555
C118 N17 1_555 1_555
H67 C118 1_555 1_555
C119 Ru1 1_555 1_555
H68 C119 1_555 1_555
C120 Ru4 1_555 1_555
H69 C120 1_555 1_555
C121 Ru5 1_555 1_555
C122 Ru4 1_555 1_555
H70 C122 1_555 1_555
C123 C12 1_555 1_555
C124 C1 1_555 1_555
H71 C124 1_555 1_555
C125 C25 1_555 1_555
H72 C125 1_555 1_555
C126 Ru4 1_555 1_555
H73 C126 1_555 1_555
C127 N17 1_555 1_555
H74 C127 1_555 1_555
C128 N15 1_555 1_555
H75 C128 1_555 1_555
C129 Ru1 1_555 1_555
H76 C129 1_555 1_555
C130 C123 1_555 1_555
H77 C130 1_555 1_555
C131 C130 1_555 1_555
H78 C131 1_555 1_555
C132 C63 1_555 1_555
H79 C132 1_555 1_555
C133 C96 1_555 1_555
H80 C133 1_555 1_555
C134 C133 1_555 1_555
H81 C134 1_555 1_555
C135 C84 1_555 1_555
H82 C135 1_555 1_555
C136 O5 1_555 1_555
C137 C13 1_555 1_555
H83 C137 1_555 1_555
H84 C137 1_555 1_555
H85 C137 1_555 1_555
C138 H86 1_555 1_555
H87 C138 1_555 1_555
H88 C138 1_555 1_555
C139 C99 1_555 1_555
H89 C139 1_555 1_555
C140 C139 1_555 1_555
H90 C140 1_555 1_555
H91 C140 1_555 1_555
H92 C140 1_555 1_555
C141 C1 1_555 1_555
H93 C141 1_555 1_555
C142 H94 1_555 1_555
H95 C142 1_555 1_555
H96 C142 1_555 1_555
C143 C102 1_555 1_555
H97 C143 1_555 1_555
H98 C143 1_555 1_555
H99 C143 1_555 1_555
C144 H100 1_555 1_555
H101 C144 1_555 1_555
H102 C144 1_555 1_555
C145 H103 1_555 1_555
H104 C145 1_555 1_555
H105 C145 1_555 1_555
C146 H106 1_555 1_555
H107 C146 1_555 1_555
H108 C146 1_555 1_555
C147 C121 1_555 1_555
H109 C147 1_555 1_555
C148 C147 1_555 1_555
H110 C148 1_555 1_555
H111 C148 1_555 1_555
H112 C148 1_555 1_555
C149 C19 1_555 1_555
H113 C149 1_555 1_555
C150 C67 1_555 1_555
H114 C150 1_555 1_555
C151 Ru2 1_555 1_555
C152 C151 1_555 1_555
H115 C152 1_555 1_555
H116 C152 1_555 1_555
H117 C152 1_555 1_555
C153 Ru2 1_555 1_555
H118 C153 1_555 1_555
C154 Ru2 1_555 1_555
C155 C144 1_555 1_555
H119 C155 1_555 1_555
C156 Ru3 1_555 1_555
C157 C145 1_555 1_555
H120 C157 1_555 1_555
C158 C157 1_555 1_555
H121 C158 1_555 1_555
H122 C158 1_555 1_555
H123 C158 1_555 1_555
C159 C107 1_555 1_555
H124 C159 1_555 1_555
H125 C159 1_555 1_555
H126 C159 1_555 1_555
C160 C109 1_555 1_555
H127 C160 1_555 1_555
C161 C160 1_555 1_555
H128 C161 1_555 1_555
H129 C161 1_555 1_555
H130 C161 1_555 1_555
C162 C160 1_555 1_555
H131 C162 1_555 1_555
H132 C162 1_555 1_555
H133 C162 1_555 1_555
C163 Ru4 1_555 1_555
H134 C163 1_555 1_555
C164 C74 1_555 1_555
C165 C92 1_555 1_555
H135 C165 1_555 1_555
C166 C89 1_555 1_555
H136 C166 1_555 1_555
C167 H137 1_555 1_555
H138 C167 1_555 1_555
H139 C167 1_555 1_555
C168 Ru1 1_555 1_555
C169 H140 1_555 1_555
C170 C169 1_555 1_555
H141 C170 1_555 1_555
H142 C170 1_555 1_555
H143 C170 1_555 1_555
C171 Ru1 1_555 1_555
C172 Ru1 1_555 1_555
H144 C172 1_555 1_555
C173 C169 1_555 1_555
H145 C173 1_555 1_555
H146 C173 1_555 1_555
H147 C173 1_555 1_555
C174 C117 1_555 1_555
H148 C174 1_555 1_555
H149 C174 1_555 1_555
H150 C174 1_555 1_555
Ru7 O13 1_555 1_555
Ru8 O15 1_555 1_555
Ru9 O19 1_555 1_555
Ru10 O23 1_555 1_555
Ru11 O21 1_555 1_555
Ru12 O17 1_555 1_555
O13 C180 1_555 1_555
O14 Ru7 1_555 1_555
O15 C282 1_555 1_555
O16 Ru8 1_555 1_555
O17 C188 1_555 1_555
O18 Ru12 1_555 1_555
O19 C272 1_555 1_555
O20 Ru9 1_555 1_555
O21 C196 1_555 1_555
O22 Ru11 1_555 1_555
O23 C191 1_555 1_555
O24 Ru10 1_555 1_555
N19 N21 1_555 1_555
N20 N24 1_555 1_555
N21 C280 1_555 1_555
N22 N23 1_555 1_555
N23 C214 1_555 1_555
N24 C227 1_555 1_555
N25 N26 1_555 1_555
N26 C237 1_555 1_555
N27 N28 1_555 1_555
N28 C204 1_555 1_555
N29 N30 1_555 1_555
N30 C184 1_555 1_555
N31 Ru11 1_555 1_555
N32 Ru12 1_555 1_555
N33 Ru7 1_555 1_555
N34 Ru8 1_555 1_555
N35 Ru9 1_555 1_555
N36 Ru10 1_555 1_555
C175 H151 1_555 1_555
C176 H152 1_555 1_555
C177 O22 1_555 1_555
C178 N31 1_555 1_555
H153 C178 1_555 1_555
C179 C177 1_555 1_555
C180 C275 1_555 1_555
C181 O20 1_555 1_555
C182 N20 1_555 1_555
C183 O18 1_555 1_555
C184 C176 1_555 1_555
C185 H154 1_555 1_555
C186 H155 1_555 1_555
C187 C183 1_555 1_555
C188 C187 1_555 1_555
C189 H156 1_555 1_555
C190 N20 1_555 1_555
H157 C190 1_555 1_555
C191 C198 1_555 1_555
C192 N29 1_555 1_555
C193 N22 1_555 1_555
H158 C193 1_555 1_555
C194 C184 1_555 1_555
C195 C204 1_555 1_555
C196 C199 1_555 1_555
C197 C182 1_555 1_555
H159 C197 1_555 1_555
C198 C235 1_555 1_555
C199 C177 1_555 1_555
C200 C220 1_555 1_555
C201 N22 1_555 1_555
C202 N27 1_555 1_555
H160 C202 1_555 1_555
C203 N34 1_555 1_555
H161 C203 1_555 1_555
C204 C242 1_555 1_555
C205 C178 1_555 1_555
H162 C205 1_555 1_555
C206 N33 1_555 1_555
H163 C206 1_555 1_555
C207 C214 1_555 1_555
C208 C190 1_555 1_555
H164 C208 1_555 1_555
C209 C206 1_555 1_555
H165 C209 1_555 1_555
C210 O14 1_555 1_555
C211 Ru12 1_555 1_555
H166 C211 1_555 1_555
C212 H167 1_555 1_555
C213 O16 1_555 1_555
C214 C223 1_555 1_555
C215 N27 1_555 1_555
C216 Ru10 1_555 1_555
H168 C216 1_555 1_555
C217 H169 1_555 1_555
C218 H170 1_555 1_555
C219 Ru11 1_555 1_555
H171 C219 1_555 1_555
C220 H172 1_555 1_555
C221 H173 1_555 1_555
C222 N35 1_555 1_555
H174 C222 1_555 1_555
C223 C193 1_555 1_555
H175 C223 1_555 1_555
C224 C195 1_555 1_555
H176 C224 1_555 1_555
C225 C209 1_555 1_555
C226 Ru8 1_555 1_555
C227 C208 1_555 1_555
C228 C207 1_555 1_555
H177 C228 1_555 1_555
C229 Ru9 1_555 1_555
H178 C229 1_555 1_555
C230 C237 1_555 1_555
C231 C192 1_555 1_555
H179 C231 1_555 1_555
C232 C191 1_555 1_555
C233 N32 1_555 1_555
H180 C233 1_555 1_555
C234 C186 1_555 1_555
C235 C175 1_555 1_555
H181 C235 1_555 1_555
C236 C194 1_555 1_555
H182 C236 1_555 1_555
C237 C318 1_555 1_555
C238 H183 1_555 1_555
C239 C207 1_555 1_555
H184 C239 1_555 1_555
C240 C181 1_555 1_555
C241 O24 1_555 1_555
C242 C202 1_555 1_555
H185 C242 1_555 1_555
C243 N25 1_555 1_555
C244 C196 1_555 1_555
C245 H186 1_555 1_555
H187 C245 1_555 1_555
H188 C245 1_555 1_555
C246 Ru11 1_555 1_555
C247 C246 1_555 1_555
H189 C247 1_555 1_555
H190 C247 1_555 1_555
H191 C247 1_555 1_555
C248 Ru7 1_555 1_555
H192 C248 1_555 1_555
C249 H193 1_555 1_555
H194 C249 1_555 1_555
H195 C249 1_555 1_555
C250 Ru10 1_555 1_555
C251 H196 1_555 1_555
C252 C251 1_555 1_555
H197 C252 1_555 1_555
H198 C252 1_555 1_555
H199 C252 1_555 1_555
C253 H200 1_555 1_555
C254 H201 1_555 1_555
H202 C254 1_555 1_555
H203 C254 1_555 1_555
C255 H204 1_555 1_555
H205 C255 1_555 1_555
H206 C255 1_555 1_555
C256 H207 1_555 1_555
H208 C256 1_555 1_555
H209 C256 1_555 1_555
C257 Ru11 1_555 1_555
H210 C257 1_555 1_555
C258 Ru12 1_555 1_555
H211 C258 1_555 1_555
C259 C256 1_555 1_555
H212 C259 1_555 1_555
C260 C259 1_555 1_555
H213 C260 1_555 1_555
H214 C260 1_555 1_555
H215 C260 1_555 1_555
C261 Ru10 1_555 1_555
C262 Ru10 1_555 1_555
C263 Ru11 1_555 1_555
H216 C263 1_555 1_555
C264 N31 1_555 1_555
H217 C264 1_555 1_555
C265 Ru7 1_555 1_555
H218 C265 1_555 1_555
C266 C179 1_555 1_555
C267 Ru12 1_555 1_555
C268 C181 1_555 1_555
C269 N35 1_555 1_555
H219 C269 1_555 1_555
C270 Ru8 1_555 1_555
H220 C270 1_555 1_555
C271 C195 1_555 1_555
H221 C271 1_555 1_555
C272 C268 1_555 1_555
C273 C182 1_555 1_555
H222 C273 1_555 1_555
C274 N36 1_555 1_555
H223 C274 1_555 1_555
C275 C210 1_555 1_555
C276 Ru7 1_555 1_555
H224 C276 1_555 1_555
C277 C213 1_555 1_555
C278 N19 1_555 1_555
C279 N32 1_555 1_555
H225 C279 1_555 1_555
C280 C200 1_555 1_555
C281 C230 1_555 1_555
H226 C281 1_555 1_555
C282 C277 1_555 1_555
C283 Ru12 1_555 1_555
H227 C283 1_555 1_555
C284 C210 1_555 1_555
C285 Ru8 1_555 1_555
H228 C285 1_555 1_555
C286 H229 1_555 1_555
H230 C286 1_555 1_555
H231 C286 1_555 1_555
C287 C179 1_555 1_555
H232 C287 1_555 1_555
C288 H233 1_555 1_555
C289 N34 1_555 1_555
H234 C289 1_555 1_555
C290 Ru9 1_555 1_555
C291 C238 1_555 1_555
H235 C291 1_555 1_555
C292 Ru11 1_555 1_555
C293 C200 1_555 1_555
H236 C293 1_555 1_555
C294 Ru9 1_555 1_555
H237 C294 1_555 1_555
C295 Ru8 1_555 1_555
C296 C284 1_555 1_555
H238 C296 1_555 1_555
C297 Ru8 1_555 1_555
H239 C297 1_555 1_555
C298 C221 1_555 1_555
H240 C298 1_555 1_555
C299 Ru7 1_555 1_555
C300 Ru10 1_555 1_555
H241 C300 1_555 1_555
C301 N19 1_555 1_555
H242 C301 1_555 1_555
C302 C230 1_555 1_555
H243 C302 1_555 1_555
C303 C251 1_555 1_555
H244 C303 1_555 1_555
H245 C303 1_555 1_555
H246 C303 1_555 1_555
C304 H247 1_555 1_555
C305 Ru9 1_555 1_555
C306 Ru12 1_555 1_555
H248 C306 1_555 1_555
C307 C221 1_555 1_555
H249 C307 1_555 1_555
C308 H250 1_555 1_555
C309 Ru10 1_555 1_555
H251 C309 1_555 1_555
C310 N33 1_555 1_555
H252 C310 1_555 1_555
C311 C186 1_555 1_555
H253 C311 1_555 1_555
C312 N29 1_555 1_555
H254 C312 1_555 1_555
C313 C213 1_555 1_555
C314 C280 1_555 1_555
H255 C314 1_555 1_555
C315 N25 1_555 1_555
H256 C315 1_555 1_555
C316 Ru12 1_555 1_555
C317 C180 1_555 1_555
C318 C315 1_555 1_555
H257 C318 1_555 1_555
C319 N36 1_555 1_555
H258 C319 1_555 1_555
C320 C254 1_555 1_555
H259 C320 1_555 1_555
C321 Ru8 1_555 1_555
H260 C321 1_555 1_555
C322 C226 1_555 1_555
H261 C322 1_555 1_555
H262 C322 1_555 1_555
H263 C322 1_555 1_555
C323 C282 1_555 1_555
C324 C323 1_555 1_555
H264 C324 1_555 1_555
C325 C324 1_555 1_555
H265 C325 1_555 1_555
C326 C304 1_555 1_555
H266 C326 1_555 1_555
C327 C288 1_555 1_555
H267 C327 1_555 1_555
C328 H268 1_555 1_555
H269 C328 1_555 1_555
H270 C328 1_555 1_555
C329 C255 1_555 1_555
H271 C329 1_555 1_555
C330 Ru7 1_555 1_555
C331 Ru7 1_555 1_555
H272 C331 1_555 1_555
C332 C299 1_555 1_555
H273 C332 1_555 1_555
H274 C332 1_555 1_555
H275 C332 1_555 1_555
C333 C175 1_555 1_555
H276 C333 1_555 1_555
C334 C253 1_555 1_555
H277 C334 1_555 1_555
C335 C253 1_555 1_555
C336 C241 1_555 1_555
C337 C336 1_555 1_555
H278 C337 1_555 1_555
C338 C334 1_555 1_555
H279 C338 1_555 1_555
C339 Ru9 1_555 1_555
H280 C339 1_555 1_555
C340 Ru9 1_555 1_555
H281 C340 1_555 1_555
C341 C305 1_555 1_555
H282 C341 1_555 1_555
H283 C341 1_555 1_555
H284 C341 1_555 1_555
C342 C245 1_555 1_555
H285 C342 1_555 1_555
C343 C342 1_555 1_555
H286 C343 1_555 1_555
H287 C343 1_555 1_555
H288 C343 1_555 1_555
C344 C316 1_555 1_555
H289 C344 1_555 1_555
H290 C344 1_555 1_555
H291 C344 1_555 1_555
C345 C292 1_555 1_555
H292 C345 1_555 1_555
C346 C345 1_555 1_555
H293 C346 1_555 1_555
H294 C346 1_555 1_555
H295 C346 1_555 1_555
C347 Ru11 1_555 1_555
H296 C347 1_555 1_555
C348 C345 1_555 1_555
H297 C348 1_555 1_555
H298 C348 1_555 1_555
H299 C348 1_555 1_555
S1 O25 1_555 1_555
F1 C349 1_555 1_555
F2 C349 1_555 1_555
F3 C349 1_555 1_555
O26 S1 1_555 1_555
O27 S1 1_555 1_555
C349 S1 1_555 1_555
S2 O28 1_555 1_555
F4 C350 1_555 1_555
F5 C350 1_555 1_555
F6 C350 1_555 1_555
O29 S2 1_555 1_555
O30 S2 1_555 1_555
C350 S2 1_555 1_555
S3 O31 1_555 1_555
F7 C351 1_555 1_555
F8 C351 1_555 1_555
F9 C351 1_555 1_555
O32 S3 1_555 1_555
O33 S3 1_555 1_555
C351 S3 1_555 1_555
S4 O34 1_555 1_555
F10 C352 1_555 1_555
F11 C352 1_555 1_555
F12 C352 1_555 1_555
O35 S4 1_555 1_555
O36 S4 1_555 1_555
C352 S4 1_555 1_555
S5 O37 1_555 1_555
F13 C353 1_555 1_555
F14 C353 1_555 1_555
F15 C353 1_555 1_555
O38 S5 1_555 1_555
O39 S5 1_555 1_555
C353 S5 1_555 1_555
S6 O40 1_555 1_555
F16 C354 1_555 1_555
F17 C354 1_555 1_555
F18 C354 1_555 1_555
O41 S6 1_555 1_555
O42 S6 1_555 1_555
C354 S6 1_555 1_555
S7 O43 1_555 1_555
F19 C355 1_555 1_555
F20 C355 1_555 1_555
F21 C355 1_555 1_555
O44 S7 1_555 1_555
O45 S7 1_555 1_555
C355 S7 1_555 1_555
S8 O46 1_555 1_555
F22 C356 1_555 1_555
F23 C356 1_555 1_555
F24 C356 1_555 1_555
O47 S8 1_555 1_555
O48 S8 1_555 1_555
C356 S8 1_555 1_555
S9 O49 1_555 1_555
F25 C357 1_555 1_555
F26 C357 1_555 1_555
F27 C357 1_555 1_555
O50 S9 1_555 1_555
O51 S9 1_555 1_555
C357 S9 1_555 1_555
S10 O52 1_555 1_555
F28 C358 1_555 1_555
F29 C358 1_555 1_555
F30 C358 1_555 1_555
O53 S10 1_555 1_555
O54 S10 1_555 1_555
C358 S10 1_555 1_555
S11 O55 1_555 1_555
F31 C359 1_555 1_555
F32 C359 1_555 1_555
F33 C359 1_555 1_555
O56 S11 1_555 1_555
O57 S11 1_555 1_555
C359 S11 1_555 1_555
S12 O58 1_555 1_555
O59 S12 1_555 1_555
O60 S12 1_555 1_555
F34 C360 1_555 1_555
F35 C360 1_555 1_555
F36 C360 1_555 1_555
C360 S12 1_555 1_555
O61 C361 1_555 1_555
C361 H300 1_555 1_555
H301 C361 1_555 1_555
C362 C361 1_555 1_555
H302 C362 1_555 1_555
H303 C362 1_555 1_555
H304 C362 1_555 1_555
C363 O61 1_555 1_555
H305 C363 1_555 1_555
H306 C363 1_555 1_555
C364 C363 1_555 1_555
H307 C364 1_555 1_555
H308 C364 1_555 1_555
H309 C364 1_555 1_555
C7 C24 1_555 1_555
C7 C62 1_555 1_555
C9 C77 1_555 1_555
C9 C99 1_555 1_555
C11 C35 1_555 1_555
C11 C47 1_555 1_555
C13 C77 1_555 1_555
C13 C104 1_555 1_555
C18 C22 1_555 1_555
C23 C123 1_555 1_555
C24 C38 1_555 1_555
C25 C91 1_555 1_555
C26 C33 1_555 1_555
C26 C121 1_555 1_555
C27 C88 1_555 1_555
C31 C40 1_555 1_555
C33 C102 1_555 1_555
C35 C49 1_555 1_555
C36 C91 1_555 1_555
C37 C47 1_555 1_555
C44 C73 1_555 1_555
C48 C111 1_555 1_555
C50 C127 1_555 1_555
C51 C65 1_555 1_555
C53 C95 1_555 1_555
C54 C62 1_555 1_555
C56 C112 1_555 1_555
C56 C125 1_555 1_555
C57 C113 1_555 1_555
C57 C156 1_555 1_555
C58 C95 1_555 1_555
C60 C136 1_555 1_555
C64 C78 1_555 1_555
C67 C75 1_555 1_555
C69 C85 1_555 1_555
C70 C106 1_555 1_555
C71 C153 1_555 1_555
C71 C154 1_555 1_555
C72 C89 1_555 1_555
C72 C124 1_555 1_555
C76 C164 1_555 1_555
C79 C83 1_555 1_555
C79 C102 1_555 1_555
C81 C116 1_555 1_555
C82 C115 1_555 1_555
C82 C154 1_555 1_555
C83 C121 1_555 1_555
C84 C136 1_555 1_555
C86 C128 1_555 1_555
C90 C119 1_555 1_555
C90 C168 1_555 1_555
C93 C101 1_555 1_555
C97 C101 1_555 1_555
C97 C105 1_555 1_555
C98 C100 1_555 1_555
C98 C117 1_555 1_555
C99 C103 1_555 1_555
C100 C156 1_555 1_555
C103 C104 1_555 1_555
C107 C122 1_555 1_555
C107 C126 1_555 1_555
C109 C120 1_555 1_555
C109 C163 1_555 1_555
C110 C165 1_555 1_555
C111 C164 1_555 1_555
C113 C117 1_555 1_555
C114 C118 1_555 1_555
C115 C151 1_555 1_555
C119 C171 1_555 1_555
C120 C126 1_555 1_555
C122 C163 1_555 1_555
C129 C168 1_555 1_555
C129 C172 1_555 1_555
C131 C132 1_555 1_555
C134 C135 1_555 1_555
C138 C139 1_555 1_555
C141 C166 1_555 1_555
C142 C147 1_555 1_555
C146 C155 1_555 1_555
C149 C150 1_555 1_555
C151 C153 1_555 1_555
C154 C155 1_555 1_555
C156 C157 1_555 1_555
C167 C168 1_555 1_555
C169 C171 1_555 1_555
C171 C172 1_555 1_555
C176 C312 1_555 1_555
C183 C266 1_555 1_555
C185 C192 1_555 1_555
C185 C243 1_555 1_555
C187 C199 1_555 1_555
C188 C234 1_555 1_555
C189 C201 1_555 1_555
C189 C278 1_555 1_555
C194 C205 1_555 1_555
C197 C278 1_555 1_555
C198 C240 1_555 1_555
C201 C273 1_555 1_555
C203 C271 1_555 1_555
C211 C267 1_555 1_555
C211 C283 1_555 1_555
C212 C215 1_555 1_555
C212 C243 1_555 1_555
C215 C231 1_555 1_555
C216 C261 1_555 1_555
C216 C309 1_555 1_555
C217 C225 1_555 1_555
C217 C310 1_555 1_555
C218 C240 1_555 1_555
C218 C333 1_555 1_555
C219 C246 1_555 1_555
C219 C347 1_555 1_555
C220 C279 1_555 1_555
C222 C228 1_555 1_555
C224 C289 1_555 1_555
C225 C227 1_555 1_555
C226 C270 1_555 1_555
C226 C285 1_555 1_555
C229 C290 1_555 1_555
C229 C294 1_555 1_555
C232 C241 1_555 1_555
C232 C268 1_555 1_555
C233 C293 1_555 1_555
C234 C244 1_555 1_555
C236 C264 1_555 1_555
C238 C244 1_555 1_555
C239 C269 1_555 1_555
C246 C263 1_555 1_555
C248 C299 1_555 1_555
C248 C331 1_555 1_555
C249 C250 1_555 1_555
C250 C262 1_555 1_555
C250 C309 1_555 1_555
C251 C261 1_555 1_555
C257 C263 1_555 1_555
C257 C292 1_555 1_555
C258 C267 1_555 1_555
C258 C306 1_555 1_555
C259 C267 1_555 1_555
C261 C300 1_555 1_555
C262 C300 1_555 1_555
C265 C276 1_555 1_555
C265 C299 1_555 1_555
C266 C307 1_555 1_555
C270 C321 1_555 1_555
C272 C335 1_555 1_555
C274 C302 1_555 1_555
C275 C277 1_555 1_555
C276 C330 1_555 1_555
C281 C319 1_555 1_555
C283 C316 1_555 1_555
C284 C313 1_555 1_555
C285 C297 1_555 1_555
C286 C320 1_555 1_555
C287 C298 1_555 1_555
C288 C296 1_555 1_555
C290 C339 1_555 1_555
C290 C342 1_555 1_555
C291 C311 1_555 1_555
C292 C347 1_555 1_555
C294 C305 1_555 1_555
C295 C297 1_555 1_555
C295 C320 1_555 1_555
C295 C321 1_555 1_555
C301 C314 1_555 1_555
C304 C317 1_555 1_555
C305 C340 1_555 1_555
C306 C316 1_555 1_555
C308 C313 1_555 1_555
C308 C327 1_555 1_555
C317 C323 1_555 1_555
C325 C326 1_555 1_555
C328 C329 1_555 1_555
C329 C330 1_555 1_555
C330 C331 1_555 1_555
C335 C336 1_555 1_555
C337 C338 1_555 1_555
C339 C340 1_555 1_555

#END
