# generated using pymatgen
data_H309Ru12C364S12N36(O35F18)2
_symmetry_space_group_name_H-M   'P 1'
_cell_length_a   27.04882693
_cell_length_b   27.04882693
_cell_length_c   32.53600000
_cell_angle_alpha   69.28427757
_cell_angle_beta   69.28427757
_cell_angle_gamma   70.51244902
_symmetry_Int_Tables_number   1
_chemical_formula_structural   H309Ru12C364S12N36(O35F18)2
_chemical_formula_sum   'H618 Ru24 C728 S24 N72 O140 F72'
_cell_volume   20226.10534742
_cell_formula_units_Z   2
loop_
 _symmetry_equiv_pos_site_id
 _symmetry_equiv_pos_as_xyz
  1  'x, y, z'
loop_
 _atom_site_type_symbol
 _atom_site_label
 _atom_site_symmetry_multiplicity
 _atom_site_fract_x
 _atom_site_fract_y
 _atom_site_fract_z
 _atom_site_occupancy
  C  C1  1  0.738700  0.455300  0.869400  1
  C  C2  1  0.455300  0.738700  0.369400  1
  C  C3  1  0.517500  0.898500  0.007500  1
  C  C4  1  0.898500  0.517500  0.507500  1
  C  C5  1  0.201500  0.041500  0.719200  1
  C  C6  1  0.041500  0.201500  0.219200  1
  C  C7  1  0.155800  0.056000  0.976800  1
  C  C8  1  0.056000  0.155800  0.476800  1
  C  C9  1  0.951700  0.387500  0.747400  1
  C  C10  1  0.387500  0.951700  0.247400  1
  C  C11  1  0.365400  0.247600  0.801000  1
  C  C12  1  0.247600  0.365400  0.301000  1
  C  C13  1  0.237700  0.960300  0.981500  1
  C  C14  1  0.960300  0.237700  0.481500  1
  C  C15  1  0.101400  0.860000  0.938500  1
  C  C16  1  0.860000  0.101400  0.438500  1
  C  C17  1  0.754200  0.065000  0.722200  1
  C  C18  1  0.065000  0.754200  0.222200  1
  C  C19  1  0.632300  0.940700  0.809100  1
  C  C20  1  0.940700  0.632300  0.309100  1
  C  C21  1  0.311200  0.158400  0.770000  1
  C  C22  1  0.158400  0.311200  0.270000  1
  C  C23  1  0.648200  0.890400  0.928400  1
  C  C24  1  0.890400  0.648200  0.428400  1
  C  C25  1  0.688400  0.090000  0.676900  1
  C  C26  1  0.090000  0.688400  0.176900  1
  C  C27  1  0.219900  0.243500  0.772100  1
  C  C28  1  0.243500  0.219900  0.272100  1
  C  C29  1  0.967100  0.907500  0.826300  1
  C  C30  1  0.907500  0.967100  0.326300  1
  C  C31  1  0.234800  0.056800  0.734800  1
  C  C32  1  0.056800  0.234800  0.234800  1
  C  C33  1  0.998800  0.382200  0.757100  1
  C  C34  1  0.382200  0.998800  0.257100  1
  C  C35  1  0.185000  0.977800  0.691200  1
  C  C36  1  0.977800  0.185000  0.191200  1
  C  C37  1  0.119400  0.837400  0.743000  1
  C  C38  1  0.837400  0.119400  0.243000  1
  C  C39  1  0.032100  0.150300  0.974700  1
  C  C40  1  0.150300  0.032100  0.474700  1
  C  C41  1  0.090900  0.893900  0.727400  1
  C  C42  1  0.893900  0.090900  0.227400  1
  C  C43  1  0.216800  0.991200  0.707800  1
  C  C44  1  0.991200  0.216800  0.207800  1
  C  C45  1  0.691400  0.970000  0.885500  1
  C  C46  1  0.970000  0.691400  0.385500  1
  C  C47  1  0.242200  0.005600  0.987700  1
  C  C48  1  0.005600  0.242200  0.487700  1
  C  C49  1  0.883900  0.981100  0.832100  1
  C  C50  1  0.981100  0.883900  0.332100  1
  C  C51  1  0.592200  0.711200  0.007600  1
  C  C52  1  0.711200  0.592200  0.507600  1
  C  C53  1  0.287700  0.027100  0.740500  1
  C  C54  1  0.027100  0.287700  0.240500  1
  C  C55  1  0.957200  0.113200  0.789600  1
  C  C56  1  0.113200  0.957200  0.289600  1
  C  C57  1  0.902600  0.126200  0.976100  1
  C  C58  1  0.126200  0.902600  0.476100  1
  C  C59  1  0.302600  0.035600  0.013400  1
  C  C60  1  0.035600  0.302600  0.513400  1
  C  C61  1  0.149200  0.073600  0.714100  1
  C  C62  1  0.073600  0.149200  0.214100  1
  C  C63  1  0.041620  0.336420  0.754300  1
  C  C64  1  0.336420  0.041620  0.254300  1
  C  C65  1  0.647000  0.711200  0.987000  1
  C  C66  1  0.711200  0.647000  0.487000  1
  C  C67  1  0.671800  0.976600  0.847000  1
  C  C68  1  0.976600  0.671800  0.347000  1
  C  C69  1  0.308900  0.205700  0.780600  1
  C  C70  1  0.205700  0.308900  0.280600  1
  C  C71  1  0.956900  0.990500  0.763600  1
  C  C72  1  0.990500  0.956900  0.263600  1
  C  C73  1  0.220200  0.197800  0.762700  1
  C  C74  1  0.197800  0.220200  0.262700  1
  C  C75  1  0.203300  0.054500  0.986000  1
  C  C76  1  0.054500  0.203300  0.486000  1
  C  C77  1  0.373200  0.966600  0.002300  1
  C  C78  1  0.966600  0.373200  0.502300  1
  C  C79  1  0.118800  0.058000  0.697000  1
  C  C80  1  0.058000  0.118800  0.197000  1
  C  C81  1  0.113100  0.154500  0.972400  1
  C  C82  1  0.154500  0.113100  0.472400  1
  C  C83  1  0.012100  0.970700  0.736200  1
  C  C84  1  0.970700  0.012100  0.236200  1
  C  C85  1  0.093200  0.329200  0.764500  1
  C  C86  1  0.329200  0.093200  0.264500  1
  C  C87  1  0.989600  0.305000  0.729300  1
  C  C88  1  0.305000  0.989600  0.229300  1
  C  C89  1  0.602600  0.902000  0.810900  1
  C  C90  1  0.902000  0.602600  0.310900  1
  C  C91  1  0.796900  0.280100  0.911500  1
  C  C92  1  0.280100  0.796900  0.411500  1
  C  C93  1  0.265700  0.154700  0.762700  1
  C  C94  1  0.154700  0.265700  0.262700  1
  C  C95  1  0.839700  0.193900  0.886300  1
  C  C96  1  0.193900  0.839700  0.386300  1
  C  C97  1  0.263600  0.249400  0.781000  1
  C  C98  1  0.249400  0.263600  0.281000  1
  C  C99  1  0.110500  0.811500  0.930300  1
  C  C100  1  0.811500  0.110500  0.430300  1
  C  C101  1  0.467500  0.935700  0.008900  1
  C  C102  1  0.935700  0.467500  0.508900  1
  C  C103  1  0.213400  0.866400  0.971200  1
  C  C104  1  0.866400  0.213400  0.471200  1
  C  C105  1  0.095800  0.805800  0.786300  1
  C  C106  1  0.805800  0.095800  0.286300  1
  C  C107  1  0.147200  0.010200  0.971400  1
  C  C108  1  0.010200  0.147200  0.471400  1
  C  C109  1  0.589400  0.121600  0.787500  1
  C  C110  1  0.121600  0.589400  0.287500  1
  C  C111  1  0.875400  0.060800  0.766600  1
  C  C112  1  0.060800  0.875400  0.266600  1
  C  C113  1  0.937600  0.737400  0.919400  1
  C  C114  1  0.737400  0.937600  0.419400  1
  C  C115  1  0.016700  0.885100  0.799100  1
  C  C116  1  0.885100  0.016700  0.299100  1
  C  C117  1  0.059800  0.185800  0.972200  1
  C  C118  1  0.185800  0.059800  0.472200  1
  C  C119  1  0.631500  0.894100  0.890700  1
  C  C120  1  0.894100  0.631500  0.390700  1
  C  C121  1  0.355800  0.014200  0.015500  1
  C  C122  1  0.014200  0.355800  0.515500  1
  C  C123  1  0.188900  0.963900  0.972200  1
  C  C124  1  0.963900  0.188900  0.472200  1
  C  C125  1  0.721900  0.005100  0.882000  1
  C  C126  1  0.005100  0.721900  0.382000  1
  C  C127  1  0.141800  0.872800  0.951900  1
  C  C128  1  0.872800  0.141800  0.451900  1
  C  C129  1  0.426300  0.927900  0.999300  1
  C  C130  1  0.927900  0.426300  0.499300  1
  C  C131  1  0.494300  0.146300  0.785500  1
  C  C132  1  0.146300  0.494300  0.285500  1
  C  C133  1  0.172300  0.730100  0.776800  1
  C  C134  1  0.730100  0.172300  0.276800  1
  C  C135  1  0.536300  0.154500  0.797300  1
  C  C136  1  0.154500  0.536300  0.297300  1
  C  C137  1  0.110800  0.364200  0.776800  1
  C  C138  1  0.364200  0.110800  0.276800  1
  C  C139  1  0.440000  0.180400  0.792400  1
  C  C140  1  0.180400  0.440000  0.292400  1
  C  C141  1  0.742700  0.114900  0.010400  1
  C  C142  1  0.114900  0.742700  0.510400  1
  C  C143  1  0.791200  0.366800  0.851400  1
  C  C144  1  0.366800  0.791200  0.351400  1
  C  C145  1  0.034900  0.297100  0.739700  1
  C  C146  1  0.297100  0.034900  0.239700  1
  C  C147  1  0.873900  0.254700  0.792600  1
  C  C148  1  0.254700  0.873900  0.292600  1
  C  C149  1  0.123700  0.751100  0.802200  1
  C  C150  1  0.751100  0.123700  0.302200  1
  C  C151  1  0.824800  0.341000  0.815100  1
  C  C152  1  0.341000  0.824800  0.315100  1
  C  C153  1  0.714000  0.106000  0.701000  1
  C  C154  1  0.106000  0.714000  0.201000  1
  C  C155  1  0.189900  0.836300  0.962900  1
  C  C156  1  0.836300  0.189900  0.462900  1
  C  C157  1  0.645100  0.755300  0.042200  1
  C  C158  1  0.755300  0.645100  0.542200  1
  C  C159  1  0.040800  0.917400  0.753200  1
  C  C160  1  0.917400  0.040800  0.253200  1
  C  C161  1  0.436200  0.880200  0.987400  1
  C  C162  1  0.880200  0.436200  0.487400  1
  C  C163  1  0.695700  0.204500  0.016400  1
  C  C164  1  0.204500  0.695700  0.516400  1
  C  C165  1  0.592100  0.753300  0.064600  1
  C  C166  1  0.753300  0.592100  0.564600  1
  C  C167  1  0.588700  0.862900  0.851900  1
  C  C168  1  0.862900  0.588700  0.351900  1
  C  C169  1  0.161000  0.336200  0.782300  1
  C  C170  1  0.336200  0.161000  0.282300  1
  C  C171  1  0.507600  0.102800  0.768600  1
  C  C172  1  0.102800  0.507600  0.268600  1
  C  C173  1  0.894200  0.197000  0.807600  1
  C  C174  1  0.197000  0.894200  0.307600  1
  C  C175  1  0.305500  0.060500  0.754000  1
  C  C176  1  0.060500  0.305500  0.254000  1
  C  C177  1  0.777900  0.339900  0.897900  1
  C  C178  1  0.339900  0.777900  0.397900  1
  C  C179  1  0.867400  0.437800  0.664200  1
  C  C180  1  0.437800  0.867400  0.164200  1
  C  C181  1  0.936600  0.961800  0.805300  1
  C  C182  1  0.961800  0.936600  0.305300  1
  C  C183  1  0.938600  0.084200  0.834800  1
  C  C184  1  0.084200  0.938600  0.334800  1
  C  C185  1  0.957000  0.117400  0.974300  1
  C  C186  1  0.117400  0.957000  0.474300  1
  C  C187  1  0.935200  0.167600  0.776100  1
  C  C188  1  0.167600  0.935200  0.276100  1
  C  C189  1  0.043850  0.828650  0.814600  1
  C  C190  1  0.828650  0.043850  0.314600  1
  C  C191  1  0.584000  0.908200  0.775000  1
  C  C192  1  0.908200  0.584000  0.275000  1
  C  C193  1  0.936400  0.206800  0.985200  1
  C  C194  1  0.206800  0.936400  0.485200  1
  C  C195  1  0.913900  0.799100  0.977800  1
  C  C196  1  0.799100  0.913900  0.477800  1
  C  C197  1  0.769700  0.013100  0.719100  1
  C  C198  1  0.013100  0.769700  0.219100  1
  C  C199  1  0.882200  0.815200  0.946200  1
  C  C200  1  0.815200  0.882200  0.446200  1
  C  C201  1  0.975600  0.158000  0.977600  1
  C  C202  1  0.158000  0.975600  0.477600  1
  C  C203  1  0.674600  0.734800  0.004600  1
  C  C204  1  0.734800  0.674600  0.504600  1
  C  C205  1  0.744600  0.998200  0.696200  1
  C  C206  1  0.998200  0.744600  0.196200  1
  C  C207  1  0.703400  0.039200  0.673800  1
  C  C208  1  0.039200  0.703400  0.173800  1
  C  C209  1  0.882300  0.210500  0.989200  1
  C  C210  1  0.210500  0.882300  0.489200  1
  C  C211  1  0.416400  0.231400  0.804700  1
  C  C212  1  0.231400  0.416400  0.304700  1
  C  C213  1  0.150200  0.033400  0.584100  1
  C  C214  1  0.033400  0.150200  0.084100  1
  C  C215  1  0.645200  0.937800  0.847400  1
  C  C216  1  0.937800  0.645200  0.347400  1
  C  C217  1  0.054900  0.001500  0.597500  1
  C  C218  1  0.001500  0.054900  0.097500  1
  C  C219  1  0.878100  0.166900  0.853200  1
  C  C220  1  0.166900  0.878100  0.353200  1
  C  C221  1  0.828000  0.252400  0.874800  1
  C  C222  1  0.252400  0.828000  0.374800  1
  C  C223  1  0.924100  0.042100  0.744300  1
  C  C224  1  0.042100  0.924100  0.244300  1
  C  C225  1  0.970700  0.722900  0.948400  1
  C  C226  1  0.722900  0.970700  0.448400  1
  C  C227  1  0.050600  0.897800  0.935500  1
  C  C228  1  0.897800  0.050600  0.435500  1
  C  C229  1  0.720900  0.198900  0.047700  1
  C  C230  1  0.198900  0.720900  0.547700  1
  C  C231  1  0.486200  0.844600  0.984500  1
  C  C232  1  0.844600  0.486200  0.484500  1
  C  C233  1  0.959900  0.751900  0.976000  1
  C  C234  1  0.751900  0.959900  0.476000  1
  C  C235  1  0.013700  0.884500  0.925500  1
  C  C236  1  0.884500  0.013700  0.425500  1
  C  C237  1  0.815400  0.422600  0.685600  1
  C  C238  1  0.422600  0.815400  0.185600  1
  C  C239  1  0.104700  0.964100  0.591200  1
  C  C240  1  0.964100  0.104700  0.091200  1
  C  C241  1  0.563600  0.732600  0.047300  1
  C  C242  1  0.732600  0.563600  0.547300  1
  C  C243  1  0.102100  0.067900  0.589600  1
  C  C244  1  0.067900  0.102100  0.089600  1
  C  C245  1  0.680600  0.927200  0.924900  1
  C  C246  1  0.927200  0.680600  0.424900  1
  C  C247  1  0.774700  0.424900  0.840900  1
  C  C248  1  0.424900  0.774700  0.340900  1
  C  C249  1  0.852900  0.031700  0.811100  1
  C  C250  1  0.031700  0.852900  0.311100  1
  C  C251  1  0.156000  0.981400  0.583900  1
  C  C252  1  0.981400  0.156000  0.083900  1
  C  C253  1  0.073900  0.801500  0.917700  1
  C  C254  1  0.801500  0.073900  0.417700  1
  C  C255  1  0.559100  0.070900  0.761300  1
  C  C256  1  0.070900  0.559100  0.261300  1
  C  C257  1  0.907600  0.351200  0.641500  1
  C  C258  1  0.351200  0.907600  0.141500  1
  C  C259  1  0.700700  0.919900  0.959600  1
  C  C260  1  0.919900  0.700700  0.459600  1
  C  C261  1  0.729700  0.956900  0.958500  1
  C  C262  1  0.956900  0.729700  0.458500  1
  C  C263  1  0.739100  0.997900  0.919600  1
  C  C264  1  0.997900  0.739100  0.419600  1
  C  C265  1  0.553100  0.874900  0.778700  1
  C  C266  1  0.874900  0.553100  0.278700  1
  C  C267  1  0.538900  0.835300  0.819000  1
  C  C268  1  0.835300  0.538900  0.319000  1
  C  C269  1  0.557300  0.828300  0.855800  1
  C  C270  1  0.828300  0.557300  0.355800  1
  C  C271  1  0.608800  0.857000  0.891000  1
  C  C272  1  0.857000  0.608800  0.391000  1
  C  C273  1  0.644400  0.127600  0.658300  1
  C  C274  1  0.127600  0.644400  0.158300  1
  C  C275  1  0.865500  0.966900  0.709600  1
  C  C276  1  0.966900  0.865500  0.209600  1
  C  C277  1  0.810800  0.970800  0.743800  1
  C  C278  1  0.970800  0.810800  0.243800  1
  C  C279  1  0.797200  0.914200  0.767000  1
  C  C280  1  0.914200  0.797200  0.267000  1
  C  C281  1  0.727600  0.422200  0.917900  1
  C  C282  1  0.422200  0.727600  0.417900  1
  C  C283  1  0.474500  0.772700  0.098300  1
  C  C284  1  0.772700  0.474500  0.598300  1
  C  C285  1  0.733700  0.729500  0.976000  1
  C  C286  1  0.729500  0.733700  0.476000  1
  C  C287  1  0.704500  0.121500  0.939400  1
  C  C288  1  0.121500  0.704500  0.439400  1
  C  C289  1  0.892600  0.796400  0.839800  1
  C  C290  1  0.796400  0.892600  0.339800  1
  C  C291  1  0.682100  0.223300  0.927700  1
  C  C292  1  0.223300  0.682100  0.427700  1
  C  C293  1  0.505800  0.732600  0.067800  1
  C  C294  1  0.732600  0.505800  0.567800  1
  C  C295  1  0.498800  0.676600  0.099500  1
  C  C296  1  0.676600  0.498800  0.599500  1
  C  C297  1  0.169200  0.814800  0.716700  1
  C  C298  1  0.814800  0.169200  0.216700  1
  C  C299  1  0.198800  0.762200  0.735500  1
  C  C300  1  0.762200  0.198800  0.235500  1
  C  C301  1  0.760700  0.150900  0.059900  1
  C  C302  1  0.150900  0.760700  0.559900  1
  C  C303  1  0.784600  0.145000  0.098300  1
  C  C304  1  0.145000  0.784600  0.598300  1
  C  C305  1  0.769500  0.107900  0.043300  1
  C  C306  1  0.107900  0.769500  0.543300  1
  C  C307  1  0.707500  0.162300  0.995900  1
  C  C308  1  0.162300  0.707500  0.495900  1
  C  C309  1  0.679500  0.170900  0.959400  1
  C  C310  1  0.170900  0.679500  0.459400  1
  C  C311  1  0.890900  0.782300  0.916400  1
  C  C312  1  0.782300  0.890900  0.416400  1
  C  C313  1  0.857300  0.801300  0.884100  1
  C  C314  1  0.801300  0.857300  0.384100  1
  C  C315  1  0.812200  0.843200  0.888200  1
  C  C316  1  0.843200  0.812200  0.388200  1
  C  C317  1  0.198400  0.050400  0.582600  1
  C  C318  1  0.050400  0.198400  0.082600  1
  C  C319  1  0.002400  0.987200  0.606200  1
  C  C320  1  0.987200  0.002400  0.106200  1
  C  C321  1  0.983900  0.005100  0.565200  1
  C  C322  1  0.005100  0.983900  0.065200  1
  C  C323  1  0.003200  0.928400  0.628500  1
  C  C324  1  0.928400  0.003200  0.128500  1
  C  C325  1  0.054600  0.050800  0.596400  1
  C  C326  1  0.050800  0.054600  0.096400  1
  C  C327  1  0.843700  0.281900  0.827500  1
  C  C328  1  0.281900  0.843700  0.327500  1
  C  C329  1  0.898500  0.110100  0.865500  1
  C  C330  1  0.110100  0.898500  0.365500  1
  C  C331  1  0.744800  0.368600  0.929300  1
  C  C332  1  0.368600  0.744800  0.429300  1
  C  C333  1  0.970300  0.405900  0.626300  1
  C  C334  1  0.405900  0.970300  0.126300  1
  C  C335  1  0.914500  0.398500  0.643000  1
  C  C336  1  0.398500  0.914500  0.143000  1
  C  C337  1  0.750300  0.358900  0.709900  1
  C  C338  1  0.358900  0.750300  0.209900  1
  C  C339  1  0.712000  0.397000  0.739700  1
  C  C340  1  0.397000  0.712000  0.239700  1
  C  C341  1  0.806000  0.375000  0.685400  1
  C  C342  1  0.375000  0.806000  0.185400  1
  C  C343  1  0.854200  0.340800  0.663400  1
  C  C344  1  0.340800  0.854200  0.163400  1
  C  C345  1  0.760600  0.301600  0.744300  1
  C  C346  1  0.301600  0.760600  0.244300  1
  C  C347  1  0.997600  0.740200  0.007900  1
  C  C348  1  0.740200  0.997600  0.507900  1
  C  C349  1  0.826500  0.535500  0.767700  1
  C  C350  1  0.535500  0.826500  0.267700  1
  C  C351  1  0.329500  0.065700  0.881300  1
  C  C352  1  0.065700  0.329500  0.381300  1
  C  C353  1  0.357100  0.355900  0.890400  1
  C  C354  1  0.355900  0.357100  0.390400  1
  C  C355  1  0.372900  0.178900  0.924300  1
  C  C356  1  0.178900  0.372900  0.424300  1
  C  C357  1  0.330300  0.411700  0.870900  1
  C  C358  1  0.411700  0.330300  0.370900  1
  C  C359  1  0.517100  0.717700  0.724900  1
  C  C360  1  0.717700  0.517100  0.224900  1
  C  C361  1  0.997100  0.526900  0.722400  1
  C  C362  1  0.526900  0.997100  0.222400  1
  C  C363  1  0.341000  0.105000  0.633000  1
  C  C364  1  0.105000  0.341000  0.133000  1
  C  C365  1  0.403400  0.410600  0.798300  1
  C  C366  1  0.410600  0.403400  0.298300  1
  C  C367  1  0.296000  0.117200  0.888200  1
  C  C368  1  0.117200  0.296000  0.388200  1
  C  C369  1  0.158200  0.120400  0.861400  1
  C  C370  1  0.120400  0.158200  0.361400  1
  C  C371  1  0.578300  0.276900  0.802500  1
  C  C372  1  0.276900  0.578300  0.302500  1
  C  C373  1  0.435600  0.361600  0.820100  1
  C  C374  1  0.361600  0.435600  0.320100  1
  C  C375  1  0.491900  0.344100  0.800400  1
  C  C376  1  0.344100  0.491900  0.300400  1
  C  C377  1  0.325200  0.202400  0.653500  1
  C  C378  1  0.202400  0.325200  0.153500  1
  C  C379  1  0.320800  0.046000  0.599000  1
  C  C380  1  0.046000  0.320800  0.099000  1
  C  C381  1  0.944800  0.503400  0.817200  1
  C  C382  1  0.503400  0.944800  0.317200  1
  C  C383  1  0.202700  0.076900  0.862500  1
  C  C384  1  0.076900  0.202700  0.362500  1
  C  C385  1  0.185400  0.220600  0.648900  1
  C  C386  1  0.220600  0.185400  0.148900  1
  C  C387  1  0.311300  0.154900  0.902100  1
  C  C388  1  0.154900  0.311300  0.402100  1
  C  C389  1  0.231900  0.839900  0.839400  1
  C  C390  1  0.839900  0.231900  0.339400  1
  C  C391  1  0.442700  0.284300  0.890400  1
  C  C392  1  0.284300  0.442700  0.390400  1
  C  C393  1  0.383200  0.115000  0.641300  1
  C  C394  1  0.115000  0.383200  0.141300  1
  C  C395  1  0.913200  0.518800  0.784000  1
  C  C396  1  0.518800  0.913200  0.284000  1
  C  C397  1  0.411400  0.332800  0.868200  1
  C  C398  1  0.332800  0.411400  0.368200  1
  C  C399  1  0.461400  0.269800  0.683900  1
  C  C400  1  0.269800  0.461400  0.183900  1
  C  C401  1  0.283700  0.190500  0.644300  1
  C  C402  1  0.190500  0.283700  0.144300  1
  C  C403  1  0.126800  0.966000  0.821700  1
  C  C404  1  0.966000  0.126800  0.321700  1
  C  C405  1  0.253700  0.745500  0.843000  1
  C  C406  1  0.745500  0.253700  0.343000  1
  C  C407  1  0.193700  0.895700  0.833800  1
  C  C408  1  0.895700  0.193700  0.333800  1
  C  C409  1  0.362600  0.145000  0.908300  1
  C  C410  1  0.145000  0.362600  0.408300  1
  C  C411  1  0.451400  0.831800  0.611600  1
  C  C412  1  0.831800  0.451400  0.111600  1
  C  C413  1  0.156260  0.361860  0.647000  1
  C  C414  1  0.361860  0.156260  0.147000  1
  C  C415  1  0.341300  0.995100  0.596600  1
  C  C416  1  0.995100  0.341300  0.096600  1
  C  C417  1  0.415100  0.880500  0.609400  1
  C  C418  1  0.880500  0.415100  0.109400  1
  C  C419  1  0.460300  0.698100  0.689400  1
  C  C420  1  0.698100  0.460300  0.189400  1
  C  C421  1  0.564900  0.452500  0.681400  1
  C  C422  1  0.452500  0.564900  0.181400  1
  C  C423  1  0.113800  0.068200  0.844700  1
  C  C424  1  0.068200  0.113800  0.344700  1
  C  C425  1  0.387300  0.668500  0.779100  1
  C  C426  1  0.668500  0.387300  0.279100  1
  C  C427  1  0.176600  0.304200  0.648800  1
  C  C428  1  0.304200  0.176600  0.148800  1
  C  C429  1  0.160300  0.025500  0.845800  1
  C  C430  1  0.025500  0.160300  0.345800  1
  C  C431  1  0.952700  0.434500  0.987300  1
  C  C432  1  0.434500  0.952700  0.487300  1
  C  C433  1  0.465100  0.905900  0.641800  1
  C  C434  1  0.905900  0.465100  0.141800  1
  C  C435  1  0.908000  0.542600  0.706900  1
  C  C436  1  0.542600  0.908000  0.206900  1
  C  C437  1  0.284100  0.240900  0.035200  1
  C  C438  1  0.240900  0.284100  0.535200  1
  C  C439  1  0.418800  0.317800  0.686400  1
  C  C440  1  0.317800  0.418800  0.186400  1
  C  C441  1  0.281800  0.516000  0.833000  1
  C  C442  1  0.516000  0.281800  0.333000  1
  C  C443  1  0.165700  0.444100  0.653600  1
  C  C444  1  0.444100  0.165700  0.153600  1
  C  C445  1  0.147600  0.270000  0.649400  1
  C  C446  1  0.270000  0.147600  0.149400  1
  C  C447  1  0.276500  0.830700  0.853000  1
  C  C448  1  0.830700  0.276500  0.353000  1
  C  C449  1  0.420100  0.919900  0.623700  1
  C  C450  1  0.919900  0.420100  0.123700  1
  C  C451  1  0.356800  0.564600  0.907800  1
  C  C452  1  0.564600  0.356800  0.407800  1
  C  C453  1  0.384700  0.974900  0.620200  1
  C  C454  1  0.974900  0.384700  0.120200  1
  C  C455  1  0.185800  0.389800  0.656000  1
  C  C456  1  0.389800  0.185800  0.156000  1
  C  C457  1  0.051000  0.608000  0.583000  1
  C  C458  1  0.608000  0.051000  0.083000  1
  C  C459  1  0.001600  0.288800  0.873700  1
  C  C460  1  0.288800  0.001600  0.373700  1
  C  C461  1  0.205800  0.028800  0.855000  1
  C  C462  1  0.028800  0.205800  0.355000  1
  C  C463  1  0.998500  0.502100  0.803400  1
  C  C464  1  0.502100  0.998500  0.303400  1
  C  C465  1  0.514500  0.311900  0.699800  1
  C  C466  1  0.311900  0.514500  0.199800  1
  C  C467  1  0.525500  0.294700  0.823600  1
  C  C468  1  0.294700  0.525500  0.323600  1
  C  C469  1  0.855700  0.521700  0.800100  1
  C  C470  1  0.521700  0.855700  0.300100  1
  C  C471  1  0.273800  0.204400  0.910200  1
  C  C472  1  0.204400  0.273800  0.410200  1
  C  C473  1  0.016600  0.237000  0.863500  1
  C  C474  1  0.237000  0.016600  0.363500  1
  C  C475  1  0.531400  0.217600  0.889500  1
  C  C476  1  0.217600  0.531400  0.389500  1
  C  C477  1  0.107800  0.391800  0.636500  1
  C  C478  1  0.391800  0.107800  0.136500  1
  C  C479  1  0.939200  0.528800  0.739100  1
  C  C480  1  0.528800  0.939200  0.239100  1
  C  C481  1  0.028300  0.492100  0.834600  1
  C  C482  1  0.492100  0.028300  0.334600  1
  C  C483  1  0.145400  0.914400  0.819000  1
  C  C484  1  0.914400  0.145400  0.319000  1
  C  C485  1  0.112800  0.116400  0.854100  1
  C  C486  1  0.116400  0.112800  0.354100  1
  C  C487  1  0.501000  0.264000  0.868000  1
  C  C488  1  0.264000  0.501000  0.368000  1
  C  C489  1  0.971400  0.717800  0.596600  1
  C  C490  1  0.717800  0.971400  0.096600  1
  C  C491  1  0.333300  0.194500  0.036300  1
  C  C492  1  0.194500  0.333300  0.536300  1
  C  C493  1  0.330000  0.140200  0.035600  1
  C  C494  1  0.140200  0.330000  0.535600  1
  C  C495  1  0.572000  0.744200  0.548400  1
  C  C496  1  0.744200  0.572000  0.048400  1
  C  C497  1  0.823200  0.416000  0.974100  1
  C  C498  1  0.416000  0.823200  0.474100  1
  C  C499  1  0.867500  0.441500  0.974500  1
  C  C500  1  0.441500  0.867500  0.474500  1
  C  C501  1  0.991300  0.514500  0.968200  1
  C  C502  1  0.514500  0.991300  0.468200  1
  C  C503  1  0.990000  0.514000  0.013900  1
  C  C504  1  0.514000  0.990000  0.513900  1
  C  C505  1  0.155400  0.542800  0.753800  1
  C  C506  1  0.542800  0.155400  0.253800  1
  C  C507  1  0.290100  0.721500  0.988400  1
  C  C508  1  0.721500  0.290100  0.488400  1
  C  C509  1  0.679600  0.854200  0.532000  1
  C  C510  1  0.854200  0.679600  0.032000  1
  C  C511  1  0.572500  0.475300  0.757300  1
  C  C512  1  0.475300  0.572500  0.257300  1
  C  C513  1  0.386800  0.247400  0.031500  1
  C  C514  1  0.247400  0.386800  0.531500  1
  C  C515  1  0.474100  0.515100  0.685500  1
  C  C516  1  0.515100  0.474100  0.185500  1
  C  C517  1  0.525600  0.513800  0.737100  1
  C  C518  1  0.513800  0.525600  0.237100  1
  C  C519  1  0.543900  0.567900  0.709500  1
  C  C520  1  0.567900  0.543900  0.209500  1
  C  C521  1  0.949600  0.490600  0.969800  1
  C  C522  1  0.490600  0.949600  0.469800  1
  C  C523  1  0.860300  0.498900  0.956700  1
  C  C524  1  0.498900  0.860300  0.456700  1
  C  C525  1  0.378800  0.202000  0.033000  1
  C  C526  1  0.202000  0.378800  0.533000  1
  C  C527  1  0.289600  0.234600  0.925600  1
  C  C528  1  0.234600  0.289600  0.425600  1
  C  C529  1  0.627700  0.684100  0.604500  1
  C  C530  1  0.684100  0.627700  0.104500  1
  C  C531  1  0.352200  0.437400  0.825400  1
  C  C532  1  0.437400  0.352200  0.325400  1
  C  C533  1  0.524300  0.491900  0.699800  1
  C  C534  1  0.491900  0.524300  0.199800  1
  C  C535  1  0.026200  0.515200  0.753800  1
  C  C536  1  0.515200  0.026200  0.253800  1
  C  C537  1  0.088600  0.446000  0.634800  1
  C  C538  1  0.446000  0.088600  0.134800  1
  C  C539  1  0.381600  0.584200  0.927200  1
  C  C540  1  0.584200  0.381600  0.427200  1
  C  C541  1  0.220600  0.798000  0.832800  1
  C  C542  1  0.798000  0.220600  0.332800  1
  C  C543  1  0.079700  0.523900  0.738500  1
  C  C544  1  0.523900  0.079700  0.238500  1
  C  C545  1  0.291300  0.142500  0.633900  1
  C  C546  1  0.142500  0.291300  0.133900  1
  C  C547  1  0.017800  0.356600  0.896700  1
  C  C548  1  0.356600  0.017800  0.396700  1
  C  C549  1  0.469400  0.702400  0.728100  1
  C  C550  1  0.702400  0.469400  0.228100  1
  C  C551  1  0.641200  0.733800  0.601000  1
  C  C552  1  0.733800  0.641200  0.101000  1
  C  C553  1  0.431700  0.689100  0.772800  1
  C  C554  1  0.689100  0.431700  0.272800  1
  C  C555  1  0.374500  0.164700  0.651100  1
  C  C556  1  0.164700  0.374500  0.151100  1
  C  C557  1  0.426800  0.358800  0.697000  1
  C  C558  1  0.358800  0.426800  0.197000  1
  C  C559  1  0.454900  0.224900  0.673000  1
  C  C560  1  0.224900  0.454900  0.173000  1
  C  C561  1  0.949100  0.324300  0.873000  1
  C  C562  1  0.324300  0.949100  0.373000  1
  C  C563  1  0.442700  0.692300  0.810400  1
  C  C564  1  0.692300  0.442700  0.310400  1
  C  C565  1  0.558500  0.436300  0.647200  1
  C  C566  1  0.436300  0.558500  0.147200  1
  C  C567  1  0.415700  0.674300  0.695500  1
  C  C568  1  0.674300  0.415700  0.195500  1
  C  C569  1  0.301200  0.589600  0.909700  1
  C  C570  1  0.589600  0.301200  0.409700  1
  C  C571  1  0.218900  0.668500  0.019800  1
  C  C572  1  0.668500  0.218900  0.519800  1
  C  C573  1  0.283700  0.438900  0.896400  1
  C  C574  1  0.438900  0.283700  0.396400  1
  C  C575  1  0.369600  0.642200  0.663000  1
  C  C576  1  0.642200  0.369600  0.163000  1
  C  C577  1  0.308800  0.777800  0.864100  1
  C  C578  1  0.777800  0.308800  0.364100  1
  C  C579  1  0.044800  0.641800  0.611300  1
  C  C580  1  0.641800  0.044800  0.111300  1
  C  C581  1  0.586900  0.199500  0.867900  1
  C  C582  1  0.199500  0.586900  0.367900  1
  C  C583  1  0.344500  0.294500  0.029900  1
  C  C584  1  0.294500  0.344500  0.529900  1
  C  C585  1  0.507900  0.267100  0.691700  1
  C  C586  1  0.267100  0.507900  0.191700  1
  C  C587  1  0.103400  0.579600  0.563100  1
  C  C588  1  0.579600  0.103400  0.063100  1
  C  C589  1  0.300000  0.648600  0.951800  1
  C  C590  1  0.648600  0.300000  0.451800  1
  C  C591  1  0.408900  0.665700  0.658000  1
  C  C592  1  0.665700  0.408900  0.158000  1
  C  C593  1  0.270600  0.630600  0.932700  1
  C  C594  1  0.630600  0.270600  0.432700  1
  C  C595  1  0.259600  0.491800  0.877500  1
  C  C596  1  0.491800  0.259600  0.377500  1
  C  C597  1  0.591300  0.694900  0.573000  1
  C  C598  1  0.694900  0.591300  0.073000  1
  C  C599  1  0.897100  0.524500  0.954200  1
  C  C600  1  0.524500  0.897100  0.454200  1
  C  C601  1  0.468200  0.146000  0.659800  1
  C  C602  1  0.146000  0.468200  0.159800  1
  C  C603  1  0.035500  0.306700  0.884600  1
  C  C604  1  0.306700  0.035500  0.384600  1
  C  C605  1  0.988900  0.573900  0.934700  1
  C  C606  1  0.573900  0.988900  0.434700  1
  C  C607  1  0.583700  0.718500  0.761400  1
  C  C608  1  0.718500  0.583700  0.261400  1
  C  C609  1  0.150200  0.577400  0.573800  1
  C  C610  1  0.577400  0.150200  0.073800  1
  C  C611  1  0.471300  0.494500  0.653200  1
  C  C612  1  0.494500  0.471300  0.153200  1
  C  C613  1  0.326700  0.490500  0.806900  1
  C  C614  1  0.490500  0.326700  0.306900  1
  C  C615  1  0.339000  0.636200  0.742600  1
  C  C616  1  0.636200  0.339000  0.242600  1
  C  C617  1  0.914000  0.408600  0.987500  1
  C  C618  1  0.408600  0.914000  0.487500  1
  C  C619  1  0.500700  0.856900  0.642600  1
  C  C620  1  0.856900  0.500700  0.142600  1
  C  C621  1  0.610200  0.226800  0.826000  1
  C  C622  1  0.226800  0.610200  0.326000  1
  C  C623  1  0.298200  0.045400  0.870600  1
  C  C624  1  0.045400  0.298200  0.370600  1
  C  C625  1  0.381700  0.659300  0.738200  1
  C  C626  1  0.659300  0.381700  0.238200  1
  C  C627  1  0.492600  0.176200  0.666600  1
  C  C628  1  0.176200  0.492600  0.166600  1
  C  C629  1  0.019200  0.163600  0.846300  1
  C  C630  1  0.163600  0.019200  0.346300  1
  C  C631  1  0.511200  0.458800  0.632600  1
  C  C632  1  0.458800  0.511200  0.132600  1
  C  C633  1  0.531300  0.711900  0.765900  1
  C  C634  1  0.711900  0.531300  0.265900  1
  C  C635  1  0.986100  0.212300  0.852300  1
  C  C636  1  0.212300  0.986100  0.352300  1
  C  C637  1  0.934200  0.371600  0.884200  1
  C  C638  1  0.371600  0.934200  0.384200  1
  C  C639  1  0.258100  0.691300  0.978700  1
  C  C640  1  0.691300  0.258100  0.478700  1
  C  C641  1  0.353400  0.626000  0.950300  1
  C  C642  1  0.626000  0.353400  0.450300  1
  C  C643  1  0.384700  0.520700  0.883400  1
  C  C644  1  0.520700  0.384700  0.383400  1
  C  C645  1  0.493300  0.701900  0.806800  1
  C  C646  1  0.701900  0.493300  0.306800  1
  C  C647  1  0.507000  0.694400  0.846800  1
  C  C648  1  0.694400  0.507000  0.346800  1
  C  C649  1  0.559500  0.698700  0.845600  1
  C  C650  1  0.698700  0.559500  0.345600  1
  C  C651  1  0.598000  0.710200  0.800800  1
  C  C652  1  0.710200  0.598000  0.300800  1
  C  C653  1  0.330400  0.628800  0.706900  1
  C  C654  1  0.628800  0.330400  0.206900  1
  C  C655  1  0.649600  0.832400  0.610600  1
  C  C656  1  0.832400  0.649600  0.110600  1
  C  C657  1  0.627600  0.841200  0.569900  1
  C  C658  1  0.841200  0.627600  0.069900  1
  C  C659  1  0.619800  0.784800  0.573500  1
  C  C660  1  0.784800  0.619800  0.073500  1
  C  C661  1  0.586500  0.785700  0.549800  1
  C  C662  1  0.785700  0.586500  0.049800  1
  C  C663  1  0.573600  0.645000  0.579100  1
  C  C664  1  0.645000  0.573600  0.079100  1
  C  C665  1  0.854400  0.546600  0.722000  1
  C  C666  1  0.546600  0.854400  0.222000  1
  C  C667  1  0.176200  0.549200  0.781600  1
  C  C668  1  0.549200  0.176200  0.281600  1
  C  C669  1  0.104800  0.522800  0.771200  1
  C  C670  1  0.522800  0.104800  0.271200  1
  C  C671  1  0.081000  0.508200  0.817400  1
  C  C672  1  0.508200  0.081000  0.317400  1
  C  C673  1  0.102000  0.518800  0.848300  1
  C  C674  1  0.518800  0.102000  0.348300  1
  C  C675  1  0.147000  0.539400  0.830900  1
  C  C676  1  0.539400  0.147000  0.330900  1
  C  C677  1  0.090900  0.643700  0.620900  1
  C  C678  1  0.643700  0.090900  0.120900  1
  C  C679  1  0.143900  0.610100  0.602600  1
  C  C680  1  0.610100  0.143900  0.102600  1
  C  C681  1  0.199200  0.539200  0.551300  1
  C  C682  1  0.539200  0.199200  0.051300  1
  C  C683  1  0.989100  0.670500  0.633100  1
  C  C684  1  0.670500  0.989100  0.133100  1
  C  C685  1  0.978100  0.675500  0.679600  1
  C  C686  1  0.675500  0.978100  0.179600  1
  C  C687  1  0.505200  0.438800  0.599400  1
  C  C688  1  0.438800  0.505200  0.099400  1
  C  C689  1  0.352100  0.349700  0.028200  1
  C  C690  1  0.349700  0.352100  0.528200  1
  C  C691  1  0.342300  0.351900  0.077300  1
  C  C692  1  0.351900  0.342300  0.577300  1
  C  C693  1  0.290000  0.292600  0.032300  1
  C  C694  1  0.292600  0.290000  0.532300  1
  C  C695  1  0.404900  0.361100  0.990700  1
  C  C696  1  0.361100  0.404900  0.490700  1
  C  C697  1  0.191800  0.991600  0.138900  1
  C  C698  1  0.991600  0.191800  0.638900  1
  C  C699  1  0.049300  0.564700  0.460800  1
  C  C700  1  0.564700  0.049300  0.960800  1
  C  C701  1  0.680200  0.282800  0.618500  1
  C  C702  1  0.282800  0.680200  0.118500  1
  C  C703  1  0.914600  0.969200  0.004200  1
  C  C704  1  0.969200  0.914600  0.504200  1
  C  C705  1  0.564000  0.026200  0.594800  1
  C  C706  1  0.026200  0.564000  0.094800  1
  C  C707  1  0.577500  0.135900  0.454700  1
  C  C708  1  0.135900  0.577500  0.954700  1
  C  C709  1  0.784600  0.321400  0.095200  1
  C  C710  1  0.321400  0.784600  0.595200  1
  C  C711  1  0.141000  0.360600  0.972000  1
  C  C712  1  0.360600  0.141000  0.472000  1
  C  C713  1  0.467700  0.332500  0.111000  1
  C  C714  1  0.332500  0.467700  0.611000  1
  C  C715  1  0.645100  0.459500  0.503000  1
  C  C716  1  0.459500  0.645100  0.003000  1
  C  C717  1  0.671600  0.565800  0.751600  1
  C  C718  1  0.565800  0.671600  0.251600  1
  C  C719  1  0.648800  0.604600  0.924600  1
  C  C720  1  0.604600  0.648800  0.424600  1
  C  C721  1  0.850800  0.403400  0.261900  1
  C  C722  1  0.403400  0.850800  0.761900  1
  C  C723  1  0.901400  0.404400  0.273600  1
  C  C724  1  0.404400  0.901400  0.773600  1
  C  C725  1  0.826500  0.345700  0.233400  1
  C  C726  1  0.345700  0.826500  0.733400  1
  C  C727  1  0.853800  0.297600  0.211800  1
  C  C728  1  0.297600  0.853800  0.711800  1
  F  F729  1  0.138090  0.994210  0.159200  1
  F  F730  1  0.994210  0.138090  0.659200  1
  F  F731  1  0.218980  0.943640  0.160600  1
  F  F732  1  0.943640  0.218980  0.660600  1
  F  F733  1  0.201100  0.991300  0.096300  1
  F  F734  1  0.991300  0.201100  0.596300  1
  F  F735  1  0.998900  0.568100  0.458900  1
  F  F736  1  0.568100  0.998900  0.958900  1
  F  F737  1  0.044000  0.606600  0.476000  1
  F  F738  1  0.606600  0.044000  0.976000  1
  F  F739  1  0.076500  0.575900  0.421600  1
  F  F740  1  0.575900  0.076500  0.921600  1
  F  F741  1  0.631200  0.297200  0.612400  1
  F  F742  1  0.297200  0.631200  0.112400  1
  F  F743  1  0.707400  0.235400  0.608300  1
  F  F744  1  0.235400  0.707400  0.108300  1
  F  F745  1  0.703900  0.321700  0.594000  1
  F  F746  1  0.321700  0.703900  0.094000  1
  F  F747  1  0.886900  0.997900  0.040100  1
  F  F748  1  0.997900  0.886900  0.540100  1
  F  F749  1  0.936200  0.911400  0.024600  1
  F  F750  1  0.911400  0.936200  0.524600  1
  F  F751  1  0.958100  0.994900  0.969300  1
  F  F752  1  0.994900  0.958100  0.469300  1
  F  F753  1  0.598100  0.985900  0.568100  1
  F  F754  1  0.985900  0.598100  0.068100  1
  F  F755  1  0.588900  0.071900  0.580800  1
  F  F756  1  0.071900  0.588900  0.080800  1
  F  F757  1  0.507500  0.040900  0.595400  1
  F  F758  1  0.040900  0.507500  0.095400  1
  F  F759  1  0.559400  0.179600  0.470300  1
  F  F760  1  0.179600  0.559400  0.970300  1
  F  F761  1  0.591200  0.089400  0.488400  1
  F  F762  1  0.089400  0.591200  0.988400  1
  F  F763  1  0.539100  0.128100  0.443900  1
  F  F764  1  0.128100  0.539100  0.943900  1
  F  F765  1  0.757000  0.298800  0.142700  1
  F  F766  1  0.298800  0.757000  0.642700  1
  F  F767  1  0.785800  0.377600  0.084700  1
  F  F768  1  0.377600  0.785800  0.584700  1
  F  F769  1  0.763300  0.311500  0.064000  1
  F  F770  1  0.311500  0.763300  0.564000  1
  F  F771  1  0.196700  0.359900  0.958000  1
  F  F772  1  0.359900  0.196700  0.458000  1
  F  F773  1  0.120000  0.408600  0.944300  1
  F  F774  1  0.408600  0.120000  0.444300  1
  F  F775  1  0.127300  0.365300  0.016200  1
  F  F776  1  0.365300  0.127300  0.516200  1
  F  F777  1  0.423600  0.382200  0.115200  1
  F  F778  1  0.382200  0.423600  0.615200  1
  F  F779  1  0.513400  0.344800  0.070200  1
  F  F780  1  0.344800  0.513400  0.570200  1
  F  F781  1  0.446600  0.290200  0.107600  1
  F  F782  1  0.290200  0.446600  0.607600  1
  F  F783  1  0.632800  0.494800  0.533100  1
  F  F784  1  0.494800  0.632800  0.033100  1
  F  F785  1  0.615100  0.486300  0.467700  1
  F  F786  1  0.486300  0.615100  0.967700  1
  F  F787  1  0.632100  0.406500  0.530400  1
  F  F788  1  0.406500  0.632100  0.030400  1
  F  F789  1  0.613700  0.592100  0.757400  1
  F  F790  1  0.592100  0.613700  0.257400  1
  F  F791  1  0.680800  0.505600  0.768200  1
  F  F792  1  0.505600  0.680800  0.268200  1
  F  F793  1  0.695900  0.586700  0.773700  1
  F  F794  1  0.586700  0.695900  0.273700  1
  F  F795  1  0.610300  0.606100  0.970200  1
  F  F796  1  0.606100  0.610300  0.470200  1
  F  F797  1  0.642200  0.565400  0.906000  1
  F  F798  1  0.565400  0.642200  0.406000  1
  F  F799  1  0.644300  0.659900  0.893000  1
  F  F800  1  0.659900  0.644300  0.393000  1
  H  H801  1  0.722500  0.492900  0.859700  1
  H  H802  1  0.492900  0.722500  0.359700  1
  H  H803  1  0.545000  0.904600  0.015500  1
  H  H804  1  0.904600  0.545000  0.515500  1
  H  H805  1  0.922400  0.418400  0.750700  1
  H  H806  1  0.418400  0.922400  0.250700  1
  H  H807  1  0.339900  0.280300  0.806000  1
  H  H808  1  0.280300  0.339900  0.306000  1
  H  H809  1  0.265900  0.927900  0.983200  1
  H  H810  1  0.927900  0.265900  0.483200  1
  H  H811  1  0.766000  0.073400  0.744400  1
  H  H812  1  0.073400  0.766000  0.244400  1
  H  H813  1  0.343300  0.129900  0.768100  1
  H  H814  1  0.129900  0.343300  0.268100  1
  H  H815  1  0.002300  0.410500  0.766100  1
  H  H816  1  0.410500  0.002300  0.266100  1
  H  H817  1  0.197100  0.944100  0.683700  1
  H  H818  1  0.944100  0.197100  0.183700  1
  H  H819  1  0.250300  0.966500  0.711900  1
  H  H820  1  0.966500  0.250300  0.211900  1
  H  H821  1  0.870100  0.961300  0.862500  1
  H  H822  1  0.961300  0.870100  0.362500  1
  H  H823  1  0.571000  0.703200  0.991900  1
  H  H824  1  0.703200  0.571000  0.491900  1
  H  H825  1  0.306800  0.992000  0.736100  1
  H  H826  1  0.992000  0.306800  0.236100  1
  H  H827  1  0.984700  0.095100  0.768400  1
  H  H828  1  0.095100  0.984700  0.268400  1
  H  H829  1  0.891100  0.099300  0.971700  1
  H  H830  1  0.099300  0.891100  0.471700  1
  H  H831  1  0.278000  0.066800  0.022400  1
  H  H832  1  0.066800  0.278000  0.522400  1
  H  H833  1  0.135000  0.106800  0.722700  1
  H  H834  1  0.106800  0.135000  0.222700  1
  H  H835  1  0.665000  0.703000  0.956700  1
  H  H836  1  0.703000  0.665000  0.456700  1
  H  H837  1  0.189500  0.195700  0.756200  1
  H  H838  1  0.195700  0.189500  0.256200  1
  H  H839  1  0.208400  0.084800  0.990800  1
  H  H840  1  0.084800  0.208400  0.490800  1
  H  H841  1  0.084400  0.081000  0.693600  1
  H  H842  1  0.081000  0.084400  0.193600  1
  H  H843  1  0.142800  0.166600  0.971300  1
  H  H844  1  0.166600  0.142800  0.471300  1
  H  H845  1  0.986600  0.278000  0.718500  1
  H  H846  1  0.278000  0.986600  0.218500  1
  H  H847  1  0.262800  0.281600  0.787000  1
  H  H848  1  0.281600  0.262800  0.287000  1
  H  H849  1  0.143100  0.784500  0.933600  1
  H  H850  1  0.784500  0.143100  0.433600  1
  H  H851  1  0.461900  0.968100  0.016900  1
  H  H852  1  0.968100  0.461900  0.516900  1
  H  H853  1  0.246900  0.854300  0.979200  1
  H  H854  1  0.854300  0.246900  0.479200  1
  H  H855  1  0.113700  0.011300  0.967400  1
  H  H856  1  0.011300  0.113700  0.467400  1
  H  H857  1  0.617700  0.128900  0.793600  1
  H  H858  1  0.128900  0.617700  0.293600  1
  H  H859  1  0.854500  0.094700  0.752900  1
  H  H860  1  0.094700  0.854500  0.252900  1
  H  H861  1  0.952500  0.719900  0.893700  1
  H  H862  1  0.719900  0.952500  0.393700  1
  H  H863  1  0.046000  0.223400  0.970600  1
  H  H864  1  0.223400  0.046000  0.470600  1
  H  H865  1  0.376400  0.029200  0.024400  1
  H  H866  1  0.029200  0.376400  0.524400  1
  H  H867  1  0.730600  0.032800  0.854700  1
  H  H868  1  0.032800  0.730600  0.354700  1
  H  H869  1  0.189100  0.692700  0.786800  1
  H  H870  1  0.692700  0.189100  0.286800  1
  H  H871  1  0.528500  0.182300  0.811800  1
  H  H872  1  0.182300  0.528500  0.311800  1
  H  H873  1  0.091800  0.399600  0.780300  1
  H  H874  1  0.399600  0.091800  0.280300  1
  H  H875  1  0.756200  0.087400  0.992600  1
  H  H876  1  0.087400  0.756200  0.492600  1
  H  H877  1  0.062800  0.264800  0.737300  1
  H  H878  1  0.264800  0.062800  0.237300  1
  H  H879  1  0.107900  0.729300  0.831100  1
  H  H880  1  0.729300  0.107900  0.331100  1
  H  H881  1  0.698600  0.142000  0.708200  1
  H  H882  1  0.142000  0.698600  0.208200  1
  H  H883  1  0.202500  0.798700  0.964100  1
  H  H884  1  0.798700  0.202500  0.464100  1
  H  H885  1  0.661200  0.778200  0.049800  1
  H  H886  1  0.778200  0.661200  0.549800  1
  H  H887  1  0.408200  0.872400  0.981200  1
  H  H888  1  0.872400  0.408200  0.481200  1
  H  H889  1  0.675600  0.241600  0.002400  1
  H  H890  1  0.241600  0.675600  0.502400  1
  H  H891  1  0.571000  0.775200  0.087000  1
  H  H892  1  0.775200  0.571000  0.587000  1
  H  H893  1  0.183800  0.348000  0.791600  1
  H  H894  1  0.348000  0.183800  0.291600  1
  H  H895  1  0.480400  0.094600  0.761700  1
  H  H896  1  0.094600  0.480400  0.261700  1
  H  H897  1  0.338100  0.051700  0.762700  1
  H  H898  1  0.051700  0.338100  0.262700  1
  H  H899  1  0.873400  0.469000  0.669900  1
  H  H900  1  0.469000  0.873400  0.169900  1
  H  H901  1  0.953800  0.046200  0.844300  1
  H  H902  1  0.046200  0.953800  0.344300  1
  H  H903  1  0.981700  0.083700  0.970700  1
  H  H904  1  0.083700  0.981700  0.470700  1
  H  H905  1  0.947100  0.186700  0.745100  1
  H  H906  1  0.186700  0.947100  0.245100  1
  H  H907  1  0.592600  0.935600  0.747400  1
  H  H908  1  0.935600  0.592600  0.247400  1
  H  H909  1  0.946800  0.235800  0.987400  1
  H  H910  1  0.235800  0.946800  0.487400  1
  H  H911  1  0.910500  0.824700  0.995100  1
  H  H912  1  0.824700  0.910500  0.495100  1
  H  H913  1  0.856400  0.851800  0.942200  1
  H  H914  1  0.851800  0.856400  0.442200  1
  H  H915  1  0.750200  0.958800  0.699000  1
  H  H916  1  0.958800  0.750200  0.199000  1
  H  H917  1  0.680900  0.026700  0.662600  1
  H  H918  1  0.026700  0.680900  0.162600  1
  H  H919  1  0.855800  0.242000  0.996000  1
  H  H920  1  0.242000  0.855800  0.496000  1
  H  H921  1  0.433700  0.249900  0.813600  1
  H  H922  1  0.249900  0.433700  0.313600  1
  H  H923  1  0.938700  0.062700  0.714500  1
  H  H924  1  0.062700  0.938700  0.214500  1
  H  H925  1  0.006200  0.695600  0.943400  1
  H  H926  1  0.695600  0.006200  0.443400  1
  H  H927  1  0.042800  0.932400  0.940700  1
  H  H928  1  0.932400  0.042800  0.440700  1
  H  H929  1  0.718600  0.232000  0.055800  1
  H  H930  1  0.232000  0.718600  0.555800  1
  H  H931  1  0.492300  0.813100  0.975100  1
  H  H932  1  0.813100  0.492300  0.475100  1
  H  H933  1  0.979100  0.909100  0.925600  1
  H  H934  1  0.909100  0.979100  0.425600  1
  H  H935  1  0.786900  0.444100  0.706500  1
  H  H936  1  0.444100  0.786900  0.206500  1
  H  H937  1  0.106300  0.924900  0.596600  1
  H  H938  1  0.924900  0.106300  0.096600  1
  H  H939  1  0.098000  0.103000  0.595700  1
  H  H940  1  0.103000  0.098000  0.095700  1
  H  H941  1  0.790500  0.444300  0.811000  1
  H  H942  1  0.444300  0.790500  0.311000  1
  H  H943  1  0.816900  0.045900  0.827300  1
  H  H944  1  0.045900  0.816900  0.327300  1
  H  H945  1  0.191400  0.954000  0.584300  1
  H  H946  1  0.954000  0.191400  0.084300  1
  H  H947  1  0.082700  0.768100  0.910000  1
  H  H948  1  0.768100  0.082700  0.410000  1
  H  H949  1  0.566300  0.040900  0.749700  1
  H  H950  1  0.040900  0.566300  0.249700  1
  H  H951  1  0.939800  0.321800  0.632400  1
  H  H952  1  0.321800  0.939800  0.132400  1
  H  H953  1  0.695700  0.889700  0.985600  1
  H  H954  1  0.889700  0.695700  0.485600  1
  H  H955  1  0.741700  0.952700  0.983900  1
  H  H956  1  0.952700  0.741700  0.483900  1
  H  H957  1  0.758100  0.022500  0.918300  1
  H  H958  1  0.022500  0.758100  0.418300  1
  H  H959  1  0.541000  0.879000  0.753300  1
  H  H960  1  0.879000  0.541000  0.253300  1
  H  H961  1  0.516800  0.813200  0.821300  1
  H  H962  1  0.813200  0.516800  0.321300  1
  H  H963  1  0.548800  0.800800  0.883200  1
  H  H964  1  0.800800  0.548800  0.383200  1
  H  H965  1  0.659300  0.146500  0.626600  1
  H  H966  1  0.146500  0.659300  0.126600  1
  H  H967  1  0.624800  0.154200  0.676200  1
  H  H968  1  0.154200  0.624800  0.176200  1
  H  H969  1  0.619500  0.107500  0.659500  1
  H  H970  1  0.107500  0.619500  0.159500  1
  H  H971  1  0.893100  0.940300  0.724400  1
  H  H972  1  0.940300  0.893100  0.224400  1
  H  H973  1  0.874200  0.002600  0.697600  1
  H  H974  1  0.002600  0.874200  0.197600  1
  H  H975  1  0.864700  0.955300  0.684600  1
  H  H976  1  0.955300  0.864700  0.184600  1
  H  H977  1  0.812000  0.984800  0.768000  1
  H  H978  1  0.984800  0.812000  0.268000  1
  H  H979  1  0.825400  0.889400  0.782200  1
  H  H980  1  0.889400  0.825400  0.282200  1
  H  H981  1  0.796100  0.899500  0.743900  1
  H  H982  1  0.899500  0.796100  0.243900  1
  H  H983  1  0.761700  0.917900  0.789700  1
  H  H984  1  0.917900  0.761700  0.289700  1
  H  H985  1  0.707600  0.440200  0.941300  1
  H  H986  1  0.440200  0.707600  0.441300  1
  H  H987  1  0.476533  0.809867  0.079900  1
  H  H988  1  0.809867  0.476533  0.579900  1
  H  H989  1  0.490900  0.762700  0.123400  1
  H  H990  1  0.762700  0.490900  0.623400  1
  H  H991  1  0.436300  0.770700  0.110600  1
  H  H992  1  0.770700  0.436300  0.610600  1
  H  H993  1  0.757200  0.698600  0.992500  1
  H  H994  1  0.698600  0.757200  0.492500  1
  H  H995  1  0.744700  0.763100  0.970000  1
  H  H996  1  0.763100  0.744700  0.470000  1
  H  H997  1  0.737200  0.723600  0.947000  1
  H  H998  1  0.723600  0.737200  0.447000  1
  H  H999  1  0.686900  0.125900  0.916400  1
  H  H1000  1  0.125900  0.686900  0.416400  1
  H  H1001  1  0.699300  0.088300  0.963800  1
  H  H1002  1  0.088300  0.699300  0.463800  1
  H  H1003  1  0.743600  0.118800  0.925300  1
  H  H1004  1  0.118800  0.743600  0.425300  1
  H  H1005  1  0.870800  0.808400  0.818100  1
  H  H1006  1  0.808400  0.870800  0.318100  1
  H  H1007  1  0.912500  0.758300  0.841800  1
  H  H1008  1  0.758300  0.912500  0.341800  1
  H  H1009  1  0.918700  0.819100  0.829400  1
  H  H1010  1  0.819100  0.918700  0.329400  1
  H  H1011  1  0.663600  0.229400  0.904600  1
  H  H1012  1  0.229400  0.663600  0.404600  1
  H  H1013  1  0.720100  0.224700  0.912700  1
  H  H1014  1  0.224700  0.720100  0.412700  1
  H  H1015  1  0.664000  0.251600  0.944000  1
  H  H1016  1  0.251600  0.664000  0.444000  1
  H  H1017  1  0.487900  0.742100  0.042900  1
  H  H1018  1  0.742100  0.487900  0.542900  1
  H  H1019  1  0.519400  0.648800  0.082900  1
  H  H1020  1  0.648800  0.519400  0.582900  1
  H  H1021  1  0.460200  0.676200  0.109900  1
  H  H1022  1  0.676200  0.460200  0.609900  1
  H  H1023  1  0.512400  0.668800  0.125900  1
  H  H1024  1  0.668800  0.512400  0.625900  1
  H  H1025  1  0.183300  0.834500  0.686300  1
  H  H1026  1  0.834500  0.183300  0.186300  1
  H  H1027  1  0.235700  0.749100  0.720500  1
  H  H1028  1  0.749100  0.235700  0.220500  1
  H  H1029  1  0.760700  0.130500  0.127900  1
  H  H1030  1  0.130500  0.760700  0.627900  1
  H  H1031  1  0.787700  0.180700  0.096900  1
  H  H1032  1  0.180700  0.787700  0.596900  1
  H  H1033  1  0.820800  0.120000  0.094500  1
  H  H1034  1  0.120000  0.820800  0.594500  1
  H  H1035  1  0.800400  0.075600  0.048500  1
  H  H1036  1  0.075600  0.800400  0.548500  1
  H  H1037  1  0.640300  0.171300  0.975100  1
  H  H1038  1  0.171300  0.640300  0.475100  1
  H  H1039  1  0.840400  0.770000  0.893700  1
  H  H1040  1  0.770000  0.840400  0.393700  1
  H  H1041  1  0.793600  0.840400  0.920500  1
  H  H1042  1  0.840400  0.793600  0.420500  1
  H  H1043  1  0.787400  0.841400  0.873100  1
  H  H1044  1  0.841400  0.787400  0.373100  1
  H  H1045  1  0.822900  0.877900  0.873800  1
  H  H1046  1  0.877900  0.822900  0.373800  1
  H  H1047  1  0.214400  0.069600  0.551300  1
  H  H1048  1  0.069600  0.214400  0.051300  1
  H  H1049  1  0.225700  0.018100  0.593200  1
  H  H1050  1  0.018100  0.225700  0.093200  1
  H  H1051  1  0.186700  0.074500  0.602500  1
  H  H1052  1  0.074500  0.186700  0.102500  1
  H  H1053  1  0.974400  0.007800  0.627900  1
  H  H1054  1  0.007800  0.974400  0.127900  1
  H  H1055  1  0.949500  0.995100  0.572600  1
  H  H1056  1  0.995100  0.949500  0.072600  1
  H  H1057  1  0.011300  0.987700  0.542200  1
  H  H1058  1  0.987700  0.011300  0.042200  1
  H  H1059  1  0.978400  0.044800  0.553300  1
  H  H1060  1  0.044800  0.978400  0.053300  1
  H  H1061  1  0.967600  0.922200  0.633200  1
  H  H1062  1  0.922200  0.967600  0.133200  1
  H  H1063  1  0.011300  0.917700  0.657900  1
  H  H1064  1  0.917700  0.011300  0.157900  1
  H  H1065  1  0.031200  0.906400  0.608800  1
  H  H1066  1  0.906400  0.031200  0.108800  1
  H  H1067  1  0.018600  0.074800  0.607900  1
  H  H1068  1  0.074800  0.018600  0.107900  1
  H  H1069  1  0.884400  0.089400  0.895400  1
  H  H1070  1  0.089400  0.884400  0.395400  1
  H  H1071  1  0.733900  0.349100  0.960400  1
  H  H1072  1  0.349100  0.733900  0.460400  1
  H  H1073  1  0.976700  0.428100  0.594600  1
  H  H1074  1  0.428100  0.976700  0.094600  1
  H  H1075  1  0.996100  0.370300  0.628100  1
  H  H1076  1  0.370300  0.996100  0.128100  1
  H  H1077  1  0.975300  0.424300  0.645200  1
  H  H1078  1  0.424300  0.975300  0.145200  1
  H  H1079  1  0.733100  0.358700  0.687400  1
  H  H1080  1  0.358700  0.733100  0.187400  1
  H  H1081  1  0.701700  0.433700  0.720100  1
  H  H1082  1  0.433700  0.701700  0.220100  1
  H  H1083  1  0.730800  0.398400  0.760000  1
  H  H1084  1  0.398400  0.730800  0.260000  1
  H  H1085  1  0.679400  0.383400  0.757900  1
  H  H1086  1  0.383400  0.679400  0.257900  1
  H  H1087  1  0.852400  0.302400  0.669500  1
  H  H1088  1  0.302400  0.852400  0.169500  1
  H  H1089  1  0.726100  0.290700  0.760100  1
  H  H1090  1  0.290700  0.726100  0.260100  1
  H  H1091  1  0.776300  0.303100  0.766600  1
  H  H1092  1  0.303100  0.776300  0.266600  1
  H  H1093  1  0.785900  0.275100  0.727700  1
  H  H1094  1  0.275100  0.785900  0.227700  1
  H  H1095  1  0.986800  0.712600  0.036200  1
  H  H1096  1  0.712600  0.986800  0.536200  1
  H  H1097  1  0.993800  0.773800  0.015000  1
  H  H1098  1  0.773800  0.993800  0.515000  1
  H  H1099  1  0.035600  0.726800  0.992100  1
  H  H1100  1  0.726800  0.035600  0.492100  1
  H  H1101  1  0.788600  0.537000  0.777000  1
  H  H1102  1  0.537000  0.788600  0.277000  1
  H  H1103  1  0.365700  0.049500  0.883800  1
  H  H1104  1  0.049500  0.365700  0.383800  1
  H  H1105  1  0.407900  0.170700  0.928900  1
  H  H1106  1  0.170700  0.407900  0.428900  1
  H  H1107  1  0.158900  0.153100  0.865700  1
  H  H1108  1  0.153100  0.158900  0.365700  1
  H  H1109  1  0.594400  0.296800  0.772800  1
  H  H1110  1  0.296800  0.594400  0.272800  1
  H  H1111  1  0.319200  0.235200  0.661100  1
  H  H1112  1  0.235200  0.319200  0.161100  1
  H  H1113  1  0.291700  0.071100  0.587000  1
  H  H1114  1  0.071100  0.291700  0.087000  1
  H  H1115  1  0.179300  0.187500  0.649800  1
  H  H1116  1  0.187500  0.179300  0.149800  1
  H  H1117  1  0.417200  0.089000  0.640300  1
  H  H1118  1  0.089000  0.417200  0.140300  1
  H  H1119  1  0.094600  0.990600  0.814500  1
  H  H1120  1  0.990600  0.094600  0.314500  1
  H  H1121  1  0.245400  0.716400  0.838800  1
  H  H1122  1  0.716400  0.245400  0.338800  1
  H  H1123  1  0.390100  0.114300  0.901200  1
  H  H1124  1  0.114300  0.390100  0.401200  1
  H  H1125  1  0.446200  0.805600  0.601300  1
  H  H1126  1  0.805600  0.446200  0.101300  1
  H  H1127  1  0.330700  0.976100  0.582800  1
  H  H1128  1  0.976100  0.330700  0.082800  1
  H  H1129  1  0.385100  0.887500  0.597700  1
  H  H1130  1  0.887500  0.385100  0.097700  1
  H  H1131  1  0.595900  0.431900  0.695300  1
  H  H1132  1  0.431900  0.595900  0.195300  1
  H  H1133  1  0.083600  0.065200  0.837900  1
  H  H1134  1  0.065200  0.083600  0.337900  1
  H  H1135  1  0.989000  0.410400  0.990800  1
  H  H1136  1  0.410400  0.989000  0.490800  1
  H  H1137  1  0.470000  0.931000  0.653400  1
  H  H1138  1  0.931000  0.470000  0.153400  1
  H  H1139  1  0.925600  0.548800  0.675200  1
  H  H1140  1  0.548800  0.925600  0.175200  1
  H  H1141  1  0.250300  0.237300  0.031900  1
  H  H1142  1  0.237300  0.250300  0.531900  1
  H  H1143  1  0.385400  0.321200  0.680900  1
  H  H1144  1  0.321200  0.385400  0.180900  1
  H  H1145  1  0.264800  0.552400  0.820000  1
  H  H1146  1  0.552400  0.264800  0.320000  1
  H  H1147  1  0.186000  0.463000  0.658700  1
  H  H1148  1  0.463000  0.186000  0.158700  1
  H  H1149  1  0.110400  0.278400  0.649900  1
  H  H1150  1  0.278400  0.110400  0.149900  1
  H  H1151  1  0.286100  0.860300  0.855100  1
  H  H1152  1  0.860300  0.286100  0.355100  1
  H  H1153  1  0.219300  0.370900  0.663600  1
  H  H1154  1  0.370900  0.219300  0.163600  1
  H  H1155  1  0.018100  0.600900  0.580900  1
  H  H1156  1  0.600900  0.018100  0.080900  1
  H  H1157  1  0.237200  0.999400  0.856000  1
  H  H1158  1  0.999400  0.237200  0.356000  1
  H  H1159  1  0.548000  0.310400  0.704100  1
  H  H1160  1  0.310400  0.548000  0.204100  1
  H  H1161  1  0.837900  0.514700  0.831800  1
  H  H1162  1  0.514700  0.837900  0.331800  1
  H  H1163  1  0.238900  0.215300  0.904800  1
  H  H1164  1  0.215300  0.238900  0.404800  1
  H  H1165  1  0.515500  0.197300  0.919000  1
  H  H1166  1  0.197300  0.515500  0.419000  1
  H  H1167  1  0.087100  0.374300  0.630200  1
  H  H1168  1  0.374300  0.087100  0.130200  1
  H  H1169  1  0.130100  0.894900  0.809500  1
  H  H1170  1  0.894900  0.130100  0.309500  1
  H  H1171  1  0.935000  0.738400  0.609200  1
  H  H1172  1  0.738400  0.935000  0.109200  1
  H  H1173  1  0.970700  0.704900  0.572300  1
  H  H1174  1  0.704900  0.970700  0.072300  1
  H  H1175  1  0.997100  0.741300  0.584100  1
  H  H1176  1  0.741300  0.997100  0.084100  1
  H  H1177  1  0.321300  0.117100  0.066900  1
  H  H1178  1  0.117100  0.321300  0.566900  1
  H  H1179  1  0.365000  0.122400  0.018100  1
  H  H1180  1  0.122400  0.365000  0.518100  1
  H  H1181  1  0.301500  0.145700  0.021300  1
  H  H1182  1  0.145700  0.301500  0.521300  1
  H  H1183  1  0.541800  0.750800  0.534700  1
  H  H1184  1  0.750800  0.541800  0.034700  1
  H  H1185  1  0.796700  0.410900  0.004000  1
  H  H1186  1  0.410900  0.796700  0.504000  1
  H  H1187  1  0.840900  0.380700  0.967200  1
  H  H1188  1  0.380700  0.840900  0.467200  1
  H  H1189  1  0.804600  0.440400  0.950700  1
  H  H1190  1  0.440400  0.804600  0.450700  1
  H  H1191  1  0.027300  0.491100  0.955900  1
  H  H1192  1  0.491100  0.027300  0.455900  1
  H  H1193  1  0.993300  0.476700  0.033600  1
  H  H1194  1  0.476700  0.993300  0.533600  1
  H  H1195  1  0.955500  0.537100  0.026900  1
  H  H1196  1  0.537100  0.955500  0.526900  1
  H  H1197  1  0.020300  0.527900  0.011700  1
  H  H1198  1  0.527900  0.020300  0.511700  1
  H  H1199  1  0.172800  0.551000  0.722000  1
  H  H1200  1  0.551000  0.172800  0.222000  1
  H  H1201  1  0.264600  0.748200  0.004600  1
  H  H1202  1  0.748200  0.264600  0.504600  1
  H  H1203  1  0.312100  0.740100  0.959500  1
  H  H1204  1  0.740100  0.312100  0.459500  1
  H  H1205  1  0.314000  0.695200  0.007100  1
  H  H1206  1  0.695200  0.314000  0.507100  1
  H  H1207  1  0.673900  0.861900  0.502000  1
  H  H1208  1  0.861900  0.673900  0.002000  1
  H  H1209  1  0.710600  0.823000  0.535900  1
  H  H1210  1  0.823000  0.710600  0.035900  1
  H  H1211  1  0.687000  0.886200  0.534200  1
  H  H1212  1  0.886200  0.687000  0.034200  1
  H  H1213  1  0.565600  0.438800  0.771300  1
  H  H1214  1  0.438800  0.565600  0.271300  1
  H  H1215  1  0.575300  0.488900  0.780400  1
  H  H1216  1  0.488900  0.575300  0.280400  1
  H  H1217  1  0.606700  0.473700  0.733000  1
  H  H1218  1  0.473700  0.606700  0.233000  1
  H  H1219  1  0.424900  0.250900  0.023900  1
  H  H1220  1  0.250900  0.424900  0.523900  1
  H  H1221  1  0.441600  0.538600  0.701900  1
  H  H1222  1  0.538600  0.441600  0.201900  1
  H  H1223  1  0.489800  0.519000  0.760600  1
  H  H1224  1  0.519000  0.489800  0.260600  1
  H  H1225  1  0.548200  0.584000  0.730300  1
  H  H1226  1  0.584000  0.548200  0.230300  1
  H  H1227  1  0.516300  0.593300  0.694000  1
  H  H1228  1  0.593300  0.516300  0.194000  1
  H  H1229  1  0.578700  0.560300  0.686800  1
  H  H1230  1  0.560300  0.578700  0.186800  1
  H  H1231  1  0.411800  0.172400  0.026200  1
  H  H1232  1  0.172400  0.411800  0.526200  1
  H  H1233  1  0.264600  0.267400  0.931000  1
  H  H1234  1  0.267400  0.264600  0.431000  1
  H  H1235  1  0.637900  0.648300  0.626500  1
  H  H1236  1  0.648300  0.637900  0.126500  1
  H  H1237  1  0.055300  0.465700  0.627200  1
  H  H1238  1  0.465700  0.055300  0.127200  1
  H  H1239  1  0.422300  0.573900  0.919500  1
  H  H1240  1  0.573900  0.422300  0.419500  1
  H  H1241  1  0.190700  0.804500  0.821300  1
  H  H1242  1  0.804500  0.190700  0.321300  1
  H  H1243  1  0.263000  0.135600  0.627400  1
  H  H1244  1  0.135600  0.263000  0.127400  1
  H  H1245  1  0.041600  0.367600  0.905300  1
  H  H1246  1  0.367600  0.041600  0.405300  1
  H  H1247  1  0.659100  0.733100  0.623400  1
  H  H1248  1  0.733100  0.659100  0.123400  1
  H  H1249  1  0.397300  0.389500  0.701100  1
  H  H1250  1  0.389500  0.397300  0.201100  1
  H  H1251  1  0.924300  0.314300  0.864600  1
  H  H1252  1  0.314300  0.924300  0.364600  1
  H  H1253  1  0.584800  0.403400  0.638000  1
  H  H1254  1  0.403400  0.584800  0.138000  1
  H  H1255  1  0.284600  0.582200  0.890200  1
  H  H1256  1  0.582200  0.284600  0.390200  1
  H  H1257  1  0.196500  0.696700  0.035400  1
  H  H1258  1  0.696700  0.196500  0.535400  1
  H  H1259  1  0.238400  0.638400  0.040100  1
  H  H1260  1  0.638400  0.238400  0.540100  1
  H  H1261  1  0.195500  0.654900  0.011200  1
  H  H1262  1  0.654900  0.195500  0.511200  1
  H  H1263  1  0.268200  0.421200  0.927000  1
  H  H1264  1  0.421200  0.268200  0.427000  1
  H  H1265  1  0.367600  0.634200  0.637600  1
  H  H1266  1  0.634200  0.367600  0.137600  1
  H  H1267  1  0.338700  0.771900  0.875400  1
  H  H1268  1  0.771900  0.338700  0.375400  1
  H  H1269  1  0.608100  0.167300  0.883400  1
  H  H1270  1  0.167300  0.608100  0.383400  1
  H  H1271  1  0.536300  0.234900  0.691700  1
  H  H1272  1  0.234900  0.536300  0.191700  1
  H  H1273  1  0.105700  0.551100  0.549200  1
  H  H1274  1  0.551100  0.105700  0.049200  1
  H  H1275  1  0.432400  0.676600  0.628500  1
  H  H1276  1  0.676600  0.432400  0.128500  1
  H  H1277  1  0.233000  0.651000  0.930100  1
  H  H1278  1  0.651000  0.233000  0.430100  1
  H  H1279  1  0.228000  0.511200  0.895200  1
  H  H1280  1  0.511200  0.228000  0.395200  1
  H  H1281  1  0.894600  0.563400  0.936200  1
  H  H1282  1  0.563400  0.894600  0.436200  1
  H  H1283  1  0.483300  0.110300  0.655800  1
  H  H1284  1  0.110300  0.483300  0.155800  1
  H  H1285  1  0.071600  0.285600  0.884000  1
  H  H1286  1  0.285600  0.071600  0.384000  1
  H  H1287  1  0.991400  0.573000  0.904100  1
  H  H1288  1  0.573000  0.991400  0.404100  1
  H  H1289  1  0.019100  0.587100  0.933400  1
  H  H1290  1  0.587100  0.019100  0.433400  1
  H  H1291  1  0.954300  0.598300  0.945900  1
  H  H1292  1  0.598300  0.954300  0.445900  1
  H  H1293  1  0.608000  0.728400  0.732200  1
  H  H1294  1  0.728400  0.608000  0.232200  1
  H  H1295  1  0.434600  0.502800  0.648300  1
  H  H1296  1  0.502800  0.434600  0.148300  1
  H  H1297  1  0.340800  0.508600  0.776000  1
  H  H1298  1  0.508600  0.340800  0.276000  1
  H  H1299  1  0.315600  0.625400  0.772100  1
  H  H1300  1  0.625400  0.315600  0.272100  1
  H  H1301  1  0.922300  0.368100  0.993700  1
  H  H1302  1  0.368100  0.922300  0.493700  1
  H  H1303  1  0.531300  0.848300  0.654000  1
  H  H1304  1  0.848300  0.531300  0.154000  1
  H  H1305  1  0.647500  0.213500  0.811600  1
  H  H1306  1  0.213500  0.647500  0.311600  1
  H  H1307  1  0.308400  0.011200  0.864000  1
  H  H1308  1  0.011200  0.308400  0.364000  1
  H  H1309  1  0.529500  0.166500  0.667000  1
  H  H1310  1  0.166500  0.529500  0.167000  1
  H  H1311  1  0.010800  0.137400  0.838300  1
  H  H1312  1  0.137400  0.010800  0.338300  1
  H  H1313  1  0.949800  0.226800  0.849600  1
  H  H1314  1  0.226800  0.949800  0.349600  1
  H  H1315  1  0.898800  0.394000  0.883600  1
  H  H1316  1  0.394000  0.898800  0.383600  1
  H  H1317  1  0.236600  0.718800  0.957600  1
  H  H1318  1  0.718800  0.236600  0.457600  1
  H  H1319  1  0.374100  0.643500  0.958900  1
  H  H1320  1  0.643500  0.374100  0.458900  1
  H  H1321  1  0.384300  0.484900  0.905500  1
  H  H1322  1  0.484900  0.384300  0.405500  1
  H  H1323  1  0.422500  0.523100  0.867500  1
  H  H1324  1  0.523100  0.422500  0.367500  1
  H  H1325  1  0.365800  0.525400  0.861100  1
  H  H1326  1  0.525400  0.365800  0.361100  1
  H  H1327  1  0.481100  0.686300  0.875400  1
  H  H1328  1  0.686300  0.481100  0.375400  1
  H  H1329  1  0.568500  0.694300  0.872600  1
  H  H1330  1  0.694300  0.568500  0.372600  1
  H  H1331  1  0.633400  0.712000  0.798600  1
  H  H1332  1  0.712000  0.633400  0.298600  1
  H  H1333  1  0.300300  0.615700  0.710200  1
  H  H1334  1  0.615700  0.300300  0.210200  1
  H  H1335  1  0.623800  0.818800  0.639200  1
  H  H1336  1  0.818800  0.623800  0.139200  1
  H  H1337  1  0.654200  0.867000  0.610200  1
  H  H1338  1  0.867000  0.654200  0.110200  1
  H  H1339  1  0.684800  0.805800  0.607900  1
  H  H1340  1  0.805800  0.684800  0.107900  1
  H  H1341  1  0.594300  0.871500  0.568100  1
  H  H1342  1  0.871500  0.594300  0.068100  1
  H  H1343  1  0.564200  0.822400  0.537800  1
  H  H1344  1  0.822400  0.564200  0.037800  1
  H  H1345  1  0.594800  0.629400  0.553400  1
  H  H1346  1  0.629400  0.594800  0.053400  1
  H  H1347  1  0.534800  0.655000  0.580500  1
  H  H1348  1  0.655000  0.534800  0.080500  1
  H  H1349  1  0.579600  0.618200  0.607600  1
  H  H1350  1  0.618200  0.579600  0.107600  1
  H  H1351  1  0.834400  0.557600  0.700100  1
  H  H1352  1  0.557600  0.834400  0.200100  1
  H  H1353  1  0.209600  0.560000  0.770500  1
  H  H1354  1  0.560000  0.209600  0.270500  1
  H  H1355  1  0.084600  0.511400  0.880100  1
  H  H1356  1  0.511400  0.084600  0.380100  1
  H  H1357  1  0.160100  0.547700  0.850700  1
  H  H1358  1  0.547700  0.160100  0.350700  1
  H  H1359  1  0.086200  0.660000  0.645700  1
  H  H1360  1  0.660000  0.086200  0.145700  1
  H  H1361  1  0.174700  0.604300  0.615200  1
  H  H1362  1  0.604300  0.174700  0.115200  1
  H  H1363  1  0.218100  0.560100  0.521900  1
  H  H1364  1  0.560100  0.218100  0.021900  1
  H  H1365  1  0.187300  0.511700  0.546600  1
  H  H1366  1  0.511700  0.187300  0.046600  1
  H  H1367  1  0.224000  0.521400  0.571000  1
  H  H1368  1  0.521400  0.224000  0.071000  1
  H  H1369  1  0.966400  0.645400  0.638100  1
  H  H1370  1  0.645400  0.966400  0.138100  1
  H  H1371  1  0.940300  0.695300  0.689500  1
  H  H1372  1  0.695300  0.940300  0.189500  1
  H  H1373  1  0.002600  0.695400  0.679400  1
  H  H1374  1  0.695400  0.002600  0.179400  1
  H  H1375  1  0.984300  0.639100  0.700700  1
  H  H1376  1  0.639100  0.984300  0.200700  1
  H  H1377  1  0.519000  0.461000  0.568700  1
  H  H1378  1  0.461000  0.519000  0.068700  1
  H  H1379  1  0.466600  0.441000  0.604600  1
  H  H1380  1  0.441000  0.466600  0.104600  1
  H  H1381  1  0.525900  0.400900  0.602200  1
  H  H1382  1  0.400900  0.525900  0.102200  1
  H  H1383  1  0.321500  0.378100  0.016900  1
  H  H1384  1  0.378100  0.321500  0.516900  1
  H  H1385  1  0.344400  0.387600  0.076700  1
  H  H1386  1  0.387600  0.344400  0.576700  1
  H  H1387  1  0.370100  0.323500  0.090900  1
  H  H1388  1  0.323500  0.370100  0.590900  1
  H  H1389  1  0.306200  0.345800  0.095600  1
  H  H1390  1  0.345800  0.306200  0.595600  1
  H  H1391  1  0.260800  0.326600  0.026600  1
  H  H1392  1  0.326600  0.260800  0.526600  1
  H  H1393  1  0.409200  0.396600  0.988700  1
  H  H1394  1  0.396600  0.409200  0.488700  1
  H  H1395  1  0.402500  0.361500  0.961300  1
  H  H1396  1  0.361500  0.402500  0.461300  1
  H  H1397  1  0.436300  0.332700  0.998600  1
  H  H1398  1  0.332700  0.436300  0.498600  1
  H  H1399  1  0.820700  0.396300  0.289600  1
  H  H1400  1  0.396300  0.820700  0.789600  1
  H  H1401  1  0.838000  0.437800  0.240200  1
  H  H1402  1  0.437800  0.838000  0.740200  1
  H  H1403  1  0.891400  0.433200  0.288800  1
  H  H1404  1  0.433200  0.891400  0.788800  1
  H  H1405  1  0.930400  0.411600  0.245500  1
  H  H1406  1  0.411600  0.930400  0.745500  1
  H  H1407  1  0.914100  0.369100  0.293900  1
  H  H1408  1  0.369100  0.914100  0.793900  1
  H  H1409  1  0.808700  0.377900  0.212700  1
  H  H1410  1  0.377900  0.808700  0.712700  1
  H  H1411  1  0.799400  0.335800  0.262800  1
  H  H1412  1  0.335800  0.799400  0.762800  1
  H  H1413  1  0.826300  0.288100  0.204600  1
  H  H1414  1  0.288100  0.826300  0.704600  1
  H  H1415  1  0.870500  0.266100  0.233200  1
  H  H1416  1  0.266100  0.870500  0.733200  1
  H  H1417  1  0.881900  0.307900  0.183700  1
  H  H1418  1  0.307900  0.881900  0.683700  1
  N  N1419  1  0.172860  0.287800  0.772200  1
  N  N1420  1  0.287800  0.172860  0.272200  1
  N  N1421  1  0.266010  0.108610  0.752200  1
  N  N1422  1  0.108610  0.266010  0.252200  1
  N  N1423  1  0.356600  0.207800  0.788400  1
  N  N1424  1  0.207800  0.356600  0.288400  1
  N  N1425  1  0.131250  0.282850  0.761200  1
  N  N1426  1  0.282850  0.131250  0.261200  1
  N  N1427  1  0.221810  0.106610  0.741800  1
  N  N1428  1  0.106610  0.221810  0.241800  1
  N  N1429  1  0.402250  0.166450  0.783500  1
  N  N1430  1  0.166450  0.402250  0.283500  1
  N  N1431  1  0.181200  0.917200  0.966300  1
  N  N1432  1  0.917200  0.181200  0.466300  1
  N  N1433  1  0.292900  0.001700  0.995400  1
  N  N1434  1  0.001700  0.292900  0.495400  1
  N  N1435  1  0.113170  0.102570  0.974500  1
  N  N1436  1  0.102570  0.113170  0.474500  1
  N  N1437  1  0.062900  0.099700  0.978000  1
  N  N1438  1  0.099700  0.062900  0.478000  1
  N  N1439  1  0.334800  0.959000  0.990600  1
  N  N1440  1  0.959000  0.334800  0.490600  1
  N  N1441  1  0.136630  0.922630  0.954500  1
  N  N1442  1  0.922630  0.136630  0.454500  1
  N  N1443  1  0.946780  0.348580  0.732900  1
  N  N1444  1  0.348580  0.946780  0.232900  1
  N  N1445  1  0.865900  0.172100  0.984000  1
  N  N1446  1  0.172100  0.865900  0.484000  1
  N  N1447  1  0.600700  0.079300  0.769500  1
  N  N1448  1  0.079300  0.600700  0.269500  1
  N  N1449  1  0.526500  0.852100  0.994200  1
  N  N1450  1  0.852100  0.526500  0.494200  1
  N  N1451  1  0.024300  0.836100  0.915000  1
  N  N1452  1  0.836100  0.024300  0.415000  1
  N  N1453  1  0.136200  0.011400  0.685100  1
  N  N1454  1  0.011400  0.136200  0.185100  1
  N  N1455  1  0.416200  0.177400  0.659700  1
  N  N1456  1  0.177400  0.416200  0.159700  1
  N  N1457  1  0.348900  0.056500  0.622400  1
  N  N1458  1  0.056500  0.348900  0.122400  1
  N  N1459  1  0.406980  0.224580  0.668600  1
  N  N1460  1  0.224580  0.406980  0.168600  1
  N  N1461  1  0.232580  0.228980  0.647000  1
  N  N1462  1  0.228980  0.232580  0.147000  1
  N  N1463  1  0.227650  0.280450  0.647700  1
  N  N1464  1  0.280450  0.227650  0.147700  1
  N  N1465  1  0.387700  0.012700  0.634600  1
  N  N1466  1  0.012700  0.387700  0.134600  1
  N  N1467  1  0.066500  0.159700  0.853800  1
  N  N1468  1  0.159700  0.066500  0.353800  1
  N  N1469  1  0.066350  0.204150  0.863800  1
  N  N1470  1  0.204150  0.066350  0.363800  1
  N  N1471  1  0.162250  0.977250  0.836700  1
  N  N1472  1  0.977250  0.162250  0.336700  1
  N  N1473  1  0.204040  0.933440  0.843700  1
  N  N1474  1  0.933440  0.204040  0.343700  1
  N  N1475  1  0.250040  0.081640  0.870600  1
  N  N1476  1  0.081640  0.250040  0.370600  1
  N  N1477  1  0.246950  0.126350  0.882800  1
  N  N1478  1  0.126350  0.246950  0.382800  1
  N  N1479  1  0.337250  0.222850  0.934100  1
  N  N1480  1  0.222850  0.337250  0.434100  1
  N  N1481  1  0.473200  0.357400  0.701500  1
  N  N1482  1  0.357400  0.473200  0.201500  1
  N  N1483  1  0.493600  0.819600  0.627400  1
  N  N1484  1  0.819600  0.493600  0.127400  1
  N  N1485  1  0.298500  0.734700  0.859100  1
  N  N1486  1  0.734700  0.298500  0.359100  1
  N  N1487  1  0.117030  0.471430  0.643900  1
  N  N1488  1  0.471430  0.117030  0.143900  1
  N  N1489  1  0.967400  0.388400  0.896000  1
  N  N1490  1  0.388400  0.967400  0.396000  1
  O  O1491  1  0.885770  0.275970  0.750300  1
  O  O1492  1  0.275970  0.885770  0.250300  1
  O  O1493  1  0.838040  0.373640  0.775000  1
  O  O1494  1  0.373640  0.838040  0.275000  1
  O  O1495  1  0.636360  0.858640  0.969100  1
  O  O1496  1  0.858640  0.636360  0.469100  1
  O  O1497  1  0.682790  0.017210  0.812300  1
  O  O1498  1  0.017210  0.682790  0.312300  1
  O  O1499  1  0.597560  0.813360  0.925600  1
  O  O1500  1  0.813360  0.597560  0.425600  1
  O  O1501  1  0.644970  0.971770  0.769600  1
  O  O1502  1  0.971770  0.644970  0.269600  1
  O  O1503  1  0.821800  0.162800  0.925700  1
  O  O1504  1  0.162800  0.821800  0.425700  1
  O  O1505  1  0.785280  0.258680  0.952800  1
  O  O1506  1  0.258680  0.785280  0.452800  1
  O  O1507  1  0.116130  0.917130  0.685400  1
  O  O1508  1  0.917130  0.116130  0.185400  1
  O  O1509  1  0.028470  0.005070  0.699000  1
  O  O1510  1  0.005070  0.028470  0.199000  1
  O  O1511  1  0.943570  0.886170  0.868300  1
  O  O1512  1  0.886170  0.943570  0.368300  1
  O  O1513  1  0.025220  0.794020  0.851500  1
  O  O1514  1  0.794020  0.025220  0.351500  1
  O  O1515  1  0.551500  0.736500  0.686500  1
  O  O1516  1  0.736500  0.551500  0.186500  1
  O  O1517  1  0.488100  0.711100  0.648000  1
  O  O1518  1  0.711100  0.488100  0.148000  1
  O  O1519  1  0.409690  0.686490  0.852800  1
  O  O1520  1  0.686490  0.409690  0.352800  1
  O  O1521  1  0.353070  0.652070  0.816300  1
  O  O1522  1  0.652070  0.353070  0.316300  1
  O  O1523  1  0.519020  0.368020  0.760500  1
  O  O1524  1  0.368020  0.519020  0.260500  1
  O  O1525  1  0.416750  0.435350  0.755200  1
  O  O1526  1  0.435350  0.416750  0.255200  1
  O  O1527  1  0.108150  0.536350  0.697600  1
  O  O1528  1  0.536350  0.108150  0.197600  1
  O  O1529  1  0.015480  0.538320  0.678700  1
  O  O1530  1  0.538320  0.015480  0.178700  1
  O  O1531  1  0.427150  0.254350  0.932100  1
  O  O1532  1  0.254350  0.427150  0.432100  1
  O  O1533  1  0.329050  0.333030  0.929500  1
  O  O1534  1  0.333030  0.329050  0.429500  1
  O  O1535  1  0.915700  0.491900  0.860800  1
  O  O1536  1  0.491900  0.915700  0.360800  1
  O  O1537  1  0.012900  0.475100  0.878300  1
  O  O1538  1  0.475100  0.012900  0.378300  1
  O  O1539  1  0.180790  0.096190  0.114800  1
  O  O1540  1  0.096190  0.180790  0.614800  1
  O  O1541  1  0.189150  0.046150  0.190900  1
  O  O1542  1  0.046150  0.189150  0.690900  1
  O  O1543  1  0.267570  0.035370  0.126500  1
  O  O1544  1  0.035370  0.267570  0.626500  1
  O  O1545  1  0.034700  0.499300  0.538900  1
  O  O1546  1  0.499300  0.034700  0.038900  1
  O  O1547  1  0.073700  0.461300  0.479600  1
  O  O1548  1  0.461300  0.073700  0.979600  1
  O  O1549  1  0.126200  0.503400  0.497200  1
  O  O1550  1  0.503400  0.126200  0.997200  1
  O  O1551  1  0.644700  0.324500  0.689900  1
  O  O1552  1  0.324500  0.644700  0.189900  1
  O  O1553  1  0.639500  0.230700  0.703300  1
  O  O1554  1  0.230700  0.639500  0.203300  1
  O  O1555  1  0.726800  0.252600  0.681500  1
  O  O1556  1  0.252600  0.726800  0.181500  1
  O  O1557  1  0.895900  0.950100  0.922400  1
  O  O1558  1  0.950100  0.895900  0.422400  1
  O  O1559  1  0.818900  0.922700  0.018400  1
  O  O1560  1  0.922700  0.818900  0.518400  1
  O  O1561  1  0.817700  0.041900  0.965900  1
  O  O1562  1  0.041900  0.817700  0.465900  1
  O  O1563  1  0.647600  0.965400  0.649900  1
  O  O1564  1  0.965400  0.647600  0.149900  1
  O  O1565  1  0.536000  0.032000  0.694800  1
  O  O1566  1  0.032000  0.536000  0.194800  1
  O  O1567  1  0.544900  0.924900  0.674600  1
  O  O1568  1  0.924900  0.544900  0.174600  1
  O  O1569  1  0.619100  0.187900  0.375800  1
  O  O1570  1  0.187900  0.619100  0.875800  1
  O  O1571  1  0.676100  0.145100  0.426200  1
  O  O1572  1  0.145100  0.676100  0.926200  1
  O  O1573  1  0.651700  0.089500  0.394900  1
  O  O1574  1  0.089500  0.651700  0.894900  1
  O  O1575  1  0.856100  0.205900  0.097500  1
  O  O1576  1  0.205900  0.856100  0.597500  1
  O  O1577  1  0.902300  0.303700  0.031300  1
  O  O1578  1  0.303700  0.902300  0.531300  1
  O  O1579  1  0.882200  0.278800  0.136500  1
  O  O1580  1  0.278800  0.882200  0.636500  1
  O  O1581  1  0.152500  0.266900  0.006000  1
  O  O1582  1  0.266900  0.152500  0.506000  1
  O  O1583  1  0.152200  0.300800  0.924400  1
  O  O1584  1  0.300800  0.152200  0.424400  1
  O  O1585  1  0.070200  0.316200  0.985100  1
  O  O1586  1  0.316200  0.070200  0.485100  1
  O  O1587  1  0.516100  0.360100  0.171800  1
  O  O1588  1  0.360100  0.516100  0.671800  1
  O  O1589  1  0.437200  0.283800  0.216400  1
  O  O1590  1  0.283800  0.437200  0.716400  1
  O  O1591  1  0.553600  0.244200  0.157600  1
  O  O1592  1  0.244200  0.553600  0.657600  1
  O  O1593  1  0.721900  0.515700  0.458400  1
  O  O1594  1  0.515700  0.721900  0.958400  1
  O  O1595  1  0.762700  0.399100  0.512900  1
  O  O1596  1  0.399100  0.762700  0.012900  1
  O  O1597  1  0.734500  0.417700  0.423500  1
  O  O1598  1  0.417700  0.734500  0.923500  1
  O  O1599  1  0.706100  0.657700  0.665500  1
  O  O1600  1  0.657700  0.706100  0.165500  1
  O  O1601  1  0.781500  0.542700  0.679200  1
  O  O1602  1  0.542700  0.781500  0.179200  1
  O  O1603  1  0.673500  0.563500  0.656600  1
  O  O1604  1  0.563500  0.673500  0.156600  1
  O  O1605  1  0.740300  0.639700  0.935500  1
  O  O1606  1  0.639700  0.740300  0.435500  1
  O  O1607  1  0.770500  0.551100  0.885200  1
  O  O1608  1  0.551100  0.770500  0.385200  1
  O  O1609  1  0.719200  0.525600  0.989700  1
  O  O1610  1  0.525600  0.719200  0.489700  1
  O  O1611  1  0.874300  0.356100  0.240300  1
  O  O1612  1  0.356100  0.874300  0.740300  1
  O  O1613  1  0.206200  0.152800  0.023800  1
  O  O1614  1  0.152800  0.206200  0.523800  1
  O  O1615  1  0.430700  0.032500  0.753500  1
  O  O1616  1  0.032500  0.430700  0.253500  1
  O  O1617  1  0.858500  0.655100  0.899700  1
  O  O1618  1  0.655100  0.858500  0.399700  1
  O  O1619  1  0.456000  0.029600  0.905800  1
  O  O1620  1  0.029600  0.456000  0.405800  1
  O  O1621  1  0.829300  0.312500  0.523800  1
  O  O1622  1  0.312500  0.829300  0.023800  1
  O  O1623  1  0.747300  0.152500  0.781800  1
  O  O1624  1  0.152500  0.747300  0.281800  1
  O  O1625  1  0.593000  0.894600  0.084300  1
  O  O1626  1  0.894600  0.593000  0.584300  1
  O  O1627  1  0.326100  0.917700  0.871500  1
  O  O1628  1  0.917700  0.326100  0.371500  1
  O  O1629  1  0.768100  0.822300  0.054600  1
  O  O1630  1  0.822300  0.768100  0.554600  1
  Ru  Ru1631  1  0.876280  0.356660  0.713920  1
  Ru  Ru1632  1  0.356660  0.876280  0.213920  1
  Ru  Ru1633  1  0.783730  0.179330  0.987540  1
  Ru  Ru1634  1  0.179330  0.783730  0.487540  1
  Ru  Ru1635  1  0.964907  0.808247  0.907980  1
  Ru  Ru1636  1  0.808247  0.964907  0.407980  1
  Ru  Ru1637  1  0.097133  0.994093  0.646610  1
  Ru  Ru1638  1  0.994093  0.097133  0.146610  1
  Ru  Ru1639  1  0.602290  0.793970  0.989990  1
  Ru  Ru1640  1  0.793970  0.602290  0.489990  1
  Ru  Ru1641  1  0.681050  0.035150  0.746580  1
  Ru  Ru1642  1  0.035150  0.681050  0.246580  1
  Ru  Ru1643  1  0.553760  0.746400  0.620610  1
  Ru  Ru1644  1  0.746400  0.553760  0.120610  1
  Ru  Ru1645  1  0.342630  0.654650  0.880390  1
  Ru  Ru1646  1  0.654650  0.342630  0.380390  1
  Ru  Ru1647  1  0.088130  0.557050  0.638020  1
  Ru  Ru1648  1  0.557050  0.088130  0.138020  1
  Ru  Ru1649  1  0.939840  0.459440  0.918660  1
  Ru  Ru1650  1  0.459440  0.939840  0.418660  1
  Ru  Ru1651  1  0.351523  0.260723  0.975570  1
  Ru  Ru1652  1  0.260723  0.351523  0.475570  1
  Ru  Ru1653  1  0.490311  0.425451  0.708260  1
  Ru  Ru1654  1  0.425451  0.490311  0.208260  1
  S  S1655  1  0.210410  0.047690  0.142670  1
  S  S1656  1  0.047690  0.210410  0.642670  1
  S  S1657  1  0.073590  0.500690  0.498210  1
  S  S1658  1  0.500690  0.073590  0.998210  1
  S  S1659  1  0.672660  0.270080  0.681810  1
  S  S1660  1  0.270080  0.672660  0.181810  1
  S  S1661  1  0.864010  0.971890  0.976450  1
  S  S1662  1  0.971890  0.864010  0.476450  1
  S  S1663  1  0.569350  0.987350  0.657350  1
  S  S1664  1  0.987350  0.569350  0.157350  1
  S  S1665  1  0.637150  0.140370  0.408020  1
  S  S1666  1  0.140370  0.637150  0.908020  1
  S  S1667  1  0.859770  0.277610  0.088270  1
  S  S1668  1  0.277610  0.859770  0.588270  1
  S  S1669  1  0.128480  0.304720  0.970970  1
  S  S1670  1  0.304720  0.128480  0.470970  1
  S  S1671  1  0.494200  0.305000  0.164600  1
  S  S1672  1  0.305000  0.494200  0.664600  1
  S  S1673  1  0.721570  0.444970  0.472500  1
  S  S1674  1  0.444970  0.721570  0.972500  1
  S  S1675  1  0.708650  0.582250  0.686500  1
  S  S1676  1  0.582250  0.708650  0.186500  1
  S  S1677  1  0.722500  0.579700  0.932400  1
  S  S1678  1  0.579700  0.722500  0.432400  1
