
#######################################################################
#
#                 Cambridge Crystallographic Data Centre
#                                CCDC 
#
#######################################################################
#
# If this CIF has been generated from an entry in the Cambridge 
# Structural Database, then it will include bibliographic, chemical, 
# crystal, experimental, refinement or atomic coordinate data resulting 
# from the CCDC's data processing and validation procedures.
#
#######################################################################

data_SUJKEO
_chemical_formula_moiety         
'C100 H120 Co8 N28 O20 4+,4(B1 F4 1-),21(C1 H4 O1),C4 H10 O1,H2 O1'
_chemical_name_systematic        
'tetrakis(\m~3~-2,6-bis(5-(2-Pyridyl)pyrazolato)pyridine)-tetrahydroxy-hexadecakis(methanol)-octa-cobalt(ii) tetrakis(tetrafluoroborate) diethyl ether methanol solvate monohydrate'
_symmetry_cell_setting           monoclinic
_symmetry_space_group_name_H-M   'P 21/c'
_symmetry_Int_Tables_number      14
_space_group_name_Hall           '-P 2ybc'
loop_
_symmetry_equiv_pos_site_id
_symmetry_equiv_pos_as_xyz
1 x,y,z
2 -x,1/2+y,1/2-z
3 -x,-y,-z
4 x,1/2-y,1/2+z
_cell_length_a                   32.114(6)
_cell_length_b                   22.201(4)
_cell_length_c                   23.795(4)
_cell_angle_alpha                90
_cell_angle_beta                 102.413(3)
_cell_angle_gamma                90
_cell_volume                     16568.4
_exptl_crystal_colour            orange
_exptl_crystal_description       columnar
_cell_formula_units_Z            4
loop_
_atom_site_label
_atom_site_type_symbol
_atom_site_fract_x
_atom_site_fract_y
_atom_site_fract_z
Co1 Co 0.36780(3) 0.69197(3) 0.30621(3)
Co2 Co 0.42841(3) 0.87539(4) 0.34666(3)
Co3 Co 0.38342(2) 1.04416(3) 0.24609(3)
Co4 Co 0.12799(3) 0.79320(4) 0.29967(4)
Co5 Co 0.11943(3) 0.98260(4) 0.36765(3)
Co6 Co 0.15623(3) 1.15058(4) 0.28362(3)
Co7 Co 0.22647(3) 0.68806(4) 0.23072(4)
Co8 Co 0.26067(3) 1.14531(4) 0.18497(3)
N1 N 0.38454(15) 0.6197(2) 0.36737(19)
N2 N 0.41679(15) 0.7307(2) 0.36824(19)
N3 N 0.43649(15) 0.7842(2) 0.37856(19)
N4 N 0.47974(15) 0.8817(2) 0.41608(18)
N5 N 0.44532(15) 0.9689(2) 0.34685(19)
N6 N 0.43070(14) 1.0196(2) 0.31849(18)
N7 N 0.41259(15) 1.1300(2) 0.27474(19)
N8 N 0.10798(18) 0.7183(2) 0.3433(3)
N9 N 0.11004(15) 0.8346(2) 0.3700(2)
N10 N 0.10517(14) 0.8914(2) 0.38844(19)
N11 N 0.09023(14) 0.9928(2) 0.43594(18)
N12 N 0.12095(15) 1.0781(2) 0.38147(19)
N13 N 0.13494(15) 1.1277(2) 0.35825(19)
N14 N 0.15706(15) 1.2363(2) 0.3270(2)
N15 N 0.41073(15) 0.6440(2) 0.2629(2)
N16 N 0.32604(16) 0.6432(2) 0.2420(2)
N17 N 0.28398(15) 0.6443(2) 0.2183(2)
N18 N 0.20621(17) 0.6391(2) 0.1566(2)
N19 N 0.15938(16) 0.7067(2) 0.2086(2)
N20 N 0.13048(16) 0.7412(2) 0.2272(2)
N21 N 0.06537(16) 0.8043(2) 0.2465(2)
N22 N 0.42226(14) 1.0225(2) 0.18611(19)
N23 N 0.35048(14) 1.08463(19) 0.16906(19)
N24 N 0.31506(15) 1.11885(19) 0.15216(18)
N25 N 0.24846(15) 1.1804(2) 0.10244(19)
N26 N 0.19911(15) 1.1860(2) 0.17719(19)
N27 N 0.16730(15) 1.1854(2) 0.2056(2)
N28 N 0.09284(15) 1.1773(2) 0.2395(2)
O1 O 0.32239(13) 0.72514(19) 0.34737(17)
O2 O 0.36094(15) 0.76392(18) 0.25017(16)
O3 O 0.38532(15) 0.8946(2) 0.4010(2)
O4 O 0.47015(15) 0.85978(19) 0.28870(16)
O5 O 0.33990(12) 1.05631(17) 0.29891(15)
O6 O 0.35150(12) 0.96017(16) 0.22497(15)
O7 O 0.21411(18) 0.6159(2) 0.2843(3)
O8 O 0.23844(15) 0.7649(2) 0.1829(2)
O9 O 0.24681(12) 0.7361(2) 0.30103(16)
H1 H 0.2374 0.7213 0.3283
O10 O 0.19082(13) 0.7813(2) 0.34497(17)
O11 O 0.15013(14) 0.86874(19) 0.26149(18)
O12 O 0.18179(13) 0.97647(19) 0.42065(18)
O13 O 0.05754(14) 0.98863(19) 0.31109(17)
O14 O 0.14510(12) 0.97195(14) 0.30096(14)
H2 H 0.1440 0.9354 0.2915
O15 O 0.21931(13) 1.1355(2) 0.32141(16)
O16 O 0.15036(14) 1.06605(19) 0.24586(16)
O17 O 0.29331(14) 1.22437(19) 0.21901(18)
O18 O 0.23280(16) 1.0606(2) 0.1620(2)
O19 O 0.27211(12) 1.11268(18) 0.26393(14)
H3 H 0.2928 1.0886 0.2684
C1 C 0.3677(2) 0.5646(3) 0.3629(3)
H4 H 0.3428 0.5575 0.3339
C2 C 0.3846(2) 0.5171(3) 0.3984(3)
H5 H 0.3715 0.4786 0.3949
C3 C 0.4209(2) 0.5282(3) 0.4386(3)
H6 H 0.4340 0.4963 0.4626
C4 C 0.4391(2) 0.5846(3) 0.4453(3)
H7 H 0.4637 0.5925 0.4745
C5 C 0.4201(2) 0.6299(3) 0.4079(2)
C6 C 0.43656(18) 0.6920(3) 0.4098(2)
C7 C 0.46985(18) 0.7209(3) 0.4467(2)
H8 H 0.4892 0.7043 0.4788
C8 C 0.46851(18) 0.7786(2) 0.4264(2)
C9 C 0.49430(18) 0.8319(3) 0.4453(2)
C10 C 0.53052(19) 0.8334(3) 0.4889(2)
H9 H 0.5409 0.7981 0.5098
C11 C 0.55122(19) 0.8887(3) 0.5011(2)
H10 H 0.5764 0.8908 0.5304
C12 C 0.53572(19) 0.9405(3) 0.4713(2)
H11 H 0.5496 0.9782 0.4799
C13 C 0.49911(18) 0.9349(3) 0.4285(2)
C14 C 0.47845(18) 0.9840(2) 0.3909(2)
C15 C 0.48477(18) 1.0451(3) 0.3917(2)
H12 H 0.5055 1.0676 0.4179
C16 C 0.45400(18) 1.0671(3) 0.3453(2)
C17 C 0.44305(19) 1.1273(3) 0.3234(2)
C18 C 0.4625(2) 1.1788(3) 0.3505(2)
H13 H 0.4841 1.1759 0.3846
C19 C 0.4496(2) 1.2340(3) 0.3265(3)
H14 H 0.4623 1.2700 0.3439
C20 C 0.4179(2) 1.2366(3) 0.2768(3)
H15 H 0.4084 1.2742 0.2596
C21 C 0.4006(2) 1.1832(3) 0.2528(3)
H16 H 0.3789 1.1850 0.2187
C22 C 0.1108(3) 0.6597(4) 0.3317(4)
H17 H 0.1213 0.6494 0.2985
C23 C 0.1001(4) 0.6144(4) 0.3629(5)
H18 H 0.1028 0.5737 0.3518
C24 C 0.0853(4) 0.6281(3) 0.4107(5)
H19 H 0.0779 0.5968 0.4339
C25 C 0.0809(3) 0.6889(3) 0.4256(4)
H20 H 0.0700 0.6998 0.4583
C26 C 0.0932(2) 0.7317(3) 0.3908(3)
C27 C 0.0918(2) 0.7960(3) 0.4024(3)
C28 C 0.07463(19) 0.8286(3) 0.4420(3)
H21 H 0.0602 0.8133 0.4699
C29 C 0.08327(17) 0.8881(3) 0.4317(2)
C30 C 0.07530(17) 0.9449(3) 0.4585(2)
C31 C 0.05402(18) 0.9491(3) 0.5035(2)
H22 H 0.0429 0.9146 0.5188
C32 C 0.0499(2) 1.0064(3) 0.5248(3)
H23 H 0.0357 1.0112 0.5557
C33 C 0.06599(19) 1.0570(3) 0.5026(2)
H24 H 0.0636 1.0960 0.5180
C34 C 0.08578(17) 1.0478(3) 0.4564(2)
C35 C 0.10319(18) 1.0955(3) 0.4253(2)
C36 C 0.10592(17) 1.1575(3) 0.4325(2)
H25 H 0.0964 1.1815 0.4603
C37 C 0.12605(17) 1.1759(3) 0.3890(2)
C38 C 0.13770(18) 1.2350(3) 0.3719(3)
C39 C 0.1303(2) 1.2880(3) 0.3996(3)
H26 H 0.1162 1.2871 0.4308
C40 C 0.1440(2) 1.3420(3) 0.3806(3)
H27 H 0.1394 1.3788 0.3987
C41 C 0.1644(2) 1.3416(3) 0.3349(3)
H28 H 0.1743 1.3782 0.3216
C42 C 0.1701(2) 1.2889(3) 0.3097(3)
H29 H 0.1841 1.2892 0.2783
C43 C 0.4534(2) 0.6428(3) 0.2786(3)
H30 H 0.4672 0.6706 0.3069
C44 C 0.4780(2) 0.6030(3) 0.2555(3)
H31 H 0.5081 0.6037 0.2674
C45 C 0.4582(2) 0.5623(3) 0.2151(3)
H32 H 0.4747 0.5342 0.1990
C46 C 0.4140(2) 0.5624(3) 0.1978(2)
H33 H 0.3998 0.5347 0.1698
C47 C 0.3911(2) 0.6043(3) 0.2228(2)
C48 C 0.3457(2) 0.6081(3) 0.2087(3)
C49 C 0.3156(2) 0.5853(3) 0.1638(3)
H34 H 0.3201 0.5587 0.1343
C50 C 0.2777(2) 0.6094(3) 0.1708(3)
C51 C 0.2341(2) 0.6062(3) 0.1356(3)
C52 C 0.2209(3) 0.5749(4) 0.0848(4)
H35 H 0.2410 0.5520 0.0697
C53 C 0.1794(3) 0.5766(5) 0.0560(4)
H36 H 0.1703 0.5549 0.0211
C54 C 0.1509(3) 0.6100(4) 0.0782(4)
H37 H 0.1217 0.6113 0.0591
C55 C 0.1652(2) 0.6426(3) 0.1294(3)
C56 C 0.1391(2) 0.6813(3) 0.1571(3)
C57 C 0.0974(2) 0.6997(3) 0.1441(3)
H38 H 0.0761 0.6886 0.1114
C58 C 0.0925(2) 0.7376(3) 0.1882(3)
C59 C 0.0572(2) 0.7728(3) 0.1973(3)
C60 C 0.0180(2) 0.7747(3) 0.1598(3)
H39 H 0.0126 0.7505 0.1260
C61 C -0.0129(2) 0.8115(4) 0.1717(3)
H40 H -0.0396 0.8145 0.1453
C62 C -0.0055(2) 0.8444(4) 0.2218(3)
H41 H -0.0269 0.8697 0.2310
C63 C 0.0343(2) 0.8395(3) 0.2586(3)
H42 H 0.0398 0.8618 0.2935
C64 C 0.45569(19) 0.9854(3) 0.1957(3)
H43 H 0.4631 0.9657 0.2319
C65 C 0.4802(2) 0.9738(3) 0.1555(3)
H44 H 0.5042 0.9478 0.1642
C66 C 0.4685(2) 1.0018(3) 0.1022(3)
H45 H 0.4844 0.9949 0.0734
C67 C 0.43391(19) 1.0395(3) 0.0914(3)
H46 H 0.4260 1.0597 0.0555
C68 C 0.41049(18) 1.0476(2) 0.1339(2)
C69 C 0.37117(18) 1.0832(2) 0.1255(2)
C70 C 0.34931(19) 1.1167(2) 0.0791(2)
H47 H 0.3567 1.1231 0.0430
C71 C 0.31422(19) 1.1385(3) 0.0977(2)
C72 C 0.27693(19) 1.1747(3) 0.0700(2)
C73 C 0.2711(2) 1.2007(3) 0.0148(2)
H48 H 0.2917 1.1970 -0.0082
C74 C 0.2334(2) 1.2319(3) -0.0035(3)
H49 H 0.2276 1.2493 -0.0408
C75 C 0.2043(2) 1.2387(3) 0.0303(2)
H50 H 0.1793 1.2620 0.0172
C76 C 0.21177(19) 1.2116(3) 0.0833(2)
C77 C 0.18410(19) 1.2107(3) 0.1240(2)
C78 C 0.1412(2) 1.2256(3) 0.1182(2)
H51 H 0.1227 1.2432 0.0859
C79 C 0.1316(2) 1.2089(3) 0.1705(3)
C80 C 0.0917(2) 1.2062(3) 0.1894(3)
C81 C 0.0536(2) 1.2304(4) 0.1580(3)
H52 H 0.0533 1.2530 0.1241
C82 C 0.0168(3) 1.2211(4) 0.1766(3)
H53 H -0.0096 1.2354 0.1546
C83 C 0.0180(2) 1.1910(4) 0.2273(3)
H54 H -0.0072 1.1845 0.2411
C84 C 0.0571(2) 1.1703(3) 0.2577(3)
H55 H 0.0582 1.1503 0.2932
C85 C 0.3425(3) 0.8864(6) 0.3861(5)
H56 H 0.3314 0.8800 0.4209
H57 H 0.3362 0.8512 0.3610
H58 H 0.3291 0.9222 0.3658
C86 C 0.4688(3) 0.8113(3) 0.2509(3)
H59 H 0.4936 0.7854 0.2641
H60 H 0.4690 0.8265 0.2123
H61 H 0.4427 0.7880 0.2497
C87 C 0.3495(3) 1.0627(4) 0.3600(3)
H62 H 0.3693 1.0309 0.3773
H63 H 0.3232 1.0595 0.3743
H64 H 0.3626 1.1021 0.3704
C88 C 0.3403(3) 0.9370(3) 0.1669(3)
H65 H 0.3264 0.9688 0.1409
H66 H 0.3207 0.9029 0.1655
H67 H 0.3662 0.9236 0.1549
C89 C 0.2025(3) 0.7625(4) 0.4031(3)
H68 H 0.1863 0.7856 0.4262
H69 H 0.2331 0.7694 0.4176
H70 H 0.1963 0.7195 0.4056
C90 C 0.1442(3) 0.8777(4) 0.2016(4)
H71 H 0.1152 0.8925 0.1863
H72 H 0.1484 0.8394 0.1830
H73 H 0.1649 0.9073 0.1939
C91 C 0.2866(3) 1.2562(4) 0.2674(4)
H74 H 0.2675 1.2330 0.2864
H75 H 0.2736 1.2953 0.2552
H76 H 0.3139 1.2625 0.2944
C92 C 0.2267(4) 1.0362(5) 0.1062(5)
H77 H 0.2258 0.9922 0.1084
H78 H 0.2503 1.0484 0.0885
H79 H 0.1997 1.0511 0.0828
O20 O 0.37887(13) 0.86961(16) 0.28158(15)
H80 H 0.3873 0.8633 0.2511
C95 C 0.3252(3) 0.7250(5) 0.4086(3)
H91 H 0.3241 0.6834 0.4220
H92 H 0.3012 0.7478 0.4174
H93 H 0.3521 0.7436 0.4281
C96 C 0.3533(3) 0.7600(3) 0.1882(3)
H94 H 0.3673 0.7240 0.1772
H95 H 0.3648 0.7959 0.1730
H96 H 0.3225 0.7575 0.1723
C97 C 0.2104(3) 0.9297(5) 0.4146(4)
H97 H 0.2098 0.8986 0.4436
H98 H 0.2393 0.9461 0.4199
H99 H 0.2019 0.9121 0.3761
C98 C 0.0485(2) 0.9996(4) 0.2508(3)
H100 H 0.0610 1.0383 0.2433
H101 H 0.0176 1.0009 0.2362
H102 H 0.0608 0.9673 0.2315
C99 C 0.2359(3) 1.1283(5) 0.3788(4)
H103 H 0.2171 1.1475 0.4009
H104 H 0.2642 1.1469 0.3887
H105 H 0.2383 1.0852 0.3879
C100 C 0.1342(3) 1.0500(4) 0.1857(3)
H106 H 0.1035 1.0576 0.1752
H107 H 0.1397 1.0072 0.1802
H108 H 0.1487 1.0743 0.1613
C101 C 0.2520(3) 0.8220(4) 0.2110(5)
H109 H 0.2309 0.8354 0.2326
H110 H 0.2546 0.8522 0.1819
H111 H 0.2797 0.8167 0.2375
C102 C 0.2404(4) 0.5994(5) 0.3394(4)
B1 B 0.0238(3) 0.2678(4) 0.9955(3)
F1 F -0.00335(12) 0.30786(17) 0.96160(15)
F2 F 0.04396(12) 0.23108(16) 0.96326(15)
F3 F 0.05315(12) 0.29846(16) 1.03615(14)
F4 F -0.00067(13) 0.23186(18) 1.02568(17)
O21 O 0.33539(18) 0.2896(3) 0.1582(3)
H81 H 0.3597 0.2913 0.1507
C106 C 0.3075(3) 0.3301(4) 0.1217(4)
H121 H 0.2901 0.3517 0.1442
H122 H 0.2890 0.3073 0.0908
H123 H 0.3244 0.3590 0.1048
O22 O 0.4092(3) 0.4066(4) 0.2785(3)
C103 C 0.3624(4) 0.4232(6) 0.2621(5)
H112 H 0.3506 0.4244 0.2967
H113 H 0.3471 0.3930 0.2354
H114 H 0.3593 0.4629 0.2436
O23 O 0.3645(3) 0.2662(4) 0.4790(4)
H82 H 0.3539 0.2631 0.5083
C105 C 0.3533(3) 0.2137(5) 0.4429(6)
H118 H 0.3768 0.2037 0.4243
H119 H 0.3276 0.2222 0.4134
H120 H 0.3478 0.1796 0.4665
C93 C 0.9757(4) 0.0833(5) 0.3455(4)
H83 H 0.9534 0.0885 0.3674
H84 H 0.9645 0.0946 0.3052
H85 H 1.0001 0.1091 0.3618
O28 O 0.9892(2) 0.0209(4) 0.3483(3)
H127 H 1.0059 0.0155 0.3259
O24 O 0.3932(2) 0.2551(3) 0.0943(3)
C104 C 0.4337(3) 0.2239(4) 0.1118(4)
H115 H 0.4539 0.2497 0.1378
H116 H 0.4450 0.2143 0.0778
H117 H 0.4294 0.1865 0.1318
O25 O 0.2650(2) 0.9702(3) 0.2314(3)
H86 H 0.2481 0.9906 0.2068
C108 C 0.2490(3) 0.9669(4) 0.2846(4)
H128 H 0.2524 0.9258 0.2998
H129 H 0.2188 0.9781 0.2765
H130 H 0.2653 0.9947 0.3131
O26 O 0.1856(3) 0.8019(4) 0.0840(4)
H87 H 0.2095 0.7883 0.1007
C107 C 0.1670(5) 0.7630(7) 0.0414(5)
H124 H 0.1373 0.7559 0.0438
H125 H 0.1826 0.7247 0.0460
H126 H 0.1678 0.7805 0.0038
C94 C 0.0543(6) 0.6199(7) 0.5704(7)
H88 H 0.0525 0.6146 0.6107
H89 H 0.0255 0.6206 0.5461
H90 H 0.0688 0.6579 0.5662
O27 O 0.0782(4) 0.5703(6) 0.5531(5)
B2 B 0.4397(3) 0.3623(4) 0.4348(3)
F5 F 0.4374(3) 0.3777(2) 0.3827(2)
F6 F 0.46708(17) 0.3963(2) 0.4730(3)
F7 F 0.44553(14) 0.30205(16) 0.44545(15)
F8 F 0.40000(18) 0.3777(2) 0.4480(3)
B3 B 0.3393(5) 0.0142(7) 0.5182(6)
F9 F 0.3653(2) -0.0027(4) 0.5638(3)
F10 F 0.3420(4) 0.0643(5) 0.4992(3)
F11 F 0.3102(2) -0.0228(4) 0.4942(4)
F12 F 0.3083(5) 0.0309(5) 0.5623(5)
O29 O 0.0435(5) 0.4486(5) 0.5615(5)
C109 C 0.0748(8) 0.4027(6) 0.5408(7)
H131 H 0.0900 0.3802 0.5750
H132 H 0.0570 0.3732 0.5150
C110 C 0.0071(9) 0.4592(13) 0.5959(13)
H133 H -0.0138 0.4269 0.5822
H134 H 0.0205 0.4486 0.6361
C111 C 0.1088(9) 0.4269(19) 0.5092(13)
H135 H 0.1249 0.3930 0.4982
H136 H 0.1283 0.4540 0.5348
H137 H 0.0947 0.4489 0.4746
C112 C -0.0200(11) 0.5139(12) 0.6013(16)
H138 H -0.0422 0.5027 0.6218
H139 H -0.0332 0.5288 0.5628
H140 H -0.0020 0.5455 0.6227
O30 O 0.4559(2) 0.4105(3) 0.1972(3)
H141 H 0.4440 0.4170 0.2248
C113 C 0.4258(3) 0.3846(4) 0.1503(4)
H142 H 0.4011 0.3696 0.1643
H143 H 0.4392 0.3512 0.1339
H144 H 0.4163 0.4153 0.1207
O31 O 0.9393(4) -0.0799(7) 0.3188(6)
loop_
_geom_bond_atom_site_label_1
_geom_bond_atom_site_label_2
_geom_bond_site_symmetry_1
_geom_bond_site_symmetry_2
Co1 N1 1_555 1_555
Co2 N3 1_555 1_555
Co3 N6 1_555 1_555
Co4 N8 1_555 1_555
Co5 N10 1_555 1_555
Co6 N13 1_555 1_555
Co7 N17 1_555 1_555
Co8 N24 1_555 1_555
N1 C1 1_555 1_555
N2 Co1 1_555 1_555
N3 N2 1_555 1_555
N4 Co2 1_555 1_555
N5 Co2 1_555 1_555
N6 N5 1_555 1_555
N7 Co3 1_555 1_555
N8 C22 1_555 1_555
N9 Co4 1_555 1_555
N10 N9 1_555 1_555
N11 Co5 1_555 1_555
N12 Co5 1_555 1_555
N13 N12 1_555 1_555
N14 Co6 1_555 1_555
N15 Co1 1_555 1_555
N16 Co1 1_555 1_555
N17 N16 1_555 1_555
N18 Co7 1_555 1_555
N19 Co7 1_555 1_555
N20 Co4 1_555 1_555
N21 Co4 1_555 1_555
N22 Co3 1_555 1_555
N23 Co3 1_555 1_555
N24 N23 1_555 1_555
N25 Co8 1_555 1_555
N26 Co8 1_555 1_555
N27 Co6 1_555 1_555
N28 Co6 1_555 1_555
O1 Co1 1_555 1_555
O2 Co1 1_555 1_555
O3 Co2 1_555 1_555
O4 Co2 1_555 1_555
O5 Co3 1_555 1_555
O6 Co3 1_555 1_555
O7 Co7 1_555 1_555
O8 Co7 1_555 1_555
O9 Co7 1_555 1_555
H1 O9 1_555 1_555
O10 Co4 1_555 1_555
O11 Co4 1_555 1_555
O12 Co5 1_555 1_555
O13 Co5 1_555 1_555
O14 Co5 1_555 1_555
H2 O14 1_555 1_555
O15 Co6 1_555 1_555
O16 Co6 1_555 1_555
O17 Co8 1_555 1_555
O18 Co8 1_555 1_555
O19 Co8 1_555 1_555
H3 O19 1_555 1_555
C1 H4 1_555 1_555
C2 C1 1_555 1_555
H5 C2 1_555 1_555
C3 C2 1_555 1_555
H6 C3 1_555 1_555
C4 C3 1_555 1_555
H7 C4 1_555 1_555
C5 N1 1_555 1_555
C6 N2 1_555 1_555
C7 C6 1_555 1_555
H8 C7 1_555 1_555
C8 N3 1_555 1_555
C9 N4 1_555 1_555
C10 C9 1_555 1_555
H9 C10 1_555 1_555
C11 C10 1_555 1_555
H10 C11 1_555 1_555
C12 C11 1_555 1_555
H11 C12 1_555 1_555
C13 N4 1_555 1_555
C14 N5 1_555 1_555
C15 C14 1_555 1_555
H12 C15 1_555 1_555
C16 N6 1_555 1_555
C17 N7 1_555 1_555
C18 C17 1_555 1_555
H13 C18 1_555 1_555
C19 C18 1_555 1_555
H14 C19 1_555 1_555
C20 C19 1_555 1_555
H15 C20 1_555 1_555
C21 N7 1_555 1_555
H16 C21 1_555 1_555
C22 H17 1_555 1_555
C23 C22 1_555 1_555
H18 C23 1_555 1_555
C24 C23 1_555 1_555
H19 C24 1_555 1_555
C25 C24 1_555 1_555
H20 C25 1_555 1_555
C26 N8 1_555 1_555
C27 N9 1_555 1_555
C28 C27 1_555 1_555
H21 C28 1_555 1_555
C29 N10 1_555 1_555
C30 N11 1_555 1_555
C31 C30 1_555 1_555
H22 C31 1_555 1_555
C32 C31 1_555 1_555
H23 C32 1_555 1_555
C33 C32 1_555 1_555
H24 C33 1_555 1_555
C34 N11 1_555 1_555
C35 N12 1_555 1_555
C36 C35 1_555 1_555
H25 C36 1_555 1_555
C37 N13 1_555 1_555
C38 N14 1_555 1_555
C39 C38 1_555 1_555
H26 C39 1_555 1_555
C40 C39 1_555 1_555
H27 C40 1_555 1_555
C41 C40 1_555 1_555
H28 C41 1_555 1_555
C42 N14 1_555 1_555
H29 C42 1_555 1_555
C43 N15 1_555 1_555
H30 C43 1_555 1_555
C44 C43 1_555 1_555
H31 C44 1_555 1_555
C45 C44 1_555 1_555
H32 C45 1_555 1_555
C46 C45 1_555 1_555
H33 C46 1_555 1_555
C47 N15 1_555 1_555
C48 N16 1_555 1_555
C49 C48 1_555 1_555
H34 C49 1_555 1_555
C50 N17 1_555 1_555
C51 N18 1_555 1_555
C52 C51 1_555 1_555
H35 C52 1_555 1_555
C53 C52 1_555 1_555
H36 C53 1_555 1_555
C54 C53 1_555 1_555
H37 C54 1_555 1_555
C55 N18 1_555 1_555
C56 N19 1_555 1_555
C57 C56 1_555 1_555
H38 C57 1_555 1_555
C58 N20 1_555 1_555
C59 N21 1_555 1_555
C60 C59 1_555 1_555
H39 C60 1_555 1_555
C61 C60 1_555 1_555
H40 C61 1_555 1_555
C62 C61 1_555 1_555
H41 C62 1_555 1_555
C63 N21 1_555 1_555
H42 C63 1_555 1_555
C64 N22 1_555 1_555
H43 C64 1_555 1_555
C65 C64 1_555 1_555
H44 C65 1_555 1_555
C66 C65 1_555 1_555
H45 C66 1_555 1_555
C67 C66 1_555 1_555
H46 C67 1_555 1_555
C68 N22 1_555 1_555
C69 N23 1_555 1_555
C70 C69 1_555 1_555
H47 C70 1_555 1_555
C71 N24 1_555 1_555
C72 N25 1_555 1_555
C73 C72 1_555 1_555
H48 C73 1_555 1_555
C74 C73 1_555 1_555
H49 C74 1_555 1_555
C75 C74 1_555 1_555
H50 C75 1_555 1_555
C76 N25 1_555 1_555
C77 N26 1_555 1_555
C78 C77 1_555 1_555
H51 C78 1_555 1_555
C79 N27 1_555 1_555
C80 N28 1_555 1_555
C81 C80 1_555 1_555
H52 C81 1_555 1_555
C82 C81 1_555 1_555
H53 C82 1_555 1_555
C83 C82 1_555 1_555
H54 C83 1_555 1_555
C84 N28 1_555 1_555
H55 C84 1_555 1_555
C85 O3 1_555 1_555
H56 C85 1_555 1_555
H57 C85 1_555 1_555
H58 C85 1_555 1_555
C86 O4 1_555 1_555
H59 C86 1_555 1_555
H60 C86 1_555 1_555
H61 C86 1_555 1_555
C87 O5 1_555 1_555
H62 C87 1_555 1_555
H63 C87 1_555 1_555
H64 C87 1_555 1_555
C88 O6 1_555 1_555
H65 C88 1_555 1_555
H66 C88 1_555 1_555
H67 C88 1_555 1_555
C89 O10 1_555 1_555
H68 C89 1_555 1_555
H69 C89 1_555 1_555
H70 C89 1_555 1_555
C90 O11 1_555 1_555
H71 C90 1_555 1_555
H72 C90 1_555 1_555
H73 C90 1_555 1_555
C91 O17 1_555 1_555
H74 C91 1_555 1_555
H75 C91 1_555 1_555
H76 C91 1_555 1_555
C92 O18 1_555 1_555
H77 C92 1_555 1_555
H78 C92 1_555 1_555
H79 C92 1_555 1_555
B1 F1 1_555 1_555
F2 B1 1_555 1_555
F3 B1 1_555 1_555
F4 B1 1_555 1_555
O20 Co2 1_555 1_555
H80 O20 1_555 1_555
O21 H81 1_555 1_555
O22 C103 1_555 1_555
O23 H82 1_555 1_555
C93 H83 1_555 1_555
H84 C93 1_555 1_555
H85 C93 1_555 1_555
O24 C104 1_555 1_555
O25 H86 1_555 1_555
O26 H87 1_555 1_555
C94 H88 1_555 1_555
H89 C94 1_555 1_555
H90 C94 1_555 1_555
C95 O1 1_555 1_555
H91 C95 1_555 1_555
H92 C95 1_555 1_555
H93 C95 1_555 1_555
C96 O2 1_555 1_555
H94 C96 1_555 1_555
H95 C96 1_555 1_555
H96 C96 1_555 1_555
C97 O12 1_555 1_555
H97 C97 1_555 1_555
H98 C97 1_555 1_555
H99 C97 1_555 1_555
C98 O13 1_555 1_555
H100 C98 1_555 1_555
H101 C98 1_555 1_555
H102 C98 1_555 1_555
C99 O15 1_555 1_555
H103 C99 1_555 1_555
H104 C99 1_555 1_555
H105 C99 1_555 1_555
C100 O16 1_555 1_555
H106 C100 1_555 1_555
H107 C100 1_555 1_555
H108 C100 1_555 1_555
C101 O8 1_555 1_555
H109 C101 1_555 1_555
H110 C101 1_555 1_555
H111 C101 1_555 1_555
C102 O7 1_555 1_555
C103 H112 1_555 1_555
H113 C103 1_555 1_555
H114 C103 1_555 1_555
C104 H115 1_555 1_555
H116 C104 1_555 1_555
H117 C104 1_555 1_555
C105 O23 1_555 1_555
H118 C105 1_555 1_555
H119 C105 1_555 1_555
H120 C105 1_555 1_555
O27 C94 1_555 1_555
C106 O21 1_555 1_555
H121 C106 1_555 1_555
H122 C106 1_555 1_555
H123 C106 1_555 1_555
C107 O26 1_555 1_555
H124 C107 1_555 1_555
H125 C107 1_555 1_555
H126 C107 1_555 1_555
O28 C93 1_555 1_555
H127 O28 1_555 1_555
C108 O25 1_555 1_555
H128 C108 1_555 1_555
H129 C108 1_555 1_555
H130 C108 1_555 1_555
B2 F5 1_555 1_555
F6 B2 1_555 1_555
F7 B2 1_555 1_555
F8 B2 1_555 1_555
B3 F9 1_555 1_555
F10 B3 1_555 1_555
F11 B3 1_555 1_555
F12 B3 1_555 1_555
O29 C109 1_555 1_555
C109 H131 1_555 1_555
H132 C109 1_555 1_555
C110 O29 1_555 1_555
H133 C110 1_555 1_555
H134 C110 1_555 1_555
C111 C109 1_555 1_555
H135 C111 1_555 1_555
H136 C111 1_555 1_555
H137 C111 1_555 1_555
C112 C110 1_555 1_555
H138 C112 1_555 1_555
H139 C112 1_555 1_555
H140 C112 1_555 1_555
O30 H141 1_555 1_555
C113 O30 1_555 1_555
H142 C113 1_555 1_555
H143 C113 1_555 1_555
H144 C113 1_555 1_555
N19 N20 1_555 1_555
N26 N27 1_555 1_555
C4 C5 1_555 1_555
C5 C6 1_555 1_555
C7 C8 1_555 1_555
C8 C9 1_555 1_555
C12 C13 1_555 1_555
C13 C14 1_555 1_555
C15 C16 1_555 1_555
C16 C17 1_555 1_555
C20 C21 1_555 1_555
C25 C26 1_555 1_555
C26 C27 1_555 1_555
C28 C29 1_555 1_555
C29 C30 1_555 1_555
C33 C34 1_555 1_555
C34 C35 1_555 1_555
C36 C37 1_555 1_555
C37 C38 1_555 1_555
C41 C42 1_555 1_555
C46 C47 1_555 1_555
C47 C48 1_555 1_555
C49 C50 1_555 1_555
C50 C51 1_555 1_555
C54 C55 1_555 1_555
C55 C56 1_555 1_555
C57 C58 1_555 1_555
C58 C59 1_555 1_555
C62 C63 1_555 1_555
C67 C68 1_555 1_555
C68 C69 1_555 1_555
C70 C71 1_555 1_555
C71 C72 1_555 1_555
C75 C76 1_555 1_555
C76 C77 1_555 1_555
C78 C79 1_555 1_555
C79 C80 1_555 1_555
C83 C84 1_555 1_555

#END
