# generated using pymatgen
data_Co8B3H144C113N28O31F12
_symmetry_space_group_name_H-M   'P 1'
_cell_length_a   22.20100000
_cell_length_b   23.79500000
_cell_length_c   32.11400000
_cell_angle_alpha   102.41300000
_cell_angle_beta   90.00000000
_cell_angle_gamma   90.00000000
_symmetry_Int_Tables_number   1
_chemical_formula_structural   Co8B3H144C113N28O31F12
_chemical_formula_sum   'Co32 B12 H576 C452 N112 O124 F48'
_cell_volume   16568.37185652
_cell_formula_units_Z   4
loop_
 _symmetry_equiv_pos_site_id
 _symmetry_equiv_pos_as_xyz
  1  'x, y, z'
loop_
 _atom_site_type_symbol
 _atom_site_label
 _atom_site_symmetry_multiplicity
 _atom_site_fract_x
 _atom_site_fract_y
 _atom_site_fract_z
 _atom_site_occupancy
  Co  Co1  1  0.691970  0.306210  0.367800  1
  Co  Co2  1  0.191970  0.193790  0.632200  1
  Co  Co3  1  0.308030  0.693790  0.632200  1
  Co  Co4  1  0.808030  0.806210  0.367800  1
  Co  Co5  1  0.875390  0.346660  0.428410  1
  Co  Co6  1  0.375390  0.153340  0.571590  1
  Co  Co7  1  0.124610  0.653340  0.571590  1
  Co  Co8  1  0.624610  0.846660  0.428410  1
  Co  Co9  1  0.044160  0.246090  0.383420  1
  Co  Co10  1  0.544160  0.253910  0.616580  1
  Co  Co11  1  0.955840  0.753910  0.616580  1
  Co  Co12  1  0.455840  0.746090  0.383420  1
  Co  Co13  1  0.793200  0.299670  0.127990  1
  Co  Co14  1  0.293200  0.200330  0.872010  1
  Co  Co15  1  0.206800  0.700330  0.872010  1
  Co  Co16  1  0.706800  0.799670  0.127990  1
  Co  Co17  1  0.982600  0.367650  0.119430  1
  Co  Co18  1  0.482600  0.132350  0.880570  1
  Co  Co19  1  0.017400  0.632350  0.880570  1
  Co  Co20  1  0.517400  0.867650  0.119430  1
  Co  Co21  1  0.150580  0.283620  0.156230  1
  Co  Co22  1  0.650580  0.216380  0.843770  1
  Co  Co23  1  0.849420  0.716380  0.843770  1
  Co  Co24  1  0.349420  0.783620  0.156230  1
  Co  Co25  1  0.688060  0.230720  0.226470  1
  Co  Co26  1  0.188060  0.269280  0.773530  1
  Co  Co27  1  0.311940  0.769280  0.773530  1
  Co  Co28  1  0.811940  0.730720  0.226470  1
  Co  Co29  1  0.145310  0.184970  0.260670  1
  Co  Co30  1  0.645310  0.315030  0.739330  1
  Co  Co31  1  0.854690  0.815030  0.739330  1
  Co  Co32  1  0.354690  0.684970  0.260670  1
  B  B33  1  0.267800  0.995500  0.023800  1
  B  B34  1  0.767800  0.504500  0.976200  1
  B  B35  1  0.732200  0.004500  0.976200  1
  B  B36  1  0.232200  0.495500  0.023800  1
  B  B37  1  0.362300  0.434800  0.439700  1
  B  B38  1  0.862300  0.065200  0.560300  1
  B  B39  1  0.637700  0.565200  0.560300  1
  B  B40  1  0.137700  0.934800  0.439700  1
  B  B41  1  0.014200  0.518200  0.339300  1
  B  B42  1  0.514200  0.981800  0.660700  1
  B  B43  1  0.985800  0.481800  0.660700  1
  B  B44  1  0.485800  0.018200  0.339300  1
  H  H45  1  0.721300  0.328300  0.237400  1
  H  H46  1  0.221300  0.171700  0.762600  1
  H  H47  1  0.278700  0.671700  0.762600  1
  H  H48  1  0.778700  0.828300  0.237400  1
  H  H49  1  0.935400  0.291500  0.144000  1
  H  H50  1  0.435400  0.208500  0.856000  1
  H  H51  1  0.064600  0.708500  0.856000  1
  H  H52  1  0.564600  0.791500  0.144000  1
  H  H53  1  0.088600  0.268400  0.292800  1
  H  H54  1  0.588600  0.231600  0.707200  1
  H  H55  1  0.911400  0.731600  0.707200  1
  H  H56  1  0.411400  0.768400  0.292800  1
  H  H57  1  0.557500  0.333900  0.342800  1
  H  H58  1  0.057500  0.166100  0.657200  1
  H  H59  1  0.442500  0.666100  0.657200  1
  H  H60  1  0.942500  0.833900  0.342800  1
  H  H61  1  0.478600  0.394900  0.371500  1
  H  H62  1  0.978600  0.105100  0.628500  1
  H  H63  1  0.521400  0.605100  0.628500  1
  H  H64  1  0.021400  0.894900  0.371500  1
  H  H65  1  0.496300  0.462600  0.434000  1
  H  H66  1  0.996300  0.037400  0.566000  1
  H  H67  1  0.503700  0.537400  0.566000  1
  H  H68  1  0.003700  0.962600  0.434000  1
  H  H69  1  0.592500  0.474500  0.463700  1
  H  H70  1  0.092500  0.025500  0.536300  1
  H  H71  1  0.407500  0.525500  0.536300  1
  H  H72  1  0.907500  0.974500  0.463700  1
  H  H73  1  0.704300  0.478800  0.489200  1
  H  H74  1  0.204300  0.021200  0.510800  1
  H  H75  1  0.295700  0.521200  0.510800  1
  H  H76  1  0.795700  0.978800  0.489200  1
  H  H77  1  0.798100  0.509800  0.540900  1
  H  H78  1  0.298100  0.990200  0.459100  1
  H  H79  1  0.201900  0.490200  0.459100  1
  H  H80  1  0.701900  0.009800  0.540900  1
  H  H81  1  0.890800  0.530400  0.576400  1
  H  H82  1  0.390800  0.969600  0.423600  1
  H  H83  1  0.109200  0.469600  0.423600  1
  H  H84  1  0.609200  0.030400  0.576400  1
  H  H85  1  0.978200  0.479900  0.549600  1
  H  H86  1  0.478200  0.020100  0.450400  1
  H  H87  1  0.021800  0.520100  0.450400  1
  H  H88  1  0.521800  0.979900  0.549600  1
  H  H89  1  0.067600  0.417900  0.505500  1
  H  H90  1  0.567600  0.082100  0.494500  1
  H  H91  1  0.932400  0.582100  0.494500  1
  H  H92  1  0.432400  0.917900  0.505500  1
  H  H93  1  0.175900  0.384600  0.484100  1
  H  H94  1  0.675900  0.115400  0.515900  1
  H  H95  1  0.824100  0.615400  0.515900  1
  H  H96  1  0.324100  0.884600  0.484100  1
  H  H97  1  0.270000  0.343900  0.462300  1
  H  H98  1  0.770000  0.156100  0.537700  1
  H  H99  1  0.730000  0.656100  0.537700  1
  H  H100  1  0.230000  0.843900  0.462300  1
  H  H101  1  0.274200  0.259600  0.408400  1
  H  H102  1  0.774200  0.240400  0.591600  1
  H  H103  1  0.725800  0.740400  0.591600  1
  H  H104  1  0.225800  0.759600  0.408400  1
  H  H105  1  0.185000  0.218700  0.378900  1
  H  H106  1  0.685000  0.281300  0.621100  1
  H  H107  1  0.815000  0.781300  0.621100  1
  H  H108  1  0.315000  0.718700  0.378900  1
  H  H109  1  0.649400  0.298500  0.121300  1
  H  H110  1  0.149400  0.201500  0.878700  1
  H  H111  1  0.350600  0.701500  0.878700  1
  H  H112  1  0.850600  0.798500  0.121300  1
  H  H113  1  0.573700  0.351800  0.102800  1
  H  H114  1  0.073700  0.148200  0.897200  1
  H  H115  1  0.426300  0.648200  0.897200  1
  H  H116  1  0.926300  0.851800  0.102800  1
  H  H117  1  0.596800  0.433900  0.077900  1
  H  H118  1  0.096800  0.066100  0.922100  1
  H  H119  1  0.403200  0.566100  0.922100  1
  H  H120  1  0.903200  0.933900  0.077900  1
  H  H121  1  0.699800  0.458300  0.070000  1
  H  H122  1  0.199800  0.041700  0.930000  1
  H  H123  1  0.300200  0.541700  0.930000  1
  H  H124  1  0.800200  0.958300  0.070000  1
  H  H125  1  0.813300  0.469900  0.060200  1
  H  H126  1  0.313300  0.030100  0.939800  1
  H  H127  1  0.186700  0.530100  0.939800  1
  H  H128  1  0.686700  0.969900  0.060200  1
  H  H129  1  0.914600  0.518800  0.042900  1
  H  H130  1  0.414600  0.981200  0.957100  1
  H  H131  1  0.085400  0.481200  0.957100  1
  H  H132  1  0.585400  0.018800  0.042900  1
  H  H133  1  0.011200  0.555700  0.035700  1
  H  H134  1  0.511200  0.944300  0.964300  1
  H  H135  1  0.988800  0.444300  0.964300  1
  H  H136  1  0.488800  0.055700  0.035700  1
  H  H137  1  0.096000  0.518000  0.063600  1
  H  H138  1  0.596000  0.982000  0.936400  1
  H  H139  1  0.904000  0.482000  0.936400  1
  H  H140  1  0.404000  0.018000  0.063600  1
  H  H141  1  0.181500  0.460300  0.096400  1
  H  H142  1  0.681500  0.039700  0.903600  1
  H  H143  1  0.818500  0.539700  0.903600  1
  H  H144  1  0.318500  0.960300  0.096400  1
  H  H145  1  0.287100  0.430800  0.116200  1
  H  H146  1  0.787100  0.069200  0.883800  1
  H  H147  1  0.712900  0.569200  0.883800  1
  H  H148  1  0.212900  0.930800  0.116200  1
  H  H149  1  0.378800  0.398700  0.139400  1
  H  H150  1  0.878800  0.101300  0.860600  1
  H  H151  1  0.621200  0.601300  0.860600  1
  H  H152  1  0.121200  0.898700  0.139400  1
  H  H153  1  0.378200  0.321600  0.174300  1
  H  H154  1  0.878200  0.178400  0.825700  1
  H  H155  1  0.621800  0.678400  0.825700  1
  H  H156  1  0.121800  0.821600  0.174300  1
  H  H157  1  0.289200  0.278300  0.184100  1
  H  H158  1  0.789200  0.221700  0.815900  1
  H  H159  1  0.710800  0.721700  0.815900  1
  H  H160  1  0.210800  0.778300  0.184100  1
  H  H161  1  0.670600  0.306900  0.467200  1
  H  H162  1  0.170600  0.193100  0.532800  1
  H  H163  1  0.329400  0.693100  0.532800  1
  H  H164  1  0.829400  0.806900  0.467200  1
  H  H165  1  0.603700  0.267400  0.508100  1
  H  H166  1  0.103700  0.232600  0.491900  1
  H  H167  1  0.396300  0.732600  0.491900  1
  H  H168  1  0.896300  0.767400  0.508100  1
  H  H169  1  0.534200  0.199000  0.474700  1
  H  H170  1  0.034200  0.301000  0.525300  1
  H  H171  1  0.465800  0.801000  0.525300  1
  H  H172  1  0.965800  0.699000  0.474700  1
  H  H173  1  0.534700  0.169800  0.399800  1
  H  H174  1  0.034700  0.330200  0.600200  1
  H  H175  1  0.465300  0.830200  0.600200  1
  H  H176  1  0.965300  0.669800  0.399800  1
  H  H177  1  0.558700  0.134300  0.320100  1
  H  H178  1  0.058700  0.365700  0.679900  1
  H  H179  1  0.441300  0.865700  0.679900  1
  H  H180  1  0.941300  0.634300  0.320100  1
  H  H181  1  0.552000  0.069700  0.241000  1
  H  H182  1  0.052000  0.430300  0.759000  1
  H  H183  1  0.448000  0.930300  0.759000  1
  H  H184  1  0.948000  0.569700  0.241000  1
  H  H185  1  0.554900  0.021100  0.170300  1
  H  H186  1  0.054900  0.478900  0.829700  1
  H  H187  1  0.445100  0.978900  0.829700  1
  H  H188  1  0.945100  0.521100  0.170300  1
  H  H189  1  0.611300  0.059100  0.121700  1
  H  H190  1  0.111300  0.440900  0.878300  1
  H  H191  1  0.388700  0.940900  0.878300  1
  H  H192  1  0.888700  0.559100  0.121700  1
  H  H193  1  0.688600  0.111400  0.076100  1
  H  H194  1  0.188600  0.388600  0.923900  1
  H  H195  1  0.311400  0.888600  0.923900  1
  H  H196  1  0.811400  0.611400  0.076100  1
  H  H197  1  0.750500  0.126000  0.012600  1
  H  H198  1  0.250500  0.374000  0.987400  1
  H  H199  1  0.249500  0.874000  0.987400  1
  H  H200  1  0.749500  0.626000  0.012600  1
  H  H201  1  0.814500  0.145300  0.960400  1
  H  H202  1  0.314500  0.354700  0.039600  1
  H  H203  1  0.185500  0.854700  0.039600  1
  H  H204  1  0.685500  0.645300  0.960400  1
  H  H205  1  0.869700  0.231000  0.973100  1
  H  H206  1  0.369700  0.269000  0.026900  1
  H  H207  1  0.130300  0.769000  0.026900  1
  H  H208  1  0.630300  0.731000  0.973100  1
  H  H209  1  0.861800  0.293500  0.039800  1
  H  H210  1  0.361800  0.206500  0.960200  1
  H  H211  1  0.138200  0.706500  0.960200  1
  H  H212  1  0.638200  0.793500  0.039800  1
  H  H213  1  0.965700  0.231900  0.463100  1
  H  H214  1  0.465700  0.268100  0.536900  1
  H  H215  1  0.034300  0.768100  0.536900  1
  H  H216  1  0.534300  0.731900  0.463100  1
  H  H217  1  0.947800  0.164200  0.504200  1
  H  H218  1  0.447800  0.335800  0.495800  1
  H  H219  1  0.052200  0.835800  0.495800  1
  H  H220  1  0.552200  0.664200  0.504200  1
  H  H221  1  0.994900  0.073400  0.484400  1
  H  H222  1  0.494900  0.426600  0.515600  1
  H  H223  1  0.005100  0.926600  0.515600  1
  H  H224  1  0.505100  0.573400  0.484400  1
  H  H225  1  0.059700  0.055500  0.426000  1
  H  H226  1  0.559700  0.444500  0.574000  1
  H  H227  1  0.940300  0.944500  0.574000  1
  H  H228  1  0.440300  0.555500  0.426000  1
  H  H229  1  0.123100  0.043000  0.356700  1
  H  H230  1  0.623100  0.457000  0.643300  1
  H  H231  1  0.876900  0.957000  0.643300  1
  H  H232  1  0.376900  0.543000  0.356700  1
  H  H233  1  0.197000  0.991800  0.291700  1
  H  H234  1  0.697000  0.508200  0.708300  1
  H  H235  1  0.803000  0.008200  0.708300  1
  H  H236  1  0.303000  0.491800  0.291700  1
  H  H237  1  0.249300  0.959200  0.227600  1
  H  H238  1  0.749300  0.540800  0.772400  1
  H  H239  1  0.750700  0.040800  0.772400  1
  H  H240  1  0.250700  0.459200  0.227600  1
  H  H241  1  0.262000  0.017200  0.179300  1
  H  H242  1  0.762000  0.482800  0.820700  1
  H  H243  1  0.738000  0.982800  0.820700  1
  H  H244  1  0.238000  0.517200  0.179300  1
  H  H245  1  0.243200  0.085900  0.122700  1
  H  H246  1  0.743200  0.414100  0.877300  1
  H  H247  1  0.756800  0.914100  0.877300  1
  H  H248  1  0.256800  0.585900  0.122700  1
  H  H249  1  0.253000  0.124100  0.053300  1
  H  H250  1  0.753000  0.375900  0.946700  1
  H  H251  1  0.747000  0.875900  0.946700  1
  H  H252  1  0.247000  0.624100  0.053300  1
  H  H253  1  0.235400  0.154600  0.990400  1
  H  H254  1  0.735400  0.345400  0.009600  1
  H  H255  1  0.764600  0.845400  0.009600  1
  H  H256  1  0.264600  0.654600  0.990400  1
  H  H257  1  0.184500  0.241100  0.992800  1
  H  H258  1  0.684500  0.258900  0.007200  1
  H  H259  1  0.815500  0.758900  0.007200  1
  H  H260  1  0.315500  0.741100  0.992800  1
  H  H261  1  0.150300  0.293200  0.058200  1
  H  H262  1  0.650300  0.206800  0.941800  1
  H  H263  1  0.849700  0.706800  0.941800  1
  H  H264  1  0.349700  0.793200  0.058200  1
  H  H265  1  0.880000  0.420900  0.331400  1
  H  H266  1  0.380000  0.079100  0.668600  1
  H  H267  1  0.120000  0.579100  0.668600  1
  H  H268  1  0.620000  0.920900  0.331400  1
  H  H269  1  0.851200  0.361000  0.336200  1
  H  H270  1  0.351200  0.139000  0.663800  1
  H  H271  1  0.148800  0.639000  0.663800  1
  H  H272  1  0.648800  0.861000  0.336200  1
  H  H273  1  0.922200  0.365800  0.329100  1
  H  H274  1  0.422200  0.134200  0.670900  1
  H  H275  1  0.077800  0.634200  0.670900  1
  H  H276  1  0.577800  0.865800  0.329100  1
  H  H277  1  0.785400  0.264100  0.493600  1
  H  H278  1  0.285400  0.235900  0.506400  1
  H  H279  1  0.214600  0.735900  0.506400  1
  H  H280  1  0.714600  0.764100  0.493600  1
  H  H281  1  0.826500  0.212300  0.469000  1
  H  H282  1  0.326500  0.287700  0.531000  1
  H  H283  1  0.173500  0.787700  0.531000  1
  H  H284  1  0.673500  0.712300  0.469000  1
  H  H285  1  0.788000  0.249700  0.442700  1
  H  H286  1  0.288000  0.250300  0.557300  1
  H  H287  1  0.212000  0.750300  0.557300  1
  H  H288  1  0.712000  0.749700  0.442700  1
  H  H289  1  0.030900  0.377300  0.369300  1
  H  H290  1  0.530900  0.122700  0.630700  1
  H  H291  1  0.969100  0.622700  0.630700  1
  H  H292  1  0.469100  0.877300  0.369300  1
  H  H293  1  0.059500  0.374300  0.323200  1
  H  H294  1  0.559500  0.125700  0.676800  1
  H  H295  1  0.940500  0.625700  0.676800  1
  H  H296  1  0.440500  0.874300  0.323200  1
  H  H297  1  0.102100  0.370400  0.362600  1
  H  H298  1  0.602100  0.129600  0.637400  1
  H  H299  1  0.897900  0.629600  0.637400  1
  H  H300  1  0.397900  0.870400  0.362600  1
  H  H301  1  0.968800  0.140900  0.326400  1
  H  H302  1  0.468800  0.359100  0.673600  1
  H  H303  1  0.031200  0.859100  0.673600  1
  H  H304  1  0.531200  0.640900  0.326400  1
  H  H305  1  0.902900  0.165500  0.320700  1
  H  H306  1  0.402900  0.334500  0.679300  1
  H  H307  1  0.097100  0.834500  0.679300  1
  H  H308  1  0.597100  0.665500  0.320700  1
  H  H309  1  0.923600  0.154900  0.366200  1
  H  H310  1  0.423600  0.345100  0.633800  1
  H  H311  1  0.076400  0.845100  0.633800  1
  H  H312  1  0.576400  0.654900  0.366200  1
  H  H313  1  0.785600  0.426200  0.186300  1
  H  H314  1  0.285600  0.073800  0.813700  1
  H  H315  1  0.214400  0.573800  0.813700  1
  H  H316  1  0.714400  0.926200  0.186300  1
  H  H317  1  0.769400  0.417600  0.233100  1
  H  H318  1  0.269400  0.082400  0.766900  1
  H  H319  1  0.230600  0.582400  0.766900  1
  H  H320  1  0.730600  0.917600  0.233100  1
  H  H321  1  0.719500  0.405600  0.196300  1
  H  H322  1  0.219500  0.094400  0.803700  1
  H  H323  1  0.280500  0.594400  0.803700  1
  H  H324  1  0.780500  0.905600  0.196300  1
  H  H325  1  0.892500  0.186300  0.115200  1
  H  H326  1  0.392500  0.313700  0.884800  1
  H  H327  1  0.107500  0.813700  0.884800  1
  H  H328  1  0.607500  0.686300  0.115200  1
  H  H329  1  0.839400  0.183000  0.148400  1
  H  H330  1  0.339400  0.317000  0.851600  1
  H  H331  1  0.160600  0.817000  0.851600  1
  H  H332  1  0.660600  0.683000  0.148400  1
  H  H333  1  0.907300  0.193900  0.164900  1
  H  H334  1  0.407300  0.306100  0.835100  1
  H  H335  1  0.092700  0.806100  0.835100  1
  H  H336  1  0.592700  0.693900  0.164900  1
  H  H337  1  0.233000  0.286400  0.267500  1
  H  H338  1  0.733000  0.213600  0.732500  1
  H  H339  1  0.767000  0.713600  0.732500  1
  H  H340  1  0.267000  0.786400  0.267500  1
  H  H341  1  0.295300  0.255200  0.273600  1
  H  H342  1  0.795300  0.244800  0.726400  1
  H  H343  1  0.704700  0.744800  0.726400  1
  H  H344  1  0.204700  0.755200  0.273600  1
  H  H345  1  0.262500  0.294400  0.313900  1
  H  H346  1  0.762500  0.205600  0.686100  1
  H  H347  1  0.737500  0.705600  0.686100  1
  H  H348  1  0.237500  0.794400  0.313900  1
  H  H349  1  0.992200  0.108400  0.225800  1
  H  H350  1  0.492200  0.391600  0.774200  1
  H  H351  1  0.007800  0.891600  0.774200  1
  H  H352  1  0.507800  0.608400  0.225800  1
  H  H353  1  0.048400  0.088500  0.250300  1
  H  H354  1  0.548400  0.411500  0.749700  1
  H  H355  1  0.951600  0.911500  0.749700  1
  H  H356  1  0.451600  0.588500  0.250300  1
  H  H357  1  0.051100  0.082800  0.199700  1
  H  H358  1  0.551100  0.417200  0.800300  1
  H  H359  1  0.948900  0.917200  0.800300  1
  H  H360  1  0.448900  0.582800  0.199700  1
  H  H361  1  0.863300  0.251100  0.387300  1
  H  H362  1  0.363300  0.248900  0.612700  1
  H  H363  1  0.136700  0.748900  0.612700  1
  H  H364  1  0.636700  0.751100  0.387300  1
  H  H365  1  0.683400  0.422000  0.324100  1
  H  H366  1  0.183400  0.078000  0.675900  1
  H  H367  1  0.316600  0.578000  0.675900  1
  H  H368  1  0.816600  0.922000  0.324100  1
  H  H369  1  0.747800  0.417400  0.301200  1
  H  H370  1  0.247800  0.082600  0.698800  1
  H  H371  1  0.252200  0.582600  0.698800  1
  H  H372  1  0.752200  0.917400  0.301200  1
  H  H373  1  0.743600  0.428100  0.352100  1
  H  H374  1  0.243600  0.071900  0.647900  1
  H  H375  1  0.256400  0.571900  0.647900  1
  H  H376  1  0.756400  0.928100  0.352100  1
  H  H377  1  0.724000  0.177200  0.367300  1
  H  H378  1  0.224000  0.322800  0.632700  1
  H  H379  1  0.276000  0.822800  0.632700  1
  H  H380  1  0.776000  0.677200  0.367300  1
  H  H381  1  0.795900  0.173000  0.364800  1
  H  H382  1  0.295900  0.327000  0.635200  1
  H  H383  1  0.204100  0.827000  0.635200  1
  H  H384  1  0.704100  0.673000  0.364800  1
  H  H385  1  0.757500  0.172300  0.322500  1
  H  H386  1  0.257500  0.327700  0.677500  1
  H  H387  1  0.242500  0.827700  0.677500  1
  H  H388  1  0.742500  0.672300  0.322500  1
  H  H389  1  0.898600  0.443600  0.209800  1
  H  H390  1  0.398600  0.056400  0.790200  1
  H  H391  1  0.101400  0.556400  0.790200  1
  H  H392  1  0.601400  0.943600  0.209800  1
  H  H393  1  0.946100  0.419900  0.239300  1
  H  H394  1  0.446100  0.080100  0.760700  1
  H  H395  1  0.053900  0.580100  0.760700  1
  H  H396  1  0.553900  0.919900  0.239300  1
  H  H397  1  0.912100  0.376100  0.201900  1
  H  H398  1  0.412100  0.123900  0.798100  1
  H  H399  1  0.087900  0.623900  0.798100  1
  H  H400  1  0.587900  0.876100  0.201900  1
  H  H401  1  0.038300  0.243300  0.061000  1
  H  H402  1  0.538300  0.256700  0.939000  1
  H  H403  1  0.961700  0.756700  0.939000  1
  H  H404  1  0.461700  0.743300  0.061000  1
  H  H405  1  0.000900  0.236200  0.017600  1
  H  H406  1  0.500900  0.263800  0.982400  1
  H  H407  1  0.999100  0.763800  0.982400  1
  H  H408  1  0.499100  0.736200  0.017600  1
  H  H409  1  0.967300  0.231500  0.060800  1
  H  H410  1  0.467300  0.268500  0.939200  1
  H  H411  1  0.032700  0.768500  0.939200  1
  H  H412  1  0.532700  0.731500  0.060800  1
  H  H413  1  0.147500  0.400900  0.217100  1
  H  H414  1  0.647500  0.099100  0.782900  1
  H  H415  1  0.852500  0.599100  0.782900  1
  H  H416  1  0.352500  0.900900  0.217100  1
  H  H417  1  0.146900  0.388700  0.264200  1
  H  H418  1  0.646900  0.111300  0.735800  1
  H  H419  1  0.853100  0.611300  0.735800  1
  H  H420  1  0.353100  0.888700  0.264200  1
  H  H421  1  0.085200  0.387900  0.238300  1
  H  H422  1  0.585200  0.112100  0.761700  1
  H  H423  1  0.914800  0.612100  0.761700  1
  H  H424  1  0.414800  0.887900  0.238300  1
  H  H425  1  0.057600  0.175200  0.103500  1
  H  H426  1  0.557600  0.324800  0.896500  1
  H  H427  1  0.942400  0.824800  0.896500  1
  H  H428  1  0.442400  0.675200  0.103500  1
  H  H429  1  0.007200  0.180200  0.139700  1
  H  H430  1  0.507200  0.319800  0.860300  1
  H  H431  1  0.992800  0.819800  0.860300  1
  H  H432  1  0.492800  0.680200  0.139700  1
  H  H433  1  0.074300  0.161300  0.148700  1
  H  H434  1  0.574300  0.338700  0.851300  1
  H  H435  1  0.925700  0.838700  0.851300  1
  H  H436  1  0.425700  0.661300  0.148700  1
  H  H437  1  0.835400  0.232600  0.230900  1
  H  H438  1  0.335400  0.267400  0.769100  1
  H  H439  1  0.164600  0.767400  0.769100  1
  H  H440  1  0.664600  0.732600  0.230900  1
  H  H441  1  0.852200  0.181900  0.254600  1
  H  H442  1  0.352200  0.318100  0.745400  1
  H  H443  1  0.147800  0.818100  0.745400  1
  H  H444  1  0.647800  0.681900  0.254600  1
  H  H445  1  0.816700  0.237500  0.279700  1
  H  H446  1  0.316700  0.262500  0.720300  1
  H  H447  1  0.183300  0.762500  0.720300  1
  H  H448  1  0.683300  0.737500  0.279700  1
  H  H449  1  0.291300  0.150700  0.359700  1
  H  H450  1  0.791300  0.349300  0.640300  1
  H  H451  1  0.708700  0.849300  0.640300  1
  H  H452  1  0.208700  0.650700  0.359700  1
  H  H453  1  0.351700  0.144200  0.290100  1
  H  H454  1  0.851700  0.355800  0.709900  1
  H  H455  1  0.648300  0.855800  0.709900  1
  H  H456  1  0.148300  0.644200  0.290100  1
  H  H457  1  0.307300  0.090800  0.289000  1
  H  H458  1  0.807300  0.409200  0.711000  1
  H  H459  1  0.692700  0.909200  0.711000  1
  H  H460  1  0.192700  0.590800  0.289000  1
  H  H461  1  0.359000  0.104800  0.324400  1
  H  H462  1  0.859000  0.395200  0.675600  1
  H  H463  1  0.641000  0.895200  0.675600  1
  H  H464  1  0.141000  0.604800  0.324400  1
  H  H465  1  0.424400  0.296700  0.350600  1
  H  H466  1  0.924400  0.203300  0.649400  1
  H  H467  1  0.575600  0.703300  0.649400  1
  H  H468  1  0.075600  0.796700  0.350600  1
  H  H469  1  0.393000  0.235400  0.347100  1
  H  H470  1  0.893000  0.264600  0.652900  1
  H  H471  1  0.607000  0.764600  0.652900  1
  H  H472  1  0.107000  0.735400  0.347100  1
  H  H473  1  0.462900  0.243600  0.359300  1
  H  H474  1  0.962900  0.256400  0.640700  1
  H  H475  1  0.537100  0.756400  0.640700  1
  H  H476  1  0.037100  0.743600  0.359300  1
  H  H477  1  0.263100  0.508300  0.353900  1
  H  H478  1  0.763100  0.991700  0.646100  1
  H  H479  1  0.736900  0.491700  0.646100  1
  H  H480  1  0.236900  0.008300  0.353900  1
  H  H481  1  0.203700  0.424300  0.376800  1
  H  H482  1  0.703700  0.075700  0.623200  1
  H  H483  1  0.796300  0.575700  0.623200  1
  H  H484  1  0.296300  0.924300  0.376800  1
  H  H485  1  0.222200  0.413400  0.327600  1
  H  H486  1  0.722200  0.086600  0.672400  1
  H  H487  1  0.777800  0.586600  0.672400  1
  H  H488  1  0.277800  0.913400  0.327600  1
  H  H489  1  0.179600  0.466500  0.347800  1
  H  H490  1  0.679600  0.033500  0.652200  1
  H  H491  1  0.820400  0.533500  0.652200  1
  H  H492  1  0.320400  0.966500  0.347800  1
  H  H493  1  0.088500  0.367400  0.953400  1
  H  H494  1  0.588500  0.132600  0.046600  1
  H  H495  1  0.911500  0.632600  0.046600  1
  H  H496  1  0.411500  0.867400  0.953400  1
  H  H497  1  0.094600  0.305200  0.964500  1
  H  H498  1  0.594600  0.194800  0.035500  1
  H  H499  1  0.905400  0.694800  0.035500  1
  H  H500  1  0.405400  0.805200  0.964500  1
  H  H501  1  0.109100  0.361800  0.000100  1
  H  H502  1  0.609100  0.138200  0.999900  1
  H  H503  1  0.890900  0.638200  0.999900  1
  H  H504  1  0.390900  0.861800  0.000100  1
  H  H505  1  0.015500  0.325900  0.005900  1
  H  H506  1  0.515500  0.174100  0.994100  1
  H  H507  1  0.984500  0.674100  0.994100  1
  H  H508  1  0.484500  0.825900  0.005900  1
  H  H509  1  0.249700  0.137800  0.453900  1
  H  H510  1  0.749700  0.362200  0.546100  1
  H  H511  1  0.750300  0.862200  0.546100  1
  H  H512  1  0.250300  0.637800  0.453900  1
  H  H513  1  0.214300  0.077800  0.445000  1
  H  H514  1  0.714300  0.422200  0.555000  1
  H  H515  1  0.785700  0.922200  0.555000  1
  H  H516  1  0.285700  0.577800  0.445000  1
  H  H517  1  0.186500  0.131800  0.429400  1
  H  H518  1  0.686500  0.368200  0.570600  1
  H  H519  1  0.813500  0.868200  0.570600  1
  H  H520  1  0.313500  0.631800  0.429400  1
  H  H521  1  0.990600  0.206800  0.248100  1
  H  H522  1  0.490600  0.293200  0.751900  1
  H  H523  1  0.009400  0.793200  0.751900  1
  H  H524  1  0.509400  0.706800  0.248100  1
  H  H525  1  0.925800  0.299800  0.252400  1
  H  H526  1  0.425800  0.200200  0.747600  1
  H  H527  1  0.074200  0.700200  0.747600  1
  H  H528  1  0.574200  0.799800  0.252400  1
  H  H529  1  0.978100  0.276500  0.218800  1
  H  H530  1  0.478100  0.223500  0.781200  1
  H  H531  1  0.021900  0.723500  0.781200  1
  H  H532  1  0.521900  0.776500  0.218800  1
  H  H533  1  0.994700  0.313100  0.265300  1
  H  H534  1  0.494700  0.186900  0.734700  1
  H  H535  1  0.005300  0.686900  0.734700  1
  H  H536  1  0.505300  0.813100  0.265300  1
  H  H537  1  0.788300  0.100700  0.209500  1
  H  H538  1  0.288300  0.399300  0.790500  1
  H  H539  1  0.211700  0.899300  0.790500  1
  H  H540  1  0.711700  0.600700  0.209500  1
  H  H541  1  0.755900  0.043800  0.137300  1
  H  H542  1  0.255900  0.456200  0.862700  1
  H  H543  1  0.244100  0.956200  0.862700  1
  H  H544  1  0.744100  0.543800  0.137300  1
  H  H545  1  0.724700  0.046000  0.182600  1
  H  H546  1  0.224700  0.454000  0.817400  1
  H  H547  1  0.275300  0.954000  0.817400  1
  H  H548  1  0.775300  0.546000  0.182600  1
  H  H549  1  0.780500  0.003800  0.167800  1
  H  H550  1  0.280500  0.496200  0.832200  1
  H  H551  1  0.219500  0.996200  0.832200  1
  H  H552  1  0.719500  0.503800  0.167800  1
  H  H553  1  0.614600  0.610700  0.052500  1
  H  H554  1  0.114600  0.889300  0.947500  1
  H  H555  1  0.385400  0.389300  0.947500  1
  H  H556  1  0.885400  0.110700  0.052500  1
  H  H557  1  0.620600  0.546100  0.025500  1
  H  H558  1  0.120600  0.953900  0.974500  1
  H  H559  1  0.379400  0.453900  0.974500  1
  H  H560  1  0.879400  0.046100  0.025500  1
  H  H561  1  0.657900  0.566200  0.068800  1
  H  H562  1  0.157900  0.933800  0.931200  1
  H  H563  1  0.342100  0.433800  0.931200  1
  H  H564  1  0.842100  0.066200  0.068800  1
  H  H565  1  0.380200  0.575000  0.090000  1
  H  H566  1  0.880200  0.925000  0.910000  1
  H  H567  1  0.619800  0.425000  0.910000  1
  H  H568  1  0.119800  0.075000  0.090000  1
  H  H569  1  0.373200  0.515000  0.057000  1
  H  H570  1  0.873200  0.985000  0.943000  1
  H  H571  1  0.626800  0.485000  0.943000  1
  H  H572  1  0.126800  0.015000  0.057000  1
  H  H573  1  0.426900  0.582200  0.986200  1
  H  H574  1  0.926900  0.917800  0.013800  1
  H  H575  1  0.573100  0.417800  0.013800  1
  H  H576  1  0.073100  0.082200  0.986200  1
  H  H577  1  0.448600  0.636100  0.020500  1
  H  H578  1  0.948600  0.863900  0.979500  1
  H  H579  1  0.551400  0.363900  0.979500  1
  H  H580  1  0.051400  0.136100  0.020500  1
  H  H581  1  0.393000  0.498200  0.124900  1
  H  H582  1  0.893000  0.001800  0.875100  1
  H  H583  1  0.607000  0.501800  0.875100  1
  H  H584  1  0.107000  0.998200  0.124900  1
  H  H585  1  0.454000  0.534800  0.128300  1
  H  H586  1  0.954000  0.965200  0.871700  1
  H  H587  1  0.546000  0.465200  0.871700  1
  H  H588  1  0.046000  0.034800  0.128300  1
  H  H589  1  0.448900  0.474600  0.094700  1
  H  H590  1  0.948900  0.025400  0.905300  1
  H  H591  1  0.551100  0.525400  0.905300  1
  H  H592  1  0.051100  0.974600  0.094700  1
  H  H593  1  0.502700  0.621800  0.957800  1
  H  H594  1  0.002700  0.878200  0.042200  1
  H  H595  1  0.497300  0.378200  0.042200  1
  H  H596  1  0.997300  0.121800  0.957800  1
  H  H597  1  0.528800  0.562800  0.966800  1
  H  H598  1  0.028800  0.937200  0.033200  1
  H  H599  1  0.471200  0.437200  0.033200  1
  H  H600  1  0.971200  0.062800  0.966800  1
  H  H601  1  0.545500  0.622700  0.998000  1
  H  H602  1  0.045500  0.877300  0.002000  1
  H  H603  1  0.454500  0.377300  0.002000  1
  H  H604  1  0.954500  0.122700  0.998000  1
  H  H605  1  0.417000  0.224800  0.444000  1
  H  H606  1  0.917000  0.275200  0.556000  1
  H  H607  1  0.583000  0.775200  0.556000  1
  H  H608  1  0.083000  0.724800  0.444000  1
  H  H609  1  0.369600  0.164300  0.401100  1
  H  H610  1  0.869600  0.335700  0.598900  1
  H  H611  1  0.630400  0.835700  0.598900  1
  H  H612  1  0.130400  0.664300  0.401100  1
  H  H613  1  0.351200  0.133900  0.439200  1
  H  H614  1  0.851200  0.366100  0.560800  1
  H  H615  1  0.648800  0.866100  0.560800  1
  H  H616  1  0.148800  0.633900  0.439200  1
  H  H617  1  0.415300  0.120700  0.416300  1
  H  H618  1  0.915300  0.379300  0.583700  1
  H  H619  1  0.584700  0.879300  0.583700  1
  H  H620  1  0.084700  0.620700  0.416300  1
  C  C621  1  0.564600  0.362900  0.367700  1
  C  C622  1  0.064600  0.137100  0.632300  1
  C  C623  1  0.435400  0.637100  0.632300  1
  C  C624  1  0.935400  0.862900  0.367700  1
  C  C625  1  0.517100  0.398400  0.384600  1
  C  C626  1  0.017100  0.101600  0.615400  1
  C  C627  1  0.482900  0.601600  0.615400  1
  C  C628  1  0.982900  0.898400  0.384600  1
  C  C629  1  0.528200  0.438600  0.420900  1
  C  C630  1  0.028200  0.061400  0.579100  1
  C  C631  1  0.471800  0.561400  0.579100  1
  C  C632  1  0.971800  0.938600  0.420900  1
  C  C633  1  0.584600  0.445300  0.439100  1
  C  C634  1  0.084600  0.054700  0.560900  1
  C  C635  1  0.415400  0.554700  0.560900  1
  C  C636  1  0.915400  0.945300  0.439100  1
  C  C637  1  0.629900  0.407900  0.420100  1
  C  C638  1  0.129900  0.092100  0.579900  1
  C  C639  1  0.370100  0.592100  0.579900  1
  C  C640  1  0.870100  0.907900  0.420100  1
  C  C641  1  0.692000  0.409800  0.436560  1
  C  C642  1  0.192000  0.090200  0.563440  1
  C  C643  1  0.308000  0.590200  0.563440  1
  C  C644  1  0.808000  0.909800  0.436560  1
  C  C645  1  0.720900  0.446700  0.469850  1
  C  C646  1  0.220900  0.053300  0.530150  1
  C  C647  1  0.279100  0.553300  0.530150  1
  C  C648  1  0.779100  0.946700  0.469850  1
  C  C649  1  0.778600  0.426400  0.468510  1
  C  C650  1  0.278600  0.073600  0.531490  1
  C  C651  1  0.221400  0.573600  0.531490  1
  C  C652  1  0.721400  0.926400  0.468510  1
  C  C653  1  0.831900  0.445300  0.494300  1
  C  C654  1  0.331900  0.054700  0.505700  1
  C  C655  1  0.168100  0.554700  0.505700  1
  C  C656  1  0.668100  0.945300  0.494300  1
  C  C657  1  0.833400  0.488900  0.530520  1
  C  C658  1  0.333400  0.011100  0.469480  1
  C  C659  1  0.166600  0.511100  0.469480  1
  C  C660  1  0.666600  0.988900  0.530520  1
  C  C661  1  0.888700  0.501100  0.551220  1
  C  C662  1  0.388700  0.998900  0.448780  1
  C  C663  1  0.111300  0.498900  0.448780  1
  C  C664  1  0.611300  0.001100  0.551220  1
  C  C665  1  0.940500  0.471300  0.535720  1
  C  C666  1  0.440500  0.028700  0.464280  1
  C  C667  1  0.059500  0.528700  0.464280  1
  C  C668  1  0.559500  0.971300  0.535720  1
  C  C669  1  0.934900  0.428500  0.499110  1
  C  C670  1  0.434900  0.071500  0.500890  1
  C  C671  1  0.065100  0.571500  0.500890  1
  C  C672  1  0.565100  0.928500  0.499110  1
  C  C673  1  0.984000  0.390900  0.478450  1
  C  C674  1  0.484000  0.109100  0.521550  1
  C  C675  1  0.016000  0.609100  0.521550  1
  C  C676  1  0.516000  0.890900  0.478450  1
  C  C677  1  0.045100  0.391700  0.484770  1
  C  C678  1  0.545100  0.108300  0.515230  1
  C  C679  1  0.954900  0.608300  0.515230  1
  C  C680  1  0.454900  0.891700  0.484770  1
  C  C681  1  0.067100  0.345300  0.454000  1
  C  C682  1  0.567100  0.154700  0.546000  1
  C  C683  1  0.932900  0.654700  0.546000  1
  C  C684  1  0.432900  0.845300  0.454000  1
  C  C685  1  0.127300  0.323400  0.443050  1
  C  C686  1  0.627300  0.176600  0.556950  1
  C  C687  1  0.872700  0.676600  0.556950  1
  C  C688  1  0.372700  0.823400  0.443050  1
  C  C689  1  0.178800  0.350500  0.462500  1
  C  C690  1  0.678800  0.149500  0.537500  1
  C  C691  1  0.821200  0.649500  0.537500  1
  C  C692  1  0.321200  0.850500  0.462500  1
  C  C693  1  0.234000  0.326500  0.449600  1
  C  C694  1  0.734000  0.173500  0.550400  1
  C  C695  1  0.766000  0.673500  0.550400  1
  C  C696  1  0.266000  0.826500  0.449600  1
  C  C697  1  0.236600  0.276800  0.417900  1
  C  C698  1  0.736600  0.223200  0.582100  1
  C  C699  1  0.763400  0.723200  0.582100  1
  C  C700  1  0.263400  0.776800  0.417900  1
  C  C701  1  0.183200  0.252800  0.400600  1
  C  C702  1  0.683200  0.247200  0.599400  1
  C  C703  1  0.816800  0.747200  0.599400  1
  C  C704  1  0.316800  0.752800  0.400600  1
  C  C705  1  0.659700  0.331700  0.110800  1
  C  C706  1  0.159700  0.168300  0.889200  1
  C  C707  1  0.340300  0.668300  0.889200  1
  C  C708  1  0.840300  0.831700  0.110800  1
  C  C709  1  0.614400  0.362900  0.100100  1
  C  C710  1  0.114400  0.137100  0.899900  1
  C  C711  1  0.385600  0.637100  0.899900  1
  C  C712  1  0.885600  0.862900  0.100100  1
  C  C713  1  0.628100  0.410700  0.085300  1
  C  C714  1  0.128100  0.089300  0.914700  1
  C  C715  1  0.371900  0.589300  0.914700  1
  C  C716  1  0.871900  0.910700  0.085300  1
  C  C717  1  0.688900  0.425600  0.080900  1
  C  C718  1  0.188900  0.074400  0.919100  1
  C  C719  1  0.311100  0.574400  0.919100  1
  C  C720  1  0.811100  0.925600  0.080900  1
  C  C721  1  0.731700  0.390800  0.093200  1
  C  C722  1  0.231700  0.109200  0.906800  1
  C  C723  1  0.268300  0.609200  0.906800  1
  C  C724  1  0.768300  0.890800  0.093200  1
  C  C725  1  0.796000  0.402400  0.091800  1
  C  C726  1  0.296000  0.097600  0.908200  1
  C  C727  1  0.204000  0.597600  0.908200  1
  C  C728  1  0.704000  0.902400  0.091800  1
  C  C729  1  0.828600  0.442000  0.074630  1
  C  C730  1  0.328600  0.058000  0.925370  1
  C  C731  1  0.171400  0.558000  0.925370  1
  C  C732  1  0.671400  0.942000  0.074630  1
  C  C733  1  0.888100  0.431700  0.083270  1
  C  C734  1  0.388100  0.068300  0.916730  1
  C  C735  1  0.111900  0.568300  0.916730  1
  C  C736  1  0.611900  0.931700  0.083270  1
  C  C737  1  0.944900  0.458500  0.075300  1
  C  C738  1  0.444900  0.041500  0.924700  1
  C  C739  1  0.055100  0.541500  0.924700  1
  C  C740  1  0.555100  0.958500  0.075300  1
  C  C741  1  0.949100  0.503500  0.054020  1
  C  C742  1  0.449100  0.996500  0.945980  1
  C  C743  1  0.050900  0.496500  0.945980  1
  C  C744  1  0.550900  0.003500  0.054020  1
  C  C745  1  0.006400  0.524800  0.049900  1
  C  C746  1  0.506400  0.975200  0.950100  1
  C  C747  1  0.993600  0.475200  0.950100  1
  C  C748  1  0.493600  0.024800  0.049900  1
  C  C749  1  0.057000  0.502600  0.065990  1
  C  C750  1  0.557000  0.997400  0.934010  1
  C  C751  1  0.943000  0.497400  0.934010  1
  C  C752  1  0.443000  0.002600  0.065990  1
  C  C753  1  0.047800  0.456400  0.085780  1
  C  C754  1  0.547800  0.043600  0.914220  1
  C  C755  1  0.952200  0.543600  0.914220  1
  C  C756  1  0.452200  0.956400  0.085780  1
  C  C757  1  0.095500  0.425300  0.103190  1
  C  C758  1  0.595500  0.074700  0.896810  1
  C  C759  1  0.904500  0.574700  0.896810  1
  C  C760  1  0.404500  0.925300  0.103190  1
  C  C761  1  0.157500  0.432500  0.105920  1
  C  C762  1  0.657500  0.067500  0.894080  1
  C  C763  1  0.842500  0.567500  0.894080  1
  C  C764  1  0.342500  0.932500  0.105920  1
  C  C765  1  0.175900  0.389000  0.126050  1
  C  C766  1  0.675900  0.111000  0.873950  1
  C  C767  1  0.824100  0.611000  0.873950  1
  C  C768  1  0.324100  0.889000  0.126050  1
  C  C769  1  0.235000  0.371900  0.137700  1
  C  C770  1  0.735000  0.128100  0.862300  1
  C  C771  1  0.765000  0.628100  0.862300  1
  C  C772  1  0.265000  0.871900  0.137700  1
  C  C773  1  0.288000  0.399600  0.130300  1
  C  C774  1  0.788000  0.100400  0.869700  1
  C  C775  1  0.712000  0.600400  0.869700  1
  C  C776  1  0.212000  0.899600  0.130300  1
  C  C777  1  0.342000  0.380600  0.144000  1
  C  C778  1  0.842000  0.119400  0.856000  1
  C  C779  1  0.658000  0.619400  0.856000  1
  C  C780  1  0.158000  0.880600  0.144000  1
  C  C781  1  0.341600  0.334900  0.164400  1
  C  C782  1  0.841600  0.165100  0.835600  1
  C  C783  1  0.658400  0.665100  0.835600  1
  C  C784  1  0.158400  0.834900  0.164400  1
  C  C785  1  0.288900  0.309700  0.170100  1
  C  C786  1  0.788900  0.190300  0.829900  1
  C  C787  1  0.711100  0.690300  0.829900  1
  C  C788  1  0.211100  0.809700  0.170100  1
  C  C789  1  0.642800  0.278600  0.453400  1
  C  C790  1  0.142800  0.221400  0.546600  1
  C  C791  1  0.357200  0.721400  0.546600  1
  C  C792  1  0.857200  0.778600  0.453400  1
  C  C793  1  0.603000  0.255500  0.478000  1
  C  C794  1  0.103000  0.244500  0.522000  1
  C  C795  1  0.397000  0.744500  0.522000  1
  C  C796  1  0.897000  0.755500  0.478000  1
  C  C797  1  0.562300  0.215100  0.458200  1
  C  C798  1  0.062300  0.284900  0.541800  1
  C  C799  1  0.437700  0.784900  0.541800  1
  C  C800  1  0.937700  0.715100  0.458200  1
  C  C801  1  0.562400  0.197800  0.414000  1
  C  C802  1  0.062400  0.302200  0.586000  1
  C  C803  1  0.437600  0.802200  0.586000  1
  C  C804  1  0.937600  0.697800  0.414000  1
  C  C805  1  0.604300  0.222800  0.391100  1
  C  C806  1  0.104300  0.277200  0.608900  1
  C  C807  1  0.395700  0.777200  0.608900  1
  C  C808  1  0.895700  0.722800  0.391100  1
  C  C809  1  0.608100  0.208700  0.345700  1
  C  C810  1  0.108100  0.291300  0.654300  1
  C  C811  1  0.391900  0.791300  0.654300  1
  C  C812  1  0.891900  0.708700  0.345700  1
  C  C813  1  0.585300  0.163800  0.315600  1
  C  C814  1  0.085300  0.336200  0.684400  1
  C  C815  1  0.414700  0.836200  0.684400  1
  C  C816  1  0.914700  0.663800  0.315600  1
  C  C817  1  0.609400  0.170800  0.277700  1
  C  C818  1  0.109400  0.329200  0.722300  1
  C  C819  1  0.390600  0.829200  0.722300  1
  C  C820  1  0.890600  0.670800  0.277700  1
  C  C821  1  0.606200  0.135600  0.234100  1
  C  C822  1  0.106200  0.364400  0.765900  1
  C  C823  1  0.393800  0.864400  0.765900  1
  C  C824  1  0.893800  0.635600  0.234100  1
  C  C825  1  0.574900  0.084800  0.220900  1
  C  C826  1  0.074900  0.415200  0.779100  1
  C  C827  1  0.425100  0.915200  0.779100  1
  C  C828  1  0.925100  0.584800  0.220900  1
  C  C829  1  0.576600  0.056000  0.179400  1
  C  C830  1  0.076600  0.444000  0.820600  1
  C  C831  1  0.423400  0.944000  0.820600  1
  C  C832  1  0.923400  0.556000  0.179400  1
  C  C833  1  0.610000  0.078200  0.150900  1
  C  C834  1  0.110000  0.421800  0.849100  1
  C  C835  1  0.390000  0.921800  0.849100  1
  C  C836  1  0.890000  0.578200  0.150900  1
  C  C837  1  0.642600  0.129400  0.165200  1
  C  C838  1  0.142600  0.370600  0.834800  1
  C  C839  1  0.357400  0.870600  0.834800  1
  C  C840  1  0.857400  0.629400  0.165200  1
  C  C841  1  0.681300  0.157100  0.139100  1
  C  C842  1  0.181300  0.342900  0.860900  1
  C  C843  1  0.318700  0.842900  0.860900  1
  C  C844  1  0.818700  0.657100  0.139100  1
  C  C845  1  0.699700  0.144100  0.097400  1
  C  C846  1  0.199700  0.355900  0.902600  1
  C  C847  1  0.300300  0.855900  0.902600  1
  C  C848  1  0.800300  0.644100  0.097400  1
  C  C849  1  0.737600  0.188200  0.092500  1
  C  C850  1  0.237600  0.311800  0.907500  1
  C  C851  1  0.262400  0.811800  0.907500  1
  C  C852  1  0.762400  0.688200  0.092500  1
  C  C853  1  0.772800  0.197300  0.057200  1
  C  C854  1  0.272800  0.302700  0.942800  1
  C  C855  1  0.227200  0.802700  0.942800  1
  C  C856  1  0.727200  0.697300  0.057200  1
  C  C857  1  0.774700  0.159800  0.018000  1
  C  C858  1  0.274700  0.340200  0.982000  1
  C  C859  1  0.225300  0.840200  0.982000  1
  C  C860  1  0.725300  0.659800  0.018000  1
  C  C861  1  0.811500  0.171700  0.987100  1
  C  C862  1  0.311500  0.328300  0.012900  1
  C  C863  1  0.188500  0.828300  0.012900  1
  C  C864  1  0.688500  0.671700  0.987100  1
  C  C865  1  0.844400  0.221800  0.994500  1
  C  C866  1  0.344400  0.278200  0.005500  1
  C  C867  1  0.155600  0.778200  0.005500  1
  C  C868  1  0.655600  0.721800  0.994500  1
  C  C869  1  0.839500  0.258600  0.034300  1
  C  C870  1  0.339500  0.241400  0.965700  1
  C  C871  1  0.160500  0.741400  0.965700  1
  C  C872  1  0.660500  0.758600  0.034300  1
  C  C873  1  0.985400  0.195700  0.455690  1
  C  C874  1  0.485400  0.304300  0.544310  1
  C  C875  1  0.014600  0.804300  0.544310  1
  C  C876  1  0.514600  0.695700  0.455690  1
  C  C877  1  0.973800  0.155500  0.480200  1
  C  C878  1  0.473800  0.344500  0.519800  1
  C  C879  1  0.026200  0.844500  0.519800  1
  C  C880  1  0.526200  0.655500  0.480200  1
  C  C881  1  0.001800  0.102200  0.468500  1
  C  C882  1  0.501800  0.397800  0.531500  1
  C  C883  1  0.998200  0.897800  0.531500  1
  C  C884  1  0.498200  0.602200  0.468500  1
  C  C885  1  0.039500  0.091400  0.433910  1
  C  C886  1  0.539500  0.408600  0.566090  1
  C  C887  1  0.960500  0.908600  0.566090  1
  C  C888  1  0.460500  0.591400  0.433910  1
  C  C889  1  0.047600  0.133900  0.410490  1
  C  C890  1  0.547600  0.366100  0.589510  1
  C  C891  1  0.952400  0.866100  0.589510  1
  C  C892  1  0.452400  0.633900  0.410490  1
  C  C893  1  0.083200  0.125500  0.371170  1
  C  C894  1  0.583200  0.374500  0.628830  1
  C  C895  1  0.916800  0.874500  0.628830  1
  C  C896  1  0.416800  0.625500  0.371170  1
  C  C897  1  0.116700  0.079100  0.349310  1
  C  C898  1  0.616700  0.420900  0.650690  1
  C  C899  1  0.883300  0.920900  0.650690  1
  C  C900  1  0.383300  0.579100  0.349310  1
  C  C901  1  0.138500  0.097700  0.314220  1
  C  C902  1  0.638500  0.402300  0.685780  1
  C  C903  1  0.861500  0.902300  0.685780  1
  C  C904  1  0.361500  0.597700  0.314220  1
  C  C905  1  0.174700  0.070000  0.276930  1
  C  C906  1  0.674700  0.430000  0.723070  1
  C  C907  1  0.825300  0.930000  0.723070  1
  C  C908  1  0.325300  0.570000  0.276930  1
  C  C909  1  0.200700  0.014800  0.271100  1
  C  C910  1  0.700700  0.485200  0.728900  1
  C  C911  1  0.799300  0.985200  0.728900  1
  C  C912  1  0.299300  0.514800  0.271100  1
  C  C913  1  0.231900  0.996500  0.233400  1
  C  C914  1  0.731900  0.503500  0.766600  1
  C  C915  1  0.768100  0.003500  0.766600  1
  C  C916  1  0.268100  0.496500  0.233400  1
  C  C917  1  0.238700  0.030300  0.204300  1
  C  C918  1  0.738700  0.469700  0.795700  1
  C  C919  1  0.761300  0.969700  0.795700  1
  C  C920  1  0.261300  0.530300  0.204300  1
  C  C921  1  0.211600  0.083300  0.211770  1
  C  C922  1  0.711600  0.416700  0.788230  1
  C  C923  1  0.788400  0.916700  0.788230  1
  C  C924  1  0.288400  0.583300  0.211770  1
  C  C925  1  0.210700  0.124000  0.184100  1
  C  C926  1  0.710700  0.376000  0.815900  1
  C  C927  1  0.789300  0.876000  0.815900  1
  C  C928  1  0.289300  0.624000  0.184100  1
  C  C929  1  0.225600  0.118200  0.141200  1
  C  C930  1  0.725600  0.381800  0.858800  1
  C  C931  1  0.774400  0.881800  0.858800  1
  C  C932  1  0.274400  0.618200  0.141200  1
  C  C933  1  0.208900  0.170500  0.131600  1
  C  C934  1  0.708900  0.329500  0.868400  1
  C  C935  1  0.791100  0.829500  0.868400  1
  C  C936  1  0.291100  0.670500  0.131600  1
  C  C937  1  0.206200  0.189400  0.091700  1
  C  C938  1  0.706200  0.310600  0.908300  1
  C  C939  1  0.793800  0.810600  0.908300  1
  C  C940  1  0.293800  0.689400  0.091700  1
  C  C941  1  0.230400  0.158000  0.053600  1
  C  C942  1  0.730400  0.342000  0.946400  1
  C  C943  1  0.769600  0.842000  0.946400  1
  C  C944  1  0.269600  0.658000  0.053600  1
  C  C945  1  0.221100  0.176600  0.016800  1
  C  C946  1  0.721100  0.323400  0.983200  1
  C  C947  1  0.778900  0.823400  0.983200  1
  C  C948  1  0.278900  0.676600  0.016800  1
  C  C949  1  0.191000  0.227300  0.018000  1
  C  C950  1  0.691000  0.272700  0.982000  1
  C  C951  1  0.809000  0.772700  0.982000  1
  C  C952  1  0.309000  0.727300  0.018000  1
  C  C953  1  0.170300  0.257700  0.057100  1
  C  C954  1  0.670300  0.242300  0.942900  1
  C  C955  1  0.829700  0.742300  0.942900  1
  C  C956  1  0.329700  0.757700  0.057100  1
  C  C957  1  0.886400  0.386100  0.342500  1
  C  C958  1  0.386400  0.113900  0.657500  1
  C  C959  1  0.113600  0.613900  0.657500  1
  C  C960  1  0.613600  0.886100  0.342500  1
  C  C961  1  0.811300  0.250900  0.468800  1
  C  C962  1  0.311300  0.249100  0.531200  1
  C  C963  1  0.188700  0.749100  0.531200  1
  C  C964  1  0.688700  0.750900  0.468800  1
  C  C965  1  0.062700  0.360000  0.349500  1
  C  C966  1  0.562700  0.140000  0.650500  1
  C  C967  1  0.937300  0.640000  0.650500  1
  C  C968  1  0.437300  0.860000  0.349500  1
  C  C969  1  0.937000  0.166900  0.340300  1
  C  C970  1  0.437000  0.333100  0.659700  1
  C  C971  1  0.063000  0.833100  0.659700  1
  C  C972  1  0.563000  0.666900  0.340300  1
  C  C973  1  0.762500  0.403100  0.202500  1
  C  C974  1  0.262500  0.096900  0.797500  1
  C  C975  1  0.237500  0.596900  0.797500  1
  C  C976  1  0.737500  0.903100  0.202500  1
  C  C977  1  0.877700  0.201600  0.144200  1
  C  C978  1  0.377700  0.298400  0.855800  1
  C  C979  1  0.122300  0.798400  0.855800  1
  C  C980  1  0.622300  0.701600  0.144200  1
  C  C981  1  0.256200  0.267400  0.286600  1
  C  C982  1  0.756200  0.232600  0.713400  1
  C  C983  1  0.743800  0.732600  0.713400  1
  C  C984  1  0.243800  0.767400  0.286600  1
  C  C985  1  0.036200  0.106200  0.226700  1
  C  C986  1  0.536200  0.393800  0.773300  1
  C  C987  1  0.963800  0.893800  0.773300  1
  C  C988  1  0.463800  0.606200  0.226700  1
  C  C989  1  0.725000  0.408600  0.325200  1
  C  C990  1  0.225000  0.091400  0.674800  1
  C  C991  1  0.275000  0.591400  0.674800  1
  C  C992  1  0.775000  0.908600  0.325200  1
  C  C993  1  0.760000  0.188200  0.353300  1
  C  C994  1  0.260000  0.311800  0.646700  1
  C  C995  1  0.240000  0.811800  0.646700  1
  C  C996  1  0.740000  0.688200  0.353300  1
  C  C997  1  0.929700  0.414600  0.210400  1
  C  C998  1  0.429700  0.085400  0.789600  1
  C  C999  1  0.070300  0.585400  0.789600  1
  C  C1000  1  0.570300  0.914600  0.210400  1
  C  C1001  1  0.999600  0.250800  0.048500  1
  C  C1002  1  0.499600  0.249200  0.951500  1
  C  C1003  1  0.000400  0.749200  0.951500  1
  C  C1004  1  0.500400  0.750800  0.048500  1
  C  C1005  1  0.128300  0.378800  0.235900  1
  C  C1006  1  0.628300  0.121200  0.764100  1
  C  C1007  1  0.871700  0.621200  0.764100  1
  C  C1008  1  0.371700  0.878800  0.235900  1
  C  C1009  1  0.050000  0.185700  0.134200  1
  C  C1010  1  0.550000  0.314300  0.865800  1
  C  C1011  1  0.950000  0.814300  0.865800  1
  C  C1012  1  0.450000  0.685700  0.134200  1
  C  C1013  1  0.822000  0.211000  0.252000  1
  C  C1014  1  0.322000  0.289000  0.748000  1
  C  C1015  1  0.178000  0.789000  0.748000  1
  C  C1016  1  0.678000  0.711000  0.252000  1
  C  C1017  1  0.599400  0.339400  0.240400  1
  C  C1018  1  0.099400  0.160600  0.759600  1
  C  C1019  1  0.400600  0.660600  0.759600  1
  C  C1020  1  0.900600  0.839400  0.240400  1
  C  C1021  1  0.330100  0.121700  0.307500  1
  C  C1022  1  0.830100  0.378300  0.692500  1
  C  C1023  1  0.669900  0.878300  0.692500  1
  C  C1024  1  0.169900  0.621700  0.307500  1
  C  C1025  1  0.423200  0.262100  0.362400  1
  C  C1026  1  0.923200  0.237900  0.637600  1
  C  C1027  1  0.576800  0.737900  0.637600  1
  C  C1028  1  0.076800  0.762100  0.362400  1
  C  C1029  1  0.213700  0.442900  0.353300  1
  C  C1030  1  0.713700  0.057100  0.646700  1
  C  C1031  1  0.786300  0.557100  0.646700  1
  C  C1032  1  0.286300  0.942900  0.353300  1
  C  C1033  1  0.083300  0.345500  0.975700  1
  C  C1034  1  0.583300  0.154500  0.024300  1
  C  C1035  1  0.916700  0.654500  0.024300  1
  C  C1036  1  0.416700  0.845500  0.975700  1
  C  C1037  1  0.223900  0.111800  0.433700  1
  C  C1038  1  0.723900  0.388200  0.566300  1
  C  C1039  1  0.776100  0.888200  0.566300  1
  C  C1040  1  0.276100  0.611800  0.433700  1
  C  C1041  1  0.966900  0.284600  0.249000  1
  C  C1042  1  0.466900  0.215400  0.751000  1
  C  C1043  1  0.033100  0.715400  0.751000  1
  C  C1044  1  0.533100  0.784600  0.249000  1
  C  C1045  1  0.763000  0.041400  0.167000  1
  C  C1046  1  0.263000  0.458600  0.833000  1
  C  C1047  1  0.237000  0.958600  0.833000  1
  C  C1048  1  0.737000  0.541400  0.167000  1
  C  C1049  1  0.619900  0.570400  0.054300  1
  C  C1050  1  0.119900  0.929600  0.945700  1
  C  C1051  1  0.380100  0.429600  0.945700  1
  C  C1052  1  0.880100  0.070400  0.054300  1
  C  C1053  1  0.402700  0.540800  0.074800  1
  C  C1054  1  0.902700  0.959200  0.925200  1
  C  C1055  1  0.597300  0.459200  0.925200  1
  C  C1056  1  0.097300  0.040800  0.074800  1
  C  C1057  1  0.459200  0.595900  0.007100  1
  C  C1058  1  0.959200  0.904100  0.992900  1
  C  C1059  1  0.540800  0.404100  0.992900  1
  C  C1060  1  0.040800  0.095900  0.007100  1
  C  C1061  1  0.426900  0.509200  0.108800  1
  C  C1062  1  0.926900  0.990800  0.891200  1
  C  C1063  1  0.573100  0.490800  0.891200  1
  C  C1064  1  0.073100  0.009200  0.108800  1
  C  C1065  1  0.513900  0.601300  0.980000  1
  C  C1066  1  0.013900  0.898700  0.020000  1
  C  C1067  1  0.486100  0.398700  0.020000  1
  C  C1068  1  0.986100  0.101300  0.980000  1
  C  C1069  1  0.384600  0.150300  0.425800  1
  C  C1070  1  0.884600  0.349700  0.574200  1
  C  C1071  1  0.615400  0.849700  0.574200  1
  C  C1072  1  0.115400  0.650300  0.425800  1
  N  N1073  1  0.619700  0.367370  0.384540  1
  N  N1074  1  0.119700  0.132630  0.615460  1
  N  N1075  1  0.380300  0.632630  0.615460  1
  N  N1076  1  0.880300  0.867370  0.384540  1
  N  N1077  1  0.730700  0.368240  0.416790  1
  N  N1078  1  0.230700  0.131760  0.583210  1
  N  N1079  1  0.269300  0.631760  0.583210  1
  N  N1080  1  0.769300  0.868240  0.416790  1
  N  N1081  1  0.784200  0.378560  0.436490  1
  N  N1082  1  0.284200  0.121440  0.563510  1
  N  N1083  1  0.215800  0.621440  0.563510  1
  N  N1084  1  0.715800  0.878560  0.436490  1
  N  N1085  1  0.881700  0.416080  0.479740  1
  N  N1086  1  0.381700  0.083920  0.520260  1
  N  N1087  1  0.118300  0.583920  0.520260  1
  N  N1088  1  0.618300  0.916080  0.479740  1
  N  N1089  1  0.968900  0.346850  0.445320  1
  N  N1090  1  0.468900  0.153150  0.554680  1
  N  N1091  1  0.031100  0.653150  0.554680  1
  N  N1092  1  0.531100  0.846850  0.445320  1
  N  N1093  1  0.019600  0.318490  0.430700  1
  N  N1094  1  0.519600  0.181510  0.569300  1
  N  N1095  1  0.980400  0.681510  0.569300  1
  N  N1096  1  0.480400  0.818490  0.430700  1
  N  N1097  1  0.130000  0.274740  0.412590  1
  N  N1098  1  0.630000  0.225260  0.587410  1
  N  N1099  1  0.870000  0.725260  0.587410  1
  N  N1100  1  0.370000  0.774740  0.412590  1
  N  N1101  1  0.718300  0.343300  0.107980  1
  N  N1102  1  0.218300  0.156700  0.892020  1
  N  N1103  1  0.281700  0.656700  0.892020  1
  N  N1104  1  0.781700  0.843300  0.107980  1
  N  N1105  1  0.834600  0.370000  0.110040  1
  N  N1106  1  0.334600  0.130000  0.889960  1
  N  N1107  1  0.165400  0.630000  0.889960  1
  N  N1108  1  0.665400  0.870000  0.110040  1
  N  N1109  1  0.891400  0.388440  0.105170  1
  N  N1110  1  0.391400  0.111560  0.894830  1
  N  N1111  1  0.108600  0.611560  0.894830  1
  N  N1112  1  0.608600  0.888440  0.105170  1
  N  N1113  1  0.992800  0.435940  0.090230  1
  N  N1114  1  0.492800  0.064060  0.909770  1
  N  N1115  1  0.007200  0.564060  0.909770  1
  N  N1116  1  0.507200  0.935940  0.090230  1
  N  N1117  1  0.078100  0.381470  0.120950  1
  N  N1118  1  0.578100  0.118530  0.879050  1
  N  N1119  1  0.921900  0.618530  0.879050  1
  N  N1120  1  0.421900  0.881470  0.120950  1
  N  N1121  1  0.127700  0.358250  0.134940  1
  N  N1122  1  0.627700  0.141750  0.865060  1
  N  N1123  1  0.872300  0.641750  0.865060  1
  N  N1124  1  0.372300  0.858250  0.134940  1
  N  N1125  1  0.236300  0.327000  0.157060  1
  N  N1126  1  0.736300  0.173000  0.842940  1
  N  N1127  1  0.763700  0.673000  0.842940  1
  N  N1128  1  0.263700  0.827000  0.157060  1
  N  N1129  1  0.644000  0.262900  0.410730  1
  N  N1130  1  0.144000  0.237100  0.589270  1
  N  N1131  1  0.356000  0.737100  0.589270  1
  N  N1132  1  0.856000  0.762900  0.410730  1
  N  N1133  1  0.643200  0.242000  0.326040  1
  N  N1134  1  0.143200  0.258000  0.673960  1
  N  N1135  1  0.356800  0.758000  0.673960  1
  N  N1136  1  0.856800  0.742000  0.326040  1
  N  N1137  1  0.644300  0.218300  0.283980  1
  N  N1138  1  0.144300  0.281700  0.716020  1
  N  N1139  1  0.355700  0.781700  0.716020  1
  N  N1140  1  0.855700  0.718300  0.283980  1
  N  N1141  1  0.639100  0.156600  0.206210  1
  N  N1142  1  0.139100  0.343400  0.793790  1
  N  N1143  1  0.360900  0.843400  0.793790  1
  N  N1144  1  0.860900  0.656600  0.206210  1
  N  N1145  1  0.706700  0.208600  0.159380  1
  N  N1146  1  0.206700  0.291400  0.840620  1
  N  N1147  1  0.293300  0.791400  0.840620  1
  N  N1148  1  0.793300  0.708600  0.159380  1
  N  N1149  1  0.741200  0.227200  0.130480  1
  N  N1150  1  0.241200  0.272800  0.869520  1
  N  N1151  1  0.258800  0.772800  0.869520  1
  N  N1152  1  0.758800  0.727200  0.130480  1
  N  N1153  1  0.804300  0.246500  0.065370  1
  N  N1154  1  0.304300  0.253500  0.934630  1
  N  N1155  1  0.195700  0.753500  0.934630  1
  N  N1156  1  0.695700  0.746500  0.065370  1
  N  N1157  1  0.022500  0.186110  0.422260  1
  N  N1158  1  0.522500  0.313890  0.577740  1
  N  N1159  1  0.977500  0.813890  0.577740  1
  N  N1160  1  0.477500  0.686110  0.422260  1
  N  N1161  1  0.084630  0.169060  0.350480  1
  N  N1162  1  0.584630  0.330940  0.649520  1
  N  N1163  1  0.915370  0.830940  0.649520  1
  N  N1164  1  0.415370  0.669060  0.350480  1
  N  N1165  1  0.118850  0.152160  0.315060  1
  N  N1166  1  0.618850  0.347840  0.684940  1
  N  N1167  1  0.881150  0.847840  0.684940  1
  N  N1168  1  0.381150  0.652160  0.315060  1
  N  N1169  1  0.180400  0.102440  0.248460  1
  N  N1170  1  0.680400  0.397560  0.751540  1
  N  N1171  1  0.819600  0.897560  0.751540  1
  N  N1172  1  0.319600  0.602440  0.248460  1
  N  N1173  1  0.186000  0.177190  0.199110  1
  N  N1174  1  0.686000  0.322810  0.800890  1
  N  N1175  1  0.814000  0.822810  0.800890  1
  N  N1176  1  0.314000  0.677190  0.199110  1
  N  N1177  1  0.185400  0.205600  0.167300  1
  N  N1178  1  0.685400  0.294400  0.832700  1
  N  N1179  1  0.814600  0.794400  0.832700  1
  N  N1180  1  0.314600  0.705600  0.167300  1
  N  N1181  1  0.177300  0.239500  0.092840  1
  N  N1182  1  0.677300  0.260500  0.907160  1
  N  N1183  1  0.822700  0.760500  0.907160  1
  N  N1184  1  0.322700  0.739500  0.092840  1
  O  O1185  1  0.725140  0.347370  0.322390  1
  O  O1186  1  0.225140  0.152630  0.677610  1
  O  O1187  1  0.274860  0.652630  0.677610  1
  O  O1188  1  0.774860  0.847370  0.322390  1
  O  O1189  1  0.763920  0.250170  0.360940  1
  O  O1190  1  0.263920  0.249830  0.639060  1
  O  O1191  1  0.236080  0.749830  0.639060  1
  O  O1192  1  0.736080  0.750170  0.360940  1
  O  O1193  1  0.894600  0.401000  0.385320  1
  O  O1194  1  0.394600  0.099000  0.614680  1
  O  O1195  1  0.105400  0.599000  0.614680  1
  O  O1196  1  0.605400  0.901000  0.385320  1
  O  O1197  1  0.859780  0.288700  0.470150  1
  O  O1198  1  0.359780  0.211300  0.529850  1
  O  O1199  1  0.140220  0.711300  0.529850  1
  O  O1200  1  0.640220  0.788700  0.470150  1
  O  O1201  1  0.056310  0.298910  0.339900  1
  O  O1202  1  0.556310  0.201090  0.660100  1
  O  O1203  1  0.943690  0.701090  0.660100  1
  O  O1204  1  0.443690  0.798910  0.339900  1
  O  O1205  1  0.960170  0.224970  0.351500  1
  O  O1206  1  0.460170  0.275030  0.648500  1
  O  O1207  1  0.039830  0.775030  0.648500  1
  O  O1208  1  0.539830  0.724970  0.351500  1
  O  O1209  1  0.615900  0.284300  0.214110  1
  O  O1210  1  0.115900  0.215700  0.785890  1
  O  O1211  1  0.384100  0.715700  0.785890  1
  O  O1212  1  0.884100  0.784300  0.214110  1
  O  O1213  1  0.764900  0.182900  0.238440  1
  O  O1214  1  0.264900  0.317100  0.761560  1
  O  O1215  1  0.235100  0.817100  0.761560  1
  O  O1216  1  0.735100  0.682900  0.238440  1
  O  O1217  1  0.736100  0.301030  0.246810  1
  O  O1218  1  0.236100  0.198970  0.753190  1
  O  O1219  1  0.263900  0.698970  0.753190  1
  O  O1220  1  0.763900  0.801030  0.246810  1
  O  O1221  1  0.781300  0.344970  0.190820  1
  O  O1222  1  0.281300  0.155030  0.809180  1
  O  O1223  1  0.218700  0.655030  0.809180  1
  O  O1224  1  0.718700  0.844970  0.190820  1
  O  O1225  1  0.868740  0.261490  0.150130  1
  O  O1226  1  0.368740  0.238510  0.849870  1
  O  O1227  1  0.131260  0.738510  0.849870  1
  O  O1228  1  0.631260  0.761490  0.150130  1
  O  O1229  1  0.976470  0.420650  0.181790  1
  O  O1230  1  0.476470  0.079350  0.818210  1
  O  O1231  1  0.023530  0.579350  0.818210  1
  O  O1232  1  0.523530  0.920650  0.181790  1
  O  O1233  1  0.988630  0.311090  0.057540  1
  O  O1234  1  0.488630  0.188910  0.942460  1
  O  O1235  1  0.011370  0.688910  0.942460  1
  O  O1236  1  0.511370  0.811090  0.057540  1
  O  O1237  1  0.971950  0.300960  0.145100  1
  O  O1238  1  0.471950  0.199040  0.854900  1
  O  O1239  1  0.028050  0.699040  0.854900  1
  O  O1240  1  0.528050  0.800960  0.145100  1
  O  O1241  1  0.135500  0.321410  0.219310  1
  O  O1242  1  0.635500  0.178590  0.780690  1
  O  O1243  1  0.864500  0.678590  0.780690  1
  O  O1244  1  0.364500  0.821410  0.219310  1
  O  O1245  1  0.066050  0.245860  0.150360  1
  O  O1246  1  0.566050  0.254140  0.849640  1
  O  O1247  1  0.933950  0.754140  0.849640  1
  O  O1248  1  0.433950  0.745860  0.150360  1
  O  O1249  1  0.224370  0.219010  0.293310  1
  O  O1250  1  0.724370  0.280990  0.706690  1
  O  O1251  1  0.775630  0.780990  0.706690  1
  O  O1252  1  0.275630  0.719010  0.293310  1
  O  O1253  1  0.060600  0.162000  0.232800  1
  O  O1254  1  0.560600  0.338000  0.767200  1
  O  O1255  1  0.939400  0.838000  0.767200  1
  O  O1256  1  0.439400  0.662000  0.232800  1
  O  O1257  1  0.112680  0.263930  0.272110  1
  O  O1258  1  0.612680  0.236070  0.727890  1
  O  O1259  1  0.887320  0.736070  0.727890  1
  O  O1260  1  0.387320  0.763930  0.272110  1
  O  O1261  1  0.869610  0.281580  0.378870  1
  O  O1262  1  0.369610  0.218420  0.621130  1
  O  O1263  1  0.130390  0.718420  0.621130  1
  O  O1264  1  0.630390  0.781580  0.378870  1
  O  O1265  1  0.289600  0.158200  0.335390  1
  O  O1266  1  0.789600  0.341800  0.664610  1
  O  O1267  1  0.710400  0.841800  0.664610  1
  O  O1268  1  0.210400  0.658200  0.335390  1
  O  O1269  1  0.406600  0.278500  0.409200  1
  O  O1270  1  0.906600  0.221500  0.590800  1
  O  O1271  1  0.593400  0.721500  0.590800  1
  O  O1272  1  0.093400  0.778500  0.409200  1
  O  O1273  1  0.266200  0.479000  0.364500  1
  O  O1274  1  0.766200  0.021000  0.635500  1
  O  O1275  1  0.733800  0.521000  0.635500  1
  O  O1276  1  0.233800  0.979000  0.364500  1
  O  O1277  1  0.020900  0.348300  0.989200  1
  O  O1278  1  0.520900  0.151700  0.010800  1
  O  O1279  1  0.979100  0.651700  0.010800  1
  O  O1280  1  0.479100  0.848300  0.989200  1
  O  O1281  1  0.255100  0.094300  0.393200  1
  O  O1282  1  0.755100  0.405700  0.606800  1
  O  O1283  1  0.744900  0.905700  0.606800  1
  O  O1284  1  0.244900  0.594300  0.393200  1
  O  O1285  1  0.970200  0.231400  0.265000  1
  O  O1286  1  0.470200  0.268600  0.735000  1
  O  O1287  1  0.029800  0.768600  0.735000  1
  O  O1288  1  0.529800  0.731400  0.265000  1
  O  O1289  1  0.801900  0.084000  0.185600  1
  O  O1290  1  0.301900  0.416000  0.814400  1
  O  O1291  1  0.198100  0.916000  0.814400  1
  O  O1292  1  0.698100  0.584000  0.185600  1
  O  O1293  1  0.570300  0.553100  0.078200  1
  O  O1294  1  0.070300  0.946900  0.921800  1
  O  O1295  1  0.429700  0.446900  0.921800  1
  O  O1296  1  0.929700  0.053100  0.078200  1
  O  O1297  1  0.448600  0.561500  0.043500  1
  O  O1298  1  0.948600  0.938500  0.956500  1
  O  O1299  1  0.551400  0.438500  0.956500  1
  O  O1300  1  0.051400  0.061500  0.043500  1
  O  O1301  1  0.410500  0.197200  0.455900  1
  O  O1302  1  0.910500  0.302800  0.544100  1
  O  O1303  1  0.589500  0.802800  0.544100  1
  O  O1304  1  0.089500  0.697200  0.455900  1
  O  O1305  1  0.920100  0.318800  0.939300  1
  O  O1306  1  0.420100  0.181200  0.060700  1
  O  O1307  1  0.079900  0.681200  0.060700  1
  O  O1308  1  0.579900  0.818800  0.939300  1
  F  F1309  1  0.307860  0.961600  0.996650  1
  F  F1310  1  0.807860  0.538400  0.003350  1
  F  F1311  1  0.692140  0.038400  0.003350  1
  F  F1312  1  0.192140  0.461600  0.996650  1
  F  F1313  1  0.231080  0.963260  0.043960  1
  F  F1314  1  0.731080  0.536740  0.956040  1
  F  F1315  1  0.768920  0.036740  0.956040  1
  F  F1316  1  0.268920  0.463260  0.043960  1
  F  F1317  1  0.298460  0.036150  0.053150  1
  F  F1318  1  0.798460  0.463850  0.946850  1
  F  F1319  1  0.701540  0.963850  0.946850  1
  F  F1320  1  0.201540  0.536150  0.053150  1
  F  F1321  1  0.231860  0.025680  0.999330  1
  F  F1322  1  0.731860  0.474320  0.000670  1
  F  F1323  1  0.768140  0.974320  0.000670  1
  F  F1324  1  0.268140  0.525680  0.999330  1
  F  F1325  1  0.377700  0.382700  0.437400  1
  F  F1326  1  0.877700  0.117300  0.562600  1
  F  F1327  1  0.622300  0.617300  0.562600  1
  F  F1328  1  0.122300  0.882700  0.437400  1
  F  F1329  1  0.396300  0.473000  0.467080  1
  F  F1330  1  0.896300  0.027000  0.532920  1
  F  F1331  1  0.603700  0.527000  0.532920  1
  F  F1332  1  0.103700  0.973000  0.467080  1
  F  F1333  1  0.302050  0.445450  0.445530  1
  F  F1334  1  0.802050  0.054550  0.554470  1
  F  F1335  1  0.697950  0.554550  0.554470  1
  F  F1336  1  0.197950  0.945450  0.445530  1
  F  F1337  1  0.377700  0.448000  0.400000  1
  F  F1338  1  0.877700  0.052000  0.600000  1
  F  F1339  1  0.622300  0.552000  0.600000  1
  F  F1340  1  0.122300  0.948000  0.400000  1
  F  F1341  1  0.997300  0.563800  0.365300  1
  F  F1342  1  0.497300  0.936200  0.634700  1
  F  F1343  1  0.002700  0.436200  0.634700  1
  F  F1344  1  0.502700  0.063800  0.365300  1
  F  F1345  1  0.064300  0.499200  0.342000  1
  F  F1346  1  0.564300  0.000800  0.658000  1
  F  F1347  1  0.935700  0.500800  0.658000  1
  F  F1348  1  0.435700  0.999200  0.342000  1
  F  F1349  1  0.977200  0.494200  0.310200  1
  F  F1350  1  0.477200  0.005800  0.689800  1
  F  F1351  1  0.022800  0.505800  0.689800  1
  F  F1352  1  0.522800  0.994200  0.310200  1
  F  F1353  1  0.030900  0.562300  0.308300  1
  F  F1354  1  0.530900  0.937700  0.691700  1
  F  F1355  1  0.969100  0.437700  0.691700  1
  F  F1356  1  0.469100  0.062300  0.308300  1
