
#######################################################################
#
#                 Cambridge Crystallographic Data Centre
#                                CCDC 
#
#######################################################################
#
# If this CIF has been generated from an entry in the Cambridge 
# Structural Database, then it will include bibliographic, chemical, 
# crystal, experimental, refinement or atomic coordinate data resulting 
# from the CCDC's data processing and validation procedures.
#
#######################################################################

data_SUNQUO
_chemical_formula_moiety         'C36 H64 Cl4 N4 O6 Pd2 Si8'
_chemical_name_systematic        
bis(\m~2~-4,4'-(1,1,3,3,5,5,7,7-Octamethyltetrasiloxane-1,7-diyl)-bis(pyridine-N))-tetrachloro-di-palladium(ii)
_symmetry_cell_setting           triclinic
_symmetry_space_group_name_H-M   'P -1'
_symmetry_Int_Tables_number      2
_space_group_name_Hall           '-P 1'
loop_
_symmetry_equiv_pos_site_id
_symmetry_equiv_pos_as_xyz
1 x,y,z
2 -x,-y,-z
_cell_length_a                   7.4786(5)
_cell_length_b                   11.6375(8)
_cell_length_c                   16.5467(12)
_cell_angle_alpha                95.3270(10)
_cell_angle_beta                 102.0390(10)
_cell_angle_gamma                93.2920(10)
_cell_volume                     1397.97
_exptl_crystal_colour            yellow
_exptl_crystal_description       plate
_cell_formula_units_Z            1
_exptl_crystal_recrystallization_method acetone/ethanol
loop_
_atom_site_label
_atom_site_type_symbol
_atom_site_fract_x
_atom_site_fract_y
_atom_site_fract_z
Pd1 Pd 0.01548(5) 0.35976(3) 0.43026(2)
Cl1 Cl -0.21286(18) 0.28715(11) 0.31757(8)
Cl2 Cl 0.25592(16) 0.41305(10) 0.54245(8)
Si1 Si 0.4359(2) 0.59320(12) 0.15843(9)
Si2 Si 0.1891(3) 0.73648(14) 0.03315(10)
Si3 Si 0.1474(2) 0.94950(12) 0.15520(9)
Si4 Si 0.37223(18) 0.97769(11) 0.33648(8)
O1 O 0.2846(6) 0.6378(3) 0.0850(2)
O2 O 0.1146(6) 0.8291(3) 0.0948(2)
O3 O 0.2945(5) 0.9296(3) 0.2391(2)
N1 N 0.1415(5) 0.4473(3) 0.3557(2)
N2 N -0.1040(5) 0.2649(3) 0.5036(2)
C1 C 0.3156(6) 0.4295(4) 0.3535(3)
H2 H 0.3814 0.3846 0.3931
C2 C 0.4038(7) 0.4737(4) 0.2962(3)
H3 H 0.5268 0.4574 0.2961
C3 C 0.3121(7) 0.5425(4) 0.2382(3)
C4 C 0.1349(7) 0.5647(4) 0.2440(3)
H4 H 0.0689 0.6138 0.2078
C5 C 0.0532(7) 0.5167(4) 0.3014(3)
H5 H -0.0692 0.5325 0.3031
C6 C 0.5404(9) 0.4680(5) 0.1166(4)
H6 H 0.6064 0.4916 0.0748
H7 H 0.4442 0.4070 0.0909
H8 H 0.6262 0.4386 0.1617
C7 C 0.6149(8) 0.7095(5) 0.2074(4)
H9 H 0.6791 0.7353 0.1656
H10 H 0.7026 0.6802 0.2519
H11 H 0.5578 0.7749 0.2307
C8 C -0.030(5) 0.6539(19) -0.035(2)
H12 H -0.1062 0.6226 0.0004
H13 H 0.0041 0.5901 -0.0706
H14 H -0.0991 0.7069 -0.0702
C9 C 0.325(7) 0.809(2) -0.023(2)
H15 H 0.4356 0.8459 0.0150
H16 H 0.2557 0.8674 -0.0517
H17 H 0.3600 0.7529 -0.0641
C10 C -0.0753(9) 0.9816(7) 0.1803(5)
H18 H -0.1221 0.9168 0.2059
H19 H -0.1629 0.9928 0.1292
H20 H -0.0589 1.0522 0.2191
C11 C 0.2453(12) 1.0657(6) 0.1069(4)
H21 H 0.3621 1.0442 0.0943
H22 H 0.2662 1.1371 0.1451
H23 H 0.1602 1.0781 0.0554
C12 C 0.3060(8) 1.1255(4) 0.3586(3)
H24 H 0.3607 1.1778 0.3257
H25 H 0.3501 1.1514 0.4179
H26 H 0.1722 1.1257 0.3441
C13 C 0.6242(7) 0.9758(5) 0.3635(3)
H27 H 0.6792 1.0279 0.3306
H28 H 0.6583 0.8970 0.3516
H29 H 0.6689 1.0017 0.4228
C14 C 0.2663(6) 0.8772(4) 0.3994(3)
C15 C 0.3497(6) 0.7821(4) 0.4315(3)
H30 H 0.4652 0.7643 0.4205
C16 C -0.2665(6) 0.2868(4) 0.5206(3)
H31 H -0.3263 0.3510 0.4995
C17 C -0.0183(7) 0.1757(4) 0.5352(3)
H32 H 0.0989 0.1614 0.5246
C18 C 0.0953(6) 0.8953(4) 0.4174(3)
H33 H 0.0310 0.9581 0.3965
Pd1A Pd -0.01548(5) 0.64024(3) 0.56974(2)
Cl1A Cl 0.21286(18) 0.71285(11) 0.68243(8)
Cl2A Cl -0.25592(16) 0.58695(10) 0.45755(8)
Si1A Si -0.4359(2) 0.40680(12) 0.84157(9)
Si2A Si -0.1891(3) 0.26352(14) 0.96685(10)
Si3A Si -0.1474(2) 0.05050(12) 0.84480(9)
Si4A Si -0.37223(18) 0.02231(11) 0.66352(8)
O1A O -0.2846(6) 0.3622(3) 0.9150(2)
O2A O -0.1146(6) 0.1709(3) 0.9052(2)
O3A O -0.2945(5) 0.0704(3) 0.7609(2)
N1A N -0.1415(5) 0.5527(3) 0.6443(2)
N2A N 0.1040(5) 0.7351(3) 0.4964(2)
C1A C -0.3156(6) 0.5705(4) 0.6465(3)
H2A H -0.3814 0.6154 0.6069
C2A C -0.4038(7) 0.5263(4) 0.7038(3)
H3A H -0.5268 0.5426 0.7039
C3A C -0.3121(7) 0.4575(4) 0.7618(3)
C4A C -0.1349(7) 0.4353(4) 0.7560(3)
H4A H -0.0689 0.3862 0.7922
C5A C -0.0532(7) 0.4833(4) 0.6986(3)
H5A H 0.0692 0.4675 0.6969
C6A C -0.5404(9) 0.5320(5) 0.8834(4)
H6A H -0.6064 0.5084 0.9252
H7A H -0.4442 0.5930 0.9091
H8A H -0.6262 0.5614 0.8383
C7A C -0.6149(8) 0.2905(5) 0.7926(4)
H9A H -0.6791 0.2647 0.8344
H10A H -0.7026 0.3198 0.7481
H11A H -0.5578 0.2251 0.7693
C8A C 0.030(5) 0.3461(19) 1.035(2)
H12A H 0.1062 0.3774 0.9996
H13A H -0.0041 0.4099 1.0706
H14A H 0.0991 0.2931 1.0702
C9A C -0.325(7) 0.191(2) 1.023(2)
H15A H -0.4356 0.1541 0.9850
H16A H -0.2557 0.1326 1.0517
H17A H -0.3600 0.2471 1.0641
C10A C 0.0753(9) 0.0184(7) 0.8197(5)
H18A H 0.1221 0.0832 0.7941
H19A H 0.1629 0.0072 0.8708
H20A H 0.0589 -0.0522 0.7809
C11A C -0.2453(12) -0.0657(6) 0.8931(4)
H21A H -0.3621 -0.0442 0.9057
H22A H -0.2662 -0.1371 0.8549
H23A H -0.1602 -0.0781 0.9446
C12A C -0.3060(8) -0.1255(4) 0.6414(3)
H24A H -0.3607 -0.1778 0.6743
H25A H -0.3501 -0.1514 0.5821
H26A H -0.1722 -0.1257 0.6559
C13A C -0.6242(7) 0.0242(5) 0.6365(3)
H27A H -0.6792 -0.0279 0.6694
H28A H -0.6583 0.1030 0.6484
H29A H -0.6689 -0.0017 0.5772
C14A C -0.2663(6) 0.1228(4) 0.6006(3)
C15A C -0.3497(6) 0.2179(4) 0.5685(3)
H30A H -0.4652 0.2357 0.5795
C16A C 0.2665(6) 0.7132(4) 0.4794(3)
H31A H 0.3263 0.6490 0.5005
C17A C 0.0183(7) 0.8243(4) 0.4648(3)
H32A H -0.0989 0.8386 0.4754
C18A C -0.0953(6) 0.1047(4) 0.5826(3)
H33A H -0.0310 0.0419 0.6035
H1? H 0.0540 0.6917 0.5279
C19? C 0.044(5) 0.686(3) -0.0549(19)
C20? C 0.412(4) 0.817(3) 0.004(3)
H34? H 0.0980 0.7032 -0.1020
H35? H -0.0710 0.7232 -0.0583
H36? H 0.0203 0.6022 -0.0563
H37? H 0.5004 0.8479 0.0547
H38? H 0.3737 0.8813 -0.0289
H39? H 0.4699 0.7620 -0.0292
loop_
_geom_bond_atom_site_label_1
_geom_bond_atom_site_label_2
_geom_bond_site_symmetry_1
_geom_bond_site_symmetry_2
Pd1 Cl1 1_555 1_555
Cl2 Pd1 1_555 1_555
Si1 O1 1_555 1_555
Si2 O1 1_555 1_555
Si3 O2 1_555 1_555
Si4 O3 1_555 1_555
O2 Si2 1_555 1_555
O3 Si3 1_555 1_555
N1 Pd1 1_555 1_555
N2 Pd1 1_555 1_555
C1 N1 1_555 1_555
H2 C1 1_555 1_555
C2 C1 1_555 1_555
H3 C2 1_555 1_555
C3 Si1 1_555 1_555
C4 C3 1_555 1_555
H4 C4 1_555 1_555
C5 N1 1_555 1_555
H5 C5 1_555 1_555
C6 Si1 1_555 1_555
H6 C6 1_555 1_555
H7 C6 1_555 1_555
H8 C6 1_555 1_555
C7 Si1 1_555 1_555
H9 C7 1_555 1_555
H10 C7 1_555 1_555
H11 C7 1_555 1_555
C8 Si2 1_555 1_555
H12 C8 1_555 1_555
H13 C8 1_555 1_555
H14 C8 1_555 1_555
C9 Si2 1_555 1_555
H15 C9 1_555 1_555
H16 C9 1_555 1_555
H17 C9 1_555 1_555
C10 Si3 1_555 1_555
H18 C10 1_555 1_555
H19 C10 1_555 1_555
H20 C10 1_555 1_555
C11 Si3 1_555 1_555
H21 C11 1_555 1_555
H22 C11 1_555 1_555
H23 C11 1_555 1_555
C12 Si4 1_555 1_555
H24 C12 1_555 1_555
H25 C12 1_555 1_555
H26 C12 1_555 1_555
C13 Si4 1_555 1_555
H27 C13 1_555 1_555
H28 C13 1_555 1_555
H29 C13 1_555 1_555
C14 Si4 1_555 1_555
C15 C14 1_555 1_555
H30 C15 1_555 1_555
C16 N2 1_555 1_555
H31 C16 1_555 1_555
C17 N2 1_555 1_555
H32 C17 1_555 1_555
C18 C14 1_555 1_555
H33 C18 1_555 1_555
Pd1A Cl1A 1_555 1_555
Cl2A Pd1A 1_555 1_555
Si1A O1A 1_555 1_555
Si2A O1A 1_555 1_555
Si3A O2A 1_555 1_555
Si4A O3A 1_555 1_555
O2A Si2A 1_555 1_555
O3A Si3A 1_555 1_555
N1A Pd1A 1_555 1_555
N2A Pd1A 1_555 1_555
C1A N1A 1_555 1_555
H2A C1A 1_555 1_555
C2A C1A 1_555 1_555
H3A C2A 1_555 1_555
C3A Si1A 1_555 1_555
C4A C3A 1_555 1_555
H4A C4A 1_555 1_555
C5A N1A 1_555 1_555
H5A C5A 1_555 1_555
C6A Si1A 1_555 1_555
H6A C6A 1_555 1_555
H7A C6A 1_555 1_555
H8A C6A 1_555 1_555
C7A Si1A 1_555 1_555
H9A C7A 1_555 1_555
H10A C7A 1_555 1_555
H11A C7A 1_555 1_555
C8A Si2A 1_555 1_555
H12A C8A 1_555 1_555
H13A C8A 1_555 1_555
H14A C8A 1_555 1_555
C9A Si2A 1_555 1_555
H15A C9A 1_555 1_555
H16A C9A 1_555 1_555
H17A C9A 1_555 1_555
C10A Si3A 1_555 1_555
H18A C10A 1_555 1_555
H19A C10A 1_555 1_555
H20A C10A 1_555 1_555
C11A Si3A 1_555 1_555
H21A C11A 1_555 1_555
H22A C11A 1_555 1_555
H23A C11A 1_555 1_555
C12A Si4A 1_555 1_555
H24A C12A 1_555 1_555
H25A C12A 1_555 1_555
H26A C12A 1_555 1_555
C13A Si4A 1_555 1_555
H27A C13A 1_555 1_555
H28A C13A 1_555 1_555
H29A C13A 1_555 1_555
C14A Si4A 1_555 1_555
C15A C16 1_555 1_555
H30A C15A 1_555 1_555
C16A C15 1_555 1_555
H31A C16A 1_555 1_555
C17A C18 1_555 1_555
H32A C17A 1_555 1_555
C18A C17 1_555 1_555
H33A C18A 1_555 1_555
C2 C3 1_555 1_555
C4 C5 1_555 1_555
N2A C16A 1_555 1_555
N2A C17A 1_555 1_555
C2A C3A 1_555 1_555
C4A C5A 1_555 1_555
C14A C15A 1_555 1_555
C14A C18A 1_555 1_555

#END
