
#######################################################################
#
#                 Cambridge Crystallographic Data Centre
#                                CCDC 
#
#######################################################################
#
# If this CIF has been generated from an entry in the Cambridge 
# Structural Database, then it will include bibliographic, chemical, 
# crystal, experimental, refinement or atomic coordinate data resulting 
# from the CCDC's data processing and validation procedures.
#
#######################################################################

data_SUPGOA
_chemical_formula_moiety         
'C76 H56 Fe4 N28 4+,4(F6 P1 1-),6(C1 H4 O1),4(H2 O1)'
_chemical_name_systematic        
"tetrakis((\m~2~-Cyano)-(2,2-bipyridine)-(2,2'-bipyrimidine))-tetra-iron(ii) tetrakis(hexafluorophosphate) methanol solvate tetrahydrate"
_symmetry_cell_setting           triclinic
_symmetry_space_group_name_H-M   'P -1'
_symmetry_Int_Tables_number      2
_space_group_name_Hall           '-P 1'
loop_
_symmetry_equiv_pos_site_id
_symmetry_equiv_pos_as_xyz
1 x,y,z
2 -x,-y,-z
_cell_length_a                   13.104(4)
_cell_length_b                   13.935(4)
_cell_length_c                   16.130(4)
_cell_angle_alpha                68.671(4)
_cell_angle_beta                 88.352(4)
_cell_angle_gamma                74.264(4)
_cell_volume                     2632.8
_exptl_crystal_colour            orange
_exptl_crystal_description       plate
_cell_formula_units_Z            1
_exptl_crystal_preparation       'magnetic study'
loop_
_atom_site_label
_atom_site_type_symbol
_atom_site_fract_x
_atom_site_fract_y
_atom_site_fract_z
Fe1 Fe 0.48796(6) -0.05628(6) 0.80043(5)
Fe2 Fe 0.69263(6) 0.12693(6) 0.91751(5)
N1 N 0.6121(4) 0.0544(4) 0.8754(3)
N2 N 0.6079(3) 0.1168(3) 1.0195(3)
N3 N 0.5523(4) -0.0143(4) 0.6843(3)
N4 N 0.6178(4) -0.1763(4) 0.8311(3)
N5 N 0.3998(4) -0.1282(4) 0.7599(3)
N6 N 0.3599(4) 0.0648(4) 0.7572(3)
N7 N 0.5950(4) 0.2620(4) 0.8376(3)
N8 N 0.7666(4) 0.1412(4) 0.8087(3)
N9 N 0.7950(3) -0.0072(4) 0.9911(3)
N10 N 0.7806(3) 0.1874(4) 0.9695(3)
N11 N 0.5471(6) 0.3602(6) 0.6837(4)
N12 N 0.7365(7) 0.2311(6) 0.6514(4)
N13 N 0.9172(4) 0.1353(5) 1.0843(4)
N14 N 0.9419(4) -0.0769(4) 1.1006(4)
C1 C 0.5630(4) 0.0160(4) 0.8442(4)
C2 C 0.5681(4) 0.0980(4) 1.0872(4)
C3 C 0.7099(6) 0.2161(6) 0.7345(5)
C4 C 0.8309(9) 0.1644(9) 0.6438(7)
H1 H 0.8547 0.1732 0.5860
C5 C 0.8912(7) 0.0870(8) 0.7148(6)
H2 H 0.9556 0.0404 0.7073
C6 C 0.8588(5) 0.0760(6) 0.7976(5)
H3 H 0.9016 0.0219 0.8485
C7 C 0.6114(5) 0.2842(5) 0.7516(4)
C8 C 0.4596(8) 0.4187(7) 0.7047(6)
H4 H 0.4106 0.4729 0.6579
C9 C 0.4376(6) 0.4035(6) 0.7910(6)
H5 H 0.3753 0.4471 0.8047
C10 C 0.5081(5) 0.3238(5) 0.8567(4)
H6 H 0.4950 0.3121 0.9174
C11 C 0.8660(4) 0.0034(5) 1.0437(4)
C12 C 0.9449(6) -0.1754(6) 1.1056(5)
H7 H 0.9980 -0.2349 1.1447
C13 C 0.8732(5) -0.1937(5) 1.0557(5)
H8 H 0.8756 -0.2643 1.0607
C14 C 0.7998(5) -0.1069(5) 0.9998(5)
H9 H 0.7495 -0.1176 0.9652
C15 C 0.8563(4) 0.1151(5) 1.0326(4)
C16 C 0.9002(5) 0.2376(6) 1.0720(5)
H10 H 0.9419 0.2558 1.1080
C17 C 0.8262(6) 0.3175(6) 1.0107(5)
H11 H 0.8152 0.3902 1.0042
C18 C 0.7670(5) 0.2902(5) 0.9580(4)
H12 H 0.7161 0.3450 0.9130
C19 C 0.2774(5) 0.0434(6) 0.7231(4)
C20 C 0.1701(7) 0.2240(7) 0.6883(6)
H13 H 0.1062 0.2794 0.6634
C21 C 0.2522(6) 0.2437(6) 0.7256(5)
H14 H 0.2460 0.3120 0.7282
C22 C 0.3431(5) 0.1606(5) 0.7586(5)
H15 H 0.3989 0.1742 0.7849
C23 C 0.2987(5) -0.0680(5) 0.7286(4)
C24 C 0.2529(7) -0.2131(7) 0.7138(5)
H16 H 0.2029 -0.2429 0.6979
C25 C 0.3545(7) -0.2752(6) 0.7464(5)
H17 H 0.3748 -0.3490 0.7543
C26 C 0.4276(6) -0.2303(5) 0.7678(5)
H18 H 0.4984 -0.2733 0.7885
C27 C 0.6526(5) -0.0749(6) 0.6832(5)
C28 C 0.6616(8) 0.0299(10) 0.5335(6)
H19 H 0.6989 0.0451 0.4811
C29 C 0.5602(8) 0.0919(7) 0.5319(5)
H20 H 0.5265 0.1505 0.4794
C30 C 0.5090(6) 0.0658(6) 0.6094(5)
H21 H 0.4385 0.1079 0.6090
C31 C 0.6917(5) -0.1634(6) 0.7687(5)
C32 C 0.8212(7) -0.3172(7) 0.8703(6)
H22 H 0.8912 -0.3646 0.8842
C33 C 0.7465(6) -0.3315(6) 0.9316(5)
H23 H 0.7623 -0.3899 0.9875
C34 C 0.6469(5) -0.2572(5) 0.9088(5)
H24 H 0.5960 -0.2650 0.9521
C35 C 0.1821(6) 0.1235(6) 0.6879(5)
H25 H 0.1258 0.1083 0.6637
C36 C 0.2252(6) -0.1101(6) 0.7048(5)
H26 H 0.1553 -0.0658 0.6822
C37 C 0.7098(7) -0.0540(8) 0.6100(6)
H27 H 0.7808 -0.0961 0.6119
C38 C 0.7949(6) -0.2350(7) 0.7895(6)
H28 H 0.8465 -0.2259 0.7468
Fe1A Fe 0.51204(6) 0.05628(6) 1.19957(5)
Fe2A Fe 0.30737(6) -0.12693(6) 1.08249(5)
N1A N 0.3879(4) -0.0544(4) 1.1246(3)
N2A N 0.3921(3) -0.1168(3) 0.9805(3)
N3A N 0.4477(4) 0.0143(4) 1.3157(3)
N4A N 0.3822(4) 0.1763(4) 1.1689(3)
N5A N 0.6002(4) 0.1282(4) 1.2401(3)
N6A N 0.6401(4) -0.0648(4) 1.2428(3)
N7A N 0.4050(4) -0.2620(4) 1.1624(3)
N8A N 0.2334(4) -0.1412(4) 1.1913(3)
N9A N 0.2050(3) 0.0072(4) 1.0089(3)
N10A N 0.2194(3) -0.1874(4) 1.0305(3)
N11A N 0.4529(6) -0.3602(6) 1.3163(4)
N12A N 0.2635(7) -0.2311(6) 1.3486(4)
N13A N 0.0828(4) -0.1353(5) 0.9157(4)
N14A N 0.0581(4) 0.0769(4) 0.8994(4)
C1A C 0.4370(4) -0.0160(4) 1.1558(4)
C2A C 0.4319(4) -0.0980(4) 0.9128(4)
C3A C 0.2901(6) -0.2161(6) 1.2655(5)
C4A C 0.1691(9) -0.1644(9) 1.3562(7)
H1A H 0.1453 -0.1732 1.4140
C5A C 0.1088(7) -0.0870(8) 1.2852(6)
H2A H 0.0444 -0.0404 1.2927
C6A C 0.1412(5) -0.0760(6) 1.2024(5)
H3A H 0.0984 -0.0219 1.1515
C7A C 0.3886(5) -0.2842(5) 1.2484(4)
C8A C 0.5404(8) -0.4187(7) 1.2953(6)
H4A H 0.5894 -0.4729 1.3421
C9A C 0.5624(6) -0.4035(6) 1.2090(6)
H5A H 0.6247 -0.4471 1.1953
C10A C 0.4919(5) -0.3238(5) 1.1433(4)
H6A H 0.5050 -0.3121 1.0826
C11A C 0.1340(4) -0.0034(5) 0.9563(4)
C12A C 0.0551(6) 0.1754(6) 0.8944(5)
H7A H 0.0020 0.2349 0.8553
C13A C 0.1268(5) 0.1937(5) 0.9443(5)
H8A H 0.1244 0.2643 0.9393
C14A C 0.2002(5) 0.1069(5) 1.0002(5)
H9A H 0.2505 0.1176 1.0348
C15A C 0.1437(4) -0.1151(5) 0.9674(4)
C16A C 0.0998(5) -0.2376(6) 0.9280(5)
H10A H 0.0581 -0.2558 0.8920
C17A C 0.1738(6) -0.3175(6) 0.9893(5)
H11A H 0.1848 -0.3902 0.9958
C18A C 0.2330(5) -0.2902(5) 1.0420(4)
H12A H 0.2839 -0.3450 1.0870
C19A C 0.7226(5) -0.0434(6) 1.2769(4)
C20A C 0.8299(7) -0.2240(7) 1.3117(6)
H13A H 0.8938 -0.2794 1.3366
C21A C 0.7478(6) -0.2437(6) 1.2744(5)
H14A H 0.7540 -0.3120 1.2718
C22A C 0.6569(5) -0.1606(5) 1.2414(5)
H15A H 0.6011 -0.1742 1.2151
C23A C 0.7013(5) 0.0680(5) 1.2714(4)
C24A C 0.7471(7) 0.2131(7) 1.2862(5)
H16A H 0.7971 0.2429 1.3021
C25A C 0.6455(7) 0.2752(6) 1.2536(5)
H17A H 0.6252 0.3490 1.2457
C26A C 0.5724(6) 0.2303(5) 1.2322(5)
H18A H 0.5016 0.2733 1.2115
C27A C 0.3474(5) 0.0749(6) 1.3168(5)
C28A C 0.3384(8) -0.0299(10) 1.4665(6)
H19A H 0.3011 -0.0451 1.5189
C29A C 0.4398(8) -0.0919(7) 1.4681(5)
H20A H 0.4735 -0.1505 1.5206
C30A C 0.4910(6) -0.0658(6) 1.3906(5)
H21A H 0.5615 -0.1079 1.3910
C31A C 0.3083(5) 0.1634(6) 1.2313(5)
C32A C 0.1788(7) 0.3172(7) 1.1297(6)
H22A H 0.1088 0.3646 1.1158
C33A C 0.2535(6) 0.3315(6) 1.0684(5)
H23A H 0.2377 0.3899 1.0125
C34A C 0.3531(5) 0.2572(5) 1.0912(5)
H24A H 0.4040 0.2650 1.0479
C35A C 0.8179(6) -0.1235(6) 1.3121(5)
H25A H 0.8742 -0.1083 1.3363
C36A C 0.7748(6) 0.1101(6) 1.2952(5)
H26A H 0.8447 0.0658 1.3178
C37A C 0.2902(7) 0.0540(8) 1.3900(6)
H27A H 0.2192 0.0961 1.3881
C38A C 0.2051(6) 0.2350(7) 1.2105(6)
H28A H 0.1535 0.2259 1.2532
P1 P 0.10286(18) 0.51885(16) 0.79916(15)
F1 F 0.1771(5) 0.5592(5) 0.7282(5)
F2 F 0.1949(4) 0.4114(4) 0.8485(4)
F3 F 0.1380(11) 0.5662(6) 0.8591(6)
F4 F 0.0289(6) 0.4729(5) 0.8682(6)
F5 F 0.0159(5) 0.6219(5) 0.7533(5)
F6 F 0.0772(6) 0.4578(6) 0.7424(6)
P2 P 0.5000 0.5000 1.0000
F7 F 0.3985(3) 0.4899(3) 0.9567(3)
F8 F 0.5540(3) 0.5168(3) 0.9084(3)
F9 F 0.5516(3) 0.3733(3) 1.0317(3)
F7A F 0.6015(3) 0.5101(3) 1.0433(3)
F8A F 0.4460(3) 0.4832(3) 1.0916(3)
F9A F 0.4484(3) 0.6267(3) 0.9683(3)
P3 P 1.0000 0.0000 0.5000
F10 F 1.0480(4) 0.0707(4) 0.5372(3)
F11 F 0.8875(3) 0.0862(4) 0.4802(3)
F12 F 1.0279(4) 0.0603(4) 0.4022(3)
F10A F 0.9520(4) -0.0707(4) 0.4628(3)
F11A F 1.1125(3) -0.0862(4) 0.5198(3)
F12A F 0.9721(4) -0.0603(4) 0.5978(3)
O1 O 0.7137(13) 0.4728(13) 0.7266(8)
C39 C 0.734(2) 0.553(2) 0.7488(14)
H29 H 0.6864 0.5664 0.7940
H30 H 0.7211 0.6189 0.6955
H31 H 0.8079 0.5309 0.7727
O2 O 0.4025(12) 0.6173(10) 0.5099(6)
C40 C 0.297(3) 0.652(4) 0.546(2)
H32 H 0.3033 0.6932 0.5824
H33 H 0.2747 0.5886 0.5824
H34 H 0.2430 0.6971 0.4959
O3 O 0.943(2) 0.4091(16) 0.5221(18)
O4 O 0.8858(14) 0.3726(11) 0.7122(14)
O5 O 0.5997(15) 0.6133(17) 0.5675(15)
C41 C 0.671(3) 0.681(2) 0.5150(19)
H35 H 0.6420 0.7545 0.5119
H36 H 0.6733 0.6797 0.4545
H37 H 0.7426 0.6507 0.5448
loop_
_geom_bond_atom_site_label_1
_geom_bond_atom_site_label_2
_geom_bond_site_symmetry_1
_geom_bond_site_symmetry_2
Fe1 N3 1_555 1_555
Fe2 N1 1_555 1_555
P1 F1 1_555 1_555
P2 F7 1_555 1_555
P3 F10 1_555 1_555
F2 P1 1_555 1_555
F3 P1 1_555 1_555
F4 P1 1_555 1_555
F5 P1 1_555 1_555
F6 P1 1_555 1_555
F8 P2 1_555 1_555
F9 P2 1_555 1_555
F11 P3 1_555 1_555
F12 P3 1_555 1_555
N1 C1 1_555 1_555
N2 Fe2 1_555 1_555
N3 C27 1_555 1_555
N4 Fe1 1_555 1_555
N5 Fe1 1_555 1_555
N6 Fe1 1_555 1_555
N7 Fe2 1_555 1_555
N8 Fe2 1_555 1_555
N9 Fe2 1_555 1_555
N10 Fe2 1_555 1_555
N11 C7 1_555 1_555
N12 C3 1_555 1_555
N13 C15 1_555 1_555
N14 C11 1_555 1_555
C1 Fe1 1_555 1_555
C2 N2 1_555 1_555
C3 N8 1_555 1_555
C4 N12 1_555 1_555
H1 C4 1_555 1_555
C5 C4 1_555 1_555
H2 C5 1_555 1_555
C6 N8 1_555 1_555
H3 C6 1_555 1_555
C7 N7 1_555 1_555
C8 N11 1_555 1_555
H4 C8 1_555 1_555
C9 C8 1_555 1_555
H5 C9 1_555 1_555
C10 N7 1_555 1_555
H6 C10 1_555 1_555
C11 N9 1_555 1_555
C12 N14 1_555 1_555
H7 C12 1_555 1_555
C13 C12 1_555 1_555
H8 C13 1_555 1_555
C14 N9 1_555 1_555
H9 C14 1_555 1_555
C15 N10 1_555 1_555
C16 N13 1_555 1_555
H10 C16 1_555 1_555
C17 C16 1_555 1_555
H11 C17 1_555 1_555
C18 N10 1_555 1_555
H12 C18 1_555 1_555
C19 N6 1_555 1_555
C20 H13 1_555 1_555
C21 C20 1_555 1_555
H14 C21 1_555 1_555
C22 N6 1_555 1_555
H15 C22 1_555 1_555
C23 N5 1_555 1_555
C24 H16 1_555 1_555
C25 C24 1_555 1_555
H17 C25 1_555 1_555
C26 N5 1_555 1_555
H18 C26 1_555 1_555
C27 C31 1_555 1_555
C28 H19 1_555 1_555
C29 C28 1_555 1_555
H20 C29 1_555 1_555
C30 N3 1_555 1_555
H21 C30 1_555 1_555
C31 N4 1_555 1_555
C32 H22 1_555 1_555
C33 C32 1_555 1_555
H23 C33 1_555 1_555
C34 N4 1_555 1_555
H24 C34 1_555 1_555
C35 C19 1_555 1_555
H25 C35 1_555 1_555
C36 C23 1_555 1_555
H26 C36 1_555 1_555
C37 C27 1_555 1_555
H27 C37 1_555 1_555
C38 C31 1_555 1_555
H28 C38 1_555 1_555
O1 C39 1_555 1_555
O2 C40 1_555 1_555
C39 H29 1_555 1_555
H30 C39 1_555 1_555
H31 C39 1_555 1_555
C40 H32 1_555 1_555
H33 C40 1_555 1_555
H34 C40 1_555 1_555
O5 C41 1_555 1_555
C41 H35 1_555 1_555
H36 C41 1_555 1_555
H37 C41 1_555 1_555
Fe1A C2 1_555 1_555
Fe2A N1A 1_555 1_555
F7A P2 1_555 1_555
F8A P2 1_555 1_555
F9A P2 1_555 1_555
F10A P3 1_555 1_555
F11A P3 1_555 1_555
F12A P3 1_555 1_555
N1A C1A 1_555 1_555
N2A Fe2A 1_555 1_555
N3A Fe1A 1_555 1_555
N4A Fe1A 1_555 1_555
N5A Fe1A 1_555 1_555
N6A Fe1A 1_555 1_555
N7A Fe2A 1_555 1_555
N8A Fe2A 1_555 1_555
N9A Fe2A 1_555 1_555
N10A Fe2A 1_555 1_555
N11A C7A 1_555 1_555
N12A C3A 1_555 1_555
N13A C15A 1_555 1_555
N14A C11A 1_555 1_555
C1A Fe1A 1_555 1_555
C2A Fe1 1_555 1_555
C3A N8A 1_555 1_555
C4A N12A 1_555 1_555
H1A C4A 1_555 1_555
C5A C4A 1_555 1_555
H2A C5A 1_555 1_555
C6A N8A 1_555 1_555
H3A C6A 1_555 1_555
C7A N7A 1_555 1_555
C8A N11A 1_555 1_555
H4A C8A 1_555 1_555
C9A C8A 1_555 1_555
H5A C9A 1_555 1_555
C10A N7A 1_555 1_555
H6A C10A 1_555 1_555
C11A N9A 1_555 1_555
C12A N14A 1_555 1_555
H7A C12A 1_555 1_555
C13A C12A 1_555 1_555
H8A C13A 1_555 1_555
C14A N9A 1_555 1_555
H9A C14A 1_555 1_555
C15A N10A 1_555 1_555
C16A N13A 1_555 1_555
H10A C16A 1_555 1_555
C17A C16A 1_555 1_555
H11A C17A 1_555 1_555
C18A N10A 1_555 1_555
H12A C18A 1_555 1_555
C19A N6A 1_555 1_555
C20A H13A 1_555 1_555
C21A C20A 1_555 1_555
H14A C21A 1_555 1_555
C22A N6A 1_555 1_555
H15A C22A 1_555 1_555
C23A N5A 1_555 1_555
C24A H16A 1_555 1_555
C25A C24A 1_555 1_555
H17A C25A 1_555 1_555
C26A N5A 1_555 1_555
H18A C26A 1_555 1_555
C27A N3A 1_555 1_555
C28A H19A 1_555 1_555
C29A C28A 1_555 1_555
H20A C29A 1_555 1_555
C30A N3A 1_555 1_555
H21A C30A 1_555 1_555
C31A N4A 1_555 1_555
C32A H22A 1_555 1_555
C33A C32A 1_555 1_555
H23A C33A 1_555 1_555
C34A N4A 1_555 1_555
H24A C34A 1_555 1_555
C35A C19A 1_555 1_555
H25A C35A 1_555 1_555
C36A C23A 1_555 1_555
H26A C36A 1_555 1_555
C37A C27A 1_555 1_555
H27A C37A 1_555 1_555
C38A C31A 1_555 1_555
H28A C38A 1_555 1_555
C3 C7 1_555 1_555
C5 C6 1_555 1_555
C9 C10 1_555 1_555
C11 C15 1_555 1_555
C13 C14 1_555 1_555
C17 C18 1_555 1_555
C19 C23 1_555 1_555
C20 C35 1_555 1_555
C21 C22 1_555 1_555
C24 C36 1_555 1_555
C25 C26 1_555 1_555
C28 C37 1_555 1_555
C29 C30 1_555 1_555
C32 C38 1_555 1_555
C33 C34 1_555 1_555
N2A C2A 1_555 1_555
C3A C7A 1_555 1_555
C5A C6A 1_555 1_555
C9A C10A 1_555 1_555
C11A C15A 1_555 1_555
C13A C14A 1_555 1_555
C17A C18A 1_555 1_555
C19A C23A 1_555 1_555
C20A C35A 1_555 1_555
C21A C22A 1_555 1_555
C24A C36A 1_555 1_555
C25A C26A 1_555 1_555
C27A C31A 1_555 1_555
C28A C37A 1_555 1_555
C29A C30A 1_555 1_555
C32A C38A 1_555 1_555
C33A C34A 1_555 1_555

#END
