
#######################################################################
#
#                 Cambridge Crystallographic Data Centre
#                                CCDC 
#
#######################################################################
#
# If this CIF has been generated from an entry in the Cambridge 
# Structural Database, then it will include bibliographic, chemical, 
# crystal, experimental, refinement or atomic coordinate data resulting 
# from the CCDC's data processing and validation procedures.
#
#######################################################################

data_SUPHOB
_chemical_name_common            
"bis(mu!2$-(R)-2,2'-(1,1'-Binaphthalene-2,2'-diylbis(nitrilomethylylidene))diphenolato)-bis(mu!2$-methoxo)-di-iron(iii) diethyl ether solvate dihydrate"
_chemical_formula_moiety         'C70 H50 Fe2 N4 O6,2(C4 H10 O1),2(H2 O1)'
_chemical_name_systematic        
"\L,\L-bis(\m~2~-(R)-(2-(((2'-((2-(hydroxy-1\kO)benzylidene)amino-1\kN)-1,1'-binaphthalen-2-yl)imino-2\kN)methyl)phenolato-2\kO))-bis(\m~2~-methanolato-2\k^2^)-di-iron(iii) diethyl ether solvate dihydrate"
_symmetry_cell_setting           tetragonal
_symmetry_space_group_name_H-M   'P 41 21 2'
_symmetry_Int_Tables_number      92
_space_group_name_Hall           'P 4abw 2nw'
loop_
_symmetry_equiv_pos_site_id
_symmetry_equiv_pos_as_xyz
1 x,y,z
2 -x,-y,1/2+z
3 1/2+x,1/2-y,3/4-z
4 1/2-x,1/2+y,1/4-z
5 -y,-x,1/2-z
6 y,x,-z
7 1/2+y,1/2-x,3/4+z
8 1/2-y,1/2+x,1/4+z
_cell_length_a                   13.597(4)
_cell_length_b                   13.597(4)
_cell_length_c                   37.891(15)
_cell_angle_alpha                90
_cell_angle_beta                 90
_cell_angle_gamma                90
_cell_volume                     7005.23
_exptl_crystal_colour            brown
_exptl_crystal_description       prism
_cell_formula_units_Z            4
_exptl_crystal_recrystallization_method 'diethyl ether /methanol'
_exptl_crystal_preparation       'magnetic properties'
loop_
_atom_site_label
_atom_site_type_symbol
_atom_site_fract_x
_atom_site_fract_y
_atom_site_fract_z
C1 C 0.5823(3) 0.1685(3) -0.01209(10)
C2 C 0.4860(3) 0.1625(3) -0.02152(11)
C3 C 0.4568(4) 0.1298(3) -0.05539(11)
H1 H 0.3905 0.1276 -0.0614
C4 C 0.5257(4) 0.1018(3) -0.07875(11)
H2 H 0.5062 0.0788 -0.1008
C5 C 0.6262(3) 0.1064(3) -0.07076(12)
C6 C 0.6564(3) 0.1385(3) -0.03747(11)
C7 C 0.7578(4) 0.1418(4) -0.02930(12)
H3 H 0.7784 0.1637 -0.0073
C8 C 0.8252(4) 0.1126(4) -0.05374(13)
H4 H 0.8915 0.1113 -0.0478
C9 C 0.7960(4) 0.0849(4) -0.08749(13)
H5 H 0.8432 0.0696 -0.1044
C10 C 0.6997(4) 0.0801(4) -0.09587(12)
H6 H 0.6810 0.0593 -0.1183
C11 C 0.6101(3) 0.2085(3) 0.02343(11)
C12 C 0.6151(3) 0.3065(3) 0.02971(10)
C13 C 0.6312(3) 0.3412(4) 0.06422(11)
H7 H 0.6313 0.4087 0.0683
C14 C 0.6466(4) 0.2798(5) 0.09163(12)
H8 H 0.6592 0.3053 0.1139
C15 C 0.6437(4) 0.1768(5) 0.08658(12)
C16 C 0.6272(3) 0.1411(4) 0.05217(12)
C17 C 0.6270(4) 0.0372(4) 0.04703(14)
H9 H 0.6180 0.0114 0.0245
C18 C 0.6398(5) -0.0241(5) 0.07489(15)
H10 H 0.6392 -0.0919 0.0715
C19 C 0.6544(4) 0.0158(6) 0.11013(16)
H11 H 0.6611 -0.0264 0.1293
C20 C 0.6584(4) 0.1145(6) 0.11506(14)
H12 H 0.6708 0.1402 0.1374
C21 C 0.2486(3) 0.1771(4) 0.05881(12)
C22 C 0.3223(3) 0.1057(3) 0.05336(10)
C23 C 0.3234(4) 0.0225(4) 0.07482(12)
H13 H 0.3725 -0.0241 0.0714
C24 C 0.2559(4) 0.0065(4) 0.10050(13)
H14 H 0.2579 -0.0504 0.1141
C25 C 0.1840(4) 0.0766(4) 0.10607(13)
H15 H 0.1372 0.0673 0.1237
C26 C 0.1817(4) 0.1590(4) 0.08583(13)
H16 H 0.1331 0.2055 0.0902
C27 C 0.6191(3) 0.5194(3) -0.05877(12)
C28 C 0.6821(3) 0.4392(3) -0.05205(11)
C29 C 0.7594(4) 0.4212(4) -0.07564(12)
H17 H 0.7996 0.3671 -0.0714
C30 C 0.7790(3) 0.4769(4) -0.10366(12)
H18 H 0.8320 0.4629 -0.1183
C31 C 0.7173(4) 0.5568(4) -0.11031(13)
H19 H 0.7292 0.5962 -0.1299
C32 C 0.6407(4) 0.5784(4) -0.08886(12)
H20 H 0.6015 0.6327 -0.0938
C33 C 0.3950(3) 0.1124(3) 0.02621(11)
H21 H 0.4382 0.0595 0.0244
C34 C 0.6718(3) 0.3760(3) -0.02144(11)
H22 H 0.7213 0.3296 -0.0181
N1 N 0.4082(2) 0.1830(2) 0.00382(9)
N2 N 0.6021(2) 0.3765(2) 0.00172(9)
O1 O 0.2398(2) 0.2556(2) 0.03859(9)
O2 O 0.5461(2) 0.5429(2) -0.03846(8)
C35 C 0.4020(5) 0.3842(4) -0.06869(10)
H23 H 0.4103 0.4486 -0.0787
H24 H 0.3418 0.3560 -0.0772
H25 H 0.4563 0.3432 -0.0755
O3 O 0.3984(2) 0.3916(2) -0.03141(6)
Fe1 Fe 0.31163(4) 0.31163(4) 0.0000
Fe2 Fe 0.47777(4) 0.47777(4) 0.0000
C1E C 0.1685(3) 0.5823(3) 0.01209(10)
C2E C 0.1625(3) 0.4860(3) 0.02152(11)
C3E C 0.1298(3) 0.4568(4) 0.05539(11)
H1E H 0.1276 0.3905 0.0614
C4E C 0.1018(3) 0.5257(4) 0.07875(11)
H2E H 0.0788 0.5062 0.1008
C5E C 0.1064(3) 0.6262(3) 0.07076(12)
C6E C 0.1385(3) 0.6564(3) 0.03747(11)
C7E C 0.1418(4) 0.7578(4) 0.02930(12)
H3E H 0.1637 0.7784 0.0073
C8E C 0.1126(4) 0.8252(4) 0.05374(13)
H4E H 0.1113 0.8915 0.0478
C9E C 0.0849(4) 0.7960(4) 0.08749(13)
H5E H 0.0696 0.8432 0.1044
C10E C 0.0801(4) 0.6997(4) 0.09587(12)
H6E H 0.0593 0.6810 0.1183
C11E C 0.2085(3) 0.6101(3) -0.02343(11)
C12E C 0.3065(3) 0.6151(3) -0.02971(10)
C13E C 0.3412(4) 0.6312(3) -0.06422(11)
H7E H 0.4087 0.6313 -0.0683
C14E C 0.2798(5) 0.6466(4) -0.09163(12)
H8E H 0.3053 0.6592 -0.1139
C15E C 0.1768(5) 0.6437(4) -0.08658(12)
C16E C 0.1411(4) 0.6272(3) -0.05217(12)
C17E C 0.0372(4) 0.6270(4) -0.04703(14)
H9E H 0.0114 0.6180 -0.0245
C18E C -0.0241(5) 0.6398(5) -0.07489(15)
H10E H -0.0919 0.6392 -0.0715
C19E C 0.0158(6) 0.6544(4) -0.11013(16)
H11E H -0.0264 0.6611 -0.1293
C20E C 0.1145(6) 0.6584(4) -0.11506(14)
H12E H 0.1402 0.6708 -0.1374
C21E C 0.1771(4) 0.2486(3) -0.05881(12)
C22E C 0.1057(3) 0.3223(3) -0.05336(10)
C23E C 0.0225(4) 0.3234(4) -0.07482(12)
H13E H -0.0241 0.3725 -0.0714
C24E C 0.0065(4) 0.2559(4) -0.10050(13)
H14E H -0.0504 0.2579 -0.1141
C25E C 0.0766(4) 0.1840(4) -0.10607(13)
H15E H 0.0673 0.1372 -0.1237
C26E C 0.1590(4) 0.1817(4) -0.08583(13)
H16E H 0.2055 0.1331 -0.0902
C27E C 0.5194(3) 0.6191(3) 0.05877(12)
C28E C 0.4392(3) 0.6821(3) 0.05205(11)
C29E C 0.4212(4) 0.7594(4) 0.07564(12)
H17E H 0.3671 0.7996 0.0714
C30E C 0.4769(4) 0.7790(3) 0.10366(12)
H18E H 0.4629 0.8320 0.1183
C31E C 0.5568(4) 0.7173(4) 0.11031(13)
H19E H 0.5962 0.7292 0.1299
C32E C 0.5784(4) 0.6407(4) 0.08886(12)
H20E H 0.6327 0.6015 0.0938
C33E C 0.1124(3) 0.3950(3) -0.02621(11)
H21E H 0.0595 0.4382 -0.0244
C34E C 0.3760(3) 0.6718(3) 0.02144(11)
H22E H 0.3296 0.7213 0.0181
N1E N 0.1830(2) 0.4082(2) -0.00382(9)
N2E N 0.3765(2) 0.6021(2) -0.00172(9)
O1E O 0.2556(2) 0.2398(2) -0.03859(9)
O2E O 0.5429(2) 0.5461(2) 0.03846(8)
C35E C 0.3842(4) 0.4020(5) 0.06869(10)
H23E H 0.4486 0.4103 0.0787
H24E H 0.3560 0.3418 0.0772
H25E H 0.3432 0.4563 0.0755
O3E O 0.3916(2) 0.3984(2) 0.03141(6)
C36 C -0.041(2) 0.8864(17) -0.0425(11)
H26 H -0.0935 0.9330 -0.0391
H27 H -0.0392 0.8420 -0.0228
H28 H -0.0530 0.8499 -0.0638
C37 C 0.0539(15) 0.9393(13) -0.0453(6)
H29 H 0.0494 0.9870 -0.0263
H30 H 0.0456 0.9773 -0.0668
O4 O 0.1674(9) 0.9142(7) -0.0459(2)
C38 C 0.2689(19) 0.9461(14) -0.0284(4)
H31 H 0.2827 1.0100 -0.0386
H32 H 0.2522 0.9587 -0.0039
C39 C 0.3642(13) 0.8984(9) -0.0266(6)
H33 H 0.3600 0.8342 -0.0370
H34 H 0.3842 0.8925 -0.0024
H35 H 0.4117 0.9371 -0.0393
O5 O 0.8191(11) 0.637(2) 0.0309(3)
O6? O 0.7761(14) 0.697(2) 0.0040(8)
loop_
_geom_bond_atom_site_label_1
_geom_bond_atom_site_label_2
_geom_bond_site_symmetry_1
_geom_bond_site_symmetry_2
C1 C2 1_555 1_555
C2 C3 1_555 1_555
C3 H1 1_555 1_555
C4 C3 1_555 1_555
H2 C4 1_555 1_555
C5 C4 1_555 1_555
C6 C1 1_555 1_555
C7 C6 1_555 1_555
H3 C7 1_555 1_555
C8 C7 1_555 1_555
H4 C8 1_555 1_555
C9 C8 1_555 1_555
H5 C9 1_555 1_555
C10 C5 1_555 1_555
H6 C10 1_555 1_555
C11 C1 1_555 1_555
C12 C11 1_555 1_555
C13 C12 1_555 1_555
H7 C13 1_555 1_555
C14 C13 1_555 1_555
H8 C14 1_555 1_555
C15 C14 1_555 1_555
C16 C11 1_555 1_555
C17 C16 1_555 1_555
H9 C17 1_555 1_555
C18 C17 1_555 1_555
H10 C18 1_555 1_555
C19 C18 1_555 1_555
H11 C19 1_555 1_555
C20 C15 1_555 1_555
H12 C20 1_555 1_555
C21 C22 1_555 1_555
C22 C23 1_555 1_555
C23 H13 1_555 1_555
C24 C23 1_555 1_555
H14 C24 1_555 1_555
C25 C24 1_555 1_555
H15 C25 1_555 1_555
C26 C21 1_555 1_555
H16 C26 1_555 1_555
C27 C28 1_555 1_555
C28 C29 1_555 1_555
C29 H17 1_555 1_555
C30 C29 1_555 1_555
H18 C30 1_555 1_555
C31 C30 1_555 1_555
H19 C31 1_555 1_555
C32 C27 1_555 1_555
H20 C32 1_555 1_555
C33 C22 1_555 1_555
H21 C33 1_555 1_555
C34 C28 1_555 1_555
H22 C34 1_555 1_555
N1 C2 1_555 1_555
N2 C12 1_555 1_555
O1 C21 1_555 1_555
O2 C27 1_555 1_555
C35 H23 1_555 1_555
H24 C35 1_555 1_555
H25 C35 1_555 1_555
O3 C35 1_555 1_555
C36 H26 1_555 1_555
H27 C36 1_555 1_555
H28 C36 1_555 1_555
C37 C36 1_555 1_555
H29 C37 1_555 1_555
H30 C37 1_555 1_555
O4 C37 1_555 1_555
C38 O4 1_555 1_555
H31 C38 1_555 1_555
H32 C38 1_555 1_555
C39 C38 1_555 1_555
H33 C39 1_555 1_555
H34 C39 1_555 1_555
H35 C39 1_555 1_555
Fe1 N1 1_555 1_555
Fe2 N2 1_555 1_555
C1E C2E 1_555 1_555
C2E C3E 1_555 1_555
C3E H1E 1_555 1_555
C4E C3E 1_555 1_555
H2E C4E 1_555 1_555
C5E C4E 1_555 1_555
C6E C1E 1_555 1_555
C7E C6E 1_555 1_555
H3E C7E 1_555 1_555
C8E C7E 1_555 1_555
H4E C8E 1_555 1_555
C9E C8E 1_555 1_555
H5E C9E 1_555 1_555
C10E C5E 1_555 1_555
H6E C10E 1_555 1_555
C11E C1E 1_555 1_555
C12E C11E 1_555 1_555
C13E C12E 1_555 1_555
H7E C13E 1_555 1_555
C14E C13E 1_555 1_555
H8E C14E 1_555 1_555
C15E C14E 1_555 1_555
C16E C11E 1_555 1_555
C17E C16E 1_555 1_555
H9E C17E 1_555 1_555
C18E C17E 1_555 1_555
H10E C18E 1_555 1_555
C19E C18E 1_555 1_555
H11E C19E 1_555 1_555
C20E C15E 1_555 1_555
H12E C20E 1_555 1_555
C21E C22E 1_555 1_555
C22E C23E 1_555 1_555
C23E H13E 1_555 1_555
C24E C23E 1_555 1_555
H14E C24E 1_555 1_555
C25E C24E 1_555 1_555
H15E C25E 1_555 1_555
C26E C21E 1_555 1_555
H16E C26E 1_555 1_555
C27E C28E 1_555 1_555
C28E C29E 1_555 1_555
C29E H17E 1_555 1_555
C30E C29E 1_555 1_555
H18E C30E 1_555 1_555
C31E C30E 1_555 1_555
H19E C31E 1_555 1_555
C32E C27E 1_555 1_555
H20E C32E 1_555 1_555
C33E C22E 1_555 1_555
H21E C33E 1_555 1_555
C34E C28E 1_555 1_555
H22E C34E 1_555 1_555
N1E Fe1 1_555 1_555
N2E Fe2 1_555 1_555
O1E Fe1 1_555 1_555
O2E Fe2 1_555 1_555
C35E H23E 1_555 1_555
H24E C35E 1_555 1_555
H25E C35E 1_555 1_555
O3E Fe1 1_555 1_555
C5 C6 1_555 1_555
C9 C10 1_555 1_555
C15 C16 1_555 1_555
C19 C20 1_555 1_555
C25 C26 1_555 1_555
C31 C32 1_555 1_555
C33 N1 1_555 1_555
C34 N2 1_555 1_555
O1 Fe1 1_555 1_555
O2 Fe2 1_555 1_555
O3 Fe1 1_555 1_555
O3 Fe2 1_555 1_555
Fe2 O3E 1_555 1_555
C2E N1E 1_555 1_555
C5E C6E 1_555 1_555
C9E C10E 1_555 1_555
C12E N2E 1_555 1_555
C15E C16E 1_555 1_555
C19E C20E 1_555 1_555
C21E O1E 1_555 1_555
C25E C26E 1_555 1_555
C27E O2E 1_555 1_555
C31E C32E 1_555 1_555
C33E N1E 1_555 1_555
C34E N2E 1_555 1_555
C35E O3E 1_555 1_555

#END
