# generated using pymatgen
data_Mn4B4P4H98C108N40OF24
_symmetry_space_group_name_H-M   'P 1'
_cell_length_a   20.35200000
_cell_length_b   21.77800000
_cell_length_c   28.89800000
_cell_angle_alpha   103.83000000
_cell_angle_beta   90.00000000
_cell_angle_gamma   90.00000000
_symmetry_Int_Tables_number   1
_chemical_formula_structural   Mn4B4P4H98C108N40OF24
_chemical_formula_sum   'Mn16 B16 P16 H392 C432 N160 O4 F96'
_cell_volume   12437.01739343
_cell_formula_units_Z   4
loop_
 _symmetry_equiv_pos_site_id
 _symmetry_equiv_pos_as_xyz
  1  'x, y, z'
loop_
 _atom_site_type_symbol
 _atom_site_label
 _atom_site_symmetry_multiplicity
 _atom_site_fract_x
 _atom_site_fract_y
 _atom_site_fract_z
 _atom_site_occupancy
  Mn  Mn1  1  0.943490  0.705890  0.866210  1
  Mn  Mn2  1  0.443490  0.794110  0.633790  1
  Mn  Mn3  1  0.056510  0.294110  0.133790  1
  Mn  Mn4  1  0.556510  0.205890  0.366210  1
  Mn  Mn5  1  0.724230  0.605400  0.978590  1
  Mn  Mn6  1  0.224230  0.894600  0.521410  1
  Mn  Mn7  1  0.275770  0.394600  0.021410  1
  Mn  Mn8  1  0.775770  0.105400  0.478590  1
  Mn  Mn9  1  0.750630  0.893700  0.998680  1
  Mn  Mn10  1  0.250630  0.606300  0.501320  1
  Mn  Mn11  1  0.249370  0.106300  0.001320  1
  Mn  Mn12  1  0.749370  0.393700  0.498680  1
  Mn  Mn13  1  0.968380  0.751060  0.085150  1
  Mn  Mn14  1  0.468380  0.748940  0.414850  1
  Mn  Mn15  1  0.031620  0.248940  0.914850  1
  Mn  Mn16  1  0.531620  0.251060  0.585150  1
  B  B17  1  0.764700  0.730300  0.910500  1
  B  B18  1  0.264700  0.769700  0.589500  1
  B  B19  1  0.235300  0.269700  0.089500  1
  B  B20  1  0.735300  0.230300  0.410500  1
  B  B21  1  0.783000  0.762200  0.063900  1
  B  B22  1  0.283000  0.737800  0.436100  1
  B  B23  1  0.217000  0.237800  0.936100  1
  B  B24  1  0.717000  0.262200  0.563900  1
  B  B25  1  0.929200  0.834800  0.983100  1
  B  B26  1  0.429200  0.665200  0.516900  1
  B  B27  1  0.070800  0.165200  0.016900  1
  B  B28  1  0.570800  0.334800  0.483100  1
  B  B29  1  0.911900  0.631100  0.972800  1
  B  B30  1  0.411900  0.868900  0.527200  1
  B  B31  1  0.088100  0.368900  0.027200  1
  B  B32  1  0.588100  0.131100  0.472800  1
  P  P33  1  0.236640  0.525560  0.770880  1
  P  P34  1  0.736640  0.974440  0.729120  1
  P  P35  1  0.763360  0.474440  0.229120  1
  P  P36  1  0.263360  0.025560  0.270880  1
  P  P37  1  0.583420  0.615740  0.757090  1
  P  P38  1  0.083420  0.884260  0.742910  1
  P  P39  1  0.416580  0.384260  0.242910  1
  P  P40  1  0.916580  0.115740  0.257090  1
  P  P41  1  0.849200  0.327330  0.738910  1
  P  P42  1  0.349200  0.172670  0.761090  1
  P  P43  1  0.150800  0.672670  0.261090  1
  P  P44  1  0.650800  0.827330  0.238910  1
  P  P45  1  0.344260  0.772890  0.946650  1
  P  P46  1  0.844260  0.727110  0.553350  1
  P  P47  1  0.655740  0.227110  0.053350  1
  P  P48  1  0.155740  0.272890  0.446650  1
  H  H49  1  0.794700  0.733900  0.937500  1
  H  H50  1  0.294700  0.766100  0.562500  1
  H  H51  1  0.205300  0.266100  0.062500  1
  H  H52  1  0.705300  0.233900  0.437500  1
  H  H53  1  0.696400  0.635600  0.840600  1
  H  H54  1  0.196400  0.864400  0.659400  1
  H  H55  1  0.303600  0.364400  0.159400  1
  H  H56  1  0.803600  0.135600  0.340600  1
  H  H57  1  0.761800  0.559400  0.782300  1
  H  H58  1  0.261800  0.940600  0.717700  1
  H  H59  1  0.238200  0.440600  0.217700  1
  H  H60  1  0.738200  0.059400  0.282300  1
  H  H61  1  0.863300  0.499800  0.753500  1
  H  H62  1  0.363300  0.000200  0.746500  1
  H  H63  1  0.136700  0.500200  0.246500  1
  H  H64  1  0.636700  0.999800  0.253500  1
  H  H65  1  0.963100  0.453500  0.725300  1
  H  H66  1  0.463100  0.046500  0.774700  1
  H  H67  1  0.036900  0.546500  0.274700  1
  H  H68  1  0.536900  0.953500  0.225300  1
  H  H69  1  0.059900  0.504200  0.753300  1
  H  H70  1  0.559900  0.995800  0.746700  1
  H  H71  1  0.940100  0.495800  0.246700  1
  H  H72  1  0.440100  0.004200  0.253300  1
  H  H73  1  0.055700  0.599800  0.806100  1
  H  H74  1  0.555700  0.900200  0.693900  1
  H  H75  1  0.944300  0.400200  0.193900  1
  H  H76  1  0.444300  0.099800  0.306100  1
  H  H77  1  0.637200  0.774700  0.890800  1
  H  H78  1  0.137200  0.725300  0.609200  1
  H  H79  1  0.362800  0.225300  0.109200  1
  H  H80  1  0.862800  0.274700  0.390800  1
  H  H81  1  0.539900  0.734200  0.926700  1
  H  H82  1  0.039900  0.765800  0.573300  1
  H  H83  1  0.460100  0.265800  0.073300  1
  H  H84  1  0.960100  0.234200  0.426700  1
  H  H85  1  0.483400  0.681600  0.981100  1
  H  H86  1  0.983400  0.818400  0.518900  1
  H  H87  1  0.516600  0.318400  0.018900  1
  H  H88  1  0.016600  0.181600  0.481100  1
  H  H89  1  0.435200  0.620900  0.026800  1
  H  H90  1  0.935200  0.879100  0.473200  1
  H  H91  1  0.564800  0.379100  0.973200  1
  H  H92  1  0.064800  0.120900  0.526800  1
  H  H93  1  0.499400  0.555300  0.060700  1
  H  H94  1  0.999400  0.944700  0.439300  1
  H  H95  1  0.500600  0.444700  0.939300  1
  H  H96  1  0.000600  0.055300  0.560700  1
  H  H97  1  0.610500  0.551300  0.046200  1
  H  H98  1  0.110500  0.948700  0.453800  1
  H  H99  1  0.389500  0.448700  0.953800  1
  H  H100  1  0.889500  0.051300  0.546200  1
  H  H101  1  0.756200  0.761300  0.819100  1
  H  H102  1  0.256200  0.738700  0.680900  1
  H  H103  1  0.243800  0.238700  0.180900  1
  H  H104  1  0.743800  0.261300  0.319100  1
  H  H105  1  0.750300  0.874300  0.818400  1
  H  H106  1  0.250300  0.625700  0.681600  1
  H  H107  1  0.249700  0.125700  0.181600  1
  H  H108  1  0.749700  0.374300  0.318400  1
  H  H109  1  0.765900  0.987200  0.851800  1
  H  H110  1  0.265900  0.512800  0.648200  1
  H  H111  1  0.234100  0.012800  0.148200  1
  H  H112  1  0.734100  0.487200  0.351800  1
  H  H113  1  0.766100  0.094600  0.888200  1
  H  H114  1  0.266100  0.405400  0.611800  1
  H  H115  1  0.233900  0.905400  0.111800  1
  H  H116  1  0.733900  0.594600  0.388200  1
  H  H117  1  0.763200  0.126100  0.970500  1
  H  H118  1  0.263200  0.373900  0.529500  1
  H  H119  1  0.236800  0.873900  0.029500  1
  H  H120  1  0.736800  0.626100  0.470500  1
  H  H121  1  0.764200  0.052000  0.014300  1
  H  H122  1  0.264200  0.448000  0.485700  1
  H  H123  1  0.235800  0.948000  0.985700  1
  H  H124  1  0.735800  0.552000  0.514300  1
  H  H125  1  0.807100  0.754500  0.033700  1
  H  H126  1  0.307100  0.745500  0.466300  1
  H  H127  1  0.192900  0.245500  0.966300  1
  H  H128  1  0.692900  0.254500  0.533700  1
  H  H129  1  0.792900  0.727900  0.154000  1
  H  H130  1  0.292900  0.772100  0.346000  1
  H  H131  1  0.207100  0.272100  0.846000  1
  H  H132  1  0.707100  0.227900  0.654000  1
  H  H133  1  0.772200  0.616500  0.154800  1
  H  H134  1  0.272200  0.883500  0.345200  1
  H  H135  1  0.227800  0.383500  0.845200  1
  H  H136  1  0.727800  0.116500  0.654800  1
  H  H137  1  0.750000  0.506300  0.121700  1
  H  H138  1  0.250000  0.993700  0.378300  1
  H  H139  1  0.250000  0.493700  0.878300  1
  H  H140  1  0.750000  0.006300  0.621700  1
  H  H141  1  0.721300  0.402700  0.087100  1
  H  H142  1  0.221300  0.097300  0.412900  1
  H  H143  1  0.278700  0.597300  0.912900  1
  H  H144  1  0.778700  0.902700  0.587100  1
  H  H145  1  0.701500  0.372600  0.006200  1
  H  H146  1  0.201500  0.127400  0.493800  1
  H  H147  1  0.298500  0.627400  0.993800  1
  H  H148  1  0.798500  0.872600  0.506200  1
  H  H149  1  0.709900  0.446700  0.961800  1
  H  H150  1  0.209900  0.053300  0.538200  1
  H  H151  1  0.290100  0.553300  0.038200  1
  H  H152  1  0.790100  0.946700  0.461800  1
  H  H153  1  0.654500  0.743600  0.100400  1
  H  H154  1  0.154500  0.756400  0.399600  1
  H  H155  1  0.345500  0.256400  0.899600  1
  H  H156  1  0.845500  0.243600  0.600400  1
  H  H157  1  0.561000  0.797800  0.073000  1
  H  H158  1  0.061000  0.702200  0.427000  1
  H  H159  1  0.439000  0.202200  0.927000  1
  H  H160  1  0.939000  0.297800  0.573000  1
  H  H161  1  0.504000  0.846100  0.014200  1
  H  H162  1  0.004000  0.653900  0.485800  1
  H  H163  1  0.496000  0.153900  0.985800  1
  H  H164  1  0.996000  0.346100  0.514200  1
  H  H165  1  0.457600  0.907500  0.967700  1
  H  H166  1  0.957600  0.592500  0.532300  1
  H  H167  1  0.542400  0.092500  0.032300  1
  H  H168  1  0.042400  0.407500  0.467700  1
  H  H169  1  0.525300  0.968200  0.931900  1
  H  H170  1  0.025300  0.531800  0.568100  1
  H  H171  1  0.474700  0.031800  0.068100  1
  H  H172  1  0.974700  0.468200  0.431900  1
  H  H173  1  0.636500  0.965900  0.943500  1
  H  H174  1  0.136500  0.534100  0.556500  1
  H  H175  1  0.363500  0.034100  0.056500  1
  H  H176  1  0.863500  0.465900  0.443500  1
  H  H177  1  0.745200  0.867000  0.141400  1
  H  H178  1  0.245200  0.633000  0.358600  1
  H  H179  1  0.254800  0.133000  0.858600  1
  H  H180  1  0.754800  0.367000  0.641400  1
  H  H181  1  0.833600  0.927600  0.190000  1
  H  H182  1  0.333600  0.572400  0.310000  1
  H  H183  1  0.166400  0.072400  0.810000  1
  H  H184  1  0.666400  0.427600  0.690000  1
  H  H185  1  0.948400  0.965800  0.205100  1
  H  H186  1  0.448400  0.534200  0.294900  1
  H  H187  1  0.051600  0.034200  0.794900  1
  H  H188  1  0.551600  0.465800  0.705100  1
  H  H189  1  0.057700  0.988800  0.223400  1
  H  H190  1  0.557700  0.511200  0.276600  1
  H  H191  1  0.942300  0.011200  0.776600  1
  H  H192  1  0.442300  0.488800  0.723400  1
  H  H193  1  0.137100  0.919800  0.186500  1
  H  H194  1  0.637100  0.580200  0.313500  1
  H  H195  1  0.862900  0.080200  0.813500  1
  H  H196  1  0.362900  0.419800  0.686500  1
  H  H197  1  0.106800  0.828200  0.133000  1
  H  H198  1  0.606800  0.671800  0.367000  1
  H  H199  1  0.893200  0.171800  0.867000  1
  H  H200  1  0.393200  0.328200  0.633000  1
  H  H201  1  0.898100  0.800500  0.983300  1
  H  H202  1  0.398100  0.699500  0.516700  1
  H  H203  1  0.101900  0.199500  0.016700  1
  H  H204  1  0.601900  0.300500  0.483300  1
  H  H205  1  0.000200  0.931900  0.050100  1
  H  H206  1  0.500200  0.568100  0.449900  1
  H  H207  1  0.999800  0.068100  0.949900  1
  H  H208  1  0.499800  0.431900  0.550100  1
  H  H209  1  0.935100  0.013900  0.104800  1
  H  H210  1  0.435100  0.486100  0.395200  1
  H  H211  1  0.064900  0.986100  0.895200  1
  H  H212  1  0.564900  0.513900  0.604800  1
  H  H213  1  0.833500  0.059600  0.146200  1
  H  H214  1  0.333500  0.440400  0.353800  1
  H  H215  1  0.166500  0.940400  0.853800  1
  H  H216  1  0.666500  0.559600  0.646200  1
  H  H217  1  0.733700  0.099700  0.179400  1
  H  H218  1  0.233700  0.400300  0.320600  1
  H  H219  1  0.266300  0.900300  0.820600  1
  H  H220  1  0.766300  0.599700  0.679400  1
  H  H221  1  0.637300  0.059300  0.143200  1
  H  H222  1  0.137300  0.440700  0.356800  1
  H  H223  1  0.362700  0.940700  0.856800  1
  H  H224  1  0.862700  0.559300  0.643200  1
  H  H225  1  0.641300  0.980000  0.074900  1
  H  H226  1  0.141300  0.520000  0.425100  1
  H  H227  1  0.358700  0.020000  0.925100  1
  H  H228  1  0.858700  0.480000  0.574900  1
  H  H229  1  0.058500  0.851500  0.946200  1
  H  H230  1  0.558500  0.648500  0.553800  1
  H  H231  1  0.941500  0.148500  0.053800  1
  H  H232  1  0.441500  0.351500  0.446200  1
  H  H233  1  0.152800  0.802800  0.978300  1
  H  H234  1  0.652800  0.697200  0.521700  1
  H  H235  1  0.847200  0.197200  0.021700  1
  H  H236  1  0.347200  0.302800  0.478300  1
  H  H237  1  0.207700  0.740300  0.026500  1
  H  H238  1  0.707700  0.759700  0.473500  1
  H  H239  1  0.792300  0.259700  0.973500  1
  H  H240  1  0.292300  0.240300  0.526500  1
  H  H241  1  0.254700  0.685700  0.077400  1
  H  H242  1  0.754700  0.814300  0.422600  1
  H  H243  1  0.745300  0.314300  0.922600  1
  H  H244  1  0.245300  0.185700  0.577400  1
  H  H245  1  0.189200  0.650000  0.130700  1
  H  H246  1  0.689200  0.850000  0.369300  1
  H  H247  1  0.810800  0.350000  0.869300  1
  H  H248  1  0.310800  0.150000  0.630700  1
  H  H249  1  0.077400  0.667800  0.131000  1
  H  H250  1  0.577400  0.832200  0.369000  1
  H  H251  1  0.922600  0.332200  0.869000  1
  H  H252  1  0.422600  0.167800  0.631000  1
  H  H253  1  0.933100  0.950000  0.949200  1
  H  H254  1  0.433100  0.550000  0.550800  1
  H  H255  1  0.066900  0.050000  0.050800  1
  H  H256  1  0.566900  0.450000  0.449200  1
  H  H257  1  0.926600  0.939300  0.862600  1
  H  H258  1  0.426600  0.560700  0.637400  1
  H  H259  1  0.073400  0.060700  0.137400  1
  H  H260  1  0.573400  0.439300  0.362600  1
  H  H261  1  0.886000  0.882200  0.781100  1
  H  H262  1  0.386000  0.617800  0.718900  1
  H  H263  1  0.114000  0.117800  0.218900  1
  H  H264  1  0.614000  0.382200  0.281100  1
  H  H265  1  0.861900  0.821600  0.705500  1
  H  H266  1  0.361900  0.678400  0.794500  1
  H  H267  1  0.138100  0.178400  0.294500  1
  H  H268  1  0.638100  0.321600  0.205500  1
  H  H269  1  0.876800  0.713600  0.688900  1
  H  H270  1  0.376800  0.786400  0.811100  1
  H  H271  1  0.123200  0.286400  0.311100  1
  H  H272  1  0.623200  0.213600  0.188900  1
  H  H273  1  0.913300  0.667800  0.747700  1
  H  H274  1  0.413300  0.832200  0.752300  1
  H  H275  1  0.086700  0.332200  0.252300  1
  H  H276  1  0.586700  0.167800  0.247700  1
  H  H277  1  0.887500  0.670900  0.976800  1
  H  H278  1  0.387500  0.829100  0.523200  1
  H  H279  1  0.112500  0.329100  0.023200  1
  H  H280  1  0.612500  0.170900  0.476800  1
  H  H281  1  0.899200  0.515400  0.003800  1
  H  H282  1  0.399200  0.984600  0.496200  1
  H  H283  1  0.100800  0.484600  0.996200  1
  H  H284  1  0.600800  0.015400  0.503800  1
  H  H285  1  0.916700  0.520400  0.088900  1
  H  H286  1  0.416700  0.979600  0.411100  1
  H  H287  1  0.083300  0.479600  0.911100  1
  H  H288  1  0.583300  0.020400  0.588900  1
  H  H289  1  0.924400  0.575800  0.174600  1
  H  H290  1  0.424400  0.924200  0.325400  1
  H  H291  1  0.075600  0.424200  0.825400  1
  H  H292  1  0.575600  0.075800  0.674600  1
  H  H293  1  0.938900  0.631700  0.252200  1
  H  H294  1  0.438900  0.868300  0.247800  1
  H  H295  1  0.061100  0.368300  0.747800  1
  H  H296  1  0.561100  0.131700  0.752200  1
  H  H297  1  0.962100  0.738800  0.268000  1
  H  H298  1  0.462100  0.761200  0.232000  1
  H  H299  1  0.037900  0.261200  0.732000  1
  H  H300  1  0.537900  0.238800  0.768000  1
  H  H301  1  0.973800  0.785700  0.205000  1
  H  H302  1  0.473800  0.714300  0.295000  1
  H  H303  1  0.026200  0.214300  0.795000  1
  H  H304  1  0.526200  0.285700  0.705000  1
  H  H305  1  0.041700  0.588400  0.992000  1
  H  H306  1  0.541700  0.911600  0.508000  1
  H  H307  1  0.958300  0.411600  0.008000  1
  H  H308  1  0.458300  0.088400  0.492000  1
  H  H309  1  0.134300  0.616300  0.945500  1
  H  H310  1  0.634300  0.883700  0.554500  1
  H  H311  1  0.865700  0.383700  0.054500  1
  H  H312  1  0.365700  0.116300  0.445500  1
  H  H313  1  0.189200  0.676000  0.893300  1
  H  H314  1  0.689200  0.824000  0.606700  1
  H  H315  1  0.810800  0.324000  0.106700  1
  H  H316  1  0.310800  0.176000  0.393300  1
  H  H317  1  0.233300  0.731600  0.842400  1
  H  H318  1  0.733300  0.768400  0.657600  1
  H  H319  1  0.766700  0.268400  0.157600  1
  H  H320  1  0.266700  0.231600  0.342400  1
  H  H321  1  0.163700  0.781400  0.799600  1
  H  H322  1  0.663700  0.718600  0.700400  1
  H  H323  1  0.836300  0.218600  0.200400  1
  H  H324  1  0.336300  0.281400  0.299600  1
  H  H325  1  0.051400  0.777300  0.811700  1
  H  H326  1  0.551400  0.722700  0.688300  1
  H  H327  1  0.948600  0.222700  0.188300  1
  H  H328  1  0.448600  0.277300  0.311700  1
  H  H329  1  0.952900  0.525500  0.898400  1
  H  H330  1  0.452900  0.974500  0.601600  1
  H  H331  1  0.047100  0.474500  0.101600  1
  H  H332  1  0.547100  0.025500  0.398400  1
  H  H333  1  0.866800  0.456500  0.853000  1
  H  H334  1  0.366800  0.043500  0.647000  1
  H  H335  1  0.133200  0.543500  0.147000  1
  H  H336  1  0.633200  0.956500  0.353000  1
  H  H337  1  0.754200  0.432400  0.823400  1
  H  H338  1  0.254200  0.067600  0.676600  1
  H  H339  1  0.245800  0.567600  0.176600  1
  H  H340  1  0.745800  0.932400  0.323400  1
  H  H341  1  0.644800  0.409900  0.802100  1
  H  H342  1  0.144800  0.090100  0.697900  1
  H  H343  1  0.355200  0.590100  0.197900  1
  H  H344  1  0.855200  0.909900  0.302100  1
  H  H345  1  0.562300  0.467000  0.849100  1
  H  H346  1  0.062300  0.033000  0.650900  1
  H  H347  1  0.437700  0.533000  0.150900  1
  H  H348  1  0.937700  0.967000  0.349100  1
  H  H349  1  0.590400  0.541000  0.915900  1
  H  H350  1  0.090400  0.959000  0.584100  1
  H  H351  1  0.409600  0.459000  0.084100  1
  H  H352  1  0.909600  0.041000  0.415900  1
  H  H353  1  0.081800  0.667500  0.728900  1
  H  H354  1  0.581800  0.832500  0.771100  1
  H  H355  1  0.918200  0.332500  0.271100  1
  H  H356  1  0.418200  0.167500  0.228900  1
  H  H357  1  0.085500  0.695600  0.683800  1
  H  H358  1  0.585500  0.804400  0.816200  1
  H  H359  1  0.914500  0.304400  0.316200  1
  H  H360  1  0.414500  0.195600  0.183800  1
  H  H361  1  0.121100  0.631700  0.683900  1
  H  H362  1  0.621100  0.868300  0.816100  1
  H  H363  1  0.878900  0.368300  0.316100  1
  H  H364  1  0.378900  0.131700  0.183900  1
  H  H365  1  0.379200  0.347300  0.839500  1
  H  H366  1  0.879200  0.152700  0.660500  1
  H  H367  1  0.620800  0.652700  0.160500  1
  H  H368  1  0.120800  0.847300  0.339500  1
  H  H369  1  0.361300  0.360100  0.789900  1
  H  H370  1  0.861300  0.139900  0.710100  1
  H  H371  1  0.638700  0.639900  0.210100  1
  H  H372  1  0.138700  0.860100  0.289900  1
  H  H373  1  0.377800  0.416800  0.833000  1
  H  H374  1  0.877800  0.083200  0.667000  1
  H  H375  1  0.622200  0.583200  0.167000  1
  H  H376  1  0.122200  0.916800  0.333000  1
  H  H377  1  0.216900  0.860700  0.173700  1
  H  H378  1  0.716900  0.639300  0.326300  1
  H  H379  1  0.783100  0.139300  0.826300  1
  H  H380  1  0.283100  0.360700  0.673700  1
  H  H381  1  0.211700  0.787000  0.155900  1
  H  H382  1  0.711700  0.713000  0.344100  1
  H  H383  1  0.788300  0.213000  0.844100  1
  H  H384  1  0.288300  0.287000  0.655900  1
  H  H385  1  0.276200  0.821700  0.147000  1
  H  H386  1  0.776200  0.678300  0.353000  1
  H  H387  1  0.723800  0.178300  0.853000  1
  H  H388  1  0.223800  0.321700  0.647000  1
  H  H389  1  0.596400  0.361200  0.127200  1
  H  H390  1  0.096400  0.138800  0.372800  1
  H  H391  1  0.403600  0.638800  0.872800  1
  H  H392  1  0.903600  0.861200  0.627200  1
  H  H393  1  0.524900  0.374300  0.147200  1
  H  H394  1  0.024900  0.125700  0.352800  1
  H  H395  1  0.475100  0.625700  0.852800  1
  H  H396  1  0.975100  0.874300  0.647200  1
  H  H397  1  0.584700  0.408700  0.176600  1
  H  H398  1  0.084700  0.091300  0.323400  1
  H  H399  1  0.415300  0.591300  0.823400  1
  H  H400  1  0.915300  0.908700  0.676600  1
  H  H401  1  0.427000  0.952000  0.105100  1
  H  H402  1  0.927000  0.548000  0.394900  1
  H  H403  1  0.573000  0.048000  0.894900  1
  H  H404  1  0.073000  0.452000  0.605100  1
  H  H405  1  0.490000  0.930500  0.129000  1
  H  H406  1  0.990000  0.569500  0.371000  1
  H  H407  1  0.510000  0.069500  0.871000  1
  H  H408  1  0.010000  0.430500  0.629000  1
  H  H409  1  0.427000  0.953300  0.159600  1
  H  H410  1  0.927000  0.546700  0.340400  1
  H  H411  1  0.573000  0.046700  0.840400  1
  H  H412  1  0.073000  0.453300  0.659600  1
  H  H413  1  0.380300  0.871600  0.099200  1
  H  H414  1  0.880300  0.628400  0.400800  1
  H  H415  1  0.619700  0.128400  0.900800  1
  H  H416  1  0.119700  0.371600  0.599200  1
  H  H417  1  0.451100  0.846500  0.095500  1
  H  H418  1  0.951100  0.653500  0.404500  1
  H  H419  1  0.548900  0.153500  0.904500  1
  H  H420  1  0.048900  0.346500  0.595500  1
  H  H421  1  0.476600  0.762900  0.141800  1
  H  H422  1  0.976600  0.737100  0.358200  1
  H  H423  1  0.523400  0.237100  0.858200  1
  H  H424  1  0.023400  0.262900  0.641800  1
  H  H425  1  0.454200  0.761200  0.089300  1
  H  H426  1  0.954200  0.738800  0.410700  1
  H  H427  1  0.545800  0.238800  0.910700  1
  H  H428  1  0.045800  0.261200  0.589300  1
  H  H429  1  0.348300  0.726600  0.123000  1
  H  H430  1  0.848300  0.773400  0.377000  1
  H  H431  1  0.651700  0.273400  0.877000  1
  H  H432  1  0.151700  0.226600  0.623000  1
  H  H433  1  0.401000  0.696000  0.150800  1
  H  H434  1  0.901000  0.804000  0.349200  1
  H  H435  1  0.599000  0.304000  0.849200  1
  H  H436  1  0.099000  0.196000  0.650800  1
  H  H437  1  0.399000  0.677800  0.095000  1
  H  H438  1  0.899000  0.822200  0.405000  1
  H  H439  1  0.601000  0.322200  0.905000  1
  H  H440  1  0.101000  0.177800  0.595000  1
  C  C441  1  0.742100  0.634200  0.839200  1
  C  C442  1  0.242100  0.865800  0.660800  1
  C  C443  1  0.257900  0.365800  0.160800  1
  C  C444  1  0.757900  0.134200  0.339200  1
  C  C445  1  0.777600  0.591900  0.806900  1
  C  C446  1  0.277600  0.908100  0.693100  1
  C  C447  1  0.222400  0.408100  0.193100  1
  C  C448  1  0.722400  0.091900  0.306900  1
  C  C449  1  0.842800  0.607700  0.818400  1
  C  C450  1  0.342800  0.892300  0.681600  1
  C  C451  1  0.157200  0.392300  0.181600  1
  C  C452  1  0.657200  0.107700  0.318400  1
  C  C453  1  0.903500  0.577100  0.797600  1
  C  C454  1  0.403500  0.922900  0.702400  1
  C  C455  1  0.096500  0.422900  0.202400  1
  C  C456  1  0.596500  0.077100  0.297600  1
  C  C457  1  0.902800  0.519500  0.764300  1
  C  C458  1  0.402800  0.980500  0.735700  1
  C  C459  1  0.097200  0.480500  0.235700  1
  C  C460  1  0.597200  0.019500  0.264300  1
  C  C461  1  0.962200  0.492200  0.747500  1
  C  C462  1  0.462200  0.007800  0.752500  1
  C  C463  1  0.037800  0.507800  0.252500  1
  C  C464  1  0.537800  0.992200  0.247500  1
  C  C465  1  0.019600  0.522300  0.763800  1
  C  C466  1  0.519600  0.977700  0.736200  1
  C  C467  1  0.980400  0.477700  0.236200  1
  C  C468  1  0.480400  0.022300  0.263800  1
  C  C469  1  0.016500  0.579200  0.795800  1
  C  C470  1  0.516500  0.920800  0.704200  1
  C  C471  1  0.983500  0.420800  0.204200  1
  C  C472  1  0.483500  0.079200  0.295800  1
  C  C473  1  0.638100  0.746800  0.910600  1
  C  C474  1  0.138100  0.753200  0.589400  1
  C  C475  1  0.361900  0.253200  0.089400  1
  C  C476  1  0.861900  0.246800  0.410600  1
  C  C477  1  0.583900  0.724900  0.930500  1
  C  C478  1  0.083900  0.775100  0.569500  1
  C  C479  1  0.416100  0.275100  0.069500  1
  C  C480  1  0.916100  0.224900  0.430500  1
  C  C481  1  0.610200  0.685700  0.957400  1
  C  C482  1  0.110200  0.814300  0.542600  1
  C  C483  1  0.389800  0.314300  0.042600  1
  C  C484  1  0.889800  0.185700  0.457400  1
  C  C485  1  0.576300  0.650000  0.986800  1
  C  C486  1  0.076300  0.850000  0.513200  1
  C  C487  1  0.423700  0.350000  0.013200  1
  C  C488  1  0.923700  0.150000  0.486800  1
  C  C489  1  0.508700  0.654600  0.994400  1
  C  C490  1  0.008700  0.845400  0.505600  1
  C  C491  1  0.491300  0.345400  0.005600  1
  C  C492  1  0.991300  0.154600  0.494400  1
  C  C493  1  0.480300  0.618800  0.021700  1
  C  C494  1  0.980300  0.881200  0.478300  1
  C  C495  1  0.519700  0.381200  0.978300  1
  C  C496  1  0.019700  0.118800  0.521700  1
  C  C497  1  0.518100  0.579600  0.041700  1
  C  C498  1  0.018100  0.920400  0.458300  1
  C  C499  1  0.481900  0.420400  0.958300  1
  C  C500  1  0.981900  0.079600  0.541700  1
  C  C501  1  0.584500  0.577600  0.032700  1
  C  C502  1  0.084500  0.922400  0.467300  1
  C  C503  1  0.415500  0.422400  0.967300  1
  C  C504  1  0.915500  0.077600  0.532700  1
  C  C505  1  0.758600  0.795200  0.845600  1
  C  C506  1  0.258600  0.704800  0.654400  1
  C  C507  1  0.241400  0.204800  0.154400  1
  C  C508  1  0.741400  0.295200  0.345600  1
  C  C509  1  0.755500  0.857400  0.844800  1
  C  C510  1  0.255500  0.642600  0.655200  1
  C  C511  1  0.244500  0.142600  0.155200  1
  C  C512  1  0.744500  0.357400  0.344800  1
  C  C513  1  0.762000  0.889800  0.892000  1
  C  C514  1  0.262000  0.610200  0.608000  1
  C  C515  1  0.238000  0.110200  0.108000  1
  C  C516  1  0.738000  0.389800  0.392000  1
  C  C517  1  0.764200  0.958300  0.913200  1
  C  C518  1  0.264200  0.541700  0.586800  1
  C  C519  1  0.235800  0.041700  0.086800  1
  C  C520  1  0.735800  0.458300  0.413200  1
  C  C521  1  0.765300  0.001000  0.884900  1
  C  C522  1  0.265300  0.499000  0.615100  1
  C  C523  1  0.234700  0.999000  0.115100  1
  C  C524  1  0.734700  0.501000  0.384900  1
  C  C525  1  0.765300  0.064800  0.906500  1
  C  C526  1  0.265300  0.435200  0.593500  1
  C  C527  1  0.234700  0.935200  0.093500  1
  C  C528  1  0.734700  0.564800  0.406500  1
  C  C529  1  0.764100  0.083400  0.955200  1
  C  C530  1  0.264100  0.416600  0.544800  1
  C  C531  1  0.235900  0.916600  0.044800  1
  C  C532  1  0.735900  0.583400  0.455200  1
  C  C533  1  0.764300  0.038800  0.981300  1
  C  C534  1  0.264300  0.461200  0.518700  1
  C  C535  1  0.235700  0.961200  0.018700  1
  C  C536  1  0.735700  0.538800  0.481300  1
  C  C537  1  0.783100  0.695300  0.127600  1
  C  C538  1  0.283100  0.804700  0.372400  1
  C  C539  1  0.216900  0.304700  0.872400  1
  C  C540  1  0.716900  0.195300  0.627600  1
  C  C541  1  0.771700  0.634000  0.128500  1
  C  C542  1  0.271700  0.866000  0.371500  1
  C  C543  1  0.228300  0.366000  0.871500  1
  C  C544  1  0.728300  0.134000  0.628500  1
  C  C545  1  0.759100  0.603500  0.081300  1
  C  C546  1  0.259100  0.896500  0.418700  1
  C  C547  1  0.240900  0.396500  0.918700  1
  C  C548  1  0.740900  0.103500  0.581300  1
  C  C549  1  0.743900  0.536800  0.060900  1
  C  C550  1  0.243900  0.963200  0.439100  1
  C  C551  1  0.256100  0.463200  0.939100  1
  C  C552  1  0.756100  0.036800  0.560900  1
  C  C553  1  0.740900  0.493700  0.089300  1
  C  C554  1  0.240900  0.006300  0.410700  1
  C  C555  1  0.259100  0.506300  0.910700  1
  C  C556  1  0.759100  0.993700  0.589300  1
  C  C557  1  0.724400  0.432100  0.068600  1
  C  C558  1  0.224400  0.067900  0.431400  1
  C  C559  1  0.275600  0.567900  0.931400  1
  C  C560  1  0.775600  0.932100  0.568600  1
  C  C561  1  0.712500  0.414200  0.020700  1
  C  C562  1  0.212500  0.085800  0.479300  1
  C  C563  1  0.287500  0.585800  0.979300  1
  C  C564  1  0.787500  0.914200  0.520700  1
  C  C565  1  0.717200  0.459100  0.994500  1
  C  C566  1  0.217200  0.040900  0.505500  1
  C  C567  1  0.282800  0.540900  0.005500  1
  C  C568  1  0.782800  0.959100  0.494500  1
  C  C569  1  0.656700  0.769700  0.079200  1
  C  C570  1  0.156700  0.730300  0.420800  1
  C  C571  1  0.343300  0.230300  0.920800  1
  C  C572  1  0.843300  0.269700  0.579200  1
  C  C573  1  0.604800  0.799400  0.064300  1
  C  C574  1  0.104800  0.700600  0.435700  1
  C  C575  1  0.395200  0.200600  0.935700  1
  C  C576  1  0.895200  0.299400  0.564300  1
  C  C577  1  0.631100  0.832400  0.033300  1
  C  C578  1  0.131100  0.667600  0.466700  1
  C  C579  1  0.368900  0.167600  0.966700  1
  C  C580  1  0.868900  0.332400  0.533300  1
  C  C581  1  0.598500  0.870800  0.005000  1
  C  C582  1  0.098500  0.629200  0.495000  1
  C  C583  1  0.401500  0.129200  0.995000  1
  C  C584  1  0.901500  0.370800  0.505000  1
  C  C585  1  0.530400  0.870600  0.999500  1
  C  C586  1  0.030400  0.629400  0.500500  1
  C  C587  1  0.469600  0.129400  0.000500  1
  C  C588  1  0.969600  0.370600  0.499500  1
  C  C589  1  0.502900  0.907100  0.971900  1
  C  C590  1  0.002900  0.592900  0.528100  1
  C  C591  1  0.497100  0.092900  0.028100  1
  C  C592  1  0.997100  0.407100  0.471900  1
  C  C593  1  0.543000  0.943100  0.950700  1
  C  C594  1  0.043000  0.556900  0.549300  1
  C  C595  1  0.457000  0.056900  0.049300  1
  C  C596  1  0.957000  0.443100  0.450700  1
  C  C597  1  0.609600  0.941200  0.957800  1
  C  C598  1  0.109600  0.558800  0.542200  1
  C  C599  1  0.390400  0.058800  0.042200  1
  C  C600  1  0.890400  0.441200  0.457800  1
  C  C601  1  0.790000  0.859500  0.136900  1
  C  C602  1  0.290000  0.640500  0.363100  1
  C  C603  1  0.210000  0.140500  0.863100  1
  C  C604  1  0.710000  0.359500  0.636900  1
  C  C605  1  0.838400  0.893300  0.163900  1
  C  C606  1  0.338400  0.606700  0.336100  1
  C  C607  1  0.161600  0.106700  0.836100  1
  C  C608  1  0.661600  0.393300  0.663900  1
  C  C609  1  0.896500  0.865700  0.144300  1
  C  C610  1  0.396500  0.634300  0.355700  1
  C  C611  1  0.103500  0.134300  0.855700  1
  C  C612  1  0.603500  0.365700  0.644300  1
  C  C613  1  0.964900  0.883500  0.157700  1
  C  C614  1  0.464900  0.616500  0.342300  1
  C  C615  1  0.035100  0.116500  0.842300  1
  C  C616  1  0.535100  0.383500  0.657700  1
  C  C617  1  0.981100  0.938200  0.190400  1
  C  C618  1  0.481100  0.561800  0.309600  1
  C  C619  1  0.018900  0.061800  0.809600  1
  C  C620  1  0.518900  0.438200  0.690400  1
  C  C621  1  0.046100  0.951900  0.201300  1
  C  C622  1  0.546100  0.548100  0.298700  1
  C  C623  1  0.953900  0.048100  0.798700  1
  C  C624  1  0.453900  0.451900  0.701300  1
  C  C625  1  0.093000  0.911100  0.179700  1
  C  C626  1  0.593000  0.588900  0.320300  1
  C  C627  1  0.907000  0.088900  0.820300  1
  C  C628  1  0.407000  0.411100  0.679700  1
  C  C629  1  0.074300  0.856400  0.147300  1
  C  C630  1  0.574300  0.643600  0.352700  1
  C  C631  1  0.925700  0.143600  0.852700  1
  C  C632  1  0.425700  0.356400  0.647300  1
  C  C633  1  0.954600  0.934600  0.051000  1
  C  C634  1  0.454600  0.565400  0.449000  1
  C  C635  1  0.045400  0.065400  0.949000  1
  C  C636  1  0.545400  0.434600  0.551000  1
  C  C637  1  0.919200  0.980200  0.081300  1
  C  C638  1  0.419200  0.519800  0.418700  1
  C  C639  1  0.080800  0.019800  0.918700  1
  C  C640  1  0.580800  0.480200  0.581300  1
  C  C641  1  0.853800  0.965200  0.069400  1
  C  C642  1  0.353800  0.534800  0.430600  1
  C  C643  1  0.146200  0.034800  0.930600  1
  C  C644  1  0.646200  0.465200  0.569400  1
  C  C645  1  0.793400  0.995000  0.091200  1
  C  C646  1  0.293400  0.505000  0.408800  1
  C  C647  1  0.206600  0.005000  0.908800  1
  C  C648  1  0.706600  0.495000  0.591200  1
  C  C649  1  0.794000  0.043500  0.132200  1
  C  C650  1  0.294000  0.456500  0.367800  1
  C  C651  1  0.206000  0.956500  0.867800  1
  C  C652  1  0.706000  0.543500  0.632200  1
  C  C653  1  0.734600  0.067400  0.151700  1
  C  C654  1  0.234600  0.432600  0.348300  1
  C  C655  1  0.265400  0.932600  0.848300  1
  C  C656  1  0.765400  0.567400  0.651700  1
  C  C657  1  0.677600  0.043600  0.130400  1
  C  C658  1  0.177600  0.456400  0.369600  1
  C  C659  1  0.322400  0.956400  0.869600  1
  C  C660  1  0.822400  0.543600  0.630400  1
  C  C661  1  0.680500  0.995800  0.089500  1
  C  C662  1  0.180500  0.504200  0.410500  1
  C  C663  1  0.319500  0.004200  0.910500  1
  C  C664  1  0.819500  0.495800  0.589500  1
  C  C665  1  0.056300  0.828000  0.969100  1
  C  C666  1  0.556300  0.672000  0.530900  1
  C  C667  1  0.943700  0.172000  0.030900  1
  C  C668  1  0.443700  0.328000  0.469100  1
  C  C669  1  0.108900  0.801400  0.986800  1
  C  C670  1  0.608900  0.698600  0.513200  1
  C  C671  1  0.891100  0.198600  0.013200  1
  C  C672  1  0.391100  0.301400  0.486800  1
  C  C673  1  0.082300  0.772200  0.019900  1
  C  C674  1  0.582300  0.727800  0.480100  1
  C  C675  1  0.917700  0.227800  0.980100  1
  C  C676  1  0.417700  0.272200  0.519900  1
  C  C677  1  0.114400  0.735900  0.050200  1
  C  C678  1  0.614400  0.764100  0.449800  1
  C  C679  1  0.885600  0.264100  0.949800  1
  C  C680  1  0.385600  0.235900  0.550200  1
  C  C681  1  0.181900  0.725500  0.048100  1
  C  C682  1  0.681900  0.774500  0.451900  1
  C  C683  1  0.818100  0.274500  0.951900  1
  C  C684  1  0.318100  0.225500  0.548100  1
  C  C685  1  0.209700  0.693100  0.078300  1
  C  C686  1  0.709700  0.806900  0.421700  1
  C  C687  1  0.790300  0.306900  0.921700  1
  C  C688  1  0.290300  0.193100  0.578300  1
  C  C689  1  0.170900  0.671700  0.109800  1
  C  C690  1  0.670900  0.828300  0.390200  1
  C  C691  1  0.829100  0.328300  0.890200  1
  C  C692  1  0.329100  0.171700  0.609800  1
  C  C693  1  0.103800  0.683000  0.110000  1
  C  C694  1  0.603800  0.817000  0.390000  1
  C  C695  1  0.896200  0.317000  0.890000  1
  C  C696  1  0.396200  0.183000  0.610000  1
  C  C697  1  0.929800  0.912200  0.926100  1
  C  C698  1  0.429800  0.587800  0.573900  1
  C  C699  1  0.070200  0.087800  0.073900  1
  C  C700  1  0.570200  0.412200  0.426100  1
  C  C701  1  0.926200  0.906800  0.878400  1
  C  C702  1  0.426200  0.593200  0.621600  1
  C  C703  1  0.073800  0.093200  0.121600  1
  C  C704  1  0.573800  0.406800  0.378400  1
  C  C705  1  0.921700  0.842500  0.858200  1
  C  C706  1  0.421700  0.657500  0.641800  1
  C  C707  1  0.078300  0.157500  0.141800  1
  C  C708  1  0.578300  0.342500  0.358200  1
  C  C709  1  0.911100  0.808000  0.808700  1
  C  C710  1  0.411100  0.692000  0.691300  1
  C  C711  1  0.088900  0.192000  0.191300  1
  C  C712  1  0.588900  0.308000  0.308700  1
  C  C713  1  0.890500  0.838400  0.774000  1
  C  C714  1  0.390500  0.661600  0.726000  1
  C  C715  1  0.109500  0.161600  0.226000  1
  C  C716  1  0.609500  0.338400  0.274000  1
  C  C717  1  0.876800  0.802500  0.729000  1
  C  C718  1  0.376800  0.697500  0.771000  1
  C  C719  1  0.123200  0.197500  0.271000  1
  C  C720  1  0.623200  0.302500  0.229000  1
  C  C721  1  0.885500  0.738500  0.719200  1
  C  C722  1  0.385500  0.761500  0.780800  1
  C  C723  1  0.114500  0.261500  0.280800  1
  C  C724  1  0.614500  0.238500  0.219200  1
  C  C725  1  0.907100  0.711300  0.754700  1
  C  C726  1  0.407100  0.788700  0.745300  1
  C  C727  1  0.092900  0.288700  0.245300  1
  C  C728  1  0.592900  0.211300  0.254700  1
  C  C729  1  0.909000  0.551700  0.027200  1
  C  C730  1  0.409000  0.948300  0.472800  1
  C  C731  1  0.091000  0.448300  0.972800  1
  C  C732  1  0.591000  0.051700  0.527200  1
  C  C733  1  0.918300  0.553800  0.074100  1
  C  C734  1  0.418300  0.946200  0.425900  1
  C  C735  1  0.081700  0.446200  0.925900  1
  C  C736  1  0.581700  0.053800  0.574100  1
  C  C737  1  0.930900  0.617300  0.094900  1
  C  C738  1  0.430900  0.882700  0.405100  1
  C  C739  1  0.069100  0.382700  0.905100  1
  C  C740  1  0.569100  0.117300  0.594900  1
  C  C741  1  0.941100  0.649500  0.144700  1
  C  C742  1  0.441100  0.850500  0.355300  1
  C  C743  1  0.058900  0.350500  0.855300  1
  C  C744  1  0.558900  0.149500  0.644700  1
  C  C745  1  0.934400  0.618700  0.181400  1
  C  C746  1  0.434400  0.881300  0.318600  1
  C  C747  1  0.065600  0.381300  0.818600  1
  C  C748  1  0.565600  0.118700  0.681400  1
  C  C749  1  0.942800  0.651900  0.227400  1
  C  C750  1  0.442800  0.848100  0.272600  1
  C  C751  1  0.057200  0.348100  0.772600  1
  C  C752  1  0.557200  0.151900  0.727400  1
  C  C753  1  0.956900  0.715200  0.236900  1
  C  C754  1  0.456900  0.784800  0.263100  1
  C  C755  1  0.043100  0.284800  0.763100  1
  C  C756  1  0.543100  0.215200  0.736900  1
  C  C757  1  0.963300  0.743000  0.198700  1
  C  C758  1  0.463300  0.757000  0.301300  1
  C  C759  1  0.036700  0.257000  0.801300  1
  C  C760  1  0.536700  0.243000  0.698700  1
  C  C761  1  0.039000  0.612300  0.969400  1
  C  C762  1  0.539000  0.887700  0.530600  1
  C  C763  1  0.961000  0.387700  0.030600  1
  C  C764  1  0.461000  0.112300  0.469400  1
  C  C765  1  0.090400  0.627600  0.943900  1
  C  C766  1  0.590400  0.872400  0.556100  1
  C  C767  1  0.909600  0.372400  0.056100  1
  C  C768  1  0.409600  0.127600  0.443900  1
  C  C769  1  0.063000  0.663500  0.915200  1
  C  C770  1  0.563000  0.836500  0.584800  1
  C  C771  1  0.937000  0.336500  0.084800  1
  C  C772  1  0.437000  0.163500  0.415200  1
  C  C773  1  0.094700  0.695200  0.881700  1
  C  C774  1  0.594700  0.804800  0.618300  1
  C  C775  1  0.905300  0.304800  0.118300  1
  C  C776  1  0.405300  0.195200  0.381700  1
  C  C777  1  0.161900  0.696900  0.876300  1
  C  C778  1  0.661900  0.803100  0.623700  1
  C  C779  1  0.838100  0.303100  0.123700  1
  C  C780  1  0.338100  0.196900  0.376300  1
  C  C781  1  0.188000  0.729600  0.846000  1
  C  C782  1  0.688000  0.770400  0.654000  1
  C  C783  1  0.812000  0.270400  0.154000  1
  C  C784  1  0.312000  0.229600  0.346000  1
  C  C785  1  0.147000  0.759400  0.820900  1
  C  C786  1  0.647000  0.740600  0.679100  1
  C  C787  1  0.853000  0.240600  0.179100  1
  C  C788  1  0.353000  0.259400  0.320900  1
  C  C789  1  0.079500  0.756100  0.828100  1
  C  C790  1  0.579500  0.743900  0.671900  1
  C  C791  1  0.920500  0.243900  0.171900  1
  C  C792  1  0.420500  0.256100  0.328100  1
  C  C793  1  0.907900  0.530800  0.903000  1
  C  C794  1  0.407900  0.969200  0.597000  1
  C  C795  1  0.092100  0.469200  0.097000  1
  C  C796  1  0.592100  0.030800  0.403000  1
  C  C797  1  0.860700  0.492400  0.877600  1
  C  C798  1  0.360700  0.007600  0.622400  1
  C  C799  1  0.139300  0.507600  0.122400  1
  C  C800  1  0.639300  0.992400  0.377600  1
  C  C801  1  0.801600  0.518700  0.896700  1
  C  C802  1  0.301600  0.981300  0.603300  1
  C  C803  1  0.198400  0.481300  0.103300  1
  C  C804  1  0.698400  0.018700  0.396700  1
  C  C805  1  0.733900  0.500900  0.882400  1
  C  C806  1  0.233900  0.999100  0.617600  1
  C  C807  1  0.266100  0.499100  0.117600  1
  C  C808  1  0.766100  0.000900  0.382400  1
  C  C809  1  0.720300  0.454300  0.841800  1
  C  C810  1  0.220300  0.045700  0.658200  1
  C  C811  1  0.279700  0.545700  0.158200  1
  C  C812  1  0.779700  0.954300  0.341800  1
  C  C813  1  0.655300  0.441100  0.829200  1
  C  C814  1  0.155300  0.058900  0.670800  1
  C  C815  1  0.344700  0.558900  0.170800  1
  C  C816  1  0.844700  0.941100  0.329200  1
  C  C817  1  0.606300  0.474500  0.857200  1
  C  C818  1  0.106300  0.025500  0.642800  1
  C  C819  1  0.393700  0.525500  0.142800  1
  C  C820  1  0.893700  0.974500  0.357200  1
  C  C821  1  0.623700  0.518900  0.897000  1
  C  C822  1  0.123700  0.981100  0.603000  1
  C  C823  1  0.376300  0.481100  0.103000  1
  C  C824  1  0.876300  0.018900  0.397000  1
  C  C825  1  0.083100  0.657300  0.694700  1
  C  C826  1  0.583100  0.842700  0.805300  1
  C  C827  1  0.916900  0.342700  0.305300  1
  C  C828  1  0.416900  0.157300  0.194700  1
  C  C829  1  0.026400  0.623900  0.676600  1
  C  C830  1  0.526400  0.876100  0.823400  1
  C  C831  1  0.973600  0.376100  0.323400  1
  C  C832  1  0.473600  0.123900  0.176600  1
  C  C833  1  0.388000  0.373600  0.817800  1
  C  C834  1  0.888000  0.126400  0.682200  1
  C  C835  1  0.612000  0.626400  0.182200  1
  C  C836  1  0.112000  0.873600  0.317800  1
  C  C837  1  0.451900  0.368900  0.805400  1
  C  C838  1  0.951900  0.131100  0.694600  1
  C  C839  1  0.548100  0.631100  0.194600  1
  C  C840  1  0.048100  0.868900  0.305400  1
  C  C841  1  0.240700  0.821600  0.168800  1
  C  C842  1  0.740700  0.678400  0.331200  1
  C  C843  1  0.759300  0.178400  0.831200  1
  C  C844  1  0.259300  0.321600  0.668800  1
  C  C845  1  0.266000  0.814800  0.212600  1
  C  C846  1  0.766000  0.685200  0.287400  1
  C  C847  1  0.734000  0.185200  0.787400  1
  C  C848  1  0.234000  0.314800  0.712600  1
  C  C849  1  0.567300  0.392700  0.145100  1
  C  C850  1  0.067300  0.107300  0.354900  1
  C  C851  1  0.432700  0.607300  0.854900  1
  C  C852  1  0.932700  0.892700  0.645100  1
  C  C853  1  0.561300  0.441800  0.122500  1
  C  C854  1  0.061300  0.058200  0.377500  1
  C  C855  1  0.438700  0.558200  0.877500  1
  C  C856  1  0.938700  0.941800  0.622500  1
  C  C857  1  0.442800  0.931100  0.128800  1
  C  C858  1  0.942800  0.568900  0.371200  1
  C  C859  1  0.557200  0.068900  0.871200  1
  C  C860  1  0.057200  0.431100  0.628800  1
  C  C861  1  0.418800  0.868400  0.118200  1
  C  C862  1  0.918800  0.631600  0.381800  1
  C  C863  1  0.581200  0.131600  0.881800  1
  C  C864  1  0.081200  0.368400  0.618200  1
  C  C865  1  0.438800  0.764300  0.121500  1
  C  C866  1  0.938800  0.735700  0.378500  1
  C  C867  1  0.561200  0.235700  0.878500  1
  C  C868  1  0.061200  0.264300  0.621500  1
  C  C869  1  0.392700  0.711600  0.122800  1
  C  C870  1  0.892700  0.788400  0.377200  1
  C  C871  1  0.607300  0.288400  0.877200  1
  C  C872  1  0.107300  0.211600  0.622800  1
  N  N873  1  0.846500  0.657600  0.856360  1
  N  N874  1  0.346500  0.842400  0.643640  1
  N  N875  1  0.153500  0.342400  0.143640  1
  N  N876  1  0.653500  0.157600  0.356360  1
  N  N877  1  0.782600  0.673900  0.869170  1
  N  N878  1  0.282600  0.826100  0.630830  1
  N  N879  1  0.217400  0.326100  0.130830  1
  N  N880  1  0.717400  0.173900  0.369170  1
  N  N881  1  0.959900  0.607400  0.813530  1
  N  N882  1  0.459900  0.892600  0.686470  1
  N  N883  1  0.040100  0.392600  0.186470  1
  N  N884  1  0.540100  0.107400  0.313530  1
  N  N885  1  0.675900  0.683300  0.953800  1
  N  N886  1  0.175900  0.816700  0.546200  1
  N  N887  1  0.324100  0.316700  0.046200  1
  N  N888  1  0.824100  0.183300  0.453800  1
  N  N889  1  0.692500  0.721200  0.924820  1
  N  N890  1  0.192500  0.778800  0.575180  1
  N  N891  1  0.307500  0.278800  0.075180  1
  N  N892  1  0.807500  0.221200  0.424820  1
  N  N893  1  0.613600  0.611400  0.005760  1
  N  N894  1  0.113600  0.888600  0.494240  1
  N  N895  1  0.386400  0.388600  0.994240  1
  N  N896  1  0.886400  0.111400  0.505760  1
  N  N897  1  0.767400  0.849500  0.920720  1
  N  N898  1  0.267400  0.650500  0.579280  1
  N  N899  1  0.232600  0.150500  0.079280  1
  N  N900  1  0.732600  0.349500  0.420720  1
  N  N901  1  0.765600  0.790400  0.891070  1
  N  N902  1  0.265600  0.709600  0.608930  1
  N  N903  1  0.234400  0.209600  0.108930  1
  N  N904  1  0.734400  0.290400  0.391070  1
  N  N905  1  0.764600  0.976000  0.960900  1
  N  N906  1  0.264600  0.524000  0.539100  1
  N  N907  1  0.235400  0.024000  0.039100  1
  N  N908  1  0.735400  0.476000  0.460900  1
  N  N909  1  0.762700  0.644000  0.053120  1
  N  N910  1  0.262700  0.856000  0.446880  1
  N  N911  1  0.237300  0.356000  0.946880  1
  N  N912  1  0.737300  0.144000  0.553120  1
  N  N913  1  0.777900  0.701200  0.082380  1
  N  N914  1  0.277900  0.798800  0.417620  1
  N  N915  1  0.222100  0.298800  0.917620  1
  N  N916  1  0.722100  0.201200  0.582380  1
  N  N917  1  0.732000  0.520400  0.013990  1
  N  N918  1  0.232000  0.979600  0.486010  1
  N  N919  1  0.268000  0.479600  0.986010  1
  N  N920  1  0.768000  0.020400  0.513990  1
  N  N921  1  0.696600  0.823700  0.029620  1
  N  N922  1  0.196600  0.676300  0.470380  1
  N  N923  1  0.303400  0.176300  0.970380  1
  N  N924  1  0.803400  0.323700  0.529620  1
  N  N925  1  0.712200  0.784500  0.058130  1
  N  N926  1  0.212200  0.715500  0.441870  1
  N  N927  1  0.287800  0.215500  0.941870  1
  N  N928  1  0.787800  0.284500  0.558130  1
  N  N929  1  0.638000  0.905800  0.984410  1
  N  N930  1  0.138000  0.594200  0.515590  1
  N  N931  1  0.362000  0.094200  0.015590  1
  N  N932  1  0.862000  0.405800  0.484410  1
  N  N933  1  0.884200  0.816100  0.107070  1
  N  N934  1  0.384200  0.683900  0.392930  1
  N  N935  1  0.115800  0.183900  0.892930  1
  N  N936  1  0.615800  0.316100  0.607070  1
  N  N937  1  0.817200  0.813100  0.102590  1
  N  N938  1  0.317200  0.686900  0.397410  1
  N  N939  1  0.182800  0.186900  0.897410  1
  N  N940  1  0.682800  0.313100  0.602590  1
  N  N941  1  0.011300  0.842200  0.135600  1
  N  N942  1  0.511300  0.657800  0.364400  1
  N  N943  1  0.988700  0.157800  0.864400  1
  N  N944  1  0.488700  0.342200  0.635600  1
  N  N945  1  0.849900  0.912600  0.033550  1
  N  N946  1  0.349900  0.587400  0.466450  1
  N  N947  1  0.150100  0.087400  0.966450  1
  N  N948  1  0.650100  0.412600  0.533550  1
  N  N949  1  0.913200  0.893800  0.022490  1
  N  N950  1  0.413200  0.606200  0.477510  1
  N  N951  1  0.086800  0.106200  0.977510  1
  N  N952  1  0.586800  0.393800  0.522490  1
  N  N953  1  0.737000  0.971000  0.069700  1
  N  N954  1  0.237000  0.529000  0.430300  1
  N  N955  1  0.263000  0.029000  0.930300  1
  N  N956  1  0.763000  0.471000  0.569700  1
  N  N957  1  0.016400  0.780200  0.022720  1
  N  N958  1  0.516400  0.719800  0.477280  1
  N  N959  1  0.983600  0.219800  0.977280  1
  N  N960  1  0.483600  0.280200  0.522720  1
  N  N961  1  0.000600  0.814500  0.990610  1
  N  N962  1  0.500600  0.685500  0.509390  1
  N  N963  1  0.999400  0.185500  0.009390  1
  N  N964  1  0.499400  0.314500  0.490610  1
  N  N965  1  0.075900  0.714800  0.080840  1
  N  N966  1  0.575900  0.785200  0.419160  1
  N  N967  1  0.924100  0.285200  0.919160  1
  N  N968  1  0.424100  0.214800  0.580840  1
  N  N969  1  0.923200  0.810100  0.892440  1
  N  N970  1  0.423200  0.689900  0.607560  1
  N  N971  1  0.076800  0.189900  0.107560  1
  N  N972  1  0.576800  0.310100  0.392440  1
  N  N973  1  0.928000  0.853800  0.934560  1
  N  N974  1  0.428000  0.646200  0.565440  1
  N  N975  1  0.072000  0.146200  0.065440  1
  N  N976  1  0.572000  0.353800  0.434560  1
  N  N977  1  0.919600  0.745400  0.799320  1
  N  N978  1  0.419600  0.754600  0.700680  1
  N  N979  1  0.080400  0.254600  0.200680  1
  N  N980  1  0.580400  0.245400  0.299320  1
  N  N981  1  0.929900  0.651200  0.061820  1
  N  N982  1  0.429900  0.848800  0.438180  1
  N  N983  1  0.070100  0.348800  0.938180  1
  N  N984  1  0.570100  0.151200  0.561820  1
  N  N985  1  0.916200  0.609900  0.019640  1
  N  N986  1  0.416200  0.890100  0.480360  1
  N  N987  1  0.083800  0.390100  0.980360  1
  N  N988  1  0.583800  0.109900  0.519640  1
  N  N989  1  0.955300  0.711300  0.153330  1
  N  N990  1  0.455300  0.788700  0.346670  1
  N  N991  1  0.044700  0.288700  0.846670  1
  N  N992  1  0.544700  0.211300  0.653330  1
  N  N993  1  0.997700  0.669200  0.922180  1
  N  N994  1  0.497700  0.830800  0.577820  1
  N  N995  1  0.002300  0.330800  0.077820  1
  N  N996  1  0.502300  0.169200  0.422180  1
  N  N997  1  0.983300  0.637800  0.956140  1
  N  N998  1  0.483300  0.862200  0.543860  1
  N  N999  1  0.016700  0.362200  0.043860  1
  N  N1000  1  0.516700  0.137800  0.456140  1
  N  N1001  1  0.053700  0.724000  0.857220  1
  N  N1002  1  0.553700  0.776000  0.642780  1
  N  N1003  1  0.946300  0.276000  0.142780  1
  N  N1004  1  0.446300  0.224000  0.357220  1
  N  N1005  1  0.812500  0.570200  0.932610  1
  N  N1006  1  0.312500  0.929800  0.567390  1
  N  N1007  1  0.187500  0.429800  0.067390  1
  N  N1008  1  0.687500  0.070200  0.432610  1
  N  N1009  1  0.879200  0.577300  0.935590  1
  N  N1010  1  0.379200  0.922700  0.564410  1
  N  N1011  1  0.120800  0.422700  0.064410  1
  N  N1012  1  0.620800  0.077300  0.435590  1
  N  N1013  1  0.686300  0.532900  0.910730  1
  N  N1014  1  0.186300  0.967100  0.589270  1
  N  N1015  1  0.313700  0.467100  0.089270  1
  N  N1016  1  0.813700  0.032900  0.410730  1
  N  N1017  1  0.982500  0.593800  0.663900  1
  N  N1018  1  0.482500  0.906200  0.836100  1
  N  N1019  1  0.017500  0.406200  0.336100  1
  N  N1020  1  0.517500  0.093800  0.163900  1
  N  N1021  1  0.506300  0.364500  0.795200  1
  N  N1022  1  0.006300  0.135500  0.704800  1
  N  N1023  1  0.493700  0.635500  0.204800  1
  N  N1024  1  0.993700  0.864500  0.295200  1
  N  N1025  1  0.284800  0.800300  0.243700  1
  N  N1026  1  0.784800  0.699700  0.256300  1
  N  N1027  1  0.715200  0.199700  0.756300  1
  N  N1028  1  0.215200  0.300300  0.743700  1
  N  N1029  1  0.557300  0.481000  0.104400  1
  N  N1030  1  0.057300  0.019000  0.395600  1
  N  N1031  1  0.442700  0.519000  0.895600  1
  N  N1032  1  0.942700  0.981000  0.604400  1
  O  O1033  1  0.401300  0.824400  0.139300  1
  O  O1034  1  0.901300  0.675600  0.360700  1
  O  O1035  1  0.598700  0.175600  0.860700  1
  O  O1036  1  0.098700  0.324400  0.639300  1
  F  F1037  1  0.270000  0.472800  0.788000  1
  F  F1038  1  0.770000  0.027200  0.712000  1
  F  F1039  1  0.730000  0.527200  0.212000  1
  F  F1040  1  0.230000  0.972800  0.288000  1
  F  F1041  1  0.294000  0.534100  0.738800  1
  F  F1042  1  0.794000  0.965900  0.761200  1
  F  F1043  1  0.706000  0.465900  0.261200  1
  F  F1044  1  0.206000  0.034100  0.238800  1
  F  F1045  1  0.200300  0.576200  0.754100  1
  F  F1046  1  0.700300  0.923800  0.745900  1
  F  F1047  1  0.799700  0.423800  0.245900  1
  F  F1048  1  0.299700  0.076200  0.254100  1
  F  F1049  1  0.207100  0.479800  0.729000  1
  F  F1050  1  0.707100  0.020200  0.771000  1
  F  F1051  1  0.792900  0.520200  0.271000  1
  F  F1052  1  0.292900  0.979800  0.229000  1
  F  F1053  1  0.266800  0.571500  0.814700  1
  F  F1054  1  0.766800  0.928500  0.685300  1
  F  F1055  1  0.733200  0.428500  0.185300  1
  F  F1056  1  0.233200  0.071500  0.314700  1
  F  F1057  1  0.179600  0.519800  0.803000  1
  F  F1058  1  0.679600  0.980200  0.697000  1
  F  F1059  1  0.820400  0.480200  0.197000  1
  F  F1060  1  0.320400  0.019800  0.303000  1
  F  F1061  1  0.589300  0.626100  0.812850  1
  F  F1062  1  0.089300  0.873900  0.687150  1
  F  F1063  1  0.410700  0.373900  0.187150  1
  F  F1064  1  0.910700  0.126100  0.312850  1
  F  F1065  1  0.649900  0.653100  0.756100  1
  F  F1066  1  0.149900  0.846900  0.743900  1
  F  F1067  1  0.350100  0.346900  0.243900  1
  F  F1068  1  0.850100  0.153100  0.256100  1
  F  F1069  1  0.576800  0.604900  0.701120  1
  F  F1070  1  0.076800  0.895100  0.798880  1
  F  F1071  1  0.423200  0.395100  0.298880  1
  F  F1072  1  0.923200  0.104900  0.201120  1
  F  F1073  1  0.517300  0.577900  0.757730  1
  F  F1074  1  0.017300  0.922100  0.742270  1
  F  F1075  1  0.482700  0.422100  0.242270  1
  F  F1076  1  0.982700  0.077900  0.257730  1
  F  F1077  1  0.543700  0.679000  0.763100  1
  F  F1078  1  0.043700  0.821000  0.736900  1
  F  F1079  1  0.456300  0.321000  0.236900  1
  F  F1080  1  0.956300  0.179000  0.263100  1
  F  F1081  1  0.624300  0.552800  0.750000  1
  F  F1082  1  0.124300  0.947200  0.750000  1
  F  F1083  1  0.375700  0.447200  0.250000  1
  F  F1084  1  0.875700  0.052800  0.250000  1
  F  F1085  1  0.824200  0.385400  0.721500  1
  F  F1086  1  0.324200  0.114600  0.778500  1
  F  F1087  1  0.175800  0.614600  0.278500  1
  F  F1088  1  0.675800  0.885400  0.221500  1
  F  F1089  1  0.873400  0.269400  0.758200  1
  F  F1090  1  0.373400  0.230600  0.741800  1
  F  F1091  1  0.126600  0.730600  0.241800  1
  F  F1092  1  0.626600  0.769400  0.258200  1
  F  F1093  1  0.912700  0.325200  0.709400  1
  F  F1094  1  0.412700  0.174800  0.790600  1
  F  F1095  1  0.087300  0.674800  0.290600  1
  F  F1096  1  0.587300  0.825200  0.209400  1
  F  F1097  1  0.786000  0.328800  0.770900  1
  F  F1098  1  0.286000  0.171200  0.729100  1
  F  F1099  1  0.214000  0.671200  0.229100  1
  F  F1100  1  0.714000  0.828800  0.270900  1
  F  F1101  1  0.884100  0.373600  0.782200  1
  F  F1102  1  0.384100  0.126400  0.717800  1
  F  F1103  1  0.115900  0.626400  0.217800  1
  F  F1104  1  0.615900  0.873600  0.282200  1
  F  F1105  1  0.812900  0.282000  0.696800  1
  F  F1106  1  0.312900  0.218000  0.803200  1
  F  F1107  1  0.187100  0.718000  0.303200  1
  F  F1108  1  0.687100  0.782000  0.196800  1
  F  F1109  1  0.417100  0.760700  0.938600  1
  F  F1110  1  0.917100  0.739300  0.561400  1
  F  F1111  1  0.582900  0.239300  0.061400  1
  F  F1112  1  0.082900  0.260700  0.438600  1
  F  F1113  1  0.348300  0.730300  0.978100  1
  F  F1114  1  0.848300  0.769700  0.521900  1
  F  F1115  1  0.651700  0.269700  0.021900  1
  F  F1116  1  0.151700  0.230300  0.478100  1
  F  F1117  1  0.272100  0.782700  0.957000  1
  F  F1118  1  0.772100  0.717300  0.543000  1
  F  F1119  1  0.727900  0.217300  0.043000  1
  F  F1120  1  0.227900  0.282700  0.457000  1
  F  F1121  1  0.342600  0.809600  0.912600  1
  F  F1122  1  0.842600  0.690400  0.587400  1
  F  F1123  1  0.657400  0.190400  0.087400  1
  F  F1124  1  0.157400  0.309600  0.412600  1
  F  F1125  1  0.323600  0.716400  0.905700  1
  F  F1126  1  0.823600  0.783600  0.594300  1
  F  F1127  1  0.676400  0.283600  0.094300  1
  F  F1128  1  0.176400  0.216400  0.405700  1
  F  F1129  1  0.363200  0.830300  0.985200  1
  F  F1130  1  0.863200  0.669700  0.514800  1
  F  F1131  1  0.636800  0.169700  0.014800  1
  F  F1132  1  0.136800  0.330300  0.485200  1
