# generated using pymatgen
data_Cu2H29C33N3O10
_symmetry_space_group_name_H-M   'P 1'
_cell_length_a   24.56000000
_cell_length_b   24.56000000
_cell_length_c   59.19000000
_cell_angle_alpha   90.00000000
_cell_angle_beta   90.00000000
_cell_angle_gamma   120.00000000
_symmetry_Int_Tables_number   1
_chemical_formula_structural   Cu2H29C33N3O10
_chemical_formula_sum   'Cu36 H522 C594 N54 O180'
_cell_volume   30919.73026540
_cell_formula_units_Z   18
loop_
 _symmetry_equiv_pos_site_id
 _symmetry_equiv_pos_as_xyz
  1  'x, y, z'
loop_
 _atom_site_type_symbol
 _atom_site_label
 _atom_site_symmetry_multiplicity
 _atom_site_fract_x
 _atom_site_fract_y
 _atom_site_fract_z
 _atom_site_occupancy
  Cu  Cu1  1  0.496570  0.529590  0.927914  1.0
  Cu  Cu2  1  0.033020  0.503430  0.927914  1.0
  Cu  Cu3  1  0.470410  0.966980  0.927914  1.0
  Cu  Cu4  1  0.829903  0.196257  0.594581  1.0
  Cu  Cu5  1  0.366353  0.170097  0.594581  1.0
  Cu  Cu6  1  0.803743  0.633647  0.594581  1.0
  Cu  Cu7  1  0.163237  0.862923  0.261247  1.0
  Cu  Cu8  1  0.699687  0.836763  0.261247  1.0
  Cu  Cu9  1  0.137077  0.300313  0.261247  1.0
  Cu  Cu10  1  0.503430  0.470410  0.072086  1.0
  Cu  Cu11  1  0.966980  0.496570  0.072086  1.0
  Cu  Cu12  1  0.529590  0.033020  0.072086  1.0
  Cu  Cu13  1  0.170097  0.803743  0.405419  1.0
  Cu  Cu14  1  0.633647  0.829903  0.405419  1.0
  Cu  Cu15  1  0.196257  0.366353  0.405419  1.0
  Cu  Cu16  1  0.836763  0.137077  0.738753  1.0
  Cu  Cu17  1  0.300313  0.163237  0.738753  1.0
  Cu  Cu18  1  0.862923  0.699687  0.738753  1.0
  Cu  Cu19  1  0.543050  0.475450  0.902844  1.0
  Cu  Cu20  1  0.932400  0.456950  0.902844  1.0
  Cu  Cu21  1  0.524550  0.067600  0.902844  1.0
  Cu  Cu22  1  0.876383  0.142117  0.569511  1.0
  Cu  Cu23  1  0.265733  0.123617  0.569511  1.0
  Cu  Cu24  1  0.857883  0.734267  0.569511  1.0
  Cu  Cu25  1  0.209717  0.808783  0.236177  1.0
  Cu  Cu26  1  0.599067  0.790283  0.236177  1.0
  Cu  Cu27  1  0.191217  0.400933  0.236177  1.0
  Cu  Cu28  1  0.456950  0.524550  0.097156  1.0
  Cu  Cu29  1  0.067600  0.543050  0.097156  1.0
  Cu  Cu30  1  0.475450  0.932400  0.097156  1.0
  Cu  Cu31  1  0.123617  0.857883  0.430489  1.0
  Cu  Cu32  1  0.734267  0.876383  0.430489  1.0
  Cu  Cu33  1  0.142117  0.265733  0.430489  1.0
  Cu  Cu34  1  0.790283  0.191217  0.763823  1.0
  Cu  Cu35  1  0.400933  0.209717  0.763823  1.0
  Cu  Cu36  1  0.808783  0.599067  0.763823  1.0
  H  H37  1  0.746000  0.267000  0.778900  1
  H  H38  1  0.521000  0.254000  0.778900  1
  H  H39  1  0.733000  0.479000  0.778900  1
  H  H40  1  0.079333  0.933667  0.445567  1
  H  H41  1  0.854333  0.920667  0.445567  1
  H  H42  1  0.066333  0.145667  0.445567  1
  H  H43  1  0.412667  0.600333  0.112233  1
  H  H44  1  0.187667  0.587333  0.112233  1
  H  H45  1  0.399667  0.812333  0.112233  1
  H  H46  1  0.254000  0.733000  0.221100  1
  H  H47  1  0.479000  0.746000  0.221100  1
  H  H48  1  0.267000  0.521000  0.221100  1
  H  H49  1  0.920667  0.066333  0.554433  1
  H  H50  1  0.145667  0.079333  0.554433  1
  H  H51  1  0.933667  0.854333  0.554433  1
  H  H52  1  0.587333  0.399667  0.887767  1
  H  H53  1  0.812333  0.412667  0.887767  1
  H  H54  1  0.600333  0.187667  0.887767  1
  H  H55  1  0.732600  0.478600  0.778900  1
  H  H56  1  0.746000  0.267400  0.778900  1
  H  H57  1  0.521400  0.254000  0.778900  1
  H  H58  1  0.065933  0.145267  0.445567  1
  H  H59  1  0.079333  0.934067  0.445567  1
  H  H60  1  0.854733  0.920667  0.445567  1
  H  H61  1  0.399267  0.811933  0.112233  1
  H  H62  1  0.412667  0.600733  0.112233  1
  H  H63  1  0.188067  0.587333  0.112233  1
  H  H64  1  0.267400  0.521400  0.221100  1
  H  H65  1  0.254000  0.732600  0.221100  1
  H  H66  1  0.478600  0.746000  0.221100  1
  H  H67  1  0.934067  0.854733  0.554433  1
  H  H68  1  0.920667  0.065933  0.554433  1
  H  H69  1  0.145267  0.079333  0.554433  1
  H  H70  1  0.600733  0.188067  0.887767  1
  H  H71  1  0.587333  0.399267  0.887767  1
  H  H72  1  0.811933  0.412667  0.887767  1
  H  H73  1  0.587000  0.399300  0.887800  1.0
  H  H74  1  0.812300  0.413000  0.887800  1.0
  H  H75  1  0.600700  0.187700  0.887800  1.0
  H  H76  1  0.920333  0.065967  0.554467  1.0
  H  H77  1  0.145633  0.079667  0.554467  1.0
  H  H78  1  0.934033  0.854367  0.554467  1.0
  H  H79  1  0.253667  0.732633  0.221133  1.0
  H  H80  1  0.478967  0.746333  0.221133  1.0
  H  H81  1  0.267367  0.521033  0.221133  1.0
  H  H82  1  0.413000  0.600700  0.112200  1.0
  H  H83  1  0.187700  0.587000  0.112200  1.0
  H  H84  1  0.399300  0.812300  0.112200  1.0
  H  H85  1  0.079667  0.934033  0.445533  1.0
  H  H86  1  0.854367  0.920333  0.445533  1.0
  H  H87  1  0.065967  0.145633  0.445533  1.0
  H  H88  1  0.746333  0.267367  0.778867  1.0
  H  H89  1  0.521033  0.253667  0.778867  1.0
  H  H90  1  0.732633  0.478967  0.778867  1.0
  H  H91  1  0.730400  0.860800  0.843800  1.0
  H  H92  1  0.130400  0.269600  0.843800  1.0
  H  H93  1  0.139200  0.869600  0.843800  1.0
  H  H94  1  0.063733  0.527467  0.510467  1.0
  H  H95  1  0.463733  0.936267  0.510467  1.0
  H  H96  1  0.472533  0.536267  0.510467  1.0
  H  H97  1  0.397067  0.194133  0.177133  1.0
  H  H98  1  0.797067  0.602933  0.177133  1.0
  H  H99  1  0.805867  0.202933  0.177133  1.0
  H  H100  1  0.269600  0.139200  0.156200  1.0
  H  H101  1  0.869600  0.730400  0.156200  1.0
  H  H102  1  0.860800  0.130400  0.156200  1.0
  H  H103  1  0.936267  0.472533  0.489533  1.0
  H  H104  1  0.536267  0.063733  0.489533  1.0
  H  H105  1  0.527467  0.463733  0.489533  1.0
  H  H106  1  0.602933  0.805867  0.822867  1.0
  H  H107  1  0.202933  0.397067  0.822867  1.0
  H  H108  1  0.194133  0.797067  0.822867  1.0
  H  H109  1  0.849500  0.675900  0.004000  1.0
  H  H110  1  0.826400  0.150500  0.004000  1.0
  H  H111  1  0.324100  0.173600  0.004000  1.0
  H  H112  1  0.182833  0.342567  0.670667  1.0
  H  H113  1  0.159733  0.817167  0.670667  1.0
  H  H114  1  0.657433  0.840267  0.670667  1.0
  H  H115  1  0.516167  0.009233  0.337333  1.0
  H  H116  1  0.493067  0.483833  0.337333  1.0
  H  H117  1  0.990767  0.506933  0.337333  1.0
  H  H118  1  0.150500  0.324100  0.996000  1.0
  H  H119  1  0.173600  0.849500  0.996000  1.0
  H  H120  1  0.675900  0.826400  0.996000  1.0
  H  H121  1  0.817167  0.657433  0.329333  1.0
  H  H122  1  0.840267  0.182833  0.329333  1.0
  H  H123  1  0.342567  0.159733  0.329333  1.0
  H  H124  1  0.483833  0.990767  0.662667  1.0
  H  H125  1  0.506933  0.516167  0.662667  1.0
  H  H126  1  0.009233  0.493067  0.662667  1.0
  H  H127  1  0.592600  0.714700  0.898200  1.0
  H  H128  1  0.122100  0.407400  0.898200  1.0
  H  H129  1  0.285300  0.877900  0.898200  1.0
  H  H130  1  0.925933  0.381367  0.564867  1.0
  H  H131  1  0.455433  0.074067  0.564867  1.0
  H  H132  1  0.618633  0.544567  0.564867  1.0
  H  H133  1  0.259267  0.048033  0.231533  1.0
  H  H134  1  0.788767  0.740733  0.231533  1.0
  H  H135  1  0.951967  0.211233  0.231533  1.0
  H  H136  1  0.407400  0.285300  0.101800  1.0
  H  H137  1  0.877900  0.592600  0.101800  1.0
  H  H138  1  0.714700  0.122100  0.101800  1.0
  H  H139  1  0.074067  0.618633  0.435133  1.0
  H  H140  1  0.544567  0.925933  0.435133  1.0
  H  H141  1  0.381367  0.455433  0.435133  1.0
  H  H142  1  0.740733  0.951967  0.768467  1.0
  H  H143  1  0.211233  0.259267  0.768467  1.0
  H  H144  1  0.048033  0.788767  0.768467  1.0
  H  H145  1  0.649700  0.807100  0.880100  1.0
  H  H146  1  0.157400  0.350300  0.880100  1.0
  H  H147  1  0.192900  0.842600  0.880100  1.0
  H  H148  1  0.983033  0.473767  0.546767  1.0
  H  H149  1  0.490733  0.016967  0.546767  1.0
  H  H150  1  0.526233  0.509267  0.546767  1.0
  H  H151  1  0.316367  0.140433  0.213433  1.0
  H  H152  1  0.824067  0.683633  0.213433  1.0
  H  H153  1  0.859567  0.175933  0.213433  1.0
  H  H154  1  0.350300  0.192900  0.119900  1.0
  H  H155  1  0.842600  0.649700  0.119900  1.0
  H  H156  1  0.807100  0.157400  0.119900  1.0
  H  H157  1  0.016967  0.526233  0.453233  1.0
  H  H158  1  0.509267  0.983033  0.453233  1.0
  H  H159  1  0.473767  0.490733  0.453233  1.0
  H  H160  1  0.683633  0.859567  0.786567  1.0
  H  H161  1  0.175933  0.316367  0.786567  1.0
  H  H162  1  0.140433  0.824067  0.786567  1.0
  H  H163  1  0.648900  0.625600  0.855200  1.0
  H  H164  1  0.976700  0.351100  0.855200  1.0
  H  H165  1  0.374400  0.023300  0.855200  1.0
  H  H166  1  0.982233  0.292267  0.521867  1.0
  H  H167  1  0.310033  0.017767  0.521867  1.0
  H  H168  1  0.707733  0.689967  0.521867  1.0
  H  H169  1  0.315567  0.958933  0.188533  1.0
  H  H170  1  0.643367  0.684433  0.188533  1.0
  H  H171  1  0.041067  0.356633  0.188533  1.0
  H  H172  1  0.351100  0.374400  0.144800  1.0
  H  H173  1  0.023300  0.648900  0.144800  1.0
  H  H174  1  0.625600  0.976700  0.144800  1.0
  H  H175  1  0.017767  0.707733  0.478133  1.0
  H  H176  1  0.689967  0.982233  0.478133  1.0
  H  H177  1  0.292267  0.310033  0.478133  1.0
  H  H178  1  0.684433  0.041067  0.811467  1.0
  H  H179  1  0.356633  0.315567  0.811467  1.0
  H  H180  1  0.958933  0.643367  0.811467  1.0
  H  H181  1  0.725900  0.661200  0.814600  1.0
  H  H182  1  0.935300  0.274100  0.814600  1.0
  H  H183  1  0.338800  0.064700  0.814600  1.0
  H  H184  1  0.059233  0.327867  0.481267  1.0
  H  H185  1  0.268633  0.940767  0.481267  1.0
  H  H186  1  0.672133  0.731367  0.481267  1.0
  H  H187  1  0.392567  0.994533  0.147933  1.0
  H  H188  1  0.601967  0.607433  0.147933  1.0
  H  H189  1  0.005467  0.398033  0.147933  1.0
  H  H190  1  0.274100  0.338800  0.185400  1.0
  H  H191  1  0.064700  0.725900  0.185400  1.0
  H  H192  1  0.661200  0.935300  0.185400  1.0
  H  H193  1  0.940767  0.672133  0.518733  1.0
  H  H194  1  0.731367  0.059233  0.518733  1.0
  H  H195  1  0.327867  0.268633  0.518733  1.0
  H  H196  1  0.607433  0.005467  0.852067  1.0
  H  H197  1  0.398033  0.392567  0.852067  1.0
  H  H198  1  0.994533  0.601967  0.852067  1.0
  H  H199  1  0.594000  0.447300  0.870800  1.0
  H  H200  1  0.853300  0.406000  0.870800  1.0
  H  H201  1  0.552700  0.146700  0.870800  1.0
  H  H202  1  0.927333  0.113967  0.537467  1.0
  H  H203  1  0.186633  0.072667  0.537467  1.0
  H  H204  1  0.886033  0.813367  0.537467  1.0
  H  H205  1  0.260667  0.780633  0.204133  1.0
  H  H206  1  0.519967  0.739333  0.204133  1.0
  H  H207  1  0.219367  0.480033  0.204133  1.0
  H  H208  1  0.406000  0.552700  0.129200  1.0
  H  H209  1  0.146700  0.594000  0.129200  1.0
  H  H210  1  0.447300  0.853300  0.129200  1.0
  H  H211  1  0.072667  0.886033  0.462533  1.0
  H  H212  1  0.813367  0.927333  0.462533  1.0
  H  H213  1  0.113967  0.186633  0.462533  1.0
  H  H214  1  0.739333  0.219367  0.795867  1.0
  H  H215  1  0.480033  0.260667  0.795867  1.0
  H  H216  1  0.780633  0.519967  0.795867  1.0
  H  H217  1  0.797300  0.876100  0.804600  1.0
  H  H218  1  0.078800  0.202700  0.804600  1.0
  H  H219  1  0.123900  0.921200  0.804600  1.0
  H  H220  1  0.130633  0.542767  0.471267  1.0
  H  H221  1  0.412133  0.869367  0.471267  1.0
  H  H222  1  0.457233  0.587867  0.471267  1.0
  H  H223  1  0.463967  0.209433  0.137933  1.0
  H  H224  1  0.745467  0.536033  0.137933  1.0
  H  H225  1  0.790567  0.254533  0.137933  1.0
  H  H226  1  0.202700  0.123900  0.195400  1.0
  H  H227  1  0.921200  0.797300  0.195400  1.0
  H  H228  1  0.876100  0.078800  0.195400  1.0
  H  H229  1  0.869367  0.457233  0.528733  1.0
  H  H230  1  0.587867  0.130633  0.528733  1.0
  H  H231  1  0.542767  0.412133  0.528733  1.0
  H  H232  1  0.536033  0.790567  0.862067  1.0
  H  H233  1  0.254533  0.463967  0.862067  1.0
  H  H234  1  0.209433  0.745467  0.862067  1.0
  H  H235  1  0.824300  0.821200  0.778800  1.0
  H  H236  1  0.996900  0.175700  0.778800  1.0
  H  H237  1  0.178800  0.003100  0.778800  1.0
  H  H238  1  0.157633  0.487867  0.445467  1.0
  H  H239  1  0.330233  0.842367  0.445467  1.0
  H  H240  1  0.512133  0.669767  0.445467  1.0
  H  H241  1  0.490967  0.154533  0.112133  1.0
  H  H242  1  0.663567  0.509033  0.112133  1.0
  H  H243  1  0.845467  0.336433  0.112133  1.0
  H  H244  1  0.175700  0.178800  0.221200  1.0
  H  H245  1  0.003100  0.824300  0.221200  1.0
  H  H246  1  0.821200  0.996900  0.221200  1.0
  H  H247  1  0.842367  0.512133  0.554533  1.0
  H  H248  1  0.669767  0.157633  0.554533  1.0
  H  H249  1  0.487867  0.330233  0.554533  1.0
  H  H250  1  0.509033  0.845467  0.887867  1.0
  H  H251  1  0.336433  0.490967  0.887867  1.0
  H  H252  1  0.154533  0.663567  0.887867  1.0
  H  H253  1  0.644200  0.617300  0.978100  1.0
  H  H254  1  0.973100  0.355800  0.978100  1.0
  H  H255  1  0.382700  0.026900  0.978100  1.0
  H  H256  1  0.977533  0.283967  0.644767  1.0
  H  H257  1  0.306433  0.022467  0.644767  1.0
  H  H258  1  0.716033  0.693567  0.644767  1.0
  H  H259  1  0.310867  0.950633  0.311433  1.0
  H  H260  1  0.639767  0.689133  0.311433  1.0
  H  H261  1  0.049367  0.360233  0.311433  1.0
  H  H262  1  0.355800  0.382700  0.021900  1.0
  H  H263  1  0.026900  0.644200  0.021900  1.0
  H  H264  1  0.617300  0.973100  0.021900  1.0
  H  H265  1  0.022467  0.716033  0.355233  1.0
  H  H266  1  0.693567  0.977533  0.355233  1.0
  H  H267  1  0.283967  0.306433  0.355233  1.0
  H  H268  1  0.689133  0.049367  0.688567  1.0
  H  H269  1  0.360233  0.310867  0.688567  1.0
  H  H270  1  0.950633  0.639767  0.688567  1.0
  H  H271  1  0.731100  0.663100  0.000400  1.0
  H  H272  1  0.932000  0.268900  0.000400  1.0
  H  H273  1  0.336900  0.068000  0.000400  1.0
  H  H274  1  0.064433  0.329767  0.667067  1.0
  H  H275  1  0.265333  0.935567  0.667067  1.0
  H  H276  1  0.670233  0.734667  0.667067  1.0
  H  H277  1  0.397767  0.996433  0.333733  1.0
  H  H278  1  0.598667  0.602233  0.333733  1.0
  H  H279  1  0.003567  0.401333  0.333733  1.0
  H  H280  1  0.268900  0.336900  0.999600  1.0
  H  H281  1  0.068000  0.731100  0.999600  1.0
  H  H282  1  0.663100  0.932000  0.999600  1.0
  H  H283  1  0.935567  0.670233  0.332933  1.0
  H  H284  1  0.734667  0.064433  0.332933  1.0
  H  H285  1  0.329767  0.265333  0.332933  1.0
  H  H286  1  0.602233  0.003567  0.666267  1.0
  H  H287  1  0.401333  0.397767  0.666267  1.0
  H  H288  1  0.996433  0.598667  0.666267  1.0
  H  H289  1  0.716800  0.536800  0.938100  1.0
  H  H290  1  0.820000  0.283200  0.938100  1.0
  H  H291  1  0.463200  0.180000  0.938100  1.0
  H  H292  1  0.050133  0.203467  0.604767  1.0
  H  H293  1  0.153333  0.949867  0.604767  1.0
  H  H294  1  0.796533  0.846667  0.604767  1.0
  H  H295  1  0.383467  0.870133  0.271433  1.0
  H  H296  1  0.486667  0.616533  0.271433  1.0
  H  H297  1  0.129867  0.513333  0.271433  1.0
  H  H298  1  0.283200  0.463200  0.061900  1.0
  H  H299  1  0.180000  0.716800  0.061900  1.0
  H  H300  1  0.536800  0.820000  0.061900  1.0
  H  H301  1  0.949867  0.796533  0.395233  1.0
  H  H302  1  0.846667  0.050133  0.395233  1.0
  H  H303  1  0.203467  0.153333  0.395233  1.0
  H  H304  1  0.616533  0.129867  0.728567  1.0
  H  H305  1  0.513333  0.383467  0.728567  1.0
  H  H306  1  0.870133  0.486667  0.728567  1.0
  H  H307  1  0.833100  0.535400  0.937100  1.0
  H  H308  1  0.702300  0.166900  0.937100  1.0
  H  H309  1  0.464600  0.297700  0.937100  1.0
  H  H310  1  0.166433  0.202067  0.603767  1.0
  H  H311  1  0.035633  0.833567  0.603767  1.0
  H  H312  1  0.797933  0.964367  0.603767  1.0
  H  H313  1  0.499767  0.868733  0.270433  1.0
  H  H314  1  0.368967  0.500233  0.270433  1.0
  H  H315  1  0.131267  0.631033  0.270433  1.0
  H  H316  1  0.166900  0.464600  0.062900  1.0
  H  H317  1  0.297700  0.833100  0.062900  1.0
  H  H318  1  0.535400  0.702300  0.062900  1.0
  H  H319  1  0.833567  0.797933  0.396233  1.0
  H  H320  1  0.964367  0.166433  0.396233  1.0
  H  H321  1  0.202067  0.035633  0.396233  1.0
  H  H322  1  0.500233  0.131267  0.729567  1.0
  H  H323  1  0.631033  0.499767  0.729567  1.0
  H  H324  1  0.868733  0.368967  0.729567  1.0
  H  H325  1  0.955200  0.667000  0.996500  1.0
  H  H326  1  0.711800  0.044800  0.996500  1.0
  H  H327  1  0.333000  0.288200  0.996500  1.0
  H  H328  1  0.288533  0.333667  0.663167  1.0
  H  H329  1  0.045133  0.711467  0.663167  1.0
  H  H330  1  0.666333  0.954867  0.663167  1.0
  H  H331  1  0.621867  0.000333  0.329833  1.0
  H  H332  1  0.378467  0.378133  0.329833  1.0
  H  H333  1  0.999667  0.621533  0.329833  1.0
  H  H334  1  0.044800  0.333000  0.003500  1.0
  H  H335  1  0.288200  0.955200  0.003500  1.0
  H  H336  1  0.667000  0.711800  0.003500  1.0
  H  H337  1  0.711467  0.666333  0.336833  1.0
  H  H338  1  0.954867  0.288533  0.336833  1.0
  H  H339  1  0.333667  0.045133  0.336833  1.0
  H  H340  1  0.378133  0.999667  0.670167  1.0
  H  H341  1  0.621533  0.621867  0.670167  1.0
  H  H342  1  0.000333  0.378467  0.670167  1.0
  H  H343  1  0.991800  0.614800  0.974200  1.0
  H  H344  1  0.623000  0.008200  0.974200  1.0
  H  H345  1  0.385200  0.377000  0.974200  1.0
  H  H346  1  0.325133  0.281467  0.640867  1.0
  H  H347  1  0.956333  0.674867  0.640867  1.0
  H  H348  1  0.718533  0.043667  0.640867  1.0
  H  H349  1  0.658467  0.948133  0.307533  1.0
  H  H350  1  0.289667  0.341533  0.307533  1.0
  H  H351  1  0.051867  0.710333  0.307533  1.0
  H  H352  1  0.008200  0.385200  0.025800  1.0
  H  H353  1  0.377000  0.991800  0.025800  1.0
  H  H354  1  0.614800  0.623000  0.025800  1.0
  H  H355  1  0.674867  0.718533  0.359133  1.0
  H  H356  1  0.043667  0.325133  0.359133  1.0
  H  H357  1  0.281467  0.956333  0.359133  1.0
  H  H358  1  0.341533  0.051867  0.692467  1.0
  H  H359  1  0.710333  0.658467  0.692467  1.0
  H  H360  1  0.948133  0.289667  0.692467  1.0
  H  H361  1  0.516600  0.659000  0.956600  1.0
  H  H362  1  0.142400  0.483400  0.956600  1.0
  H  H363  1  0.341000  0.857600  0.956600  1.0
  H  H364  1  0.849933  0.325667  0.623267  1.0
  H  H365  1  0.475733  0.150067  0.623267  1.0
  H  H366  1  0.674333  0.524267  0.623267  1.0
  H  H367  1  0.183267  0.992333  0.289933  1.0
  H  H368  1  0.809067  0.816733  0.289933  1.0
  H  H369  1  0.007667  0.190933  0.289933  1.0
  H  H370  1  0.483400  0.341000  0.043400  1.0
  H  H371  1  0.857600  0.516600  0.043400  1.0
  H  H372  1  0.659000  0.142400  0.043400  1.0
  H  H373  1  0.150067  0.674333  0.376733  1.0
  H  H374  1  0.524267  0.849933  0.376733  1.0
  H  H375  1  0.325667  0.475733  0.376733  1.0
  H  H376  1  0.816733  0.007667  0.710067  1.0
  H  H377  1  0.190933  0.183267  0.710067  1.0
  H  H378  1  0.992333  0.809067  0.710067  1.0
  H  H379  1  0.401000  0.651800  0.996700  1.0
  H  H380  1  0.250800  0.599000  0.996700  1.0
  H  H381  1  0.348200  0.749200  0.996700  1.0
  H  H382  1  0.734333  0.318467  0.663367  1.0
  H  H383  1  0.584133  0.265667  0.663367  1.0
  H  H384  1  0.681533  0.415867  0.663367  1.0
  H  H385  1  0.067667  0.985133  0.330033  1.0
  H  H386  1  0.917467  0.932333  0.330033  1.0
  H  H387  1  0.014867  0.082533  0.330033  1.0
  H  H388  1  0.599000  0.348200  0.003300  1.0
  H  H389  1  0.749200  0.401000  0.003300  1.0
  H  H390  1  0.651800  0.250800  0.003300  1.0
  H  H391  1  0.265667  0.681533  0.336633  1.0
  H  H392  1  0.415867  0.734333  0.336633  1.0
  H  H393  1  0.318467  0.584133  0.336633  1.0
  H  H394  1  0.932333  0.014867  0.669967  1.0
  H  H395  1  0.082533  0.067667  0.669967  1.0
  H  H396  1  0.985133  0.917467  0.669967  1.0
  H  H397  1  0.394500  0.665600  0.971000  1.0
  H  H398  1  0.271100  0.605500  0.971000  1.0
  H  H399  1  0.334400  0.728900  0.971000  1.0
  H  H400  1  0.727833  0.332267  0.637667  1.0
  H  H401  1  0.604433  0.272167  0.637667  1.0
  H  H402  1  0.667733  0.395567  0.637667  1.0
  H  H403  1  0.061167  0.998933  0.304333  1.0
  H  H404  1  0.937767  0.938833  0.304333  1.0
  H  H405  1  0.001067  0.062233  0.304333  1.0
  H  H406  1  0.605500  0.334400  0.029000  1.0
  H  H407  1  0.728900  0.394500  0.029000  1.0
  H  H408  1  0.665600  0.271100  0.029000  1.0
  H  H409  1  0.272167  0.667733  0.362333  1.0
  H  H410  1  0.395567  0.727833  0.362333  1.0
  H  H411  1  0.332267  0.604433  0.362333  1.0
  H  H412  1  0.938833  0.001067  0.695667  1.0
  H  H413  1  0.062233  0.061167  0.695667  1.0
  H  H414  1  0.998933  0.937767  0.695667  1.0
  H  H415  1  0.466400  0.759500  0.989200  1.0
  H  H416  1  0.293100  0.533600  0.989200  1.0
  H  H417  1  0.240500  0.706900  0.989200  1.0
  H  H418  1  0.799733  0.426167  0.655867  1.0
  H  H419  1  0.626433  0.200267  0.655867  1.0
  H  H420  1  0.573833  0.373567  0.655867  1.0
  H  H421  1  0.133067  0.092833  0.322533  1.0
  H  H422  1  0.959767  0.866933  0.322533  1.0
  H  H423  1  0.907167  0.040233  0.322533  1.0
  H  H424  1  0.533600  0.240500  0.010800  1.0
  H  H425  1  0.706900  0.466400  0.010800  1.0
  H  H426  1  0.759500  0.293100  0.010800  1.0
  H  H427  1  0.200267  0.573833  0.344133  1.0
  H  H428  1  0.373567  0.799733  0.344133  1.0
  H  H429  1  0.426167  0.626433  0.344133  1.0
  H  H430  1  0.866933  0.907167  0.677467  1.0
  H  H431  1  0.040233  0.133067  0.677467  1.0
  H  H432  1  0.092833  0.959767  0.677467  1.0
  H  H433  1  0.502100  0.743600  0.970400  1.0
  H  H434  1  0.241500  0.497900  0.970400  1.0
  H  H435  1  0.256400  0.758500  0.970400  1.0
  H  H436  1  0.835433  0.410267  0.637067  1.0
  H  H437  1  0.574833  0.164567  0.637067  1.0
  H  H438  1  0.589733  0.425167  0.637067  1.0
  H  H439  1  0.168767  0.076933  0.303733  1.0
  H  H440  1  0.908167  0.831233  0.303733  1.0
  H  H441  1  0.923067  0.091833  0.303733  1.0
  H  H442  1  0.497900  0.256400  0.029600  1.0
  H  H443  1  0.758500  0.502100  0.029600  1.0
  H  H444  1  0.743600  0.241500  0.029600  1.0
  H  H445  1  0.164567  0.589733  0.362933  1.0
  H  H446  1  0.425167  0.835433  0.362933  1.0
  H  H447  1  0.410267  0.574833  0.362933  1.0
  H  H448  1  0.831233  0.923067  0.696267  1.0
  H  H449  1  0.091833  0.168767  0.696267  1.0
  H  H450  1  0.076933  0.908167  0.696267  1.0
  H  H451  1  0.508400  0.729900  0.996100  1.0
  H  H452  1  0.221500  0.491600  0.996100  1.0
  H  H453  1  0.270100  0.778500  0.996100  1.0
  H  H454  1  0.841733  0.396567  0.662767  1.0
  H  H455  1  0.554833  0.158267  0.662767  1.0
  H  H456  1  0.603433  0.445167  0.662767  1.0
  H  H457  1  0.175067  0.063233  0.329433  1.0
  H  H458  1  0.888167  0.824933  0.329433  1.0
  H  H459  1  0.936767  0.111833  0.329433  1.0
  H  H460  1  0.491600  0.270100  0.003900  1.0
  H  H461  1  0.778500  0.508400  0.003900  1.0
  H  H462  1  0.729900  0.221500  0.003900  1.0
  H  H463  1  0.158267  0.603433  0.337233  1.0
  H  H464  1  0.445167  0.841733  0.337233  1.0
  H  H465  1  0.396567  0.554833  0.337233  1.0
  H  H466  1  0.824933  0.936767  0.670567  1.0
  H  H467  1  0.111833  0.175067  0.670567  1.0
  H  H468  1  0.063233  0.888167  0.670567  1.0
  H  H469  1  0.392000  0.527400  0.978100  1.0
  H  H470  1  0.135400  0.608000  0.978100  1.0
  H  H471  1  0.472600  0.864600  0.978100  1.0
  H  H472  1  0.725333  0.194067  0.644767  1.0
  H  H473  1  0.468733  0.274667  0.644767  1.0
  H  H474  1  0.805933  0.531267  0.644767  1.0
  H  H475  1  0.058667  0.860733  0.311433  1.0
  H  H476  1  0.802067  0.941333  0.311433  1.0
  H  H477  1  0.139267  0.197933  0.311433  1.0
  H  H478  1  0.608000  0.472600  0.021900  1.0
  H  H479  1  0.864600  0.392000  0.021900  1.0
  H  H480  1  0.527400  0.135400  0.021900  1.0
  H  H481  1  0.274667  0.805933  0.355233  1.0
  H  H482  1  0.531267  0.725333  0.355233  1.0
  H  H483  1  0.194067  0.468733  0.355233  1.0
  H  H484  1  0.941333  0.139267  0.688567  1.0
  H  H485  1  0.197933  0.058667  0.688567  1.0
  H  H486  1  0.860733  0.802067  0.688567  1.0
  H  H487  1  0.353000  0.559700  0.986300  1.0
  H  H488  1  0.206700  0.647000  0.986300  1.0
  H  H489  1  0.440300  0.793300  0.986300  1.0
  H  H490  1  0.686333  0.226367  0.652967  1.0
  H  H491  1  0.540033  0.313667  0.652967  1.0
  H  H492  1  0.773633  0.459967  0.652967  1.0
  H  H493  1  0.019667  0.893033  0.319633  1.0
  H  H494  1  0.873367  0.980333  0.319633  1.0
  H  H495  1  0.106967  0.126633  0.319633  1.0
  H  H496  1  0.647000  0.440300  0.013700  1.0
  H  H497  1  0.793300  0.353000  0.013700  1.0
  H  H498  1  0.559700  0.206700  0.013700  1.0
  H  H499  1  0.313667  0.773633  0.347033  1.0
  H  H500  1  0.459967  0.686333  0.347033  1.0
  H  H501  1  0.226367  0.540033  0.347033  1.0
  H  H502  1  0.980333  0.106967  0.680367  1.0
  H  H503  1  0.126633  0.019667  0.680367  1.0
  H  H504  1  0.893033  0.873367  0.680367  1.0
  H  H505  1  0.392000  0.527100  0.018200  1.0
  H  H506  1  0.135100  0.608000  0.018200  1.0
  H  H507  1  0.472900  0.864900  0.018200  1.0
  H  H508  1  0.725333  0.193767  0.684867  1.0
  H  H509  1  0.468433  0.274667  0.684867  1.0
  H  H510  1  0.806233  0.531567  0.684867  1.0
  H  H511  1  0.058667  0.860433  0.351533  1.0
  H  H512  1  0.801767  0.941333  0.351533  1.0
  H  H513  1  0.139567  0.198233  0.351533  1.0
  H  H514  1  0.608000  0.472900  0.981800  1.0
  H  H515  1  0.864900  0.392000  0.981800  1.0
  H  H516  1  0.527100  0.135100  0.981800  1.0
  H  H517  1  0.274667  0.806233  0.315133  1.0
  H  H518  1  0.531567  0.725333  0.315133  1.0
  H  H519  1  0.193767  0.468433  0.315133  1.0
  H  H520  1  0.941333  0.139567  0.648467  1.0
  H  H521  1  0.198233  0.058667  0.648467  1.0
  H  H522  1  0.860433  0.801767  0.648467  1.0
  H  H523  1  0.418000  0.600500  0.018700  1.0
  H  H524  1  0.182500  0.582000  0.018700  1.0
  H  H525  1  0.399500  0.817500  0.018700  1.0
  H  H526  1  0.751333  0.267167  0.685367  1.0
  H  H527  1  0.515833  0.248667  0.685367  1.0
  H  H528  1  0.732833  0.484167  0.685367  1.0
  H  H529  1  0.084667  0.933833  0.352033  1.0
  H  H530  1  0.849167  0.915333  0.352033  1.0
  H  H531  1  0.066167  0.150833  0.352033  1.0
  H  H532  1  0.582000  0.399500  0.981300  1.0
  H  H533  1  0.817500  0.418000  0.981300  1.0
  H  H534  1  0.600500  0.182500  0.981300  1.0
  H  H535  1  0.248667  0.732833  0.314633  1.0
  H  H536  1  0.484167  0.751333  0.314633  1.0
  H  H537  1  0.267167  0.515833  0.314633  1.0
  H  H538  1  0.915333  0.066167  0.647967  1.0
  H  H539  1  0.150833  0.084667  0.647967  1.0
  H  H540  1  0.933833  0.849167  0.647967  1.0
  H  H541  1  0.461500  0.574200  0.010100  1.0
  H  H542  1  0.112700  0.538500  0.010100  1.0
  H  H543  1  0.425800  0.887300  0.010100  1.0
  H  H544  1  0.794833  0.240867  0.676767  1.0
  H  H545  1  0.446033  0.205167  0.676767  1.0
  H  H546  1  0.759133  0.553967  0.676767  1.0
  H  H547  1  0.128167  0.907533  0.343433  1.0
  H  H548  1  0.779367  0.871833  0.343433  1.0
  H  H549  1  0.092467  0.220633  0.343433  1.0
  H  H550  1  0.538500  0.425800  0.989900  1.0
  H  H551  1  0.887300  0.461500  0.989900  1.0
  H  H552  1  0.574200  0.112700  0.989900  1.0
  H  H553  1  0.205167  0.759133  0.323233  1.0
  H  H554  1  0.553967  0.794833  0.323233  1.0
  H  H555  1  0.240867  0.446033  0.323233  1.0
  H  H556  1  0.871833  0.092467  0.656567  1.0
  H  H557  1  0.220633  0.128167  0.656567  1.0
  H  H558  1  0.907533  0.779367  0.656567  1.0
  C  C559  1  0.579900  0.602400  0.892380  1.0
  C  C560  1  0.022500  0.420100  0.892380  1.0
  C  C561  1  0.397600  0.977500  0.892380  1.0
  C  C562  1  0.913233  0.269067  0.559047  1.0
  C  C563  1  0.355833  0.086767  0.559047  1.0
  C  C564  1  0.730933  0.644167  0.559047  1.0
  C  C565  1  0.246567  0.935733  0.225713  1.0
  C  C566  1  0.689167  0.753433  0.225713  1.0
  C  C567  1  0.064267  0.310833  0.225713  1.0
  C  C568  1  0.420100  0.397600  0.107620  1.0
  C  C569  1  0.977500  0.579900  0.107620  1.0
  C  C570  1  0.602400  0.022500  0.107620  1.0
  C  C571  1  0.086767  0.730933  0.440953  1.0
  C  C572  1  0.644167  0.913233  0.440953  1.0
  C  C573  1  0.269067  0.355833  0.440953  1.0
  C  C574  1  0.753433  0.064267  0.774287  1.0
  C  C575  1  0.310833  0.246567  0.774287  1.0
  C  C576  1  0.935733  0.689167  0.774287  1.0
  C  C577  1  0.617100  0.661500  0.879580  1.0
  C  C578  1  0.044400  0.382900  0.879580  1.0
  C  C579  1  0.338500  0.955600  0.879580  1.0
  C  C580  1  0.950433  0.328167  0.546247  1.0
  C  C581  1  0.377733  0.049567  0.546247  1.0
  C  C582  1  0.671833  0.622267  0.546247  1.0
  C  C583  1  0.283767  0.994833  0.212913  1.0
  C  C584  1  0.711067  0.716233  0.212913  1.0
  C  C585  1  0.005167  0.288933  0.212913  1.0
  C  C586  1  0.382900  0.338500  0.120420  1.0
  C  C587  1  0.955600  0.617100  0.120420  1.0
  C  C588  1  0.661500  0.044400  0.120420  1.0
  C  C589  1  0.049567  0.671833  0.453753  1.0
  C  C590  1  0.622267  0.950433  0.453753  1.0
  C  C591  1  0.328167  0.377733  0.453753  1.0
  C  C592  1  0.716233  0.005167  0.787087  1.0
  C  C593  1  0.288933  0.283767  0.787087  1.0
  C  C594  1  0.994833  0.711067  0.787087  1.0
  C  C595  1  0.617200  0.716400  0.885780  1.0
  C  C596  1  0.099200  0.382800  0.885780  1.0
  C  C597  1  0.283600  0.900800  0.885780  1.0
  C  C598  1  0.950533  0.383067  0.552447  1.0
  C  C599  1  0.432533  0.049467  0.552447  1.0
  C  C600  1  0.616933  0.567467  0.552447  1.0
  C  C601  1  0.283867  0.049733  0.219113  1.0
  C  C602  1  0.765867  0.716133  0.219113  1.0
  C  C603  1  0.950267  0.234133  0.219113  1.0
  C  C604  1  0.382800  0.283600  0.114220  1.0
  C  C605  1  0.900800  0.617200  0.114220  1.0
  C  C606  1  0.716400  0.099200  0.114220  1.0
  C  C607  1  0.049467  0.616933  0.447553  1.0
  C  C608  1  0.567467  0.950533  0.447553  1.0
  C  C609  1  0.383067  0.432533  0.447553  1.0
  C  C610  1  0.716133  0.950267  0.780887  1.0
  C  C611  1  0.234133  0.283867  0.780887  1.0
  C  C612  1  0.049733  0.765867  0.780887  1.0
  C  C613  1  0.650000  0.770800  0.875150  1.0
  C  C614  1  0.120800  0.350000  0.875150  1.0
  C  C615  1  0.229200  0.879200  0.875150  1.0
  C  C616  1  0.983333  0.437467  0.541817  1.0
  C  C617  1  0.454133  0.016667  0.541817  1.0
  C  C618  1  0.562533  0.545867  0.541817  1.0
  C  C619  1  0.316667  0.104133  0.208483  1.0
  C  C620  1  0.787467  0.683333  0.208483  1.0
  C  C621  1  0.895867  0.212533  0.208483  1.0
  C  C622  1  0.350000  0.229200  0.124850  1.0
  C  C623  1  0.879200  0.650000  0.124850  1.0
  C  C624  1  0.770800  0.120800  0.124850  1.0
  C  C625  1  0.016667  0.562533  0.458183  1.0
  C  C626  1  0.545867  0.983333  0.458183  1.0
  C  C627  1  0.437467  0.454133  0.458183  1.0
  C  C628  1  0.683333  0.895867  0.791517  1.0
  C  C629  1  0.212533  0.316667  0.791517  1.0
  C  C630  1  0.104133  0.787467  0.791517  1.0
  C  C631  1  0.685800  0.772700  0.856030  1.0
  C  C632  1  0.086900  0.314200  0.856030  1.0
  C  C633  1  0.227300  0.913100  0.856030  1.0
  C  C634  1  0.019133  0.439367  0.522697  1.0
  C  C635  1  0.420233  0.980867  0.522697  1.0
  C  C636  1  0.560633  0.579767  0.522697  1.0
  C  C637  1  0.352467  0.106033  0.189363  1.0
  C  C638  1  0.753567  0.647533  0.189363  1.0
  C  C639  1  0.893967  0.246433  0.189363  1.0
  C  C640  1  0.314200  0.227300  0.143970  1.0
  C  C641  1  0.913100  0.685800  0.143970  1.0
  C  C642  1  0.772700  0.086900  0.143970  1.0
  C  C643  1  0.980867  0.560633  0.477303  1.0
  C  C644  1  0.579767  0.019133  0.477303  1.0
  C  C645  1  0.439367  0.420233  0.477303  1.0
  C  C646  1  0.647533  0.893967  0.810637  1.0
  C  C647  1  0.246433  0.352467  0.810637  1.0
  C  C648  1  0.106033  0.753567  0.810637  1.0
  C  C649  1  0.685400  0.717500  0.848380  1.0
  C  C650  1  0.032100  0.314600  0.848380  1.0
  C  C651  1  0.282500  0.967900  0.848380  1.0
  C  C652  1  0.018733  0.384167  0.515047  1.0
  C  C653  1  0.365433  0.981267  0.515047  1.0
  C  C654  1  0.615833  0.634567  0.515047  1.0
  C  C655  1  0.352067  0.050833  0.181713  1.0
  C  C656  1  0.698767  0.647933  0.181713  1.0
  C  C657  1  0.949167  0.301233  0.181713  1.0
  C  C658  1  0.314600  0.282500  0.151620  1.0
  C  C659  1  0.967900  0.685400  0.151620  1.0
  C  C660  1  0.717500  0.032100  0.151620  1.0
  C  C661  1  0.981267  0.615833  0.484953  1.0
  C  C662  1  0.634567  0.018733  0.484953  1.0
  C  C663  1  0.384167  0.365433  0.484953  1.0
  C  C664  1  0.647933  0.949167  0.818287  1.0
  C  C665  1  0.301233  0.352067  0.818287  1.0
  C  C666  1  0.050833  0.698767  0.818287  1.0
  C  C667  1  0.650500  0.662700  0.860160  1.0
  C  C668  1  0.012200  0.349500  0.860160  1.0
  C  C669  1  0.337300  0.987800  0.860160  1.0
  C  C670  1  0.983833  0.329367  0.526827  1.0
  C  C671  1  0.345533  0.016167  0.526827  1.0
  C  C672  1  0.670633  0.654467  0.526827  1.0
  C  C673  1  0.317167  0.996033  0.193493  1.0
  C  C674  1  0.678867  0.682833  0.193493  1.0
  C  C675  1  0.003967  0.321133  0.193493  1.0
  C  C676  1  0.349500  0.337300  0.139840  1.0
  C  C677  1  0.987800  0.650500  0.139840  1.0
  C  C678  1  0.662700  0.012200  0.139840  1.0
  C  C679  1  0.016167  0.670633  0.473173  1.0
  C  C680  1  0.654467  0.983833  0.473173  1.0
  C  C681  1  0.329367  0.345533  0.473173  1.0
  C  C682  1  0.682833  0.003967  0.806507  1.0
  C  C683  1  0.321133  0.317167  0.806507  1.0
  C  C684  1  0.996033  0.678867  0.806507  1.0
  C  C685  1  0.740200  0.704200  0.812750  1.0
  C  C686  1  0.964000  0.259800  0.812750  1.0
  C  C687  1  0.295800  0.036000  0.812750  1.0
  C  C688  1  0.073533  0.370867  0.479417  1.0
  C  C689  1  0.297333  0.926467  0.479417  1.0
  C  C690  1  0.629133  0.702667  0.479417  1.0
  C  C691  1  0.406867  0.037533  0.146083  1.0
  C  C692  1  0.630667  0.593133  0.146083  1.0
  C  C693  1  0.962467  0.369333  0.146083  1.0
  C  C694  1  0.259800  0.295800  0.187250  1.0
  C  C695  1  0.036000  0.740200  0.187250  1.0
  C  C696  1  0.704200  0.964000  0.187250  1.0
  C  C697  1  0.926467  0.629133  0.520583  1.0
  C  C698  1  0.702667  0.073533  0.520583  1.0
  C  C699  1  0.370867  0.297333  0.520583  1.0
  C  C700  1  0.593133  0.962467  0.853917  1.0
  C  C701  1  0.369333  0.406867  0.853917  1.0
  C  C702  1  0.037533  0.630667  0.853917  1.0
  C  C703  1  0.722800  0.734900  0.827990  1.0
  C  C704  1  0.012100  0.277200  0.827990  1.0
  C  C705  1  0.265100  0.987900  0.827990  1.0
  C  C706  1  0.056133  0.401567  0.494657  1.0
  C  C707  1  0.345433  0.943867  0.494657  1.0
  C  C708  1  0.598433  0.654567  0.494657  1.0
  C  C709  1  0.389467  0.068233  0.161323  1.0
  C  C710  1  0.678767  0.610533  0.161323  1.0
  C  C711  1  0.931767  0.321233  0.161323  1.0
  C  C712  1  0.277200  0.265100  0.172010  1.0
  C  C713  1  0.987900  0.722800  0.172010  1.0
  C  C714  1  0.734900  0.012100  0.172010  1.0
  C  C715  1  0.943867  0.598433  0.505343  1.0
  C  C716  1  0.654567  0.056133  0.505343  1.0
  C  C717  1  0.401567  0.345433  0.505343  1.0
  C  C718  1  0.610533  0.931767  0.838677  1.0
  C  C719  1  0.321233  0.389467  0.838677  1.0
  C  C720  1  0.068233  0.678767  0.838677  1.0
  C  C721  1  0.744700  0.799800  0.824520  1.0
  C  C722  1  0.055100  0.255300  0.824520  1.0
  C  C723  1  0.200200  0.944900  0.824520  1.0
  C  C724  1  0.078033  0.466467  0.491187  1.0
  C  C725  1  0.388433  0.921967  0.491187  1.0
  C  C726  1  0.533533  0.611567  0.491187  1.0
  C  C727  1  0.411367  0.133133  0.157853  1.0
  C  C728  1  0.721767  0.588633  0.157853  1.0
  C  C729  1  0.866867  0.278233  0.157853  1.0
  C  C730  1  0.255300  0.200200  0.175480  1.0
  C  C731  1  0.944900  0.744700  0.175480  1.0
  C  C732  1  0.799800  0.055100  0.175480  1.0
  C  C733  1  0.921967  0.533533  0.508813  1.0
  C  C734  1  0.611567  0.078033  0.508813  1.0
  C  C735  1  0.466467  0.388433  0.508813  1.0
  C  C736  1  0.588633  0.866867  0.842147  1.0
  C  C737  1  0.278233  0.411367  0.842147  1.0
  C  C738  1  0.133133  0.721767  0.842147  1.0
  C  C739  1  0.782900  0.833000  0.806510  1.0
  C  C740  1  0.050100  0.217100  0.806510  1.0
  C  C741  1  0.167000  0.949900  0.806510  1.0
  C  C742  1  0.116233  0.499667  0.473177  1.0
  C  C743  1  0.383433  0.883767  0.473177  1.0
  C  C744  1  0.500333  0.616567  0.473177  1.0
  C  C745  1  0.449567  0.166333  0.139843  1.0
  C  C746  1  0.716767  0.550433  0.139843  1.0
  C  C747  1  0.833667  0.283233  0.139843  1.0
  C  C748  1  0.217100  0.167000  0.193490  1.0
  C  C749  1  0.949900  0.782900  0.193490  1.0
  C  C750  1  0.833000  0.050100  0.193490  1.0
  C  C751  1  0.883767  0.500333  0.526823  1.0
  C  C752  1  0.616567  0.116233  0.526823  1.0
  C  C753  1  0.499667  0.383433  0.526823  1.0
  C  C754  1  0.550433  0.833667  0.860157  1.0
  C  C755  1  0.283233  0.449567  0.860157  1.0
  C  C756  1  0.166333  0.716767  0.860157  1.0
  C  C757  1  0.799200  0.800300  0.791410  1.0
  C  C758  1  0.001100  0.200800  0.791410  1.0
  C  C759  1  0.199700  0.998900  0.791410  1.0
  C  C760  1  0.132533  0.466967  0.458077  1.0
  C  C761  1  0.334433  0.867467  0.458077  1.0
  C  C762  1  0.533033  0.665567  0.458077  1.0
  C  C763  1  0.465867  0.133633  0.124743  1.0
  C  C764  1  0.667767  0.534133  0.124743  1.0
  C  C765  1  0.866367  0.332233  0.124743  1.0
  C  C766  1  0.200800  0.199700  0.208590  1.0
  C  C767  1  0.998900  0.799200  0.208590  1.0
  C  C768  1  0.800300  0.001100  0.208590  1.0
  C  C769  1  0.867467  0.533033  0.541923  1.0
  C  C770  1  0.665567  0.132533  0.541923  1.0
  C  C771  1  0.466967  0.334433  0.541923  1.0
  C  C772  1  0.534133  0.866367  0.875257  1.0
  C  C773  1  0.332233  0.465867  0.875257  1.0
  C  C774  1  0.133633  0.667767  0.875257  1.0
  C  C775  1  0.778500  0.735900  0.794760  1.0
  C  C776  1  0.957400  0.221500  0.794760  1.0
  C  C777  1  0.264100  0.042600  0.794760  1.0
  C  C778  1  0.111833  0.402567  0.461427  1.0
  C  C779  1  0.290733  0.888167  0.461427  1.0
  C  C780  1  0.597433  0.709267  0.461427  1.0
  C  C781  1  0.445167  0.069233  0.128093  1.0
  C  C782  1  0.624067  0.554833  0.128093  1.0
  C  C783  1  0.930767  0.375933  0.128093  1.0
  C  C784  1  0.221500  0.264100  0.205240  1.0
  C  C785  1  0.042600  0.778500  0.205240  1.0
  C  C786  1  0.735900  0.957400  0.205240  1.0
  C  C787  1  0.888167  0.597433  0.538573  1.0
  C  C788  1  0.709267  0.111833  0.538573  1.0
  C  C789  1  0.402567  0.290733  0.538573  1.0
  C  C790  1  0.554833  0.930767  0.871907  1.0
  C  C791  1  0.375933  0.445167  0.871907  1.0
  C  C792  1  0.069233  0.624067  0.871907  1.0
  C  C793  1  0.798000  0.701900  0.777970  1.0
  C  C794  1  0.903900  0.202000  0.777970  1.0
  C  C795  1  0.298100  0.096100  0.777970  1.0
  C  C796  1  0.131333  0.368567  0.444637  1.0
  C  C797  1  0.237233  0.868667  0.444637  1.0
  C  C798  1  0.631433  0.762767  0.444637  1.0
  C  C799  1  0.464667  0.035233  0.111303  1.0
  C  C800  1  0.570567  0.535333  0.111303  1.0
  C  C801  1  0.964767  0.429433  0.111303  1.0
  C  C802  1  0.202000  0.298100  0.222030  1.0
  C  C803  1  0.096100  0.798000  0.222030  1.0
  C  C804  1  0.701900  0.903900  0.222030  1.0
  C  C805  1  0.868667  0.631433  0.555363  1.0
  C  C806  1  0.762767  0.131333  0.555363  1.0
  C  C807  1  0.368567  0.237233  0.555363  1.0
  C  C808  1  0.535333  0.964767  0.888697  1.0
  C  C809  1  0.429433  0.464667  0.888697  1.0
  C  C810  1  0.035233  0.570567  0.888697  1.0
  C  C811  1  0.614200  0.545000  0.941670  1.0
  C  C812  1  0.930800  0.385800  0.941670  1.0
  C  C813  1  0.455000  0.069200  0.941670  1.0
  C  C814  1  0.947533  0.211667  0.608337  1.0
  C  C815  1  0.264133  0.052467  0.608337  1.0
  C  C816  1  0.788333  0.735867  0.608337  1.0
  C  C817  1  0.280867  0.878333  0.275003  1.0
  C  C818  1  0.597467  0.719133  0.275003  1.0
  C  C819  1  0.121667  0.402533  0.275003  1.0
  C  C820  1  0.385800  0.455000  0.058330  1.0
  C  C821  1  0.069200  0.614200  0.058330  1.0
  C  C822  1  0.545000  0.930800  0.058330  1.0
  C  C823  1  0.052467  0.788333  0.391663  1.0
  C  C824  1  0.735867  0.947533  0.391663  1.0
  C  C825  1  0.211667  0.264133  0.391663  1.0
  C  C826  1  0.719133  0.121667  0.724997  1.0
  C  C827  1  0.402533  0.280867  0.724997  1.0
  C  C828  1  0.878333  0.597467  0.724997  1.0
  C  C829  1  0.670900  0.570900  0.955920  1.0
  C  C830  1  0.900000  0.329100  0.955920  1.0
  C  C831  1  0.429100  0.100000  0.955920  1.0
  C  C832  1  0.004233  0.237567  0.622587  1.0
  C  C833  1  0.233333  0.995767  0.622587  1.0
  C  C834  1  0.762433  0.766667  0.622587  1.0
  C  C835  1  0.337567  0.904233  0.289253  1.0
  C  C836  1  0.566667  0.662433  0.289253  1.0
  C  C837  1  0.095767  0.433333  0.289253  1.0
  C  C838  1  0.329100  0.429100  0.044080  1.0
  C  C839  1  0.100000  0.670900  0.044080  1.0
  C  C840  1  0.570900  0.900000  0.044080  1.0
  C  C841  1  0.995767  0.762433  0.377413  1.0
  C  C842  1  0.766667  0.004233  0.377413  1.0
  C  C843  1  0.237567  0.233333  0.377413  1.0
  C  C844  1  0.662433  0.095767  0.710747  1.0
  C  C845  1  0.433333  0.337567  0.710747  1.0
  C  C846  1  0.904233  0.566667  0.710747  1.0
  C  C847  1  0.677700  0.610300  0.974770  1.0
  C  C848  1  0.932600  0.322300  0.974770  1.0
  C  C849  1  0.389700  0.067400  0.974770  1.0
  C  C850  1  0.011033  0.276967  0.641437  1.0
  C  C851  1  0.265933  0.988967  0.641437  1.0
  C  C852  1  0.723033  0.734067  0.641437  1.0
  C  C853  1  0.344367  0.943633  0.308103  1.0
  C  C854  1  0.599267  0.655633  0.308103  1.0
  C  C855  1  0.056367  0.400733  0.308103  1.0
  C  C856  1  0.322300  0.389700  0.025230  1.0
  C  C857  1  0.067400  0.677700  0.025230  1.0
  C  C858  1  0.610300  0.932600  0.025230  1.0
  C  C859  1  0.988967  0.723033  0.358563  1.0
  C  C860  1  0.734067  0.011033  0.358563  1.0
  C  C861  1  0.276967  0.265933  0.358563  1.0
  C  C862  1  0.655633  0.056367  0.691897  1.0
  C  C863  1  0.400733  0.344367  0.691897  1.0
  C  C864  1  0.943633  0.599267  0.691897  1.0
  C  C865  1  0.728900  0.638000  0.988050  1.0
  C  C866  1  0.909100  0.271100  0.988050  1.0
  C  C867  1  0.362000  0.090900  0.988050  1.0
  C  C868  1  0.062233  0.304667  0.654717  1.0
  C  C869  1  0.242433  0.937767  0.654717  1.0
  C  C870  1  0.695333  0.757567  0.654717  1.0
  C  C871  1  0.395567  0.971333  0.321383  1.0
  C  C872  1  0.575767  0.604433  0.321383  1.0
  C  C873  1  0.028667  0.424233  0.321383  1.0
  C  C874  1  0.271100  0.362000  0.011950  1.0
  C  C875  1  0.090900  0.728900  0.011950  1.0
  C  C876  1  0.638000  0.909100  0.011950  1.0
  C  C877  1  0.937767  0.695333  0.345283  1.0
  C  C878  1  0.757567  0.062233  0.345283  1.0
  C  C879  1  0.304667  0.242433  0.345283  1.0
  C  C880  1  0.604433  0.028667  0.678617  1.0
  C  C881  1  0.424233  0.395567  0.678617  1.0
  C  C882  1  0.971333  0.575767  0.678617  1.0
  C  C883  1  0.779100  0.627800  0.982790  1.0
  C  C884  1  0.848700  0.220900  0.982790  1.0
  C  C885  1  0.372200  0.151300  0.982790  1.0
  C  C886  1  0.112433  0.294467  0.649457  1.0
  C  C887  1  0.182033  0.887567  0.649457  1.0
  C  C888  1  0.705533  0.817967  0.649457  1.0
  C  C889  1  0.445767  0.961133  0.316123  1.0
  C  C890  1  0.515367  0.554233  0.316123  1.0
  C  C891  1  0.038867  0.484633  0.316123  1.0
  C  C892  1  0.220900  0.372200  0.017210  1.0
  C  C893  1  0.151300  0.779100  0.017210  1.0
  C  C894  1  0.627800  0.848700  0.017210  1.0
  C  C895  1  0.887567  0.705533  0.350543  1.0
  C  C896  1  0.817967  0.112433  0.350543  1.0
  C  C897  1  0.294467  0.182033  0.350543  1.0
  C  C898  1  0.554233  0.038867  0.683877  1.0
  C  C899  1  0.484633  0.445767  0.683877  1.0
  C  C900  1  0.961133  0.515367  0.683877  1.0
  C  C901  1  0.773600  0.587700  0.963930  1.0
  C  C902  1  0.814100  0.226400  0.963930  1.0
  C  C903  1  0.412300  0.185900  0.963930  1.0
  C  C904  1  0.106933  0.254367  0.630597  1.0
  C  C905  1  0.147433  0.893067  0.630597  1.0
  C  C906  1  0.745633  0.852567  0.630597  1.0
  C  C907  1  0.440267  0.921033  0.297263  1.0
  C  C908  1  0.480767  0.559733  0.297263  1.0
  C  C909  1  0.078967  0.519233  0.297263  1.0
  C  C910  1  0.226400  0.412300  0.036070  1.0
  C  C911  1  0.185900  0.773600  0.036070  1.0
  C  C912  1  0.587700  0.814100  0.036070  1.0
  C  C913  1  0.893067  0.745633  0.369403  1.0
  C  C914  1  0.852567  0.106933  0.369403  1.0
  C  C915  1  0.254367  0.147433  0.369403  1.0
  C  C916  1  0.559733  0.078967  0.702737  1.0
  C  C917  1  0.519233  0.440267  0.702737  1.0
  C  C918  1  0.921033  0.480767  0.702737  1.0
  C  C919  1  0.719700  0.561400  0.950730  1.0
  C  C920  1  0.841700  0.280300  0.950730  1.0
  C  C921  1  0.438600  0.158300  0.950730  1.0
  C  C922  1  0.053033  0.228067  0.617397  1.0
  C  C923  1  0.175033  0.946967  0.617397  1.0
  C  C924  1  0.771933  0.824967  0.617397  1.0
  C  C925  1  0.386367  0.894733  0.284063  1.0
  C  C926  1  0.508367  0.613633  0.284063  1.0
  C  C927  1  0.105267  0.491633  0.284063  1.0
  C  C928  1  0.280300  0.438600  0.049270  1.0
  C  C929  1  0.158300  0.719700  0.049270  1.0
  C  C930  1  0.561400  0.841700  0.049270  1.0
  C  C931  1  0.946967  0.771933  0.382603  1.0
  C  C932  1  0.824967  0.053033  0.382603  1.0
  C  C933  1  0.228067  0.175033  0.382603  1.0
  C  C934  1  0.613633  0.105267  0.715937  1.0
  C  C935  1  0.491633  0.386367  0.715937  1.0
  C  C936  1  0.894733  0.508367  0.715937  1.0
  C  C937  1  0.857300  0.561400  0.949150  1.0
  C  C938  1  0.704100  0.142700  0.949150  1.0
  C  C939  1  0.438600  0.295900  0.949150  1.0
  C  C940  1  0.190633  0.228067  0.615817  1.0
  C  C941  1  0.037433  0.809367  0.615817  1.0
  C  C942  1  0.771933  0.962567  0.615817  1.0
  C  C943  1  0.523967  0.894733  0.282483  1.0
  C  C944  1  0.370767  0.476033  0.282483  1.0
  C  C945  1  0.105267  0.629233  0.282483  1.0
  C  C946  1  0.142700  0.438600  0.050850  1.0
  C  C947  1  0.295900  0.857300  0.050850  1.0
  C  C948  1  0.561400  0.704100  0.050850  1.0
  C  C949  1  0.809367  0.771933  0.384183  1.0
  C  C950  1  0.962567  0.190633  0.384183  1.0
  C  C951  1  0.228067  0.037433  0.384183  1.0
  C  C952  1  0.476033  0.105267  0.717517  1.0
  C  C953  1  0.629233  0.523967  0.717517  1.0
  C  C954  1  0.894733  0.370767  0.717517  1.0
  C  C955  1  0.832700  0.589800  0.962750  1.0
  C  C956  1  0.757100  0.167300  0.962750  1.0
  C  C957  1  0.410200  0.242900  0.962750  1.0
  C  C958  1  0.166033  0.256467  0.629417  1.0
  C  C959  1  0.090433  0.833967  0.629417  1.0
  C  C960  1  0.743533  0.909567  0.629417  1.0
  C  C961  1  0.499367  0.923133  0.296083  1.0
  C  C962  1  0.423767  0.500633  0.296083  1.0
  C  C963  1  0.076867  0.576233  0.296083  1.0
  C  C964  1  0.167300  0.410200  0.037250  1.0
  C  C965  1  0.242900  0.832700  0.037250  1.0
  C  C966  1  0.589800  0.757100  0.037250  1.0
  C  C967  1  0.833967  0.743533  0.370583  1.0
  C  C968  1  0.909567  0.166033  0.370583  1.0
  C  C969  1  0.256467  0.090433  0.370583  1.0
  C  C970  1  0.500633  0.076867  0.703917  1.0
  C  C971  1  0.576233  0.499367  0.703917  1.0
  C  C972  1  0.923133  0.423767  0.703917  1.0
  C  C973  1  0.870200  0.629400  0.981060  1.0
  C  C974  1  0.759200  0.129800  0.981060  1.0
  C  C975  1  0.370600  0.240800  0.981060  1.0
  C  C976  1  0.203533  0.296067  0.647727  1.0
  C  C977  1  0.092533  0.796467  0.647727  1.0
  C  C978  1  0.703933  0.907467  0.647727  1.0
  C  C979  1  0.536867  0.962733  0.314393  1.0
  C  C980  1  0.425867  0.463133  0.314393  1.0
  C  C981  1  0.037267  0.574133  0.314393  1.0
  C  C982  1  0.129800  0.370600  0.018940  1.0
  C  C983  1  0.240800  0.870200  0.018940  1.0
  C  C984  1  0.629400  0.759200  0.018940  1.0
  C  C985  1  0.796467  0.703933  0.352273  1.0
  C  C986  1  0.907467  0.203533  0.352273  1.0
  C  C987  1  0.296067  0.092533  0.352273  1.0
  C  C988  1  0.463133  0.037267  0.685607  1.0
  C  C989  1  0.574133  0.536867  0.685607  1.0
  C  C990  1  0.962733  0.425867  0.685607  1.0
  C  C991  1  0.930000  0.639900  0.984920  1.0
  C  C992  1  0.709900  0.070000  0.984920  1.0
  C  C993  1  0.360100  0.290100  0.984920  1.0
  C  C994  1  0.263333  0.306567  0.651587  1.0
  C  C995  1  0.043233  0.736667  0.651587  1.0
  C  C996  1  0.693433  0.956767  0.651587  1.0
  C  C997  1  0.596667  0.973233  0.318253  1.0
  C  C998  1  0.376567  0.403333  0.318253  1.0
  C  C999  1  0.026767  0.623433  0.318253  1.0
  C  C1000  1  0.070000  0.360100  0.015080  1.0
  C  C1001  1  0.290100  0.930000  0.015080  1.0
  C  C1002  1  0.639900  0.709900  0.015080  1.0
  C  C1003  1  0.736667  0.693433  0.348413  1.0
  C  C1004  1  0.956767  0.263333  0.348413  1.0
  C  C1005  1  0.306567  0.043233  0.348413  1.0
  C  C1006  1  0.403333  0.026767  0.681747  1.0
  C  C1007  1  0.623433  0.596667  0.681747  1.0
  C  C1008  1  0.973233  0.376567  0.681747  1.0
  C  C1009  1  0.951900  0.609500  0.971290  1.0
  C  C1010  1  0.657600  0.048100  0.971290  1.0
  C  C1011  1  0.390500  0.342400  0.971290  1.0
  C  C1012  1  0.285233  0.276167  0.637957  1.0
  C  C1013  1  0.990933  0.714767  0.637957  1.0
  C  C1014  1  0.723833  0.009067  0.637957  1.0
  C  C1015  1  0.618567  0.942833  0.304623  1.0
  C  C1016  1  0.324267  0.381433  0.304623  1.0
  C  C1017  1  0.057167  0.675733  0.304623  1.0
  C  C1018  1  0.048100  0.390500  0.028710  1.0
  C  C1019  1  0.342400  0.951900  0.028710  1.0
  C  C1020  1  0.609500  0.657600  0.028710  1.0
  C  C1021  1  0.714767  0.723833  0.362043  1.0
  C  C1022  1  0.009067  0.285233  0.362043  1.0
  C  C1023  1  0.276167  0.990933  0.362043  1.0
  C  C1024  1  0.381433  0.057167  0.695377  1.0
  C  C1025  1  0.675733  0.618567  0.695377  1.0
  C  C1026  1  0.942833  0.324267  0.695377  1.0
  C  C1027  1  0.916600  0.570600  0.953020  1.0
  C  C1028  1  0.654000  0.083400  0.953020  1.0
  C  C1029  1  0.429400  0.346000  0.953020  1.0
  C  C1030  1  0.249933  0.237267  0.619687  1.0
  C  C1031  1  0.987333  0.750067  0.619687  1.0
  C  C1032  1  0.762733  0.012667  0.619687  1.0
  C  C1033  1  0.583267  0.903933  0.286353  1.0
  C  C1034  1  0.320667  0.416733  0.286353  1.0
  C  C1035  1  0.096067  0.679333  0.286353  1.0
  C  C1036  1  0.083400  0.429400  0.046980  1.0
  C  C1037  1  0.346000  0.916600  0.046980  1.0
  C  C1038  1  0.570600  0.654000  0.046980  1.0
  C  C1039  1  0.750067  0.762733  0.380313  1.0
  C  C1040  1  0.012667  0.249933  0.380313  1.0
  C  C1041  1  0.237267  0.987333  0.380313  1.0
  C  C1042  1  0.416733  0.096067  0.713647  1.0
  C  C1043  1  0.679333  0.583267  0.713647  1.0
  C  C1044  1  0.903933  0.320667  0.713647  1.0
  C  C1045  1  0.941300  0.537000  0.938720  1.0
  C  C1046  1  0.595700  0.058700  0.938720  1.0
  C  C1047  1  0.463000  0.404300  0.938720  1.0
  C  C1048  1  0.274633  0.203667  0.605387  1.0
  C  C1049  1  0.929033  0.725367  0.605387  1.0
  C  C1050  1  0.796333  0.070967  0.605387  1.0
  C  C1051  1  0.607967  0.870333  0.272053  1.0
  C  C1052  1  0.262367  0.392033  0.272053  1.0
  C  C1053  1  0.129667  0.737633  0.272053  1.0
  C  C1054  1  0.058700  0.463000  0.061280  1.0
  C  C1055  1  0.404300  0.941300  0.061280  1.0
  C  C1056  1  0.537000  0.595700  0.061280  1.0
  C  C1057  1  0.725367  0.796333  0.394613  1.0
  C  C1058  1  0.070967  0.274633  0.394613  1.0
  C  C1059  1  0.203667  0.929033  0.394613  1.0
  C  C1060  1  0.392033  0.129667  0.727947  1.0
  C  C1061  1  0.737633  0.607967  0.727947  1.0
  C  C1062  1  0.870333  0.262367  0.727947  1.0
  C  C1063  1  0.477400  0.623100  0.959500  1.0
  C  C1064  1  0.145700  0.522600  0.959500  1.0
  C  C1065  1  0.376900  0.854300  0.959500  1.0
  C  C1066  1  0.810733  0.289767  0.626167  1.0
  C  C1067  1  0.479033  0.189267  0.626167  1.0
  C  C1068  1  0.710233  0.520967  0.626167  1.0
  C  C1069  1  0.144067  0.956433  0.292833  1.0
  C  C1070  1  0.812367  0.855933  0.292833  1.0
  C  C1071  1  0.043567  0.187633  0.292833  1.0
  C  C1072  1  0.522600  0.376900  0.040500  1.0
  C  C1073  1  0.854300  0.477400  0.040500  1.0
  C  C1074  1  0.623100  0.145700  0.040500  1.0
  C  C1075  1  0.189267  0.710233  0.373833  1.0
  C  C1076  1  0.520967  0.810733  0.373833  1.0
  C  C1077  1  0.289767  0.479033  0.373833  1.0
  C  C1078  1  0.855933  0.043567  0.707167  1.0
  C  C1079  1  0.187633  0.144067  0.707167  1.0
  C  C1080  1  0.956433  0.812367  0.707167  1.0
  C  C1081  1  0.423300  0.664600  0.982300  1.0
  C  C1082  1  0.241300  0.576700  0.982300  1.0
  C  C1083  1  0.335400  0.758700  0.982300  1.0
  C  C1084  1  0.756633  0.331267  0.648967  1.0
  C  C1085  1  0.574633  0.243367  0.648967  1.0
  C  C1086  1  0.668733  0.425367  0.648967  1.0
  C  C1087  1  0.089967  0.997933  0.315633  1.0
  C  C1088  1  0.907967  0.910033  0.315633  1.0
  C  C1089  1  0.002067  0.092033  0.315633  1.0
  C  C1090  1  0.576700  0.335400  0.017700  1.0
  C  C1091  1  0.758700  0.423300  0.017700  1.0
  C  C1092  1  0.664600  0.241300  0.017700  1.0
  C  C1093  1  0.243367  0.668733  0.351033  1.0
  C  C1094  1  0.425367  0.756633  0.351033  1.0
  C  C1095  1  0.331267  0.574633  0.351033  1.0
  C  C1096  1  0.910033  0.002067  0.684367  1.0
  C  C1097  1  0.092033  0.089967  0.684367  1.0
  C  C1098  1  0.997933  0.907967  0.684367  1.0
  C  C1099  1  0.480200  0.730400  0.984700  1.0
  C  C1100  1  0.250200  0.519800  0.984700  1.0
  C  C1101  1  0.269600  0.749800  0.984700  1.0
  C  C1102  1  0.813533  0.397067  0.651367  1.0
  C  C1103  1  0.583533  0.186467  0.651367  1.0
  C  C1104  1  0.602933  0.416467  0.651367  1.0
  C  C1105  1  0.146867  0.063733  0.318033  1.0
  C  C1106  1  0.916867  0.853133  0.318033  1.0
  C  C1107  1  0.936267  0.083133  0.318033  1.0
  C  C1108  1  0.519800  0.269600  0.015300  1.0
  C  C1109  1  0.749800  0.480200  0.015300  1.0
  C  C1110  1  0.730400  0.250200  0.015300  1.0
  C  C1111  1  0.186467  0.602933  0.348633  1.0
  C  C1112  1  0.416467  0.813533  0.348633  1.0
  C  C1113  1  0.397067  0.583533  0.348633  1.0
  C  C1114  1  0.853133  0.936267  0.681967  1.0
  C  C1115  1  0.083133  0.146867  0.681967  1.0
  C  C1116  1  0.063733  0.916867  0.681967  1.0
  C  C1117  1  0.394700  0.563500  0.986200  1.0
  C  C1118  1  0.168800  0.605300  0.986200  1.0
  C  C1119  1  0.436500  0.831200  0.986200  1.0
  C  C1120  1  0.728033  0.230167  0.652867  1.0
  C  C1121  1  0.502133  0.271967  0.652867  1.0
  C  C1122  1  0.769833  0.497867  0.652867  1.0
  C  C1123  1  0.061367  0.896833  0.319533  1.0
  C  C1124  1  0.835467  0.938633  0.319533  1.0
  C  C1125  1  0.103167  0.164533  0.319533  1.0
  C  C1126  1  0.605300  0.436500  0.013800  1.0
  C  C1127  1  0.831200  0.394700  0.013800  1.0
  C  C1128  1  0.563500  0.168800  0.013800  1.0
  C  C1129  1  0.271967  0.769833  0.347133  1.0
  C  C1130  1  0.497867  0.728033  0.347133  1.0
  C  C1131  1  0.230167  0.502133  0.347133  1.0
  C  C1132  1  0.938633  0.103167  0.680467  1.0
  C  C1133  1  0.164533  0.061367  0.680467  1.0
  C  C1134  1  0.896833  0.835467  0.680467  1.0
  C  C1135  1  0.418800  0.566600  0.010600  1.0
  C  C1136  1  0.147800  0.581200  0.010600  1.0
  C  C1137  1  0.433400  0.852200  0.010600  1.0
  C  C1138  1  0.752133  0.233267  0.677267  1.0
  C  C1139  1  0.481133  0.247867  0.677267  1.0
  C  C1140  1  0.766733  0.518867  0.677267  1.0
  C  C1141  1  0.085467  0.899933  0.343933  1.0
  C  C1142  1  0.814467  0.914533  0.343933  1.0
  C  C1143  1  0.100067  0.185533  0.343933  1.0
  C  C1144  1  0.581200  0.433400  0.989400  1.0
  C  C1145  1  0.852200  0.418800  0.989400  1.0
  C  C1146  1  0.566600  0.147800  0.989400  1.0
  C  C1147  1  0.247867  0.766733  0.322733  1.0
  C  C1148  1  0.518867  0.752133  0.322733  1.0
  C  C1149  1  0.233267  0.481133  0.322733  1.0
  C  C1150  1  0.914533  0.100067  0.656067  1.0
  C  C1151  1  0.185533  0.085467  0.656067  1.0
  C  C1152  1  0.899933  0.814467  0.656067  1.0
  N  N1153  1  0.722400  0.822300  0.842100  1.0
  N  N1154  1  0.099900  0.277600  0.842100  1.0
  N  N1155  1  0.177700  0.900100  0.842100  1.0
  N  N1156  1  0.055733  0.488967  0.508767  1.0
  N  N1157  1  0.433233  0.944267  0.508767  1.0
  N  N1158  1  0.511033  0.566767  0.508767  1.0
  N  N1159  1  0.389067  0.155633  0.175433  1.0
  N  N1160  1  0.766567  0.610933  0.175433  1.0
  N  N1161  1  0.844367  0.233433  0.175433  1.0
  N  N1162  1  0.277600  0.177700  0.157900  1.0
  N  N1163  1  0.900100  0.722400  0.157900  1.0
  N  N1164  1  0.822300  0.099900  0.157900  1.0
  N  N1165  1  0.944267  0.511033  0.491233  1.0
  N  N1166  1  0.566767  0.055733  0.491233  1.0
  N  N1167  1  0.488967  0.433233  0.491233  1.0
  N  N1168  1  0.610933  0.844367  0.824567  1.0
  N  N1169  1  0.233433  0.389067  0.824567  1.0
  N  N1170  1  0.155633  0.766567  0.824567  1.0
  N  N1171  1  0.836200  0.650900  0.992320  1.0
  N  N1172  1  0.814700  0.163800  0.992320  1.0
  N  N1173  1  0.349100  0.185300  0.992320  1.0
  N  N1174  1  0.169533  0.317567  0.658987  1.0
  N  N1175  1  0.148033  0.830467  0.658987  1.0
  N  N1176  1  0.682433  0.851967  0.658987  1.0
  N  N1177  1  0.502867  0.984233  0.325653  1.0
  N  N1178  1  0.481367  0.497133  0.325653  1.0
  N  N1179  1  0.015767  0.518633  0.325653  1.0
  N  N1180  1  0.163800  0.349100  0.007680  1.0
  N  N1181  1  0.185300  0.836200  0.007680  1.0
  N  N1182  1  0.650900  0.814700  0.007680  1.0
  N  N1183  1  0.830467  0.682433  0.341013  1.0
  N  N1184  1  0.851967  0.169533  0.341013  1.0
  N  N1185  1  0.317567  0.148033  0.341013  1.0
  N  N1186  1  0.497133  0.015767  0.674347  1.0
  N  N1187  1  0.518633  0.502867  0.674347  1.0
  N  N1188  1  0.984233  0.481367  0.674347  1.0
  N  N1189  1  0.439600  0.621000  0.975800  1.0
  N  N1190  1  0.181400  0.560400  0.975800  1.0
  N  N1191  1  0.379000  0.818600  0.975800  1.0
  N  N1192  1  0.772933  0.287667  0.642467  1.0
  N  N1193  1  0.514733  0.227067  0.642467  1.0
  N  N1194  1  0.712333  0.485267  0.642467  1.0
  N  N1195  1  0.106267  0.954333  0.309133  1.0
  N  N1196  1  0.848067  0.893733  0.309133  1.0
  N  N1197  1  0.045667  0.151933  0.309133  1.0
  N  N1198  1  0.560400  0.379000  0.024200  1.0
  N  N1199  1  0.818600  0.439600  0.024200  1.0
  N  N1200  1  0.621000  0.181400  0.024200  1.0
  N  N1201  1  0.227067  0.712333  0.357533  1.0
  N  N1202  1  0.485267  0.772933  0.357533  1.0
  N  N1203  1  0.287667  0.514733  0.357533  1.0
  N  N1204  1  0.893733  0.045667  0.690867  1.0
  N  N1205  1  0.151933  0.106267  0.690867  1.0
  N  N1206  1  0.954333  0.848067  0.690867  1.0
  O  O1207  1  0.583880  0.555490  0.885520  1.0
  O  O1208  1  0.971610  0.416120  0.885520  1.0
  O  O1209  1  0.444510  0.028390  0.885520  1.0
  O  O1210  1  0.917213  0.222157  0.552187  1.0
  O  O1211  1  0.304943  0.082787  0.552187  1.0
  O  O1212  1  0.777843  0.695057  0.552187  1.0
  O  O1213  1  0.250547  0.888823  0.218853  1.0
  O  O1214  1  0.638277  0.749453  0.218853  1.0
  O  O1215  1  0.111177  0.361723  0.218853  1.0
  O  O1216  1  0.416120  0.444510  0.114480  1.0
  O  O1217  1  0.028390  0.583880  0.114480  1.0
  O  O1218  1  0.555490  0.971610  0.114480  1.0
  O  O1219  1  0.082787  0.777843  0.447813  1.0
  O  O1220  1  0.695057  0.917213  0.447813  1.0
  O  O1221  1  0.222157  0.304943  0.447813  1.0
  O  O1222  1  0.749453  0.111177  0.781147  1.0
  O  O1223  1  0.361723  0.250547  0.781147  1.0
  O  O1224  1  0.888823  0.638277  0.781147  1.0
  O  O1225  1  0.547490  0.604030  0.908820  1.0
  O  O1226  1  0.056540  0.452510  0.908820  1.0
  O  O1227  1  0.395970  0.943460  0.908820  1.0
  O  O1228  1  0.880823  0.270697  0.575487  1.0
  O  O1229  1  0.389873  0.119177  0.575487  1.0
  O  O1230  1  0.729303  0.610127  0.575487  1.0
  O  O1231  1  0.214157  0.937363  0.242153  1.0
  O  O1232  1  0.723207  0.785843  0.242153  1.0
  O  O1233  1  0.062637  0.276793  0.242153  1.0
  O  O1234  1  0.452510  0.395970  0.091180  1.0
  O  O1235  1  0.943460  0.547490  0.091180  1.0
  O  O1236  1  0.604030  0.056540  0.091180  1.0
  O  O1237  1  0.119177  0.729303  0.424513  1.0
  O  O1238  1  0.610127  0.880823  0.424513  1.0
  O  O1239  1  0.270697  0.389873  0.424513  1.0
  O  O1240  1  0.785843  0.062637  0.757847  1.0
  O  O1241  1  0.276793  0.214157  0.757847  1.0
  O  O1242  1  0.937363  0.723207  0.757847  1.0
  O  O1243  1  0.613480  0.512830  0.924330  1.0
  O  O1244  1  0.899350  0.386520  0.924330  1.0
  O  O1245  1  0.487170  0.100650  0.924330  1.0
  O  O1246  1  0.946813  0.179497  0.590997  1.0
  O  O1247  1  0.232683  0.053187  0.590997  1.0
  O  O1248  1  0.820503  0.767317  0.590997  1.0
  O  O1249  1  0.280147  0.846163  0.257663  1.0
  O  O1250  1  0.566017  0.719853  0.257663  1.0
  O  O1251  1  0.153837  0.433983  0.257663  1.0
  O  O1252  1  0.386520  0.487170  0.075670  1.0
  O  O1253  1  0.100650  0.613480  0.075670  1.0
  O  O1254  1  0.512830  0.899350  0.075670  1.0
  O  O1255  1  0.053187  0.820503  0.409003  1.0
  O  O1256  1  0.767317  0.946813  0.409003  1.0
  O  O1257  1  0.179497  0.232683  0.409003  1.0
  O  O1258  1  0.719853  0.153837  0.742337  1.0
  O  O1259  1  0.433983  0.280147  0.742337  1.0
  O  O1260  1  0.846163  0.566017  0.742337  1.0
  O  O1261  1  0.570700  0.556090  0.947470  1.0
  O  O1262  1  0.985390  0.429300  0.947470  1.0
  O  O1263  1  0.443910  0.014610  0.947470  1.0
  O  O1264  1  0.904033  0.222757  0.614137  1.0
  O  O1265  1  0.318723  0.095967  0.614137  1.0
  O  O1266  1  0.777243  0.681277  0.614137  1.0
  O  O1267  1  0.237367  0.889423  0.280803  1.0
  O  O1268  1  0.652057  0.762633  0.280803  1.0
  O  O1269  1  0.110577  0.347943  0.280803  1.0
  O  O1270  1  0.429300  0.443910  0.052530  1.0
  O  O1271  1  0.014610  0.570700  0.052530  1.0
  O  O1272  1  0.556090  0.985390  0.052530  1.0
  O  O1273  1  0.095967  0.777243  0.385863  1.0
  O  O1274  1  0.681277  0.904033  0.385863  1.0
  O  O1275  1  0.222757  0.318723  0.385863  1.0
  O  O1276  1  0.762633  0.110577  0.719197  1.0
  O  O1277  1  0.347943  0.237367  0.719197  1.0
  O  O1278  1  0.889423  0.652057  0.719197  1.0
  O  O1279  1  0.906310  0.502940  0.923320  1.0
  O  O1280  1  0.596630  0.093690  0.923320  1.0
  O  O1281  1  0.497060  0.403370  0.923320  1.0
  O  O1282  1  0.239643  0.169607  0.589987  1.0
  O  O1283  1  0.929963  0.760357  0.589987  1.0
  O  O1284  1  0.830393  0.070037  0.589987  1.0
  O  O1285  1  0.572977  0.836273  0.256653  1.0
  O  O1286  1  0.263297  0.427023  0.256653  1.0
  O  O1287  1  0.163727  0.736703  0.256653  1.0
  O  O1288  1  0.093690  0.497060  0.076680  1.0
  O  O1289  1  0.403370  0.906310  0.076680  1.0
  O  O1290  1  0.502940  0.596630  0.076680  1.0
  O  O1291  1  0.760357  0.830393  0.410013  1.0
  O  O1292  1  0.070037  0.239643  0.410013  1.0
  O  O1293  1  0.169607  0.929963  0.410013  1.0
  O  O1294  1  0.427023  0.163727  0.743347  1.0
  O  O1295  1  0.736703  0.572977  0.743347  1.0
  O  O1296  1  0.836273  0.263297  0.743347  1.0
  O  O1297  1  0.996540  0.548010  0.944070  1.0
  O  O1298  1  0.551470  0.003460  0.944070  1.0
  O  O1299  1  0.451990  0.448530  0.944070  1.0
  O  O1300  1  0.329873  0.214677  0.610737  1.0
  O  O1301  1  0.884803  0.670127  0.610737  1.0
  O  O1302  1  0.785323  0.115197  0.610737  1.0
  O  O1303  1  0.663207  0.881343  0.277403  1.0
  O  O1304  1  0.218137  0.336793  0.277403  1.0
  O  O1305  1  0.118657  0.781863  0.277403  1.0
  O  O1306  1  0.003460  0.451990  0.055930  1.0
  O  O1307  1  0.448530  0.996540  0.055930  1.0
  O  O1308  1  0.548010  0.551470  0.055930  1.0
  O  O1309  1  0.670127  0.785323  0.389263  1.0
  O  O1310  1  0.115197  0.329873  0.389263  1.0
  O  O1311  1  0.214677  0.884803  0.389263  1.0
  O  O1312  1  0.336793  0.118657  0.722597  1.0
  O  O1313  1  0.781863  0.663207  0.722597  1.0
  O  O1314  1  0.881343  0.218137  0.722597  1.0
  O  O1315  1  0.779860  0.645930  0.782200  1.0
  O  O1316  1  0.866070  0.220140  0.782200  1.0
  O  O1317  1  0.354070  0.133930  0.782200  1.0
  O  O1318  1  0.113193  0.312597  0.448867  1.0
  O  O1319  1  0.199403  0.886807  0.448867  1.0
  O  O1320  1  0.687403  0.800597  0.448867  1.0
  O  O1321  1  0.446527  0.979263  0.115533  1.0
  O  O1322  1  0.532737  0.553473  0.115533  1.0
  O  O1323  1  0.020737  0.467263  0.115533  1.0
  O  O1324  1  0.220140  0.354070  0.217800  1.0
  O  O1325  1  0.133930  0.779860  0.217800  1.0
  O  O1326  1  0.645930  0.866070  0.217800  1.0
  O  O1327  1  0.886807  0.687403  0.551133  1.0
  O  O1328  1  0.800597  0.113193  0.551133  1.0
  O  O1329  1  0.312597  0.199403  0.551133  1.0
  O  O1330  1  0.553473  0.020737  0.884467  1.0
  O  O1331  1  0.467263  0.446527  0.884467  1.0
  O  O1332  1  0.979263  0.532737  0.884467  1.0
  O  O1333  1  0.831520  0.735420  0.761710  1.0
  O  O1334  1  0.903900  0.168480  0.761710  1.0
  O  O1335  1  0.264580  0.096100  0.761710  1.0
  O  O1336  1  0.164853  0.402087  0.428377  1.0
  O  O1337  1  0.237233  0.835147  0.428377  1.0
  O  O1338  1  0.597913  0.762767  0.428377  1.0
  O  O1339  1  0.498187  0.068753  0.095043  1.0
  O  O1340  1  0.570567  0.501813  0.095043  1.0
  O  O1341  1  0.931247  0.429433  0.095043  1.0
  O  O1342  1  0.168480  0.264580  0.238290  1.0
  O  O1343  1  0.096100  0.831520  0.238290  1.0
  O  O1344  1  0.735420  0.903900  0.238290  1.0
  O  O1345  1  0.835147  0.597913  0.571623  1.0
  O  O1346  1  0.762767  0.164853  0.571623  1.0
  O  O1347  1  0.402087  0.237233  0.571623  1.0
  O  O1348  1  0.501813  0.931247  0.904957  1.0
  O  O1349  1  0.429433  0.498187  0.904957  1.0
  O  O1350  1  0.068753  0.570567  0.904957  1.0
  O  O1351  1  0.456850  0.573560  0.948410  1.0
  O  O1352  1  0.116710  0.543150  0.948410  1.0
  O  O1353  1  0.426440  0.883290  0.948410  1.0
  O  O1354  1  0.790183  0.240227  0.615077  1.0
  O  O1355  1  0.450043  0.209817  0.615077  1.0
  O  O1356  1  0.759773  0.549957  0.615077  1.0
  O  O1357  1  0.123517  0.906893  0.281743  1.0
  O  O1358  1  0.783377  0.876483  0.281743  1.0
  O  O1359  1  0.093107  0.216623  0.281743  1.0
  O  O1360  1  0.543150  0.426440  0.051590  1.0
  O  O1361  1  0.883290  0.456850  0.051590  1.0
  O  O1362  1  0.573560  0.116710  0.051590  1.0
  O  O1363  1  0.209817  0.759773  0.384923  1.0
  O  O1364  1  0.549957  0.790183  0.384923  1.0
  O  O1365  1  0.240227  0.450043  0.384923  1.0
  O  O1366  1  0.876483  0.093107  0.718257  1.0
  O  O1367  1  0.216623  0.123517  0.718257  1.0
  O  O1368  1  0.906893  0.783377  0.718257  1.0
  O  O1369  1  0.581000  0.428800  0.883060  1.0
  O  O1370  1  0.847800  0.419000  0.883060  1.0
  O  O1371  1  0.571200  0.152200  0.883060  1.0
  O  O1372  1  0.914333  0.095467  0.549727  1.0
  O  O1373  1  0.181133  0.085667  0.549727  1.0
  O  O1374  1  0.904533  0.818867  0.549727  1.0
  O  O1375  1  0.247667  0.762133  0.216393  1.0
  O  O1376  1  0.514467  0.752333  0.216393  1.0
  O  O1377  1  0.237867  0.485533  0.216393  1.0
  O  O1378  1  0.419000  0.571200  0.116940  1.0
  O  O1379  1  0.152200  0.581000  0.116940  1.0
  O  O1380  1  0.428800  0.847800  0.116940  1.0
  O  O1381  1  0.085667  0.904533  0.450273  1.0
  O  O1382  1  0.818867  0.914333  0.450273  1.0
  O  O1383  1  0.095467  0.181133  0.450273  1.0
  O  O1384  1  0.752333  0.237867  0.783607  1.0
  O  O1385  1  0.485533  0.247667  0.783607  1.0
  O  O1386  1  0.762133  0.514467  0.783607  1.0
