
#######################################################################
#
#                 Cambridge Crystallographic Data Centre
#                                CCDC 
#
#######################################################################
#
# If this CIF has been generated from an entry in the Cambridge 
# Structural Database, then it will include bibliographic, chemical, 
# crystal, experimental, refinement or atomic coordinate data resulting 
# from the CCDC's data processing and validation procedures.
#
#######################################################################

data_SUPPID
_chemical_formula_moiety         'C204 H174 Cu12 N18 O60'
_chemical_name_systematic        
"dodecakis(\m~4~-9H-Carbazole-3,6-dicarboxylato-O,O',O'',O''')-hexakis(N,N-dimethylacetamide)-hexakis(ethanol)-dodeca-copper unknown solvate"
_symmetry_cell_setting           monoclinic
_symmetry_space_group_name_H-M   'P 21/n'
_symmetry_Int_Tables_number      14
_space_group_name_Hall           '-P 2yn'
loop_
_symmetry_equiv_pos_site_id
_symmetry_equiv_pos_as_xyz
1 x,y,z
2 1/2-x,1/2+y,1/2-z
3 -x,-y,-z
4 1/2+x,1/2-y,1/2+z
_cell_length_a                   23.2928(17)
_cell_length_b                   27.637(2)
_cell_length_c                   24.0457(16)
_cell_angle_alpha                90
_cell_angle_beta                 97.338(2)
_cell_angle_gamma                90
_cell_volume                     15352.5
_exptl_crystal_colour            'blue green'
_exptl_crystal_description       block
_cell_formula_units_Z            2
loop_
_atom_site_label
_atom_site_type_symbol
_atom_site_fract_x
_atom_site_fract_y
_atom_site_fract_z
Cu1 Cu -0.082201(18) -0.329839(14) 0.573199(17)
Cu2 Cu -0.054302(18) -0.241072(14) 0.550794(17)
Cu3 Cu 0.118900(17) 0.052561(15) 0.891582(16)
Cu4 Cu 0.085493(17) 0.039329(15) 0.785088(16)
Cu5 Cu 0.388715(17) -0.097068(15) 0.446717(17)
Cu6 Cu 0.281894(17) -0.075902(16) 0.461062(17)
O1 O -0.04775(12) -0.31623(9) 0.65038(11)
O2 O -0.03022(11) -0.23769(9) 0.63284(10)
O3 O 0.08977(11) -0.01313(9) 0.90070(10)
O4 O 0.06587(11) -0.02612(9) 0.80826(9)
O5 O 0.19250(11) 0.02685(10) 0.87335(10)
O6 O 0.16442(11) 0.01812(9) 0.78032(10)
O7 O 0.30974(11) -0.06622(10) 0.54033(10)
O8 O 0.40235(11) -0.07984(10) 0.52716(10)
O9 O 0.30329(11) -0.00915(9) 0.44486(11)
O10 O 0.39124(11) -0.02904(9) 0.42407(11)
O11 O 0.27864(11) -0.14532(9) 0.47389(11)
O12 O 0.37117(11) -0.16395(9) 0.46750(11)
O13 O 0.26727(11) -0.08733(10) 0.37995(10)
O14 O 0.35688(10) -0.11159(10) 0.36905(10)
O15 O 0.02103(11) -0.26779(8) 0.54033(11)
O16 O -0.00519(11) -0.34483(9) 0.55225(11)
O17 O -0.08597(12) -0.26043(9) 0.47417(10)
O18 O -0.11584(11) -0.33489(9) 0.49479(10)
O19 O 0.01047(10) 0.06187(9) 0.80403(9)
O20 O 0.04007(11) 0.07626(9) 0.89504(10)
O21 O -0.15186(12) -0.29717(9) 0.59328(12)
O22 O -0.13185(11) -0.22280(9) 0.56606(11)
O23 O 0.11007(12) 0.10652(9) 0.77682(10)
O24 O 0.14191(12) 0.11665(9) 0.86812(10)
O25 O -0.10149(13) -0.40315(9) 0.59362(11)
H1 H -0.0966 -0.4110 0.6320
O26 O -0.0363(2) -0.16904(11) 0.52228(15)
H2 H -0.0415 -0.1479 0.5524
O27 O 0.05141(14) 0.02317(12) 0.69930(11)
H3 H 0.0127 0.0128 0.6944
O28 O 0.15565(11) 0.05894(9) 0.97831(9)
O29 O 0.48071(11) -0.11390(11) 0.44199(13)
O30 O 0.19284(13) -0.06063(16) 0.46984(15)
N1 N 0.00581(19) -0.23118(13) 0.89546(14)
H4 H 0.0033 -0.2480 0.9256
N2 N 0.25904(14) -0.36567(11) 0.51820(14)
H5 H 0.2778 -0.3930 0.5211
N3 N -0.19515(18) -0.32097(13) 0.23286(15)
H6 H -0.2103 -0.3449 0.2125
N4 N 0.42636(13) -0.03520(12) 0.78684(12)
H7 H 0.4591 -0.0366 0.8087
N5 N 0.22882(14) -0.11398(12) 0.12006(13)
H8 H 0.2465 -0.1190 0.0908
N6 N 0.17687(18) 0.02946(15) 1.06529(15)
N7 N 0.5797(3) -0.1108(5) 0.4345(4)
N8 N 0.1078(4) -0.0254(4) 0.4728(4)
N9 N 0.36122(19) 0.18323(15) 0.3302(2)
H9 H 0.3854 0.1964 0.3099
C1 C -0.03412(16) -0.27309(13) 0.66558(15)
C2 C -0.02197(18) -0.26392(13) 0.72687(15)
C3 C -0.0300(2) -0.30130(14) 0.76445(17)
H10 H -0.0411 -0.3320 0.7501
C4 C -0.0223(2) -0.29462(15) 0.82183(18)
H11 H -0.0282 -0.3199 0.8466
C5 C -0.0052(2) -0.24838(14) 0.84142(17)
C6 C 0.02120(19) -0.18343(14) 0.89434(15)
C7 C 0.0367(2) -0.15156(14) 0.93908(15)
H12 H 0.0370 -0.1615 0.9765
C8 C 0.05136(18) -0.10501(14) 0.92598(15)
H13 H 0.0620 -0.0830 0.9553
C9 C 0.05105(15) -0.08946(13) 0.87088(14)
C10 C 0.06997(15) -0.03881(12) 0.85875(15)
C11 C 0.03488(16) -0.12062(12) 0.82649(14)
H14 H 0.0336 -0.1100 0.7892
C12 C 0.02047(17) -0.16834(13) 0.83842(14)
C13 C 0.00375(19) -0.20993(13) 0.80362(15)
C14 C -0.00538(17) -0.21805(13) 0.74594(15)
H15 H -0.0004 -0.1930 0.7206
C15 C 0.03063(15) -0.31266(12) 0.54336(14)
C16 C 0.09026(16) -0.32909(13) 0.53506(15)
C17 C 0.10555(17) -0.37719(14) 0.54221(17)
H16 H 0.0779 -0.3996 0.5514
C18 C 0.16138(18) -0.39339(14) 0.53611(18)
H17 H 0.1710 -0.4264 0.5398
C19 C 0.20140(16) -0.36011(14) 0.52468(16)
C20 C 0.28273(16) -0.32144(15) 0.50646(16)
C21 C 0.33846(18) -0.30972(16) 0.49788(19)
H18 H 0.3674 -0.3335 0.4990
C22 C 0.35027(17) -0.26193(16) 0.48758(18)
H19 H 0.3878 -0.2529 0.4813
C23 C 0.30666(16) -0.22621(14) 0.48630(16)
C24 C 0.32058(16) -0.17500(14) 0.47458(15)
C25 C 0.25217(16) -0.23827(14) 0.49464(15)
H20 H 0.2234 -0.2143 0.4933
C26 C 0.23850(16) -0.28623(13) 0.50516(15)
C27 C 0.18695(16) -0.31044(13) 0.51713(16)
C28 C 0.13083(15) -0.29539(13) 0.52313(15)
H21 H 0.1207 -0.2625 0.5191
C29 C -0.11067(16) -0.30052(13) 0.46111(15)
C30 C -0.13538(15) -0.30723(12) 0.40199(15)
C31 C -0.15860(17) -0.35224(13) 0.38346(16)
H22 H -0.1591 -0.3777 0.4093
C32 C -0.18084(19) -0.35994(14) 0.32777(17)
H23 H -0.1969 -0.3900 0.3158
C33 C -0.17869(18) -0.32235(14) 0.29063(17)
C34 C -0.1836(2) -0.27551(16) 0.21321(18)
C35 C -0.1916(3) -0.25814(19) 0.15834(19)
H24 H -0.2078 -0.2777 0.1284
C36 C -0.1750(3) -0.21158(18) 0.14970(19)
H25 H -0.1798 -0.1992 0.1130
C37 C -0.1507(2) -0.18131(15) 0.19422(16)
C38 C 0.13317(16) 0.13096(14) 0.81797(16)
C39 C -0.14330(17) -0.19910(14) 0.24842(16)
H26 H -0.1270 -0.1795 0.2783
C40 C -0.16014(19) -0.24616(14) 0.25841(16)
C41 C -0.15556(17) -0.27616(13) 0.30828(16)
C42 C -0.13433(16) -0.26926(13) 0.36363(16)
H27 H -0.1191 -0.2390 0.3758
C43 C 0.20182(16) 0.01612(13) 0.82373(15)
C44 C 0.26160(15) 0.00073(13) 0.81600(14)
C45 C 0.30529(17) 0.00045(14) 0.86213(15)
H28 H 0.2956 0.0088 0.8977
C46 C 0.36199(17) -0.01162(15) 0.85700(15)
H29 H 0.3907 -0.0120 0.8882
C47 C 0.37464(16) -0.02317(13) 0.80333(15)
C48 C 0.41886(16) -0.04483(14) 0.73009(15)
C49 C 0.45937(17) -0.05745(15) 0.69555(16)
H30 H 0.4986 -0.0612 0.7100
C50 C 0.44089(16) -0.06451(15) 0.63917(16)
H31 H 0.4681 -0.0724 0.6149
C51 C 0.38192(15) -0.06012(14) 0.61759(15)
C52 C 0.36293(16) -0.06901(14) 0.55702(15)
C53 C 0.34203(15) -0.04717(12) 0.65303(14)
H32 H 0.3027 -0.0439 0.6390
C54 C 0.36055(15) -0.03903(13) 0.70930(14)
C55 C 0.33117(15) -0.02445(13) 0.75703(14)
C56 C 0.27455(15) -0.01224(13) 0.76345(14)
H33 H 0.2454 -0.0128 0.7325
C57 C 0.30510(15) -0.10211(13) 0.35043(15)
C58 C 0.28624(15) -0.10754(13) 0.28997(14)
C59 C 0.32735(15) -0.11892(13) 0.25322(15)
H34 H 0.3660 -0.1247 0.2683
C60 C 0.31198(16) -0.12180(14) 0.19576(16)
H35 H 0.3395 -0.1295 0.1718
C61 C 0.25510(16) -0.11307(13) 0.17494(15)
C62 C 0.17050(16) -0.10578(14) 0.11872(15)
C63 C 0.12690(18) -0.10423(17) 0.07359(16)
H36 H 0.1350 -0.1102 0.0369
C64 C 0.07332(18) -0.09405(16) 0.08370(15)
H37 H 0.0438 -0.0920 0.0532
C65 C 0.05883(15) -0.08615(13) 0.13837(14)
C66 C 0.00173(15) 0.07425(12) 0.85317(14)
C67 C 0.10154(15) -0.08884(13) 0.18414(14)
H38 H 0.0928 -0.0840 0.2208
C68 C 0.15824(15) -0.09906(13) 0.17388(14)
C69 C 0.21280(15) -0.10379(12) 0.21105(14)
C70 C 0.22916(15) -0.10031(12) 0.26762(14)
H39 H 0.2014 -0.0929 0.2915
C71 C 0.34980(16) 0.00002(14) 0.42655(15)
C72 C 0.35663(16) 0.04926(14) 0.40392(16)
C73 C 0.40398(18) 0.06004(15) 0.37438(19)
H40 H 0.4326 0.0364 0.3722
C74 C 0.40925(19) 0.10366(17) 0.3490(2)
H41 H 0.4408 0.1101 0.3294
C75 C 0.3670(2) 0.13813(17) 0.3530(2)
C76 C 0.3121(2) 0.20482(18) 0.3438(3)
C77 C 0.2915(3) 0.2515(2) 0.3318(3)
H42 H 0.3103 0.2728 0.3097
C78 C 0.2420(2) 0.26480(18) 0.3540(3)
H43 H 0.2263 0.2957 0.3459
C79 C 0.21477(18) 0.23418(15) 0.3878(2)
C80 C -0.16172(16) -0.25269(13) 0.58809(17)
C81 C 0.23641(17) 0.18797(14) 0.40135(17)
H44 H 0.2180 0.1674 0.4247
C82 C 0.28548(19) 0.17334(15) 0.3795(2)
C83 C 0.31960(16) 0.13031(15) 0.38379(18)
C84 C 0.31479(15) 0.08518(13) 0.40901(15)
H45 H 0.2837 0.0788 0.4293
C85 C -0.1204(5) -0.4404(3) 0.5571(3)
H46 H -0.1518 -0.4283 0.5297
H47 H -0.1364 -0.4662 0.5785
C86 C -0.0767(7) -0.4606(4) 0.5276(5)
H48 H -0.0934 -0.4860 0.5028
H49 H -0.0461 -0.4741 0.5543
H50 H -0.0609 -0.4355 0.5058
C87 C -0.0354(13) -0.1400(19) 0.4841(15)
H51 H -0.0201 -0.1569 0.4533
H52 H -0.0073 -0.1148 0.4973
C88 C -0.091(2) -0.115(2) 0.460(2)
H53 H -0.0825 -0.0895 0.4338
H54 H -0.1098 -0.1004 0.4896
H55 H -0.1174 -0.1381 0.4396
C89 C 0.0779(3) 0.0502(3) 1.0324(3)
H56 H 0.0555 0.0623 0.9985
H57 H 0.0747 0.0726 1.0630
H58 H 0.0632 0.0188 1.0417
C90 C 0.14056(18) 0.04563(15) 1.02330(16)
C91 C 0.1629(3) 0.0210(2) 1.12133(19)
H59 H 0.1219 0.0264 1.1222
H60 H 0.1850 0.0430 1.1472
H61 H 0.1725 -0.0121 1.1322
C92 C 0.2364(3) 0.0233(3) 1.0574(3)
H62 H 0.2410 0.0299 1.0185
H63 H 0.2482 -0.0097 1.0666
H64 H 0.2602 0.0455 1.0815
C93 C 0.0735(9) 0.0251(8) 0.6562(5)
H65 H 0.0421 0.0239 0.6249
H66 H 0.0964 -0.0044 0.6541
C94 C 0.1138(10) 0.0696(13) 0.6454(8)
H67 H 0.1286 0.0652 0.6098
H68 H 0.1459 0.0713 0.6753
H69 H 0.0915 0.0993 0.6444
C95 C 0.5240(3) -0.0874(3) 0.4543(5)
C96 C 0.5283(5) -0.0409(4) 0.4599(4)
H70 H 0.4940 -0.0283 0.4739
H71 H 0.5320 -0.0263 0.4238
H72 H 0.5622 -0.0331 0.4862
C97 C 0.6292(5) -0.0750(5) 0.4406(5)
H73 H 0.6140 -0.0424 0.4367
H74 H 0.6540 -0.0811 0.4118
H75 H 0.6515 -0.0787 0.4773
C98 C 0.5900(12) -0.1704(7) 0.4235(13)
H76 H 0.6266 -0.1750 0.4089
H77 H 0.5587 -0.1826 0.3967
H78 H 0.5906 -0.1878 0.4586
C99 C 0.1561(3) -0.0331(3) 0.4476(3)
C100 C 0.1630(4) -0.0039(4) 0.3969(4)
H79 H 0.1990 -0.0125 0.3832
H80 H 0.1636 0.0302 0.4065
H81 H 0.1308 -0.0103 0.3681
C101 C 0.0648(6) 0.0160(6) 0.4572(7)
H82 H 0.0726 0.0307 0.4223
H83 H 0.0689 0.0402 0.4867
H84 H 0.0256 0.0033 0.4527
C102 C 0.1017(5) -0.0529(5) 0.5270(5)
H85 H 0.1305 -0.0783 0.5323
H86 H 0.0633 -0.0670 0.5246
H87 H 0.1074 -0.0307 0.5585
Cu1B Cu 0.082201(18) 0.329839(14) 0.426801(17)
Cu2B Cu 0.054302(18) 0.241072(14) 0.449206(17)
Cu3B Cu -0.118900(17) -0.052561(15) 0.108418(16)
Cu4B Cu -0.085493(17) -0.039329(15) 0.214912(16)
Cu5B Cu -0.388715(17) 0.097068(15) 0.553283(17)
Cu6B Cu -0.281894(17) 0.075902(16) 0.538938(17)
O1B O 0.04775(12) 0.31623(9) 0.34962(11)
O2B O 0.03022(11) 0.23769(9) 0.36716(10)
O3B O -0.08977(11) 0.01313(9) 0.09930(10)
O4B O -0.06587(11) 0.02612(9) 0.19174(9)
O5B O -0.19250(11) -0.02685(10) 0.12665(10)
O6B O -0.16442(11) -0.01812(9) 0.21968(10)
O7B O -0.30974(11) 0.06622(10) 0.45967(10)
O8B O -0.40235(11) 0.07984(10) 0.47284(10)
O9B O -0.30329(11) 0.00915(9) 0.55514(11)
O10B O -0.39124(11) 0.02904(9) 0.57593(11)
O11B O -0.27864(11) 0.14532(9) 0.52611(11)
O12B O -0.37117(11) 0.16395(9) 0.53250(11)
O13B O -0.26727(11) 0.08733(10) 0.62005(10)
O14B O -0.35688(10) 0.11159(10) 0.63095(10)
O15B O -0.02103(11) 0.26779(8) 0.45967(11)
O16B O 0.00519(11) 0.34483(9) 0.44775(11)
O17B O 0.08597(12) 0.26043(9) 0.52583(10)
O18B O 0.11584(11) 0.33489(9) 0.50521(10)
O19B O -0.01047(10) -0.06187(9) 0.19597(9)
O20B O -0.04007(11) -0.07626(9) 0.10496(10)
O21B O 0.15186(12) 0.29717(9) 0.40672(12)
O22B O 0.13185(11) 0.22280(9) 0.43394(11)
O23B O -0.11007(12) -0.10652(9) 0.22318(10)
O24B O -0.14191(12) -0.11665(9) 0.13188(10)
O25B O 0.10149(13) 0.40315(9) 0.40638(11)
H1B H 0.0966 0.4110 0.3680
O26B O 0.0363(2) 0.16904(11) 0.47772(15)
H2B H 0.0415 0.1479 0.4476
O27B O -0.05141(14) -0.02317(12) 0.30070(11)
H3B H -0.0127 -0.0128 0.3056
O28B O -0.15565(11) -0.05894(9) 0.02169(9)
O29B O -0.48071(11) 0.11390(11) 0.55801(13)
O30B O -0.19284(13) 0.06063(16) 0.53016(15)
N1B N -0.00581(19) 0.23118(13) 0.10454(14)
H4B H -0.0033 0.2480 0.0744
N2B N -0.25904(14) 0.36567(11) 0.48180(14)
H5B H -0.2778 0.3930 0.4789
N3B N 0.19515(18) 0.32097(13) 0.76714(15)
H6B H 0.2103 0.3449 0.7875
N4B N -0.42636(13) 0.03520(12) 0.21316(12)
H7B H -0.4591 0.0366 0.1913
N5B N -0.22882(14) 0.11398(12) 0.87994(13)
H8B H -0.2465 0.1190 0.9092
N6B N -0.17687(18) -0.02946(15) -0.06529(15)
N7B N -0.5797(3) 0.1108(5) 0.5655(4)
N8B N -0.1078(4) 0.0254(4) 0.5272(4)
N9B N -0.36122(19) -0.18323(15) 0.6698(2)
H9B H -0.3854 -0.1964 0.6901
C1B C 0.03412(16) 0.27309(13) 0.33442(15)
C2B C 0.02197(18) 0.26392(13) 0.27313(15)
C3B C 0.0300(2) 0.30130(14) 0.23555(17)
H10B H 0.0411 0.3320 0.2499
C4B C 0.0223(2) 0.29462(15) 0.17817(18)
H11B H 0.0282 0.3199 0.1534
C5B C 0.0052(2) 0.24838(14) 0.15858(17)
C6B C -0.02120(19) 0.18343(14) 0.10566(15)
C7B C -0.0367(2) 0.15156(14) 0.06092(15)
H12B H -0.0370 0.1615 0.0235
C8B C -0.05136(18) 0.10501(14) 0.07402(15)
H13B H -0.0620 0.0830 0.0447
C9B C -0.05105(15) 0.08946(13) 0.12912(14)
C10B C -0.06997(15) 0.03881(12) 0.14125(15)
C11B C -0.03488(16) 0.12062(12) 0.17351(14)
H14B H -0.0336 0.1100 0.2108
C12B C -0.02047(17) 0.16834(13) 0.16158(14)
C13B C -0.00375(19) 0.20993(13) 0.19638(15)
C14B C 0.00538(17) 0.21805(13) 0.25406(15)
H15B H 0.0004 0.1930 0.2794
C15B C -0.03063(15) 0.31266(12) 0.45664(14)
C16B C -0.09026(16) 0.32909(13) 0.46494(15)
C17B C -0.10555(17) 0.37719(14) 0.45779(17)
H16B H -0.0779 0.3996 0.4486
C18B C -0.16138(18) 0.39339(14) 0.46389(18)
H17B H -0.1710 0.4264 0.4602
C19B C -0.20140(16) 0.36011(14) 0.47532(16)
C20B C -0.28273(16) 0.32144(15) 0.49354(16)
C21B C -0.33846(18) 0.30972(16) 0.50212(19)
H18B H -0.3674 0.3335 0.5010
C22B C -0.35027(17) 0.26193(16) 0.51242(18)
H19B H -0.3878 0.2529 0.5187
C23B C -0.30666(16) 0.22621(14) 0.51370(16)
C24B C -0.32058(16) 0.17500(14) 0.52542(15)
C25B C -0.25217(16) 0.23827(14) 0.50536(15)
H20B H -0.2234 0.2143 0.5067
C26B C -0.23850(16) 0.28623(13) 0.49484(15)
C27B C -0.18695(16) 0.31044(13) 0.48287(16)
C28B C -0.13083(15) 0.29539(13) 0.47687(15)
H21B H -0.1207 0.2625 0.4809
C29B C 0.11067(16) 0.30052(13) 0.53889(15)
C30B C 0.13538(15) 0.30723(12) 0.59801(15)
C31B C 0.15860(17) 0.35224(13) 0.61654(16)
H22B H 0.1591 0.3777 0.5907
C32B C 0.18084(19) 0.35994(14) 0.67223(17)
H23B H 0.1969 0.3900 0.6842
C33B C 0.17869(18) 0.32235(14) 0.70937(17)
C34B C 0.1836(2) 0.27551(16) 0.78679(18)
C35B C 0.1916(3) 0.25814(19) 0.84166(19)
H24B H 0.2078 0.2777 0.8716
C36B C 0.1750(3) 0.21158(18) 0.85030(19)
H25B H 0.1798 0.1992 0.8870
C37B C 0.1507(2) 0.18131(15) 0.80578(16)
C38B C -0.13317(16) -0.13096(14) 0.18203(16)
C39B C 0.14330(17) 0.19910(14) 0.75158(16)
H26B H 0.1270 0.1795 0.7217
C40B C 0.16014(19) 0.24616(14) 0.74159(16)
C41B C 0.15556(17) 0.27616(13) 0.69172(16)
C42B C 0.13433(16) 0.26926(13) 0.63637(16)
H27B H 0.1191 0.2390 0.6242
C43B C -0.20182(16) -0.01612(13) 0.17627(15)
C44B C -0.26160(15) -0.00073(13) 0.18400(14)
C45B C -0.30529(17) -0.00045(14) 0.13787(15)
H28B H -0.2956 -0.0088 0.1023
C46B C -0.36199(17) 0.01162(15) 0.14300(15)
H29B H -0.3907 0.0120 0.1118
C47B C -0.37464(16) 0.02317(13) 0.19667(15)
C48B C -0.41886(16) 0.04483(14) 0.26991(15)
C49B C -0.45937(17) 0.05745(15) 0.30445(16)
H30B H -0.4986 0.0612 0.2900
C50B C -0.44089(16) 0.06451(15) 0.36083(16)
H31B H -0.4681 0.0724 0.3851
C51B C -0.38192(15) 0.06012(14) 0.38241(15)
C52B C -0.36293(16) 0.06901(14) 0.44298(15)
C53B C -0.34203(15) 0.04717(12) 0.34697(14)
H32B H -0.3027 0.0439 0.3610
C54B C -0.36055(15) 0.03903(13) 0.29070(14)
C55B C -0.33117(15) 0.02445(13) 0.24297(14)
C56B C -0.27455(15) 0.01224(13) 0.23655(14)
H33B H -0.2454 0.0128 0.2675
C57B C -0.30510(15) 0.10211(13) 0.64957(15)
C58B C -0.28624(15) 0.10754(13) 0.71003(14)
C59B C -0.32735(15) 0.11892(13) 0.74678(15)
H34B H -0.3660 0.1247 0.7317
C60B C -0.31198(16) 0.12180(14) 0.80424(16)
H35B H -0.3395 0.1295 0.8282
C61B C -0.25510(16) 0.11307(13) 0.82506(15)
C62B C -0.17050(16) 0.10578(14) 0.88128(15)
C63B C -0.12690(18) 0.10423(17) 0.92641(16)
H36B H -0.1350 0.1102 0.9631
C64B C -0.07332(18) 0.09405(16) 0.91630(15)
H37B H -0.0438 0.0920 0.9468
C65B C -0.05883(15) 0.08615(13) 0.86163(14)
C66B C -0.00173(15) -0.07425(12) 0.14683(14)
C67B C -0.10154(15) 0.08884(13) 0.81586(14)
H38B H -0.0928 0.0840 0.7792
C68B C -0.15824(15) 0.09906(13) 0.82612(14)
C69B C -0.21280(15) 0.10379(12) 0.78895(14)
C70B C -0.22916(15) 0.10031(12) 0.73238(14)
H39B H -0.2014 0.0929 0.7085
C71B C -0.34980(16) -0.00002(14) 0.57345(15)
C72B C -0.35663(16) -0.04926(14) 0.59608(16)
C73B C -0.40398(18) -0.06004(15) 0.62562(19)
H40B H -0.4326 -0.0364 0.6278
C74B C -0.40925(19) -0.10366(17) 0.6510(2)
H41B H -0.4408 -0.1101 0.6706
C75B C -0.3670(2) -0.13813(17) 0.6470(2)
C76B C -0.3121(2) -0.20482(18) 0.6562(3)
C77B C -0.2915(3) -0.2515(2) 0.6682(3)
H42B H -0.3103 -0.2728 0.6903
C78B C -0.2420(2) -0.26480(18) 0.6460(3)
H43B H -0.2263 -0.2957 0.6541
C79B C -0.21477(18) -0.23418(15) 0.6122(2)
C80B C 0.16172(16) 0.25269(13) 0.41191(17)
C81B C -0.23641(17) -0.18797(14) 0.59865(17)
H44B H -0.2180 -0.1674 0.5753
C82B C -0.28548(19) -0.17334(15) 0.6205(2)
C83B C -0.31960(16) -0.13031(15) 0.61621(18)
C84B C -0.31479(15) -0.08518(13) 0.59099(15)
H45B H -0.2837 -0.0788 0.5707
C85B C 0.1204(5) 0.4404(3) 0.4429(3)
H46B H 0.1518 0.4283 0.4703
H47B H 0.1364 0.4662 0.4215
C86B C 0.0767(7) 0.4606(4) 0.4724(5)
H48B H 0.0934 0.4860 0.4972
H49B H 0.0461 0.4741 0.4457
H50B H 0.0609 0.4355 0.4942
C87B C 0.0354(13) 0.1400(19) 0.5159(15)
H51B H 0.0201 0.1569 0.5467
H52B H 0.0073 0.1148 0.5027
C88B C 0.091(2) 0.115(2) 0.540(2)
H53B H 0.0825 0.0895 0.5662
H54B H 0.1098 0.1004 0.5104
H55B H 0.1174 0.1381 0.5604
C89B C -0.0779(3) -0.0502(3) -0.0324(3)
H56B H -0.0555 -0.0623 0.0015
H57B H -0.0747 -0.0726 -0.0630
H58B H -0.0632 -0.0188 -0.0417
C90B C -0.14056(18) -0.04563(15) -0.02330(16)
C91B C -0.1629(3) -0.0210(2) -0.12133(19)
H59B H -0.1219 -0.0264 -0.1222
H60B H -0.1850 -0.0430 -0.1472
H61B H -0.1725 0.0121 -0.1322
C92B C -0.2364(3) -0.0233(3) -0.0574(3)
H62B H -0.2410 -0.0299 -0.0185
H63B H -0.2482 0.0097 -0.0666
H64B H -0.2602 -0.0455 -0.0815
C93B C -0.0735(9) -0.0251(8) 0.3438(5)
H65B H -0.0421 -0.0239 0.3751
H66B H -0.0964 0.0044 0.3459
C94B C -0.1138(10) -0.0696(13) 0.3546(8)
H67B H -0.1286 -0.0652 0.3902
H68B H -0.1459 -0.0713 0.3247
H69B H -0.0915 -0.0993 0.3556
C95B C -0.5240(3) 0.0874(3) 0.5457(5)
C96B C -0.5283(5) 0.0409(4) 0.5401(4)
H70B H -0.4940 0.0283 0.5261
H71B H -0.5320 0.0263 0.5762
H72B H -0.5622 0.0331 0.5138
C97B C -0.6292(5) 0.0750(5) 0.5594(5)
H73B H -0.6140 0.0424 0.5633
H74B H -0.6540 0.0811 0.5882
H75B H -0.6515 0.0787 0.5227
C98B C -0.5900(12) 0.1704(7) 0.5765(13)
H76B H -0.6266 0.1750 0.5911
H77B H -0.5587 0.1826 0.6033
H78B H -0.5906 0.1878 0.5414
C99B C -0.1561(3) 0.0331(3) 0.5524(3)
C100B C -0.1630(4) 0.0039(4) 0.6031(4)
H79B H -0.1990 0.0125 0.6168
H80B H -0.1636 -0.0302 0.5935
H81B H -0.1308 0.0103 0.6319
C101B C -0.0648(6) -0.0160(6) 0.5428(7)
H82B H -0.0726 -0.0307 0.5777
H83B H -0.0689 -0.0402 0.5133
H84B H -0.0256 -0.0033 0.5473
C102B C -0.1017(5) 0.0529(5) 0.4730(5)
H85B H -0.1305 0.0783 0.4677
H86B H -0.0633 0.0670 0.4754
H87B H -0.1074 0.0307 0.4415
loop_
_geom_bond_atom_site_label_1
_geom_bond_atom_site_label_2
_geom_bond_site_symmetry_1
_geom_bond_site_symmetry_2
Cu1 O1 1_555 1_555
Cu2 O2 1_555 1_555
Cu3 O3 1_555 1_555
Cu4 O4 1_555 1_555
Cu5 O8 1_555 1_555
Cu6 O7 1_555 1_555
O1 C1 1_555 1_555
O2 C1 1_555 1_555
O3 C10 1_555 1_555
O4 C10 1_555 1_555
O5 Cu3 1_555 1_555
O6 Cu4 1_555 1_555
O7 C52 1_555 1_555
O8 C52 1_555 1_555
O9 Cu6 1_555 1_555
O10 Cu5 1_555 1_555
O11 Cu6 1_555 1_555
O12 Cu5 1_555 1_555
O13 Cu6 1_555 1_555
O14 Cu5 1_555 1_555
O15 Cu2 1_555 1_555
O16 Cu1 1_555 1_555
O17 Cu2 1_555 1_555
O18 Cu1 1_555 1_555
O19 Cu4 1_555 1_555
O20 Cu3 1_555 1_555
O21 Cu1 1_555 1_555
O22 Cu2 1_555 1_555
O23 Cu4 1_555 1_555
O24 Cu3 1_555 1_555
O25 Cu1 1_555 1_555
H1 O25 1_555 1_555
O26 Cu2 1_555 1_555
H2 O26 1_555 1_555
O27 Cu4 1_555 1_555
H3 O27 1_555 1_555
O28 Cu3 1_555 1_555
O29 Cu5 1_555 1_555
O30 Cu6 1_555 1_555
N1 H4 1_555 1_555
N2 H5 1_555 1_555
N3 H6 1_555 1_555
N4 H7 1_555 1_555
N5 H8 1_555 1_555
N6 C90 1_555 1_555
N7 C95 1_555 1_555
N8 C99 1_555 1_555
N9 H9 1_555 1_555
C1 C2 1_555 1_555
C2 C3 1_555 1_555
C3 H10 1_555 1_555
C4 C3 1_555 1_555
H11 C4 1_555 1_555
C5 N1 1_555 1_555
C6 N1 1_555 1_555
C7 C6 1_555 1_555
H12 C7 1_555 1_555
C8 C7 1_555 1_555
H13 C8 1_555 1_555
C9 C8 1_555 1_555
C10 C9 1_555 1_555
C11 C9 1_555 1_555
H14 C11 1_555 1_555
C12 C6 1_555 1_555
C13 C5 1_555 1_555
C14 C2 1_555 1_555
H15 C14 1_555 1_555
C15 O15 1_555 1_555
C16 C15 1_555 1_555
C17 C16 1_555 1_555
H16 C17 1_555 1_555
C18 C17 1_555 1_555
H17 C18 1_555 1_555
C19 N2 1_555 1_555
C20 N2 1_555 1_555
C21 C20 1_555 1_555
H18 C21 1_555 1_555
C22 C21 1_555 1_555
H19 C22 1_555 1_555
C23 C22 1_555 1_555
C24 O11 1_555 1_555
C25 C23 1_555 1_555
H20 C25 1_555 1_555
C26 C20 1_555 1_555
C27 C19 1_555 1_555
C28 C16 1_555 1_555
H21 C28 1_555 1_555
C29 O17 1_555 1_555
C30 C29 1_555 1_555
C31 C30 1_555 1_555
H22 C31 1_555 1_555
C32 C31 1_555 1_555
H23 C32 1_555 1_555
C33 N3 1_555 1_555
C34 N3 1_555 1_555
C35 C34 1_555 1_555
H24 C35 1_555 1_555
C36 C35 1_555 1_555
H25 C36 1_555 1_555
C37 C36 1_555 1_555
C38 O23 1_555 1_555
C39 C37 1_555 1_555
H26 C39 1_555 1_555
C40 C34 1_555 1_555
C41 C33 1_555 1_555
C42 C30 1_555 1_555
H27 C42 1_555 1_555
C43 O5 1_555 1_555
C44 C43 1_555 1_555
C45 C44 1_555 1_555
H28 C45 1_555 1_555
C46 C45 1_555 1_555
H29 C46 1_555 1_555
C47 N4 1_555 1_555
C48 N4 1_555 1_555
C49 C48 1_555 1_555
H30 C49 1_555 1_555
C50 C49 1_555 1_555
H31 C50 1_555 1_555
C51 C50 1_555 1_555
C52 C51 1_555 1_555
C53 C51 1_555 1_555
H32 C53 1_555 1_555
C54 C48 1_555 1_555
C55 C47 1_555 1_555
C56 C44 1_555 1_555
H33 C56 1_555 1_555
C57 O13 1_555 1_555
C58 C57 1_555 1_555
C59 C58 1_555 1_555
H34 C59 1_555 1_555
C60 C59 1_555 1_555
H35 C60 1_555 1_555
C61 N5 1_555 1_555
C62 N5 1_555 1_555
C63 C62 1_555 1_555
H36 C63 1_555 1_555
C64 C63 1_555 1_555
H37 C64 1_555 1_555
C65 C64 1_555 1_555
C66 O19 1_555 1_555
C67 C65 1_555 1_555
H38 C67 1_555 1_555
C68 C62 1_555 1_555
C69 C61 1_555 1_555
C70 C58 1_555 1_555
H39 C70 1_555 1_555
C71 O9 1_555 1_555
C72 C71 1_555 1_555
C73 C72 1_555 1_555
H40 C73 1_555 1_555
C74 C73 1_555 1_555
H41 C74 1_555 1_555
C75 N9 1_555 1_555
C76 N9 1_555 1_555
C77 C76 1_555 1_555
H42 C77 1_555 1_555
C78 C77 1_555 1_555
H43 C78 1_555 1_555
C79 C78 1_555 1_555
C80 O21 1_555 1_555
C81 C79 1_555 1_555
H44 C81 1_555 1_555
C82 C76 1_555 1_555
C83 C75 1_555 1_555
C84 C72 1_555 1_555
H45 C84 1_555 1_555
C85 O25 1_555 1_555
H46 C85 1_555 1_555
H47 C85 1_555 1_555
C86 C85 1_555 1_555
H48 C86 1_555 1_555
H49 C86 1_555 1_555
H50 C86 1_555 1_555
C87 O26 1_555 1_555
H51 C87 1_555 1_555
H52 C87 1_555 1_555
C88 C87 1_555 1_555
H53 C88 1_555 1_555
H54 C88 1_555 1_555
H55 C88 1_555 1_555
C89 H56 1_555 1_555
H57 C89 1_555 1_555
H58 C89 1_555 1_555
C90 O28 1_555 1_555
C91 N6 1_555 1_555
H59 C91 1_555 1_555
H60 C91 1_555 1_555
H61 C91 1_555 1_555
C92 N6 1_555 1_555
H62 C92 1_555 1_555
H63 C92 1_555 1_555
H64 C92 1_555 1_555
C93 O27 1_555 1_555
H65 C93 1_555 1_555
H66 C93 1_555 1_555
C94 C93 1_555 1_555
H67 C94 1_555 1_555
H68 C94 1_555 1_555
H69 C94 1_555 1_555
C95 O29 1_555 1_555
C96 C95 1_555 1_555
H70 C96 1_555 1_555
H71 C96 1_555 1_555
H72 C96 1_555 1_555
C97 N7 1_555 1_555
H73 C97 1_555 1_555
H74 C97 1_555 1_555
H75 C97 1_555 1_555
C98 N7 1_555 1_555
H76 C98 1_555 1_555
H77 C98 1_555 1_555
H78 C98 1_555 1_555
C99 O30 1_555 1_555
C100 C99 1_555 1_555
H79 C100 1_555 1_555
H80 C100 1_555 1_555
H81 C100 1_555 1_555
C101 N8 1_555 1_555
H82 C101 1_555 1_555
H83 C101 1_555 1_555
H84 C101 1_555 1_555
C102 N8 1_555 1_555
H85 C102 1_555 1_555
H86 C102 1_555 1_555
H87 C102 1_555 1_555
Cu1B O1B 1_555 1_555
Cu2B O2B 1_555 1_555
Cu3B O3B 1_555 1_555
Cu4B O4B 1_555 1_555
Cu5B O8B 1_555 1_555
Cu6B O7B 1_555 1_555
O1B C1B 1_555 1_555
O2B C1B 1_555 1_555
O3B C10B 1_555 1_555
O4B C10B 1_555 1_555
O5B Cu3B 1_555 1_555
O6B Cu4B 1_555 1_555
O7B C52B 1_555 1_555
O8B C52B 1_555 1_555
O9B Cu6B 1_555 1_555
O10B Cu5B 1_555 1_555
O11B Cu6B 1_555 1_555
O12B Cu5B 1_555 1_555
O13B Cu6B 1_555 1_555
O14B Cu5B 1_555 1_555
O15B Cu2B 1_555 1_555
O16B Cu1B 1_555 1_555
O17B Cu2B 1_555 1_555
O18B Cu1B 1_555 1_555
O19B Cu4B 1_555 1_555
O20B Cu3B 1_555 1_555
O21B Cu1B 1_555 1_555
O22B Cu2B 1_555 1_555
O23B Cu4B 1_555 1_555
O24B Cu3B 1_555 1_555
O25B Cu1B 1_555 1_555
H1B O25B 1_555 1_555
O26B Cu2B 1_555 1_555
H2B O26B 1_555 1_555
O27B Cu4B 1_555 1_555
H3B O27B 1_555 1_555
O28B Cu3B 1_555 1_555
O29B Cu5B 1_555 1_555
O30B Cu6B 1_555 1_555
N1B H4B 1_555 1_555
N2B H5B 1_555 1_555
N3B H6B 1_555 1_555
N4B H7B 1_555 1_555
N5B H8B 1_555 1_555
N6B C90B 1_555 1_555
N7B C95B 1_555 1_555
N8B C99B 1_555 1_555
N9B H9B 1_555 1_555
C1B C2B 1_555 1_555
C2B C3B 1_555 1_555
C3B H10B 1_555 1_555
C4B C3B 1_555 1_555
H11B C4B 1_555 1_555
C5B N1B 1_555 1_555
C6B N1B 1_555 1_555
C7B C6B 1_555 1_555
H12B C7B 1_555 1_555
C8B C7B 1_555 1_555
H13B C8B 1_555 1_555
C9B C8B 1_555 1_555
C10B C9B 1_555 1_555
C11B C9B 1_555 1_555
H14B C11B 1_555 1_555
C12B C6B 1_555 1_555
C13B C5B 1_555 1_555
C14B C2B 1_555 1_555
H15B C14B 1_555 1_555
C15B O15B 1_555 1_555
C16B C15B 1_555 1_555
C17B C16B 1_555 1_555
H16B C17B 1_555 1_555
C18B C17B 1_555 1_555
H17B C18B 1_555 1_555
C19B N2B 1_555 1_555
C20B N2B 1_555 1_555
C21B C20B 1_555 1_555
H18B C21B 1_555 1_555
C22B C21B 1_555 1_555
H19B C22B 1_555 1_555
C23B C22B 1_555 1_555
C24B O11B 1_555 1_555
C25B C23B 1_555 1_555
H20B C25B 1_555 1_555
C26B C20B 1_555 1_555
C27B C19B 1_555 1_555
C28B C16B 1_555 1_555
H21B C28B 1_555 1_555
C29B O17B 1_555 1_555
C30B C29B 1_555 1_555
C31B C30B 1_555 1_555
H22B C31B 1_555 1_555
C32B C31B 1_555 1_555
H23B C32B 1_555 1_555
C33B N3B 1_555 1_555
C34B N3B 1_555 1_555
C35B C34B 1_555 1_555
H24B C35B 1_555 1_555
C36B C35B 1_555 1_555
H25B C36B 1_555 1_555
C37B C38 1_555 1_555
C38B C37 1_555 1_555
C39B C37B 1_555 1_555
H26B C39B 1_555 1_555
C40B C34B 1_555 1_555
C41B C33B 1_555 1_555
C42B C30B 1_555 1_555
H27B C42B 1_555 1_555
C43B O5B 1_555 1_555
C44B C43B 1_555 1_555
C45B C44B 1_555 1_555
H28B C45B 1_555 1_555
C46B C45B 1_555 1_555
H29B C46B 1_555 1_555
C47B N4B 1_555 1_555
C48B N4B 1_555 1_555
C49B C48B 1_555 1_555
H30B C49B 1_555 1_555
C50B C49B 1_555 1_555
H31B C50B 1_555 1_555
C51B C50B 1_555 1_555
C52B C51B 1_555 1_555
C53B C51B 1_555 1_555
H32B C53B 1_555 1_555
C54B C48B 1_555 1_555
C55B C47B 1_555 1_555
C56B C44B 1_555 1_555
H33B C56B 1_555 1_555
C57B O13B 1_555 1_555
C58B C57B 1_555 1_555
C59B C58B 1_555 1_555
H34B C59B 1_555 1_555
C60B C59B 1_555 1_555
H35B C60B 1_555 1_555
C61B N5B 1_555 1_555
C62B N5B 1_555 1_555
C63B C62B 1_555 1_555
H36B C63B 1_555 1_555
C64B C63B 1_555 1_555
H37B C64B 1_555 1_555
C65B C66 1_555 1_555
C66B C65 1_555 1_555
C67B C65B 1_555 1_555
H38B C67B 1_555 1_555
C68B C62B 1_555 1_555
C69B C61B 1_555 1_555
C70B C58B 1_555 1_555
H39B C70B 1_555 1_555
C71B O9B 1_555 1_555
C72B C71B 1_555 1_555
C73B C72B 1_555 1_555
H40B C73B 1_555 1_555
C74B C73B 1_555 1_555
H41B C74B 1_555 1_555
C75B N9B 1_555 1_555
C76B N9B 1_555 1_555
C77B C76B 1_555 1_555
H42B C77B 1_555 1_555
C78B C77B 1_555 1_555
H43B C78B 1_555 1_555
C79B C80 1_555 1_555
C80B C79 1_555 1_555
C81B C79B 1_555 1_555
H44B C81B 1_555 1_555
C82B C76B 1_555 1_555
C83B C75B 1_555 1_555
C84B C72B 1_555 1_555
H45B C84B 1_555 1_555
C85B O25B 1_555 1_555
H46B C85B 1_555 1_555
H47B C85B 1_555 1_555
C86B C85B 1_555 1_555
H48B C86B 1_555 1_555
H49B C86B 1_555 1_555
H50B C86B 1_555 1_555
C87B O26B 1_555 1_555
H51B C87B 1_555 1_555
H52B C87B 1_555 1_555
C88B C87B 1_555 1_555
H53B C88B 1_555 1_555
H54B C88B 1_555 1_555
H55B C88B 1_555 1_555
C89B H56B 1_555 1_555
H57B C89B 1_555 1_555
H58B C89B 1_555 1_555
C90B O28B 1_555 1_555
C91B N6B 1_555 1_555
H59B C91B 1_555 1_555
H60B C91B 1_555 1_555
H61B C91B 1_555 1_555
C92B N6B 1_555 1_555
H62B C92B 1_555 1_555
H63B C92B 1_555 1_555
H64B C92B 1_555 1_555
C93B O27B 1_555 1_555
H65B C93B 1_555 1_555
H66B C93B 1_555 1_555
C94B C93B 1_555 1_555
H67B C94B 1_555 1_555
H68B C94B 1_555 1_555
H69B C94B 1_555 1_555
C95B O29B 1_555 1_555
C96B C95B 1_555 1_555
H70B C96B 1_555 1_555
H71B C96B 1_555 1_555
H72B C96B 1_555 1_555
C97B N7B 1_555 1_555
H73B C97B 1_555 1_555
H74B C97B 1_555 1_555
H75B C97B 1_555 1_555
C98B N7B 1_555 1_555
H76B C98B 1_555 1_555
H77B C98B 1_555 1_555
H78B C98B 1_555 1_555
C99B O30B 1_555 1_555
C100B C99B 1_555 1_555
H79B C100B 1_555 1_555
H80B C100B 1_555 1_555
H81B C100B 1_555 1_555
C101B N8B 1_555 1_555
H82B C101B 1_555 1_555
H83B C101B 1_555 1_555
H84B C101B 1_555 1_555
C102B N8B 1_555 1_555
H85B C102B 1_555 1_555
H86B C102B 1_555 1_555
H87B C102B 1_555 1_555
O6 C43 1_555 1_555
O10 C71 1_555 1_555
O12 C24 1_555 1_555
O14 C57 1_555 1_555
O16 C15 1_555 1_555
O18 C29 1_555 1_555
O20 C66 1_555 1_555
O22 C80 1_555 1_555
O24 C38 1_555 1_555
C4 C5 1_555 1_555
C11 C12 1_555 1_555
C12 C13 1_555 1_555
C13 C14 1_555 1_555
C18 C19 1_555 1_555
C23 C24 1_555 1_555
C25 C26 1_555 1_555
C26 C27 1_555 1_555
C27 C28 1_555 1_555
C32 C33 1_555 1_555
C39 C40 1_555 1_555
C40 C41 1_555 1_555
C41 C42 1_555 1_555
C46 C47 1_555 1_555
C53 C54 1_555 1_555
C54 C55 1_555 1_555
C55 C56 1_555 1_555
C60 C61 1_555 1_555
C67 C68 1_555 1_555
C68 C69 1_555 1_555
C69 C70 1_555 1_555
C74 C75 1_555 1_555
C81 C82 1_555 1_555
C82 C83 1_555 1_555
C83 C84 1_555 1_555
C89 C90 1_555 1_555
O6B C43B 1_555 1_555
O10B C71B 1_555 1_555
O12B C24B 1_555 1_555
O14B C57B 1_555 1_555
O16B C15B 1_555 1_555
O18B C29B 1_555 1_555
O19B C66B 1_555 1_555
O20B C66B 1_555 1_555
O21B C80B 1_555 1_555
O22B C80B 1_555 1_555
O23B C38B 1_555 1_555
O24B C38B 1_555 1_555
C4B C5B 1_555 1_555
C11B C12B 1_555 1_555
C12B C13B 1_555 1_555
C13B C14B 1_555 1_555
C18B C19B 1_555 1_555
C23B C24B 1_555 1_555
C25B C26B 1_555 1_555
C26B C27B 1_555 1_555
C27B C28B 1_555 1_555
C32B C33B 1_555 1_555
C36B C37B 1_555 1_555
C39B C40B 1_555 1_555
C40B C41B 1_555 1_555
C41B C42B 1_555 1_555
C46B C47B 1_555 1_555
C53B C54B 1_555 1_555
C54B C55B 1_555 1_555
C55B C56B 1_555 1_555
C60B C61B 1_555 1_555
C64B C65B 1_555 1_555
C67B C68B 1_555 1_555
C68B C69B 1_555 1_555
C69B C70B 1_555 1_555
C74B C75B 1_555 1_555
C78B C79B 1_555 1_555
C81B C82B 1_555 1_555
C82B C83B 1_555 1_555
C83B C84B 1_555 1_555
C89B C90B 1_555 1_555

#END
