
#######################################################################
#
#                 Cambridge Crystallographic Data Centre
#                                CCDC 
#
#######################################################################
#
# If this CIF has been generated from an entry in the Cambridge 
# Structural Database, then it will include bibliographic, chemical, 
# crystal, experimental, refinement or atomic coordinate data resulting 
# from the CCDC's data processing and validation procedures.
#
#######################################################################

data_SUPPOJ
_chemical_formula_moiety         'C198 H162 Cu12 N18 O60'
_chemical_name_systematic        
"dodecakis(\m~4~-9H-Carbazole-3,6-dicarboxylato-O,O',O'',O''')-hexa-aqua-hexakis(N,N-diethylformamide)-dodeca-copper unknown solvate"
_symmetry_cell_setting           rhombohedral
_symmetry_space_group_name_H-M   'R -3'
_symmetry_Int_Tables_number      148
_space_group_name_Hall           '-R 3'
loop_
_symmetry_equiv_pos_site_id
_symmetry_equiv_pos_as_xyz
1 x,y,z
2 -y,x-y,z
3 -x+y,-x,z
4 2/3+x,1/3+y,1/3+z
5 2/3-y,1/3+x-y,1/3+z
6 2/3-x+y,1/3-x,1/3+z
7 1/3+x,2/3+y,2/3+z
8 1/3-y,2/3+x-y,2/3+z
9 1/3-x+y,2/3-x,2/3+z
10 -x,-y,-z
11 y,-x+y,-z
12 x-y,x,-z
13 1/3-x,2/3-y,2/3-z
14 1/3+y,2/3-x+y,2/3-z
15 1/3+x-y,2/3+x,2/3-z
16 2/3-x,1/3-y,1/3-z
17 2/3+y,1/3-x+y,1/3-z
18 2/3+x-y,1/3+x,1/3-z
_cell_length_a                   24.560(3)
_cell_length_b                   24.560(3)
_cell_length_c                   59.190(9)
_cell_angle_alpha                90
_cell_angle_beta                 90
_cell_angle_gamma                120
_cell_volume                     30919.7
_exptl_crystal_colour            'blue green'
_exptl_crystal_description       block
_cell_formula_units_Z            3
loop_
_atom_site_label
_atom_site_type_symbol
_atom_site_fract_x
_atom_site_fract_y
_atom_site_fract_z
Cu1 Cu 0.50343(3) 1.03302(3) 0.072086(11)
O1 O 0.41612(17) 0.97161(17) 0.11448(6)
N1 N 0.2776(3) 1.0999(3) 0.15790(10)
H1 H 0.2696 1.1304 0.1562
C1 C 0.4201(3) 1.0225(3) 0.10762(9)
Cu2 Cu 0.45695(3) 0.93240(3) 0.097156(10)
O2 O 0.45251(18) 1.05654(19) 0.09118(6)
N2 N 0.1638(3) 0.8147(3) 0.00768(10)
H2 H 0.1505 0.8264 -0.0040
C2 C 0.3829(3) 1.0444(3) 0.12042(10)
O3 O 0.38652(17) 0.89935(16) 0.07567(6)
N3 N 0.5604(10) 1.1814(8) 0.0242(2)
C3 C 0.3828(3) 1.0992(3) 0.11422(11)
H3 H 0.4074 1.1221 0.1018
O4 O 0.42930(18) 0.98539(17) 0.05253(6)
C4 C 0.3500(3) 1.1208(3) 0.12485(12)
H4 H 0.3503 1.1574 0.1199
O5 O 0.09369(16) 0.59663(16) 0.07668(6)
C5 C 0.3142(3) 1.0869(3) 0.14397(12)
O6 O 0.00346(17) 0.55147(18) 0.05593(6)
C6 C 0.3146(3) 1.0321(3) 0.15162(10)
O7 O 0.22014(17) 0.86607(17) 0.21780(6)
C7 C 0.3495(3) 1.0122(3) 0.13984(9)
H5 H 0.3511 0.9767 0.1448
O8 O 0.16848(19) 0.9039(2) 0.23829(7)
C8 C 0.2598(3) 0.9640(3) 0.18725(9)
H6 H 0.2741 0.9353 0.1854
O9 O 0.54315(19) 1.11671(18) 0.05159(7)
C9 C 0.2772(3) 1.0121(3) 0.17201(10)
O10 O 0.4190(2) 0.8478(2) 0.11694(8)
H7 H 0.4060 0.8533 0.1292
H8 H 0.413(4) 0.8123(12) 0.1122(8)
C10 C 0.2553(4) 1.0551(3) 0.17548(12)
C11 C 0.2171(3) 1.0501(3) 0.19349(12)
H9 H 0.2027 1.0788 0.1954
C12 C 0.2008(3) 1.0011(3) 0.20859(12)
H10 H 0.1757 0.9969 0.2212
C13 C 0.2215(3) 0.9574(3) 0.20524(11)
C14 C 0.2020(3) 0.9039(3) 0.22203(10)
C15 C 0.3858(3) 0.9308(3) 0.05833(9)
C16 C 0.3291(3) 0.9000(3) 0.04408(9)
C17 C 0.3223(3) 0.9326(3) 0.02523(10)
H11 H 0.3558 0.9731 0.0219
C18 C 0.2711(3) 0.9091(3) 0.01195(11)
H12 H 0.2689 0.9320 -0.0004
C19 C 0.2209(4) 0.8487(3) 0.01721(11)
C20 C 0.2264(3) 0.8141(3) 0.03607(9)
C21 C 0.2803(3) 0.8417(3) 0.04927(9)
H13 H 0.2832 0.8200 0.0619
C22 C 0.1427(3) 0.7041(3) 0.05085(9)
H14 H 0.1669 0.7023 0.0629
C23 C 0.1673(3) 0.7571(3) 0.03725(10)
C24 C 0.1298(3) 0.7592(3) 0.01894(13)
C25 C 0.0700(3) 0.7099(3) 0.01508(12)
H15 H 0.0448 0.7118 0.0035
C26 C 0.0481(3) 0.6576(3) 0.02871(11)
H16 H 0.0082 0.6230 0.0258
C27 C 0.0834(3) 0.6540(3) 0.04698(10)
C28 C 0.0587(3) 0.5957(3) 0.06128(9)
C29 C 0.5226(10) 1.1457(12) 0.0405(4)
H17 H 0.4834 1.1424 0.0434
C30 C 0.5767(12) 1.2413(9) 0.0177(6)
H18 H 0.5990 1.2508 0.0033
H19 H 0.6055 1.2711 0.0290
C31 C 0.5198(16) 1.2502(13) 0.0153(6)
H20 H 0.5336 1.2931 0.0108
H21 H 0.4979 1.2415 0.0296
H22 H 0.4916 1.2215 0.0039
C32 C 0.6053(10) 1.1688(14) 0.0138(4)
H23 H 0.6080 1.1354 0.0219
H24 H 0.6470 1.2067 0.0137
C33 C 0.5812(16) 1.1478(17) -0.0106(4)
H25 H 0.6080 1.1351 -0.0182
H26 H 0.5820 1.1825 -0.0187
H27 H 0.5385 1.1127 -0.0101
Cu1A Cu -0.03302(3) 0.47041(4) 0.072086(11)
Cu1B Cu 0.52959(4) 0.49657(3) 0.072086(11)
Cu1O Cu 0.16324(3) 0.30031(3) 0.261247(11)
Cu1P Cu 0.69969(3) 0.86292(4) 0.261247(11)
Cu1Q Cu 0.13708(4) 0.83676(3) 0.261247(11)
O1A O 0.02839(17) 0.44451(24) 0.11448(6)
O1B O 0.55549(24) 0.58388(17) 0.11448(6)
O1O O 0.25055(17) 0.36172(17) 0.21885(6)
O1P O 0.63828(17) 0.88882(24) 0.21885(6)
O1Q O 0.11118(24) 0.74945(17) 0.21885(6)
N1A N -0.0999(3) 0.1777(4) 0.15790(10)
N1B N 0.8223(4) 0.7224(3) 0.15790(10)
N1O N 0.3891(3) 0.2334(3) 0.17543(10)
N1P N 0.7666(3) 1.1556(4) 0.17543(10)
N1Q N -0.1556(4) 0.6109(3) 0.17543(10)
H1A H -0.1304 0.1392 0.1562
H1B H 0.8608 0.7304 0.1562
H1O H 0.3971 0.2029 0.1771
H1P H 0.7971 1.1941 0.1771
H1Q H -0.1941 0.6029 0.1771
C1A C -0.0225(3) 0.3976(4) 0.10762(9)
C1B C 0.6024(4) 0.5799(3) 0.10762(9)
C1O C 0.2466(3) 0.3108(3) 0.22571(9)
C1P C 0.6892(3) 0.9357(4) 0.22571(9)
C1Q C 0.0643(4) 0.7534(3) 0.22571(9)
Cu2A Cu 0.06760(3) 0.52455(4) 0.097156(10)
Cu2B Cu 0.47545(4) 0.54305(3) 0.097156(10)
Cu2O Cu 0.20972(3) 0.40093(3) 0.236177(10)
Cu2P Cu 0.59907(3) 0.80878(4) 0.236177(10)
Cu2Q Cu 0.19122(4) 0.79028(3) 0.236177(10)
O2A O -0.05654(19) 0.39597(26) 0.09118(6)
O2B O 0.60403(26) 0.54749(18) 0.09118(6)
O2O O 0.21416(18) 0.27679(19) 0.24215(6)
O2P O 0.72321(19) 0.93736(26) 0.24215(6)
O2Q O 0.06264(26) 0.78584(18) 0.24215(6)
N2A N 0.1853(3) 0.3491(4) 0.00768(10)
N2B N 0.6509(4) 0.8362(3) 0.00768(10)
N2O N 0.5029(3) 0.5186(3) 0.32565(10)
N2P N 0.4814(3) 0.9842(4) 0.32565(10)
N2Q N 0.0158(4) 0.4971(3) 0.32565(10)
H2A H 0.1736 0.3241 -0.0040
H2B H 0.6759 0.8495 -0.0040
H2O H 0.5162 0.5069 0.3373
H2P H 0.4931 1.0092 0.3373
H2Q H -0.0092 0.4838 0.3373
C2A C -0.0444(3) 0.3385(4) 0.12042(10)
C2B C 0.6615(4) 0.6171(3) 0.12042(10)
C2O C 0.2838(3) 0.2889(3) 0.21291(10)
C2P C 0.7111(3) 0.9948(4) 0.21291(10)
C2Q C 0.0052(4) 0.7162(3) 0.21291(10)
O3A O 0.10065(16) 0.48717(23) 0.07567(6)
O3B O 0.51283(23) 0.61348(17) 0.07567(6)
O3O O 0.28015(17) 0.43398(16) 0.25766(6)
O3P O 0.56602(16) 0.84616(23) 0.25766(6)
O3Q O 0.15384(23) 0.71985(17) 0.25766(6)
N3A N -0.1814(8) 0.3790(13) 0.0242(2)
N3B N 0.6210(13) 0.4396(10) 0.0242(2)
N3O N 0.1063(10) 0.1519(8) 0.3091(2)
N3P N 0.8481(8) 0.9543(13) 0.3091(2)
N3Q N 0.0457(13) 0.8937(10) 0.3091(2)
C3A C -0.0992(3) 0.2836(4) 0.11422(11)
C3B C 0.7164(4) 0.6172(3) 0.11422(11)
C3O C 0.2839(3) 0.2341(3) 0.21911(11)
C3P C 0.7659(3) 1.0497(4) 0.21911(11)
C3Q C -0.0497(4) 0.7161(3) 0.21911(11)
H3A H -0.1221 0.2853 0.1018
H3B H 0.7147 0.5926 0.1018
H3O H 0.2593 0.2112 0.2315
H3P H 0.7888 1.0480 0.2315
H3Q H -0.0480 0.7407 0.2315
O4A O 0.01461(17) 0.44391(25) 0.05253(6)
O4B O 0.55609(25) 0.57070(18) 0.05253(6)
O4O O 0.23737(18) 0.34794(17) 0.28080(6)
O4P O 0.65206(17) 0.88942(25) 0.28080(6)
O4Q O 0.11058(25) 0.76263(18) 0.28080(6)
C4A C -0.1208(3) 0.2292(4) 0.12485(12)
C4B C 0.7708(4) 0.6500(3) 0.12485(12)
C4O C 0.3167(3) 0.2125(3) 0.20848(12)
C4P C 0.7875(3) 1.1041(4) 0.20848(12)
C4Q C -0.1041(4) 0.6833(3) 0.20848(12)
H4A H -0.1574 0.1929 0.1199
H4B H 0.8071 0.6497 0.1199
H4O H 0.3164 0.1759 0.2134
H4P H 0.8241 1.1404 0.2134
H4Q H -0.1404 0.6836 0.2134
O5A O 0.40337(16) 0.49706(23) 0.07668(6)
O5B O 0.50294(23) 0.90631(16) 0.07668(6)
O5O O 0.57298(16) 0.73670(16) 0.25665(6)
O5P O 0.26330(16) 0.83627(23) 0.25665(6)
O5Q O 0.16373(23) 0.42702(16) 0.25665(6)
C5A C -0.0869(3) 0.2273(4) 0.14397(12)
C5B C 0.7727(4) 0.6858(3) 0.14397(12)
C5O C 0.3525(3) 0.2464(3) 0.18936(12)
C5P C 0.7536(3) 1.1060(4) 0.18936(12)
C5Q C -0.1060(4) 0.6475(3) 0.18936(12)
O6A O 0.44853(18) 0.45199(25) 0.05593(6)
O6B O 0.54801(25) 0.99654(17) 0.05593(6)
O6O O 0.66321(17) 0.78186(18) 0.27740(6)
O6P O 0.21814(18) 0.88134(25) 0.27740(6)
O6Q O 0.11866(25) 0.33679(17) 0.27740(6)
C6A C -0.0321(3) 0.2825(4) 0.15162(10)
C6B C 0.7175(4) 0.6854(3) 0.15162(10)
C6O C 0.3521(3) 0.3012(3) 0.18171(10)
C6P C 0.6988(3) 1.0508(4) 0.18171(10)
C6Q C -0.0508(4) 0.6479(3) 0.18171(10)
O7A O 0.13393(17) 0.35407(24) 0.21780(6)
O7B O 0.64593(24) 0.77986(17) 0.21780(6)
O7O O 0.44653(17) 0.46726(17) 0.11553(6)
O7P O 0.53274(17) 0.97926(24) 0.11553(6)
O7Q O 0.02074(24) 0.55347(17) 0.11553(6)
C7A C -0.0122(3) 0.3373(4) 0.13984(9)
C7B C 0.6627(4) 0.6505(3) 0.13984(9)
C7O C 0.3172(3) 0.3211(3) 0.19349(9)
C7P C 0.6789(3) 0.9960(4) 0.19349(9)
C7Q C 0.0040(4) 0.6828(3) 0.19349(9)
H5A H 0.0233 0.3744 0.1448
H5B H 0.6256 0.6489 0.1448
H5O H 0.3156 0.3566 0.1885
H5P H 0.6434 0.9589 0.1885
H5Q H 0.0411 0.6844 0.1885
O8A O 0.0961(2) 0.26458(28) 0.23829(7)
O8B O 0.73542(28) 0.83152(19) 0.23829(7)
O8O O 0.49819(19) 0.4294(2) 0.09504(7)
O8P O 0.5706(2) 1.06875(28) 0.09504(7)
O8Q O -0.06875(28) 0.50181(19) 0.09504(7)
C8A C 0.0360(3) 0.2958(4) 0.18725(9)
C8B C 0.7042(4) 0.7402(3) 0.18725(9)
C8O C 0.4069(3) 0.3693(3) 0.14608(9)
C8P C 0.6307(3) 1.0375(4) 0.14608(9)
C8Q C -0.0375(4) 0.5931(3) 0.14608(9)
H6A H 0.0647 0.3388 0.1854
H6B H 0.6612 0.7259 0.1854
H6O H 0.3926 0.3980 0.1479
H6P H 0.6020 0.9945 0.1479
H6Q H 0.0055 0.6074 0.1479
O9A O -0.11671(18) 0.42644(26) 0.05159(7)
O9B O 0.57356(26) 0.45685(19) 0.05159(7)
O9O O 0.12352(19) 0.21662(18) 0.28174(7)
O9P O 0.78338(18) 0.90689(26) 0.28174(7)
O9Q O 0.09311(26) 0.87648(19) 0.28174(7)
C9A C -0.0121(3) 0.2651(4) 0.17201(10)
C9B C 0.7349(4) 0.7228(3) 0.17201(10)
C9O C 0.3895(3) 0.3212(3) 0.16132(10)
C9P C 0.6788(3) 1.0682(4) 0.16132(10)
C9Q C -0.0682(4) 0.6105(3) 0.16132(10)
O10A O 0.1522(2) 0.5712(3) 0.11694(8)
O10B O 0.4288(3) 0.5810(2) 0.11694(8)
O10O O 0.2477(2) 0.4855(2) 0.21639(8)
O10P O 0.5145(2) 0.7621(3) 0.21639(8)
O10Q O 0.2379(3) 0.7523(2) 0.21639(8)
H7A H 0.1467 0.5527 0.1292
H7B H 0.4473 0.5940 0.1292
H7O H 0.2607 0.4800 0.2041
H7P H 0.5200 0.7806 0.2041
H7Q H 0.2194 0.7393 0.2041
H8A H 0.1877(12) 0.6007(42) 0.1122(8)
H8B H 0.3993(42) 0.587(4) 0.1122(8)
H8O H 0.254(4) 0.5210(12) 0.2211(8)
H8P H 0.4790(12) 0.7326(42) 0.2211(8)
H8Q H 0.2674(42) 0.746(4) 0.2211(8)
C10A C -0.0551(3) 0.2002(5) 0.17548(12)
C10B C 0.7998(5) 0.7447(4) 0.17548(12)
C10O C 0.4114(4) 0.2782(3) 0.15785(12)
C10P C 0.7218(3) 1.1331(5) 0.15785(12)
C10Q C -0.1331(5) 0.5886(4) 0.15785(12)
C11A C -0.0501(3) 0.1670(4) 0.19349(12)
C11B C 0.8330(4) 0.7829(3) 0.19349(12)
C11O C 0.4496(3) 0.2832(3) 0.13984(12)
C11P C 0.7168(3) 1.1663(4) 0.13984(12)
C11Q C -0.1663(4) 0.5504(3) 0.13984(12)
H9A H -0.0788 0.1239 0.1954
H9B H 0.8761 0.7973 0.1954
H9O H 0.4640 0.2545 0.1379
H9P H 0.7455 1.2094 0.1379
H9Q H -0.2094 0.5360 0.1379
C12A C -0.0011(3) 0.1997(4) 0.20859(12)
C12B C 0.8003(4) 0.7992(3) 0.20859(12)
C12O C 0.4659(3) 0.3322(3) 0.12474(12)
C12P C 0.6678(3) 1.1336(4) 0.12474(12)
C12Q C -0.1336(4) 0.5341(3) 0.12474(12)
H10A H 0.0031 0.1788 0.2212
H10B H 0.8212 0.8243 0.2212
H10O H 0.4910 0.3364 0.1121
H10P H 0.6636 1.1545 0.1121
H10Q H -0.1545 0.5090 0.1121
C13A C 0.0426(3) 0.2641(4) 0.20524(11)
C13B C 0.7359(4) 0.7785(3) 0.20524(11)
C13O C 0.4452(3) 0.3759(3) 0.12809(11)
C13P C 0.6241(3) 1.0692(4) 0.12809(11)
C13Q C -0.0692(4) 0.5548(3) 0.12809(11)
C14A C 0.0961(3) 0.2981(4) 0.22203(10)
C14B C 0.7019(4) 0.7980(3) 0.22203(10)
C14O C 0.4647(3) 0.4294(3) 0.11130(10)
C14P C 0.5706(3) 1.0352(4) 0.11130(10)
C14Q C -0.0352(4) 0.5353(3) 0.11130(10)
C15A C 0.0692(3) 0.4550(4) 0.05833(9)
C15B C 0.5450(4) 0.6142(3) 0.05833(9)
C15O C 0.2809(3) 0.4025(3) 0.27500(9)
C15P C 0.5975(3) 0.8783(4) 0.27500(9)
C15Q C 0.1217(4) 0.7191(3) 0.27500(9)
C16A C 0.1000(3) 0.4291(4) 0.04408(9)
C16B C 0.5709(4) 0.6709(3) 0.04408(9)
C16O C 0.3376(3) 0.4333(3) 0.28925(9)
C16P C 0.5667(3) 0.9042(4) 0.28925(9)
C16Q C 0.0958(4) 0.6624(3) 0.28925(9)
C17A C 0.0674(3) 0.3897(4) 0.02523(10)
C17B C 0.6103(4) 0.6777(3) 0.02523(10)
C17O C 0.3444(3) 0.4007(3) 0.30810(10)
C17P C 0.5993(3) 0.9436(4) 0.30810(10)
C17Q C 0.0564(4) 0.6556(3) 0.30810(10)
H11A H 0.0269 0.3827 0.0219
H11B H 0.6173 0.6442 0.0219
H11O H 0.3109 0.3602 0.3114
H11P H 0.6398 0.9506 0.3114
H11Q H 0.0494 0.6891 0.3114
C18A C 0.0909(3) 0.3620(4) 0.01195(11)
C18B C 0.6380(4) 0.7289(3) 0.01195(11)
C18O C 0.3956(3) 0.4242(3) 0.32138(11)
C18P C 0.5758(3) 0.9713(4) 0.32138(11)
C18Q C 0.0287(4) 0.6044(3) 0.32138(11)
H12A H 0.0680 0.3369 -0.0004
H12B H 0.6631 0.7311 -0.0004
H12O H 0.3978 0.4013 0.3337
H12P H 0.5987 0.9964 0.3337
H12Q H 0.0036 0.6022 0.3337
C19A C 0.1513(3) 0.3722(5) 0.01721(11)
C19B C 0.6278(5) 0.7791(4) 0.01721(11)
C19O C 0.4458(4) 0.4846(3) 0.31612(11)
C19P C 0.5154(3) 0.9611(5) 0.31612(11)
C19Q C 0.0389(5) 0.5542(4) 0.31612(11)
C20A C 0.1859(3) 0.4123(4) 0.03607(9)
C20B C 0.5877(4) 0.7736(3) 0.03607(9)
C20O C 0.4403(3) 0.5192(3) 0.29726(9)
C20P C 0.4808(3) 0.9210(4) 0.29726(9)
C20Q C 0.0790(4) 0.5597(3) 0.29726(9)
C21A C 0.1583(3) 0.4386(4) 0.04927(9)
C21B C 0.5614(4) 0.7197(3) 0.04927(9)
C21O C 0.3864(3) 0.4916(3) 0.28406(9)
C21P C 0.5084(3) 0.8947(4) 0.28406(9)
C21Q C 0.1053(4) 0.6136(3) 0.28406(9)
H13A H 0.1800 0.4632 0.0619
H13B H 0.5368 0.7168 0.0619
H13O H 0.3835 0.5133 0.2714
H13P H 0.4867 0.8701 0.2714
H13Q H 0.1299 0.6165 0.2714
C22A C 0.2959(3) 0.4386(4) 0.05085(9)
C22B C 0.5614(4) 0.8573(3) 0.05085(9)
C22O C 0.5240(3) 0.6292(3) 0.28248(9)
C22P C 0.3708(3) 0.8947(4) 0.28248(9)
C22Q C 0.1053(4) 0.4760(3) 0.28248(9)
H14A H 0.2977 0.4646 0.0629
H14B H 0.5354 0.8331 0.0629
H14O H 0.4998 0.6310 0.2704
H14P H 0.3690 0.8687 0.2704
H14Q H 0.1313 0.5002 0.2704
C23A C 0.2429(3) 0.4102(4) 0.03725(10)
C23B C 0.5898(4) 0.8327(3) 0.03725(10)
C23O C 0.4994(3) 0.5762(3) 0.29608(10)
C23P C 0.4238(3) 0.9231(4) 0.29608(10)
C23Q C 0.0769(4) 0.5006(3) 0.29608(10)
C24A C 0.2408(3) 0.3706(4) 0.01894(13)
C24B C 0.6294(4) 0.8702(3) 0.01894(13)
C24O C 0.5369(3) 0.5741(3) 0.31439(13)
C24P C 0.4259(3) 0.9627(4) 0.31439(13)
C24Q C 0.0373(4) 0.4631(3) 0.31439(13)
C25A C 0.2901(3) 0.3601(4) 0.01508(12)
C25B C 0.6399(4) 0.9300(3) 0.01508(12)
C25O C 0.5967(3) 0.6234(3) 0.31825(12)
C25P C 0.3766(3) 0.9732(4) 0.31825(12)
C25Q C 0.0268(4) 0.4033(3) 0.31825(12)
H15A H 0.2882 0.3330 0.0035
H15B H 0.6670 0.9552 0.0035
H15O H 0.6219 0.6215 0.3298
H15P H 0.3785 1.0003 0.3298
H15Q H -0.0003 0.3781 0.3298
C26A C 0.3424(3) 0.3905(4) 0.02871(11)
C26B C 0.6095(4) 0.9519(3) 0.02871(11)
C26O C 0.6186(3) 0.6757(3) 0.30462(11)
C26P C 0.3243(3) 0.9428(4) 0.30462(11)
C26Q C 0.0572(4) 0.3814(3) 0.30462(11)
H16A H 0.3770 0.3852 0.0258
H16B H 0.6148 0.9918 0.0258
H16O H 0.6585 0.7103 0.3075
H16P H 0.2897 0.9481 0.3075
H16Q H 0.0519 0.3415 0.3075
C27A C 0.3460(3) 0.4294(4) 0.04698(10)
C27B C 0.5706(4) 0.9166(3) 0.04698(10)
C27O C 0.5833(3) 0.6793(3) 0.28635(10)
C27P C 0.3207(3) 0.9039(4) 0.28635(10)
C27Q C 0.0961(4) 0.4167(3) 0.28635(10)
C28A C 0.4043(3) 0.4630(4) 0.06128(9)
C28B C 0.5370(4) 0.9413(3) 0.06128(9)
C28O C 0.6080(3) 0.7376(3) 0.27205(9)
C28P C 0.2624(3) 0.8703(4) 0.27205(9)
C28Q C 0.1297(4) 0.3920(3) 0.27205(9)
C29A C -0.1457(12) 0.3769(16) 0.0405(4)
C29B C 0.6231(16) 0.4774(10) 0.0405(4)
C29O C 0.1441(10) 0.1876(12) 0.2928(4)
C29P C 0.8124(12) 0.9564(16) 0.2928(4)
C29Q C 0.0436(16) 0.8559(10) 0.2928(4)
H17A H -0.1424 0.3410 0.0434
H17B H 0.6590 0.5166 0.0434
H17O H 0.1833 0.1909 0.2899
H17P H 0.8091 0.9923 0.2899
H17Q H 0.0077 0.8167 0.2899
C30A C -0.2413(9) 0.3354(15) 0.0177(6)
C30B C 0.6646(15) 0.4233(12) 0.0177(6)
C30O C 0.0900(12) 0.0920(9) 0.3156(6)
C30P C 0.9080(9) 0.9979(15) 0.3156(6)
C30Q C 0.0021(15) 0.9100(12) 0.3156(6)
H18A H -0.2508 0.3482 0.0033
H18B H 0.6518 0.4010 0.0033
H18O H 0.0677 0.0825 0.3300
H18P H 0.9175 0.9851 0.3300
H18Q H 0.0149 0.9323 0.3300
H19A H -0.2711 0.3344 0.0290
H19B H 0.6656 0.3945 0.0290
H19O H 0.0612 0.0622 0.3043
H19P H 0.9378 0.9989 0.3043
H19Q H 0.0011 0.9388 0.3043
C31A C -0.2502(13) 0.2696(21) 0.0153(6)
C31B C 0.7304(21) 0.4802(16) 0.0153(6)
C31O C 0.1469(16) 0.0831(13) 0.3180(6)
C31P C 0.9169(13) 1.0637(21) 0.3180(6)
C31Q C -0.0637(21) 0.8531(16) 0.3180(6)
H20A H -0.2931 0.2405 0.0108
H20B H 0.7595 0.4664 0.0108
H20O H 0.1331 0.0402 0.3225
H20P H 0.9598 1.0928 0.3225
H20Q H -0.0928 0.8669 0.3225
H21A H -0.2415 0.2564 0.0296
H21B H 0.7436 0.5021 0.0296
H21O H 0.1688 0.0918 0.3037
H21P H 0.9082 1.0769 0.3037
H21Q H -0.0769 0.8312 0.3037
H22A H -0.2215 0.2701 0.0039
H22B H 0.7299 0.5084 0.0039
H22O H 0.1751 0.1118 0.3294
H22P H 0.8882 1.0632 0.3294
H22Q H -0.0632 0.8249 0.3294
C32A C -0.1688(14) 0.4365(17) 0.0138(4)
C32B C 0.5635(17) 0.3947(10) 0.0138(4)
C32O C 0.0614(10) 0.1645(14) 0.3195(4)
C32P C 0.8355(14) 0.8968(17) 0.3195(4)
C32Q C 0.1032(17) 0.9386(10) 0.3195(4)
H23A H -0.1354 0.4726 0.0219
H23B H 0.5274 0.3920 0.0219
H23O H 0.0587 0.1979 0.3114
H23P H 0.8021 0.8607 0.3114
H23Q H 0.1393 0.9413 0.3114
H24A H -0.2067 0.4403 0.0137
H24B H 0.5597 0.3530 0.0137
H24O H 0.0197 0.1266 0.3196
H24P H 0.8734 0.8930 0.3196
H24Q H 0.1070 0.9803 0.3196
C33A C -0.1478(17) 0.4334(23) -0.0106(4)
C33B C 0.5666(23) 0.4188(16) -0.0106(4)
C33O C 0.0855(16) 0.1855(17) 0.3439(4)
C33P C 0.8145(17) 0.8999(23) 0.3439(4)
C33Q C 0.1001(23) 0.9145(16) 0.3439(4)
H25A H -0.1351 0.4729 -0.0182
H25B H 0.5271 0.3920 -0.0182
H25O H 0.0587 0.1982 0.3515
H25P H 0.8018 0.8604 0.3515
H25Q H 0.1396 0.9413 0.3515
H26A H -0.1825 0.3995 -0.0187
H26B H 0.6005 0.4180 -0.0187
H26O H 0.0847 0.1508 0.3520
H26P H 0.8492 0.9338 0.3520
H26Q H 0.0662 0.9153 0.3520
H27A H -0.1127 0.4258 -0.0101
H27B H 0.5742 0.4615 -0.0101
H27O H 0.1282 0.2206 0.3434
H27P H 0.7794 0.9075 0.3434
H27Q H 0.0925 0.8718 0.3434
loop_
_geom_bond_atom_site_label_1
_geom_bond_atom_site_label_2
_geom_bond_site_symmetry_1
_geom_bond_site_symmetry_2
Cu1 Cu2 1_555 1_555
O1 C1 1_555 1_555
N1 H1 1_555 1_555
C1 O2 1_555 1_555
Cu2 O1 1_555 1_555
O2 Cu1 1_555 1_555
N2 H2 1_555 1_555
C2 C1 1_555 1_555
O3 Cu2 1_555 1_555
N3 C29 1_555 1_555
C3 C2 1_555 1_555
H3 C3 1_555 1_555
O4 Cu1 1_555 1_555
C4 C3 1_555 1_555
H4 C4 1_555 1_555
O5 C28 1_555 1_555
C5 N1 1_555 1_555
O6 C28 1_555 1_555
C6 C5 1_555 1_555
O7 C14 1_555 1_555
C7 C2 1_555 1_555
H5 C7 1_555 1_555
O8 C14 1_555 1_555
C8 H6 1_555 1_555
O9 Cu1 1_555 1_555
C9 C6 1_555 1_555
O10 Cu2 1_555 1_555
H7 O10 1_555 1_555
H8 O10 1_555 1_555
C10 N1 1_555 1_555
C11 C10 1_555 1_555
H9 C11 1_555 1_555
C12 C11 1_555 1_555
H10 C12 1_555 1_555
C13 C8 1_555 1_555
C14 C13 1_555 1_555
C15 O3 1_555 1_555
C16 C15 1_555 1_555
C17 C16 1_555 1_555
H11 C17 1_555 1_555
C18 C17 1_555 1_555
H12 C18 1_555 1_555
C19 N2 1_555 1_555
C20 C19 1_555 1_555
C21 C16 1_555 1_555
H13 C21 1_555 1_555
C22 H14 1_555 1_555
C23 C20 1_555 1_555
C24 N2 1_555 1_555
C25 C24 1_555 1_555
H15 C25 1_555 1_555
C26 C25 1_555 1_555
H16 C26 1_555 1_555
C27 C22 1_555 1_555
C28 C27 1_555 1_555
C29 O9 1_555 1_555
H17 C29 1_555 1_555
C30 N3 1_555 1_555
H18 C30 1_555 1_555
H19 C30 1_555 1_555
C31 C30 1_555 1_555
H20 C31 1_555 1_555
H21 C31 1_555 1_555
H22 C31 1_555 1_555
C32 N3 1_555 1_555
H23 C32 1_555 1_555
H24 C32 1_555 1_555
C33 C32 1_555 1_555
H25 C33 1_555 1_555
H26 C33 1_555 1_555
H27 C33 1_555 1_555
Cu1A O6 1_555 1_555
Cu1B Cu2B 1_555 1_555
Cu1O Cu2O 1_555 1_555
Cu1P Cu2P 1_555 1_555
Cu1Q O8 1_555 1_555
O1A C1A 1_555 1_555
O1B C1B 1_555 1_555
O1O C1O 1_555 1_555
O1P C1P 1_555 1_555
O1Q C1Q 1_555 1_555
N1A H1A 1_555 1_555
N1B H1B 1_555 1_555
N1O H1O 1_555 1_555
N1P H1P 1_555 1_555
N1Q H1Q 1_555 1_555
C1A O2A 1_555 1_555
C1B O2B 1_555 1_555
C1O O2O 1_555 1_555
C1P O2P 1_555 1_555
C1Q O2Q 1_555 1_555
Cu2A O5 1_555 1_555
Cu2B O1B 1_555 1_555
Cu2O O1O 1_555 1_555
Cu2P O1P 1_555 1_555
Cu2Q O7 1_555 1_555
O2A Cu1A 1_555 1_555
O2B Cu1B 1_555 1_555
O2O Cu1O 1_555 1_555
O2P Cu1P 1_555 1_555
O2Q Cu1Q 1_555 1_555
N2A H2A 1_555 1_555
N2B H2B 1_555 1_555
N2O H2O 1_555 1_555
N2P H2P 1_555 1_555
N2Q H2Q 1_555 1_555
C2A C1A 1_555 1_555
C2B C1B 1_555 1_555
C2O C1O 1_555 1_555
C2P C1P 1_555 1_555
C2Q C1Q 1_555 1_555
O3A Cu2A 1_555 1_555
O3B Cu2B 1_555 1_555
O3O Cu2O 1_555 1_555
O3P Cu2P 1_555 1_555
O3Q Cu2Q 1_555 1_555
N3A C29A 1_555 1_555
N3B C29B 1_555 1_555
N3O C29O 1_555 1_555
N3P C29P 1_555 1_555
N3Q C29Q 1_555 1_555
C3A C2A 1_555 1_555
C3B C2B 1_555 1_555
C3O C2O 1_555 1_555
C3P C2P 1_555 1_555
C3Q C2Q 1_555 1_555
H3A C3A 1_555 1_555
H3B C3B 1_555 1_555
H3O C3O 1_555 1_555
H3P C3P 1_555 1_555
H3Q C3Q 1_555 1_555
O4A Cu1A 1_555 1_555
O4B Cu1B 1_555 1_555
O4O Cu1O 1_555 1_555
O4P Cu1P 1_555 1_555
O4Q Cu1Q 1_555 1_555
C4A C3A 1_555 1_555
C4B C3B 1_555 1_555
C4O C3O 1_555 1_555
C4P C3P 1_555 1_555
C4Q C3Q 1_555 1_555
H4A C4A 1_555 1_555
H4B C4B 1_555 1_555
H4O C4O 1_555 1_555
H4P C4P 1_555 1_555
H4Q C4Q 1_555 1_555
O5A Cu2B 1_555 1_555
O5B Cu2 1_555 1_555
O5O Cu2P 1_555 1_555
O5P Cu2Q 1_555 1_555
O5Q Cu2O 1_555 1_555
C5A N1A 1_555 1_555
C5B N1B 1_555 1_555
C5O N1O 1_555 1_555
C5P N1P 1_555 1_555
C5Q N1Q 1_555 1_555
O6A Cu1B 1_555 1_555
O6B Cu1 1_555 1_555
O6O Cu1P 1_555 1_555
O6P Cu1Q 1_555 1_555
O6Q Cu1O 1_555 1_555
C6A C5A 1_555 1_555
C6B C5B 1_555 1_555
C6O C5O 1_555 1_555
C6P C5P 1_555 1_555
C6Q C5Q 1_555 1_555
O7A Cu2O 1_555 1_555
O7B Cu2P 1_555 1_555
O7O Cu2B 1_555 1_555
O7P Cu2 1_555 1_555
O7Q Cu2A 1_555 1_555
C7A C2A 1_555 1_555
C7B C2B 1_555 1_555
C7O C2O 1_555 1_555
C7P C2P 1_555 1_555
C7Q C2Q 1_555 1_555
H5A C7A 1_555 1_555
H5B C7B 1_555 1_555
H5O C7O 1_555 1_555
H5P C7P 1_555 1_555
H5Q C7Q 1_555 1_555
O8A Cu1O 1_555 1_555
O8B Cu1P 1_555 1_555
O8O Cu1B 1_555 1_555
O8P Cu1 1_555 1_555
O8Q Cu1A 1_555 1_555
C8A H6A 1_555 1_555
C8B H6B 1_555 1_555
C8O H6O 1_555 1_555
C8P H6P 1_555 1_555
C8Q H6Q 1_555 1_555
O9A Cu1A 1_555 1_555
O9B Cu1B 1_555 1_555
O9O Cu1O 1_555 1_555
O9P Cu1P 1_555 1_555
O9Q Cu1Q 1_555 1_555
C9A C6A 1_555 1_555
C9B C6B 1_555 1_555
C9O C6O 1_555 1_555
C9P C6P 1_555 1_555
C9Q C6Q 1_555 1_555
O10A Cu2A 1_555 1_555
O10B Cu2B 1_555 1_555
O10O Cu2O 1_555 1_555
O10P Cu2P 1_555 1_555
O10Q Cu2Q 1_555 1_555
H7A O10A 1_555 1_555
H7B O10B 1_555 1_555
H7O O10O 1_555 1_555
H7P O10P 1_555 1_555
H7Q O10Q 1_555 1_555
H8A O10A 1_555 1_555
H8B O10B 1_555 1_555
H8O O10O 1_555 1_555
H8P O10P 1_555 1_555
H8Q O10Q 1_555 1_555
C10A N1A 1_555 1_555
C10B N1B 1_555 1_555
C10O N1O 1_555 1_555
C10P N1P 1_555 1_555
C10Q N1Q 1_555 1_555
C11A C10A 1_555 1_555
C11B C10B 1_555 1_555
C11O C10O 1_555 1_555
C11P C10P 1_555 1_555
C11Q C10Q 1_555 1_555
H9A C11A 1_555 1_555
H9B C11B 1_555 1_555
H9O C11O 1_555 1_555
H9P C11P 1_555 1_555
H9Q C11Q 1_555 1_555
C12A C11A 1_555 1_555
C12B C11B 1_555 1_555
C12O C11O 1_555 1_555
C12P C11P 1_555 1_555
C12Q C11Q 1_555 1_555
H10A C12A 1_555 1_555
H10B C12B 1_555 1_555
H10O C12O 1_555 1_555
H10P C12P 1_555 1_555
H10Q C12Q 1_555 1_555
C13A C8A 1_555 1_555
C13B C8B 1_555 1_555
C13O C8O 1_555 1_555
C13P C8P 1_555 1_555
C13Q C8Q 1_555 1_555
C14A O7A 1_555 1_555
C14B O7B 1_555 1_555
C14O O7O 1_555 1_555
C14P O7P 1_555 1_555
C14Q O7Q 1_555 1_555
C15A O3A 1_555 1_555
C15B O3B 1_555 1_555
C15O O3O 1_555 1_555
C15P O3P 1_555 1_555
C15Q O3Q 1_555 1_555
C16A C15A 1_555 1_555
C16B C15B 1_555 1_555
C16O C15O 1_555 1_555
C16P C15P 1_555 1_555
C16Q C15Q 1_555 1_555
C17A C16A 1_555 1_555
C17B C16B 1_555 1_555
C17O C16O 1_555 1_555
C17P C16P 1_555 1_555
C17Q C16Q 1_555 1_555
H11A C17A 1_555 1_555
H11B C17B 1_555 1_555
H11O C17O 1_555 1_555
H11P C17P 1_555 1_555
H11Q C17Q 1_555 1_555
C18A C17A 1_555 1_555
C18B C17B 1_555 1_555
C18O C17O 1_555 1_555
C18P C17P 1_555 1_555
C18Q C17Q 1_555 1_555
H12A C18A 1_555 1_555
H12B C18B 1_555 1_555
H12O C18O 1_555 1_555
H12P C18P 1_555 1_555
H12Q C18Q 1_555 1_555
C19A N2A 1_555 1_555
C19B N2B 1_555 1_555
C19O N2O 1_555 1_555
C19P N2P 1_555 1_555
C19Q N2Q 1_555 1_555
C20A C19A 1_555 1_555
C20B C19B 1_555 1_555
C20O C19O 1_555 1_555
C20P C19P 1_555 1_555
C20Q C19Q 1_555 1_555
C21A C16A 1_555 1_555
C21B C16B 1_555 1_555
C21O C16O 1_555 1_555
C21P C16P 1_555 1_555
C21Q C16Q 1_555 1_555
H13A C21A 1_555 1_555
H13B C21B 1_555 1_555
H13O C21O 1_555 1_555
H13P C21P 1_555 1_555
H13Q C21Q 1_555 1_555
C22A H14A 1_555 1_555
C22B H14B 1_555 1_555
C22O H14O 1_555 1_555
C22P H14P 1_555 1_555
C22Q H14Q 1_555 1_555
C23A C20A 1_555 1_555
C23B C20B 1_555 1_555
C23O C20O 1_555 1_555
C23P C20P 1_555 1_555
C23Q C20Q 1_555 1_555
C24A N2A 1_555 1_555
C24B N2B 1_555 1_555
C24O N2O 1_555 1_555
C24P N2P 1_555 1_555
C24Q N2Q 1_555 1_555
C25A C24A 1_555 1_555
C25B C24B 1_555 1_555
C25O C24O 1_555 1_555
C25P C24P 1_555 1_555
C25Q C24Q 1_555 1_555
H15A C25A 1_555 1_555
H15B C25B 1_555 1_555
H15O C25O 1_555 1_555
H15P C25P 1_555 1_555
H15Q C25Q 1_555 1_555
C26A C25A 1_555 1_555
C26B C25B 1_555 1_555
C26O C25O 1_555 1_555
C26P C25P 1_555 1_555
C26Q C25Q 1_555 1_555
H16A C26A 1_555 1_555
H16B C26B 1_555 1_555
H16O C26O 1_555 1_555
H16P C26P 1_555 1_555
H16Q C26Q 1_555 1_555
C27A C22A 1_555 1_555
C27B C22B 1_555 1_555
C27O C22O 1_555 1_555
C27P C22P 1_555 1_555
C27Q C22Q 1_555 1_555
C28A O5A 1_555 1_555
C28B O5B 1_555 1_555
C28O O5O 1_555 1_555
C28P O5P 1_555 1_555
C28Q O5Q 1_555 1_555
C29A O9A 1_555 1_555
C29B O9B 1_555 1_555
C29O O9O 1_555 1_555
C29P O9P 1_555 1_555
C29Q O9Q 1_555 1_555
H17A C29A 1_555 1_555
H17B C29B 1_555 1_555
H17O C29O 1_555 1_555
H17P C29P 1_555 1_555
H17Q C29Q 1_555 1_555
C30A N3A 1_555 1_555
C30B N3B 1_555 1_555
C30O N3O 1_555 1_555
C30P N3P 1_555 1_555
C30Q N3Q 1_555 1_555
H18A C30A 1_555 1_555
H18B C30B 1_555 1_555
H18O C30O 1_555 1_555
H18P C30P 1_555 1_555
H18Q C30Q 1_555 1_555
H19A C30A 1_555 1_555
H19B C30B 1_555 1_555
H19O C30O 1_555 1_555
H19P C30P 1_555 1_555
H19Q C30Q 1_555 1_555
C31A C30A 1_555 1_555
C31B C30B 1_555 1_555
C31O C30O 1_555 1_555
C31P C30P 1_555 1_555
C31Q C30Q 1_555 1_555
H20A C31A 1_555 1_555
H20B C31B 1_555 1_555
H20O C31O 1_555 1_555
H20P C31P 1_555 1_555
H20Q C31Q 1_555 1_555
H21A C31A 1_555 1_555
H21B C31B 1_555 1_555
H21O C31O 1_555 1_555
H21P C31P 1_555 1_555
H21Q C31Q 1_555 1_555
H22A C31A 1_555 1_555
H22B C31B 1_555 1_555
H22O C31O 1_555 1_555
H22P C31P 1_555 1_555
H22Q C31Q 1_555 1_555
C32A N3A 1_555 1_555
C32B N3B 1_555 1_555
C32O N3O 1_555 1_555
C32P N3P 1_555 1_555
C32Q N3Q 1_555 1_555
H23A C32A 1_555 1_555
H23B C32B 1_555 1_555
H23O C32O 1_555 1_555
H23P C32P 1_555 1_555
H23Q C32Q 1_555 1_555
H24A C32A 1_555 1_555
H24B C32B 1_555 1_555
H24O C32O 1_555 1_555
H24P C32P 1_555 1_555
H24Q C32Q 1_555 1_555
C33A C32A 1_555 1_555
C33B C32B 1_555 1_555
C33O C32O 1_555 1_555
C33P C32P 1_555 1_555
C33Q C32Q 1_555 1_555
H25A C33A 1_555 1_555
H25B C33B 1_555 1_555
H25O C33O 1_555 1_555
H25P C33P 1_555 1_555
H25Q C33Q 1_555 1_555
H26A C33A 1_555 1_555
H26B C33B 1_555 1_555
H26O C33O 1_555 1_555
H26P C33P 1_555 1_555
H26Q C33Q 1_555 1_555
H27A C33A 1_555 1_555
H27B C33B 1_555 1_555
H27O C33O 1_555 1_555
H27P C33P 1_555 1_555
H27Q C33Q 1_555 1_555
O4 C15 1_555 1_555
C4 C5 1_555 1_555
C6 C7 1_555 1_555
C8 C9 1_555 1_555
C9 C10 1_555 1_555
C12 C13 1_555 1_555
C18 C19 1_555 1_555
C20 C21 1_555 1_555
C22 C23 1_555 1_555
C23 C24 1_555 1_555
C26 C27 1_555 1_555
Cu1A Cu2A 1_555 1_555
Cu1Q Cu2Q 1_555 1_555
O1A Cu2A 1_555 1_555
O1Q Cu2Q 1_555 1_555
O4A C15A 1_555 1_555
O4B C15B 1_555 1_555
O4O C15O 1_555 1_555
O4P C15P 1_555 1_555
O4Q C15Q 1_555 1_555
C4A C5A 1_555 1_555
C4B C5B 1_555 1_555
C4O C5O 1_555 1_555
C4P C5P 1_555 1_555
C4Q C5Q 1_555 1_555
O6A C28A 1_555 1_555
O6B C28B 1_555 1_555
O6O C28O 1_555 1_555
O6P C28P 1_555 1_555
O6Q C28Q 1_555 1_555
C6A C7A 1_555 1_555
C6B C7B 1_555 1_555
C6O C7O 1_555 1_555
C6P C7P 1_555 1_555
C6Q C7Q 1_555 1_555
O8A C14A 1_555 1_555
O8B C14B 1_555 1_555
O8O C14O 1_555 1_555
O8P C14P 1_555 1_555
O8Q C14Q 1_555 1_555
C8A C9A 1_555 1_555
C8B C9B 1_555 1_555
C8O C9O 1_555 1_555
C8P C9P 1_555 1_555
C8Q C9Q 1_555 1_555
C9A C10A 1_555 1_555
C9B C10B 1_555 1_555
C9O C10O 1_555 1_555
C9P C10P 1_555 1_555
C9Q C10Q 1_555 1_555
C12A C13A 1_555 1_555
C12B C13B 1_555 1_555
C12O C13O 1_555 1_555
C12P C13P 1_555 1_555
C12Q C13Q 1_555 1_555
C13A C14A 1_555 1_555
C13B C14B 1_555 1_555
C13O C14O 1_555 1_555
C13P C14P 1_555 1_555
C13Q C14Q 1_555 1_555
C18A C19A 1_555 1_555
C18B C19B 1_555 1_555
C18O C19O 1_555 1_555
C18P C19P 1_555 1_555
C18Q C19Q 1_555 1_555
C20A C21A 1_555 1_555
C20B C21B 1_555 1_555
C20O C21O 1_555 1_555
C20P C21P 1_555 1_555
C20Q C21Q 1_555 1_555
C22A C23A 1_555 1_555
C22B C23B 1_555 1_555
C22O C23O 1_555 1_555
C22P C23P 1_555 1_555
C22Q C23Q 1_555 1_555
C23A C24A 1_555 1_555
C23B C24B 1_555 1_555
C23O C24O 1_555 1_555
C23P C24P 1_555 1_555
C23Q C24Q 1_555 1_555
C26A C27A 1_555 1_555
C26B C27B 1_555 1_555
C26O C27O 1_555 1_555
C26P C27P 1_555 1_555
C26Q C27Q 1_555 1_555
C27A C28A 1_555 1_555
C27B C28B 1_555 1_555
C27O C28O 1_555 1_555
C27P C28P 1_555 1_555
C27Q C28Q 1_555 1_555

#END
