
#######################################################################
#
#                 Cambridge Crystallographic Data Centre
#                                CCDC 
#
#######################################################################
#
# If this CIF has been generated from an entry in the Cambridge 
# Structural Database, then it will include bibliographic, chemical, 
# crystal, experimental, refinement or atomic coordinate data resulting 
# from the CCDC's data processing and validation procedures.
#
#######################################################################

data_SUPPUP
_chemical_formula_moiety         'C198 H126 Cu12 N18 O54'
_chemical_name_systematic        
"dodecakis(\m~4~-9H-Carbazole-3,6-dicarboxylato-O,O',O'',O''')-hexa-aqua-hexakis(pyridine)-dodeca-copper unknown solvate"
_symmetry_cell_setting           rhombohedral
_symmetry_space_group_name_H-M   'R -3'
_symmetry_Int_Tables_number      148
_space_group_name_Hall           '-R 3'
loop_
_symmetry_equiv_pos_site_id
_symmetry_equiv_pos_as_xyz
1 x,y,z
2 -y,x-y,z
3 -x+y,-x,z
4 2/3+x,1/3+y,1/3+z
5 2/3-y,1/3+x-y,1/3+z
6 2/3-x+y,1/3-x,1/3+z
7 1/3+x,2/3+y,2/3+z
8 1/3-y,2/3+x-y,2/3+z
9 1/3-x+y,2/3-x,2/3+z
10 -x,-y,-z
11 y,-x+y,-z
12 x-y,x,-z
13 1/3-x,2/3-y,2/3-z
14 1/3+y,2/3-x+y,2/3-z
15 1/3+x-y,2/3+x,2/3-z
16 2/3-x,1/3-y,1/3-z
17 2/3+y,1/3-x+y,1/3-z
18 2/3+x-y,1/3+x,1/3-z
_cell_length_a                   25.293(8)
_cell_length_b                   25.293(8)
_cell_length_c                   54.096(17)
_cell_angle_alpha                90
_cell_angle_beta                 90
_cell_angle_gamma                120
_cell_volume                     29970.7
_exptl_crystal_colour            green
_exptl_crystal_description       block
_cell_formula_units_Z            3
loop_
_atom_site_label
_atom_site_type_symbol
_atom_site_fract_x
_atom_site_fract_y
_atom_site_fract_z
Cu1 Cu 0.54575(3) 0.52069(3) 0.064219(14)
Cu2 Cu 0.48846(3) 0.56064(3) 0.092692(13)
O1 O 0.51384(16) 0.45321(16) 0.08884(8)
O2 O 0.46009(15) 0.48449(16) 0.11181(8)
O3 O 0.61721(16) 0.56845(16) 0.08529(8)
O4 O 0.56457(16) 0.59639(16) 0.11132(8)
O5 O 0.46731(15) 0.47949(16) 0.04684(8)
O6 O 0.42018(15) 0.51744(16) 0.06969(8)
O7 O 0.56835(15) 0.59546(15) 0.04435(7)
O8 O 0.52273(15) 0.62995(16) 0.06947(8)
O9 O 0.4462(3) 0.5984(3) 0.11579(16)
N1 N 0.3977(2) 0.2453(2) 0.16966(11)
H1 H 0.4055 0.2155 0.1708
N2 N 0.2160(2) 0.3764(2) -0.00975(10)
H2 H 0.2087 0.3573 -0.0238
N3 N 0.5881(2) 0.48132(19) 0.04111(9)
C1 C 0.4793(2) 0.4474(2) 0.10645(12)
C2 C 0.4582(2) 0.3943(2) 0.12263(12)
C3 C 0.4781(2) 0.3509(3) 0.11820(12)
H3 H 0.5050 0.3578 0.1050
C4 C 0.4595(3) 0.3006(3) 0.13226(13)
H4 H 0.4730 0.2728 0.1289
C5 C 0.4213(3) 0.2909(3) 0.15119(14)
C6 C 0.3990(3) 0.3334(2) 0.15779(13)
C7 C 0.4180(2) 0.3837(2) 0.14184(11)
H5 H 0.4030 0.4107 0.1443
C8 C 0.3281(2) 0.3275(2) 0.19298(11)
H6 H 0.3268 0.3629 0.1887
C9 C 0.3610(3) 0.3091(2) 0.17877(12)
C10 C 0.3611(3) 0.2545(3) 0.18539(14)
C11 C 0.3290(3) 0.2205(3) 0.20622(14)
H7 H 0.3297 0.1851 0.2109
C12 C 0.2978(3) 0.2402(3) 0.21886(14)
H8 H 0.2747 0.2170 0.2324
C13 C 0.2973(3) 0.2945(3) 0.21311(12)
C14 C 0.6129(2) 0.5950(3) 0.10380(13)
C15 C 0.4230(2) 0.4866(2) 0.05207(11)
C16 C 0.3682(2) 0.4569(2) 0.03507(11)
C17 C 0.3723(3) 0.4279(3) 0.01455(12)
H9 H 0.4080 0.4261 0.0118
C18 C 0.3230(3) 0.3999(3) -0.00304(14)
H10 H 0.3264 0.3825 -0.0179
C19 C 0.2687(3) 0.4004(3) 0.00366(14)
C20 C 0.2657(2) 0.4300(2) 0.02548(11)
C21 C 0.3166(2) 0.4584(2) 0.04056(11)
H11 H 0.3155 0.4791 0.0548
C22 C 0.1746(2) 0.4428(2) 0.04022(11)
H12 H 0.1942 0.4671 0.0541
C23 C 0.2050(2) 0.4230(2) 0.02569(12)
C24 C 0.1766(3) 0.3887(3) 0.00364(13)
C25 C 0.1156(3) 0.3718(3) -0.00213(13)
H13 H 0.0957 0.3485 -0.0162
C26 C 0.0869(2) 0.3918(3) 0.01431(12)
H14 H 0.0460 0.3803 0.0113
C27 C 0.1154(2) 0.4279(2) 0.03495(11)
C28 C 0.5524(3) 0.6333(2) 0.05084(12)
C29 C 0.5599(3) 0.4505(3) 0.02211(15)
H15 H 0.5216 0.4463 0.0186
C30 C 0.5825(3) 0.4209(3) 0.00530(14)
H16 H 0.5615 0.3996 -0.0090
C31 C 0.6373(4) 0.4272(3) 0.01242(16)
H17 H 0.6548 0.4093 0.0026
C32 C 0.6687(4) 0.4598(3) 0.03409(17)
H18 H 0.7062 0.4641 0.0391
C33 C 0.6388(3) 0.4852(3) 0.04737(13)
H19 H 0.6575 0.5067 0.0619
H20 H 0.4130 0.5963 0.1118
H21 H 0.4620 0.6289 0.1259
Cu1A Cu 0.47931(3) 1.02506(4) 0.064219(14)
Cu1B Cu -0.02506(4) 0.45425(3) 0.064219(14)
Cu1P Cu 0.18736(3) 0.30827(4) 0.269114(14)
Cu1Q Cu 0.69173(4) 0.87908(3) 0.269114(14)
Cu1O Cu 0.12092(3) 0.81264(3) 0.269114(14)
Cu2A Cu 0.43936(3) 0.92782(4) 0.092692(13)
Cu2B Cu 0.07218(4) 0.51154(3) 0.092692(13)
Cu2P Cu 0.22731(3) 0.40551(4) 0.240641(13)
Cu2Q Cu 0.59449(4) 0.82179(3) 0.240641(13)
Cu2O Cu 0.17821(3) 0.77269(3) 0.240641(13)
O1A O 0.54679(16) 1.06063(23) 0.08884(8)
O1B O -0.06063(23) 0.48616(16) 0.08884(8)
O1P O 0.11988(16) 0.27270(23) 0.24449(8)
O1Q O 0.72730(23) 0.84717(16) 0.24449(8)
O1O O 0.15283(16) 0.88012(16) 0.24449(8)
O2A O 0.51551(16) 0.97560(22) 0.11181(8)
O2B O 0.02440(22) 0.53991(15) 0.11181(8)
O2P O 0.15116(16) 0.35773(22) 0.22152(8)
O2Q O 0.64227(22) 0.79342(15) 0.22152(8)
O2O O 0.20658(15) 0.84884(16) 0.22152(8)
O3A O 0.43155(16) 1.04876(23) 0.08529(8)
O3B O -0.04876(23) 0.38279(16) 0.08529(8)
O3P O 0.23512(16) 0.28457(23) 0.24804(8)
O3Q O 0.71543(23) 0.95054(16) 0.24804(8)
O3O O 0.04946(16) 0.76488(16) 0.24804(8)
O4A O 0.40361(16) 0.96818(23) 0.11132(8)
O4B O 0.03182(23) 0.43543(16) 0.11132(8)
O4P O 0.26306(16) 0.36515(23) 0.22201(8)
O4Q O 0.63485(23) 0.89790(16) 0.22201(8)
O4O O 0.10210(16) 0.73694(16) 0.22201(8)
O5A O 0.52051(16) 0.98782(22) 0.04684(8)
O5B O 0.01218(22) 0.53269(15) 0.04684(8)
O5P O 0.14616(16) 0.34551(22) 0.28649(8)
O5Q O 0.65449(22) 0.80064(15) 0.28649(8)
O5O O 0.19936(15) 0.85384(16) 0.28649(8)
O6A O 0.48256(16) 0.90274(22) 0.06969(8)
O6B O 0.09726(22) 0.57982(15) 0.06969(8)
O6P O 0.18411(16) 0.43059(22) 0.26364(8)
O6Q O 0.56941(22) 0.75351(15) 0.26364(8)
O6O O 0.24649(15) 0.81589(16) 0.26364(8)
O7A O 0.40454(15) 0.97289(21) 0.04435(7)
O7B O 0.02711(21) 0.43165(15) 0.04435(7)
O7P O 0.26213(15) 0.36044(21) 0.28898(7)
O7Q O 0.63956(21) 0.90168(15) 0.28898(7)
O7O O 0.09832(15) 0.73787(15) 0.28898(7)
O8A O 0.37005(16) 0.89278(22) 0.06947(8)
O8B O 0.10722(22) 0.47727(15) 0.06947(8)
O8P O 0.29662(16) 0.44055(22) 0.26386(8)
O8Q O 0.55945(22) 0.85606(15) 0.26386(8)
O8O O 0.14394(15) 0.70338(16) 0.26386(8)
O9B O 0.1522(4) 0.5538(3) 0.11579(16)
O9O O 0.2205(3) 0.7349(3) 0.21754(16)
O9Q O 0.5145(4) 0.7795(3) 0.21754(16)
O9P O 0.2651(3) 0.4855(4) 0.21754(16)
O9A O 0.4016(3) 0.8478(4) 0.11579(16)
N1P N -0.0880(2) 0.1809(3) 0.16367(11)
N1B N -0.1524(3) 0.6023(2) 0.16966(11)
N1O N 0.2690(2) 1.0880(2) 0.16367(11)
N1A N 0.7547(2) 1.1524(3) 0.16966(11)
N1Q N 0.8191(3) 0.7310(2) 0.16367(11)
H1P H -0.1178 0.1433 0.1625
H1B H -0.1900 0.5945 0.1708
H1O H 0.2612 1.1178 0.1625
H1A H 0.7845 1.1900 0.1708
H1Q H 0.8567 0.7388 0.1625
N2A N 0.6236(2) 0.8396(3) -0.00975(10)
N2B N 0.1604(3) 0.7840(2) -0.00975(10)
N2Q N 0.5063(3) 0.5493(2) 0.34308(10)
N2O N 0.4507(2) 0.9569(2) 0.34308(10)
N2P N 0.0431(2) 0.4937(3) 0.34308(10)
H2A H 0.6427 0.8514 -0.0238
H2B H 0.1486 0.7913 -0.0238
H2Q H 0.5181 0.5420 0.3571
H2O H 0.4580 0.9760 0.3571
H2P H 0.0240 0.4819 0.3571
N3A N 0.51868(19) 1.10678(28) 0.04111(9)
N3B N -0.10678(28) 0.4119(2) 0.04111(9)
N3P N 0.14799(19) 0.22655(28) 0.29222(9)
N3Q N 0.77345(28) 0.9214(2) 0.29222(9)
N3O N 0.0786(2) 0.85201(19) 0.29222(9)
C1A C 0.5526(2) 1.0319(3) 0.10645(12)
C1B C -0.0319(3) 0.5207(2) 0.10645(12)
C1P C 0.1141(2) 0.3014(3) 0.22688(12)
C1Q C 0.6986(3) 0.8126(2) 0.22688(12)
C1O C 0.1874(2) 0.8859(2) 0.22688(12)
C2P C 0.0610(2) 0.2694(3) 0.21070(12)
C2B C -0.0639(3) 0.5418(2) 0.12263(12)
C2O C 0.2085(2) 0.9390(2) 0.21070(12)
C2A C 0.6057(2) 1.0639(3) 0.12263(12)
C2Q C 0.7306(3) 0.7915(2) 0.21070(12)
C3P C 0.0176(3) 0.2061(4) 0.21513(12)
C3B C -0.1272(4) 0.5219(2) 0.11820(12)
C3O C 0.1886(2) 0.9824(3) 0.21513(12)
C3A C 0.6491(3) 1.1272(4) 0.11820(12)
C3Q C 0.7939(4) 0.8114(2) 0.21513(12)
H3B H -0.1472 0.4950 0.1050
H3O H 0.1617 0.9755 0.2283
H3A H 0.6422 1.1472 0.1050
H3Q H 0.8139 0.8383 0.2283
H3P H 0.0245 0.1861 0.2283
C4P C -0.0327(3) 0.1744(4) 0.20107(13)
C4B C -0.1589(4) 0.5405(3) 0.13226(13)
C4O C 0.2072(3) 1.0327(3) 0.20107(13)
C4A C 0.6994(3) 1.1589(4) 0.13226(13)
C4Q C 0.8256(4) 0.7928(3) 0.20107(13)
H4B H -0.2002 0.5270 0.1289
H4O H 0.1937 1.0605 0.2044
H4A H 0.7272 1.2002 0.1289
H4Q H 0.8669 0.8063 0.2044
H4P H -0.0605 0.1331 0.2044
C5P C -0.0424(3) 0.2029(4) 0.18214(14)
C5B C -0.1304(4) 0.5787(3) 0.15119(14)
C5O C 0.2454(3) 1.0424(3) 0.18214(14)
C5A C 0.7091(3) 1.1304(4) 0.15119(14)
C5Q C 0.7971(4) 0.7546(3) 0.18214(14)
C6P C 0.0001(2) 0.2677(4) 0.17554(13)
C6B C -0.0656(4) 0.6010(3) 0.15779(13)
C6O C 0.2677(3) 0.9999(2) 0.17554(13)
C6A C 0.6666(2) 1.0656(4) 0.15779(13)
C6Q C 0.7323(4) 0.7323(3) 0.17554(13)
C7B C -0.0343(3) 0.5820(2) 0.14184(11)
C7O C 0.2487(2) 0.9496(2) 0.19149(11)
C7A C 0.6163(2) 1.0343(3) 0.14184(11)
C7Q C 0.7010(3) 0.7513(2) 0.19149(11)
C7P C 0.0504(2) 0.2990(3) 0.19149(11)
H5B H 0.0077 0.5970 0.1443
H5O H 0.2637 0.9226 0.1890
H5A H 0.5893 0.9923 0.1443
H5Q H 0.6590 0.7363 0.1890
H5P H 0.0774 0.3410 0.1890
C8P C -0.0058(2) 0.3327(3) 0.14035(11)
C8B C -0.0006(3) 0.6719(2) 0.19298(11)
C8O C 0.3386(2) 1.0058(2) 0.14035(11)
C8A C 0.6725(2) 1.0006(3) 0.19298(11)
C8Q C 0.6673(3) 0.6614(2) 0.14035(11)
H6P H 0.0296 0.3694 0.1446
H6B H 0.0361 0.6732 0.1887
H6O H 0.3399 0.9704 0.1446
H6A H 0.6371 0.9639 0.1887
H6Q H 0.6306 0.6601 0.1446
C9P C -0.0242(2) 0.2814(4) 0.15456(12)
C9B C -0.0519(4) 0.6390(3) 0.17877(12)
C9O C 0.3057(3) 1.0242(2) 0.15456(12)
C9A C 0.6909(2) 1.0519(4) 0.17877(12)
C9Q C 0.7186(4) 0.6943(3) 0.15456(12)
C10P C -0.0788(3) 0.2267(4) 0.14794(14)
C10B C -0.1066(4) 0.6389(3) 0.18539(14)
C10O C 0.3056(3) 1.0788(3) 0.14794(14)
C10A C 0.7455(3) 1.1066(4) 0.18539(14)
C10Q C 0.7733(4) 0.6944(3) 0.14794(14)
C11P C -0.1128(3) 0.2248(4) 0.12711(14)
C11B C -0.1085(4) 0.6710(3) 0.20622(14)
C11O C 0.3377(3) 1.1128(3) 0.12711(14)
C11A C 0.7795(3) 1.1085(4) 0.20622(14)
C11Q C 0.7752(4) 0.6623(3) 0.12711(14)
H7P H -0.1482 0.1887 0.1224
H7B H -0.1446 0.6703 0.2109
H7O H 0.3370 1.1482 0.1224
H7A H 0.8149 1.1446 0.2109
H7Q H 0.8113 0.6630 0.1224
C12P C -0.0931(3) 0.2757(4) 0.11447(14)
C12B C -0.0576(4) 0.7022(3) 0.21886(14)
C12O C 0.3689(3) 1.0931(3) 0.11447(14)
C12A C 0.7598(3) 1.0576(4) 0.21886(14)
C12Q C 0.7243(4) 0.6311(3) 0.11447(14)
H8P H -0.1163 0.2756 0.1009
H8B H -0.0577 0.7253 0.2324
H8O H 0.3920 1.1163 0.1009
H8A H 0.7830 1.0577 0.2324
H8Q H 0.7244 0.6080 0.1009
C13P C -0.0388(3) 0.3305(4) 0.12022(12)
C13B C -0.0028(4) 0.7027(3) 0.21311(12)
C13O C 0.3694(3) 1.0388(3) 0.12022(12)
C13A C 0.7055(3) 1.0028(4) 0.21311(12)
C13Q C 0.6695(4) 0.6306(3) 0.12022(12)
C14A C 0.4050(3) 1.0179(4) 0.10380(13)
C14B C -0.0179(4) 0.3871(2) 0.10380(13)
C14P C 0.2617(3) 0.3154(4) 0.22953(13)
C14Q C 0.6846(4) 0.9462(2) 0.22953(13)
C14O C 0.0538(2) 0.7383(3) 0.22953(13)
C15A C 0.5134(2) 0.9364(3) 0.05207(11)
C15B C 0.0636(3) 0.5770(2) 0.05207(11)
C15P C 0.1533(2) 0.3969(3) 0.28126(11)
C15Q C 0.6031(3) 0.7563(2) 0.28126(11)
C15O C 0.2437(2) 0.8467(2) 0.28126(11)
C16A C 0.5431(2) 0.9113(3) 0.03507(11)
C16B C 0.0887(3) 0.6318(2) 0.03507(11)
C16Q C 0.5780(3) 0.7015(2) 0.29826(11)
C16O C 0.2985(2) 0.8764(2) 0.29826(11)
C16P C 0.1236(2) 0.4220(3) 0.29826(11)
C17A C 0.5721(3) 0.9444(4) 0.01455(12)
C17B C 0.0556(4) 0.6277(3) 0.01455(12)
C17Q C 0.6111(4) 0.7056(3) 0.31878(12)
C17O C 0.2944(3) 0.9054(3) 0.31878(12)
C17P C 0.0946(3) 0.3889(4) 0.31878(12)
H9P H 0.0928 0.3514 0.3215
H9O H 0.2587 0.9072 0.3215
H9Q H 0.6486 0.7413 0.3215
H9B H 0.0181 0.5920 0.0118
H9A H 0.5739 0.9819 0.0118
C18A C 0.6001(3) 0.9231(4) -0.00304(14)
C18B C 0.0769(4) 0.6770(3) -0.00304(14)
C18Q C 0.5898(4) 0.6563(3) 0.33637(14)
C18O C 0.3437(3) 0.9334(3) 0.33637(14)
C18P C 0.0666(3) 0.4102(4) 0.33637(14)
H10P H 0.0492 0.3894 0.3512
H10O H 0.3403 0.9508 0.3512
H10Q H 0.6106 0.6597 0.3512
H10B H 0.0561 0.6736 -0.0179
H10A H 0.6175 0.9439 -0.0179
C19A C 0.5996(3) 0.8683(4) 0.00366(14)
C19B C 0.1317(4) 0.7313(3) 0.00366(14)
C19Q C 0.5350(4) 0.6020(3) 0.32967(14)
C19O C 0.3980(3) 0.9329(3) 0.32967(14)
C19P C 0.0671(3) 0.4650(4) 0.32967(14)
C20A C 0.5700(2) 0.8357(3) 0.02548(11)
C20B C 0.1643(3) 0.7343(2) 0.02548(11)
C20Q C 0.5024(3) 0.5990(2) 0.30785(11)
C20O C 0.4010(2) 0.9033(2) 0.30785(11)
C20P C 0.0967(2) 0.4976(3) 0.30785(11)
C21P C 0.1251(2) 0.4751(3) 0.29277(11)
C21O C 0.3501(2) 0.8749(2) 0.29277(11)
C21Q C 0.5249(3) 0.6499(2) 0.29277(11)
C21B C 0.1418(3) 0.6834(2) 0.04056(11)
C21A C 0.5416(2) 0.8582(3) 0.04056(11)
H11P H 0.1458 0.4969 0.2785
H11O H 0.3512 0.8542 0.2785
H11Q H 0.5031 0.6488 0.2785
H11B H 0.1636 0.6845 0.0548
H11A H 0.5209 0.8364 0.0548
C22A C 0.5572(2) 0.7318(3) 0.04022(11)
C22B C 0.2682(3) 0.8254(2) 0.04022(11)
C22Q C 0.3985(3) 0.5079(2) 0.29311(11)
C22O C 0.4921(2) 0.8905(2) 0.29311(11)
C22P C 0.1095(2) 0.6015(3) 0.29311(11)
H12A H 0.5329 0.7271 0.0541
H12B H 0.2729 0.8058 0.0541
H12Q H 0.3938 0.5275 0.2792
H12O H 0.4725 0.8662 0.2792
H12P H 0.1338 0.6062 0.2792
C23A C 0.5770(2) 0.7820(3) 0.02569(12)
C23B C 0.2180(3) 0.7950(2) 0.02569(12)
C23Q C 0.4487(3) 0.5383(2) 0.30764(12)
C23O C 0.4617(2) 0.9103(2) 0.30764(12)
C23P C 0.0897(2) 0.5513(3) 0.30764(12)
C24A C 0.6113(3) 0.7879(4) 0.00364(13)
C24B C 0.2121(4) 0.8234(3) 0.00364(13)
C24Q C 0.4546(4) 0.5099(3) 0.32969(13)
C24O C 0.4901(3) 0.9446(3) 0.32969(13)
C24P C 0.0554(3) 0.5454(4) 0.32969(13)
C25A C 0.6282(3) 0.7438(4) -0.00213(13)
C25B C 0.2562(4) 0.8844(3) -0.00213(13)
C25Q C 0.4105(4) 0.4489(3) 0.33546(13)
C25O C 0.5511(3) 0.9615(3) 0.33546(13)
C25P C 0.0385(3) 0.5895(4) 0.33546(13)
H13A H 0.6515 0.7472 -0.0162
H13B H 0.2528 0.9043 -0.0162
H13Q H 0.4139 0.4290 0.3495
H13O H 0.5710 0.9848 0.3495
H13P H 0.0152 0.5861 0.3495
C26A C 0.6082(3) 0.6951(4) 0.01431(12)
C26B C 0.3049(4) 0.9131(2) 0.01431(12)
C26Q C 0.3618(4) 0.4202(2) 0.31902(12)
C26O C 0.5798(2) 0.9415(3) 0.31902(12)
C26P C 0.0585(3) 0.6382(4) 0.31902(12)
H14A H 0.6197 0.6657 0.0113
H14B H 0.3343 0.9540 0.0113
H14Q H 0.3324 0.3793 0.3220
H14O H 0.6207 0.9530 0.3220
H14P H 0.0470 0.6676 0.3220
C27A C 0.5721(2) 0.6875(3) 0.03495(11)
C27B C 0.3125(3) 0.8846(2) 0.03495(11)
C27Q C 0.3542(3) 0.4487(2) 0.29838(11)
C27O C 0.5513(2) 0.9054(2) 0.29838(11)
C27P C 0.0946(2) 0.6458(3) 0.29838(11)
C28A C 0.3667(2) 0.9191(4) 0.05084(12)
C28B C 0.0809(4) 0.4476(3) 0.05084(12)
C28P C 0.3000(2) 0.4142(4) 0.28249(12)
C28Q C 0.5858(4) 0.8857(3) 0.28249(12)
C28O C 0.1143(3) 0.7000(2) 0.28249(12)
C29A C 0.5495(3) 1.1094(4) 0.02211(15)
C29B C -0.1094(4) 0.4401(3) 0.02211(15)
C29P C 0.1172(3) 0.2239(4) 0.31122(15)
C29Q C 0.7761(4) 0.8932(3) 0.31122(15)
C29O C 0.1068(3) 0.8828(3) 0.31122(15)
H15A H 0.5537 1.0753 0.0186
H15B H -0.0753 0.4784 0.0186
H15P H 0.1130 0.2580 0.3147
H15Q H 0.7420 0.8549 0.3147
H15O H 0.1451 0.8870 0.3147
C30A C 0.5791(3) 1.1616(4) 0.00530(14)
C30B C -0.1616(4) 0.4175(3) 0.00530(14)
C30P C 0.0876(3) 0.1717(4) 0.32803(14)
C30Q C 0.8283(4) 0.9158(3) 0.32803(14)
C30O C 0.0842(3) 0.9124(3) 0.32803(14)
H16A H 0.6004 1.1619 -0.0090
H16B H -0.1619 0.4385 -0.0090
H16P H 0.0663 0.1714 0.3423
H16Q H 0.8286 0.8948 0.3423
H16O H 0.1052 0.9337 0.3423
C31A C 0.5728(3) 1.2101(5) 0.01242(16)
C31B C -0.2101(5) 0.3627(4) 0.01242(16)
C31P C 0.0939(3) 0.1232(5) 0.32091(16)
C31Q C 0.8768(5) 0.9706(4) 0.32091(16)
C31O C 0.0294(4) 0.9061(3) 0.32091(16)
H17A H 0.5907 1.2455 0.0026
H17B H -0.2455 0.3452 0.0026
H17P H 0.0760 0.0878 0.3307
H17Q H 0.9122 0.9881 0.3307
H17O H 0.0119 0.9240 0.3307
C32A C 0.5402(3) 1.2089(5) 0.03409(17)
C32B C -0.2089(5) 0.3313(4) 0.03409(17)
C32P C 0.1265(3) 0.1244(5) 0.29924(17)
C32Q C 0.8756(5) 1.0020(4) 0.29924(17)
C32O C -0.0020(4) 0.8735(3) 0.29924(17)
H18A H 0.5359 1.2421 0.0391
H18B H -0.2421 0.2938 0.0391
H18P H 0.1308 0.0912 0.2942
H18Q H 0.9088 1.0395 0.2942
H18O H -0.0395 0.8692 0.2942
C33A C 0.5148(3) 1.1536(4) 0.04737(13)
C33B C -0.1536(4) 0.3612(3) 0.04737(13)
C33P C 0.1519(3) 0.1797(4) 0.28596(13)
C33Q C 0.8203(4) 0.9721(3) 0.28596(13)
C33O C 0.0279(3) 0.8481(3) 0.28596(13)
H19A H 0.4933 1.1508 0.0619
H19B H -0.1508 0.3425 0.0619
H19P H 0.1734 0.1825 0.2714
H19Q H 0.8175 0.9908 0.2714
H19O H 0.0092 0.8266 0.2714
H20B H 0.1833 0.5870 0.1118
H20O H 0.2537 0.7370 0.2215
H20Q H 0.4834 0.7463 0.2215
H20P H 0.2630 0.5166 0.2215
H20A H 0.4037 0.8167 0.1118
H21B H 0.1669 0.5380 0.1259
H21O H 0.2047 0.7044 0.2074
H21Q H 0.4998 0.7953 0.2074
H21P H 0.2956 0.5002 0.2074
H21A H 0.3711 0.8331 0.1259
loop_
_geom_bond_atom_site_label_1
_geom_bond_atom_site_label_2
_geom_bond_site_symmetry_1
_geom_bond_site_symmetry_2
Cu1 Cu2 1_555 1_555
Cu2 O2 1_555 1_555
O1 Cu1 1_555 1_555
O2 C1 1_555 1_555
O3 Cu1 1_555 1_555
O4 Cu2 1_555 1_555
O5 Cu1 1_555 1_555
O6 Cu2 1_555 1_555
O7 Cu1 1_555 1_555
O8 Cu2 1_555 1_555
O9 Cu2 1_555 1_555
N1 H1 1_555 1_555
N2 H2 1_555 1_555
N3 Cu1 1_555 1_555
C1 O1 1_555 1_555
C2 C1 1_555 1_555
C3 C2 1_555 1_555
H3 C3 1_555 1_555
C4 C3 1_555 1_555
H4 C4 1_555 1_555
C5 N1 1_555 1_555
C6 C5 1_555 1_555
C7 C2 1_555 1_555
H5 C7 1_555 1_555
C8 H6 1_555 1_555
C9 C6 1_555 1_555
C10 N1 1_555 1_555
C11 C10 1_555 1_555
H7 C11 1_555 1_555
C12 C11 1_555 1_555
H8 C12 1_555 1_555
C13 C8 1_555 1_555
C14 O3 1_555 1_555
C15 O5 1_555 1_555
C16 C15 1_555 1_555
C17 C16 1_555 1_555
H9 C17 1_555 1_555
C18 C17 1_555 1_555
H10 C18 1_555 1_555
C19 N2 1_555 1_555
C20 C19 1_555 1_555
C21 C16 1_555 1_555
H11 C21 1_555 1_555
C22 H12 1_555 1_555
C23 C20 1_555 1_555
C24 N2 1_555 1_555
C25 C24 1_555 1_555
H13 C25 1_555 1_555
C26 C25 1_555 1_555
H14 C26 1_555 1_555
C27 C22 1_555 1_555
C28 O7 1_555 1_555
C29 N3 1_555 1_555
H15 C29 1_555 1_555
C30 C29 1_555 1_555
H16 C30 1_555 1_555
C31 C30 1_555 1_555
H17 C31 1_555 1_555
C32 C31 1_555 1_555
H18 C32 1_555 1_555
C33 N3 1_555 1_555
H19 C33 1_555 1_555
H20 O9 1_555 1_555
H21 O9 1_555 1_555
Cu1A Cu2A 1_555 1_555
Cu1B Cu2B 1_555 1_555
Cu1P Cu2P 1_555 1_555
Cu1Q Cu2Q 1_555 1_555
Cu1O Cu2O 1_555 1_555
Cu2A O2A 1_555 1_555
Cu2B O2B 1_555 1_555
Cu2P O2P 1_555 1_555
Cu2Q O2Q 1_555 1_555
Cu2O O2O 1_555 1_555
O1A Cu1A 1_555 1_555
O1B Cu1B 1_555 1_555
O1P Cu1P 1_555 1_555
O1Q Cu1Q 1_555 1_555
O1O Cu1O 1_555 1_555
O2A C1A 1_555 1_555
O2B C1B 1_555 1_555
O2P C1P 1_555 1_555
O2Q C1Q 1_555 1_555
O2O C1O 1_555 1_555
O3A Cu1A 1_555 1_555
O3B Cu1B 1_555 1_555
O3P Cu1P 1_555 1_555
O3Q Cu1Q 1_555 1_555
O3O Cu1O 1_555 1_555
O4A Cu2A 1_555 1_555
O4B Cu2B 1_555 1_555
O4P Cu2P 1_555 1_555
O4Q Cu2Q 1_555 1_555
O4O Cu2O 1_555 1_555
O5A Cu1A 1_555 1_555
O5B Cu1B 1_555 1_555
O5P Cu1P 1_555 1_555
O5Q Cu1Q 1_555 1_555
O5O Cu1O 1_555 1_555
O6A Cu2A 1_555 1_555
O6B Cu2B 1_555 1_555
O6P Cu2P 1_555 1_555
O6Q Cu2Q 1_555 1_555
O6O Cu2O 1_555 1_555
O7A Cu1A 1_555 1_555
O7B Cu1B 1_555 1_555
O7P Cu1P 1_555 1_555
O7Q Cu1Q 1_555 1_555
O7O Cu1O 1_555 1_555
O8A Cu2A 1_555 1_555
O8B Cu2B 1_555 1_555
O8P Cu2P 1_555 1_555
O8Q Cu2Q 1_555 1_555
O8O Cu2O 1_555 1_555
O9B Cu2B 1_555 1_555
O9O Cu2O 1_555 1_555
O9Q Cu2Q 1_555 1_555
O9P Cu2P 1_555 1_555
O9A Cu2A 1_555 1_555
N1P H1P 1_555 1_555
N1B H1B 1_555 1_555
N1O H1O 1_555 1_555
N1A H1A 1_555 1_555
N1Q H1Q 1_555 1_555
N2A H2A 1_555 1_555
N2B H2B 1_555 1_555
N2Q H2Q 1_555 1_555
N2O H2O 1_555 1_555
N2P H2P 1_555 1_555
N3A Cu1A 1_555 1_555
N3B Cu1B 1_555 1_555
N3P Cu1P 1_555 1_555
N3Q Cu1Q 1_555 1_555
N3O Cu1O 1_555 1_555
C1A O1A 1_555 1_555
C1B O1B 1_555 1_555
C1P O1P 1_555 1_555
C1Q O1Q 1_555 1_555
C1O O1O 1_555 1_555
C2P C1P 1_555 1_555
C2B C1B 1_555 1_555
C2O C1O 1_555 1_555
C2A C1A 1_555 1_555
C2Q C1Q 1_555 1_555
C3P C2P 1_555 1_555
C3B C2B 1_555 1_555
C3O C2O 1_555 1_555
C3A C2A 1_555 1_555
C3Q C2Q 1_555 1_555
H3B C3B 1_555 1_555
H3O C3O 1_555 1_555
H3A C3A 1_555 1_555
H3Q C3Q 1_555 1_555
H3P C3P 1_555 1_555
C4P C3P 1_555 1_555
C4B C3B 1_555 1_555
C4O C3O 1_555 1_555
C4A C3A 1_555 1_555
C4Q C3Q 1_555 1_555
H4B C4B 1_555 1_555
H4O C4O 1_555 1_555
H4A C4A 1_555 1_555
H4Q C4Q 1_555 1_555
H4P C4P 1_555 1_555
C5P N1P 1_555 1_555
C5B N1B 1_555 1_555
C5O N1O 1_555 1_555
C5A N1A 1_555 1_555
C5Q N1Q 1_555 1_555
C6P C5P 1_555 1_555
C6B C5B 1_555 1_555
C6O C5O 1_555 1_555
C6A C5A 1_555 1_555
C6Q C5Q 1_555 1_555
C7B C2B 1_555 1_555
C7O C2O 1_555 1_555
C7A C2A 1_555 1_555
C7Q C2Q 1_555 1_555
C7P C2P 1_555 1_555
H5B C7B 1_555 1_555
H5O C7O 1_555 1_555
H5A C7A 1_555 1_555
H5Q C7Q 1_555 1_555
H5P C7P 1_555 1_555
C8P H6P 1_555 1_555
C8B H6B 1_555 1_555
C8O H6O 1_555 1_555
C8A H6A 1_555 1_555
C8Q H6Q 1_555 1_555
C9P C6P 1_555 1_555
C9B C6B 1_555 1_555
C9O C6O 1_555 1_555
C9A C6A 1_555 1_555
C9Q C6Q 1_555 1_555
C10P N1P 1_555 1_555
C10B N1B 1_555 1_555
C10O N1O 1_555 1_555
C10A N1A 1_555 1_555
C10Q N1Q 1_555 1_555
C11P C10P 1_555 1_555
C11B C10B 1_555 1_555
C11O C10O 1_555 1_555
C11A C10A 1_555 1_555
C11Q C10Q 1_555 1_555
H7P C11P 1_555 1_555
H7B C11B 1_555 1_555
H7O C11O 1_555 1_555
H7A C11A 1_555 1_555
H7Q C11Q 1_555 1_555
C12P C11P 1_555 1_555
C12B C11B 1_555 1_555
C12O C11O 1_555 1_555
C12A C11A 1_555 1_555
C12Q C11Q 1_555 1_555
H8P C12P 1_555 1_555
H8B C12B 1_555 1_555
H8O C12O 1_555 1_555
H8A C12A 1_555 1_555
H8Q C12Q 1_555 1_555
C13P C8P 1_555 1_555
C13B C8B 1_555 1_555
C13O C8O 1_555 1_555
C13A C8A 1_555 1_555
C13Q C14 1_555 1_555
C14A O3A 1_555 1_555
C14B O3B 1_555 1_555
C14P C13 1_555 1_555
C14Q O3Q 1_555 1_555
C14O O3O 1_555 1_555
C15A O5A 1_555 1_555
C15B O5B 1_555 1_555
C15P O5P 1_555 1_555
C15Q O5Q 1_555 1_555
C15O O5O 1_555 1_555
C16A C15A 1_555 1_555
C16B C15B 1_555 1_555
C16Q C15Q 1_555 1_555
C16O C15O 1_555 1_555
C16P C15P 1_555 1_555
C17A C16A 1_555 1_555
C17B C16B 1_555 1_555
C17Q C16Q 1_555 1_555
C17O C16O 1_555 1_555
C17P C16P 1_555 1_555
H9P C17P 1_555 1_555
H9O C17O 1_555 1_555
H9Q C17Q 1_555 1_555
H9B C17B 1_555 1_555
H9A C17A 1_555 1_555
C18A C17A 1_555 1_555
C18B C17B 1_555 1_555
C18Q C17Q 1_555 1_555
C18O C17O 1_555 1_555
C18P C17P 1_555 1_555
H10P C18P 1_555 1_555
H10O C18O 1_555 1_555
H10Q C18Q 1_555 1_555
H10B C18B 1_555 1_555
H10A C18A 1_555 1_555
C19A N2A 1_555 1_555
C19B N2B 1_555 1_555
C19Q N2Q 1_555 1_555
C19O N2O 1_555 1_555
C19P N2P 1_555 1_555
C20A C19A 1_555 1_555
C20B C19B 1_555 1_555
C20Q C19Q 1_555 1_555
C20O C19O 1_555 1_555
C20P C19P 1_555 1_555
C21P C16P 1_555 1_555
C21O C16O 1_555 1_555
C21Q C16Q 1_555 1_555
C21B C16B 1_555 1_555
C21A C16A 1_555 1_555
H11P C21P 1_555 1_555
H11O C21O 1_555 1_555
H11Q C21Q 1_555 1_555
H11B C21B 1_555 1_555
H11A C21A 1_555 1_555
C22A H12A 1_555 1_555
C22B H12B 1_555 1_555
C22Q H12Q 1_555 1_555
C22O H12O 1_555 1_555
C22P H12P 1_555 1_555
C23A C20A 1_555 1_555
C23B C20B 1_555 1_555
C23Q C20Q 1_555 1_555
C23O C20O 1_555 1_555
C23P C20P 1_555 1_555
C24A N2A 1_555 1_555
C24B N2B 1_555 1_555
C24Q N2Q 1_555 1_555
C24O N2O 1_555 1_555
C24P N2P 1_555 1_555
C25A C24A 1_555 1_555
C25B C24B 1_555 1_555
C25Q C24Q 1_555 1_555
C25O C24O 1_555 1_555
C25P C24P 1_555 1_555
H13A C25A 1_555 1_555
H13B C25B 1_555 1_555
H13Q C25Q 1_555 1_555
H13O C25O 1_555 1_555
H13P C25P 1_555 1_555
C26A C25A 1_555 1_555
C26B C25B 1_555 1_555
C26Q C25Q 1_555 1_555
C26O C25O 1_555 1_555
C26P C25P 1_555 1_555
H14A C26A 1_555 1_555
H14B C26B 1_555 1_555
H14Q C26Q 1_555 1_555
H14O C26O 1_555 1_555
H14P C26P 1_555 1_555
C27A C28 1_555 1_555
C27B C22B 1_555 1_555
C27Q C22Q 1_555 1_555
C27O C22O 1_555 1_555
C27P C22P 1_555 1_555
C28A O7A 1_555 1_555
C28B C27 1_555 1_555
C28P O7P 1_555 1_555
C28Q O7Q 1_555 1_555
C28O O7O 1_555 1_555
C29A N3A 1_555 1_555
C29B N3B 1_555 1_555
C29P N3P 1_555 1_555
C29Q N3Q 1_555 1_555
C29O N3O 1_555 1_555
H15A C29A 1_555 1_555
H15B C29B 1_555 1_555
H15P C29P 1_555 1_555
H15Q C29Q 1_555 1_555
H15O C29O 1_555 1_555
C30A C29A 1_555 1_555
C30B C29B 1_555 1_555
C30P C29P 1_555 1_555
C30Q C29Q 1_555 1_555
C30O C29O 1_555 1_555
H16A C30A 1_555 1_555
H16B C30B 1_555 1_555
H16P C30P 1_555 1_555
H16Q C30Q 1_555 1_555
H16O C30O 1_555 1_555
C31A C30A 1_555 1_555
C31B C30B 1_555 1_555
C31P C30P 1_555 1_555
C31Q C30Q 1_555 1_555
C31O C30O 1_555 1_555
H17A C31A 1_555 1_555
H17B C31B 1_555 1_555
H17P C31P 1_555 1_555
H17Q C31Q 1_555 1_555
H17O C31O 1_555 1_555
C32A C31A 1_555 1_555
C32B C31B 1_555 1_555
C32P C31P 1_555 1_555
C32Q C31Q 1_555 1_555
C32O C31O 1_555 1_555
H18A C32A 1_555 1_555
H18B C32B 1_555 1_555
H18P C32P 1_555 1_555
H18Q C32Q 1_555 1_555
H18O C32O 1_555 1_555
C33A N3A 1_555 1_555
C33B N3B 1_555 1_555
C33P N3P 1_555 1_555
C33Q N3Q 1_555 1_555
C33O N3O 1_555 1_555
H19A C33A 1_555 1_555
H19B C33B 1_555 1_555
H19P C33P 1_555 1_555
H19Q C33Q 1_555 1_555
H19O C33O 1_555 1_555
H20B O9B 1_555 1_555
H20O O9O 1_555 1_555
H20Q O9Q 1_555 1_555
H20P O9P 1_555 1_555
H20A O9A 1_555 1_555
H21B O9B 1_555 1_555
H21O O9O 1_555 1_555
H21Q O9Q 1_555 1_555
H21P O9P 1_555 1_555
H21A O9A 1_555 1_555
O4 C14 1_555 1_555
O6 C15 1_555 1_555
O8 C28 1_555 1_555
C4 C5 1_555 1_555
C6 C7 1_555 1_555
C8 C9 1_555 1_555
C9 C10 1_555 1_555
C12 C13 1_555 1_555
C18 C19 1_555 1_555
C20 C21 1_555 1_555
C22 C23 1_555 1_555
C23 C24 1_555 1_555
C26 C27 1_555 1_555
C32 C33 1_555 1_555
O3P C14P 1_555 1_555
O4A C14A 1_555 1_555
O4B C14B 1_555 1_555
O4P C14P 1_555 1_555
O4Q C14Q 1_555 1_555
O4O C14O 1_555 1_555
O6A C15A 1_555 1_555
O6B C15B 1_555 1_555
O6P C15P 1_555 1_555
O6Q C15Q 1_555 1_555
O6O C15O 1_555 1_555
O7B C28B 1_555 1_555
O8A C28A 1_555 1_555
O8B C28B 1_555 1_555
O8P C28P 1_555 1_555
O8Q C28Q 1_555 1_555
O8O C28O 1_555 1_555
C4P C5P 1_555 1_555
C4B C5B 1_555 1_555
C4O C5O 1_555 1_555
C4A C5A 1_555 1_555
C4Q C5Q 1_555 1_555
C6P C7P 1_555 1_555
C6B C7B 1_555 1_555
C6O C7O 1_555 1_555
C6A C7A 1_555 1_555
C6Q C7Q 1_555 1_555
C8P C9P 1_555 1_555
C8B C9B 1_555 1_555
C8O C9O 1_555 1_555
C8A C9A 1_555 1_555
C8Q C9Q 1_555 1_555
C8Q C13Q 1_555 1_555
C9P C10P 1_555 1_555
C9B C10B 1_555 1_555
C9O C10O 1_555 1_555
C9A C10A 1_555 1_555
C9Q C10Q 1_555 1_555
C12P C13P 1_555 1_555
C12B C13B 1_555 1_555
C12O C13O 1_555 1_555
C12A C13A 1_555 1_555
C12Q C13Q 1_555 1_555
C13P C14B 1_555 1_555
C13B C14O 1_555 1_555
C13O C14A 1_555 1_555
C13A C14Q 1_555 1_555
C18A C19A 1_555 1_555
C18B C19B 1_555 1_555
C18Q C19Q 1_555 1_555
C18O C19O 1_555 1_555
C18P C19P 1_555 1_555
C20A C21A 1_555 1_555
C20B C21B 1_555 1_555
C20Q C21Q 1_555 1_555
C20O C21O 1_555 1_555
C20P C21P 1_555 1_555
C22A C23A 1_555 1_555
C22A C27A 1_555 1_555
C22B C23B 1_555 1_555
C22Q C23Q 1_555 1_555
C22O C23O 1_555 1_555
C22P C23P 1_555 1_555
C23A C24A 1_555 1_555
C23B C24B 1_555 1_555
C23Q C24Q 1_555 1_555
C23O C24O 1_555 1_555
C23P C24P 1_555 1_555
C26A C27A 1_555 1_555
C26B C27B 1_555 1_555
C26Q C27Q 1_555 1_555
C26O C27O 1_555 1_555
C26P C27P 1_555 1_555
C27B C28A 1_555 1_555
C27Q C28P 1_555 1_555
C27O C28Q 1_555 1_555
C27P C28O 1_555 1_555
C32A C33A 1_555 1_555
C32B C33B 1_555 1_555
C32P C33P 1_555 1_555
C32Q C33Q 1_555 1_555
C32O C33O 1_555 1_555

#END
