# generated using pymatgen
data_Cu2H29C34N3O10
_symmetry_space_group_name_H-M   'P 1'
_cell_length_a   23.29280000
_cell_length_b   24.04570000
_cell_length_c   27.63700000
_cell_angle_alpha   90.00000000
_cell_angle_beta   90.00000000
_cell_angle_gamma   97.33800000
_symmetry_Int_Tables_number   1
_chemical_formula_structural   Cu2H29C34N3O10
_chemical_formula_sum   'Cu24 H348 C408 N36 O120'
_cell_volume   15352.47795526
_cell_formula_units_Z   12
loop_
 _symmetry_equiv_pos_site_id
 _symmetry_equiv_pos_as_xyz
  1  'x, y, z'
loop_
 _atom_site_type_symbol
 _atom_site_label
 _atom_site_symmetry_multiplicity
 _atom_site_fract_x
 _atom_site_fract_y
 _atom_site_fract_z
 _atom_site_occupancy
  Cu  Cu1  1  0.082201  0.426801  0.329839  1.0
  Cu  Cu2  1  0.417799  0.073199  0.829839  1.0
  Cu  Cu3  1  0.917799  0.573199  0.670161  1.0
  Cu  Cu4  1  0.582201  0.926801  0.170161  1.0
  Cu  Cu5  1  0.054302  0.449206  0.241072  1.0
  Cu  Cu6  1  0.445698  0.050794  0.741072  1.0
  Cu  Cu7  1  0.945698  0.550794  0.758928  1.0
  Cu  Cu8  1  0.554302  0.949206  0.258928  1.0
  Cu  Cu9  1  0.881100  0.108418  0.947439  1.0
  Cu  Cu10  1  0.618900  0.391582  0.447439  1.0
  Cu  Cu11  1  0.118900  0.891582  0.052561  1.0
  Cu  Cu12  1  0.381100  0.608418  0.552561  1.0
  Cu  Cu13  1  0.914507  0.214912  0.960671  1.0
  Cu  Cu14  1  0.585493  0.285088  0.460671  1.0
  Cu  Cu15  1  0.085493  0.785088  0.039329  1.0
  Cu  Cu16  1  0.414507  0.714912  0.539329  1.0
  Cu  Cu17  1  0.611285  0.553283  0.097068  1.0
  Cu  Cu18  1  0.888715  0.946717  0.597068  1.0
  Cu  Cu19  1  0.388715  0.446717  0.902932  1.0
  Cu  Cu20  1  0.111285  0.053283  0.402932  1.0
  Cu  Cu21  1  0.718106  0.538938  0.075902  1.0
  Cu  Cu22  1  0.781894  0.961062  0.575902  1.0
  Cu  Cu23  1  0.281894  0.461062  0.924098  1.0
  Cu  Cu24  1  0.218106  0.038938  0.424098  1.0
  H  H25  1  0.096600  0.368000  0.411000  1.0
  H  H26  1  0.403400  0.132000  0.911000  1.0
  H  H27  1  0.903400  0.632000  0.589000  1.0
  H  H28  1  0.596600  0.868000  0.089000  1.0
  H  H29  1  0.041500  0.447600  0.147900  1.0
  H  H30  1  0.458500  0.052400  0.647900  1.0
  H  H31  1  0.958500  0.552400  0.852100  1.0
  H  H32  1  0.541500  0.947600  0.352100  1.0
  H  H33  1  0.987300  0.305600  0.987200  1.0
  H  H34  1  0.512700  0.194400  0.487200  1.0
  H  H35  1  0.012700  0.694400  0.012800  1.0
  H  H36  1  0.487300  0.805600  0.512800  1.0
  H  H37  1  0.996700  0.074400  0.248000  1.0
  H  H38  1  0.503300  0.425600  0.748000  1.0
  H  H39  1  0.003300  0.925600  0.752000  1.0
  H  H40  1  0.496700  0.574400  0.252000  1.0
  H  H41  1  0.722200  0.478900  0.393000  1.0
  H  H42  1  0.777800  0.021100  0.893000  1.0
  H  H43  1  0.277800  0.521100  0.607000  1.0
  H  H44  1  0.222200  0.978900  0.107000  1.0
  H  H45  1  0.210300  0.787500  0.344900  1.0
  H  H46  1  0.289700  0.712500  0.844900  1.0
  H  H47  1  0.789700  0.212500  0.655100  1.0
  H  H48  1  0.710300  0.287500  0.155100  1.0
  H  H49  1  0.540900  0.191300  0.036600  1.0
  H  H50  1  0.959100  0.308700  0.536600  1.0
  H  H51  1  0.459100  0.808700  0.963400  1.0
  H  H52  1  0.040900  0.691300  0.463400  1.0
  H  H53  1  0.753500  0.909200  0.119000  1.0
  H  H54  1  0.746500  0.590800  0.619000  1.0
  H  H55  1  0.246500  0.090800  0.881000  1.0
  H  H56  1  0.253500  0.409200  0.381000  1.0
  H  H57  1  0.614600  0.690100  0.803600  1.0
  H  H58  1  0.885400  0.809900  0.303600  1.0
  H  H59  1  0.385400  0.309900  0.196400  1.0
  H  H60  1  0.114600  0.190100  0.696400  1.0
  H  H61  1  0.041100  0.249900  0.332000  1.0
  H  H62  1  0.458900  0.250100  0.832000  1.0
  H  H63  1  0.958900  0.750100  0.668000  1.0
  H  H64  1  0.541100  0.749900  0.168000  1.0
  H  H65  1  0.028200  0.153400  0.319900  1.0
  H  H66  1  0.471800  0.346600  0.819900  1.0
  H  H67  1  0.971800  0.846600  0.680100  1.0
  H  H68  1  0.528200  0.653400  0.180100  1.0
  H  H69  1  0.963000  0.023500  0.161500  1.0
  H  H70  1  0.537000  0.476500  0.661500  1.0
  H  H71  1  0.037000  0.976500  0.838500  1.0
  H  H72  1  0.463000  0.523500  0.338500  1.0
  H  H73  1  0.938000  0.044700  0.083000  1.0
  H  H74  1  0.562000  0.455300  0.583000  1.0
  H  H75  1  0.062000  0.955300  0.917000  1.0
  H  H76  1  0.438000  0.544700  0.417000  1.0
  H  H77  1  0.966400  0.210800  0.110000  1.0
  H  H78  1  0.533600  0.289200  0.610000  1.0
  H  H79  1  0.033600  0.789200  0.890000  1.0
  H  H80  1  0.466400  0.710800  0.390000  1.0
  H  H81  1  0.000400  0.279400  0.193000  1.0
  H  H82  1  0.499600  0.220600  0.693000  1.0
  H  H83  1  0.999600  0.720600  0.807000  1.0
  H  H84  1  0.500400  0.779400  0.307000  1.0
  H  H85  1  0.922100  0.448600  0.399600  1.0
  H  H86  1  0.577900  0.051400  0.899600  1.0
  H  H87  1  0.077900  0.551400  0.600400  1.0
  H  H88  1  0.422100  0.948600  0.100400  1.0
  H  H89  1  0.829000  0.460200  0.426400  1.0
  H  H90  1  0.671000  0.039800  0.926400  1.0
  H  H91  1  0.171000  0.539800  0.573600  1.0
  H  H92  1  0.329000  0.960200  0.073600  1.0
  H  H93  1  0.632600  0.501000  0.333500  1.0
  H  H94  1  0.867400  0.999000  0.833500  1.0
  H  H95  1  0.367400  0.499000  0.666500  1.0
  H  H96  1  0.132600  0.001000  0.166500  1.0
  H  H97  1  0.612200  0.518700  0.252900  1.0
  H  H98  1  0.887800  0.981300  0.752900  1.0
  H  H99  1  0.387800  0.481300  0.747100  1.0
  H  H100  1  0.112200  0.018700  0.247100  1.0
  H  H101  1  0.776600  0.506700  0.214300  1.0
  H  H102  1  0.723400  0.993300  0.714300  1.0
  H  H103  1  0.223400  0.493300  0.785700  1.0
  H  H104  1  0.276600  0.006700  0.285700  1.0
  H  H105  1  0.879300  0.480900  0.262500  1.0
  H  H106  1  0.620700  0.019100  0.762500  1.0
  H  H107  1  0.120700  0.519100  0.737500  1.0
  H  H108  1  0.379300  0.980900  0.237500  1.0
  H  H109  1  0.159100  0.590700  0.377700  1.0
  H  H110  1  0.340900  0.909300  0.877700  1.0
  H  H111  1  0.840900  0.409300  0.622300  1.0
  H  H112  1  0.659100  0.090700  0.122300  1.0
  H  H113  1  0.196900  0.684200  0.390000  1.0
  H  H114  1  0.303100  0.815800  0.890000  1.0
  H  H115  1  0.803100  0.315800  0.610000  1.0
  H  H116  1  0.696900  0.184200  0.110000  1.0
  H  H117  1  0.207800  0.871600  0.277700  1.0
  H  H118  1  0.292200  0.628400  0.777700  1.0
  H  H119  1  0.792200  0.128400  0.722300  1.0
  H  H120  1  0.707800  0.371600  0.222300  1.0
  H  H121  1  0.179800  0.887000  0.199200  1.0
  H  H122  1  0.320200  0.613000  0.699200  1.0
  H  H123  1  0.820200  0.113000  0.800800  1.0
  H  H124  1  0.679800  0.387000  0.300800  1.0
  H  H125  1  0.127000  0.721700  0.179500  1.0
  H  H126  1  0.373000  0.778300  0.679500  1.0
  H  H127  1  0.873000  0.278300  0.820500  1.0
  H  H128  1  0.627000  0.221700  0.320500  1.0
  H  H129  1  0.119100  0.624200  0.239000  1.0
  H  H130  1  0.380900  0.875800  0.739000  1.0
  H  H131  1  0.880900  0.375800  0.761000  1.0
  H  H132  1  0.619100  0.124200  0.261000  1.0
  H  H133  1  0.704400  0.102300  0.991200  1.0
  H  H134  1  0.795600  0.397700  0.491200  1.0
  H  H135  1  0.295600  0.897700  0.008800  1.0
  H  H136  1  0.204400  0.602300  0.508800  1.0
  H  H137  1  0.609300  0.111800  0.012000  1.0
  H  H138  1  0.890700  0.388200  0.512000  1.0
  H  H139  1  0.390700  0.888200  0.988000  1.0
  H  H140  1  0.109300  0.611800  0.488000  1.0
  H  H141  1  0.501400  0.290000  0.061200  1.0
  H  H142  1  0.998600  0.210000  0.561200  1.0
  H  H143  1  0.498600  0.710000  0.938800  1.0
  H  H144  1  0.001400  0.790000  0.438800  1.0
  H  H145  1  0.531900  0.385100  0.072400  1.0
  H  H146  1  0.968100  0.114900  0.572400  1.0
  H  H147  1  0.468100  0.614900  0.927600  1.0
  H  H148  1  0.031900  0.885100  0.427600  1.0
  H  H149  1  0.697300  0.361000  0.043900  1.0
  H  H150  1  0.802700  0.139000  0.543900  1.0
  H  H151  1  0.302700  0.639000  0.956100  1.0
  H  H152  1  0.197300  0.861000  0.456100  1.0
  H  H153  1  0.754600  0.267500  0.012800  1.0
  H  H154  1  0.745400  0.232500  0.512800  1.0
  H  H155  1  0.245400  0.732500  0.987200  1.0
  H  H156  1  0.254600  0.767500  0.487200  1.0
  H  H157  1  0.634000  0.731700  0.124700  1.0
  H  H158  1  0.866000  0.768300  0.624700  1.0
  H  H159  1  0.366000  0.268300  0.875300  1.0
  H  H160  1  0.134000  0.231700  0.375300  1.0
  H  H161  1  0.660500  0.828200  0.129500  1.0
  H  H162  1  0.839500  0.671800  0.629500  1.0
  H  H163  1  0.339500  0.171800  0.870500  1.0
  H  H164  1  0.160500  0.328200  0.370500  1.0
  H  H165  1  0.865000  0.963100  0.110200  1.0
  H  H166  1  0.635000  0.536900  0.610200  1.0
  H  H167  1  0.135000  0.036900  0.889800  1.0
  H  H168  1  0.365000  0.463100  0.389800  1.0
  H  H169  1  0.956200  0.946800  0.092000  1.0
  H  H170  1  0.543800  0.553200  0.592000  1.0
  H  H171  1  0.043800  0.053200  0.908000  1.0
  H  H172  1  0.456200  0.446800  0.408000  1.0
  H  H173  1  0.907200  0.779200  0.084000  1.0
  H  H174  1  0.592800  0.720800  0.584000  1.0
  H  H175  1  0.092800  0.220800  0.916000  1.0
  H  H176  1  0.407200  0.279200  0.416000  1.0
  H  H177  1  0.798600  0.708500  0.092900  1.0
  H  H178  1  0.701400  0.791500  0.592900  1.0
  H  H179  1  0.201400  0.291500  0.907100  1.0
  H  H180  1  0.298600  0.208500  0.407100  1.0
  H  H181  1  0.567400  0.627800  0.963600  1.0
  H  H182  1  0.932600  0.872200  0.463600  1.0
  H  H183  1  0.432600  0.372200  0.036400  1.0
  H  H184  1  0.067400  0.127800  0.536400  1.0
  H  H185  1  0.559200  0.670600  0.889900  1.0
  H  H186  1  0.940800  0.829400  0.389900  1.0
  H  H187  1  0.440800  0.329400  0.110100  1.0
  H  H188  1  0.059200  0.170600  0.610100  1.0
  H  H189  1  0.689700  0.690300  0.727200  1.0
  H  H190  1  0.810300  0.809700  0.227200  1.0
  H  H191  1  0.310300  0.309700  0.272800  1.0
  H  H192  1  0.189700  0.190300  0.772800  1.0
  H  H193  1  0.773700  0.654100  0.704300  1.0
  H  H194  1  0.726300  0.845900  0.204300  1.0
  H  H195  1  0.226300  0.345900  0.295700  1.0
  H  H196  1  0.273700  0.154100  0.795700  1.0
  H  H197  1  0.782000  0.575300  0.832600  1.0
  H  H198  1  0.718000  0.924700  0.332600  1.0
  H  H199  1  0.218000  0.424700  0.167400  1.0
  H  H200  1  0.282000  0.075300  0.667400  1.0
  H  H201  1  0.716300  0.570700  0.921200  1.0
  H  H202  1  0.783700  0.929300  0.421200  1.0
  H  H203  1  0.283700  0.429300  0.078800  1.0
  H  H204  1  0.216300  0.070700  0.578800  1.0
  H  H205  1  0.151800  0.470300  0.428300  1.0
  H  H206  1  0.348200  0.029700  0.928300  1.0
  H  H207  1  0.848200  0.529700  0.571700  1.0
  H  H208  1  0.651800  0.970300  0.071700  1.0
  H  H209  1  0.136400  0.421500  0.466200  1.0
  H  H210  1  0.363600  0.078500  0.966200  1.0
  H  H211  1  0.863600  0.578500  0.533800  1.0
  H  H212  1  0.636400  0.921500  0.033800  1.0
  H  H213  1  0.093400  0.497200  0.486000  1.0
  H  H214  1  0.406600  0.002800  0.986000  1.0
  H  H215  1  0.906600  0.502800  0.514000  1.0
  H  H216  1  0.593400  0.997200  0.014000  1.0
  H  H217  1  0.046100  0.445700  0.474100  1.0
  H  H218  1  0.453900  0.054300  0.974100  1.0
  H  H219  1  0.953900  0.554300  0.525900  1.0
  H  H220  1  0.546100  0.945700  0.025900  1.0
  H  H221  1  0.060900  0.494200  0.435500  1.0
  H  H222  1  0.439100  0.005800  0.935500  1.0
  H  H223  1  0.939100  0.505800  0.564500  1.0
  H  H224  1  0.560900  0.994200  0.064500  1.0
  H  H225  1  0.020100  0.546700  0.156900  1.0
  H  H226  1  0.479900  0.953300  0.656900  1.0
  H  H227  1  0.979900  0.453300  0.843100  1.0
  H  H228  1  0.520100  0.046700  0.343100  1.0
  H  H229  1  0.007300  0.502700  0.114800  1.0
  H  H230  1  0.492700  0.997300  0.614800  1.0
  H  H231  1  0.992700  0.497300  0.885200  1.0
  H  H232  1  0.507300  0.002700  0.385200  1.0
  H  H233  1  0.082500  0.566200  0.089500  1.0
  H  H234  1  0.417500  0.933800  0.589500  1.0
  H  H235  1  0.917500  0.433800  0.910500  1.0
  H  H236  1  0.582500  0.066200  0.410500  1.0
  H  H237  1  0.109800  0.510400  0.100400  1.0
  H  H238  1  0.390200  0.989600  0.600400  1.0
  H  H239  1  0.890200  0.489600  0.899600  1.0
  H  H240  1  0.609800  0.010400  0.399600  1.0
  H  H241  1  0.117400  0.560400  0.138100  1.0
  H  H242  1  0.382600  0.939600  0.638100  1.0
  H  H243  1  0.882600  0.439600  0.861900  1.0
  H  H244  1  0.617400  0.060400  0.361900  1.0
  H  H245  1  0.944500  0.001500  0.937700  1.0
  H  H246  1  0.555500  0.498500  0.437700  1.0
  H  H247  1  0.055500  0.998500  0.062300  1.0
  H  H248  1  0.444500  0.501500  0.562300  1.0
  H  H249  1  0.925300  0.937000  0.927400  1.0
  H  H250  1  0.574700  0.563000  0.427400  1.0
  H  H251  1  0.074700  0.063000  0.072600  1.0
  H  H252  1  0.425300  0.437000  0.572600  1.0
  H  H253  1  0.936800  0.958300  0.981200  1.0
  H  H254  1  0.563200  0.541700  0.481200  1.0
  H  H255  1  0.063200  0.041700  0.018800  1.0
  H  H256  1  0.436800  0.458300  0.518800  1.0
  H  H257  1  0.878100  0.877800  0.973600  1.0
  H  H258  1  0.621900  0.622200  0.473600  1.0
  H  H259  1  0.121900  0.122200  0.026400  1.0
  H  H260  1  0.378100  0.377800  0.526400  1.0
  H  H261  1  0.815000  0.852800  0.957000  1.0
  H  H262  1  0.685000  0.647200  0.457000  1.0
  H  H263  1  0.185000  0.147200  0.043000  1.0
  H  H264  1  0.315000  0.352800  0.543000  1.0
  H  H265  1  0.827500  0.867800  0.012100  1.0
  H  H266  1  0.672500  0.632200  0.512100  1.0
  H  H267  1  0.172500  0.132200  0.987900  1.0
  H  H268  1  0.327500  0.367800  0.487900  1.0
  H  H269  1  0.759000  0.981500  0.970100  1.0
  H  H270  1  0.741000  0.518500  0.470100  1.0
  H  H271  1  0.241000  0.018500  0.029900  1.0
  H  H272  1  0.259000  0.481500  0.529900  1.0
  H  H273  1  0.751800  0.933400  0.009700  1.0
  H  H274  1  0.748200  0.566600  0.509700  1.0
  H  H275  1  0.248200  0.066600  0.990300  1.0
  H  H276  1  0.251800  0.433400  0.490300  1.0
  H  H277  1  0.739800  0.918500  0.954500  1.0
  H  H278  1  0.760200  0.581500  0.454500  1.0
  H  H279  1  0.260200  0.081500  0.045500  1.0
  H  H280  1  0.239800  0.418500  0.545500  1.0
  H  H281  1  0.957900  0.375100  0.976100  1.0
  H  H282  1  0.542100  0.124900  0.476100  1.0
  H  H283  1  0.042100  0.624900  0.023900  1.0
  H  H284  1  0.457900  0.875100  0.523900  1.0
  H  H285  1  0.903600  0.345900  0.004400  1.0
  H  H286  1  0.596400  0.154100  0.504400  1.0
  H  H287  1  0.096400  0.654100  0.995600  1.0
  H  H288  1  0.403600  0.845900  0.495600  1.0
  H  H289  1  0.871400  0.390200  0.934800  1.0
  H  H290  1  0.628600  0.109800  0.434800  1.0
  H  H291  1  0.128600  0.609800  0.065200  1.0
  H  H292  1  0.371400  0.890200  0.565200  1.0
  H  H293  1  0.854100  0.324700  0.928700  1.0
  H  H294  1  0.645900  0.175300  0.428700  1.0
  H  H295  1  0.145900  0.675300  0.071300  1.0
  H  H296  1  0.354100  0.824700  0.571300  1.0
  H  H297  1  0.908500  0.355600  0.900700  1.0
  H  H298  1  0.591500  0.144400  0.400700  1.0
  H  H299  1  0.091500  0.644400  0.099300  1.0
  H  H300  1  0.408500  0.855600  0.599300  1.0
  H  H301  1  0.506000  0.526100  0.028300  1.0
  H  H302  1  0.994000  0.973900  0.528300  1.0
  H  H303  1  0.494000  0.473900  0.971700  1.0
  H  H304  1  0.006000  0.026100  0.471700  1.0
  H  H305  1  0.468000  0.576200  0.026300  1.0
  H  H306  1  0.032000  0.923800  0.526300  1.0
  H  H307  1  0.532000  0.423800  0.973700  1.0
  H  H308  1  0.968000  0.076200  0.473700  1.0
  H  H309  1  0.437800  0.513800  0.033100  1.0
  H  H310  1  0.062200  0.986200  0.533100  1.0
  H  H311  1  0.562200  0.486200  0.966900  1.0
  H  H312  1  0.937800  0.013800  0.466900  1.0
  H  H313  1  0.386000  0.563300  0.042400  1.0
  H  H314  1  0.114000  0.936700  0.542400  1.0
  H  H315  1  0.614000  0.436700  0.957600  1.0
  H  H316  1  0.886000  0.063300  0.457600  1.0
  H  H317  1  0.346000  0.588200  0.081100  1.0
  H  H318  1  0.154000  0.911800  0.581100  1.0
  H  H319  1  0.654000  0.411800  0.918900  1.0
  H  H320  1  0.846000  0.088200  0.418900  1.0
  H  H321  1  0.348500  0.522700  0.078700  1.0
  H  H322  1  0.151500  0.977300  0.578700  1.0
  H  H323  1  0.651500  0.477300  0.921300  1.0
  H  H324  1  0.848500  0.022700  0.421300  1.0
  H  H325  1  0.373400  0.591100  0.175000  1.0
  H  H326  1  0.126600  0.908900  0.675000  1.0
  H  H327  1  0.626600  0.408900  0.825000  1.0
  H  H328  1  0.873400  0.091100  0.325000  1.0
  H  H329  1  0.441300  0.603300  0.182600  1.0
  H  H330  1  0.058700  0.896700  0.682600  1.0
  H  H331  1  0.558700  0.396700  0.817400  1.0
  H  H332  1  0.941300  0.103300  0.317400  1.0
  H  H333  1  0.409400  0.541400  0.187800  1.0
  H  H334  1  0.090600  0.958600  0.687800  1.0
  H  H335  1  0.590600  0.458600  0.812200  1.0
  H  H336  1  0.909400  0.041400  0.312200  1.0
  H  H337  1  0.801000  0.616800  0.012500  1.0
  H  H338  1  0.699000  0.883200  0.512500  1.0
  H  H339  1  0.199000  0.383200  0.987500  1.0
  H  H340  1  0.301000  0.116800  0.487500  1.0
  H  H341  1  0.836400  0.593500  0.969800  1.0
  H  H342  1  0.663600  0.906500  0.469800  1.0
  H  H343  1  0.163600  0.406500  0.030200  1.0
  H  H344  1  0.336400  0.093500  0.530200  1.0
  H  H345  1  0.869200  0.631900  0.010300  1.0
  H  H346  1  0.630800  0.868100  0.510300  1.0
  H  H347  1  0.130800  0.368100  0.989700  1.0
  H  H348  1  0.369200  0.131900  0.489700  1.0
  H  H349  1  0.927400  0.577700  0.969300  1.0
  H  H350  1  0.572600  0.922300  0.469300  1.0
  H  H351  1  0.072600  0.422300  0.030700  1.0
  H  H352  1  0.427400  0.077700  0.530700  1.0
  H  H353  1  0.931100  0.513300  0.959800  1.0
  H  H354  1  0.568900  0.986700  0.459800  1.0
  H  H355  1  0.068900  0.486700  0.040200  1.0
  H  H356  1  0.431100  0.013300  0.540200  1.0
  H  H357  1  0.974400  0.547300  0.996700  1.0
  H  H358  1  0.525600  0.952700  0.496700  1.0
  H  H359  1  0.025600  0.452700  0.003300  1.0
  H  H360  1  0.474400  0.047300  0.503300  1.0
  H  H361  1  0.869500  0.467700  0.078300  1.0
  H  H362  1  0.630500  0.032300  0.578300  1.0
  H  H363  1  0.130500  0.532300  0.921700  1.0
  H  H364  1  0.369500  0.967700  0.421700  1.0
  H  H365  1  0.936700  0.475400  0.067000  1.0
  H  H366  1  0.563300  0.024600  0.567000  1.0
  H  H367  1  0.063300  0.524600  0.933000  1.0
  H  H368  1  0.436700  0.975400  0.433000  1.0
  H  H369  1  0.892600  0.441500  0.030700  1.0
  H  H370  1  0.607400  0.058500  0.530700  1.0
  H  H371  1  0.107400  0.558500  0.969300  1.0
  H  H372  1  0.392600  0.941500  0.469300  1.0
  C  C373  1  0.034120  0.334420  0.273090  1.0
  C  C374  1  0.465880  0.165580  0.773090  1.0
  C  C375  1  0.965880  0.665580  0.726910  1.0
  C  C376  1  0.534120  0.834420  0.226910  1.0
  C  C377  1  0.021970  0.273130  0.263920  1.0
  C  C378  1  0.478030  0.226870  0.763920  1.0
  C  C379  1  0.978030  0.726870  0.736080  1.0
  C  C380  1  0.521970  0.773130  0.236080  1.0
  C  C381  1  0.030000  0.235550  0.301300  1.0
  C  C382  1  0.470000  0.264450  0.801300  1.0
  C  C383  1  0.970000  0.764450  0.698700  1.0
  C  C384  1  0.530000  0.735550  0.198700  1.0
  C  C385  1  0.022300  0.178170  0.294620  1.0
  C  C386  1  0.477700  0.321830  0.794620  1.0
  C  C387  1  0.977700  0.821830  0.705380  1.0
  C  C388  1  0.522300  0.678170  0.205380  1.0
  C  C389  1  0.005200  0.158580  0.248380  1.0
  C  C390  1  0.494800  0.341420  0.748380  1.0
  C  C391  1  0.994800  0.841420  0.751620  1.0
  C  C392  1  0.505200  0.658580  0.251620  1.0
  C  C393  1  0.978800  0.105660  0.183430  1.0
  C  C394  1  0.521200  0.394340  0.683430  1.0
  C  C395  1  0.021200  0.894340  0.816570  1.0
  C  C396  1  0.478800  0.605660  0.316570  1.0
  C  C397  1  0.963300  0.060920  0.151560  1.0
  C  C398  1  0.536700  0.439080  0.651560  1.0
  C  C399  1  0.036700  0.939080  0.848440  1.0
  C  C400  1  0.463300  0.560920  0.348440  1.0
  C  C401  1  0.948640  0.074020  0.105010  1.0
  C  C402  1  0.551360  0.425980  0.605010  1.0
  C  C403  1  0.051360  0.925980  0.894990  1.0
  C  C404  1  0.448640  0.574020  0.394990  1.0
  C  C405  1  0.948950  0.129120  0.089460  1.0
  C  C406  1  0.551050  0.370880  0.589460  1.0
  C  C407  1  0.051050  0.870880  0.910540  1.0
  C  C408  1  0.448950  0.629120  0.410540  1.0
  C  C409  1  0.930030  0.141250  0.038810  1.0
  C  C410  1  0.569970  0.358750  0.538810  1.0
  C  C411  1  0.069970  0.858750  0.961190  1.0
  C  C412  1  0.430030  0.641250  0.461190  1.0
  C  C413  1  0.965120  0.173510  0.120620  1.0
  C  C414  1  0.534880  0.326490  0.620620  1.0
  C  C415  1  0.034880  0.826490  0.879380  1.0
  C  C416  1  0.465120  0.673510  0.379380  1.0
  C  C417  1  0.979530  0.161580  0.168340  1.0
  C  C418  1  0.520470  0.338420  0.668340  1.0
  C  C419  1  0.020470  0.838420  0.831660  1.0
  C  C420  1  0.479530  0.661580  0.331660  1.0
  C  C421  1  0.996250  0.196380  0.209930  1.0
  C  C422  1  0.503750  0.303620  0.709930  1.0
  C  C423  1  0.003750  0.803620  0.790070  1.0
  C  C424  1  0.496250  0.696380  0.290070  1.0
  C  C425  1  0.005380  0.254060  0.218050  1.0
  C  C426  1  0.494620  0.245940  0.718050  1.0
  C  C427  1  0.994620  0.745940  0.781950  1.0
  C  C428  1  0.505380  0.754060  0.281950  1.0
  C  C429  1  0.969370  0.456640  0.312660  1.0
  C  C430  1  0.530630  0.043360  0.812660  1.0
  C  C431  1  0.030630  0.543360  0.687340  1.0
  C  C432  1  0.469370  0.956640  0.187340  1.0
  C  C433  1  0.909740  0.464940  0.329090  1.0
  C  C434  1  0.590260  0.035060  0.829090  1.0
  C  C435  1  0.090260  0.535060  0.670910  1.0
  C  C436  1  0.409740  0.964940  0.170910  1.0
  C  C437  1  0.894450  0.457790  0.377190  1.0
  C  C438  1  0.605550  0.042210  0.877190  1.0
  C  C439  1  0.105550  0.542210  0.622810  1.0
  C  C440  1  0.394450  0.957790  0.122810  1.0
  C  C441  1  0.838620  0.463890  0.393390  1.0
  C  C442  1  0.661380  0.036110  0.893390  1.0
  C  C443  1  0.161380  0.536110  0.606610  1.0
  C  C444  1  0.338620  0.963890  0.106610  1.0
  C  C445  1  0.798600  0.475320  0.360110  1.0
  C  C446  1  0.701400  0.024680  0.860110  1.0
  C  C447  1  0.201400  0.524680  0.639890  1.0
  C  C448  1  0.298600  0.975320  0.139890  1.0
  C  C449  1  0.717270  0.493540  0.321440  1.0
  C  C450  1  0.782730  0.006460  0.821440  1.0
  C  C451  1  0.282730  0.506460  0.678560  1.0
  C  C452  1  0.217270  0.993540  0.178560  1.0
  C  C453  1  0.661540  0.502120  0.309720  1.0
  C  C454  1  0.838460  0.997880  0.809720  1.0
  C  C455  1  0.338460  0.497880  0.690280  1.0
  C  C456  1  0.161540  0.002120  0.190280  1.0
  C  C457  1  0.649730  0.512420  0.261930  1.0
  C  C458  1  0.850270  0.987580  0.761930  1.0
  C  C459  1  0.350270  0.487580  0.738070  1.0
  C  C460  1  0.149730  0.012420  0.238070  1.0
  C  C461  1  0.693340  0.513700  0.226210  1.0
  C  C462  1  0.806660  0.986300  0.726210  1.0
  C  C463  1  0.306660  0.486300  0.773790  1.0
  C  C464  1  0.193340  0.013700  0.273790  1.0
  C  C465  1  0.679420  0.525420  0.175000  1.0
  C  C466  1  0.820580  0.974580  0.675000  1.0
  C  C467  1  0.320580  0.474580  0.825000  1.0
  C  C468  1  0.179420  0.025420  0.325000  1.0
  C  C469  1  0.747830  0.505360  0.238270  1.0
  C  C470  1  0.752170  0.994640  0.738270  1.0
  C  C471  1  0.252170  0.494640  0.761730  1.0
  C  C472  1  0.247830  0.005360  0.261730  1.0
  C  C473  1  0.761500  0.494840  0.286230  1.0
  C  C474  1  0.738500  0.005160  0.786230  1.0
  C  C475  1  0.238500  0.505160  0.713770  1.0
  C  C476  1  0.261500  0.994840  0.213770  1.0
  C  C477  1  0.813050  0.482870  0.310440  1.0
  C  C478  1  0.686950  0.017130  0.810440  1.0
  C  C479  1  0.186950  0.517130  0.689560  1.0
  C  C480  1  0.313050  0.982870  0.189560  1.0
  C  C481  1  0.869170  0.476870  0.295390  1.0
  C  C482  1  0.630830  0.023130  0.795390  1.0
  C  C483  1  0.130830  0.523130  0.704610  1.0
  C  C484  1  0.369170  0.976870  0.204610  1.0
  C  C485  1  0.110670  0.538890  0.300520  1.0
  C  C486  1  0.389330  0.961110  0.800520  1.0
  C  C487  1  0.889330  0.461110  0.699480  1.0
  C  C488  1  0.610670  0.038890  0.199480  1.0
  C  C489  1  0.135380  0.598010  0.307230  1.0
  C  C490  1  0.364620  0.901990  0.807230  1.0
  C  C491  1  0.864620  0.401990  0.692770  1.0
  C  C492  1  0.635380  0.098010  0.192770  1.0
  C  C493  1  0.158600  0.616540  0.352240  1.0
  C  C494  1  0.341400  0.883460  0.852240  1.0
  C  C495  1  0.841400  0.383460  0.647760  1.0
  C  C496  1  0.658600  0.116540  0.147760  1.0
  C  C497  1  0.180840  0.672230  0.359940  1.0
  C  C498  1  0.319160  0.827770  0.859940  1.0
  C  C499  1  0.819160  0.327770  0.640060  1.0
  C  C500  1  0.680840  0.172230  0.140060  1.0
  C  C501  1  0.178690  0.709370  0.322350  1.0
  C  C502  1  0.321310  0.790630  0.822350  1.0
  C  C503  1  0.821310  0.290630  0.677650  1.0
  C  C504  1  0.678690  0.209370  0.177650  1.0
  C  C505  1  0.183600  0.786790  0.275510  1.0
  C  C506  1  0.316400  0.713210  0.775510  1.0
  C  C507  1  0.816400  0.213210  0.724490  1.0
  C  C508  1  0.683600  0.286790  0.224490  1.0
  C  C509  1  0.191600  0.841660  0.258140  1.0
  C  C510  1  0.308400  0.658340  0.758140  1.0
  C  C511  1  0.808400  0.158340  0.741860  1.0
  C  C512  1  0.691600  0.341660  0.241860  1.0
  C  C513  1  0.175000  0.850300  0.211580  1.0
  C  C514  1  0.325000  0.649700  0.711580  1.0
  C  C515  1  0.825000  0.149700  0.788420  1.0
  C  C516  1  0.675000  0.350300  0.288420  1.0
  C  C517  1  0.150700  0.805780  0.181310  1.0
  C  C518  1  0.349300  0.694220  0.681310  1.0
  C  C519  1  0.849300  0.194220  0.818690  1.0
  C  C520  1  0.650700  0.305780  0.318690  1.0
  C  C521  1  0.866830  0.182030  0.869040  1.0
  C  C522  1  0.633170  0.317970  0.369040  1.0
  C  C523  1  0.133170  0.817970  0.130960  1.0
  C  C524  1  0.366830  0.682030  0.630960  1.0
  C  C525  1  0.143300  0.751580  0.199100  1.0
  C  C526  1  0.356700  0.748420  0.699100  1.0
  C  C527  1  0.856700  0.248420  0.800900  1.0
  C  C528  1  0.643300  0.251580  0.300900  1.0
  C  C529  1  0.160140  0.741590  0.246160  1.0
  C  C530  1  0.339860  0.758410  0.746160  1.0
  C  C531  1  0.839860  0.258410  0.753840  1.0
  C  C532  1  0.660140  0.241590  0.253840  1.0
  C  C533  1  0.155560  0.691720  0.276160  1.0
  C  C534  1  0.344440  0.808280  0.776160  1.0
  C  C535  1  0.844440  0.308280  0.723840  1.0
  C  C536  1  0.655560  0.191720  0.223840  1.0
  C  C537  1  0.134330  0.636370  0.269260  1.0
  C  C538  1  0.365670  0.863630  0.769260  1.0
  C  C539  1  0.865670  0.363630  0.730740  1.0
  C  C540  1  0.634330  0.136370  0.230740  1.0
  C  C541  1  0.798180  0.176270  0.983880  1.0
  C  C542  1  0.701820  0.323730  0.483880  1.0
  C  C543  1  0.201820  0.823730  0.016120  1.0
  C  C544  1  0.298180  0.676270  0.516120  1.0
  C  C545  1  0.738400  0.184000  0.999270  1.0
  C  C546  1  0.761600  0.316000  0.499270  1.0
  C  C547  1  0.261600  0.816000  0.000730  1.0
  C  C548  1  0.238400  0.684000  0.500730  1.0
  C  C549  1  0.694710  0.137870  0.999550  1.0
  C  C550  1  0.805290  0.362130  0.499550  1.0
  C  C551  1  0.305290  0.862130  0.000450  1.0
  C  C552  1  0.194710  0.637870  0.500450  1.0
  C  C553  1  0.638010  0.143000  0.011620  1.0
  C  C554  1  0.861990  0.357000  0.511620  1.0
  C  C555  1  0.361990  0.857000  0.988380  1.0
  C  C556  1  0.138010  0.643000  0.488380  1.0
  C  C557  1  0.625360  0.196670  0.023170  1.0
  C  C558  1  0.874640  0.303330  0.523170  1.0
  C  C559  1  0.374640  0.803330  0.976830  1.0
  C  C560  1  0.125360  0.696670  0.476830  1.0
  C  C561  1  0.581140  0.269910  0.044830  1.0
  C  C562  1  0.918860  0.230090  0.544830  1.0
  C  C563  1  0.418860  0.730090  0.955170  1.0
  C  C564  1  0.081140  0.769910  0.455170  1.0
  C  C565  1  0.540630  0.304450  0.057450  1.0
  C  C566  1  0.959370  0.195550  0.557450  1.0
  C  C567  1  0.459370  0.695550  0.942550  1.0
  C  C568  1  0.040630  0.804450  0.442550  1.0
  C  C569  1  0.559110  0.360830  0.064510  1.0
  C  C570  1  0.940890  0.139170  0.564510  1.0
  C  C571  1  0.440890  0.639170  0.935490  1.0
  C  C572  1  0.059110  0.860830  0.435490  1.0
  C  C573  1  0.618080  0.382410  0.060120  1.0
  C  C574  1  0.881920  0.117590  0.560120  1.0
  C  C575  1  0.381920  0.617590  0.939880  1.0
  C  C576  1  0.118080  0.882410  0.439880  1.0
  C  C577  1  0.637070  0.442980  0.069010  1.0
  C  C578  1  0.862930  0.057020  0.569010  1.0
  C  C579  1  0.362930  0.557020  0.930990  1.0
  C  C580  1  0.137070  0.942980  0.430990  1.0
  C  C581  1  0.657970  0.346970  0.047170  1.0
  C  C582  1  0.842030  0.153030  0.547170  1.0
  C  C583  1  0.342030  0.653030  0.952830  1.0
  C  C584  1  0.157970  0.846970  0.452830  1.0
  C  C585  1  0.639450  0.290700  0.039030  1.0
  C  C586  1  0.860550  0.209300  0.539030  1.0
  C  C587  1  0.360550  0.709300  0.960970  1.0
  C  C588  1  0.139450  0.790700  0.460970  1.0
  C  C589  1  0.668830  0.242970  0.024450  1.0
  C  C590  1  0.831170  0.257030  0.524450  1.0
  C  C591  1  0.331170  0.757030  0.975550  1.0
  C  C592  1  0.168830  0.742970  0.475550  1.0
  C  C593  1  0.725450  0.236550  0.012240  1.0
  C  C594  1  0.774550  0.263450  0.512240  1.0
  C  C595  1  0.274550  0.763450  0.987760  1.0
  C  C596  1  0.225450  0.736550  0.487760  1.0
  C  C597  1  0.694900  0.649570  0.102110  1.0
  C  C598  1  0.805100  0.850430  0.602110  1.0
  C  C599  1  0.305100  0.350430  0.897890  1.0
  C  C600  1  0.194900  0.149570  0.397890  1.0
  C  C601  1  0.713760  0.710030  0.107540  1.0
  C  C602  1  0.786240  0.789970  0.607540  1.0
  C  C603  1  0.286240  0.289970  0.892460  1.0
  C  C604  1  0.213760  0.210030  0.392460  1.0
  C  C605  1  0.672650  0.746780  0.118920  1.0
  C  C606  1  0.827350  0.753220  0.618920  1.0
  C  C607  1  0.327350  0.253220  0.881080  1.0
  C  C608  1  0.172650  0.246780  0.381080  1.0
  C  C609  1  0.688020  0.804240  0.121800  1.0
  C  C610  1  0.811980  0.695760  0.621800  1.0
  C  C611  1  0.311980  0.195760  0.878200  1.0
  C  C612  1  0.188020  0.304240  0.378200  1.0
  C  C613  1  0.744900  0.825060  0.113070  1.0
  C  C614  1  0.755100  0.674940  0.613070  1.0
  C  C615  1  0.255100  0.174940  0.886930  1.0
  C  C616  1  0.244900  0.325060  0.386930  1.0
  C  C617  1  0.829500  0.881280  0.105780  1.0
  C  C618  1  0.670500  0.618720  0.605780  1.0
  C  C619  1  0.170500  0.118720  0.894220  1.0
  C  C620  1  0.329500  0.381280  0.394220  1.0
  C  C621  1  0.873100  0.926410  0.104230  1.0
  C  C622  1  0.626900  0.573590  0.604230  1.0
  C  C623  1  0.126900  0.073590  0.895770  1.0
  C  C624  1  0.373100  0.426410  0.395770  1.0
  C  C625  1  0.926680  0.916300  0.094050  1.0
  C  C626  1  0.573320  0.583700  0.594050  1.0
  C  C627  1  0.073320  0.083700  0.905950  1.0
  C  C628  1  0.426680  0.416300  0.405950  1.0
  C  C629  1  0.941170  0.861630  0.086150  1.0
  C  C630  1  0.558830  0.638370  0.586150  1.0
  C  C631  1  0.058830  0.138370  0.913850  1.0
  C  C632  1  0.441170  0.361630  0.413850  1.0
  C  C633  1  0.998270  0.146830  0.925750  1.0
  C  C634  1  0.501730  0.353170  0.425750  1.0
  C  C635  1  0.001730  0.853170  0.074250  1.0
  C  C636  1  0.498270  0.646830  0.574250  1.0
  C  C637  1  0.898460  0.815860  0.088840  1.0
  C  C638  1  0.601540  0.684140  0.588840  1.0
  C  C639  1  0.101540  0.184140  0.911160  1.0
  C  C640  1  0.398460  0.315860  0.411160  1.0
  C  C641  1  0.841760  0.826120  0.099060  1.0
  C  C642  1  0.658240  0.673880  0.599060  1.0
  C  C643  1  0.158240  0.173880  0.900940  1.0
  C  C644  1  0.341760  0.326120  0.400940  1.0
  C  C645  1  0.787200  0.788950  0.103790  1.0
  C  C646  1  0.712800  0.711050  0.603790  1.0
  C  C647  1  0.212800  0.211050  0.896210  1.0
  C  C648  1  0.287200  0.288950  0.396210  1.0
  C  C649  1  0.770840  0.732380  0.100310  1.0
  C  C650  1  0.729160  0.767620  0.600310  1.0
  C  C651  1  0.229160  0.267620  0.899690  1.0
  C  C652  1  0.270840  0.232380  0.399690  1.0
  C  C653  1  0.650200  0.573450  0.999980  1.0
  C  C654  1  0.849800  0.926550  0.499980  1.0
  C  C655  1  0.349800  0.426550  0.000020  1.0
  C  C656  1  0.150200  0.073450  0.500020  1.0
  C  C657  1  0.643370  0.596080  0.950740  1.0
  C  C658  1  0.856630  0.903920  0.450740  1.0
  C  C659  1  0.356630  0.403920  0.049260  1.0
  C  C660  1  0.143370  0.096080  0.549260  1.0
  C  C661  1  0.596020  0.625620  0.939960  1.0
  C  C662  1  0.903980  0.874380  0.439960  1.0
  C  C663  1  0.403980  0.374380  0.060040  1.0
  C  C664  1  0.096020  0.125620  0.560040  1.0
  C  C665  1  0.590750  0.651000  0.896340  1.0
  C  C666  1  0.909250  0.849000  0.396340  1.0
  C  C667  1  0.409250  0.349000  0.103660  1.0
  C  C668  1  0.090750  0.151000  0.603660  1.0
  C  C669  1  0.633000  0.647000  0.861870  1.0
  C  C670  1  0.867000  0.853000  0.361870  1.0
  C  C671  1  0.367000  0.353000  0.138130  1.0
  C  C672  1  0.133000  0.147000  0.638130  1.0
  C  C673  1  0.687900  0.656200  0.795180  1.0
  C  C674  1  0.812100  0.843800  0.295180  1.0
  C  C675  1  0.312100  0.343800  0.204820  1.0
  C  C676  1  0.187900  0.156200  0.704820  1.0
  C  C677  1  0.708500  0.668200  0.748500  1.0
  C  C678  1  0.791500  0.831800  0.248500  1.0
  C  C679  1  0.291500  0.331800  0.251500  1.0
  C  C680  1  0.208500  0.168200  0.751500  1.0
  C  C681  1  0.758000  0.646000  0.735200  1.0
  C  C682  1  0.742000  0.854000  0.235200  1.0
  C  C683  1  0.242000  0.354000  0.264800  1.0
  C  C684  1  0.258000  0.146000  0.764800  1.0
  C  C685  1  0.785230  0.612200  0.765820  1.0
  C  C686  1  0.714770  0.887800  0.265820  1.0
  C  C687  1  0.214770  0.387800  0.234180  1.0
  C  C688  1  0.285230  0.112200  0.734180  1.0
  C  C689  1  0.161720  0.411910  0.252690  1.0
  C  C690  1  0.338280  0.088090  0.752690  1.0
  C  C691  1  0.838280  0.588090  0.747310  1.0
  C  C692  1  0.661720  0.911910  0.247310  1.0
  C  C693  1  0.763590  0.598650  0.812030  1.0
  C  C694  1  0.736410  0.901350  0.312030  1.0
  C  C695  1  0.236410  0.401350  0.187970  1.0
  C  C696  1  0.263590  0.098650  0.687970  1.0
  C  C697  1  0.714520  0.620500  0.826660  1.0
  C  C698  1  0.785480  0.879500  0.326660  1.0
  C  C699  1  0.285480  0.379500  0.173340  1.0
  C  C700  1  0.214520  0.120500  0.673340  1.0
  C  C701  1  0.680400  0.616210  0.869690  1.0
  C  C702  1  0.819600  0.883790  0.369690  1.0
  C  C703  1  0.319600  0.383790  0.130310  1.0
  C  C704  1  0.180400  0.116210  0.630310  1.0
  C  C705  1  0.685210  0.590990  0.914820  1.0
  C  C706  1  0.814790  0.909010  0.414820  1.0
  C  C707  1  0.314790  0.409010  0.085180  1.0
  C  C708  1  0.185210  0.090990  0.585180  1.0
  C  C709  1  0.120400  0.442900  0.440400  1.0
  C  C710  1  0.379600  0.057100  0.940400  1.0
  C  C711  1  0.879600  0.557100  0.559600  1.0
  C  C712  1  0.620400  0.942900  0.059600  1.0
  C  C713  1  0.076700  0.472400  0.460600  1.0
  C  C714  1  0.423300  0.027600  0.960600  1.0
  C  C715  1  0.923300  0.527600  0.539400  1.0
  C  C716  1  0.576700  0.972400  0.039400  1.0
  C  C717  1  0.035400  0.515900  0.140000  1.0
  C  C718  1  0.464600  0.984100  0.640000  1.0
  C  C719  1  0.964600  0.484100  0.860000  1.0
  C  C720  1  0.535400  0.015900  0.360000  1.0
  C  C721  1  0.091000  0.540000  0.115000  1.0
  C  C722  1  0.409000  0.960000  0.615000  1.0
  C  C723  1  0.909000  0.460000  0.885000  1.0
  C  C724  1  0.591000  0.040000  0.385000  1.0
  C  C725  1  0.922100  0.967600  0.949800  1.0
  C  C726  1  0.577900  0.532400  0.449800  1.0
  C  C727  1  0.077900  0.032400  0.050200  1.0
  C  C728  1  0.422100  0.467600  0.550200  1.0
  C  C729  1  0.859440  0.976700  0.954370  1.0
  C  C730  1  0.640560  0.523300  0.454370  1.0
  C  C731  1  0.140560  0.023300  0.045630  1.0
  C  C732  1  0.359440  0.476700  0.545630  1.0
  C  C733  1  0.837100  0.878670  0.979000  1.0
  C  C734  1  0.662900  0.621330  0.479000  1.0
  C  C735  1  0.162900  0.121330  0.021000  1.0
  C  C736  1  0.337100  0.378670  0.521000  1.0
  C  C737  1  0.763600  0.942600  0.976700  1.0
  C  C738  1  0.736400  0.557400  0.476700  1.0
  C  C739  1  0.236400  0.057400  0.023300  1.0
  C  C740  1  0.263600  0.442600  0.523300  1.0
  C  C741  1  0.926500  0.343800  0.974900  1.0
  C  C742  1  0.573500  0.156200  0.474900  1.0
  C  C743  1  0.073500  0.656200  0.025100  1.0
  C  C744  1  0.426500  0.843800  0.525100  1.0
  C  C745  1  0.886200  0.354600  0.930400  1.0
  C  C746  1  0.613800  0.145400  0.430400  1.0
  C  C747  1  0.113800  0.645400  0.069600  1.0
  C  C748  1  0.386200  0.854600  0.569600  1.0
  C  C749  1  0.476000  0.545700  0.087400  1.0
  C  C750  1  0.024000  0.954300  0.587400  1.0
  C  C751  1  0.524000  0.454300  0.912600  1.0
  C  C752  1  0.976000  0.045700  0.412600  1.0
  C  C753  1  0.471700  0.540100  0.040900  1.0
  C  C754  1  0.028300  0.959900  0.540900  1.0
  C  C755  1  0.528300  0.459900  0.959100  1.0
  C  C756  1  0.971700  0.040100  0.459100  1.0
  C  C757  1  0.370800  0.559400  0.075000  1.0
  C  C758  1  0.129200  0.940600  0.575000  1.0
  C  C759  1  0.629200  0.440600  0.925000  1.0
  C  C760  1  0.870800  0.059400  0.425000  1.0
  C  C761  1  0.410000  0.576500  0.170400  1.0
  C  C762  1  0.090000  0.923500  0.670400  1.0
  C  C763  1  0.590000  0.423500  0.829600  1.0
  C  C764  1  0.910000  0.076500  0.329600  1.0
  C  C765  1  0.843900  0.552400  0.033100  1.0
  C  C766  1  0.656100  0.947600  0.533100  1.0
  C  C767  1  0.156100  0.447600  0.966900  1.0
  C  C768  1  0.343900  0.052400  0.466900  1.0
  C  C769  1  0.837000  0.603100  0.003900  1.0
  C  C770  1  0.663000  0.896900  0.503900  1.0
  C  C771  1  0.163000  0.396900  0.996100  1.0
  C  C772  1  0.337000  0.103100  0.496100  1.0
  C  C773  1  0.935200  0.542800  0.984000  1.0
  C  C774  1  0.564800  0.957200  0.484000  1.0
  C  C775  1  0.064800  0.457200  0.016000  1.0
  C  C776  1  0.435200  0.042800  0.516000  1.0
  C  C777  1  0.898300  0.473000  0.052900  1.0
  C  C778  1  0.601700  0.027000  0.552900  1.0
  C  C779  1  0.101700  0.527000  0.947100  1.0
  C  C780  1  0.398300  0.973000  0.447100  1.0
  N  N781  1  0.994190  0.104540  0.231180  1.0
  N  N782  1  0.505810  0.395460  0.731180  1.0
  N  N783  1  0.005810  0.895460  0.768820  1.0
  N  N784  1  0.494190  0.604540  0.268820  1.0
  N  N785  1  0.740960  0.481800  0.365670  1.0
  N  N786  1  0.759040  0.018200  0.865670  1.0
  N  N787  1  0.259040  0.518200  0.634330  1.0
  N  N788  1  0.240960  0.981800  0.134330  1.0
  N  N789  1  0.195150  0.767140  0.320970  1.0
  N  N790  1  0.304850  0.732860  0.820970  1.0
  N  N791  1  0.804850  0.232860  0.679030  1.0
  N  N792  1  0.695150  0.267140  0.179030  1.0
  N  N793  1  0.573640  0.213160  0.035200  1.0
  N  N794  1  0.926360  0.286840  0.535200  1.0
  N  N795  1  0.426360  0.786840  0.964800  1.0
  N  N796  1  0.073640  0.713160  0.464800  1.0
  N  N797  1  0.771180  0.879940  0.113980  1.0
  N  N798  1  0.728820  0.620060  0.613980  1.0
  N  N799  1  0.228820  0.120060  0.886020  1.0
  N  N800  1  0.271180  0.379940  0.386020  1.0
  N  N801  1  0.823130  0.934710  0.970540  1.0
  N  N802  1  0.676870  0.565290  0.470540  1.0
  N  N803  1  0.176870  0.065290  0.029460  1.0
  N  N804  1  0.323130  0.434710  0.529460  1.0
  N  N805  1  0.420300  0.565500  0.110800  1.0
  N  N806  1  0.079700  0.934500  0.610800  1.0
  N  N807  1  0.579700  0.434500  0.889200  1.0
  N  N808  1  0.920300  0.065500  0.389200  1.0
  N  N809  1  0.892200  0.527200  0.025400  1.0
  N  N810  1  0.607800  0.972800  0.525400  1.0
  N  N811  1  0.107800  0.472800  0.974600  1.0
  N  N812  1  0.392200  0.027200  0.474600  1.0
  N  N813  1  0.638780  0.669800  0.816770  1.0
  N  N814  1  0.861220  0.830200  0.316770  1.0
  N  N815  1  0.361220  0.330200  0.183230  1.0
  N  N816  1  0.138780  0.169800  0.683230  1.0
  O  O817  1  0.047750  0.349620  0.316230  1.0
  O  O818  1  0.452250  0.150380  0.816230  1.0
  O  O819  1  0.952250  0.650380  0.683770  1.0
  O  O820  1  0.547750  0.849620  0.183770  1.0
  O  O821  1  0.030220  0.367160  0.237690  1.0
  O  O822  1  0.469780  0.132840  0.737690  1.0
  O  O823  1  0.969780  0.632840  0.762310  1.0
  O  O824  1  0.530220  0.867160  0.262310  1.0
  O  O825  1  0.910230  0.099300  0.013130  1.0
  O  O826  1  0.589770  0.400700  0.513130  1.0
  O  O827  1  0.089770  0.900700  0.986870  1.0
  O  O828  1  0.410230  0.599300  0.486870  1.0
  O  O829  1  0.934130  0.191740  0.026120  1.0
  O  O830  1  0.565870  0.308260  0.526120  1.0
  O  O831  1  0.065870  0.808260  0.973880  1.0
  O  O832  1  0.434130  0.691740  0.473880  1.0
  O  O833  1  0.807500  0.126650  0.973150  1.0
  O  O834  1  0.692500  0.373350  0.473150  1.0
  O  O835  1  0.192500  0.873350  0.026850  1.0
  O  O836  1  0.307500  0.626650  0.526850  1.0
  O  O837  1  0.835580  0.219680  0.981880  1.0
  O  O838  1  0.664420  0.280320  0.481880  1.0
  O  O839  1  0.164420  0.780320  0.018120  1.0
  O  O840  1  0.335580  0.719680  0.518120  1.0
  O  O841  1  0.690260  0.459670  0.066220  1.0
  O  O842  1  0.809740  0.040330  0.566220  1.0
  O  O843  1  0.309740  0.540330  0.933780  1.0
  O  O844  1  0.190260  0.959670  0.433780  1.0
  O  O845  1  0.597650  0.472840  0.079840  1.0
  O  O846  1  0.902350  0.027160  0.579840  1.0
  O  O847  1  0.402350  0.527160  0.920160  1.0
  O  O848  1  0.097650  0.972840  0.420160  1.0
  O  O849  1  0.696710  0.555140  0.009150  1.0
  O  O850  1  0.803290  0.944860  0.509150  1.0
  O  O851  1  0.303290  0.444860  0.990850  1.0
  O  O852  1  0.196710  0.055140  0.490850  1.0
  O  O853  1  0.608760  0.575930  0.029040  1.0
  O  O854  1  0.891240  0.924070  0.529040  1.0
  O  O855  1  0.391240  0.424070  0.970960  1.0
  O  O856  1  0.108760  0.075930  0.470960  1.0
  O  O857  1  0.721360  0.526110  0.145320  1.0
  O  O858  1  0.778640  0.973890  0.645320  1.0
  O  O859  1  0.278640  0.473890  0.854680  1.0
  O  O860  1  0.221360  0.026110  0.354680  1.0
  O  O861  1  0.628830  0.532500  0.163950  1.0
  O  O862  1  0.871170  0.967500  0.663950  1.0
  O  O863  1  0.371170  0.467500  0.836050  1.0
  O  O864  1  0.128830  0.032500  0.336050  1.0
  O  O865  1  0.732730  0.620050  0.087330  1.0
  O  O866  1  0.767270  0.879950  0.587330  1.0
  O  O867  1  0.267270  0.379950  0.912670  1.0
  O  O868  1  0.232730  0.120050  0.412670  1.0
  O  O869  1  0.643120  0.630950  0.111590  1.0
  O  O870  1  0.856880  0.869050  0.611590  1.0
  O  O871  1  0.356880  0.369050  0.888410  1.0
  O  O872  1  0.143120  0.130950  0.388410  1.0
  O  O873  1  0.978970  0.459670  0.267790  1.0
  O  O874  1  0.521030  0.040330  0.767790  1.0
  O  O875  1  0.021030  0.540330  0.732210  1.0
  O  O876  1  0.478970  0.959670  0.232210  1.0
  O  O877  1  0.005190  0.447750  0.344830  1.0
  O  O878  1  0.494810  0.052250  0.844830  1.0
  O  O879  1  0.994810  0.552250  0.655170  1.0
  O  O880  1  0.505190  0.947750  0.155170  1.0
  O  O881  1  0.085970  0.525830  0.260430  1.0
  O  O882  1  0.414030  0.974170  0.760430  1.0
  O  O883  1  0.914030  0.474170  0.739570  1.0
  O  O884  1  0.585970  0.025830  0.239570  1.0
  O  O885  1  0.115840  0.505210  0.334890  1.0
  O  O886  1  0.384160  0.994790  0.834890  1.0
  O  O887  1  0.884160  0.494790  0.665110  1.0
  O  O888  1  0.615840  0.005210  0.165110  1.0
  O  O889  1  0.989530  0.195970  0.938130  1.0
  O  O890  1  0.510470  0.304030  0.438130  1.0
  O  O891  1  0.010470  0.804030  0.061870  1.0
  O  O892  1  0.489530  0.695970  0.561870  1.0
  O  O893  1  0.959930  0.104960  0.923740  1.0
  O  O894  1  0.540070  0.395040  0.423740  1.0
  O  O895  1  0.040070  0.895040  0.076260  1.0
  O  O896  1  0.459930  0.604960  0.576260  1.0
  O  O897  1  0.151860  0.406720  0.297170  1.0
  O  O898  1  0.348140  0.093280  0.797170  1.0
  O  O899  1  0.848140  0.593280  0.702830  1.0
  O  O900  1  0.651860  0.906720  0.202830  1.0
  O  O901  1  0.131850  0.433940  0.222800  1.0
  O  O902  1  0.368150  0.066060  0.722800  1.0
  O  O903  1  0.868150  0.566060  0.777200  1.0
  O  O904  1  0.631850  0.933940  0.277200  1.0
  O  O905  1  0.889930  0.223180  0.893480  1.0
  O  O906  1  0.610070  0.276820  0.393480  1.0
  O  O907  1  0.110070  0.776820  0.106520  1.0
  O  O908  1  0.389930  0.723180  0.606520  1.0
  O  O909  1  0.858090  0.131880  0.883350  1.0
  O  O910  1  0.641910  0.368120  0.383350  1.0
  O  O911  1  0.141910  0.868120  0.116650  1.0
  O  O912  1  0.358090  0.631880  0.616650  1.0
  O  O913  1  0.101490  0.406380  0.403150  1.0
  O  O914  1  0.398510  0.093620  0.903150  1.0
  O  O915  1  0.898510  0.593620  0.596850  1.0
  O  O916  1  0.601490  0.906380  0.096850  1.0
  O  O917  1  0.036300  0.477720  0.169040  1.0
  O  O918  1  0.463700  0.022280  0.669040  1.0
  O  O919  1  0.963700  0.522280  0.830960  1.0
  O  O920  1  0.536300  0.977720  0.330960  1.0
  O  O921  1  0.948590  0.300700  0.976830  1.0
  O  O922  1  0.551410  0.199300  0.476830  1.0
  O  O923  1  0.051410  0.699300  0.023170  1.0
  O  O924  1  0.448590  0.800700  0.523170  1.0
  O  O925  1  0.844350  0.021690  0.941060  1.0
  O  O926  1  0.655650  0.478310  0.441060  1.0
  O  O927  1  0.155650  0.978310  0.058940  1.0
  O  O928  1  0.344350  0.521690  0.558940  1.0
  O  O929  1  0.519290  0.558010  0.113900  1.0
  O  O930  1  0.980710  0.941990  0.613900  1.0
  O  O931  1  0.480710  0.441990  0.886100  1.0
  O  O932  1  0.019290  0.058010  0.386100  1.0
  O  O933  1  0.807160  0.530160  0.060630  1.0
  O  O934  1  0.692840  0.969840  0.560630  1.0
  O  O935  1  0.192840  0.469840  0.939370  1.0
  O  O936  1  0.307160  0.030160  0.439370  1.0
