
#######################################################################
#
#                 Cambridge Crystallographic Data Centre
#                                CCDC 
#
#######################################################################
#
# If this CIF has been generated from an entry in the Cambridge 
# Structural Database, then it will include bibliographic, chemical, 
# crystal, experimental, refinement or atomic coordinate data resulting 
# from the CCDC's data processing and validation procedures.
#
#######################################################################

data_SUQGOC
_chemical_formula_moiety         
'C156 H96 F12 Fe4 N48 8+,0.25(C2 F6 N1 O4 S2 1-),5(C2 H3 N1),7.75(B1 F4 1-)'
_chemical_name_systematic        
'hexakis(\m-(1,2,4,5-tetrazine-3,6-diyldipyridine-5,2-diyl)bis(N-(4-fluorophenyl)methanimine))-tetra-iron bis(trifluoromethane)sulfonimide tetrafluoroborate acetonitrile unknown solvate'
_symmetry_cell_setting           triclinic
_symmetry_space_group_name_H-M   'P -1'
_symmetry_Int_Tables_number      2
_space_group_name_Hall           '-P 1'
loop_
_symmetry_equiv_pos_site_id
_symmetry_equiv_pos_as_xyz
1 x,y,z
2 -x,-y,-z
_cell_length_a                   20.3453(14)
_cell_length_b                   20.5485(14)
_cell_length_c                   24.4033(17)
_cell_angle_alpha                93.763(3)
_cell_angle_beta                 98.158(4)
_cell_angle_gamma                100.570(3)
_cell_volume                     9883.43
_exptl_crystal_colour            purple
_exptl_crystal_description       block
_cell_formula_units_Z            2
_exptl_crystal_recrystallization_method acetonitrile
loop_
_atom_site_label
_atom_site_type_symbol
_atom_site_fract_x
_atom_site_fract_y
_atom_site_fract_z
Fe1 Fe 0.76432(5) 0.32717(5) 0.33696(4)
Fe2 Fe 0.75114(6) 0.90474(5) 0.57686(5)
Fe3 Fe 0.78752(6) 0.83725(6) 0.04310(5)
Fe4 Fe 0.22837(6) 0.59082(6) 0.23031(5)
N1 N 0.8556(3) 0.3231(3) 0.3219(2)
N2 N 0.8123(3) 0.4143(3) 0.3746(2)
N3 N 0.7418(3) 0.5390(3) 0.4848(3)
N4 N 0.7178(4) 0.5815(3) 0.5159(3)
N5 N 0.8287(4) 0.6271(3) 0.4688(4)
N6 N 0.8044(4) 0.6690(3) 0.4999(3)
N7 N 0.7283(3) 0.8083(3) 0.5828(3)
N8 N 0.6923(3) 0.9041(3) 0.6350(2)
C1 C 0.8742(4) 0.2687(4) 0.2897(3)
C2 C 0.8583(5) 0.2634(5) 0.2330(3)
H1 H 0.8384 0.2965 0.2154
C3 C 0.8711(7) 0.2102(6) 0.2009(4)
H2 H 0.8600 0.2059 0.1615
C4 C 0.9003(6) 0.1646(5) 0.2282(4)
C5 C 0.9178(6) 0.1689(5) 0.2842(4)
H3 H 0.9392 0.1365 0.3016
C6 C 0.9035(5) 0.2219(4) 0.3152(4)
H4 H 0.9142 0.2256 0.3546
C7 C 0.8997(4) 0.3754(4) 0.3381(3)
H5 H 0.9445 0.3796 0.3299
C8 C 0.8793(4) 0.4287(3) 0.3697(3)
C9 C 0.9211(4) 0.4872(4) 0.3933(4)
H6 H 0.9670 0.4969 0.3877
C10 C 0.8956(4) 0.5312(4) 0.4251(4)
H7 H 0.9240 0.5711 0.4427
C11 C 0.8276(4) 0.5165(3) 0.4310(3)
C12 C 0.7878(4) 0.4574(3) 0.4046(3)
H8 H 0.7413 0.4476 0.4083
C13 C 0.7969(4) 0.5630(3) 0.4633(4)
C14 C 0.7510(4) 0.6442(3) 0.5230(4)
C15 C 0.7484(4) 0.7599(3) 0.5542(3)
H9 H 0.7797 0.7721 0.5294
C16 C 0.7261(4) 0.6922(3) 0.5587(3)
C17 C 0.6791(5) 0.6738(4) 0.5934(4)
H10 H 0.6610 0.6282 0.5957
C18 C 0.6588(5) 0.7230(4) 0.6250(4)
H11 H 0.6288 0.7117 0.6509
C19 C 0.6835(4) 0.7892(3) 0.6179(3)
C20 C 0.6640(4) 0.8458(3) 0.6462(3)
H12 H 0.6323 0.8401 0.6714
C21 C 0.6666(4) 0.9599(4) 0.6565(3)
C22 C 0.7095(5) 1.0113(4) 0.6889(4)
H13 H 0.7563 1.0106 0.6978
C23 C 0.6839(5) 1.0647(5) 0.7087(4)
H14 H 0.7126 1.1002 0.7325
C24 C 0.6177(5) 1.0654(5) 0.6937(4)
C25 C 0.5731(5) 1.0151(5) 0.6611(4)
H15 H 0.5266 1.0170 0.6523
C26 C 0.5982(4) 0.9614(4) 0.6415(4)
H16 H 0.5691 0.9258 0.6180
F1 F 0.9105(4) 0.1099(4) 0.1972(3)
F2 F 0.5930(4) 1.1183(3) 0.7145(3)
N9 N 0.7166(3) 0.2442(3) 0.2929(3)
N10 N 0.7468(3) 0.3622(3) 0.2642(2)
N11 N 0.8366(5) 0.5413(4) 0.2133(4)
N12 N 0.8616(5) 0.6028(4) 0.2014(4)
N13 N 0.7370(4) 0.5393(4) 0.1512(4)
N14 N 0.7626(4) 0.5999(5) 0.1393(5)
N15 N 0.8376(3) 0.7840(3) 0.0919(3)
N16 N 0.8787(3) 0.8943(3) 0.0536(3)
C27 C 0.6953(4) 0.1804(3) 0.3136(4)
C28 C 0.6300(5) 0.1640(5) 0.3226(7)
H17 H 0.6005 0.1946 0.3167
C29 C 0.6067(7) 0.1019(6) 0.3404(8)
H18 H 0.5611 0.0891 0.3460
C30 C 0.6511(6) 0.0606(5) 0.3493(6)
C31 C 0.7166(6) 0.0780(5) 0.3436(6)
H19 H 0.7471 0.0491 0.3528
C32 C 0.7390(5) 0.1386(4) 0.3242(5)
H20 H 0.7846 0.1509 0.3183
C33 C 0.6937(4) 0.2497(4) 0.2420(3)
H21 H 0.6678 0.2130 0.2178
C34 C 0.7103(4) 0.3164(4) 0.2238(3)
C35 C 0.6943(6) 0.3316(5) 0.1701(4)
H22 H 0.6690 0.2983 0.1423
C36 C 0.7150(5) 0.3955(4) 0.1568(4)
H23 H 0.7035 0.4070 0.1201
C37 C 0.7529(4) 0.4422(4) 0.1978(3)
C38 C 0.7675(4) 0.4230(3) 0.2505(3)
H24 H 0.7938 0.4553 0.2786
C39 C 0.7771(4) 0.5117(4) 0.1868(3)
C40 C 0.8246(4) 0.6290(4) 0.1635(4)
C41 C 0.8143(4) 0.7252(4) 0.1096(3)
H25 H 0.7690 0.7035 0.0960
C42 C 0.8540(4) 0.6943(4) 0.1474(4)
C43 C 0.9200(4) 0.7250(4) 0.1663(4)
H26 H 0.9479 0.7047 0.1918
C44 C 0.9457(4) 0.7857(5) 0.1482(4)
H27 H 0.9910 0.8080 0.1612
C45 C 0.9034(4) 0.8129(4) 0.1104(4)
C46 C 0.9234(4) 0.8760(4) 0.0877(4)
H28 H 0.9677 0.9021 0.0979
C47 C 0.8948(4) 0.9595(4) 0.0338(3)
C48 C 0.9035(4) 0.9659(4) -0.0202(3)
H29 H 0.9007 0.9276 -0.0451
C49 C 0.9166(5) 1.0292(4) -0.0385(4)
H30 H 0.9235 1.0346 -0.0758
C50 C 0.9194(5) 1.0820(4) -0.0029(4)
C51 C 0.9121(6) 1.0773(4) 0.0517(4)
H31 H 0.9160 1.1161 0.0763
C52 C 0.8990(5) 1.0150(4) 0.0700(4)
H32 H 0.8928 1.0103 0.1075
F3 F 0.6278(5) 0.0000(3) 0.3668(4)
F4 F 0.9322(4) 1.1434(3) -0.0218(3)
N17 N 0.7713(3) 0.2905(3) 0.4098(2)
N18 N 0.6756(3) 0.3389(3) 0.3569(2)
N19 N 0.5294(4) 0.4114(4) 0.2602(3)
N20 N 0.4825(4) 0.4351(4) 0.2277(3)
N21 N 0.4630(4) 0.4093(5) 0.3323(3)
N22 N 0.4164(4) 0.4330(5) 0.2995(3)
N23 N 0.2848(3) 0.5300(3) 0.2051(3)
N24 N 0.1884(3) 0.5750(3) 0.1499(3)
C53 C 0.8295(3) 0.2691(3) 0.4404(3)
C54 C 0.8243(4) 0.2054(4) 0.4531(5)
H33 H 0.7832 0.1741 0.4416
C55 C 0.8804(5) 0.1862(5) 0.4837(6)
H34 H 0.8779 0.1418 0.4932
C56 C 0.9381(4) 0.2324(4) 0.4993(4)
C57 C 0.9446(4) 0.2956(4) 0.4877(4)
H35 H 0.9856 0.3268 0.4998
C58 C 0.8890(4) 0.3141(4) 0.4573(4)
H36 H 0.8923 0.3586 0.4480
C59 C 0.7185(4) 0.2867(4) 0.4338(3)
H37 H 0.7159 0.2674 0.4679
C60 C 0.6626(3) 0.3138(4) 0.4055(3)
C61 C 0.6026(4) 0.3146(6) 0.4248(4)
H38 H 0.5948 0.2962 0.4586
C62 C 0.5536(4) 0.3424(6) 0.3948(4)
H39 H 0.5118 0.3434 0.4077
C63 C 0.5664(4) 0.3686(5) 0.3462(3)
C64 C 0.6281(3) 0.3654(4) 0.3283(3)
H40 H 0.6364 0.3829 0.2943
C65 C 0.5166(4) 0.3976(5) 0.3106(3)
C66 C 0.4279(4) 0.4446(5) 0.2485(3)
C67 C 0.3325(4) 0.5049(4) 0.2356(3)
H41 H 0.3373 0.5116 0.2749
C68 C 0.3753(4) 0.4696(4) 0.2121(3)
C69 C 0.3687(5) 0.4599(6) 0.1554(4)
H42 H 0.3986 0.4375 0.1385
C70 C 0.3176(6) 0.4833(6) 0.1227(4)
H43 H 0.3111 0.4760 0.0833
C71 C 0.2768(5) 0.5172(5) 0.1493(3)
C72 C 0.2215(5) 0.5450(5) 0.1201(4)
H44 H 0.2111 0.5405 0.0806
C73 C 0.1366(4) 0.6075(4) 0.1218(4)
C74 C 0.0707(4) 0.5854(6) 0.1235(5)
H45 H 0.0566 0.5474 0.1421
C75 C 0.0224(5) 0.6199(6) 0.0969(5)
H46 H -0.0248 0.6047 0.0959
C76 C 0.0464(6) 0.6746(6) 0.0735(6)
C77 C 0.1114(6) 0.6977(6) 0.0696(6)
H47 H 0.1247 0.7357 0.0507
C78 C 0.1585(5) 0.6632(5) 0.0948(5)
H48 H 0.2054 0.6775 0.0935
F5 F 0.9917(3) 0.2142(3) 0.5313(3)
F6 F -0.0011(4) 0.7073(5) 0.0478(4)
N25 N 0.8412(3) 0.9064(3) 0.6238(2)
N26 N 0.8049(3) 0.8937(3) 0.5169(2)
N27 N 0.7542(4) 0.9155(4) 0.3497(3)
N28 N 0.7399(4) 0.9260(4) 0.2967(3)
N29 N 0.8408(5) 0.8618(5) 0.3280(3)
N30 N 0.8259(5) 0.8716(5) 0.2754(3)
N31 N 0.7691(4) 0.8906(3) 0.1081(3)
N32 N 0.7414(4) 0.9023(4) 0.0027(3)
C79 C 0.8699(7) 0.9233(7) 0.6837(4)
C80 C 0.8296(7) 0.9057(9) 0.7228(4)
H49 H 0.7841 0.8830 0.7117
C81 C 0.8560(7) 0.9213(9) 0.7796(5)
H50 H 0.8283 0.9103 0.8072
C82 C 0.9219(7) 0.9526(8) 0.7944(4)
C83 C 0.9616(7) 0.9725(9) 0.7563(5)
H51 H 1.0068 0.9961 0.7677
C84 C 0.9354(7) 0.9581(8) 0.7004(5)
H52 H 0.9627 0.9721 0.6733
C85 C 0.8853(4) 0.8903(4) 0.5951(3)
H53 H 0.9278 0.8833 0.6128
C86 C 0.8681(4) 0.8832(4) 0.5355(3)
C87 C 0.9114(5) 0.8685(5) 0.4997(3)
H54 H 0.9547 0.8600 0.5137
C88 C 0.8903(5) 0.8664(5) 0.4431(3)
H55 H 0.9181 0.8542 0.4175
C89 C 0.8282(4) 0.8821(4) 0.4239(3)
C90 C 0.7862(4) 0.8937(4) 0.4624(3)
H56 H 0.7426 0.9020 0.4492
C91 C 0.8067(5) 0.8868(5) 0.3645(3)
C92 C 0.7782(5) 0.9061(5) 0.2621(3)
C93 C 0.7811(5) 0.8817(4) 0.1615(3)
H57 H 0.8017 0.8454 0.1715
C94 C 0.7654(5) 0.9218(4) 0.2036(3)
C95 C 0.7351(6) 0.9752(5) 0.1893(4)
H58 H 0.7224 1.0032 0.2169
C96 C 0.7242(7) 0.9862(5) 0.1336(4)
H59 H 0.7058 1.0234 0.1224
C97 C 0.7401(5) 0.9428(4) 0.0948(3)
C98 C 0.7250(5) 0.9466(5) 0.0345(3)
H60 H 0.7039 0.9806 0.0197
C99 C 0.7271(5) 0.9051(4) -0.0564(3)
C100 C 0.6895(5) 0.8511(5) -0.0898(3)
H61 H 0.6742 0.8113 -0.0738
C101 C 0.6734(6) 0.8537(6) -0.1468(4)
H62 H 0.6464 0.8168 -0.1701
C102 C 0.6978(7) 0.9112(6) -0.1678(4)
C103 C 0.7342(6) 0.9664(6) -0.1369(4)
H63 H 0.7492 1.0057 -0.1537
C104 C 0.7491(5) 0.9638(5) -0.0797(4)
H64 H 0.7741 1.0019 -0.0566
F7 F 0.9482(6) 0.9625(7) 0.8502(3)
F8 F 0.6836(5) 0.9144(5) -0.2236(3)
N33 N 0.7634(3) 1.0009(3) 0.5686(3)
N34 N 0.6676(3) 0.9042(3) 0.5254(2)
N35 N 0.5095(4) 0.7427(3) 0.4706(3)
N36 N 0.4611(4) 0.6905(4) 0.4502(3)
N37 N 0.4797(4) 0.7996(4) 0.3929(3)
N38 N 0.4319(4) 0.7476(4) 0.3722(3)
N39 N 0.2756(3) 0.5989(3) 0.3065(3)
N40 N 0.1703(3) 0.5176(3) 0.2590(3)
C105 C 0.8211(5) 1.0551(5) 0.5913(5)
C106 C 0.8874(5) 1.0482(5) 0.5905(6)
H65 H 0.8962 1.0095 0.5717
C107 C 0.9419(6) 1.0973(6) 0.6170(7)
H66 H 0.9872 1.0930 0.6150
C108 C 0.9287(6) 1.1515(7) 0.6458(9)
C109 C 0.8639(6) 1.1617(6) 0.6428(7)
H67 H 0.8554 1.2032 0.6564
C110 C 0.8110(6) 1.1109(5) 0.6199(6)
H68 H 0.7662 1.1149 0.6242
C111 C 0.7135(4) 1.0182(4) 0.5382(3)
H69 H 0.7136 1.0633 0.5320
C112 C 0.6566(4) 0.9651(3) 0.5137(3)
C113 C 0.5985(4) 0.9746(4) 0.4815(4)
H70 H 0.5917 1.0183 0.4756
C114 C 0.5503(5) 0.9200(4) 0.4581(4)
H71 H 0.5098 0.9252 0.4355
C115 C 0.5623(4) 0.8572(4) 0.4682(3)
C116 C 0.6207(4) 0.8522(4) 0.5029(3)
H72 H 0.6275 0.8092 0.5111
C117 C 0.5141(4) 0.7968(4) 0.4438(3)
C118 C 0.4220(4) 0.6961(4) 0.4034(3)
C119 C 0.3307(4) 0.6439(4) 0.3287(3)
H73 H 0.3486 0.6772 0.3066
C120 C 0.3627(4) 0.6437(4) 0.3829(3)
C121 C 0.3367(5) 0.5947(5) 0.4153(4)
H74 H 0.3580 0.5930 0.4523
C122 C 0.2793(5) 0.5486(5) 0.3924(4)
H75 H 0.2607 0.5149 0.4138
C123 C 0.2491(4) 0.5515(4) 0.3383(3)
C124 C 0.1887(4) 0.5070(4) 0.3088(4)
H76 H 0.1645 0.4720 0.3260
C125 C 0.1104(4) 0.4749(5) 0.2282(4)
C126 C 0.0487(4) 0.4761(6) 0.2435(5)
H77 H 0.0448 0.5041 0.2750
C127 C -0.0094(6) 0.4350(7) 0.2117(6)
H78 H -0.0532 0.4353 0.2209
C128 C -0.0009(6) 0.3952(7) 0.1677(6)
C129 C 0.0594(6) 0.3939(6) 0.1493(6)
H79 H 0.0623 0.3673 0.1167
C130 C 0.1163(6) 0.4340(6) 0.1813(5)
H80 H 0.1598 0.4338 0.1714
F9 F 0.9829(6) 1.1993(6) 0.6720(8)
F10 F -0.0574(5) 0.3557(5) 0.1359(5)
N41 N 0.7969(3) 0.7774(3) -0.0219(3)
N42 N 0.7016(3) 0.7721(3) 0.0372(3)
N43 N 0.5366(5) 0.7817(4) 0.1167(5)
N44 N 0.4832(4) 0.7850(4) 0.1430(5)
N45 N 0.5065(5) 0.6648(4) 0.1058(5)
N46 N 0.4542(5) 0.6679(4) 0.1327(5)
N47 N 0.2877(3) 0.6697(3) 0.2084(3)
N48 N 0.1783(3) 0.6601(3) 0.2501(3)
C131 C 0.8484(6) 0.7823(8) -0.0577(5)
C132 C 0.8334(7) 0.7921(10) -0.1125(5)
H81 H 0.7894 0.7977 -0.1278
C133 C 0.8845(7) 0.7937(10) -0.1457(6)
H82 H 0.8768 0.8022 -0.1836
C134 C 0.9452(6) 0.7828(8) -0.1219(5)
C135 C 0.9613(7) 0.7749(8) -0.0678(5)
H83 H 1.0056 0.7702 -0.0525
C136 C 0.9109(5) 0.7739(7) -0.0353(5)
H84 H 0.9200 0.7674 0.0030
C137 C 0.7527(4) 0.7237(5) -0.0320(4)
H85 H 0.7562 0.6891 -0.0586
C138 C 0.6963(4) 0.7183(4) -0.0006(4)
C139 C 0.6445(5) 0.6646(5) -0.0067(4)
H86 H 0.6430 0.6279 -0.0329
C140 C 0.5941(5) 0.6646(5) 0.0261(4)
H87 H 0.5581 0.6273 0.0237
C141 C 0.5972(4) 0.7200(4) 0.0624(4)
C142 C 0.6521(4) 0.7720(4) 0.0670(4)
H88 H 0.6544 0.8094 0.0927
C143 C 0.5434(5) 0.7223(4) 0.0962(5)
C144 C 0.4422(4) 0.7280(4) 0.1473(5)
C145 C 0.3460(4) 0.6727(4) 0.1885(4)
H89 H 0.3657 0.6342 0.1878
C146 C 0.3791(4) 0.7298(4) 0.1689(4)
C147 C 0.3506(5) 0.7857(4) 0.1687(4)
H90 H 0.3721 0.8250 0.1551
C148 C 0.2896(5) 0.7835(4) 0.1889(4)
H91 H 0.2684 0.8211 0.1889
C149 C 0.2605(4) 0.7252(4) 0.2089(4)
C150 C 0.2001(4) 0.7173(4) 0.2351(4)
H92 H 0.1778 0.7534 0.2408
C151 C 0.1247(4) 0.6545(4) 0.2834(3)
C152 C 0.0594(4) 0.6482(8) 0.2599(4)
H93 H 0.0477 0.6468 0.2207
C153 C 0.0086(5) 0.6436(8) 0.2939(4)
H94 H -0.0379 0.6377 0.2782
C154 C 0.0278(5) 0.6476(6) 0.3488(4)
C155 C 0.0928(5) 0.6538(6) 0.3735(5)
H95 H 0.1040 0.6564 0.4128
C156 C 0.1418(5) 0.6560(6) 0.3404(4)
H96 H 0.1876 0.6585 0.3566
F11 F 0.9944(4) 0.7806(5) -0.1551(4)
F12 F -0.0228(4) 0.6451(4) 0.3811(3)
B1 B 0.6659(11) 0.7246(11) 0.3916(9)
F13 F 0.6939(10) 0.7552(9) 0.3466(7)
F14 F 0.6878(8) 0.7579(8) 0.4385(6)
F15 F 0.5972(8) 0.7104(9) 0.3774(7)
F16 F 0.6888(9) 0.6626(8) 0.3980(7)
B2 B 0.1345(13) 0.8638(13) 0.1759(11)
F17 F 0.1729(8) 0.8603(9) 0.1341(7)
F18 F 0.1035(7) 0.8095(7) 0.1996(7)
F19 F 0.0823(8) 0.8928(8) 0.1536(7)
F20 F 0.1821(9) 0.8977(9) 0.2198(7)
B3 B 0.0895(7) 0.4504(9) 0.4167(7)
F21 F 0.1494(3) 0.4263(4) 0.4140(3)
F22 F 0.0571(3) 0.4519(5) 0.3622(3)
F23 F 0.1070(4) 0.5138(4) 0.4393(4)
F24 F 0.0482(4) 0.4151(4) 0.4471(3)
B4 B 0.4717(11) 0.2262(11) 0.2736(7)
F25 F 0.4323(7) 0.2671(7) 0.2673(5)
F26 F 0.5378(5) 0.2540(5) 0.2557(4)
F27 F 0.4505(11) 0.1637(10) 0.2495(12)
F28 F 0.4877(8) 0.2244(12) 0.3302(6)
B5 B 0.9207(6) 0.0426(6) 0.3943(5)
F29 F 0.8867(6) 0.0214(6) 0.3419(5)
F30 F 0.9692(5) 0.0076(6) 0.4066(6)
F31 F 0.9511(5) 0.1120(4) 0.4002(4)
F32 F 0.8714(6) 0.0354(4) 0.4308(4)
B6 B 0.1779(14) 0.4180(13) 0.0179(11)
F33 F 0.2233(8) 0.4636(8) 0.0001(6)
F34 F 0.1867(6) 0.3928(6) 0.0708(5)
F35 F 0.1235(8) 0.4486(8) 0.0189(6)
F36 F 0.1558(7) 0.3603(7) -0.0208(6)
B7 B 0.3708(7) 0.8404(7) 0.4894(6)
F37 F 0.3725(5) 0.8715(5) 0.4375(5)
F38 F 0.3703(6) 0.7783(5) 0.4790(5)
F39 F 0.4370(6) 0.8625(8) 0.5337(6)
F40 F 0.3278(4) 0.8612(4) 0.5231(4)
N49 N 0.3874(9) 0.3067(8) 0.1313(7)
C157 C 0.4467(11) 0.3042(9) 0.1315(8)
C158 C 0.5146(11) 0.3074(11) 0.1316(9)
H97 H 0.5218 0.2881 0.0956
H98 H 0.5324 0.2824 0.1613
H99 H 0.5382 0.3539 0.1380
S1 S 0.3086(7) 0.8359(7) -0.0673(6)
S2 S 0.4273(7) 0.8007(7) -0.0088(6)
O1 O 0.3268(17) 0.9024(10) -0.0421(14)
O2 O 0.2777(16) 0.8209(18) -0.1244(8)
O3 O 0.4125(16) 0.8330(15) 0.0399(10)
O4 O 0.4508(15) 0.7389(11) -0.0100(14)
N50 N 0.3701(12) 0.7950(15) -0.0642(10)
F41 F 0.1895(14) 0.8221(16) -0.0422(14)
F42 F 0.2169(16) 0.7321(13) -0.0606(13)
F43 F 0.2589(15) 0.7915(16) 0.0213(10)
F44 F 0.5128(15) 0.8338(15) -0.0761(11)
F45 F 0.4785(15) 0.9161(13) -0.0380(13)
F46 F 0.5550(14) 0.8706(17) 0.0074(14)
C159 C 0.2413(12) 0.7918(13) -0.0333(11)
C160 C 0.4986(10) 0.8588(12) -0.0279(11)
B8 B 0.360(2) 0.687(2) 0.0149(19)
F47 F 0.381(3) 0.7531(19) 0.0355(19)
F48 F 0.327(3) 0.686(3) -0.0398(17)
F49 F 0.423(2) 0.672(3) 0.016(2)
F50 F 0.3164(18) 0.6448(17) 0.0414(15)
B9 B 0.354(2) 0.874(2) -0.1213(18)
F51 F 0.387(2) 0.824(2) -0.1095(18)
F52 F 0.365(2) 0.911(2) -0.0683(17)
F53 F 0.284(2) 0.851(3) -0.131(2)
F54 F 0.373(2) 0.904(2) -0.1674(17)
N51 N 0.520(4) 0.921(3) 0.057(3)
C161 C 0.539(2) 0.888(2) 0.025(2)
C162 C 0.562(3) 0.847(3) -0.016(2)
H100 H 0.5683 0.8722 -0.0534
H101 H 0.5260 0.7995 -0.0275
H102 H 0.6114 0.8355 0.0016
B10 B 0.368(3) 0.726(3) -0.005(2)
F55 F 0.431(2) 0.734(3) 0.027(2)
F56 F 0.368(3) 0.667(2) -0.037(2)
F57 F 0.325(3) 0.726(3) 0.0354(19)
F58 F 0.361(3) 0.773(3) -0.042(2)
C163 C 0.425(2) 0.464(2) -0.1534(17)
H103 H 0.3826 0.4495 -0.1406
H104 H 0.4403 0.4264 -0.1685
H105 H 0.4189 0.4939 -0.1816
C164 C 0.4731(19) 0.5040(19) -0.1039(15)
N52 N 0.5082(10) 0.5351(9) -0.0681(8)
N53 N 0.5648(12) 0.9586(9) 0.2028(12)
C165 C 0.5654(10) 0.9261(8) 0.2400(11)
C166 C 0.5661(9) 0.8853(7) 0.2865(9)
H106 H 0.5864 0.8407 0.2766
H107 H 0.5146 0.8698 0.2958
H108 H 0.5980 0.9135 0.3237
C167? C 0.8468(11) 0.9142(10) 0.6780(6)
C168? C 0.8800(10) 0.9761(8) 0.7038(7)
H109? H 0.8916 1.0120 0.6821
C169? C 0.8963(10) 0.9855(8) 0.7614(7)
H110? H 0.9190 1.0278 0.7791
C170? C 0.8794(12) 0.9330(10) 0.7932(6)
C171? C 0.8461(12) 0.8711(9) 0.7673(8)
H111? H 0.8345 0.8352 0.7890
C172? C 0.8298(11) 0.8617(8) 0.7097(9)
H112? H 0.8071 0.8194 0.6921
F59? F 0.8915(12) 0.9427(10) 0.8472(9)
C173? C 0.8188(9) 1.0448(11) 0.5936(10)
C174? C 0.8694(11) 1.0500(10) 0.5604(9)
H113? H 0.8648 1.0192 0.5286
C175? C 0.9266(10) 1.1001(11) 0.5737(10)
H114? H 0.9612 1.1036 0.5510
C176? C 0.9333(11) 1.1451(10) 0.6202(10)
C177? C 0.8828(14) 1.1400(12) 0.6533(8)
H115? H 0.8873 1.1707 0.6851
C178? C 0.8255(12) 1.0898(14) 0.6400(10)
H116? H 0.7910 1.0863 0.6627
F60? F 0.9872(10) 1.1912(11) 0.6345(9)
C179? C 0.8640(16) 0.7781(19) -0.0430(14)
C180? C 0.9028(14) 0.7328(16) -0.0271(12)
H117? H 0.8909 0.7038 0.0002
C181? C 0.9604(15) 0.7302(17) -0.0518(14)
H118? H 0.9879 0.6985 -0.0428
C182? C 0.9754(16) 0.7748(18) -0.0892(16)
C183? C 0.9355(15) 0.8167(17) -0.1086(15)
H119? H 0.9473 0.8458 -0.1358
C184? C 0.8762(15) 0.8149(16) -0.0862(14)
H120? H 0.8438 0.8396 -0.1012
F61? F 1.0347(14) 0.7735(16) -0.1113(14)
B11? B 0.658(3) 0.716(3) 0.361(2)
F62? F 0.727(3) 0.736(4) 0.385(3)
F63? F 0.627(3) 0.771(3) 0.352(3)
F64? F 0.629(2) 0.677(2) 0.4000(17)
F65? F 0.651(4) 0.676(4) 0.311(2)
B12? B 0.1305(13) 0.8653(13) 0.1758(11)
F66? F 0.1113(7) 0.7976(7) 0.1606(7)
F67? F 0.1507(10) 0.8703(10) 0.2329(7)
F68? F 0.0823(9) 0.9044(8) 0.1648(7)
F69? F 0.1873(8) 0.8923(9) 0.1552(8)
F70? F 0.457(2) 0.187(2) 0.2232(14)
F71? F 0.4829(16) 0.186(2) 0.3139(15)
F72? F 0.8674(12) 0.0345(14) 0.3484(10)
F73? F 0.9074(14) 0.0299(11) 0.4451(8)
F74? F 0.9512(13) -0.0117(11) 0.3745(12)
F75? F 0.9647(11) 0.0958(10) 0.3861(10)
F76? F 0.3911(9) 0.8917(8) 0.4597(8)
F77? F 0.3412(11) 0.7689(8) 0.4575(9)
F78? F 0.4260(11) 0.8280(15) 0.5104(12)
F79? F 0.3058(9) 0.8401(10) 0.4956(10)
N54? N 0.9188(11) 0.9488(11) 0.1894(9)
C185? C 0.9421(15) 0.9243(15) 0.2250(13)
C186? C 0.9754(15) 0.8848(15) 0.2702(12)
H121? H 0.9438 0.8438 0.2738
H122? H 0.9865 0.9121 0.3060
H123? H 1.0169 0.8738 0.2593
C187? C 0.4575(18) 0.526(2) -0.0528(17)
C188? C 0.3903(17) 0.513(2) -0.0306(17)
H124? H 0.3706 0.4670 -0.0419
H125? H 0.3624 0.5406 -0.0488
H126? H 0.3935 0.5211 0.0089
N55? N 0.304(3) 0.627(3) 0.055(2)
C189? C 0.3756(19) 0.5608(19) 0.0003(16)
H127? H 0.3973 0.5821 -0.0291
H128? H 0.4103 0.5504 0.0287
H129? H 0.3443 0.5197 -0.0156
C190? C 0.338(2) 0.607(2) 0.0260(18)
N56? N 0.5769(8) 0.8392(7) 0.2943(8)
C191? C 0.5508(7) 0.7844(7) 0.2799(7)
C192? C 0.5183(6) 0.7158(7) 0.2618(6)
H130? H 0.5130 0.7067 0.2164
H131? H 0.4677 0.7051 0.2739
H132? H 0.5485 0.6817 0.2809
N57? N 0.6834(8) 0.5143(6) 0.3147(7)
C193? C 0.6485(8) 0.5240(6) 0.3468(6)
C194? C 0.6048(8) 0.5360(7) 0.3871(7)
H133? H 0.5944 0.4928 0.4109
H134? H 0.5565 0.5452 0.3658
H135? H 0.6292 0.5796 0.4162
N58? N 0.4696(6) 0.6179(8) 0.2745(7)
C195? C 0.5105(6) 0.5879(7) 0.2904(7)
C196? C 0.5618(7) 0.5505(6) 0.3102(6)
H136? H 0.6111 0.5736 0.3001
H137? H 0.5482 0.4992 0.2906
H138? H 0.5662 0.5492 0.3555
N59? N 0.5658(8) 0.5595(8) 0.4090(7)
C197? C 0.5261(7) 0.5697(8) 0.3730(7)
C198? C 0.4765(6) 0.5824(8) 0.3280(8)
H139? H 0.4994 0.6224 0.3049
H140? H 0.4335 0.5973 0.3446
H141? H 0.4576 0.5374 0.2991
N60? N 0.8516(5) 0.7114(9) 0.3527(7)
C199? C 0.8230(6) 0.6581(8) 0.3353(7)
C200? C 0.7872(7) 0.5916(8) 0.3135(7)
H142? H 0.7664 0.5908 0.2694
H143? H 0.7454 0.5753 0.3364
H144? H 0.8218 0.5563 0.3176
B13? B 0.675(2) 0.711(2) 0.2284(17)
F80? F 0.680(3) 0.647(2) 0.241(3)
F81? F 0.6066(18) 0.704(2) 0.2155(16)
F82? F 0.7005(18) 0.7357(18) 0.1835(14)
F83? F 0.6989(18) 0.7604(18) 0.2725(14)
N61? N 0.6952(7) 0.6736(8) 0.2238(5)
C201? C 0.6775(7) 0.7240(8) 0.2200(5)
C202? C 0.6553(8) 0.7870(8) 0.2152(6)
H145? H 0.6961 0.8283 0.2343
H146? H 0.6112 0.7877 0.2363
H147? H 0.6411 0.7945 0.1713
loop_
_geom_bond_atom_site_label_1
_geom_bond_atom_site_label_2
_geom_bond_site_symmetry_1
_geom_bond_site_symmetry_2
Fe1 N1 1_555 1_555
Fe2 N7 1_555 1_555
Fe3 N15 1_555 1_555
Fe4 N23 1_555 1_555
N1 C1 1_555 1_555
N2 Fe1 1_555 1_555
N3 N4 1_555 1_555
N4 C14 1_555 1_555
N5 N6 1_555 1_555
N6 C14 1_555 1_555
N7 C15 1_555 1_555
N8 Fe2 1_555 1_555
C1 C2 1_555 1_555
C2 H1 1_555 1_555
C3 C2 1_555 1_555
H2 C3 1_555 1_555
C4 C3 1_555 1_555
C5 C4 1_555 1_555
H3 C5 1_555 1_555
C6 C1 1_555 1_555
H4 C6 1_555 1_555
C7 N1 1_555 1_555
H5 C7 1_555 1_555
C8 N2 1_555 1_555
C9 C8 1_555 1_555
H6 C9 1_555 1_555
C10 C9 1_555 1_555
H7 C10 1_555 1_555
C11 C10 1_555 1_555
C12 N2 1_555 1_555
H8 C12 1_555 1_555
C13 N3 1_555 1_555
C14 C16 1_555 1_555
C15 H9 1_555 1_555
C16 C15 1_555 1_555
C17 C16 1_555 1_555
H10 C17 1_555 1_555
C18 C17 1_555 1_555
H11 C18 1_555 1_555
C19 N7 1_555 1_555
C20 N8 1_555 1_555
H12 C20 1_555 1_555
C21 N8 1_555 1_555
C22 C21 1_555 1_555
H13 C22 1_555 1_555
C23 C22 1_555 1_555
H14 C23 1_555 1_555
C24 C23 1_555 1_555
C25 C24 1_555 1_555
H15 C25 1_555 1_555
C26 C21 1_555 1_555
H16 C26 1_555 1_555
F1 C4 1_555 1_555
F2 C24 1_555 1_555
N9 Fe1 1_555 1_555
N10 Fe1 1_555 1_555
N11 N12 1_555 1_555
N12 C40 1_555 1_555
N13 N14 1_555 1_555
N14 C40 1_555 1_555
N15 C41 1_555 1_555
N16 Fe3 1_555 1_555
C27 N9 1_555 1_555
C28 C27 1_555 1_555
H17 C28 1_555 1_555
C29 C28 1_555 1_555
H18 C29 1_555 1_555
C30 C29 1_555 1_555
C31 C30 1_555 1_555
H19 C31 1_555 1_555
C32 C27 1_555 1_555
H20 C32 1_555 1_555
C33 N9 1_555 1_555
H21 C33 1_555 1_555
C34 N10 1_555 1_555
C35 C34 1_555 1_555
H22 C35 1_555 1_555
C36 C35 1_555 1_555
H23 C36 1_555 1_555
C37 C36 1_555 1_555
C38 N10 1_555 1_555
H24 C38 1_555 1_555
C39 N11 1_555 1_555
C40 C42 1_555 1_555
C41 H25 1_555 1_555
C42 C41 1_555 1_555
C43 C42 1_555 1_555
H26 C43 1_555 1_555
C44 C43 1_555 1_555
H27 C44 1_555 1_555
C45 N15 1_555 1_555
C46 N16 1_555 1_555
H28 C46 1_555 1_555
C47 N16 1_555 1_555
C48 C47 1_555 1_555
H29 C48 1_555 1_555
C49 C48 1_555 1_555
H30 C49 1_555 1_555
C50 C49 1_555 1_555
C51 C50 1_555 1_555
H31 C51 1_555 1_555
C52 C47 1_555 1_555
H32 C52 1_555 1_555
F3 C30 1_555 1_555
F4 C50 1_555 1_555
N17 Fe1 1_555 1_555
N18 Fe1 1_555 1_555
N19 N20 1_555 1_555
N20 C66 1_555 1_555
N21 N22 1_555 1_555
N22 C66 1_555 1_555
N23 C67 1_555 1_555
N24 Fe4 1_555 1_555
C53 N17 1_555 1_555
C54 C53 1_555 1_555
H33 C54 1_555 1_555
C55 C54 1_555 1_555
H34 C55 1_555 1_555
C56 C55 1_555 1_555
C57 C56 1_555 1_555
H35 C57 1_555 1_555
C58 C53 1_555 1_555
H36 C58 1_555 1_555
C59 N17 1_555 1_555
H37 C59 1_555 1_555
C60 N18 1_555 1_555
C61 C60 1_555 1_555
H38 C61 1_555 1_555
C62 C61 1_555 1_555
H39 C62 1_555 1_555
C63 C62 1_555 1_555
C64 N18 1_555 1_555
H40 C64 1_555 1_555
C65 N19 1_555 1_555
C66 C68 1_555 1_555
C67 H41 1_555 1_555
C68 C67 1_555 1_555
C69 C68 1_555 1_555
H42 C69 1_555 1_555
C70 C69 1_555 1_555
H43 C70 1_555 1_555
C71 N23 1_555 1_555
C72 N24 1_555 1_555
H44 C72 1_555 1_555
C73 N24 1_555 1_555
C74 C73 1_555 1_555
H45 C74 1_555 1_555
C75 C74 1_555 1_555
H46 C75 1_555 1_555
C76 C75 1_555 1_555
C77 C76 1_555 1_555
H47 C77 1_555 1_555
C78 C73 1_555 1_555
H48 C78 1_555 1_555
F5 C56 1_555 1_555
F6 C76 1_555 1_555
N25 Fe2 1_555 1_555
N26 Fe2 1_555 1_555
N27 N28 1_555 1_555
N28 C92 1_555 1_555
N29 N30 1_555 1_555
N30 C92 1_555 1_555
N31 Fe3 1_555 1_555
N32 Fe3 1_555 1_555
C79 N25 1_555 1_555
C80 C79 1_555 1_555
H49 C80 1_555 1_555
C81 C80 1_555 1_555
H50 C81 1_555 1_555
C82 C81 1_555 1_555
C83 C82 1_555 1_555
H51 C83 1_555 1_555
C84 C79 1_555 1_555
H52 C84 1_555 1_555
C85 N25 1_555 1_555
H53 C85 1_555 1_555
C86 N26 1_555 1_555
C87 C86 1_555 1_555
H54 C87 1_555 1_555
C88 C87 1_555 1_555
H55 C88 1_555 1_555
C89 C88 1_555 1_555
C90 N26 1_555 1_555
H56 C90 1_555 1_555
C91 N27 1_555 1_555
C92 C94 1_555 1_555
C93 N31 1_555 1_555
H57 C93 1_555 1_555
C94 C93 1_555 1_555
C95 C94 1_555 1_555
H58 C95 1_555 1_555
C96 C95 1_555 1_555
H59 C96 1_555 1_555
C97 N31 1_555 1_555
C98 N32 1_555 1_555
H60 C98 1_555 1_555
C99 N32 1_555 1_555
C100 C99 1_555 1_555
H61 C100 1_555 1_555
C101 C100 1_555 1_555
H62 C101 1_555 1_555
C102 C101 1_555 1_555
C103 C102 1_555 1_555
H63 C103 1_555 1_555
C104 C99 1_555 1_555
H64 C104 1_555 1_555
F7 C82 1_555 1_555
F8 C102 1_555 1_555
N33 Fe2 1_555 1_555
N34 Fe2 1_555 1_555
N35 N36 1_555 1_555
N36 C118 1_555 1_555
N37 N38 1_555 1_555
N38 C118 1_555 1_555
N39 Fe4 1_555 1_555
N40 Fe4 1_555 1_555
C105 N33 1_555 1_555
C106 C105 1_555 1_555
H65 C106 1_555 1_555
C107 C106 1_555 1_555
H66 C107 1_555 1_555
C108 C107 1_555 1_555
C109 C108 1_555 1_555
H67 C109 1_555 1_555
C110 C105 1_555 1_555
H68 C110 1_555 1_555
C111 N33 1_555 1_555
H69 C111 1_555 1_555
C112 N34 1_555 1_555
C113 C112 1_555 1_555
H70 C113 1_555 1_555
C114 C113 1_555 1_555
H71 C114 1_555 1_555
C115 C114 1_555 1_555
C116 N34 1_555 1_555
H72 C116 1_555 1_555
C117 N35 1_555 1_555
C118 C120 1_555 1_555
C119 N39 1_555 1_555
H73 C119 1_555 1_555
C120 C119 1_555 1_555
C121 C120 1_555 1_555
H74 C121 1_555 1_555
C122 C121 1_555 1_555
H75 C122 1_555 1_555
C123 N39 1_555 1_555
C124 N40 1_555 1_555
H76 C124 1_555 1_555
C125 N40 1_555 1_555
C126 C125 1_555 1_555
H77 C126 1_555 1_555
C127 C126 1_555 1_555
H78 C127 1_555 1_555
C128 C127 1_555 1_555
C129 C128 1_555 1_555
H79 C129 1_555 1_555
C130 C125 1_555 1_555
H80 C130 1_555 1_555
F9 C108 1_555 1_555
F10 C128 1_555 1_555
N41 Fe3 1_555 1_555
N42 Fe3 1_555 1_555
N43 N44 1_555 1_555
N44 C144 1_555 1_555
N45 N46 1_555 1_555
N46 C144 1_555 1_555
N47 Fe4 1_555 1_555
N48 Fe4 1_555 1_555
C131 N41 1_555 1_555
C132 C131 1_555 1_555
H81 C132 1_555 1_555
C133 C132 1_555 1_555
H82 C133 1_555 1_555
C134 C133 1_555 1_555
C135 C134 1_555 1_555
H83 C135 1_555 1_555
C136 C131 1_555 1_555
H84 C136 1_555 1_555
C137 N41 1_555 1_555
H85 C137 1_555 1_555
C138 N42 1_555 1_555
C139 C138 1_555 1_555
H86 C139 1_555 1_555
C140 C139 1_555 1_555
H87 C140 1_555 1_555
C141 C140 1_555 1_555
C142 N42 1_555 1_555
H88 C142 1_555 1_555
C143 N43 1_555 1_555
C144 C146 1_555 1_555
C145 N47 1_555 1_555
H89 C145 1_555 1_555
C146 C145 1_555 1_555
C147 C146 1_555 1_555
H90 C147 1_555 1_555
C148 C147 1_555 1_555
H91 C148 1_555 1_555
C149 N47 1_555 1_555
C150 N48 1_555 1_555
H92 C150 1_555 1_555
C151 N48 1_555 1_555
C152 C151 1_555 1_555
H93 C152 1_555 1_555
C153 C152 1_555 1_555
H94 C153 1_555 1_555
C154 C153 1_555 1_555
C155 C154 1_555 1_555
H95 C155 1_555 1_555
C156 C151 1_555 1_555
H96 C156 1_555 1_555
F11 C134 1_555 1_555
F12 C154 1_555 1_555
B1 F13 1_555 1_555
F14 B1 1_555 1_555
F15 B1 1_555 1_555
F16 B1 1_555 1_555
B2 F17 1_555 1_555
F18 B2 1_555 1_555
F19 B2 1_555 1_555
F20 B2 1_555 1_555
B3 F21 1_555 1_555
F22 B3 1_555 1_555
F23 B3 1_555 1_555
F24 B3 1_555 1_555
B4 F25 1_555 1_555
F26 B4 1_555 1_555
F27 B4 1_555 1_555
F28 B4 1_555 1_555
B5 F29 1_555 1_555
F30 B5 1_555 1_555
F31 B5 1_555 1_555
F32 B5 1_555 1_555
B6 F33 1_555 1_555
F34 B6 1_555 1_555
F35 B6 1_555 1_555
F36 B6 1_555 1_555
B7 F37 1_555 1_555
F38 B7 1_555 1_555
F39 B7 1_555 1_555
F40 B7 1_555 1_555
N49 C157 1_555 1_555
C157 C158 1_555 1_555
C158 H97 1_555 1_555
H98 C158 1_555 1_555
H99 C158 1_555 1_555
S1 O1 1_555 1_555
S2 O3 1_555 1_555
O2 S1 1_555 1_555
O4 S2 1_555 1_555
N50 S1 1_555 1_555
F41 C159 1_555 1_555
F42 C159 1_555 1_555
F43 C159 1_555 1_555
F44 C160 1_555 1_555
F45 C160 1_555 1_555
F46 C160 1_555 1_555
C159 S1 1_555 1_555
C160 S2 1_555 1_555
B8 F47 1_555 1_555
F48 B8 1_555 1_555
F49 B8 1_555 1_555
F50 B8 1_555 1_555
B9 F51 1_555 1_555
F52 B9 1_555 1_555
F53 B9 1_555 1_555
F54 B9 1_555 1_555
N51 C161 1_555 1_555
C161 C162 1_555 1_555
C162 H100 1_555 1_555
H101 C162 1_555 1_555
H102 C162 1_555 1_555
B10 F55 1_555 1_555
F56 B10 1_555 1_555
F57 B10 1_555 1_555
F58 B10 1_555 1_555
C163 H103 1_555 1_555
H104 C163 1_555 1_555
H105 C163 1_555 1_555
C164 C163 1_555 1_555
N52 C164 1_555 1_555
N53 C165 1_555 1_555
C165 C166 1_555 1_555
C166 H106 1_555 1_555
H107 C166 1_555 1_555
H108 C166 1_555 1_555
N5 C13 1_555 1_555
C5 C6 1_555 1_555
C7 C8 1_555 1_555
C11 C12 1_555 1_555
C11 C13 1_555 1_555
C18 C19 1_555 1_555
C19 C20 1_555 1_555
C25 C26 1_555 1_555
N13 C39 1_555 1_555
C31 C32 1_555 1_555
C33 C34 1_555 1_555
C37 C38 1_555 1_555
C37 C39 1_555 1_555
C44 C45 1_555 1_555
C45 C46 1_555 1_555
C51 C52 1_555 1_555
N21 C65 1_555 1_555
C57 C58 1_555 1_555
C59 C60 1_555 1_555
C63 C64 1_555 1_555
C63 C65 1_555 1_555
C70 C71 1_555 1_555
C71 C72 1_555 1_555
C77 C78 1_555 1_555
N29 C91 1_555 1_555
C83 C84 1_555 1_555
C85 C86 1_555 1_555
C89 C90 1_555 1_555
C89 C91 1_555 1_555
C96 C97 1_555 1_555
C97 C98 1_555 1_555
C103 C104 1_555 1_555
N37 C117 1_555 1_555
C109 C110 1_555 1_555
C111 C112 1_555 1_555
C115 C116 1_555 1_555
C115 C117 1_555 1_555
C122 C123 1_555 1_555
C123 C124 1_555 1_555
C129 C130 1_555 1_555
N45 C143 1_555 1_555
C135 C136 1_555 1_555
C137 C138 1_555 1_555
C141 C142 1_555 1_555
C141 C143 1_555 1_555
C148 C149 1_555 1_555
C149 C150 1_555 1_555
C155 C156 1_555 1_555
S2 N50 1_555 1_555

#END
