# generated using pymatgen
data_Fe4B13H147C202S2N61O4F83
_symmetry_space_group_name_H-M   'P 1'
_cell_length_a   20.34530000
_cell_length_b   20.54850000
_cell_length_c   24.40330000
_cell_angle_alpha   93.76300000
_cell_angle_beta   98.15800000
_cell_angle_gamma   100.57000000
_symmetry_Int_Tables_number   1
_chemical_formula_structural   Fe4B13H147C202S2N61O4F83
_chemical_formula_sum   'Fe8 B26 H294 C404 S4 N122 O8 F166'
_cell_volume   9883.43063206
_cell_formula_units_Z   2
loop_
 _symmetry_equiv_pos_site_id
 _symmetry_equiv_pos_as_xyz
  1  'x, y, z'
loop_
 _atom_site_type_symbol
 _atom_site_label
 _atom_site_symmetry_multiplicity
 _atom_site_fract_x
 _atom_site_fract_y
 _atom_site_fract_z
 _atom_site_occupancy
  Fe  Fe1  1  0.764320  0.327170  0.336960  1
  Fe  Fe2  1  0.235680  0.672830  0.663040  1
  Fe  Fe3  1  0.751140  0.904740  0.576860  1
  Fe  Fe4  1  0.248860  0.095260  0.423140  1
  Fe  Fe5  1  0.787520  0.837250  0.043100  1
  Fe  Fe6  1  0.212480  0.162750  0.956900  1
  Fe  Fe7  1  0.228370  0.590820  0.230310  1
  Fe  Fe8  1  0.771630  0.409180  0.769690  1
  B  B9  1  0.665900  0.724600  0.391600  1
  B  B10  1  0.334100  0.275400  0.608400  1
  B  B11  1  0.134500  0.863800  0.175900  1
  B  B12  1  0.865500  0.136200  0.824100  1
  B  B13  1  0.089500  0.450400  0.416700  1
  B  B14  1  0.910500  0.549600  0.583300  1
  B  B15  1  0.471700  0.226200  0.273600  1
  B  B16  1  0.528300  0.773800  0.726400  1
  B  B17  1  0.920700  0.042600  0.394300  1
  B  B18  1  0.079300  0.957400  0.605700  1
  B  B19  1  0.177900  0.418000  0.017900  1
  B  B20  1  0.822100  0.582000  0.982100  1
  B  B21  1  0.370800  0.840400  0.489400  1
  B  B22  1  0.629200  0.159600  0.510600  1
  B  B23  1  0.360000  0.687000  0.014900  1
  B  B24  1  0.640000  0.313000  0.985100  1
  B  B25  1  0.354000  0.874000  0.878700  1
  B  B26  1  0.646000  0.126000  0.121300  1
  B  B27  1  0.368000  0.726000  0.995000  1
  B  B28  1  0.632000  0.274000  0.005000  1
  B  B29  1  0.658000  0.716000  0.361000  1
  B  B30  1  0.342000  0.284000  0.639000  1
  B  B31  1  0.130500  0.865300  0.175800  1
  B  B32  1  0.869500  0.134700  0.824200  1
  B  B33  1  0.675000  0.711000  0.228400  1
  B  B34  1  0.325000  0.289000  0.771600  1
  H  H35  1  0.838400  0.296500  0.215400  1
  H  H36  1  0.161600  0.703500  0.784600  1
  H  H37  1  0.860000  0.205900  0.161500  1
  H  H38  1  0.140000  0.794100  0.838500  1
  H  H39  1  0.939200  0.136500  0.301600  1
  H  H40  1  0.060800  0.863500  0.698400  1
  H  H41  1  0.914200  0.225600  0.354600  1
  H  H42  1  0.085800  0.774400  0.645400  1
  H  H43  1  0.944500  0.379600  0.329900  1
  H  H44  1  0.055500  0.620400  0.670100  1
  H  H45  1  0.967000  0.496900  0.387700  1
  H  H46  1  0.033000  0.503100  0.612300  1
  H  H47  1  0.924000  0.571100  0.442700  1
  H  H48  1  0.076000  0.428900  0.557300  1
  H  H49  1  0.741300  0.447600  0.408300  1
  H  H50  1  0.258700  0.552400  0.591700  1
  H  H51  1  0.779700  0.772100  0.529400  1
  H  H52  1  0.220300  0.227900  0.470600  1
  H  H53  1  0.661000  0.628200  0.595700  1
  H  H54  1  0.339000  0.371800  0.404300  1
  H  H55  1  0.628800  0.711700  0.650900  1
  H  H56  1  0.371200  0.288300  0.349100  1
  H  H57  1  0.632300  0.840100  0.671400  1
  H  H58  1  0.367700  0.159900  0.328600  1
  H  H59  1  0.756300  0.010600  0.697800  1
  H  H60  1  0.243700  0.989400  0.302200  1
  H  H61  1  0.712600  0.100200  0.732500  1
  H  H62  1  0.287400  0.899800  0.267500  1
  H  H63  1  0.526600  0.017000  0.652300  1
  H  H64  1  0.473400  0.983000  0.347700  1
  H  H65  1  0.569100  0.925800  0.618000  1
  H  H66  1  0.430900  0.074200  0.382000  1
  H  H67  1  0.600500  0.194600  0.316700  1
  H  H68  1  0.399500  0.805400  0.683300  1
  H  H69  1  0.561100  0.089100  0.346000  1
  H  H70  1  0.438900  0.910900  0.654000  1
  H  H71  1  0.747100  0.049100  0.352800  1
  H  H72  1  0.252900  0.950900  0.647200  1
  H  H73  1  0.784600  0.150900  0.318300  1
  H  H74  1  0.215400  0.849100  0.681700  1
  H  H75  1  0.667800  0.213000  0.217800  1
  H  H76  1  0.332200  0.787000  0.782200  1
  H  H77  1  0.669000  0.298300  0.142300  1
  H  H78  1  0.331000  0.701700  0.857700  1
  H  H79  1  0.703500  0.407000  0.120100  1
  H  H80  1  0.296500  0.593000  0.879900  1
  H  H81  1  0.793800  0.455300  0.278600  1
  H  H82  1  0.206200  0.544700  0.721400  1
  H  H83  1  0.769000  0.703500  0.096000  1
  H  H84  1  0.231000  0.296500  0.904000  1
  H  H85  1  0.947900  0.704700  0.191800  1
  H  H86  1  0.052100  0.295300  0.808200  1
  H  H87  1  0.991000  0.808000  0.161200  1
  H  H88  1  0.009000  0.192000  0.838800  1
  H  H89  1  0.967700  0.902100  0.097900  1
  H  H90  1  0.032300  0.097900  0.902100  1
  H  H91  1  0.900700  0.927600  0.954900  1
  H  H92  1  0.099300  0.072400  0.045100  1
  H  H93  1  0.923500  0.034600  0.924200  1
  H  H94  1  0.076500  0.965400  0.075800  1
  H  H95  1  0.916000  0.116100  0.076300  1
  H  H96  1  0.084000  0.883900  0.923700  1
  H  H97  1  0.892800  0.010300  0.107500  1
  H  H98  1  0.107200  0.989700  0.892500  1
  H  H99  1  0.783200  0.174100  0.441600  1
  H  H100  1  0.216800  0.825900  0.558400  1
  H  H101  1  0.877900  0.141800  0.493200  1
  H  H102  1  0.122100  0.858200  0.506800  1
  H  H103  1  0.985600  0.326800  0.499800  1
  H  H104  1  0.014400  0.673200  0.500200  1
  H  H105  1  0.892300  0.358600  0.448000  1
  H  H106  1  0.107700  0.641400  0.552000  1
  H  H107  1  0.715900  0.267400  0.467900  1
  H  H108  1  0.284100  0.732600  0.532100  1
  H  H109  1  0.594800  0.296200  0.458600  1
  H  H110  1  0.405200  0.703800  0.541400  1
  H  H111  1  0.511800  0.343400  0.407700  1
  H  H112  1  0.488200  0.656600  0.592300  1
  H  H113  1  0.636400  0.382900  0.294300  1
  H  H114  1  0.363600  0.617100  0.705700  1
  H  H115  1  0.337300  0.511600  0.274900  1
  H  H116  1  0.662700  0.488400  0.725100  1
  H  H117  1  0.398600  0.437500  0.138500  1
  H  H118  1  0.601400  0.562500  0.861500  1
  H  H119  1  0.311100  0.476000  0.083300  1
  H  H120  1  0.688900  0.524000  0.916700  1
  H  H121  1  0.211100  0.540500  0.080600  1
  H  H122  1  0.788900  0.459500  0.919400  1
  H  H123  1  0.056600  0.547400  0.142100  1
  H  H124  1  0.943400  0.452600  0.857900  1
  H  H125  1  0.975200  0.604700  0.095900  1
  H  H126  1  0.024800  0.395300  0.904100  1
  H  H127  1  0.124700  0.735700  0.050700  1
  H  H128  1  0.875300  0.264300  0.949300  1
  H  H129  1  0.205400  0.677500  0.093500  1
  H  H130  1  0.794600  0.322500  0.906500  1
  H  H131  1  0.784100  0.883000  0.711700  1
  H  H132  1  0.215900  0.117000  0.288300  1
  H  H133  1  0.828300  0.910300  0.807200  1
  H  H134  1  0.171700  0.089700  0.192800  1
  H  H135  1  0.006800  0.996100  0.767700  1
  H  H136  1  0.993200  0.003900  0.232300  1
  H  H137  1  0.962700  0.972100  0.673300  1
  H  H138  1  0.037300  0.027900  0.326700  1
  H  H139  1  0.927800  0.883300  0.612800  1
  H  H140  1  0.072200  0.116700  0.387200  1
  H  H141  1  0.954700  0.860000  0.513700  1
  H  H142  1  0.045300  0.140000  0.486300  1
  H  H143  1  0.918100  0.854200  0.417500  1
  H  H144  1  0.081900  0.145800  0.582500  1
  H  H145  1  0.742600  0.902000  0.449200  1
  H  H146  1  0.257400  0.098000  0.550800  1
  H  H147  1  0.801700  0.845400  0.171500  1
  H  H148  1  0.198300  0.154600  0.828500  1
  H  H149  1  0.722400  0.003200  0.216900  1
  H  H150  1  0.277600  0.996800  0.783100  1
  H  H151  1  0.705800  0.023400  0.122400  1
  H  H152  1  0.294200  0.976600  0.877600  1
  H  H153  1  0.703900  0.980600  0.019700  1
  H  H154  1  0.296100  0.019400  0.980300  1
  H  H155  1  0.674200  0.811300  0.926200  1
  H  H156  1  0.325800  0.188700  0.073800  1
  H  H157  1  0.646400  0.816800  0.829900  1
  H  H158  1  0.353600  0.183200  0.170100  1
  H  H159  1  0.749200  0.005700  0.846300  1
  H  H160  1  0.250800  0.994300  0.153700  1
  H  H161  1  0.774100  0.001900  0.943400  1
  H  H162  1  0.225900  0.998100  0.056600  1
  H  H163  1  0.896200  0.009500  0.571700  1
  H  H164  1  0.103800  0.990500  0.428300  1
  H  H165  1  0.987200  0.093000  0.615000  1
  H  H166  1  0.012800  0.907000  0.385000  1
  H  H167  1  0.855400  0.203200  0.656400  1
  H  H168  1  0.144600  0.796800  0.343600  1
  H  H169  1  0.766200  0.114900  0.624200  1
  H  H170  1  0.233800  0.885100  0.375800  1
  H  H171  1  0.713600  0.063300  0.532000  1
  H  H172  1  0.286400  0.936700  0.468000  1
  H  H173  1  0.591700  0.018300  0.475600  1
  H  H174  1  0.408300  0.981700  0.524400  1
  H  H175  1  0.509800  0.925200  0.435500  1
  H  H176  1  0.490200  0.074800  0.564500  1
  H  H177  1  0.627500  0.809200  0.511100  1
  H  H178  1  0.372500  0.190800  0.488900  1
  H  H179  1  0.348600  0.677200  0.306600  1
  H  H180  1  0.651400  0.322800  0.693400  1
  H  H181  1  0.358000  0.593000  0.452300  1
  H  H182  1  0.642000  0.407000  0.547700  1
  H  H183  1  0.260700  0.514900  0.413800  1
  H  H184  1  0.739300  0.485100  0.586200  1
  H  H185  1  0.164500  0.472000  0.326000  1
  H  H186  1  0.835500  0.528000  0.674000  1
  H  H187  1  0.044800  0.504100  0.275000  1
  H  H188  1  0.955200  0.495900  0.725000  1
  H  H189  1  0.946800  0.435300  0.220900  1
  H  H190  1  0.053200  0.564700  0.779100  1
  H  H191  1  0.062300  0.367300  0.116700  1
  H  H192  1  0.937700  0.632700  0.883300  1
  H  H193  1  0.159800  0.433800  0.171400  1
  H  H194  1  0.840200  0.566200  0.828600  1
  H  H195  1  0.789400  0.797700  0.872200  1
  H  H196  1  0.210600  0.202300  0.127800  1
  H  H197  1  0.876800  0.802200  0.816400  1
  H  H198  1  0.123200  0.197800  0.183600  1
  H  H199  1  0.005600  0.770200  0.947500  1
  H  H200  1  0.994400  0.229800  0.052500  1
  H  H201  1  0.920000  0.767400  0.003000  1
  H  H202  1  0.080000  0.232600  0.997000  1
  H  H203  1  0.756200  0.689100  0.941400  1
  H  H204  1  0.243800  0.310900  0.058600  1
  H  H205  1  0.643000  0.627900  0.967100  1
  H  H206  1  0.357000  0.372100  0.032900  1
  H  H207  1  0.558100  0.627300  0.023700  1
  H  H208  1  0.441900  0.372700  0.976300  1
  H  H209  1  0.654400  0.809400  0.092700  1
  H  H210  1  0.345600  0.190600  0.907300  1
  H  H211  1  0.365700  0.634200  0.187800  1
  H  H212  1  0.634300  0.365800  0.812200  1
  H  H213  1  0.372100  0.825000  0.155100  1
  H  H214  1  0.627900  0.175000  0.844900  1
  H  H215  1  0.268400  0.821100  0.188900  1
  H  H216  1  0.731600  0.178900  0.811100  1
  H  H217  1  0.177800  0.753400  0.240800  1
  H  H218  1  0.822200  0.246600  0.759200  1
  H  H219  1  0.047700  0.646800  0.220700  1
  H  H220  1  0.952300  0.353200  0.779300  1
  H  H221  1  0.962100  0.637700  0.278200  1
  H  H222  1  0.037900  0.362300  0.721800  1
  H  H223  1  0.104000  0.656400  0.412800  1
  H  H224  1  0.896000  0.343600  0.587200  1
  H  H225  1  0.187600  0.658500  0.356600  1
  H  H226  1  0.812400  0.341500  0.643400  1
  H  H227  1  0.521800  0.288100  0.095600  1
  H  H228  1  0.478200  0.711900  0.904400  1
  H  H229  1  0.532400  0.282400  0.161300  1
  H  H230  1  0.467600  0.717600  0.838700  1
  H  H231  1  0.538200  0.353900  0.138000  1
  H  H232  1  0.461800  0.646100  0.862000  1
  H  H233  1  0.568300  0.872200  0.946600  1
  H  H234  1  0.431700  0.127800  0.053400  1
  H  H235  1  0.526000  0.799500  0.972500  1
  H  H236  1  0.474000  0.200500  0.027500  1
  H  H237  1  0.611400  0.835500  0.001600  1
  H  H238  1  0.388600  0.164500  0.998400  1
  H  H239  1  0.382600  0.449500  0.859400  1
  H  H240  1  0.617400  0.550500  0.140600  1
  H  H241  1  0.440300  0.426400  0.831500  1
  H  H242  1  0.559700  0.573600  0.168500  1
  H  H243  1  0.418900  0.493900  0.818400  1
  H  H244  1  0.581100  0.506100  0.181600  1
  H  H245  1  0.586400  0.840700  0.276600  1
  H  H246  1  0.413600  0.159300  0.723400  1
  H  H247  1  0.514600  0.869800  0.295800  1
  H  H248  1  0.485400  0.130200  0.704200  1
  H  H249  1  0.598000  0.913500  0.323700  1
  H  H250  1  0.402000  0.086500  0.676300  1
  H  H251  1  0.891600  0.012000  0.682100  1
  H  H252  1  0.108400  0.988000  0.317900  1
  H  H253  1  0.919000  0.027800  0.779100  1
  H  H254  1  0.081000  0.972200  0.220900  1
  H  H255  1  0.834500  0.835200  0.789000  1
  H  H256  1  0.165500  0.164800  0.211000  1
  H  H257  1  0.807100  0.819400  0.692100  1
  H  H258  1  0.192900  0.180600  0.307900  1
  H  H259  1  0.864800  0.019200  0.528600  1
  H  H260  1  0.135200  0.980800  0.471400  1
  H  H261  1  0.961200  0.103600  0.551000  1
  H  H262  1  0.038800  0.896400  0.449000  1
  H  H263  1  0.887300  0.170700  0.685100  1
  H  H264  1  0.112700  0.829300  0.314900  1
  H  H265  1  0.791000  0.086300  0.662700  1
  H  H266  1  0.209000  0.913700  0.337300  1
  H  H267  1  0.890900  0.703800  0.000200  1
  H  H268  1  0.109100  0.296200  0.999800  1
  H  H269  1  0.987900  0.698500  0.957200  1
  H  H270  1  0.012100  0.301500  0.042800  1
  H  H271  1  0.947300  0.845800  0.864200  1
  H  H272  1  0.052700  0.154200  0.135800  1
  H  H273  1  0.843800  0.839600  0.898800  1
  H  H274  1  0.156200  0.160400  0.101200  1
  H  H275  1  0.943800  0.843800  0.273800  1
  H  H276  1  0.056200  0.156200  0.726200  1
  H  H277  1  0.986500  0.912100  0.306000  1
  H  H278  1  0.013500  0.087900  0.694000  1
  H  H279  1  0.016900  0.873800  0.259300  1
  H  H280  1  0.983100  0.126200  0.740700  1
  H  H281  1  0.370600  0.467000  0.958100  1
  H  H282  1  0.629400  0.533000  0.041900  1
  H  H283  1  0.362400  0.540600  0.951200  1
  H  H284  1  0.637600  0.459400  0.048800  1
  H  H285  1  0.393500  0.521100  0.008900  1
  H  H286  1  0.606500  0.478900  0.991100  1
  H  H287  1  0.397300  0.582100  0.970900  1
  H  H288  1  0.602700  0.417900  0.029100  1
  H  H289  1  0.410300  0.550400  0.028700  1
  H  H290  1  0.589700  0.449600  0.971300  1
  H  H291  1  0.344300  0.519700  0.984400  1
  H  H292  1  0.655700  0.480300  0.015600  1
  H  H293  1  0.513000  0.706700  0.216400  1
  H  H294  1  0.487000  0.293300  0.783600  1
  H  H295  1  0.467700  0.705100  0.273900  1
  H  H296  1  0.532300  0.294900  0.726100  1
  H  H297  1  0.548500  0.681700  0.280900  1
  H  H298  1  0.451500  0.318300  0.719100  1
  H  H299  1  0.594400  0.492800  0.410900  1
  H  H300  1  0.405600  0.507200  0.589100  1
  H  H301  1  0.556500  0.545200  0.365800  1
  H  H302  1  0.443500  0.454800  0.634200  1
  H  H303  1  0.629200  0.579600  0.416200  1
  H  H304  1  0.370800  0.420400  0.583800  1
  H  H305  1  0.611100  0.573600  0.300100  1
  H  H306  1  0.388900  0.426400  0.699900  1
  H  H307  1  0.548200  0.499200  0.290600  1
  H  H308  1  0.451800  0.500800  0.709400  1
  H  H309  1  0.566200  0.549200  0.355500  1
  H  H310  1  0.433800  0.450800  0.644500  1
  H  H311  1  0.499400  0.622400  0.304900  1
  H  H312  1  0.500600  0.377600  0.695100  1
  H  H313  1  0.433500  0.597300  0.344600  1
  H  H314  1  0.566500  0.402700  0.655400  1
  H  H315  1  0.457600  0.537400  0.299100  1
  H  H316  1  0.542400  0.462600  0.700900  1
  H  H317  1  0.766400  0.590800  0.269400  1
  H  H318  1  0.233600  0.409200  0.730600  1
  H  H319  1  0.745400  0.575300  0.336400  1
  H  H320  1  0.254600  0.424700  0.663600  1
  H  H321  1  0.821800  0.556300  0.317600  1
  H  H322  1  0.178200  0.443700  0.682400  1
  H  H323  1  0.696100  0.828300  0.234300  1
  H  H324  1  0.303900  0.171700  0.765700  1
  H  H325  1  0.611200  0.787700  0.236300  1
  H  H326  1  0.388800  0.212300  0.763700  1
  H  H327  1  0.641100  0.794500  0.171300  1
  H  H328  1  0.358900  0.205500  0.828700  1
  C  C329  1  0.874200  0.268700  0.289700  1
  C  C330  1  0.125800  0.731300  0.710300  1
  C  C331  1  0.858300  0.263400  0.233000  1
  C  C332  1  0.141700  0.736600  0.767000  1
  C  C333  1  0.871100  0.210200  0.200900  1
  C  C334  1  0.128900  0.789800  0.799100  1
  C  C335  1  0.900300  0.164600  0.228200  1
  C  C336  1  0.099700  0.835400  0.771800  1
  C  C337  1  0.917800  0.168900  0.284200  1
  C  C338  1  0.082200  0.831100  0.715800  1
  C  C339  1  0.903500  0.221900  0.315200  1
  C  C340  1  0.096500  0.778100  0.684800  1
  C  C341  1  0.899700  0.375400  0.338100  1
  C  C342  1  0.100300  0.624600  0.661900  1
  C  C343  1  0.879300  0.428700  0.369700  1
  C  C344  1  0.120700  0.571300  0.630300  1
  C  C345  1  0.921100  0.487200  0.393300  1
  C  C346  1  0.078900  0.512800  0.606700  1
  C  C347  1  0.895600  0.531200  0.425100  1
  C  C348  1  0.104400  0.468800  0.574900  1
  C  C349  1  0.827600  0.516500  0.431000  1
  C  C350  1  0.172400  0.483500  0.569000  1
  C  C351  1  0.787800  0.457400  0.404600  1
  C  C352  1  0.212200  0.542600  0.595400  1
  C  C353  1  0.796900  0.563000  0.463300  1
  C  C354  1  0.203100  0.437000  0.536700  1
  C  C355  1  0.751000  0.644200  0.523000  1
  C  C356  1  0.249000  0.355800  0.477000  1
  C  C357  1  0.748400  0.759900  0.554200  1
  C  C358  1  0.251600  0.240100  0.445800  1
  C  C359  1  0.726100  0.692200  0.558700  1
  C  C360  1  0.273900  0.307800  0.441300  1
  C  C361  1  0.679100  0.673800  0.593400  1
  C  C362  1  0.320900  0.326200  0.406600  1
  C  C363  1  0.658800  0.723000  0.625000  1
  C  C364  1  0.341200  0.277000  0.375000  1
  C  C365  1  0.683500  0.789200  0.617900  1
  C  C366  1  0.316500  0.210800  0.382100  1
  C  C367  1  0.664000  0.845800  0.646200  1
  C  C368  1  0.336000  0.154200  0.353800  1
  C  C369  1  0.666667  0.959900  0.656500  1
  C  C370  1  0.333333  0.040100  0.343500  1
  C  C371  1  0.709500  0.011300  0.688900  1
  C  C372  1  0.290500  0.988700  0.311100  1
  C  C373  1  0.683900  0.064700  0.708700  1
  C  C374  1  0.316100  0.935300  0.291300  1
  C  C375  1  0.617700  0.065400  0.693700  1
  C  C376  1  0.382300  0.934600  0.306300  1
  C  C377  1  0.573100  0.015100  0.661100  1
  C  C378  1  0.426900  0.984900  0.338900  1
  C  C379  1  0.598200  0.961400  0.641500  1
  C  C380  1  0.401800  0.038600  0.358500  1
  C  C381  1  0.695300  0.180400  0.313600  1
  C  C382  1  0.304700  0.819600  0.686400  1
  C  C383  1  0.630000  0.164000  0.322600  1
  C  C384  1  0.370000  0.836000  0.677400  1
  C  C385  1  0.606700  0.101900  0.340400  1
  C  C386  1  0.393300  0.898100  0.659600  1
  C  C387  1  0.651100  0.060600  0.349300  1
  C  C388  1  0.348900  0.939400  0.650700  1
  C  C389  1  0.716600  0.078000  0.343600  1
  C  C390  1  0.283400  0.922000  0.656400  1
  C  C391  1  0.739000  0.138600  0.324200  1
  C  C392  1  0.261000  0.861400  0.675800  1
  C  C393  1  0.693700  0.249700  0.242000  1
  C  C394  1  0.306300  0.750300  0.758000  1
  C  C395  1  0.710300  0.316400  0.223800  1
  C  C396  1  0.289700  0.683600  0.776200  1
  C  C397  1  0.694300  0.331600  0.170100  1
  C  C398  1  0.305700  0.668400  0.829900  1
  C  C399  1  0.715000  0.395500  0.156800  1
  C  C400  1  0.285000  0.604500  0.843200  1
  C  C401  1  0.752900  0.442200  0.197800  1
  C  C402  1  0.247100  0.557800  0.802200  1
  C  C403  1  0.767500  0.423000  0.250500  1
  C  C404  1  0.232500  0.577000  0.749500  1
  C  C405  1  0.777100  0.511700  0.186800  1
  C  C406  1  0.222900  0.488300  0.813200  1
  C  C407  1  0.824600  0.629000  0.163500  1
  C  C408  1  0.175400  0.371000  0.836500  1
  C  C409  1  0.814300  0.725200  0.109600  1
  C  C410  1  0.185700  0.274800  0.890400  1
  C  C411  1  0.854000  0.694300  0.147400  1
  C  C412  1  0.146000  0.305700  0.852600  1
  C  C413  1  0.920000  0.725000  0.166300  1
  C  C414  1  0.080000  0.275000  0.833700  1
  C  C415  1  0.945700  0.785700  0.148200  1
  C  C416  1  0.054300  0.214300  0.851800  1
  C  C417  1  0.903400  0.812900  0.110400  1
  C  C418  1  0.096600  0.187100  0.889600  1
  C  C419  1  0.923400  0.876000  0.087700  1
  C  C420  1  0.076600  0.124000  0.912300  1
  C  C421  1  0.894800  0.959500  0.033800  1
  C  C422  1  0.105200  0.040500  0.966200  1
  C  C423  1  0.903500  0.965900  0.979800  1
  C  C424  1  0.096500  0.034100  0.020200  1
  C  C425  1  0.916600  0.029200  0.961500  1
  C  C426  1  0.083400  0.970800  0.038500  1
  C  C427  1  0.919400  0.082000  0.997100  1
  C  C428  1  0.080600  0.918000  0.002900  1
  C  C429  1  0.912100  0.077300  0.051700  1
  C  C430  1  0.087900  0.922700  0.948300  1
  C  C431  1  0.899000  0.015000  0.070000  1
  C  C432  1  0.101000  0.985000  0.930000  1
  C  C433  1  0.829500  0.269100  0.440400  1
  C  C434  1  0.170500  0.730900  0.559600  1
  C  C435  1  0.824300  0.205400  0.453100  1
  C  C436  1  0.175700  0.794600  0.546900  1
  C  C437  1  0.880400  0.186200  0.483700  1
  C  C438  1  0.119600  0.813800  0.516300  1
  C  C439  1  0.938100  0.232400  0.499300  1
  C  C440  1  0.061900  0.767600  0.500700  1
  C  C441  1  0.944600  0.295600  0.487700  1
  C  C442  1  0.055400  0.704400  0.512300  1
  C  C443  1  0.889000  0.314100  0.457300  1
  C  C444  1  0.111000  0.685900  0.542700  1
  C  C445  1  0.718500  0.286700  0.433800  1
  C  C446  1  0.281500  0.713300  0.566200  1
  C  C447  1  0.662600  0.313800  0.405500  1
  C  C448  1  0.337400  0.686200  0.594500  1
  C  C449  1  0.602600  0.314600  0.424800  1
  C  C450  1  0.397400  0.685400  0.575200  1
  C  C451  1  0.553600  0.342400  0.394800  1
  C  C452  1  0.446400  0.657600  0.605200  1
  C  C453  1  0.566400  0.368600  0.346200  1
  C  C454  1  0.433600  0.631400  0.653800  1
  C  C455  1  0.628100  0.365400  0.328300  1
  C  C456  1  0.371900  0.634600  0.671700  1
  C  C457  1  0.516600  0.397600  0.310600  1
  C  C458  1  0.483400  0.602400  0.689400  1
  C  C459  1  0.427900  0.444600  0.248500  1
  C  C460  1  0.572100  0.555400  0.751500  1
  C  C461  1  0.332500  0.504900  0.235600  1
  C  C462  1  0.667500  0.495100  0.764400  1
  C  C463  1  0.375300  0.469600  0.212100  1
  C  C464  1  0.624700  0.530400  0.787900  1
  C  C465  1  0.368700  0.459900  0.155400  1
  C  C466  1  0.631300  0.540100  0.844600  1
  C  C467  1  0.317600  0.483300  0.122700  1
  C  C468  1  0.682400  0.516700  0.877300  1
  C  C469  1  0.276800  0.517200  0.149300  1
  C  C470  1  0.723200  0.482800  0.850700  1
  C  C471  1  0.221500  0.545000  0.120100  1
  C  C472  1  0.778500  0.455000  0.879900  1
  C  C473  1  0.136600  0.607500  0.121800  1
  C  C474  1  0.863400  0.392500  0.878200  1
  C  C475  1  0.070700  0.585400  0.123500  1
  C  C476  1  0.929300  0.414600  0.876500  1
  C  C477  1  0.022400  0.619900  0.096900  1
  C  C478  1  0.977600  0.380100  0.903100  1
  C  C479  1  0.046400  0.674600  0.073500  1
  C  C480  1  0.953600  0.325400  0.926500  1
  C  C481  1  0.111400  0.697700  0.069600  1
  C  C482  1  0.888600  0.302300  0.930400  1
  C  C483  1  0.158500  0.663200  0.094800  1
  C  C484  1  0.841500  0.336800  0.905200  1
  C  C485  1  0.869900  0.923300  0.683700  1
  C  C486  1  0.130100  0.076700  0.316300  1
  C  C487  1  0.829600  0.905700  0.722800  1
  C  C488  1  0.170400  0.094300  0.277200  1
  C  C489  1  0.856000  0.921300  0.779600  1
  C  C490  1  0.144000  0.078700  0.220400  1
  C  C491  1  0.921900  0.952600  0.794400  1
  C  C492  1  0.078100  0.047400  0.205600  1
  C  C493  1  0.961600  0.972500  0.756300  1
  C  C494  1  0.038400  0.027500  0.243700  1
  C  C495  1  0.935400  0.958100  0.700400  1
  C  C496  1  0.064600  0.041900  0.299600  1
  C  C497  1  0.885300  0.890300  0.595100  1
  C  C498  1  0.114700  0.109700  0.404900  1
  C  C499  1  0.868100  0.883200  0.535500  1
  C  C500  1  0.131900  0.116800  0.464500  1
  C  C501  1  0.911400  0.868500  0.499700  1
  C  C502  1  0.088600  0.131500  0.500300  1
  C  C503  1  0.890300  0.866400  0.443100  1
  C  C504  1  0.109700  0.133600  0.556900  1
  C  C505  1  0.828200  0.882100  0.423900  1
  C  C506  1  0.171800  0.117900  0.576100  1
  C  C507  1  0.786200  0.893700  0.462400  1
  C  C508  1  0.213800  0.106300  0.537600  1
  C  C509  1  0.806700  0.886800  0.364500  1
  C  C510  1  0.193300  0.113200  0.635500  1
  C  C511  1  0.778200  0.906100  0.262100  1
  C  C512  1  0.221800  0.093900  0.737900  1
  C  C513  1  0.781100  0.881700  0.161500  1
  C  C514  1  0.218900  0.118300  0.838500  1
  C  C515  1  0.765400  0.921800  0.203600  1
  C  C516  1  0.234600  0.078200  0.796400  1
  C  C517  1  0.735100  0.975200  0.189300  1
  C  C518  1  0.264900  0.024800  0.810700  1
  C  C519  1  0.724200  0.986200  0.133600  1
  C  C520  1  0.275800  0.013800  0.866400  1
  C  C521  1  0.740100  0.942800  0.094800  1
  C  C522  1  0.259900  0.057200  0.905200  1
  C  C523  1  0.725000  0.946600  0.034500  1
  C  C524  1  0.275000  0.053400  0.965500  1
  C  C525  1  0.727100  0.905100  0.943600  1
  C  C526  1  0.272900  0.094900  0.056400  1
  C  C527  1  0.689500  0.851100  0.910200  1
  C  C528  1  0.310500  0.148900  0.089800  1
  C  C529  1  0.673400  0.853700  0.853200  1
  C  C530  1  0.326600  0.146300  0.146800  1
  C  C531  1  0.697800  0.911200  0.832200  1
  C  C532  1  0.302200  0.088800  0.167800  1
  C  C533  1  0.734200  0.966400  0.863100  1
  C  C534  1  0.265800  0.033600  0.136900  1
  C  C535  1  0.749100  0.963800  0.920300  1
  C  C536  1  0.250900  0.036200  0.079700  1
  C  C537  1  0.821100  0.055100  0.591300  1
  C  C538  1  0.178900  0.944900  0.408700  1
  C  C539  1  0.887400  0.048200  0.590500  1
  C  C540  1  0.112600  0.951800  0.409500  1
  C  C541  1  0.941900  0.097300  0.617000  1
  C  C542  1  0.058100  0.902700  0.383000  1
  C  C543  1  0.928700  0.151500  0.645800  1
  C  C544  1  0.071300  0.848500  0.354200  1
  C  C545  1  0.863900  0.161700  0.642800  1
  C  C546  1  0.136100  0.838300  0.357200  1
  C  C547  1  0.811000  0.110900  0.619900  1
  C  C548  1  0.189000  0.889100  0.380100  1
  C  C549  1  0.713500  0.018200  0.538200  1
  C  C550  1  0.286500  0.981800  0.461800  1
  C  C551  1  0.656600  0.965100  0.513700  1
  C  C552  1  0.343400  0.034900  0.486300  1
  C  C553  1  0.598500  0.974600  0.481500  1
  C  C554  1  0.401500  0.025400  0.518500  1
  C  C555  1  0.550300  0.920000  0.458100  1
  C  C556  1  0.449700  0.080000  0.541900  1
  C  C557  1  0.562300  0.857200  0.468200  1
  C  C558  1  0.437700  0.142800  0.531800  1
  C  C559  1  0.620700  0.852200  0.502900  1
  C  C560  1  0.379300  0.147800  0.497100  1
  C  C561  1  0.514100  0.796800  0.443800  1
  C  C562  1  0.485900  0.203200  0.556200  1
  C  C563  1  0.422000  0.696100  0.403400  1
  C  C564  1  0.578000  0.303900  0.596600  1
  C  C565  1  0.330700  0.643900  0.328700  1
  C  C566  1  0.669300  0.356100  0.671300  1
  C  C567  1  0.362700  0.643700  0.382900  1
  C  C568  1  0.637300  0.356300  0.617100  1
  C  C569  1  0.336700  0.594700  0.415300  1
  C  C570  1  0.663300  0.405300  0.584700  1
  C  C571  1  0.279300  0.548600  0.392400  1
  C  C572  1  0.720700  0.451400  0.607600  1
  C  C573  1  0.249100  0.551500  0.338300  1
  C  C574  1  0.750900  0.448500  0.661700  1
  C  C575  1  0.188700  0.507000  0.308800  1
  C  C576  1  0.811300  0.493000  0.691200  1
  C  C577  1  0.110400  0.474900  0.228200  1
  C  C578  1  0.889600  0.525100  0.771800  1
  C  C579  1  0.048700  0.476100  0.243500  1
  C  C580  1  0.951300  0.523900  0.756500  1
  C  C581  1  0.990600  0.435000  0.211700  1
  C  C582  1  0.009400  0.565000  0.788300  1
  C  C583  1  0.999100  0.395200  0.167700  1
  C  C584  1  0.000900  0.604800  0.832300  1
  C  C585  1  0.059400  0.393900  0.149300  1
  C  C586  1  0.940600  0.606100  0.850700  1
  C  C587  1  0.116300  0.434000  0.181300  1
  C  C588  1  0.883700  0.566000  0.818700  1
  C  C589  1  0.848400  0.782300  0.942300  1
  C  C590  1  0.151600  0.217700  0.057700  1
  C  C591  1  0.833400  0.792100  0.887500  1
  C  C592  1  0.166600  0.207900  0.112500  1
  C  C593  1  0.884500  0.793700  0.854300  1
  C  C594  1  0.115500  0.206300  0.145700  1
  C  C595  1  0.945200  0.782800  0.878100  1
  C  C596  1  0.054800  0.217200  0.121900  1
  C  C597  1  0.961300  0.774900  0.932200  1
  C  C598  1  0.038700  0.225100  0.067800  1
  C  C599  1  0.910900  0.773900  0.964700  1
  C  C600  1  0.089100  0.226100  0.035300  1
  C  C601  1  0.752700  0.723700  0.968000  1
  C  C602  1  0.247300  0.276300  0.032000  1
  C  C603  1  0.696300  0.718300  0.999400  1
  C  C604  1  0.303700  0.281700  0.000600  1
  C  C605  1  0.644500  0.664600  0.993300  1
  C  C606  1  0.355500  0.335400  0.006700  1
  C  C607  1  0.594100  0.664600  0.026100  1
  C  C608  1  0.405900  0.335400  0.973900  1
  C  C609  1  0.597200  0.720000  0.062400  1
  C  C610  1  0.402800  0.280000  0.937600  1
  C  C611  1  0.652100  0.772000  0.067000  1
  C  C612  1  0.347900  0.228000  0.933000  1
  C  C613  1  0.543400  0.722300  0.096200  1
  C  C614  1  0.456600  0.277700  0.903800  1
  C  C615  1  0.442200  0.728000  0.147300  1
  C  C616  1  0.557800  0.272000  0.852700  1
  C  C617  1  0.346000  0.672700  0.188500  1
  C  C618  1  0.654000  0.327300  0.811500  1
  C  C619  1  0.379100  0.729800  0.168900  1
  C  C620  1  0.620900  0.270200  0.831100  1
  C  C621  1  0.350600  0.785700  0.168700  1
  C  C622  1  0.649400  0.214300  0.831300  1
  C  C623  1  0.289600  0.783500  0.188900  1
  C  C624  1  0.710400  0.216500  0.811100  1
  C  C625  1  0.260500  0.725200  0.208900  1
  C  C626  1  0.739500  0.274800  0.791100  1
  C  C627  1  0.200100  0.717300  0.235100  1
  C  C628  1  0.799900  0.282700  0.764900  1
  C  C629  1  0.124700  0.654500  0.283400  1
  C  C630  1  0.875300  0.345500  0.716600  1
  C  C631  1  0.059400  0.648200  0.259900  1
  C  C632  1  0.940600  0.351800  0.740100  1
  C  C633  1  0.008600  0.643600  0.293900  1
  C  C634  1  0.991400  0.356400  0.706100  1
  C  C635  1  0.027800  0.647600  0.348800  1
  C  C636  1  0.972200  0.352400  0.651200  1
  C  C637  1  0.092800  0.653800  0.373500  1
  C  C638  1  0.907200  0.346200  0.626500  1
  C  C639  1  0.141800  0.656000  0.340400  1
  C  C640  1  0.858200  0.344000  0.659600  1
  C  C641  1  0.446700  0.304200  0.131500  1
  C  C642  1  0.553300  0.695800  0.868500  1
  C  C643  1  0.514600  0.307400  0.131600  1
  C  C644  1  0.485400  0.692600  0.868400  1
  C  C645  1  0.241300  0.791800  0.966700  1
  C  C646  1  0.758700  0.208200  0.033300  1
  C  C647  1  0.498600  0.858800  0.972100  1
  C  C648  1  0.501400  0.141200  0.027900  1
  C  C649  1  0.539000  0.888000  0.025000  1
  C  C650  1  0.461000  0.112000  0.975000  1
  C  C651  1  0.562000  0.847000  0.984000  1
  C  C652  1  0.438000  0.153000  0.016000  1
  C  C653  1  0.425000  0.464000  0.846600  1
  C  C654  1  0.575000  0.536000  0.153400  1
  C  C655  1  0.473100  0.504000  0.896100  1
  C  C656  1  0.526900  0.496000  0.103900  1
  C  C657  1  0.565400  0.926100  0.240000  1
  C  C658  1  0.434600  0.073900  0.760000  1
  C  C659  1  0.566100  0.885300  0.286500  1
  C  C660  1  0.433900  0.114700  0.713500  1
  C  C661  1  0.846800  0.914200  0.678000  1
  C  C662  1  0.153200  0.085800  0.322000  1
  C  C663  1  0.880000  0.976100  0.703800  1
  C  C664  1  0.120000  0.023900  0.296200  1
  C  C665  1  0.896300  0.985500  0.761400  1
  C  C666  1  0.103700  0.014500  0.238600  1
  C  C667  1  0.879400  0.933000  0.793200  1
  C  C668  1  0.120600  0.067000  0.206800  1
  C  C669  1  0.846100  0.871100  0.767300  1
  C  C670  1  0.153900  0.128900  0.232700  1
  C  C671  1  0.829800  0.861700  0.709700  1
  C  C672  1  0.170200  0.138300  0.290300  1
  C  C673  1  0.818800  0.044800  0.593600  1
  C  C674  1  0.181200  0.955200  0.406400  1
  C  C675  1  0.869400  0.050000  0.560400  1
  C  C676  1  0.130600  0.950000  0.439600  1
  C  C677  1  0.926600  0.100100  0.573700  1
  C  C678  1  0.073400  0.899900  0.426300  1
  C  C679  1  0.933300  0.145100  0.620200  1
  C  C680  1  0.066700  0.854900  0.379800  1
  C  C681  1  0.882800  0.140000  0.653300  1
  C  C682  1  0.117200  0.860000  0.346700  1
  C  C683  1  0.825500  0.089800  0.640000  1
  C  C684  1  0.174500  0.910200  0.360000  1
  C  C685  1  0.864000  0.778100  0.957000  1
  C  C686  1  0.136000  0.221900  0.043000  1
  C  C687  1  0.902800  0.732800  0.972900  1
  C  C688  1  0.097200  0.267200  0.027100  1
  C  C689  1  0.960400  0.730200  0.948200  1
  C  C690  1  0.039600  0.269800  0.051800  1
  C  C691  1  0.975400  0.774800  0.910800  1
  C  C692  1  0.024600  0.225200  0.089200  1
  C  C693  1  0.935500  0.816700  0.891400  1
  C  C694  1  0.064500  0.183300  0.108600  1
  C  C695  1  0.876200  0.814900  0.913800  1
  C  C696  1  0.123800  0.185100  0.086200  1
  C  C697  1  0.942100  0.924300  0.225000  1
  C  C698  1  0.057900  0.075700  0.775000  1
  C  C699  1  0.975400  0.884800  0.270200  1
  C  C700  1  0.024600  0.115200  0.729800  1
  C  C701  1  0.457500  0.526000  0.947200  1
  C  C702  1  0.542500  0.474000  0.052800  1
  C  C703  1  0.390300  0.513000  0.969400  1
  C  C704  1  0.609700  0.487000  0.030600  1
  C  C705  1  0.375600  0.560800  0.000300  1
  C  C706  1  0.624400  0.439200  0.999700  1
  C  C707  1  0.338000  0.607000  0.026000  1
  C  C708  1  0.662000  0.393000  0.974000  1
  C  C709  1  0.550800  0.784400  0.279900  1
  C  C710  1  0.449200  0.215600  0.720100  1
  C  C711  1  0.518300  0.715800  0.261800  1
  C  C712  1  0.481700  0.284200  0.738200  1
  C  C713  1  0.648500  0.524000  0.346800  1
  C  C714  1  0.351500  0.476000  0.653200  1
  C  C715  1  0.604800  0.536000  0.387100  1
  C  C716  1  0.395200  0.464000  0.612900  1
  C  C717  1  0.510500  0.587900  0.290400  1
  C  C718  1  0.489500  0.412100  0.709600  1
  C  C719  1  0.561800  0.550500  0.310200  1
  C  C720  1  0.438200  0.449500  0.689800  1
  C  C721  1  0.526100  0.569700  0.373000  1
  C  C722  1  0.473900  0.430300  0.627000  1
  C  C723  1  0.476500  0.582400  0.328000  1
  C  C724  1  0.523500  0.417600  0.672000  1
  C  C725  1  0.823000  0.658100  0.335300  1
  C  C726  1  0.177000  0.341900  0.664700  1
  C  C727  1  0.787200  0.591600  0.313500  1
  C  C728  1  0.212800  0.408400  0.686500  1
  C  C729  1  0.677500  0.724000  0.220000  1
  C  C730  1  0.322500  0.276000  0.780000  1
  C  C731  1  0.655300  0.787000  0.215200  1
  C  C732  1  0.344700  0.213000  0.784800  1
  S  S733  1  0.308600  0.835900  0.932700  1
  S  S734  1  0.691400  0.164100  0.067300  1
  S  S735  1  0.427300  0.800700  0.991200  1
  S  S736  1  0.572700  0.199300  0.008800  1
  N  N737  1  0.855600  0.323100  0.321900  1
  N  N738  1  0.144400  0.676900  0.678100  1
  N  N739  1  0.812300  0.414300  0.374600  1
  N  N740  1  0.187700  0.585700  0.625400  1
  N  N741  1  0.741800  0.539000  0.484800  1
  N  N742  1  0.258200  0.461000  0.515200  1
  N  N743  1  0.717800  0.581500  0.515900  1
  N  N744  1  0.282200  0.418500  0.484100  1
  N  N745  1  0.828700  0.627100  0.468800  1
  N  N746  1  0.171300  0.372900  0.531200  1
  N  N747  1  0.804400  0.669000  0.499900  1
  N  N748  1  0.195600  0.331000  0.500100  1
  N  N749  1  0.728300  0.808300  0.582800  1
  N  N750  1  0.271700  0.191700  0.417200  1
  N  N751  1  0.692300  0.904100  0.635000  1
  N  N752  1  0.307700  0.095900  0.365000  1
  N  N753  1  0.716600  0.244200  0.292900  1
  N  N754  1  0.283400  0.755800  0.707100  1
  N  N755  1  0.746800  0.362200  0.264200  1
  N  N756  1  0.253200  0.637800  0.735800  1
  N  N757  1  0.836600  0.541300  0.213300  1
  N  N758  1  0.163400  0.458700  0.786700  1
  N  N759  1  0.861600  0.602800  0.201400  1
  N  N760  1  0.138400  0.397200  0.798600  1
  N  N761  1  0.737000  0.539300  0.151200  1
  N  N762  1  0.263000  0.460700  0.848800  1
  N  N763  1  0.762600  0.599900  0.139300  1
  N  N764  1  0.237400  0.400100  0.860700  1
  N  N765  1  0.837600  0.784000  0.091900  1
  N  N766  1  0.162400  0.216000  0.908100  1
  N  N767  1  0.878700  0.894300  0.053600  1
  N  N768  1  0.121300  0.105700  0.946400  1
  N  N769  1  0.771300  0.290500  0.409800  1
  N  N770  1  0.228700  0.709500  0.590200  1
  N  N771  1  0.675600  0.338900  0.356900  1
  N  N772  1  0.324400  0.661100  0.643100  1
  N  N773  1  0.529400  0.411400  0.260200  1
  N  N774  1  0.470600  0.588600  0.739800  1
  N  N775  1  0.482500  0.435100  0.227700  1
  N  N776  1  0.517500  0.564900  0.772300  1
  N  N777  1  0.463000  0.409300  0.332300  1
  N  N778  1  0.537000  0.590700  0.667700  1
  N  N779  1  0.416400  0.433000  0.299500  1
  N  N780  1  0.583600  0.567000  0.700500  1
  N  N781  1  0.284800  0.530000  0.205100  1
  N  N782  1  0.715200  0.470000  0.794900  1
  N  N783  1  0.188400  0.575000  0.149900  1
  N  N784  1  0.811600  0.425000  0.850100  1
  N  N785  1  0.841200  0.906400  0.623800  1
  N  N786  1  0.158800  0.093600  0.376200  1
  N  N787  1  0.804900  0.893700  0.516900  1
  N  N788  1  0.195100  0.106300  0.483100  1
  N  N789  1  0.754200  0.915500  0.349700  1
  N  N790  1  0.245800  0.084500  0.650300  1
  N  N791  1  0.739900  0.926000  0.296700  1
  N  N792  1  0.260100  0.074000  0.703300  1
  N  N793  1  0.840800  0.861800  0.328000  1
  N  N794  1  0.159200  0.138200  0.672000  1
  N  N795  1  0.825900  0.871600  0.275400  1
  N  N796  1  0.174100  0.128400  0.724600  1
  N  N797  1  0.769100  0.890600  0.108100  1
  N  N798  1  0.230900  0.109400  0.891900  1
  N  N799  1  0.741400  0.902300  0.002700  1
  N  N800  1  0.258600  0.097700  0.997300  1
  N  N801  1  0.763400  0.000900  0.568600  1
  N  N802  1  0.236600  0.999100  0.431400  1
  N  N803  1  0.667600  0.904200  0.525400  1
  N  N804  1  0.332400  0.095800  0.474600  1
  N  N805  1  0.509500  0.742700  0.470600  1
  N  N806  1  0.490500  0.257300  0.529400  1
  N  N807  1  0.461100  0.690500  0.450200  1
  N  N808  1  0.538900  0.309500  0.549800  1
  N  N809  1  0.479700  0.799600  0.392900  1
  N  N810  1  0.520300  0.200400  0.607100  1
  N  N811  1  0.431900  0.747600  0.372200  1
  N  N812  1  0.568100  0.252400  0.627800  1
  N  N813  1  0.275600  0.598900  0.306500  1
  N  N814  1  0.724400  0.401100  0.693500  1
  N  N815  1  0.170300  0.517600  0.259000  1
  N  N816  1  0.829700  0.482400  0.741000  1
  N  N817  1  0.796900  0.777400  0.978100  1
  N  N818  1  0.203100  0.222600  0.021900  1
  N  N819  1  0.701600  0.772100  0.037200  1
  N  N820  1  0.298400  0.227900  0.962800  1
  N  N821  1  0.536600  0.781700  0.116700  1
  N  N822  1  0.463400  0.218300  0.883300  1
  N  N823  1  0.483200  0.785000  0.143000  1
  N  N824  1  0.516800  0.215000  0.857000  1
  N  N825  1  0.506500  0.664800  0.105800  1
  N  N826  1  0.493500  0.335200  0.894200  1
  N  N827  1  0.454200  0.667900  0.132700  1
  N  N828  1  0.545800  0.332100  0.867300  1
  N  N829  1  0.287700  0.669700  0.208400  1
  N  N830  1  0.712300  0.330300  0.791600  1
  N  N831  1  0.178300  0.660100  0.250100  1
  N  N832  1  0.821700  0.339900  0.749900  1
  N  N833  1  0.387400  0.306700  0.131300  1
  N  N834  1  0.612600  0.693300  0.868700  1
  N  N835  1  0.370100  0.795000  0.935800  1
  N  N836  1  0.629900  0.205000  0.064200  1
  N  N837  1  0.520000  0.921000  0.057000  1
  N  N838  1  0.480000  0.079000  0.943000  1
  N  N839  1  0.508200  0.535100  0.931900  1
  N  N840  1  0.491800  0.464900  0.068100  1
  N  N841  1  0.564800  0.958600  0.202800  1
  N  N842  1  0.435200  0.041400  0.797200  1
  N  N843  1  0.918800  0.948800  0.189400  1
  N  N844  1  0.081200  0.051200  0.810600  1
  N  N845  1  0.304000  0.627000  0.055000  1
  N  N846  1  0.696000  0.373000  0.945000  1
  N  N847  1  0.576900  0.839200  0.294300  1
  N  N848  1  0.423100  0.160800  0.705700  1
  N  N849  1  0.683400  0.514300  0.314700  1
  N  N850  1  0.316600  0.485700  0.685300  1
  N  N851  1  0.469600  0.617900  0.274500  1
  N  N852  1  0.530400  0.382100  0.725500  1
  N  N853  1  0.565800  0.559500  0.409000  1
  N  N854  1  0.434200  0.440500  0.591000  1
  N  N855  1  0.851600  0.711400  0.352700  1
  N  N856  1  0.148400  0.288600  0.647300  1
  N  N857  1  0.695200  0.673600  0.223800  1
  N  N858  1  0.304800  0.326400  0.776200  1
  O  O859  1  0.326800  0.902400  0.957900  1
  O  O860  1  0.673200  0.097600  0.042100  1
  O  O861  1  0.277700  0.820900  0.875600  1
  O  O862  1  0.722300  0.179100  0.124400  1
  O  O863  1  0.412500  0.833000  0.039900  1
  O  O864  1  0.587500  0.167000  0.960100  1
  O  O865  1  0.450800  0.738900  0.990000  1
  O  O866  1  0.549200  0.261100  0.010000  1
  F  F867  1  0.910500  0.109900  0.197200  1
  F  F868  1  0.089500  0.890100  0.802800  1
  F  F869  1  0.593000  0.118300  0.714500  1
  F  F870  1  0.407000  0.881700  0.285500  1
  F  F871  1  0.627800  0.000000  0.366800  1
  F  F872  1  0.372200  0.000000  0.633200  1
  F  F873  1  0.932200  0.143400  0.978200  1
  F  F874  1  0.067800  0.856600  0.021800  1
  F  F875  1  0.991700  0.214200  0.531300  1
  F  F876  1  0.008300  0.785800  0.468700  1
  F  F877  1  0.998900  0.707300  0.047800  1
  F  F878  1  0.001100  0.292700  0.952200  1
  F  F879  1  0.948200  0.962500  0.850200  1
  F  F880  1  0.051800  0.037500  0.149800  1
  F  F881  1  0.683600  0.914400  0.776400  1
  F  F882  1  0.316400  0.085600  0.223600  1
  F  F883  1  0.982900  0.199300  0.672000  1
  F  F884  1  0.017100  0.800700  0.328000  1
  F  F885  1  0.942600  0.355700  0.135900  1
  F  F886  1  0.057400  0.644300  0.864100  1
  F  F887  1  0.994400  0.780600  0.844900  1
  F  F888  1  0.005600  0.219400  0.155100  1
  F  F889  1  0.977200  0.645100  0.381100  1
  F  F890  1  0.022800  0.354900  0.618900  1
  F  F891  1  0.693900  0.755200  0.346600  1
  F  F892  1  0.306100  0.244800  0.653400  1
  F  F893  1  0.687800  0.757900  0.438500  1
  F  F894  1  0.312200  0.242100  0.561500  1
  F  F895  1  0.597200  0.710400  0.377400  1
  F  F896  1  0.402800  0.289600  0.622600  1
  F  F897  1  0.688800  0.662600  0.398000  1
  F  F898  1  0.311200  0.337400  0.602000  1
  F  F899  1  0.172900  0.860300  0.134100  1
  F  F900  1  0.827100  0.139700  0.865900  1
  F  F901  1  0.103500  0.809500  0.199600  1
  F  F902  1  0.896500  0.190500  0.800400  1
  F  F903  1  0.082300  0.892800  0.153600  1
  F  F904  1  0.917700  0.107200  0.846400  1
  F  F905  1  0.182100  0.897700  0.219800  1
  F  F906  1  0.817900  0.102300  0.780200  1
  F  F907  1  0.149400  0.426300  0.414000  1
  F  F908  1  0.850600  0.573700  0.586000  1
  F  F909  1  0.057100  0.451900  0.362200  1
  F  F910  1  0.942900  0.548100  0.637800  1
  F  F911  1  0.107000  0.513800  0.439300  1
  F  F912  1  0.893000  0.486200  0.560700  1
  F  F913  1  0.048200  0.415100  0.447100  1
  F  F914  1  0.951800  0.584900  0.552900  1
  F  F915  1  0.432300  0.267100  0.267300  1
  F  F916  1  0.567700  0.732900  0.732700  1
  F  F917  1  0.537800  0.254000  0.255700  1
  F  F918  1  0.462200  0.746000  0.744300  1
  F  F919  1  0.450500  0.163700  0.249500  1
  F  F920  1  0.549500  0.836300  0.750500  1
  F  F921  1  0.487700  0.224400  0.330200  1
  F  F922  1  0.512300  0.775600  0.669800  1
  F  F923  1  0.886700  0.021400  0.341900  1
  F  F924  1  0.113300  0.978600  0.658100  1
  F  F925  1  0.969200  0.007600  0.406600  1
  F  F926  1  0.030800  0.992400  0.593400  1
  F  F927  1  0.951100  0.112000  0.400200  1
  F  F928  1  0.048900  0.888000  0.599800  1
  F  F929  1  0.871400  0.035400  0.430800  1
  F  F930  1  0.128600  0.964600  0.569200  1
  F  F931  1  0.223300  0.463600  0.000100  1
  F  F932  1  0.776700  0.536400  0.999900  1
  F  F933  1  0.186700  0.392800  0.070800  1
  F  F934  1  0.813300  0.607200  0.929200  1
  F  F935  1  0.123500  0.448600  0.018900  1
  F  F936  1  0.876500  0.551400  0.981100  1
  F  F937  1  0.155800  0.360300  0.979200  1
  F  F938  1  0.844200  0.639700  0.020800  1
  F  F939  1  0.372500  0.871500  0.437500  1
  F  F940  1  0.627500  0.128500  0.562500  1
  F  F941  1  0.370300  0.778300  0.479000  1
  F  F942  1  0.629700  0.221700  0.521000  1
  F  F943  1  0.437000  0.862500  0.533700  1
  F  F944  1  0.563000  0.137500  0.466300  1
  F  F945  1  0.327800  0.861200  0.523100  1
  F  F946  1  0.672200  0.138800  0.476900  1
  F  F947  1  0.189500  0.822100  0.957800  1
  F  F948  1  0.810500  0.177900  0.042200  1
  F  F949  1  0.216900  0.732100  0.939400  1
  F  F950  1  0.783100  0.267900  0.060600  1
  F  F951  1  0.258900  0.791500  0.021300  1
  F  F952  1  0.741100  0.208500  0.978700  1
  F  F953  1  0.512800  0.833800  0.923900  1
  F  F954  1  0.487200  0.166200  0.076100  1
  F  F955  1  0.478500  0.916100  0.962000  1
  F  F956  1  0.521500  0.083900  0.038000  1
  F  F957  1  0.555000  0.870600  0.007400  1
  F  F958  1  0.445000  0.129400  0.992600  1
  F  F959  1  0.381000  0.753100  0.035500  1
  F  F960  1  0.619000  0.246900  0.964500  1
  F  F961  1  0.327000  0.686000  0.960200  1
  F  F962  1  0.673000  0.314000  0.039800  1
  F  F963  1  0.423000  0.672000  0.016000  1
  F  F964  1  0.577000  0.328000  0.984000  1
  F  F965  1  0.316400  0.644800  0.041400  1
  F  F966  1  0.683600  0.355200  0.958600  1
  F  F967  1  0.387000  0.824000  0.890500  1
  F  F968  1  0.613000  0.176000  0.109500  1
  F  F969  1  0.365000  0.911000  0.931700  1
  F  F970  1  0.635000  0.089000  0.068300  1
  F  F971  1  0.284000  0.851000  0.869000  1
  F  F972  1  0.716000  0.149000  0.131000  1
  F  F973  1  0.373000  0.904000  0.832600  1
  F  F974  1  0.627000  0.096000  0.167400  1
  F  F975  1  0.431000  0.734000  0.027000  1
  F  F976  1  0.569000  0.266000  0.973000  1
  F  F977  1  0.368000  0.667000  0.963000  1
  F  F978  1  0.632000  0.333000  0.037000  1
  F  F979  1  0.325000  0.726000  0.035400  1
  F  F980  1  0.675000  0.274000  0.964600  1
  F  F981  1  0.361000  0.773000  0.958000  1
  F  F982  1  0.639000  0.227000  0.042000  1
  F  F983  1  0.891500  0.942700  0.847200  1
  F  F984  1  0.108500  0.057300  0.152800  1
  F  F985  1  0.987200  0.191200  0.634500  1
  F  F986  1  0.012800  0.808800  0.365500  1
  F  F987  1  0.034700  0.773500  0.888700  1
  F  F988  1  0.965300  0.226500  0.111300  1
  F  F989  1  0.727000  0.736000  0.385000  1
  F  F990  1  0.273000  0.264000  0.615000  1
  F  F991  1  0.627000  0.771000  0.352000  1
  F  F992  1  0.373000  0.229000  0.648000  1
  F  F993  1  0.629000  0.677000  0.400000  1
  F  F994  1  0.371000  0.323000  0.600000  1
  F  F995  1  0.651000  0.676000  0.311000  1
  F  F996  1  0.349000  0.324000  0.689000  1
  F  F997  1  0.111300  0.797600  0.160600  1
  F  F998  1  0.888700  0.202400  0.839400  1
  F  F999  1  0.150700  0.870300  0.232900  1
  F  F1000  1  0.849300  0.129700  0.767100  1
  F  F1001  1  0.082300  0.904400  0.164800  1
  F  F1002  1  0.917700  0.095600  0.835200  1
  F  F1003  1  0.187300  0.892300  0.155200  1
  F  F1004  1  0.812700  0.107700  0.844800  1
  F  F1005  1  0.457000  0.187000  0.223200  1
  F  F1006  1  0.543000  0.813000  0.776800  1
  F  F1007  1  0.482900  0.186000  0.313900  1
  F  F1008  1  0.517100  0.814000  0.686100  1
  F  F1009  1  0.867400  0.034500  0.348400  1
  F  F1010  1  0.132600  0.965500  0.651600  1
  F  F1011  1  0.907400  0.029900  0.445100  1
  F  F1012  1  0.092600  0.970100  0.554900  1
  F  F1013  1  0.951200  0.988300  0.374500  1
  F  F1014  1  0.048800  0.011700  0.625500  1
  F  F1015  1  0.964700  0.095800  0.386100  1
  F  F1016  1  0.035300  0.904200  0.613900  1
  F  F1017  1  0.391100  0.891700  0.459700  1
  F  F1018  1  0.608900  0.108300  0.540300  1
  F  F1019  1  0.341200  0.768900  0.457500  1
  F  F1020  1  0.658800  0.231100  0.542500  1
  F  F1021  1  0.426000  0.828000  0.510400  1
  F  F1022  1  0.574000  0.172000  0.489600  1
  F  F1023  1  0.305800  0.840100  0.495600  1
  F  F1024  1  0.694200  0.159900  0.504400  1
  F  F1025  1  0.680000  0.647000  0.241000  1
  F  F1026  1  0.320000  0.353000  0.759000  1
  F  F1027  1  0.606600  0.704000  0.215500  1
  F  F1028  1  0.393400  0.296000  0.784500  1
  F  F1029  1  0.700500  0.735700  0.183500  1
  F  F1030  1  0.299500  0.264300  0.816500  1
  F  F1031  1  0.698900  0.760400  0.272500  1
  F  F1032  1  0.301100  0.239600  0.727500  1
