# generated using pymatgen
data_Fe4B2H177C216S14N54(O14F25)2
_symmetry_space_group_name_H-M   'P 1'
_cell_length_a   25.16660000
_cell_length_b   25.50550000
_cell_length_c   37.06880000
_cell_angle_alpha   90.00000000
_cell_angle_beta   90.87100000
_cell_angle_gamma   90.00000000
_symmetry_Int_Tables_number   1
_chemical_formula_structural   Fe4B2H177C216S14N54(O14F25)2
_chemical_formula_sum   'Fe16 B8 H708 C864 S56 N216 O112 F200'
_cell_volume   23791.22102520
_cell_formula_units_Z   4
loop_
 _symmetry_equiv_pos_site_id
 _symmetry_equiv_pos_as_xyz
  1  'x, y, z'
loop_
 _atom_site_type_symbol
 _atom_site_label
 _atom_site_symmetry_multiplicity
 _atom_site_fract_x
 _atom_site_fract_y
 _atom_site_fract_z
 _atom_site_occupancy
  Fe  Fe1  1  0.388610  0.640450  0.560450  1
  Fe  Fe2  1  0.111390  0.140450  0.939550  1
  Fe  Fe3  1  0.611390  0.359550  0.439550  1
  Fe  Fe4  1  0.888610  0.859550  0.060450  1
  Fe  Fe5  1  0.618190  0.422260  0.844770  1
  Fe  Fe6  1  0.881810  0.922260  0.655230  1
  Fe  Fe7  1  0.381810  0.577740  0.155230  1
  Fe  Fe8  1  0.118190  0.077740  0.344770  1
  Fe  Fe9  1  0.473340  0.919830  0.850010  1
  Fe  Fe10  1  0.026660  0.419830  0.649990  1
  Fe  Fe11  1  0.526660  0.080170  0.149990  1
  Fe  Fe12  1  0.973340  0.580170  0.350010  1
  Fe  Fe13  1  0.106690  0.549380  0.851440  1
  Fe  Fe14  1  0.393310  0.049380  0.648560  1
  Fe  Fe15  1  0.893310  0.450620  0.148560  1
  Fe  Fe16  1  0.606690  0.950620  0.351440  1
  B  B17  1  0.290000  0.612600  0.801600  1
  B  B18  1  0.210000  0.112600  0.698400  1
  B  B19  1  0.710000  0.387400  0.198400  1
  B  B20  1  0.790000  0.887400  0.301600  1
  B  B21  1  0.603100  0.692900  0.711200  1
  B  B22  1  0.896900  0.192900  0.788800  1
  B  B23  1  0.396900  0.307100  0.288800  1
  B  B24  1  0.103100  0.807100  0.211200  1
  H  H25  1  0.467600  0.673500  0.464500  1
  H  H26  1  0.032400  0.173500  0.035500  1
  H  H27  1  0.532400  0.326500  0.535500  1
  H  H28  1  0.967600  0.826500  0.964500  1
  H  H29  1  0.444400  0.719900  0.412100  1
  H  H30  1  0.055600  0.219900  0.087900  1
  H  H31  1  0.555600  0.280100  0.587900  1
  H  H32  1  0.944400  0.780100  0.912100  1
  H  H33  1  0.343400  0.807000  0.468800  1
  H  H34  1  0.156600  0.307000  0.031200  1
  H  H35  1  0.656600  0.193000  0.531200  1
  H  H36  1  0.843400  0.693000  0.968800  1
  H  H37  1  0.367900  0.762900  0.521500  1
  H  H38  1  0.132100  0.262900  0.978500  1
  H  H39  1  0.632100  0.237100  0.478500  1
  H  H40  1  0.867900  0.737100  0.021500  1
  H  H41  1  0.404500  0.802600  0.386300  1
  H  H42  1  0.095500  0.302600  0.113700  1
  H  H43  1  0.595500  0.197400  0.613700  1
  H  H44  1  0.904500  0.697400  0.886300  1
  H  H45  1  0.360700  0.832300  0.409500  1
  H  H46  1  0.139300  0.332300  0.090500  1
  H  H47  1  0.639300  0.167700  0.590500  1
  H  H48  1  0.860700  0.667700  0.909500  1
  H  H49  1  0.346000  0.778500  0.389500  1
  H  H50  1  0.154000  0.278500  0.110500  1
  H  H51  1  0.654000  0.221500  0.610500  1
  H  H52  1  0.846000  0.721500  0.889500  1
  H  H53  1  0.508100  0.705200  0.526800  1
  H  H54  1  0.991900  0.205200  0.973200  1
  H  H55  1  0.491900  0.294800  0.473200  1
  H  H56  1  0.008100  0.794800  0.026800  1
  H  H57  1  0.576500  0.676300  0.577800  1
  H  H58  1  0.923500  0.176300  0.922200  1
  H  H59  1  0.423500  0.323700  0.422200  1
  H  H60  1  0.076500  0.823700  0.077800  1
  H  H61  1  0.590400  0.626700  0.629900  1
  H  H62  1  0.909600  0.126700  0.870100  1
  H  H63  1  0.409600  0.373300  0.370100  1
  H  H64  1  0.090400  0.873300  0.129900  1
  H  H65  1  0.438100  0.579500  0.624400  1
  H  H66  1  0.061900  0.079500  0.875600  1
  H  H67  1  0.561900  0.420500  0.375600  1
  H  H68  1  0.938100  0.920500  0.124400  1
  H  H69  1  0.596700  0.588400  0.681600  1
  H  H70  1  0.903300  0.088400  0.818400  1
  H  H71  1  0.403300  0.411600  0.318400  1
  H  H72  1  0.096700  0.911600  0.181600  1
  H  H73  1  0.602100  0.528600  0.729200  1
  H  H74  1  0.897900  0.028600  0.770800  1
  H  H75  1  0.397900  0.471400  0.270800  1
  H  H76  1  0.102100  0.971400  0.229200  1
  H  H77  1  0.585900  0.490100  0.779000  1
  H  H78  1  0.914100  0.990100  0.721000  1
  H  H79  1  0.414100  0.509900  0.221000  1
  H  H80  1  0.085900  0.009900  0.279000  1
  H  H81  1  0.473200  0.407000  0.726200  1
  H  H82  1  0.026800  0.907000  0.773800  1
  H  H83  1  0.526800  0.593000  0.273800  1
  H  H84  1  0.973200  0.093000  0.226200  1
  H  H85  1  0.483000  0.341500  0.769600  1
  H  H86  1  0.017000  0.841500  0.730400  1
  H  H87  1  0.517000  0.658500  0.230400  1
  H  H88  1  0.983000  0.158500  0.269600  1
  H  H89  1  0.537100  0.305100  0.824900  1
  H  H90  1  0.962900  0.805100  0.675100  1
  H  H91  1  0.462900  0.694900  0.175100  1
  H  H92  1  0.037100  0.194900  0.324900  1
  H  H93  1  0.556300  0.327200  0.911700  1
  H  H94  1  0.943700  0.827200  0.588300  1
  H  H95  1  0.443700  0.672800  0.088300  1
  H  H96  1  0.056300  0.172800  0.411700  1
  H  H97  1  0.581900  0.258800  0.950700  1
  H  H98  1  0.918100  0.758800  0.549300  1
  H  H99  1  0.418100  0.741200  0.049300  1
  H  H100  1  0.081900  0.241200  0.450700  1
  H  H101  1  0.693900  0.214800  0.883900  1
  H  H102  1  0.806100  0.714800  0.616100  1
  H  H103  1  0.306100  0.785200  0.116100  1
  H  H104  1  0.193900  0.285200  0.383900  1
  H  H105  1  0.666667  0.278000  0.842600  1
  H  H106  1  0.833333  0.778000  0.657400  1
  H  H107  1  0.333333  0.722000  0.157400  1
  H  H108  1  0.166667  0.222000  0.342600  1
  H  H109  1  0.689100  0.170800  0.938300  1
  H  H110  1  0.810900  0.670800  0.561700  1
  H  H111  1  0.310900  0.829200  0.061700  1
  H  H112  1  0.189100  0.329200  0.438300  1
  H  H113  1  0.632500  0.172900  0.957300  1
  H  H114  1  0.867500  0.672900  0.542700  1
  H  H115  1  0.367500  0.827100  0.042700  1
  H  H116  1  0.132500  0.327100  0.457300  1
  H  H117  1  0.679200  0.211200  0.970500  1
  H  H118  1  0.820800  0.711200  0.529500  1
  H  H119  1  0.320800  0.788800  0.029500  1
  H  H120  1  0.179200  0.288800  0.470500  1
  H  H121  1  0.500700  0.577300  0.520500  1
  H  H122  1  0.999300  0.077300  0.979500  1
  H  H123  1  0.499300  0.422700  0.479500  1
  H  H124  1  0.000700  0.922700  0.020500  1
  H  H125  1  0.545100  0.569400  0.466200  1
  H  H126  1  0.954900  0.069400  0.033800  1
  H  H127  1  0.454900  0.430600  0.533800  1
  H  H128  1  0.045100  0.930600  0.966200  1
  H  H129  1  0.408100  0.547700  0.413800  1
  H  H130  1  0.091900  0.047700  0.086200  1
  H  H131  1  0.591900  0.452300  0.586200  1
  H  H132  1  0.908100  0.952300  0.913800  1
  H  H133  1  0.362000  0.557700  0.467500  1
  H  H134  1  0.138000  0.057700  0.032500  1
  H  H135  1  0.638000  0.442300  0.532500  1
  H  H136  1  0.862000  0.942300  0.967500  1
  H  H137  1  0.536000  0.582800  0.397500  1
  H  H138  1  0.964000  0.082800  0.102500  1
  H  H139  1  0.464000  0.417200  0.602500  1
  H  H140  1  0.036000  0.917200  0.897500  1
  H  H141  1  0.483800  0.557900  0.379200  1
  H  H142  1  0.016200  0.057900  0.120800  1
  H  H143  1  0.516200  0.442100  0.620800  1
  H  H144  1  0.983800  0.942100  0.879200  1
  H  H145  1  0.527800  0.520600  0.397400  1
  H  H146  1  0.972200  0.020600  0.102600  1
  H  H147  1  0.472200  0.479400  0.602600  1
  H  H148  1  0.027800  0.979400  0.897400  1
  H  H149  1  0.380400  0.501300  0.535300  1
  H  H150  1  0.119600  0.001300  0.964700  1
  H  H151  1  0.619600  0.498700  0.464700  1
  H  H152  1  0.880400  0.998700  0.035300  1
  H  H153  1  0.321800  0.466600  0.588000  1
  H  H154  1  0.178200  0.966600  0.912000  1
  H  H155  1  0.678200  0.533400  0.412000  1
  H  H156  1  0.821800  0.033400  0.088000  1
  H  H157  1  0.273900  0.487500  0.639100  1
  H  H158  1  0.226100  0.987500  0.860900  1
  H  H159  1  0.726100  0.512500  0.360900  1
  H  H160  1  0.773900  0.012500  0.139100  1
  H  H161  1  0.321000  0.637600  0.629500  1
  H  H162  1  0.179000  0.137600  0.870500  1
  H  H163  1  0.679000  0.362400  0.370500  1
  H  H164  1  0.821000  0.862400  0.129500  1
  H  H165  1  0.290400  0.652700  0.680800  1
  H  H166  1  0.209600  0.152700  0.819200  1
  H  H167  1  0.709600  0.347300  0.319200  1
  H  H168  1  0.790400  0.847300  0.180800  1
  H  H169  1  0.230300  0.673900  0.725600  1
  H  H170  1  0.269700  0.173900  0.774400  1
  H  H171  1  0.769700  0.326100  0.274400  1
  H  H172  1  0.730300  0.826100  0.225600  1
  H  H173  1  0.173000  0.555000  0.781700  1
  H  H174  1  0.327000  0.055000  0.718300  1
  H  H175  1  0.827000  0.445000  0.218300  1
  H  H176  1  0.673000  0.945000  0.281700  1
  H  H177  1  0.108400  0.673000  0.724000  1
  H  H178  1  0.391600  0.173000  0.776000  1
  H  H179  1  0.891600  0.327000  0.276000  1
  H  H180  1  0.608400  0.827000  0.224000  1
  H  H181  1  0.045500  0.684000  0.769100  1
  H  H182  1  0.454500  0.184000  0.730900  1
  H  H183  1  0.954500  0.316000  0.230900  1
  H  H184  1  0.545500  0.816000  0.269100  1
  H  H185  1  0.008700  0.652500  0.830700  1
  H  H186  1  0.491300  0.152500  0.669300  1
  H  H187  1  0.991300  0.347500  0.169300  1
  H  H188  1  0.508700  0.847500  0.330700  1
  H  H189  1  0.049700  0.644500  0.917800  1
  H  H190  1  0.450300  0.144500  0.582200  1
  H  H191  1  0.950300  0.355500  0.082200  1
  H  H192  1  0.549700  0.855500  0.417800  1
  H  H193  1  0.993200  0.639200  0.967300  1
  H  H194  1  0.506800  0.139200  0.532700  1
  H  H195  1  0.006800  0.360800  0.032700  1
  H  H196  1  0.493200  0.860800  0.467300  1
  H  H197  1  0.893500  0.548900  0.910600  1
  H  H198  1  0.606500  0.048900  0.589400  1
  H  H199  1  0.106500  0.451100  0.089400  1
  H  H200  1  0.393500  0.951100  0.410600  1
  H  H201  1  0.951000  0.548900  0.861700  1
  H  H202  1  0.549000  0.048900  0.638300  1
  H  H203  1  0.049000  0.451100  0.138300  1
  H  H204  1  0.451000  0.951100  0.361700  1
  H  H205  1  0.910800  0.553900  0.989400  1
  H  H206  1  0.589200  0.053900  0.510600  1
  H  H207  1  0.089200  0.446100  0.010600  1
  H  H208  1  0.410800  0.946100  0.489400  1
  H  H209  1  0.865800  0.586400  0.968100  1
  H  H210  1  0.634200  0.086400  0.531900  1
  H  H211  1  0.134200  0.413600  0.031900  1
  H  H212  1  0.365800  0.913600  0.468100  1
  H  H213  1  0.908700  0.616500  0.992800  1
  H  H214  1  0.591300  0.116500  0.507200  1
  H  H215  1  0.091300  0.383500  0.007200  1
  H  H216  1  0.408700  0.883500  0.492800  1
  H  H217  1  0.314300  0.686900  0.469500  1
  H  H218  1  0.185700  0.186900  0.030500  1
  H  H219  1  0.685700  0.313100  0.530500  1
  H  H220  1  0.814300  0.813100  0.969500  1
  H  H221  1  0.276100  0.641200  0.421600  1
  H  H222  1  0.223900  0.141200  0.078400  1
  H  H223  1  0.723900  0.358800  0.578400  1
  H  H224  1  0.776100  0.858800  0.921600  1
  H  H225  1  0.225300  0.531000  0.488600  1
  H  H226  1  0.274700  0.031000  0.011400  1
  H  H227  1  0.774700  0.469000  0.511400  1
  H  H228  1  0.725300  0.969000  0.988600  1
  H  H229  1  0.264300  0.575200  0.536600  1
  H  H230  1  0.235700  0.075200  0.963400  1
  H  H231  1  0.735700  0.424800  0.463400  1
  H  H232  1  0.764300  0.924800  0.036600  1
  H  H233  1  0.193400  0.574400  0.407100  1
  H  H234  1  0.306600  0.074400  0.092900  1
  H  H235  1  0.806600  0.425600  0.592900  1
  H  H236  1  0.693400  0.925600  0.907100  1
  H  H237  1  0.206100  0.519900  0.426800  1
  H  H238  1  0.293900  0.019900  0.073200  1
  H  H239  1  0.793900  0.480100  0.573200  1
  H  H240  1  0.706100  0.980100  0.926800  1
  H  H241  1  0.248900  0.545400  0.400600  1
  H  H242  1  0.251100  0.045400  0.099400  1
  H  H243  1  0.751100  0.454600  0.599400  1
  H  H244  1  0.748900  0.954600  0.900600  1
  H  H245  1  0.260100  0.707000  0.547500  1
  H  H246  1  0.239900  0.207000  0.952500  1
  H  H247  1  0.739900  0.293000  0.452500  1
  H  H248  1  0.760100  0.793000  0.047500  1
  H  H249  1  0.268400  0.776300  0.601100  1
  H  H250  1  0.231600  0.276300  0.898900  1
  H  H251  1  0.731600  0.223700  0.398900  1
  H  H252  1  0.768400  0.723700  0.101100  1
  H  H253  1  0.322300  0.813300  0.645300  1
  H  H254  1  0.177700  0.313300  0.854700  1
  H  H255  1  0.677700  0.186700  0.354700  1
  H  H256  1  0.822300  0.686700  0.145300  1
  H  H257  1  0.436000  0.708800  0.620700  1
  H  H258  1  0.064000  0.208800  0.879300  1
  H  H259  1  0.564000  0.291200  0.379300  1
  H  H260  1  0.936000  0.791200  0.120700  1
  H  H261  1  0.491600  0.754700  0.648200  1
  H  H262  1  0.008400  0.254700  0.851800  1
  H  H263  1  0.508400  0.245300  0.351800  1
  H  H264  1  0.991600  0.745300  0.148200  1
  H  H265  1  0.544500  0.789900  0.694400  1
  H  H266  1  0.955500  0.289900  0.805600  1
  H  H267  1  0.455500  0.210100  0.305600  1
  H  H268  1  0.044500  0.710100  0.194400  1
  H  H269  1  0.446700  0.870800  0.776000  1
  H  H270  1  0.053300  0.370800  0.724000  1
  H  H271  1  0.553300  0.129200  0.224000  1
  H  H272  1  0.946700  0.629200  0.276000  1
  H  H273  1  0.587500  0.850000  0.728300  1
  H  H274  1  0.912500  0.350000  0.771700  1
  H  H275  1  0.412500  0.150000  0.271700  1
  H  H276  1  0.087500  0.650000  0.228300  1
  H  H277  1  0.628700  0.893000  0.776900  1
  H  H278  1  0.871300  0.393000  0.723100  1
  H  H279  1  0.371300  0.107000  0.223100  1
  H  H280  1  0.128700  0.607000  0.276900  1
  H  H281  1  0.617900  0.935700  0.840600  1
  H  H282  1  0.882100  0.435700  0.659400  1
  H  H283  1  0.382100  0.064300  0.159400  1
  H  H284  1  0.117900  0.564300  0.340600  1
  H  H285  1  0.561400  0.901700  0.926000  1
  H  H286  1  0.938600  0.401700  0.574000  1
  H  H287  1  0.438600  0.098300  0.074000  1
  H  H288  1  0.061400  0.598300  0.426000  1
  H  H289  1  0.593100  0.942700  0.978500  1
  H  H290  1  0.906900  0.442700  0.521500  1
  H  H291  1  0.406900  0.057300  0.021500  1
  H  H292  1  0.093100  0.557300  0.478500  1
  H  H293  1  0.609400  0.077200  0.924200  1
  H  H294  1  0.890600  0.577200  0.575800  1
  H  H295  1  0.390600  0.922800  0.075800  1
  H  H296  1  0.109400  0.422800  0.424200  1
  H  H297  1  0.578300  0.037700  0.871500  1
  H  H298  1  0.921700  0.537700  0.628500  1
  H  H299  1  0.421700  0.962300  0.128500  1
  H  H300  1  0.078300  0.462300  0.371500  1
  H  H301  1  0.616200  0.020200  0.011300  1
  H  H302  1  0.883800  0.520200  0.488700  1
  H  H303  1  0.383800  0.979800  0.988700  1
  H  H304  1  0.116200  0.479800  0.511300  1
  H  H305  1  0.610000  0.076000  0.991900  1
  H  H306  1  0.890000  0.576000  0.508100  1
  H  H307  1  0.390000  0.924000  0.008100  1
  H  H308  1  0.110000  0.424000  0.491900  1
  H  H309  1  0.664500  0.044000  0.989100  1
  H  H310  1  0.835500  0.544000  0.510900  1
  H  H311  1  0.335500  0.956000  0.010900  1
  H  H312  1  0.164500  0.456000  0.489100  1
  H  H313  1  0.634500  0.341600  0.769700  1
  H  H314  1  0.865500  0.841600  0.730300  1
  H  H315  1  0.365500  0.658400  0.230300  1
  H  H316  1  0.134500  0.158400  0.269700  1
  H  H317  1  0.663000  0.259100  0.751800  1
  H  H318  1  0.837000  0.759100  0.748200  1
  H  H319  1  0.337000  0.740900  0.248200  1
  H  H320  1  0.163000  0.240900  0.251800  1
  H  H321  1  0.797900  0.275800  0.808500  1
  H  H322  1  0.702100  0.775800  0.691500  1
  H  H323  1  0.202100  0.724200  0.191500  1
  H  H324  1  0.297900  0.224200  0.308500  1
  H  H325  1  0.767200  0.356600  0.830400  1
  H  H326  1  0.732800  0.856600  0.669600  1
  H  H327  1  0.232800  0.643400  0.169600  1
  H  H328  1  0.267200  0.143400  0.330400  1
  H  H329  1  0.719500  0.184000  0.758800  1
  H  H330  1  0.780500  0.684000  0.741200  1
  H  H331  1  0.280500  0.816000  0.241200  1
  H  H332  1  0.219500  0.316000  0.258800  1
  H  H333  1  0.768900  0.187000  0.786500  1
  H  H334  1  0.731100  0.687000  0.713500  1
  H  H335  1  0.231100  0.813000  0.213500  1
  H  H336  1  0.268900  0.313000  0.286500  1
  H  H337  1  0.774800  0.208400  0.746200  1
  H  H338  1  0.725200  0.708400  0.753800  1
  H  H339  1  0.225200  0.791600  0.253800  1
  H  H340  1  0.274800  0.291600  0.246200  1
  H  H341  1  0.732500  0.444900  0.786100  1
  H  H342  1  0.767500  0.944900  0.713900  1
  H  H343  1  0.267500  0.555100  0.213900  1
  H  H344  1  0.232500  0.055100  0.286100  1
  H  H345  1  0.726900  0.546500  0.780300  1
  H  H346  1  0.773100  0.046500  0.719700  1
  H  H347  1  0.273100  0.453500  0.219700  1
  H  H348  1  0.226900  0.953500  0.280300  1
  H  H349  1  0.680600  0.622800  0.794900  1
  H  H350  1  0.819400  0.122800  0.705100  1
  H  H351  1  0.319400  0.377200  0.205100  1
  H  H352  1  0.180600  0.877200  0.294900  1
  H  H353  1  0.591900  0.539100  0.863500  1
  H  H354  1  0.908100  0.039100  0.636500  1
  H  H355  1  0.408100  0.460900  0.136500  1
  H  H356  1  0.091900  0.960900  0.363500  1
  H  H357  1  0.592300  0.667200  0.790400  1
  H  H358  1  0.907700  0.167200  0.709600  1
  H  H359  1  0.407700  0.332800  0.209600  1
  H  H360  1  0.092300  0.832800  0.290400  1
  H  H361  1  0.539900  0.737800  0.809700  1
  H  H362  1  0.960100  0.237800  0.690300  1
  H  H363  1  0.460100  0.262200  0.190300  1
  H  H364  1  0.039900  0.762200  0.309700  1
  H  H365  1  0.522700  0.810800  0.836200  1
  H  H366  1  0.977300  0.310800  0.663800  1
  H  H367  1  0.477300  0.189200  0.163800  1
  H  H368  1  0.022700  0.689200  0.336200  1
  H  H369  1  0.496900  0.727800  0.926400  1
  H  H370  1  0.003100  0.227800  0.573600  1
  H  H371  1  0.503100  0.272200  0.073600  1
  H  H372  1  0.996900  0.772200  0.426400  1
  H  H373  1  0.456700  0.801900  0.950700  1
  H  H374  1  0.043300  0.301900  0.549300  1
  H  H375  1  0.543300  0.198100  0.049300  1
  H  H376  1  0.956700  0.698100  0.450700  1
  H  H377  1  0.429800  0.899800  0.943300  1
  H  H378  1  0.070200  0.399800  0.556700  1
  H  H379  1  0.570200  0.100200  0.056700  1
  H  H380  1  0.929800  0.600200  0.443300  1
  H  H381  1  0.485500  0.007200  0.940500  1
  H  H382  1  0.014500  0.507200  0.559500  1
  H  H383  1  0.514500  0.992800  0.059500  1
  H  H384  1  0.985500  0.492800  0.440500  1
  H  H385  1  0.449400  0.087400  0.958500  1
  H  H386  1  0.050600  0.587400  0.541500  1
  H  H387  1  0.550600  0.912600  0.041500  1
  H  H388  1  0.949400  0.412600  0.458500  1
  H  H389  1  0.316000  0.055300  0.903600  1
  H  H390  1  0.184000  0.555300  0.596400  1
  H  H391  1  0.684000  0.944700  0.096400  1
  H  H392  1  0.816000  0.444700  0.403600  1
  H  H393  1  0.351500  0.976200  0.883800  1
  H  H394  1  0.148500  0.476200  0.616200  1
  H  H395  1  0.648500  0.023800  0.116200  1
  H  H396  1  0.851500  0.523800  0.383800  1
  H  H397  1  0.326400  0.141400  0.930300  1
  H  H398  1  0.173600  0.641400  0.569700  1
  H  H399  1  0.673600  0.858600  0.069700  1
  H  H400  1  0.826400  0.358600  0.430300  1
  H  H401  1  0.383900  0.158100  0.945400  1
  H  H402  1  0.116100  0.658100  0.554600  1
  H  H403  1  0.616100  0.841900  0.054600  1
  H  H404  1  0.883900  0.341900  0.445400  1
  H  H405  1  0.344000  0.126400  0.970600  1
  H  H406  1  0.156000  0.626400  0.529400  1
  H  H407  1  0.656000  0.873600  0.029400  1
  H  H408  1  0.844000  0.373600  0.470600  1
  H  H409  1  0.016600  0.506800  0.938100  1
  H  H410  1  0.483400  0.006800  0.561900  1
  H  H411  1  0.983400  0.493200  0.061900  1
  H  H412  1  0.516600  0.993200  0.438100  1
  H  H413  1  0.977500  0.429000  0.956600  1
  H  H414  1  0.522500  0.929000  0.543400  1
  H  H415  1  0.022500  0.571000  0.043400  1
  H  H416  1  0.477500  0.071000  0.456600  1
  H  H417  1  0.093800  0.346700  0.911400  1
  H  H418  1  0.406200  0.846700  0.588600  1
  H  H419  1  0.906200  0.653300  0.088600  1
  H  H420  1  0.593800  0.153300  0.411400  1
  H  H421  1  0.134200  0.424000  0.893200  1
  H  H422  1  0.365800  0.924000  0.606800  1
  H  H423  1  0.865800  0.576000  0.106800  1
  H  H424  1  0.634200  0.076000  0.393200  1
  H  H425  1  0.031900  0.300700  0.943400  1
  H  H426  1  0.468100  0.800700  0.556600  1
  H  H427  1  0.968100  0.699300  0.056600  1
  H  H428  1  0.531900  0.199300  0.443400  1
  H  H429  1  0.974800  0.321700  0.930500  1
  H  H430  1  0.525200  0.821700  0.569500  1
  H  H431  1  0.025200  0.678300  0.069500  1
  H  H432  1  0.474800  0.178300  0.430500  1
  H  H433  1  0.994700  0.330900  0.971200  1
  H  H434  1  0.505300  0.830900  0.528800  1
  H  H435  1  0.005300  0.669100  0.028800  1
  H  H436  1  0.494700  0.169100  0.471200  1
  H  H437  1  0.124800  0.538600  0.949700  1
  H  H438  1  0.375200  0.038600  0.550300  1
  H  H439  1  0.875200  0.461400  0.050300  1
  H  H440  1  0.624800  0.961400  0.449700  1
  H  H441  1  0.185800  0.621600  0.961200  1
  H  H442  1  0.314200  0.121600  0.538800  1
  H  H443  1  0.814200  0.378400  0.038800  1
  H  H444  1  0.685800  0.878400  0.461200  1
  H  H445  1  0.231700  0.691700  0.935800  1
  H  H446  1  0.268300  0.191700  0.564200  1
  H  H447  1  0.768300  0.308300  0.064200  1
  H  H448  1  0.731700  0.808300  0.435800  1
  H  H449  1  0.174900  0.648100  0.837900  1
  H  H450  1  0.325100  0.148100  0.662100  1
  H  H451  1  0.825100  0.351900  0.162100  1
  H  H452  1  0.674900  0.851900  0.337900  1
  H  H453  1  0.187600  0.730100  0.822200  1
  H  H454  1  0.312400  0.230100  0.677800  1
  H  H455  1  0.812400  0.269900  0.177800  1
  H  H456  1  0.687600  0.769900  0.322200  1
  H  H457  1  0.234700  0.800600  0.798400  1
  H  H458  1  0.265300  0.300600  0.701600  1
  H  H459  1  0.765300  0.199400  0.201600  1
  H  H460  1  0.734700  0.699400  0.298400  1
  H  H461  1  0.389500  0.830000  0.855600  1
  H  H462  1  0.110500  0.330000  0.644400  1
  H  H463  1  0.610500  0.170000  0.144400  1
  H  H464  1  0.889500  0.670000  0.355600  1
  H  H465  1  0.263600  0.880700  0.796900  1
  H  H466  1  0.236400  0.380700  0.703100  1
  H  H467  1  0.736400  0.119300  0.203100  1
  H  H468  1  0.763600  0.619300  0.296900  1
  H  H469  1  0.309900  0.957700  0.784800  1
  H  H470  1  0.190100  0.457700  0.715200  1
  H  H471  1  0.690100  0.042300  0.215200  1
  H  H472  1  0.809900  0.542300  0.284800  1
  H  H473  1  0.395200  0.013500  0.795900  1
  H  H474  1  0.104800  0.513500  0.704100  1
  H  H475  1  0.604800  0.986500  0.204100  1
  H  H476  1  0.895200  0.486500  0.295900  1
  H  H477  1  0.537600  0.009500  0.790200  1
  H  H478  1  0.962400  0.509500  0.709800  1
  H  H479  1  0.462400  0.990500  0.209800  1
  H  H480  1  0.037600  0.490500  0.290200  1
  H  H481  1  0.580900  0.090900  0.785300  1
  H  H482  1  0.919100  0.590900  0.714700  1
  H  H483  1  0.419100  0.909100  0.214700  1
  H  H484  1  0.080900  0.409100  0.285300  1
  H  H485  1  0.477900  0.155000  0.852100  1
  H  H486  1  0.022100  0.655000  0.647900  1
  H  H487  1  0.522100  0.845000  0.147900  1
  H  H488  1  0.977900  0.345000  0.352100  1
  H  H489  1  0.432300  0.076100  0.857600  1
  H  H490  1  0.067700  0.576100  0.642400  1
  H  H491  1  0.567700  0.923900  0.142400  1
  H  H492  1  0.932300  0.423900  0.357600  1
  H  H493  1  0.566300  0.198600  0.837800  1
  H  H494  1  0.933700  0.698600  0.662200  1
  H  H495  1  0.433700  0.801400  0.162200  1
  H  H496  1  0.066300  0.301400  0.337800  1
  H  H497  1  0.538700  0.207400  0.799100  1
  H  H498  1  0.961300  0.707400  0.700900  1
  H  H499  1  0.461300  0.792600  0.200900  1
  H  H500  1  0.038700  0.292600  0.299100  1
  H  H501  1  0.594800  0.178100  0.802100  1
  H  H502  1  0.905200  0.678100  0.697900  1
  H  H503  1  0.405200  0.821900  0.197900  1
  H  H504  1  0.094800  0.321900  0.302100  1
  H  H505  1  0.005600  0.426000  0.857400  1
  H  H506  1  0.494400  0.926000  0.642600  1
  H  H507  1  0.994400  0.574000  0.142600  1
  H  H508  1  0.505600  0.074000  0.357400  1
  H  H509  1  0.915300  0.412500  0.847600  1
  H  H510  1  0.584700  0.912500  0.652400  1
  H  H511  1  0.084700  0.587500  0.152400  1
  H  H512  1  0.415300  0.087500  0.347600  1
  H  H513  1  0.912700  0.522900  0.771000  1
  H  H514  1  0.587300  0.022900  0.729000  1
  H  H515  1  0.087300  0.477100  0.229000  1
  H  H516  1  0.412700  0.977100  0.271000  1
  H  H517  1  0.002800  0.539400  0.781800  1
  H  H518  1  0.497200  0.039400  0.718200  1
  H  H519  1  0.997200  0.460600  0.218200  1
  H  H520  1  0.502800  0.960600  0.281800  1
  H  H521  1  0.839900  0.420200  0.799300  1
  H  H522  1  0.660100  0.920200  0.700700  1
  H  H523  1  0.160100  0.579800  0.200700  1
  H  H524  1  0.339900  0.079800  0.299300  1
  H  H525  1  0.834600  0.476900  0.781200  1
  H  H526  1  0.665400  0.976900  0.718800  1
  H  H527  1  0.165400  0.523100  0.218800  1
  H  H528  1  0.334600  0.023100  0.281200  1
  H  H529  1  0.826300  0.470100  0.823600  1
  H  H530  1  0.673700  0.970100  0.676400  1
  H  H531  1  0.173700  0.529900  0.176400  1
  H  H532  1  0.326300  0.029900  0.323600  1
  H  H533  1  0.085400  0.429400  0.798800  1
  H  H534  1  0.414600  0.929400  0.701200  1
  H  H535  1  0.914600  0.570600  0.201200  1
  H  H536  1  0.585400  0.070600  0.298800  1
  H  H537  1  0.183700  0.395900  0.794700  1
  H  H538  1  0.316300  0.895900  0.705300  1
  H  H539  1  0.816300  0.604100  0.205300  1
  H  H540  1  0.683700  0.104100  0.294700  1
  H  H541  1  0.271100  0.407400  0.813300  1
  H  H542  1  0.228900  0.907400  0.686700  1
  H  H543  1  0.728900  0.592600  0.186700  1
  H  H544  1  0.771100  0.092600  0.313300  1
  H  H545  1  0.228300  0.537400  0.866800  1
  H  H546  1  0.271700  0.037400  0.633200  1
  H  H547  1  0.771700  0.462600  0.133200  1
  H  H548  1  0.728300  0.962600  0.366800  1
  H  H549  1  0.301700  0.525500  0.899200  1
  H  H550  1  0.198300  0.025500  0.600800  1
  H  H551  1  0.698300  0.474500  0.100800  1
  H  H552  1  0.801700  0.974500  0.399200  1
  H  H553  1  0.389800  0.519200  0.920700  1
  H  H554  1  0.110200  0.019200  0.579300  1
  H  H555  1  0.610200  0.480800  0.079300  1
  H  H556  1  0.889800  0.980800  0.420700  1
  H  H557  1  0.500200  0.455600  0.841100  1
  H  H558  1  0.999800  0.955600  0.658900  1
  H  H559  1  0.499800  0.544400  0.158900  1
  H  H560  1  0.000200  0.044400  0.341100  1
  H  H561  1  0.455000  0.464900  0.944800  1
  H  H562  1  0.045000  0.964900  0.555200  1
  H  H563  1  0.545000  0.535100  0.055200  1
  H  H564  1  0.955000  0.035100  0.444800  1
  H  H565  1  0.541800  0.443800  0.962800  1
  H  H566  1  0.958200  0.943800  0.537200  1
  H  H567  1  0.458200  0.556200  0.037200  1
  H  H568  1  0.041800  0.056200  0.462800  1
  H  H569  1  0.639200  0.426500  0.943300  1
  H  H570  1  0.860800  0.926500  0.556700  1
  H  H571  1  0.360800  0.573500  0.056700  1
  H  H572  1  0.139200  0.073500  0.443300  1
  H  H573  1  0.695600  0.345800  0.933600  1
  H  H574  1  0.804400  0.845800  0.566400  1
  H  H575  1  0.304400  0.654200  0.066400  1
  H  H576  1  0.195600  0.154200  0.433600  1
  H  H577  1  0.783900  0.334900  0.953700  1
  H  H578  1  0.716100  0.834900  0.546300  1
  H  H579  1  0.216100  0.665100  0.046300  1
  H  H580  1  0.283900  0.165100  0.453700  1
  H  H581  1  0.828800  0.456100  0.893500  1
  H  H582  1  0.671200  0.956100  0.606500  1
  H  H583  1  0.171200  0.543900  0.106500  1
  H  H584  1  0.328800  0.043900  0.393500  1
  H  H585  1  0.741900  0.468800  0.872300  1
  H  H586  1  0.758100  0.968800  0.627700  1
  H  H587  1  0.258100  0.531200  0.127700  1
  H  H588  1  0.241900  0.031200  0.372300  1
  H  H589  1  0.876200  0.420500  0.958700  1
  H  H590  1  0.623800  0.920500  0.541300  1
  H  H591  1  0.123800  0.579500  0.041300  1
  H  H592  1  0.376200  0.079500  0.458700  1
  H  H593  1  0.895300  0.394100  0.921900  1
  H  H594  1  0.604700  0.894100  0.578100  1
  H  H595  1  0.104700  0.605900  0.078100  1
  H  H596  1  0.395300  0.105900  0.421900  1
  H  H597  1  0.874300  0.358100  0.954100  1
  H  H598  1  0.625700  0.858100  0.545900  1
  H  H599  1  0.125700  0.641900  0.045900  1
  H  H600  1  0.374300  0.141900  0.454100  1
  H  H601  1  0.437900  0.659500  0.838600  1
  H  H602  1  0.062100  0.159500  0.661400  1
  H  H603  1  0.562100  0.340500  0.161400  1
  H  H604  1  0.937900  0.840500  0.338600  1
  H  H605  1  0.443400  0.627100  0.875400  1
  H  H606  1  0.056600  0.127100  0.624600  1
  H  H607  1  0.556600  0.372900  0.124600  1
  H  H608  1  0.943400  0.872900  0.375400  1
  H  H609  1  0.395600  0.614700  0.847800  1
  H  H610  1  0.104400  0.114700  0.652200  1
  H  H611  1  0.604400  0.385300  0.152200  1
  H  H612  1  0.895600  0.885300  0.347800  1
  H  H613  1  0.433800  0.642400  0.764100  1
  H  H614  1  0.066200  0.142400  0.735900  1
  H  H615  1  0.566200  0.357600  0.235900  1
  H  H616  1  0.933800  0.857600  0.264100  1
  H  H617  1  0.488700  0.652200  0.744000  1
  H  H618  1  0.011300  0.152200  0.756000  1
  H  H619  1  0.511300  0.347800  0.256000  1
  H  H620  1  0.988700  0.847800  0.244000  1
  H  H621  1  0.463800  0.594500  0.745400  1
  H  H622  1  0.036200  0.094500  0.754600  1
  H  H623  1  0.536200  0.405500  0.254600  1
  H  H624  1  0.963800  0.905500  0.245400  1
  H  H625  1  0.711400  0.770300  0.615700  1
  H  H626  1  0.788600  0.270300  0.884300  1
  H  H627  1  0.288600  0.229700  0.384300  1
  H  H628  1  0.211400  0.729700  0.115700  1
  H  H629  1  0.673800  0.740400  0.587300  1
  H  H630  1  0.826200  0.240400  0.912700  1
  H  H631  1  0.326200  0.259600  0.412700  1
  H  H632  1  0.173800  0.759600  0.087300  1
  H  H633  1  0.679500  0.719000  0.627700  1
  H  H634  1  0.820500  0.219000  0.872300  1
  H  H635  1  0.320500  0.281000  0.372300  1
  H  H636  1  0.179500  0.781000  0.127700  1
  H  H637  1  0.383000  0.857400  0.319200  1
  H  H638  1  0.117000  0.357400  0.180800  1
  H  H639  1  0.617000  0.142600  0.680800  1
  H  H640  1  0.883000  0.642600  0.819200  1
  H  H641  1  0.340100  0.872200  0.288600  1
  H  H642  1  0.159900  0.372200  0.211400  1
  H  H643  1  0.659900  0.127800  0.711400  1
  H  H644  1  0.840100  0.627800  0.788600  1
  H  H645  1  0.324800  0.832200  0.320000  1
  H  H646  1  0.175200  0.332200  0.180000  1
  H  H647  1  0.675200  0.167800  0.680000  1
  H  H648  1  0.824800  0.667800  0.820000  1
  H  H649  1  0.319200  0.808800  0.940200  1
  H  H650  1  0.180800  0.308800  0.559800  1
  H  H651  1  0.680800  0.191200  0.059800  1
  H  H652  1  0.819200  0.691200  0.440200  1
  H  H653  1  0.268900  0.822400  0.964400  1
  H  H654  1  0.231100  0.322400  0.535600  1
  H  H655  1  0.731100  0.177600  0.035600  1
  H  H656  1  0.768900  0.677600  0.464400  1
  H  H657  1  0.323700  0.853000  0.970800  1
  H  H658  1  0.176300  0.353000  0.529200  1
  H  H659  1  0.676300  0.147000  0.029200  1
  H  H660  1  0.823700  0.647000  0.470800  1
  H  H661  1  0.679000  0.780100  0.921700  1
  H  H662  1  0.821000  0.280100  0.578300  1
  H  H663  1  0.321000  0.219900  0.078300  1
  H  H664  1  0.179000  0.719900  0.421700  1
  H  H665  1  0.689600  0.751300  0.959500  1
  H  H666  1  0.810400  0.251300  0.540500  1
  H  H667  1  0.310400  0.248700  0.040500  1
  H  H668  1  0.189600  0.748700  0.459500  1
  H  H669  1  0.644300  0.730100  0.932400  1
  H  H670  1  0.855700  0.230100  0.567600  1
  H  H671  1  0.355700  0.269900  0.067600  1
  H  H672  1  0.144300  0.769900  0.432400  1
  H  H673  1  0.353500  0.731500  0.731900  1
  H  H674  1  0.146500  0.231500  0.768100  1
  H  H675  1  0.646500  0.268500  0.268100  1
  H  H676  1  0.853500  0.768500  0.231900  1
  H  H677  1  0.326100  0.778200  0.753700  1
  H  H678  1  0.173900  0.278200  0.746300  1
  H  H679  1  0.673900  0.221800  0.246300  1
  H  H680  1  0.826100  0.721800  0.253700  1
  H  H681  1  0.321700  0.719100  0.767900  1
  H  H682  1  0.178300  0.219100  0.732100  1
  H  H683  1  0.678300  0.280900  0.232100  1
  H  H684  1  0.821700  0.780900  0.267900  1
  H  H685  1  0.390900  0.482700  0.769900  1
  H  H686  1  0.109100  0.982700  0.730100  1
  H  H687  1  0.609100  0.517300  0.230100  1
  H  H688  1  0.890900  0.017300  0.269900  1
  H  H689  1  0.358100  0.535800  0.763700  1
  H  H690  1  0.141900  0.035800  0.736300  1
  H  H691  1  0.641900  0.464200  0.236300  1
  H  H692  1  0.858100  0.964200  0.263700  1
  H  H693  1  0.398100  0.515500  0.733500  1
  H  H694  1  0.101900  0.015500  0.766500  1
  H  H695  1  0.601900  0.484500  0.266500  1
  H  H696  1  0.898100  0.984500  0.233500  1
  H  H697  1  0.699300  0.791500  0.791700  1
  H  H698  1  0.800700  0.291500  0.708300  1
  H  H699  1  0.300700  0.208500  0.208300  1
  H  H700  1  0.199300  0.708500  0.291700  1
  H  H701  1  0.742900  0.798700  0.823200  1
  H  H702  1  0.757100  0.298700  0.676800  1
  H  H703  1  0.257100  0.201300  0.176800  1
  H  H704  1  0.242900  0.701300  0.323200  1
  H  H705  1  0.709100  0.745600  0.820500  1
  H  H706  1  0.790900  0.245600  0.679500  1
  H  H707  1  0.290900  0.254400  0.179500  1
  H  H708  1  0.209100  0.754400  0.320500  1
  H  H709  1  0.684500  0.597700  0.915800  1
  H  H710  1  0.815500  0.097700  0.584200  1
  H  H711  1  0.315500  0.402300  0.084200  1
  H  H712  1  0.184500  0.902300  0.415800  1
  H  H713  1  0.730300  0.622700  0.940700  1
  H  H714  1  0.769700  0.122700  0.559300  1
  H  H715  1  0.269700  0.377300  0.059300  1
  H  H716  1  0.230300  0.877300  0.440700  1
  H  H717  1  0.745300  0.582500  0.909300  1
  H  H718  1  0.754700  0.082500  0.590700  1
  H  H719  1  0.254700  0.417500  0.090700  1
  H  H720  1  0.245300  0.917500  0.409300  1
  H  H721  1  0.601100  0.791500  0.848000  1
  H  H722  1  0.898900  0.291500  0.652000  1
  H  H723  1  0.398900  0.208500  0.152000  1
  H  H724  1  0.101100  0.708500  0.348000  1
  H  H725  1  0.654500  0.812000  0.867200  1
  H  H726  1  0.845500  0.312000  0.632800  1
  H  H727  1  0.345500  0.188000  0.132800  1
  H  H728  1  0.154500  0.688000  0.367200  1
  H  H729  1  0.622700  0.849200  0.839600  1
  H  H730  1  0.877300  0.349200  0.660400  1
  H  H731  1  0.377300  0.150800  0.160400  1
  H  H732  1  0.122700  0.650800  0.339600  1
  C  C733  1  0.419500  0.713400  0.498000  1
  C  C734  1  0.080500  0.213400  0.002000  1
  C  C735  1  0.580500  0.286600  0.502000  1
  C  C736  1  0.919500  0.786600  0.998000  1
  C  C737  1  0.442200  0.701000  0.465600  1
  C  C738  1  0.057800  0.201000  0.034400  1
  C  C739  1  0.557800  0.299000  0.534400  1
  C  C740  1  0.942200  0.799000  0.965600  1
  C  C741  1  0.428200  0.728600  0.434300  1
  C  C742  1  0.071800  0.228600  0.065700  1
  C  C743  1  0.571800  0.271400  0.565700  1
  C  C744  1  0.928200  0.771400  0.934300  1
  C  C745  1  0.391700  0.767600  0.435400  1
  C  C746  1  0.108300  0.267600  0.064600  1
  C  C747  1  0.608300  0.232400  0.564600  1
  C  C748  1  0.891700  0.732400  0.935400  1
  C  C749  1  0.369200  0.779900  0.467800  1
  C  C750  1  0.130800  0.279900  0.032200  1
  C  C751  1  0.630800  0.220100  0.532200  1
  C  C752  1  0.869200  0.720100  0.967800  1
  C  C753  1  0.383300  0.753300  0.499200  1
  C  C754  1  0.116700  0.253300  0.000800  1
  C  C755  1  0.616700  0.246700  0.500800  1
  C  C756  1  0.883300  0.746700  0.999200  1
  C  C757  1  0.374200  0.797900  0.402300  1
  C  C758  1  0.125800  0.297900  0.097700  1
  C  C759  1  0.625800  0.202100  0.597700  1
  C  C760  1  0.874200  0.702100  0.902300  1
  C  C761  1  0.482800  0.685800  0.540000  1
  C  C762  1  0.017200  0.185800  0.960000  1
  C  C763  1  0.517200  0.314200  0.460000  1
  C  C764  1  0.982800  0.814200  0.040000  1
  C  C765  1  0.498400  0.656800  0.572000  1
  C  C766  1  0.001600  0.156800  0.928000  1
  C  C767  1  0.501600  0.343200  0.428000  1
  C  C768  1  0.998400  0.843200  0.072000  1
  C  C769  1  0.548300  0.656500  0.587700  1
  C  C770  1  0.951700  0.156500  0.912300  1
  C  C771  1  0.451700  0.343500  0.412300  1
  C  C772  1  0.048300  0.843500  0.087700  1
  C  C773  1  0.556500  0.626600  0.618300  1
  C  C774  1  0.943500  0.126600  0.881700  1
  C  C775  1  0.443500  0.373400  0.381700  1
  C  C776  1  0.056500  0.873400  0.118300  1
  C  C777  1  0.516400  0.596800  0.632300  1
  C  C778  1  0.983600  0.096800  0.867700  1
  C  C779  1  0.483600  0.403200  0.367700  1
  C  C780  1  0.016400  0.903200  0.132300  1
  C  C781  1  0.466500  0.599500  0.614900  1
  C  C782  1  0.033500  0.099500  0.885100  1
  C  C783  1  0.533500  0.400500  0.385100  1
  C  C784  1  0.966500  0.900500  0.114900  1
  C  C785  1  0.523200  0.563600  0.664800  1
  C  C786  1  0.976800  0.063600  0.835200  1
  C  C787  1  0.476800  0.436400  0.335200  1
  C  C788  1  0.023200  0.936400  0.164800  1
  C  C789  1  0.568600  0.564500  0.686100  1
  C  C790  1  0.931400  0.064500  0.813900  1
  C  C791  1  0.431400  0.435500  0.313900  1
  C  C792  1  0.068600  0.935500  0.186100  1
  C  C793  1  0.571500  0.529700  0.713800  1
  C  C794  1  0.928500  0.029700  0.786200  1
  C  C795  1  0.428500  0.470300  0.286200  1
  C  C796  1  0.071500  0.970300  0.213800  1
  C  C797  1  0.529700  0.496100  0.719500  1
  C  C798  1  0.970300  0.996100  0.780500  1
  C  C799  1  0.470300  0.503900  0.280500  1
  C  C800  1  0.029700  0.003900  0.219500  1
  C  C801  1  0.565200  0.459100  0.776800  1
  C  C802  1  0.934800  0.959100  0.723200  1
  C  C803  1  0.434800  0.540900  0.223200  1
  C  C804  1  0.065200  0.040900  0.276800  1
  C  C805  1  0.530000  0.454700  0.747600  1
  C  C806  1  0.970000  0.954700  0.752400  1
  C  C807  1  0.470000  0.545300  0.252400  1
  C  C808  1  0.030000  0.045300  0.247600  1
  C  C809  1  0.498600  0.410700  0.745300  1
  C  C810  1  0.001400  0.910700  0.754700  1
  C  C811  1  0.501400  0.589300  0.254700  1
  C  C812  1  0.998600  0.089300  0.245300  1
  C  C813  1  0.504600  0.372000  0.770800  1
  C  C814  1  0.995400  0.872000  0.729200  1
  C  C815  1  0.495400  0.628000  0.229200  1
  C  C816  1  0.004600  0.128000  0.270800  1
  C  C817  1  0.541800  0.377100  0.798300  1
  C  C818  1  0.958200  0.877100  0.701700  1
  C  C819  1  0.458200  0.622900  0.201700  1
  C  C820  1  0.041800  0.122900  0.298300  1
  C  C821  1  0.554900  0.337900  0.824400  1
  C  C822  1  0.945100  0.837900  0.675600  1
  C  C823  1  0.445100  0.662100  0.175600  1
  C  C824  1  0.054900  0.162100  0.324400  1
  C  C825  1  0.609400  0.309800  0.873100  1
  C  C826  1  0.890600  0.809800  0.626900  1
  C  C827  1  0.390600  0.690200  0.126900  1
  C  C828  1  0.109400  0.190200  0.373100  1
  C  C829  1  0.584600  0.304400  0.905500  1
  C  C830  1  0.915400  0.804400  0.594500  1
  C  C831  1  0.415400  0.695600  0.094500  1
  C  C832  1  0.084600  0.195600  0.405500  1
  C  C833  1  0.601200  0.264700  0.929300  1
  C  C834  1  0.898800  0.764700  0.570700  1
  C  C835  1  0.398800  0.735300  0.070700  1
  C  C836  1  0.101200  0.235300  0.429300  1
  C  C837  1  0.644300  0.234800  0.922500  1
  C  C838  1  0.855700  0.734800  0.577500  1
  C  C839  1  0.355700  0.765200  0.077500  1
  C  C840  1  0.144300  0.265200  0.422500  1
  C  C841  1  0.666300  0.238400  0.890100  1
  C  C842  1  0.833700  0.738400  0.609900  1
  C  C843  1  0.333700  0.761600  0.109900  1
  C  C844  1  0.166300  0.261600  0.390100  1
  C  C845  1  0.649800  0.275800  0.865300  1
  C  C846  1  0.850200  0.775800  0.634700  1
  C  C847  1  0.350200  0.724200  0.134700  1
  C  C848  1  0.149800  0.224200  0.365300  1
  C  C849  1  0.662900  0.193800  0.949600  1
  C  C850  1  0.837100  0.693800  0.550400  1
  C  C851  1  0.337100  0.806200  0.050400  1
  C  C852  1  0.162900  0.306200  0.449600  1
  C  C853  1  0.426800  0.569000  0.499100  1
  C  C854  1  0.073200  0.069000  0.000900  1
  C  C855  1  0.573200  0.431000  0.500900  1
  C  C856  1  0.926800  0.931000  0.999100  1
  C  C857  1  0.481100  0.571900  0.498700  1
  C  C858  1  0.018900  0.071900  0.001300  1
  C  C859  1  0.518900  0.428100  0.501300  1
  C  C860  1  0.981100  0.928100  0.998700  1
  C  C861  1  0.507400  0.566800  0.466200  1
  C  C862  1  0.992600  0.066800  0.033800  1
  C  C863  1  0.492600  0.433200  0.533800  1
  C  C864  1  0.007400  0.933200  0.966200  1
  C  C865  1  0.481400  0.558200  0.434600  1
  C  C866  1  0.018600  0.058200  0.065400  1
  C  C867  1  0.518600  0.441800  0.565400  1
  C  C868  1  0.981400  0.941800  0.934600  1
  C  C869  1  0.427400  0.554400  0.435600  1
  C  C870  1  0.072600  0.054400  0.064400  1
  C  C871  1  0.572600  0.445600  0.564400  1
  C  C872  1  0.927400  0.945600  0.935600  1
  C  C873  1  0.399600  0.560100  0.467600  1
  C  C874  1  0.100400  0.060100  0.032400  1
  C  C875  1  0.600400  0.439900  0.532400  1
  C  C876  1  0.899600  0.939900  0.967600  1
  C  C877  1  0.509700  0.554500  0.399000  1
  C  C878  1  0.990300  0.054500  0.101000  1
  C  C879  1  0.490300  0.445500  0.601000  1
  C  C880  1  0.009700  0.945500  0.899000  1
  C  C881  1  0.377100  0.534700  0.546400  1
  C  C882  1  0.122900  0.034700  0.953600  1
  C  C883  1  0.622900  0.465300  0.453600  1
  C  C884  1  0.877100  0.965300  0.046400  1
  C  C885  1  0.348100  0.540900  0.579300  1
  C  C886  1  0.151900  0.040900  0.920700  1
  C  C887  1  0.651900  0.459100  0.420700  1
  C  C888  1  0.848100  0.959100  0.079300  1
  C  C889  1  0.321000  0.501600  0.596700  1
  C  C890  1  0.179000  0.001600  0.903300  1
  C  C891  1  0.679000  0.498400  0.403300  1
  C  C892  1  0.821000  0.998400  0.096700  1
  C  C893  1  0.292700  0.514100  0.626800  1
  C  C894  1  0.207300  0.014100  0.873200  1
  C  C895  1  0.707300  0.485900  0.373200  1
  C  C896  1  0.792700  0.985900  0.126800  1
  C  C897  1  0.291200  0.565000  0.639300  1
  C  C898  1  0.208800  0.065000  0.860700  1
  C  C899  1  0.708800  0.435000  0.360700  1
  C  C900  1  0.791200  0.935000  0.139300  1
  C  C901  1  0.321000  0.602500  0.620900  1
  C  C902  1  0.179000  0.102500  0.879100  1
  C  C903  1  0.679000  0.397500  0.379100  1
  C  C904  1  0.821000  0.897500  0.120900  1
  C  C905  1  0.258000  0.581200  0.670100  1
  C  C906  1  0.242000  0.081200  0.829900  1
  C  C907  1  0.742000  0.418800  0.329900  1
  C  C908  1  0.758000  0.918800  0.170100  1
  C  C909  1  0.263000  0.629000  0.687200  1
  C  C910  1  0.237000  0.129000  0.812800  1
  C  C911  1  0.737000  0.371000  0.312800  1
  C  C912  1  0.763000  0.871000  0.187200  1
  C  C913  1  0.228100  0.641200  0.713300  1
  C  C914  1  0.271900  0.141200  0.786700  1
  C  C915  1  0.771900  0.358800  0.286700  1
  C  C916  1  0.728100  0.858800  0.213300  1
  C  C917  1  0.189200  0.605200  0.721700  1
  C  C918  1  0.310800  0.105200  0.778300  1
  C  C919  1  0.810800  0.394800  0.278300  1
  C  C920  1  0.689200  0.894800  0.221700  1
  C  C921  1  0.147100  0.581900  0.779200  1
  C  C922  1  0.352900  0.081900  0.720800  1
  C  C923  1  0.852900  0.418100  0.220800  1
  C  C924  1  0.647100  0.918100  0.279200  1
  C  C925  1  0.148200  0.613300  0.748900  1
  C  C926  1  0.351800  0.113300  0.751100  1
  C  C927  1  0.851800  0.386700  0.251100  1
  C  C928  1  0.648200  0.886700  0.248900  1
  C  C929  1  0.109300  0.651400  0.744800  1
  C  C930  1  0.390700  0.151400  0.755200  1
  C  C931  1  0.890700  0.348600  0.255200  1
  C  C932  1  0.609300  0.848600  0.244800  1
  C  C933  1  0.071900  0.657500  0.771300  1
  C  C934  1  0.428100  0.157500  0.728700  1
  C  C935  1  0.928100  0.342500  0.228700  1
  C  C936  1  0.571900  0.842500  0.271300  1
  C  C937  1  0.073100  0.624900  0.801100  1
  C  C938  1  0.426900  0.124900  0.698900  1
  C  C939  1  0.926900  0.375100  0.198900  1
  C  C940  1  0.573100  0.875100  0.301100  1
  C  C941  1  0.036600  0.627400  0.830400  1
  C  C942  1  0.463400  0.127400  0.669600  1
  C  C943  1  0.963400  0.372600  0.169600  1
  C  C944  1  0.536600  0.872600  0.330400  1
  C  C945  1  0.007000  0.594500  0.886100  1
  C  C946  1  0.493000  0.094500  0.613900  1
  C  C947  1  0.993000  0.405500  0.113900  1
  C  C948  1  0.507000  0.905500  0.386100  1
  C  C949  1  0.018800  0.623200  0.916600  1
  C  C950  1  0.481200  0.123200  0.583400  1
  C  C951  1  0.981200  0.376800  0.083400  1
  C  C952  1  0.518800  0.876800  0.416600  1
  C  C953  1  0.984600  0.620400  0.945800  1
  C  C954  1  0.515400  0.120400  0.554200  1
  C  C955  1  0.015400  0.379600  0.054200  1
  C  C956  1  0.484600  0.879600  0.445800  1
  C  C957  1  0.939300  0.591500  0.944400  1
  C  C958  1  0.560700  0.091500  0.555600  1
  C  C959  1  0.060700  0.408500  0.055600  1
  C  C960  1  0.439300  0.908500  0.444400  1
  C  C961  1  0.926500  0.566900  0.912600  1
  C  C962  1  0.573500  0.066900  0.587400  1
  C  C963  1  0.073500  0.433100  0.087400  1
  C  C964  1  0.426500  0.933100  0.412600  1
  C  C965  1  0.960200  0.567200  0.883200  1
  C  C966  1  0.539800  0.067200  0.616800  1
  C  C967  1  0.039800  0.432800  0.116800  1
  C  C968  1  0.460200  0.932800  0.383200  1
  C  C969  1  0.902900  0.586600  0.976500  1
  C  C970  1  0.597100  0.086600  0.523500  1
  C  C971  1  0.097100  0.413400  0.023500  1
  C  C972  1  0.402900  0.913400  0.476500  1
  C  C973  1  0.293800  0.635100  0.508400  1
  C  C974  1  0.206200  0.135100  0.991600  1
  C  C975  1  0.706200  0.364900  0.491600  1
  C  C976  1  0.793800  0.864900  0.008400  1
  C  C977  1  0.296400  0.654700  0.473900  1
  C  C978  1  0.203600  0.154700  0.026100  1
  C  C979  1  0.703600  0.345300  0.526100  1
  C  C980  1  0.796400  0.845300  0.973900  1
  C  C981  1  0.272900  0.627500  0.445300  1
  C  C982  1  0.227100  0.127500  0.054700  1
  C  C983  1  0.727100  0.372500  0.554700  1
  C  C984  1  0.772900  0.872500  0.945300  1
  C  C985  1  0.245800  0.582300  0.450000  1
  C  C986  1  0.254200  0.082300  0.050000  1
  C  C987  1  0.754200  0.417700  0.550000  1
  C  C988  1  0.745800  0.917700  0.950000  1
  C  C989  1  0.243400  0.563000  0.484300  1
  C  C990  1  0.256600  0.063000  0.015700  1
  C  C991  1  0.756600  0.437000  0.515700  1
  C  C992  1  0.743400  0.937000  0.984300  1
  C  C993  1  0.266900  0.589400  0.513000  1
  C  C994  1  0.233100  0.089400  0.987000  1
  C  C995  1  0.733100  0.410600  0.487000  1
  C  C996  1  0.766900  0.910600  0.013000  1
  C  C997  1  0.221400  0.552900  0.418300  1
  C  C998  1  0.278600  0.052900  0.081700  1
  C  C999  1  0.778600  0.447100  0.581700  1
  C  C1000  1  0.721400  0.947100  0.918300  1
  C  C1001  1  0.295000  0.696900  0.554700  1
  C  C1002  1  0.205000  0.196900  0.945300  1
  C  C1003  1  0.705000  0.303100  0.445300  1
  C  C1004  1  0.795000  0.803100  0.054700  1
  C  C1005  1  0.322300  0.722700  0.584400  1
  C  C1006  1  0.177700  0.222700  0.915600  1
  C  C1007  1  0.677700  0.277300  0.415600  1
  C  C1008  1  0.822300  0.777300  0.084400  1
  C  C1009  1  0.303500  0.763400  0.605100  1
  C  C1010  1  0.196500  0.263400  0.894900  1
  C  C1011  1  0.696500  0.236600  0.394900  1
  C  C1012  1  0.803500  0.736600  0.105100  1
  C  C1013  1  0.335200  0.785000  0.631200  1
  C  C1014  1  0.164800  0.285000  0.868800  1
  C  C1015  1  0.664800  0.215000  0.368800  1
  C  C1016  1  0.835200  0.715000  0.131200  1
  C  C1017  1  0.385500  0.766000  0.637300  1
  C  C1018  1  0.114500  0.266000  0.862700  1
  C  C1019  1  0.614500  0.234000  0.362700  1
  C  C1020  1  0.885500  0.734000  0.137300  1
  C  C1021  1  0.401600  0.723000  0.616400  1
  C  C1022  1  0.098400  0.223000  0.883600  1
  C  C1023  1  0.598400  0.277000  0.383600  1
  C  C1024  1  0.901600  0.777000  0.116400  1
  C  C1025  1  0.422900  0.787400  0.664700  1
  C  C1026  1  0.077100  0.287400  0.835300  1
  C  C1027  1  0.577100  0.212600  0.335300  1
  C  C1028  1  0.922900  0.712600  0.164700  1
  C  C1029  1  0.476400  0.776700  0.665900  1
  C  C1030  1  0.023600  0.276700  0.834100  1
  C  C1031  1  0.523600  0.223300  0.334100  1
  C  C1032  1  0.976400  0.723300  0.165900  1
  C  C1033  1  0.507700  0.797700  0.692600  1
  C  C1034  1  0.992300  0.297700  0.807400  1
  C  C1035  1  0.492300  0.202300  0.307400  1
  C  C1036  1  0.007700  0.702300  0.192600  1
  C  C1037  1  0.483600  0.830600  0.716900  1
  C  C1038  1  0.016400  0.330600  0.783100  1
  C  C1039  1  0.516400  0.169400  0.283100  1
  C  C1040  1  0.983600  0.669400  0.216900  1
  C  C1041  1  0.484200  0.874600  0.776300  1
  C  C1042  1  0.015800  0.374600  0.723700  1
  C  C1043  1  0.515800  0.125400  0.223700  1
  C  C1044  1  0.984200  0.625400  0.276300  1
  C  C1045  1  0.512200  0.856100  0.747000  1
  C  C1046  1  0.987800  0.356100  0.753000  1
  C  C1047  1  0.487800  0.143900  0.253000  1
  C  C1048  1  0.012200  0.643900  0.247000  1
  C  C1049  1  0.566900  0.862600  0.747700  1
  C  C1050  1  0.933100  0.362600  0.752300  1
  C  C1051  1  0.433100  0.137400  0.252300  1
  C  C1052  1  0.066900  0.637400  0.247700  1
  C  C1053  1  0.591300  0.887500  0.776500  1
  C  C1054  1  0.908700  0.387500  0.723500  1
  C  C1055  1  0.408700  0.112500  0.223500  1
  C  C1056  1  0.091300  0.612500  0.276500  1
  C  C1057  1  0.560700  0.904300  0.805000  1
  C  C1058  1  0.939300  0.404300  0.695000  1
  C  C1059  1  0.439300  0.095700  0.195000  1
  C  C1060  1  0.060700  0.595700  0.305000  1
  C  C1061  1  0.581100  0.928900  0.837300  1
  C  C1062  1  0.918900  0.428900  0.662700  1
  C  C1063  1  0.418900  0.071100  0.162700  1
  C  C1064  1  0.081100  0.571100  0.337300  1
  C  C1065  1  0.566300  0.966200  0.893900  1
  C  C1066  1  0.933700  0.466200  0.606100  1
  C  C1067  1  0.433700  0.033800  0.106100  1
  C  C1068  1  0.066300  0.533800  0.393900  1
  C  C1069  1  0.571100  0.937700  0.925500  1
  C  C1070  1  0.928900  0.437700  0.574500  1
  C  C1071  1  0.428900  0.062300  0.074500  1
  C  C1072  1  0.071100  0.562300  0.425500  1
  C  C1073  1  0.590200  0.962100  0.956700  1
  C  C1074  1  0.909800  0.462100  0.543300  1
  C  C1075  1  0.409800  0.037900  0.043300  1
  C  C1076  1  0.090200  0.537900  0.456700  1
  C  C1077  1  0.604800  0.013900  0.956100  1
  C  C1078  1  0.895200  0.513900  0.543900  1
  C  C1079  1  0.395200  0.986100  0.043900  1
  C  C1080  1  0.104800  0.486100  0.456100  1
  C  C1081  1  0.599700  0.041200  0.924600  1
  C  C1082  1  0.900300  0.541200  0.575400  1
  C  C1083  1  0.400300  0.958800  0.075400  1
  C  C1084  1  0.099700  0.458800  0.424600  1
  C  C1085  1  0.581000  0.018100  0.893200  1
  C  C1086  1  0.919000  0.518100  0.606800  1
  C  C1087  1  0.419000  0.981900  0.106800  1
  C  C1088  1  0.081000  0.481900  0.393200  1
  C  C1089  1  0.625700  0.040900  0.990200  1
  C  C1090  1  0.874300  0.540900  0.509800  1
  C  C1091  1  0.374300  0.959100  0.009800  1
  C  C1092  1  0.125700  0.459100  0.490200  1
  C  C1093  1  0.698500  0.356900  0.802100  1
  C  C1094  1  0.801500  0.856900  0.697900  1
  C  C1095  1  0.301500  0.643100  0.197900  1
  C  C1096  1  0.198500  0.143100  0.302100  1
  C  C1097  1  0.667400  0.328100  0.778400  1
  C  C1098  1  0.832600  0.828100  0.721600  1
  C  C1099  1  0.332600  0.671900  0.221600  1
  C  C1100  1  0.167400  0.171900  0.278400  1
  C  C1101  1  0.685100  0.279100  0.767600  1
  C  C1102  1  0.814900  0.779100  0.732400  1
  C  C1103  1  0.314900  0.720900  0.232400  1
  C  C1104  1  0.185100  0.220900  0.267600  1
  C  C1105  1  0.732500  0.258600  0.778500  1
  C  C1106  1  0.767500  0.758600  0.721500  1
  C  C1107  1  0.267500  0.741400  0.221500  1
  C  C1108  1  0.232500  0.241400  0.278500  1
  C  C1109  1  0.763900  0.288300  0.801200  1
  C  C1110  1  0.736100  0.788300  0.698800  1
  C  C1111  1  0.236100  0.711700  0.198800  1
  C  C1112  1  0.263900  0.211700  0.301200  1
  C  C1113  1  0.745900  0.337200  0.813700  1
  C  C1114  1  0.754100  0.837200  0.686300  1
  C  C1115  1  0.254100  0.662800  0.186300  1
  C  C1116  1  0.245900  0.162800  0.313700  1
  C  C1117  1  0.750500  0.204700  0.766400  1
  C  C1118  1  0.749500  0.704700  0.733600  1
  C  C1119  1  0.249500  0.795300  0.233600  1
  C  C1120  1  0.250500  0.295300  0.266400  1
  C  C1121  1  0.702900  0.447900  0.801600  1
  C  C1122  1  0.797100  0.947900  0.698400  1
  C  C1123  1  0.297100  0.552100  0.198400  1
  C  C1124  1  0.202900  0.052100  0.301600  1
  C  C1125  1  0.681900  0.498600  0.811400  1
  C  C1126  1  0.818100  0.998600  0.688600  1
  C  C1127  1  0.318100  0.501400  0.188600  1
  C  C1128  1  0.181900  0.001400  0.311400  1
  C  C1129  1  0.698000  0.545400  0.796500  1
  C  C1130  1  0.802000  0.045400  0.703500  1
  C  C1131  1  0.302000  0.454600  0.203500  1
  C  C1132  1  0.198000  0.954600  0.296500  1
  C  C1133  1  0.671400  0.590400  0.805800  1
  C  C1134  1  0.828600  0.090400  0.694200  1
  C  C1135  1  0.328600  0.409600  0.194200  1
  C  C1136  1  0.171400  0.909600  0.305800  1
  C  C1137  1  0.631600  0.588700  0.830600  1
  C  C1138  1  0.868400  0.088700  0.669400  1
  C  C1139  1  0.368400  0.411300  0.169400  1
  C  C1140  1  0.131600  0.911300  0.330600  1
  C  C1141  1  0.618200  0.540300  0.845400  1
  C  C1142  1  0.881800  0.040300  0.654600  1
  C  C1143  1  0.381800  0.459700  0.154600  1
  C  C1144  1  0.118200  0.959700  0.345400  1
  C  C1145  1  0.601500  0.636200  0.840600  1
  C  C1146  1  0.898500  0.136200  0.659400  1
  C  C1147  1  0.398500  0.363800  0.159400  1
  C  C1148  1  0.101500  0.863800  0.340600  1
  C  C1149  1  0.584100  0.671600  0.815200  1
  C  C1150  1  0.915900  0.171600  0.684800  1
  C  C1151  1  0.415900  0.328400  0.184800  1
  C  C1152  1  0.084100  0.828400  0.315200  1
  C  C1153  1  0.554500  0.713500  0.826600  1
  C  C1154  1  0.945500  0.213500  0.673400  1
  C  C1155  1  0.445500  0.286500  0.173400  1
  C  C1156  1  0.054500  0.786500  0.326600  1
  C  C1157  1  0.546700  0.719300  0.862900  1
  C  C1158  1  0.953300  0.219300  0.637100  1
  C  C1159  1  0.453300  0.280700  0.137100  1
  C  C1160  1  0.046700  0.780700  0.362900  1
  C  C1161  1  0.510000  0.809200  0.860100  1
  C  C1162  1  0.990000  0.309200  0.639900  1
  C  C1163  1  0.490000  0.190800  0.139900  1
  C  C1164  1  0.010000  0.690800  0.360100  1
  C  C1165  1  0.517300  0.763100  0.879000  1
  C  C1166  1  0.982700  0.263100  0.621000  1
  C  C1167  1  0.482700  0.236900  0.121000  1
  C  C1168  1  0.017300  0.736900  0.379000  1
  C  C1169  1  0.495200  0.759600  0.913100  1
  C  C1170  1  0.004800  0.259600  0.586900  1
  C  C1171  1  0.504800  0.240400  0.086900  1
  C  C1172  1  0.995200  0.740400  0.413100  1
  C  C1173  1  0.470800  0.803200  0.927100  1
  C  C1174  1  0.029200  0.303200  0.572900  1
  C  C1175  1  0.529200  0.196800  0.072900  1
  C  C1176  1  0.970800  0.696800  0.427100  1
  C  C1177  1  0.466800  0.848600  0.907200  1
  C  C1178  1  0.033200  0.348600  0.592800  1
  C  C1179  1  0.533200  0.151400  0.092800  1
  C  C1180  1  0.966800  0.651400  0.407200  1
  C  C1181  1  0.444100  0.896600  0.919800  1
  C  C1182  1  0.055900  0.396600  0.580200  1
  C  C1183  1  0.555900  0.103400  0.080200  1
  C  C1184  1  0.944100  0.603400  0.419800  1
  C  C1185  1  0.422500  0.984500  0.909500  1
  C  C1186  1  0.077500  0.484500  0.590500  1
  C  C1187  1  0.577500  0.015500  0.090500  1
  C  C1188  1  0.922500  0.515500  0.409500  1
  C  C1189  1  0.451000  0.017100  0.932300  1
  C  C1190  1  0.049000  0.517100  0.567700  1
  C  C1191  1  0.549000  0.982900  0.067700  1
  C  C1192  1  0.951000  0.482900  0.432300  1
  C  C1193  1  0.429100  0.064700  0.943200  1
  C  C1194  1  0.070900  0.564700  0.556800  1
  C  C1195  1  0.570900  0.935300  0.056800  1
  C  C1196  1  0.929100  0.435300  0.443200  1
  C  C1197  1  0.379200  0.079400  0.932400  1
  C  C1198  1  0.120800  0.579400  0.567600  1
  C  C1199  1  0.620800  0.920600  0.067600  1
  C  C1200  1  0.879200  0.420600  0.432400  1
  C  C1201  1  0.351100  0.046000  0.910800  1
  C  C1202  1  0.148900  0.546000  0.589200  1
  C  C1203  1  0.648900  0.954000  0.089200  1
  C  C1204  1  0.851100  0.454000  0.410800  1
  C  C1205  1  0.372100  0.998600  0.899000  1
  C  C1206  1  0.127900  0.498600  0.601000  1
  C  C1207  1  0.627900  0.001400  0.101000  1
  C  C1208  1  0.872100  0.501400  0.399000  1
  C  C1209  1  0.356300  0.130900  0.945900  1
  C  C1210  1  0.143700  0.630900  0.554100  1
  C  C1211  1  0.643700  0.869100  0.054100  1
  C  C1212  1  0.856300  0.369100  0.445900  1
  C  C1213  1  0.078100  0.472900  0.912100  1
  C  C1214  1  0.421900  0.972900  0.587900  1
  C  C1215  1  0.921900  0.527100  0.087900  1
  C  C1216  1  0.578100  0.027100  0.412100  1
  C  C1217  1  0.032300  0.474100  0.932000  1
  C  C1218  1  0.467700  0.974100  0.568000  1
  C  C1219  1  0.967700  0.525900  0.068000  1
  C  C1220  1  0.532300  0.025900  0.432000  1
  C  C1221  1  0.009200  0.427600  0.943000  1
  C  C1222  1  0.490800  0.927600  0.557000  1
  C  C1223  1  0.990800  0.572400  0.057000  1
  C  C1224  1  0.509200  0.072400  0.443000  1
  C  C1225  1  0.030500  0.380400  0.935100  1
  C  C1226  1  0.469500  0.880400  0.564900  1
  C  C1227  1  0.969500  0.619600  0.064900  1
  C  C1228  1  0.530500  0.119600  0.435100  1
  C  C1229  1  0.077500  0.379400  0.916600  1
  C  C1230  1  0.422500  0.879400  0.583400  1
  C  C1231  1  0.922500  0.620600  0.083400  1
  C  C1232  1  0.577500  0.120600  0.416600  1
  C  C1233  1  0.101400  0.425400  0.905500  1
  C  C1234  1  0.398600  0.925400  0.594500  1
  C  C1235  1  0.898600  0.574600  0.094500  1
  C  C1236  1  0.601400  0.074600  0.405500  1
  C  C1237  1  0.005800  0.328900  0.946000  1
  C  C1238  1  0.494200  0.828900  0.554000  1
  C  C1239  1  0.994200  0.671100  0.054000  1
  C  C1240  1  0.505800  0.171100  0.446000  1
  C  C1241  1  0.126200  0.548300  0.925000  1
  C  C1242  1  0.373800  0.048300  0.575000  1
  C  C1243  1  0.873800  0.451700  0.075000  1
  C  C1244  1  0.626200  0.951700  0.425000  1
  C  C1245  1  0.154600  0.594400  0.913900  1
  C  C1246  1  0.345400  0.094400  0.586100  1
  C  C1247  1  0.845400  0.405600  0.086100  1
  C  C1248  1  0.654600  0.905600  0.413900  1
  C  C1249  1  0.183900  0.627600  0.935900  1
  C  C1250  1  0.316100  0.127600  0.564100  1
  C  C1251  1  0.816100  0.372400  0.064100  1
  C  C1252  1  0.683900  0.872400  0.435900  1
  C  C1253  1  0.210500  0.669400  0.921000  1
  C  C1254  1  0.289500  0.169400  0.579000  1
  C  C1255  1  0.789500  0.330600  0.079000  1
  C  C1256  1  0.710500  0.830600  0.421000  1
  C  C1257  1  0.206300  0.678600  0.884600  1
  C  C1258  1  0.293700  0.178600  0.615400  1
  C  C1259  1  0.793700  0.321400  0.115400  1
  C  C1260  1  0.706300  0.821400  0.384600  1
  C  C1261  1  0.176500  0.643100  0.863300  1
  C  C1262  1  0.323500  0.143100  0.636700  1
  C  C1263  1  0.823500  0.356900  0.136700  1
  C  C1264  1  0.676500  0.856900  0.363300  1
  C  C1265  1  0.234300  0.722000  0.866800  1
  C  C1266  1  0.265700  0.222000  0.633200  1
  C  C1267  1  0.765700  0.278000  0.133200  1
  C  C1268  1  0.734300  0.778000  0.366800  1
  C  C1269  1  0.217900  0.743700  0.834600  1
  C  C1270  1  0.282100  0.243700  0.665400  1
  C  C1271  1  0.782100  0.256300  0.165400  1
  C  C1272  1  0.717900  0.756300  0.334600  1
  C  C1273  1  0.245200  0.784800  0.820600  1
  C  C1274  1  0.254800  0.284800  0.679400  1
  C  C1275  1  0.754800  0.215200  0.179400  1
  C  C1276  1  0.745200  0.715200  0.320600  1
  C  C1277  1  0.289400  0.802700  0.840100  1
  C  C1278  1  0.210600  0.302700  0.659900  1
  C  C1279  1  0.710600  0.197300  0.159900  1
  C  C1280  1  0.789400  0.697300  0.340100  1
  C  C1281  1  0.372800  0.856500  0.841400  1
  C  C1282  1  0.127200  0.356500  0.658600  1
  C  C1283  1  0.627200  0.143500  0.158600  1
  C  C1284  1  0.872800  0.643500  0.341400  1
  C  C1285  1  0.321200  0.848700  0.829100  1
  C  C1286  1  0.178800  0.348700  0.670900  1
  C  C1287  1  0.678800  0.151300  0.170900  1
  C  C1288  1  0.821200  0.651300  0.329100  1
  C  C1289  1  0.298200  0.886100  0.806900  1
  C  C1290  1  0.201800  0.386100  0.693100  1
  C  C1291  1  0.701800  0.113900  0.193100  1
  C  C1292  1  0.798200  0.613900  0.306900  1
  C  C1293  1  0.325800  0.931200  0.799400  1
  C  C1294  1  0.174200  0.431200  0.700600  1
  C  C1295  1  0.674200  0.068800  0.200600  1
  C  C1296  1  0.825800  0.568800  0.299400  1
  C  C1297  1  0.376400  0.937900  0.813100  1
  C  C1298  1  0.123600  0.437900  0.686900  1
  C  C1299  1  0.623600  0.062100  0.186900  1
  C  C1300  1  0.876400  0.562100  0.313100  1
  C  C1301  1  0.407500  0.984600  0.809900  1
  C  C1302  1  0.092500  0.484600  0.690100  1
  C  C1303  1  0.592500  0.015400  0.190100  1
  C  C1304  1  0.907500  0.515400  0.309900  1
  C  C1305  1  0.480300  0.035500  0.824000  1
  C  C1306  1  0.019700  0.535500  0.676000  1
  C  C1307  1  0.519700  0.964500  0.176000  1
  C  C1308  1  0.980300  0.464500  0.324000  1
  C  C1309  1  0.524600  0.039300  0.802700  1
  C  C1310  1  0.975400  0.539300  0.697300  1
  C  C1311  1  0.475400  0.960700  0.197300  1
  C  C1312  1  0.024600  0.460700  0.302700  1
  C  C1313  1  0.550200  0.088100  0.799800  1
  C  C1314  1  0.949800  0.588100  0.700200  1
  C  C1315  1  0.449800  0.911900  0.200200  1
  C  C1316  1  0.050200  0.411900  0.299800  1
  C  C1317  1  0.532200  0.131300  0.817100  1
  C  C1318  1  0.967800  0.631300  0.682900  1
  C  C1319  1  0.467800  0.868700  0.182900  1
  C  C1320  1  0.032200  0.368700  0.317100  1
  C  C1321  1  0.489700  0.125400  0.838800  1
  C  C1322  1  0.010300  0.625400  0.661200  1
  C  C1323  1  0.510300  0.874600  0.161200  1
  C  C1324  1  0.989700  0.374600  0.338800  1
  C  C1325  1  0.462500  0.078500  0.842600  1
  C  C1326  1  0.037500  0.578500  0.657400  1
  C  C1327  1  0.537500  0.921500  0.157400  1
  C  C1328  1  0.962500  0.421500  0.342600  1
  C  C1329  1  0.560500  0.183500  0.813700  1
  C  C1330  1  0.939500  0.683500  0.686300  1
  C  C1331  1  0.439500  0.816500  0.186300  1
  C  C1332  1  0.060500  0.316500  0.313700  1
  C  C1333  1  0.012600  0.484300  0.820100  1
  C  C1334  1  0.487400  0.984300  0.679900  1
  C  C1335  1  0.987400  0.515700  0.179900  1
  C  C1336  1  0.512600  0.015700  0.320100  1
  C  C1337  1  0.986700  0.446300  0.840000  1
  C  C1338  1  0.513300  0.946300  0.660000  1
  C  C1339  1  0.013300  0.553700  0.160000  1
  C  C1340  1  0.486700  0.053700  0.340000  1
  C  C1341  1  0.933000  0.438600  0.834000  1
  C  C1342  1  0.567000  0.938600  0.666000  1
  C  C1343  1  0.067000  0.561400  0.166000  1
  C  C1344  1  0.433000  0.061400  0.334000  1
  C  C1345  1  0.904500  0.467000  0.809400  1
  C  C1346  1  0.595500  0.967000  0.690600  1
  C  C1347  1  0.095500  0.533000  0.190600  1
  C  C1348  1  0.404500  0.033000  0.309400  1
  C  C1349  1  0.931300  0.503800  0.789200  1
  C  C1350  1  0.568700  0.003800  0.710800  1
  C  C1351  1  0.068700  0.496200  0.210800  1
  C  C1352  1  0.431300  0.996200  0.289200  1
  C  C1353  1  0.985200  0.513000  0.795200  1
  C  C1354  1  0.514800  0.013000  0.704800  1
  C  C1355  1  0.014800  0.487000  0.204800  1
  C  C1356  1  0.485200  0.987000  0.295200  1
  C  C1357  1  0.846300  0.457800  0.802800  1
  C  C1358  1  0.653700  0.957800  0.697200  1
  C  C1359  1  0.153700  0.542200  0.197200  1
  C  C1360  1  0.346300  0.042200  0.302800  1
  C  C1361  1  0.099600  0.457200  0.813100  1
  C  C1362  1  0.400400  0.957200  0.686900  1
  C  C1363  1  0.900400  0.542800  0.186900  1
  C  C1364  1  0.599600  0.042800  0.313100  1
  C  C1365  1  0.156300  0.461100  0.820200  1
  C  C1366  1  0.343700  0.961100  0.679800  1
  C  C1367  1  0.843700  0.538900  0.179800  1
  C  C1368  1  0.656300  0.038900  0.320200  1
  C  C1369  1  0.193600  0.424900  0.809500  1
  C  C1370  1  0.306400  0.924900  0.690500  1
  C  C1371  1  0.806400  0.575100  0.190500  1
  C  C1372  1  0.693600  0.075100  0.309500  1
  C  C1373  1  0.244800  0.431700  0.820500  1
  C  C1374  1  0.255200  0.931700  0.679500  1
  C  C1375  1  0.755200  0.568300  0.179500  1
  C  C1376  1  0.744800  0.068300  0.320500  1
  C  C1377  1  0.259100  0.473500  0.842200  1
  C  C1378  1  0.240900  0.973500  0.657800  1
  C  C1379  1  0.740900  0.526500  0.157800  1
  C  C1380  1  0.759100  0.026500  0.342200  1
  C  C1381  1  0.219000  0.508600  0.851700  1
  C  C1382  1  0.281000  0.008600  0.648300  1
  C  C1383  1  0.781000  0.491400  0.148300  1
  C  C1384  1  0.719000  0.991400  0.351700  1
  C  C1385  1  0.313800  0.478600  0.856000  1
  C  C1386  1  0.186200  0.978600  0.644000  1
  C  C1387  1  0.686200  0.521400  0.144000  1
  C  C1388  1  0.813800  0.021400  0.356000  1
  C  C1389  1  0.327300  0.505200  0.886800  1
  C  C1390  1  0.172700  0.005200  0.613200  1
  C  C1391  1  0.672700  0.494800  0.113200  1
  C  C1392  1  0.827300  0.994800  0.386800  1
  C  C1393  1  0.378600  0.501800  0.899200  1
  C  C1394  1  0.121400  0.001800  0.600800  1
  C  C1395  1  0.621400  0.498200  0.100800  1
  C  C1396  1  0.878600  0.998200  0.399200  1
  C  C1397  1  0.413600  0.472100  0.879200  1
  C  C1398  1  0.086400  0.972100  0.620800  1
  C  C1399  1  0.586400  0.527900  0.120800  1
  C  C1400  1  0.913600  0.027900  0.379200  1
  C  C1401  1  0.508600  0.453300  0.866100  1
  C  C1402  1  0.991400  0.953300  0.633900  1
  C  C1403  1  0.491400  0.546700  0.133900  1
  C  C1404  1  0.008600  0.046700  0.366100  1
  C  C1405  1  0.468800  0.461800  0.890800  1
  C  C1406  1  0.031200  0.961800  0.609200  1
  C  C1407  1  0.531200  0.538200  0.109200  1
  C  C1408  1  0.968800  0.038200  0.390800  1
  C  C1409  1  0.481500  0.458800  0.927300  1
  C  C1410  1  0.018500  0.958800  0.572700  1
  C  C1411  1  0.518500  0.541200  0.072700  1
  C  C1412  1  0.981500  0.041200  0.427300  1
  C  C1413  1  0.532700  0.447100  0.937900  1
  C  C1414  1  0.967300  0.947100  0.562100  1
  C  C1415  1  0.467300  0.552900  0.062100  1
  C  C1416  1  0.032700  0.052900  0.437900  1
  C  C1417  1  0.570800  0.440100  0.911900  1
  C  C1418  1  0.929200  0.940100  0.588100  1
  C  C1419  1  0.429200  0.559900  0.088100  1
  C  C1420  1  0.070800  0.059900  0.411900  1
  C  C1421  1  0.625600  0.428100  0.919300  1
  C  C1422  1  0.874400  0.928100  0.580700  1
  C  C1423  1  0.374400  0.571900  0.080700  1
  C  C1424  1  0.125600  0.071900  0.419300  1
  C  C1425  1  0.711000  0.409100  0.901500  1
  C  C1426  1  0.789000  0.909100  0.598500  1
  C  C1427  1  0.289000  0.590900  0.098500  1
  C  C1428  1  0.211000  0.090900  0.401500  1
  C  C1429  1  0.722700  0.368700  0.925500  1
  C  C1430  1  0.777300  0.868700  0.574500  1
  C  C1431  1  0.277300  0.631300  0.074500  1
  C  C1432  1  0.222700  0.131300  0.425500  1
  C  C1433  1  0.775200  0.362500  0.937500  1
  C  C1434  1  0.724800  0.862500  0.562500  1
  C  C1435  1  0.224800  0.637500  0.062500  1
  C  C1436  1  0.275200  0.137500  0.437500  1
  C  C1437  1  0.813800  0.395600  0.926300  1
  C  C1438  1  0.686200  0.895600  0.573700  1
  C  C1439  1  0.186200  0.604400  0.073700  1
  C  C1440  1  0.313800  0.104400  0.426300  1
  C  C1441  1  0.801300  0.434000  0.902000  1
  C  C1442  1  0.698700  0.934000  0.598000  1
  C  C1443  1  0.198700  0.566000  0.098000  1
  C  C1444  1  0.301300  0.066000  0.402000  1
  C  C1445  1  0.749900  0.441700  0.889100  1
  C  C1446  1  0.750100  0.941700  0.610900  1
  C  C1447  1  0.250100  0.558300  0.110900  1
  C  C1448  1  0.249900  0.058300  0.389100  1
  C  C1449  1  0.869900  0.391700  0.941600  1
  C  C1450  1  0.630100  0.891700  0.558400  1
  C  C1451  1  0.130100  0.608300  0.058400  1
  C  C1452  1  0.369900  0.108300  0.441600  1
  C  C1453  1  0.362400  0.670600  0.951900  1
  C  C1454  1  0.137600  0.170600  0.548100  1
  C  C1455  1  0.637600  0.329400  0.048100  1
  C  C1456  1  0.862400  0.829400  0.451900  1
  C  C1457  1  0.552800  0.600100  0.976200  1
  C  C1458  1  0.947200  0.100100  0.523800  1
  C  C1459  1  0.447200  0.399900  0.023800  1
  C  C1460  1  0.052800  0.899900  0.476200  1
  C  C1461  1  0.216700  0.426700  0.329800  1
  C  C1462  1  0.283300  0.926700  0.170200  1
  C  C1463  1  0.783300  0.573300  0.670200  1
  C  C1464  1  0.716700  0.073300  0.829800  1
  C  C1465  1  0.312600  0.564000  0.319400  1
  C  C1466  1  0.187400  0.064000  0.180600  1
  C  C1467  1  0.687400  0.436000  0.680600  1
  C  C1468  1  0.812600  0.936000  0.819400  1
  C  C1469  1  0.415200  0.685800  0.318900  1
  C  C1470  1  0.084800  0.185800  0.181100  1
  C  C1471  1  0.584800  0.314200  0.681100  1
  C  C1472  1  0.915200  0.814200  0.818900  1
  C  C1473  1  0.600800  0.659100  0.337300  1
  C  C1474  1  0.899200  0.159100  0.162700  1
  C  C1475  1  0.399200  0.340900  0.662700  1
  C  C1476  1  0.100800  0.840900  0.837300  1
  C  C1477  1  0.805700  0.094300  0.949400  1
  C  C1478  1  0.694300  0.594300  0.550600  1
  C  C1479  1  0.194300  0.905700  0.050600  1
  C  C1480  1  0.305700  0.405700  0.449400  1
  C  C1481  1  0.884300  0.226000  0.041100  1
  C  C1482  1  0.615700  0.726000  0.458900  1
  C  C1483  1  0.115700  0.774000  0.958900  1
  C  C1484  1  0.384300  0.274000  0.541100  1
  C  C1485  1  0.693500  0.640500  0.041500  1
  C  C1486  1  0.806500  0.140500  0.458500  1
  C  C1487  1  0.306500  0.359500  0.958500  1
  C  C1488  1  0.193500  0.859500  0.541500  1
  C  C1489  1  0.712600  0.491800  0.002100  1
  C  C1490  1  0.787400  0.991800  0.497900  1
  C  C1491  1  0.287400  0.508200  0.997900  1
  C  C1492  1  0.212600  0.008200  0.502100  1
  C  C1493  1  0.163300  0.816000  0.723100  1
  C  C1494  1  0.336700  0.316000  0.776900  1
  C  C1495  1  0.836700  0.184000  0.276900  1
  C  C1496  1  0.663300  0.684000  0.223100  1
  C  C1497  1  0.096300  0.758100  0.624500  1
  C  C1498  1  0.403700  0.258100  0.875500  1
  C  C1499  1  0.903700  0.241900  0.375500  1
  C  C1500  1  0.596300  0.741900  0.124500  1
  C  C1501  1  0.466300  0.586300  0.831700  1
  C  C1502  1  0.033700  0.086300  0.668300  1
  C  C1503  1  0.533700  0.413700  0.168300  1
  C  C1504  1  0.966300  0.913700  0.331700  1
  C  C1505  1  0.433000  0.625100  0.849900  1
  C  C1506  1  0.067000  0.125100  0.650100  1
  C  C1507  1  0.567000  0.374900  0.150100  1
  C  C1508  1  0.933000  0.874900  0.349900  1
  C  C1509  1  0.426100  0.642300  0.709500  1
  C  C1510  1  0.073900  0.142300  0.790500  1
  C  C1511  1  0.573900  0.357700  0.290500  1
  C  C1512  1  0.926100  0.857700  0.209500  1
  C  C1513  1  0.455600  0.632000  0.743700  1
  C  C1514  1  0.044400  0.132000  0.756300  1
  C  C1515  1  0.544400  0.368000  0.256300  1
  C  C1516  1  0.955600  0.868000  0.243700  1
  C  C1517  1  0.635200  0.782100  0.622900  1
  C  C1518  1  0.864800  0.282100  0.877100  1
  C  C1519  1  0.364800  0.217900  0.377100  1
  C  C1520  1  0.135200  0.717900  0.122900  1
  C  C1521  1  0.678200  0.750600  0.612600  1
  C  C1522  1  0.821800  0.250600  0.887400  1
  C  C1523  1  0.321800  0.249400  0.387400  1
  C  C1524  1  0.178200  0.749400  0.112600  1
  C  C1525  1  0.345200  0.863700  0.314200  1
  C  C1526  1  0.154800  0.363700  0.185800  1
  C  C1527  1  0.654800  0.136300  0.685800  1
  C  C1528  1  0.845200  0.636300  0.814200  1
  C  C1529  1  0.327000  0.907300  0.336100  1
  C  C1530  1  0.173000  0.407300  0.163900  1
  C  C1531  1  0.673000  0.092700  0.663900  1
  C  C1532  1  0.827000  0.592700  0.836100  1
  C  C1533  1  0.284400  0.874300  0.927800  1
  C  C1534  1  0.215600  0.374300  0.572200  1
  C  C1535  1  0.715600  0.125700  0.072200  1
  C  C1536  1  0.784400  0.625700  0.427800  1
  C  C1537  1  0.300200  0.836900  0.952600  1
  C  C1538  1  0.199800  0.336900  0.547400  1
  C  C1539  1  0.699800  0.163100  0.047400  1
  C  C1540  1  0.800200  0.663100  0.452600  1
  C  C1541  1  0.628000  0.792000  0.956800  1
  C  C1542  1  0.872000  0.292000  0.543200  1
  C  C1543  1  0.372000  0.208000  0.043200  1
  C  C1544  1  0.128000  0.708000  0.456800  1
  C  C1545  1  0.662300  0.761500  0.941700  1
  C  C1546  1  0.837700  0.261500  0.558300  1
  C  C1547  1  0.337700  0.238500  0.058300  1
  C  C1548  1  0.162300  0.738500  0.441700  1
  C  C1549  1  0.393600  0.751500  0.777200  1
  C  C1550  1  0.106400  0.251500  0.722800  1
  C  C1551  1  0.606400  0.248500  0.222800  1
  C  C1552  1  0.893600  0.748500  0.277200  1
  C  C1553  1  0.344700  0.744500  0.755900  1
  C  C1554  1  0.155300  0.244500  0.744100  1
  C  C1555  1  0.655300  0.255500  0.244100  1
  C  C1556  1  0.844700  0.755500  0.255900  1
  C  C1557  1  0.332300  0.476700  0.735900  1
  C  C1558  1  0.167700  0.976700  0.764100  1
  C  C1559  1  0.667700  0.523300  0.264100  1
  C  C1560  1  0.832300  0.023300  0.235900  1
  C  C1561  1  0.372700  0.504700  0.751900  1
  C  C1562  1  0.127300  0.004700  0.748100  1
  C  C1563  1  0.627300  0.495300  0.248100  1
  C  C1564  1  0.872700  0.995300  0.251900  1
  C  C1565  1  0.667400  0.806600  0.840300  1
  C  C1566  1  0.832600  0.306600  0.659700  1
  C  C1567  1  0.332600  0.193400  0.159700  1
  C  C1568  1  0.167400  0.693400  0.340300  1
  C  C1569  1  0.708000  0.783700  0.816900  1
  C  C1570  1  0.792000  0.283700  0.683100  1
  C  C1571  1  0.292000  0.216300  0.183100  1
  C  C1572  1  0.208000  0.716300  0.316900  1
  C  C1573  1  0.726100  0.656000  0.890100  1
  C  C1574  1  0.773900  0.156000  0.609900  1
  C  C1575  1  0.273900  0.344000  0.109900  1
  C  C1576  1  0.226100  0.844000  0.390100  1
  C  C1577  1  0.721100  0.610700  0.916300  1
  C  C1578  1  0.778900  0.110700  0.583700  1
  C  C1579  1  0.278900  0.389300  0.083700  1
  C  C1580  1  0.221100  0.889300  0.416300  1
  C  C1581  1  0.131900  0.822900  0.720400  1
  C  C1582  1  0.368100  0.322900  0.779600  1
  C  C1583  1  0.868100  0.177100  0.279600  1
  C  C1584  1  0.631900  0.677100  0.220400  1
  C  C1585  1  0.104600  0.810600  0.628400  1
  C  C1586  1  0.395400  0.310600  0.871600  1
  C  C1587  1  0.895400  0.189400  0.371600  1
  C  C1588  1  0.604600  0.689400  0.128400  1
  C  C1589  1  0.664000  0.792000  0.815000  1
  C  C1590  1  0.836000  0.292000  0.685000  1
  C  C1591  1  0.336000  0.208000  0.185000  1
  C  C1592  1  0.164000  0.708000  0.315000  1
  C  C1593  1  0.633000  0.813000  0.845000  1
  C  C1594  1  0.867000  0.313000  0.655000  1
  C  C1595  1  0.367000  0.187000  0.155000  1
  C  C1596  1  0.133000  0.687000  0.345000  1
  S  S1597  1  0.422400  0.667600  0.980230  1
  S  S1598  1  0.077600  0.167600  0.519770  1
  S  S1599  1  0.577600  0.332400  0.019770  1
  S  S1600  1  0.922400  0.832400  0.480230  1
  S  S1601  1  0.488700  0.590500  0.952770  1
  S  S1602  1  0.011300  0.090500  0.547230  1
  S  S1603  1  0.511300  0.409500  0.047230  1
  S  S1604  1  0.988700  0.909500  0.452770  1
  S  S1605  1  0.245500  0.560300  0.299830  1
  S  S1606  1  0.254500  0.060300  0.200170  1
  S  S1607  1  0.754500  0.439700  0.700170  1
  S  S1608  1  0.745500  0.939700  0.799830  1
  S  S1609  1  0.199000  0.463580  0.289190  1
  S  S1610  1  0.301000  0.963580  0.210810  1
  S  S1611  1  0.801000  0.536420  0.710810  1
  S  S1612  1  0.699000  0.036420  0.789190  1
  S  S1613  1  0.463400  0.732600  0.302140  1
  S  S1614  1  0.036600  0.232600  0.197860  1
  S  S1615  1  0.536600  0.267400  0.697860  1
  S  S1616  1  0.963400  0.767400  0.802140  1
  S  S1617  1  0.555000  0.714600  0.342370  1
  S  S1618  1  0.945000  0.214600  0.157630  1
  S  S1619  1  0.445000  0.285400  0.657630  1
  S  S1620  1  0.055000  0.785400  0.842370  1
  S  S1621  1  0.843700  0.111100  0.990560  1
  S  S1622  1  0.656300  0.611100  0.509440  1
  S  S1623  1  0.156300  0.888900  0.009440  1
  S  S1624  1  0.343700  0.388900  0.490560  1
  S  S1625  1  0.846500  0.221100  0.998540  1
  S  S1626  1  0.653500  0.721100  0.501460  1
  S  S1627  1  0.153500  0.778900  0.001460  1
  S  S1628  1  0.346500  0.278900  0.498540  1
  S  S1629  1  0.764600  0.624600  0.040510  1
  S  S1630  1  0.735400  0.124600  0.459490  1
  S  S1631  1  0.235400  0.375400  0.959490  1
  S  S1632  1  0.264600  0.875400  0.540510  1
  S  S1633  1  0.773700  0.518400  0.021930  1
  S  S1634  1  0.726300  0.018400  0.478070  1
  S  S1635  1  0.226300  0.481600  0.978070  1
  S  S1636  1  0.273700  0.981600  0.521930  1
  S  S1637  1  0.201800  0.782800  0.688700  1
  S  S1638  1  0.298200  0.282800  0.811300  1
  S  S1639  1  0.798200  0.217200  0.311300  1
  S  S1640  1  0.701800  0.717200  0.188700  1
  S  S1641  1  0.150700  0.715400  0.639600  1
  S  S1642  1  0.349300  0.215400  0.860400  1
  S  S1643  1  0.849300  0.284600  0.360400  1
  S  S1644  1  0.650700  0.784600  0.139600  1
  S  S1645  1  0.197300  0.791900  0.718300  1
  S  S1646  1  0.302700  0.291900  0.781700  1
  S  S1647  1  0.802700  0.208100  0.281700  1
  S  S1648  1  0.697300  0.708100  0.218300  1
  S  S1649  1  0.150100  0.764000  0.650100  1
  S  S1650  1  0.349900  0.264000  0.849900  1
  S  S1651  1  0.849900  0.236000  0.349900  1
  S  S1652  1  0.650100  0.736000  0.150100  1
  N  N1653  1  0.434200  0.684800  0.530200  1
  N  N1654  1  0.065800  0.184800  0.969800  1
  N  N1655  1  0.565800  0.315200  0.469800  1
  N  N1656  1  0.934200  0.815200  0.030200  1
  N  N1657  1  0.457000  0.629000  0.585600  1
  N  N1658  1  0.043000  0.129000  0.914400  1
  N  N1659  1  0.543000  0.371000  0.414400  1
  N  N1660  1  0.957000  0.871000  0.085600  1
  N  N1661  1  0.571100  0.421600  0.801800  1
  N  N1662  1  0.928900  0.921600  0.698200  1
  N  N1663  1  0.428900  0.578400  0.198200  1
  N  N1664  1  0.071100  0.078400  0.301800  1
  N  N1665  1  0.592400  0.349300  0.847500  1
  N  N1666  1  0.907600  0.849300  0.652500  1
  N  N1667  1  0.407600  0.650700  0.152500  1
  N  N1668  1  0.092400  0.150700  0.347500  1
  N  N1669  1  0.483300  0.531700  0.671800  1
  N  N1670  1  0.016700  0.031700  0.828200  1
  N  N1671  1  0.516700  0.468300  0.328200  1
  N  N1672  1  0.983300  0.968300  0.171800  1
  N  N1673  1  0.485700  0.497900  0.699100  1
  N  N1674  1  0.014300  0.997900  0.800900  1
  N  N1675  1  0.514300  0.502100  0.300900  1
  N  N1676  1  0.985700  0.002100  0.199100  1
  N  N1677  1  0.398500  0.575600  0.532500  1
  N  N1678  1  0.101500  0.075600  0.967500  1
  N  N1679  1  0.601500  0.424400  0.467500  1
  N  N1680  1  0.898500  0.924400  0.032500  1
  N  N1681  1  0.349500  0.591100  0.591700  1
  N  N1682  1  0.150500  0.091100  0.908300  1
  N  N1683  1  0.650500  0.408900  0.408300  1
  N  N1684  1  0.849500  0.908900  0.091700  1
  N  N1685  1  0.111000  0.587600  0.805200  1
  N  N1686  1  0.389000  0.087600  0.694800  1
  N  N1687  1  0.889000  0.412400  0.194800  1
  N  N1688  1  0.611000  0.912400  0.305200  1
  N  N1689  1  0.043300  0.594100  0.856400  1
  N  N1690  1  0.456700  0.094100  0.643600  1
  N  N1691  1  0.956700  0.405900  0.143600  1
  N  N1692  1  0.543300  0.905900  0.356400  1
  N  N1693  1  0.223700  0.546700  0.681100  1
  N  N1694  1  0.276300  0.046700  0.818900  1
  N  N1695  1  0.776300  0.453300  0.318900  1
  N  N1696  1  0.723700  0.953300  0.181100  1
  N  N1697  1  0.189200  0.558800  0.707100  1
  N  N1698  1  0.310800  0.058800  0.792900  1
  N  N1699  1  0.810800  0.441200  0.292900  1
  N  N1700  1  0.689200  0.941200  0.207100  1
  N  N1701  1  0.319300  0.660300  0.538600  1
  N  N1702  1  0.180700  0.160300  0.961400  1
  N  N1703  1  0.680700  0.339700  0.461400  1
  N  N1704  1  0.819300  0.839700  0.038600  1
  N  N1705  1  0.371000  0.701200  0.590900  1
  N  N1706  1  0.129000  0.201200  0.909100  1
  N  N1707  1  0.629000  0.298800  0.409100  1
  N  N1708  1  0.871000  0.798800  0.090900  1
  N  N1709  1  0.507300  0.897400  0.805100  1
  N  N1710  1  0.992700  0.397400  0.694900  1
  N  N1711  1  0.492700  0.102600  0.194900  1
  N  N1712  1  0.007300  0.602600  0.305100  1
  N  N1713  1  0.547000  0.941200  0.861600  1
  N  N1714  1  0.953000  0.441200  0.638400  1
  N  N1715  1  0.453000  0.058800  0.138400  1
  N  N1716  1  0.047000  0.558800  0.361600  1
  N  N1717  1  0.401600  0.819700  0.688600  1
  N  N1718  1  0.098400  0.319700  0.811400  1
  N  N1719  1  0.598400  0.180300  0.311400  1
  N  N1720  1  0.901600  0.680300  0.188600  1
  N  N1721  1  0.432200  0.841100  0.714500  1
  N  N1722  1  0.067800  0.341100  0.785500  1
  N  N1723  1  0.567800  0.158900  0.285500  1
  N  N1724  1  0.932200  0.658900  0.214500  1
  N  N1725  1  0.680200  0.407400  0.814300  1
  N  N1726  1  0.819800  0.907400  0.685700  1
  N  N1727  1  0.319800  0.592600  0.185700  1
  N  N1728  1  0.180200  0.092600  0.314300  1
  N  N1729  1  0.641000  0.495600  0.835300  1
  N  N1730  1  0.859000  0.995600  0.664700  1
  N  N1731  1  0.359000  0.504400  0.164700  1
  N  N1732  1  0.141000  0.004400  0.335300  1
  N  N1733  1  0.486300  0.851600  0.873300  1
  N  N1734  1  0.013700  0.351600  0.626700  1
  N  N1735  1  0.513700  0.148400  0.126700  1
  N  N1736  1  0.986300  0.648400  0.373300  1
  N  N1737  1  0.444200  0.935100  0.897400  1
  N  N1738  1  0.055800  0.435100  0.602600  1
  N  N1739  1  0.555800  0.064900  0.102600  1
  N  N1740  1  0.944200  0.564900  0.397400  1
  N  N1741  1  0.591800  0.642200  0.874900  1
  N  N1742  1  0.908200  0.142200  0.625100  1
  N  N1743  1  0.408200  0.357800  0.125100  1
  N  N1744  1  0.091800  0.857800  0.374900  1
  N  N1745  1  0.564000  0.683800  0.886500  1
  N  N1746  1  0.936000  0.183800  0.613500  1
  N  N1747  1  0.436000  0.316200  0.113500  1
  N  N1748  1  0.064000  0.816200  0.386500  1
  N  N1749  1  0.103100  0.521100  0.900800  1
  N  N1750  1  0.396900  0.021100  0.599200  1
  N  N1751  1  0.896900  0.478900  0.099200  1
  N  N1752  1  0.603100  0.978900  0.400800  1
  N  N1753  1  0.150400  0.602500  0.877600  1
  N  N1754  1  0.349600  0.102500  0.622400  1
  N  N1755  1  0.849600  0.397500  0.122400  1
  N  N1756  1  0.650400  0.897500  0.377600  1
  N  N1757  1  0.400200  0.900500  0.833800  1
  N  N1758  1  0.099800  0.400500  0.666200  1
  N  N1759  1  0.599800  0.099500  0.166200  1
  N  N1760  1  0.900200  0.599500  0.333800  1
  N  N1761  1  0.452800  0.986100  0.826700  1
  N  N1762  1  0.047200  0.486100  0.673300  1
  N  N1763  1  0.547200  0.013900  0.173300  1
  N  N1764  1  0.952800  0.513900  0.326700  1
  N  N1765  1  0.276600  0.740100  0.884300  1
  N  N1766  1  0.223400  0.240100  0.615700  1
  N  N1767  1  0.723400  0.259900  0.115700  1
  N  N1768  1  0.776600  0.759900  0.384300  1
  N  N1769  1  0.304900  0.780800  0.870900  1
  N  N1770  1  0.195100  0.280800  0.629100  1
  N  N1771  1  0.695100  0.219200  0.129100  1
  N  N1772  1  0.804900  0.719200  0.370900  1
  N  N1773  1  0.069100  0.491800  0.826400  1
  N  N1774  1  0.430900  0.991800  0.673600  1
  N  N1775  1  0.930900  0.508200  0.173600  1
  N  N1776  1  0.569100  0.008200  0.326400  1
  N  N1777  1  0.168600  0.503900  0.840700  1
  N  N1778  1  0.331400  0.003900  0.659300  1
  N  N1779  1  0.831400  0.496100  0.159300  1
  N  N1780  1  0.668600  0.996100  0.340700  1
  N  N1781  1  0.558300  0.442000  0.876200  1
  N  N1782  1  0.941700  0.942000  0.623800  1
  N  N1783  1  0.441700  0.558000  0.123800  1
  N  N1784  1  0.058300  0.058000  0.376200  1
  N  N1785  1  0.655800  0.419600  0.892100  1
  N  N1786  1  0.844200  0.919600  0.607900  1
  N  N1787  1  0.344200  0.580400  0.107900  1
  N  N1788  1  0.155800  0.080400  0.392100  1
  N  N1789  1  0.349100  0.453800  0.836300  1
  N  N1790  1  0.150900  0.953800  0.663700  1
  N  N1791  1  0.650900  0.546200  0.163700  1
  N  N1792  1  0.849100  0.046200  0.336300  1
  N  N1793  1  0.399400  0.450700  0.847900  1
  N  N1794  1  0.100600  0.950700  0.652100  1
  N  N1795  1  0.600600  0.549300  0.152100  1
  N  N1796  1  0.899400  0.049300  0.347900  1
  N  N1797  1  0.464800  0.648600  0.952000  1
  N  N1798  1  0.035200  0.148600  0.548000  1
  N  N1799  1  0.535200  0.351400  0.048000  1
  N  N1800  1  0.964800  0.851400  0.452000  1
  N  N1801  1  0.246600  0.503300  0.282900  1
  N  N1802  1  0.253400  0.003300  0.217100  1
  N  N1803  1  0.753400  0.496700  0.717100  1
  N  N1804  1  0.746600  0.996700  0.782900  1
  N  N1805  1  0.519700  0.704500  0.306100  1
  N  N1806  1  0.980300  0.204500  0.193900  1
  N  N1807  1  0.480300  0.295500  0.693900  1
  N  N1808  1  0.019700  0.795500  0.806100  1
  N  N1809  1  0.818200  0.165100  0.002600  1
  N  N1810  1  0.681800  0.665100  0.497400  1
  N  N1811  1  0.181800  0.834900  0.997400  1
  N  N1812  1  0.318200  0.334900  0.502600  1
  N  N1813  1  0.770100  0.578800  0.011500  1
  N  N1814  1  0.729900  0.078800  0.488500  1
  N  N1815  1  0.229900  0.421200  0.988500  1
  N  N1816  1  0.270100  0.921200  0.511500  1
  N  N1817  1  0.166200  0.730400  0.680600  1
  N  N1818  1  0.333800  0.230400  0.819400  1
  N  N1819  1  0.833800  0.269600  0.319400  1
  N  N1820  1  0.666200  0.769600  0.180600  1
  N  N1821  1  0.492000  0.559700  0.815500  1
  N  N1822  1  0.008000  0.059700  0.684500  1
  N  N1823  1  0.508000  0.440300  0.184500  1
  N  N1824  1  0.992000  0.940300  0.315500  1
  N  N1825  1  0.401800  0.651500  0.684400  1
  N  N1826  1  0.098200  0.151500  0.815600  1
  N  N1827  1  0.598200  0.348500  0.315600  1
  N  N1828  1  0.901800  0.848500  0.184400  1
  N  N1829  1  0.602600  0.807600  0.631400  1
  N  N1830  1  0.897400  0.307600  0.868600  1
  N  N1831  1  0.397400  0.192400  0.368600  1
  N  N1832  1  0.102600  0.692400  0.131400  1
  N  N1833  1  0.306000  0.939400  0.357900  1
  N  N1834  1  0.194000  0.439400  0.142100  1
  N  N1835  1  0.694000  0.060600  0.642100  1
  N  N1836  1  0.806000  0.560600  0.857900  1
  N  N1837  1  0.271200  0.902300  0.905300  1
  N  N1838  1  0.228800  0.402300  0.594700  1
  N  N1839  1  0.728800  0.097700  0.094700  1
  N  N1840  1  0.771200  0.597700  0.405300  1
  N  N1841  1  0.589800  0.818100  0.976500  1
  N  N1842  1  0.910200  0.318100  0.523500  1
  N  N1843  1  0.410200  0.181900  0.023500  1
  N  N1844  1  0.089800  0.681900  0.476500  1
  N  N1845  1  0.431400  0.756900  0.793200  1
  N  N1846  1  0.068600  0.256900  0.706800  1
  N  N1847  1  0.568600  0.243100  0.206800  1
  N  N1848  1  0.931400  0.743100  0.293200  1
  N  N1849  1  0.305800  0.451400  0.723200  1
  N  N1850  1  0.194200  0.951400  0.776800  1
  N  N1851  1  0.694200  0.548600  0.276800  1
  N  N1852  1  0.805800  0.048600  0.223200  1
  N  N1853  1  0.639300  0.822000  0.862000  1
  N  N1854  1  0.860700  0.322000  0.638000  1
  N  N1855  1  0.360700  0.178000  0.138000  1
  N  N1856  1  0.139300  0.678000  0.362000  1
  N  N1857  1  0.732700  0.686500  0.862100  1
  N  N1858  1  0.767300  0.186500  0.637900  1
  N  N1859  1  0.267300  0.313500  0.137900  1
  N  N1860  1  0.232700  0.813500  0.362100  1
  N  N1861  1  0.201700  0.786000  0.674000  1
  N  N1862  1  0.298300  0.286000  0.826000  1
  N  N1863  1  0.798300  0.214000  0.326000  1
  N  N1864  1  0.701700  0.714000  0.174000  1
  N  N1865  1  0.696000  0.784000  0.793600  1
  N  N1866  1  0.804000  0.284000  0.706400  1
  N  N1867  1  0.304000  0.216000  0.206400  1
  N  N1868  1  0.196000  0.716000  0.293600  1
  O  O1869  1  0.432900  0.723100  0.986700  1
  O  O1870  1  0.067100  0.223100  0.513300  1
  O  O1871  1  0.567100  0.276900  0.013300  1
  O  O1872  1  0.932900  0.776900  0.486700  1
  O  O1873  1  0.409400  0.635200  0.010300  1
  O  O1874  1  0.090600  0.135200  0.489700  1
  O  O1875  1  0.590600  0.364800  0.989700  1
  O  O1876  1  0.909400  0.864800  0.510300  1
  O  O1877  1  0.461400  0.553300  0.974200  1
  O  O1878  1  0.038600  0.053300  0.525800  1
  O  O1879  1  0.538600  0.446700  0.025800  1
  O  O1880  1  0.961400  0.946700  0.474200  1
  O  O1881  1  0.502700  0.577900  0.916100  1
  O  O1882  1  0.997300  0.077900  0.583900  1
  O  O1883  1  0.497300  0.422100  0.083900  1
  O  O1884  1  0.002700  0.922100  0.416100  1
  O  O1885  1  0.243100  0.598800  0.271500  1
  O  O1886  1  0.256900  0.098800  0.228500  1
  O  O1887  1  0.756900  0.401200  0.728500  1
  O  O1888  1  0.743100  0.901200  0.771500  1
  O  O1889  1  0.211100  0.570200  0.329900  1
  O  O1890  1  0.288900  0.070200  0.170100  1
  O  O1891  1  0.788900  0.429800  0.670100  1
  O  O1892  1  0.711100  0.929800  0.829900  1
  O  O1893  1  0.149000  0.487800  0.296500  1
  O  O1894  1  0.351000  0.987800  0.203500  1
  O  O1895  1  0.851000  0.512200  0.703500  1
  O  O1896  1  0.649000  0.012200  0.796500  1
  O  O1897  1  0.201300  0.425400  0.260900  1
  O  O1898  1  0.298700  0.925400  0.239100  1
  O  O1899  1  0.798700  0.574600  0.739100  1
  O  O1900  1  0.701300  0.074600  0.760900  1
  O  O1901  1  0.450800  0.734200  0.264100  1
  O  O1902  1  0.049200  0.234200  0.235900  1
  O  O1903  1  0.549200  0.265800  0.735900  1
  O  O1904  1  0.950800  0.765800  0.764100  1
  O  O1905  1  0.455700  0.777100  0.324100  1
  O  O1906  1  0.044300  0.277100  0.175900  1
  O  O1907  1  0.544300  0.222900  0.675900  1
  O  O1908  1  0.955700  0.722900  0.824100  1
  O  O1909  1  0.530100  0.700900  0.376400  1
  O  O1910  1  0.969900  0.200900  0.123600  1
  O  O1911  1  0.469900  0.299100  0.623600  1
  O  O1912  1  0.030100  0.799100  0.876400  1
  O  O1913  1  0.586400  0.760300  0.339500  1
  O  O1914  1  0.913600  0.260300  0.160500  1
  O  O1915  1  0.413600  0.239700  0.660500  1
  O  O1916  1  0.086400  0.739700  0.839500  1
  O  O1917  1  0.828400  0.072300  0.015700  1
  O  O1918  1  0.671600  0.572300  0.484300  1
  O  O1919  1  0.171600  0.927700  0.984300  1
  O  O1920  1  0.328400  0.427700  0.515700  1
  O  O1921  1  0.897600  0.113800  0.979500  1
  O  O1922  1  0.602400  0.613800  0.520500  1
  O  O1923  1  0.102400  0.886200  0.020500  1
  O  O1924  1  0.397600  0.386200  0.479500  1
  O  O1925  1  0.806200  0.259900  0.001200  1
  O  O1926  1  0.693800  0.759900  0.498800  1
  O  O1927  1  0.193800  0.740100  0.998800  1
  O  O1928  1  0.306200  0.240100  0.501200  1
  O  O1929  1  0.884600  0.225800  0.971100  1
  O  O1930  1  0.615400  0.725800  0.528900  1
  O  O1931  1  0.115400  0.774200  0.028900  1
  O  O1932  1  0.384600  0.274200  0.471100  1
  O  O1933  1  0.787800  0.670200  0.026800  1
  O  O1934  1  0.712200  0.170200  0.473200  1
  O  O1935  1  0.212200  0.329800  0.973200  1
  O  O1936  1  0.287800  0.829800  0.526800  1
  O  O1937  1  0.772000  0.611800  0.078500  1
  O  O1938  1  0.728000  0.111800  0.421500  1
  O  O1939  1  0.228000  0.388200  0.921500  1
  O  O1940  1  0.272000  0.888200  0.578500  1
  O  O1941  1  0.769900  0.505200  0.059600  1
  O  O1942  1  0.730100  0.005200  0.440400  1
  O  O1943  1  0.230100  0.494800  0.940400  1
  O  O1944  1  0.269900  0.994800  0.559600  1
  O  O1945  1  0.814600  0.493000  0.001400  1
  O  O1946  1  0.685400  0.993000  0.498600  1
  O  O1947  1  0.185400  0.507000  0.998600  1
  O  O1948  1  0.314600  0.007000  0.501400  1
  O  O1949  1  0.248800  0.761400  0.706300  1
  O  O1950  1  0.251200  0.261400  0.793700  1
  O  O1951  1  0.751200  0.238600  0.293700  1
  O  O1952  1  0.748800  0.738600  0.206300  1
  O  O1953  1  0.213300  0.820600  0.661800  1
  O  O1954  1  0.286700  0.320600  0.838200  1
  O  O1955  1  0.786700  0.179400  0.338200  1
  O  O1956  1  0.713300  0.679400  0.161800  1
  O  O1957  1  0.193400  0.722100  0.615200  1
  O  O1958  1  0.306600  0.222100  0.884800  1
  O  O1959  1  0.806600  0.277900  0.384800  1
  O  O1960  1  0.693400  0.777900  0.115200  1
  O  O1961  1  0.125800  0.664200  0.641300  1
  O  O1962  1  0.374200  0.164200  0.858700  1
  O  O1963  1  0.874200  0.335800  0.358700  1
  O  O1964  1  0.625800  0.835800  0.141300  1
  O  O1965  1  0.235100  0.830600  0.729900  1
  O  O1966  1  0.264900  0.330600  0.770100  1
  O  O1967  1  0.764900  0.169400  0.270100  1
  O  O1968  1  0.735100  0.669400  0.229900  1
  O  O1969  1  0.198000  0.744800  0.738100  1
  O  O1970  1  0.302000  0.244800  0.761900  1
  O  O1971  1  0.802000  0.255200  0.261900  1
  O  O1972  1  0.698000  0.755200  0.238100  1
  O  O1973  1  0.118900  0.734300  0.674700  1
  O  O1974  1  0.381100  0.234300  0.825300  1
  O  O1975  1  0.881100  0.265700  0.325300  1
  O  O1976  1  0.618900  0.765700  0.174700  1
  O  O1977  1  0.171300  0.743000  0.616800  1
  O  O1978  1  0.328700  0.243000  0.883200  1
  O  O1979  1  0.828700  0.257000  0.383200  1
  O  O1980  1  0.671300  0.757000  0.116800  1
  F  F1981  1  0.296800  0.606500  0.838200  1
  F  F1982  1  0.203200  0.106500  0.661800  1
  F  F1983  1  0.703200  0.393500  0.161800  1
  F  F1984  1  0.796800  0.893500  0.338200  1
  F  F1985  1  0.271500  0.566400  0.787000  1
  F  F1986  1  0.228500  0.066400  0.713000  1
  F  F1987  1  0.728500  0.433600  0.213000  1
  F  F1988  1  0.771500  0.933600  0.287000  1
  F  F1989  1  0.338900  0.624900  0.786500  1
  F  F1990  1  0.161100  0.124900  0.713500  1
  F  F1991  1  0.661100  0.375100  0.213500  1
  F  F1992  1  0.838900  0.875100  0.286500  1
  F  F1993  1  0.254700  0.652200  0.794500  1
  F  F1994  1  0.245300  0.152200  0.705500  1
  F  F1995  1  0.745300  0.347800  0.205500  1
  F  F1996  1  0.754700  0.847800  0.294500  1
  F  F1997  1  0.619900  0.652800  0.732900  1
  F  F1998  1  0.880100  0.152800  0.767100  1
  F  F1999  1  0.380100  0.347200  0.267100  1
  F  F2000  1  0.119900  0.847200  0.232900  1
  F  F2001  1  0.613200  0.739100  0.726100  1
  F  F2002  1  0.886800  0.239100  0.773900  1
  F  F2003  1  0.386800  0.260900  0.273900  1
  F  F2004  1  0.113200  0.760900  0.226100  1
  F  F2005  1  0.634600  0.686600  0.679600  1
  F  F2006  1  0.865400  0.186600  0.820400  1
  F  F2007  1  0.365400  0.313400  0.320400  1
  F  F2008  1  0.134600  0.813400  0.179600  1
  F  F2009  1  0.552700  0.684200  0.698900  1
  F  F2010  1  0.947300  0.184200  0.801100  1
  F  F2011  1  0.447300  0.315800  0.301100  1
  F  F2012  1  0.052700  0.815800  0.198900  1
  F  F2013  1  0.322800  0.687300  0.970900  1
  F  F2014  1  0.177200  0.187300  0.529100  1
  F  F2015  1  0.677200  0.312700  0.029100  1
  F  F2016  1  0.822800  0.812700  0.470900  1
  F  F2017  1  0.351100  0.623600  0.940300  1
  F  F2018  1  0.148900  0.123600  0.559700  1
  F  F2019  1  0.648900  0.376400  0.059700  1
  F  F2020  1  0.851100  0.876400  0.440300  1
  F  F2021  1  0.373100  0.699400  0.923200  1
  F  F2022  1  0.126900  0.199400  0.576800  1
  F  F2023  1  0.626900  0.300600  0.076800  1
  F  F2024  1  0.873100  0.800600  0.423200  1
  F  F2025  1  0.578100  0.555600  0.978300  1
  F  F2026  1  0.921900  0.055600  0.521700  1
  F  F2027  1  0.421900  0.444400  0.021700  1
  F  F2028  1  0.078100  0.944400  0.478300  1
  F  F2029  1  0.582600  0.635000  0.959100  1
  F  F2030  1  0.917400  0.135000  0.540900  1
  F  F2031  1  0.417400  0.365000  0.040900  1
  F  F2032  1  0.082600  0.865000  0.459100  1
  F  F2033  1  0.545700  0.617600  0.008900  1
  F  F2034  1  0.954300  0.117600  0.491100  1
  F  F2035  1  0.454300  0.382400  0.991100  1
  F  F2036  1  0.045700  0.882400  0.508900  1
  F  F2037  1  0.344200  0.558600  0.291000  1
  F  F2038  1  0.155800  0.058600  0.209000  1
  F  F2039  1  0.655800  0.441400  0.709000  1
  F  F2040  1  0.844200  0.941400  0.791000  1
  F  F2041  1  0.318600  0.525100  0.342700  1
  F  F2042  1  0.181400  0.025100  0.157300  1
  F  F2043  1  0.681400  0.474900  0.657300  1
  F  F2044  1  0.818600  0.974900  0.842700  1
  F  F2045  1  0.316600  0.606800  0.337400  1
  F  F2046  1  0.183400  0.106800  0.162600  1
  F  F2047  1  0.683400  0.393200  0.662600  1
  F  F2048  1  0.816600  0.893200  0.837400  1
  F  F2049  1  0.215700  0.457400  0.358600  1
  F  F2050  1  0.284300  0.957400  0.141400  1
  F  F2051  1  0.784300  0.542600  0.641400  1
  F  F2052  1  0.715700  0.042600  0.858600  1
  F  F2053  1  0.265100  0.407900  0.327600  1
  F  F2054  1  0.234900  0.907900  0.172400  1
  F  F2055  1  0.734900  0.592100  0.672400  1
  F  F2056  1  0.765100  0.092100  0.827600  1
  F  F2057  1  0.181800  0.389400  0.334500  1
  F  F2058  1  0.318200  0.889400  0.165500  1
  F  F2059  1  0.818200  0.610600  0.665500  1
  F  F2060  1  0.681800  0.110600  0.834500  1
  F  F2061  1  0.366300  0.705600  0.315800  1
  F  F2062  1  0.133700  0.205600  0.184200  1
  F  F2063  1  0.633700  0.294400  0.684200  1
  F  F2064  1  0.866300  0.794400  0.815800  1
  F  F2065  1  0.415700  0.642400  0.299500  1
  F  F2066  1  0.084300  0.142400  0.200500  1
  F  F2067  1  0.584300  0.357600  0.700500  1
  F  F2068  1  0.915700  0.857600  0.799500  1
  F  F2069  1  0.423800  0.672700  0.352700  1
  F  F2070  1  0.076200  0.172700  0.147300  1
  F  F2071  1  0.576200  0.327300  0.647300  1
  F  F2072  1  0.923800  0.827300  0.852700  1
  F  F2073  1  0.626000  0.664500  0.305400  1
  F  F2074  1  0.874000  0.164500  0.194600  1
  F  F2075  1  0.374000  0.335500  0.694600  1
  F  F2076  1  0.126000  0.835500  0.805400  1
  F  F2077  1  0.634400  0.659800  0.363800  1
  F  F2078  1  0.865600  0.159800  0.136200  1
  F  F2079  1  0.365600  0.340200  0.636200  1
  F  F2080  1  0.134400  0.840200  0.863800  1
  F  F2081  1  0.574400  0.614800  0.335200  1
  F  F2082  1  0.925600  0.114800  0.164800  1
  F  F2083  1  0.425600  0.385200  0.664800  1
  F  F2084  1  0.074400  0.885200  0.835200  1
  F  F2085  1  0.812900  0.130900  0.924900  1
  F  F2086  1  0.687100  0.630900  0.575100  1
  F  F2087  1  0.187100  0.869100  0.075100  1
  F  F2088  1  0.312900  0.369100  0.424900  1
  F  F2089  1  0.823000  0.049400  0.937100  1
  F  F2090  1  0.677000  0.549400  0.562900  1
  F  F2091  1  0.177000  0.950600  0.062900  1
  F  F2092  1  0.323000  0.450600  0.437100  1
  F  F2093  1  0.754800  0.092100  0.956800  1
  F  F2094  1  0.745200  0.592100  0.543200  1
  F  F2095  1  0.245200  0.907900  0.043200  1
  F  F2096  1  0.254800  0.407900  0.456800  1
  F  F2097  1  0.919800  0.188100  0.042600  1
  F  F2098  1  0.580200  0.688100  0.457400  1
  F  F2099  1  0.080200  0.811900  0.957400  1
  F  F2100  1  0.419800  0.311900  0.542600  1
  F  F2101  1  0.908100  0.270800  0.042100  1
  F  F2102  1  0.591900  0.770800  0.457900  1
  F  F2103  1  0.091900  0.729200  0.957900  1
  F  F2104  1  0.408100  0.229200  0.542100  1
  F  F2105  1  0.853100  0.222100  0.068900  1
  F  F2106  1  0.646900  0.722100  0.431100  1
  F  F2107  1  0.146900  0.777900  0.931100  1
  F  F2108  1  0.353100  0.277900  0.568900  1
  F  F2109  1  0.669300  0.602100  0.058700  1
  F  F2110  1  0.830700  0.102100  0.441300  1
  F  F2111  1  0.330700  0.397900  0.941300  1
  F  F2112  1  0.169300  0.897900  0.558700  1
  F  F2113  1  0.673800  0.641700  0.008900  1
  F  F2114  1  0.826200  0.141700  0.491100  1
  F  F2115  1  0.326200  0.358300  0.991100  1
  F  F2116  1  0.173800  0.858300  0.508900  1
  F  F2117  1  0.686800  0.685100  0.057300  1
  F  F2118  1  0.813200  0.185100  0.442700  1
  F  F2119  1  0.313200  0.314900  0.942700  1
  F  F2120  1  0.186800  0.814900  0.557300  1
  F  F2121  1  0.670300  0.510300  0.018200  1
  F  F2122  1  0.829700  0.010300  0.481800  1
  F  F2123  1  0.329700  0.489700  0.981800  1
  F  F2124  1  0.170300  0.989700  0.518200  1
  F  F2125  1  0.713000  0.440500  0.004500  1
  F  F2126  1  0.787000  0.940500  0.495500  1
  F  F2127  1  0.287000  0.559500  0.995500  1
  F  F2128  1  0.213000  0.059500  0.504500  1
  F  F2129  1  0.708600  0.504200  0.967500  1
  F  F2130  1  0.791400  0.004200  0.532500  1
  F  F2131  1  0.291400  0.495800  0.032500  1
  F  F2132  1  0.208600  0.995800  0.467500  1
  F  F2133  1  0.122400  0.836700  0.709100  1
  F  F2134  1  0.377600  0.336700  0.790900  1
  F  F2135  1  0.877600  0.163300  0.290900  1
  F  F2136  1  0.622400  0.663300  0.209100  1
  F  F2137  1  0.152300  0.778300  0.746800  1
  F  F2138  1  0.347700  0.278300  0.753200  1
  F  F2139  1  0.847700  0.221700  0.253200  1
  F  F2140  1  0.652300  0.721700  0.246800  1
  F  F2141  1  0.192700  0.852600  0.737100  1
  F  F2142  1  0.307300  0.352600  0.762900  1
  F  F2143  1  0.807300  0.147400  0.262900  1
  F  F2144  1  0.692700  0.647400  0.237100  1
  F  F2145  1  0.078800  0.741100  0.592900  1
  F  F2146  1  0.421200  0.241100  0.907100  1
  F  F2147  1  0.921200  0.258900  0.407100  1
  F  F2148  1  0.578800  0.758900  0.092900  1
  F  F2149  1  0.056600  0.757300  0.647600  1
  F  F2150  1  0.443400  0.257300  0.852400  1
  F  F2151  1  0.943400  0.242700  0.352400  1
  F  F2152  1  0.556600  0.742700  0.147600  1
  F  F2153  1  0.110100  0.808200  0.621600  1
  F  F2154  1  0.389900  0.308200  0.878400  1
  F  F2155  1  0.889900  0.191800  0.378400  1
  F  F2156  1  0.610100  0.691800  0.121600  1
  F  F2157  1  0.113100  0.829000  0.686400  1
  F  F2158  1  0.386900  0.329000  0.813600  1
  F  F2159  1  0.886900  0.171000  0.313600  1
  F  F2160  1  0.613100  0.671000  0.186400  1
  F  F2161  1  0.137000  0.870500  0.733700  1
  F  F2162  1  0.363000  0.370500  0.766300  1
  F  F2163  1  0.863000  0.129500  0.266300  1
  F  F2164  1  0.637000  0.629500  0.233700  1
  F  F2165  1  0.099600  0.792100  0.737200  1
  F  F2166  1  0.400400  0.292100  0.762800  1
  F  F2167  1  0.900400  0.207900  0.262800  1
  F  F2168  1  0.599600  0.707900  0.237200  1
  F  F2169  1  0.130100  0.852600  0.617100  1
  F  F2170  1  0.369900  0.352600  0.882900  1
  F  F2171  1  0.869900  0.147400  0.382900  1
  F  F2172  1  0.630100  0.647400  0.117100  1
  F  F2173  1  0.085000  0.793000  0.596400  1
  F  F2174  1  0.415000  0.293000  0.903600  1
  F  F2175  1  0.915000  0.207000  0.403600  1
  F  F2176  1  0.585000  0.707000  0.096400  1
  F  F2177  1  0.062000  0.821800  0.646700  1
  F  F2178  1  0.438000  0.321800  0.853300  1
  F  F2179  1  0.938000  0.178200  0.353300  1
  F  F2180  1  0.562000  0.678200  0.146700  1
