
#######################################################################
#
#                 Cambridge Crystallographic Data Centre
#                                CCDC 
#
#######################################################################
#
# If this CIF has been generated from an entry in the Cambridge 
# Structural Database, then it will include bibliographic, chemical, 
# crystal, experimental, refinement or atomic coordinate data resulting 
# from the CCDC's data processing and validation procedures.
#
#######################################################################

data_SUQGUI
_chemical_formula_moiety         
'C180 H144 Fe4 N36 8+,6(C2 F6 N1 O4 S2 1-),9.5(C2 H3 N1),2(B1 F4 1-)'
_chemical_name_systematic        
'hexakis(\m-(pyridazine-3,6-diyldipyridine-5,2-diyl)bis(N-(4-methylphenyl)methanimine))-tetra-iron hexakis(bis(trifluoromethane)sulfonimide) bis(tetrafluoroborate) acetonitrile unknown solvate'
_symmetry_cell_setting           monoclinic
_symmetry_space_group_name_H-M   'P 21/n'
_symmetry_Int_Tables_number      14
_space_group_name_Hall           '-P 2yn'
loop_
_symmetry_equiv_pos_site_id
_symmetry_equiv_pos_as_xyz
1 x,y,z
2 1/2-x,1/2+y,1/2-z
3 -x,-y,-z
4 1/2+x,1/2-y,1/2+z
_cell_length_a                   25.1666(11)
_cell_length_b                   25.5055(9)
_cell_length_c                   37.0688(15)
_cell_angle_alpha                90
_cell_angle_beta                 90.871(2)
_cell_angle_gamma                90
_cell_volume                     23791.2
_exptl_crystal_colour            purple
_exptl_crystal_description       needle
_cell_formula_units_Z            4
_exptl_crystal_recrystallization_method acetonitrile
loop_
_atom_site_label
_atom_site_type_symbol
_atom_site_fract_x
_atom_site_fract_y
_atom_site_fract_z
Fe1 Fe 0.38861(9) 0.64045(8) 0.56045(5)
Fe2 Fe 0.61819(8) 0.42226(8) 0.84477(5)
Fe3 Fe 0.47334(8) 0.91983(8) 0.85001(5)
Fe4 Fe 0.10669(8) 0.54938(8) 0.85144(5)
N1 N 0.4342(4) 0.6848(4) 0.5302(2)
N2 N 0.4570(4) 0.6290(4) 0.5856(3)
N3 N 0.5711(4) 0.4216(4) 0.8018(2)
N4 N 0.5924(5) 0.3493(4) 0.8475(3)
N5 N 0.4833(4) 0.5317(4) 0.6718(3)
N6 N 0.4857(4) 0.4979(4) 0.6991(3)
C1 C 0.4195(5) 0.7134(5) 0.4980(3)
C2 C 0.4422(5) 0.7010(5) 0.4656(3)
H1 H 0.4676 0.6735 0.4645
C3 C 0.4282(6) 0.7286(5) 0.4343(3)
H2 H 0.4444 0.7199 0.4121
C4 C 0.3917(6) 0.7676(5) 0.4354(3)
C5 C 0.3692(5) 0.7799(5) 0.4678(3)
H3 H 0.3434 0.8070 0.4688
C6 C 0.3833(5) 0.7533(5) 0.4992(3)
H4 H 0.3679 0.7629 0.5215
C7 C 0.3742(6) 0.7979(6) 0.4023(3)
H5 H 0.4045 0.8026 0.3863
H6 H 0.3607 0.8323 0.4095
H7 H 0.3460 0.7785 0.3895
C8 C 0.4828(5) 0.6858(5) 0.5400(3)
H8 H 0.5081 0.7052 0.5268
C9 C 0.4984(5) 0.6568(5) 0.5720(3)
C10 C 0.5483(5) 0.6565(5) 0.5877(3)
H9 H 0.5765 0.6763 0.5778
C11 C 0.5565(5) 0.6266(5) 0.6183(3)
H10 H 0.5904 0.6267 0.6299
C12 C 0.5164(5) 0.5968(5) 0.6323(3)
C13 C 0.4665(5) 0.5995(5) 0.6149(3)
H11 H 0.4381 0.5795 0.6244
C14 C 0.5232(5) 0.5636(5) 0.6648(3)
C15 C 0.5686(5) 0.5645(5) 0.6861(3)
H12 H 0.5967 0.5884 0.6816
C16 C 0.5715(5) 0.5297(5) 0.7138(4)
H13 H 0.6021 0.5286 0.7292
C17 C 0.5297(5) 0.4961(5) 0.7195(3)
C18 C 0.5652(5) 0.4591(5) 0.7768(3)
H14 H 0.5859 0.4901 0.7790
C19 C 0.5300(5) 0.4547(5) 0.7476(3)
C20 C 0.4986(5) 0.4107(5) 0.7453(3)
H15 H 0.4732 0.4070 0.7262
C21 C 0.5046(5) 0.3720(5) 0.7708(3)
H16 H 0.4830 0.3415 0.7696
C22 C 0.5418(5) 0.3771(5) 0.7983(3)
C23 C 0.5549(5) 0.3379(5) 0.8244(3)
H17 H 0.5371 0.3051 0.8249
C24 C 0.6094(6) 0.3098(5) 0.8731(4)
C25 C 0.5846(7) 0.3044(6) 0.9055(4)
H18 H 0.5563 0.3272 0.9117
C26 C 0.6012(8) 0.2647(7) 0.9293(4)
H19 H 0.5819 0.2588 0.9507
C27 C 0.6443(8) 0.2348(7) 0.9225(4)
C28 C 0.6663(7) 0.2384(6) 0.8901(4)
H20 H 0.6939 0.2148 0.8839
C29 C 0.6498(6) 0.2758(6) 0.8653(4)
H21 H 0.6667 0.2780 0.8426
C30 C 0.6629(9) 0.1938(7) 0.9496(5)
H22 H 0.6891 0.1708 0.9383
H23 H 0.6325 0.1729 0.9573
H24 H 0.6792 0.2112 0.9705
N7 N 0.3985(4) 0.5756(4) 0.5325(2)
N8 N 0.3495(4) 0.5911(4) 0.5917(2)
N9 N 0.1110(4) 0.5876(4) 0.8052(3)
N10 N 0.0433(4) 0.5941(4) 0.8564(3)
N11 N 0.2237(5) 0.5467(4) 0.6811(3)
N12 N 0.1892(5) 0.5588(4) 0.7071(3)
C31 C 0.4268(5) 0.5690(5) 0.4991(3)
C32 C 0.4811(5) 0.5719(5) 0.4987(3)
H25 H 0.5007 0.5773 0.5205
C33 C 0.5074(6) 0.5668(5) 0.4662(3)
H26 H 0.5451 0.5694 0.4662
C34 C 0.4814(6) 0.5582(6) 0.4346(3)
C35 C 0.4274(6) 0.5544(6) 0.4356(4)
H27 H 0.4081 0.5477 0.4138
C36 C 0.3996(6) 0.5601(6) 0.4676(3)
H28 H 0.3620 0.5577 0.4675
C37 C 0.5097(7) 0.5545(7) 0.3990(4)
H29 H 0.5360 0.5828 0.3975
H30 H 0.4838 0.5579 0.3792
H31 H 0.5278 0.5206 0.3974
C38 C 0.3771(5) 0.5347(5) 0.5464(3)
H32 H 0.3804 0.5013 0.5353
C39 C 0.3481(5) 0.5409(5) 0.5793(3)
C40 C 0.3210(5) 0.5016(5) 0.5967(3)
H33 H 0.3218 0.4666 0.5880
C41 C 0.2927(5) 0.5141(5) 0.6268(3)
H34 H 0.2739 0.4875 0.6391
C42 C 0.2912(5) 0.5650(5) 0.6393(3)
C43 C 0.3210(5) 0.6025(5) 0.6209(3)
H35 H 0.3210 0.6376 0.6295
C44 C 0.2580(5) 0.5812(5) 0.6701(3)
C45 C 0.2630(6) 0.6290(5) 0.6872(4)
H36 H 0.2904 0.6527 0.6808
C46 C 0.2281(6) 0.6412(5) 0.7133(4)
H37 H 0.2303 0.6739 0.7256
C47 C 0.1892(5) 0.6052(5) 0.7217(3)
C48 C 0.1471(5) 0.5819(5) 0.7792(3)
H38 H 0.1730 0.5550 0.7817
C49 C 0.1482(5) 0.6133(5) 0.7489(3)
C50 C 0.1093(5) 0.6514(5) 0.7448(4)
H39 H 0.1084 0.6730 0.7240
C51 C 0.0719(6) 0.6575(5) 0.7713(3)
H40 H 0.0455 0.6840 0.7691
C52 C 0.0731(5) 0.6249(5) 0.8011(3)
C53 C 0.0366(5) 0.6274(5) 0.8304(3)
H41 H 0.0087 0.6525 0.8307
C54 C 0.0070(5) 0.5945(5) 0.8861(3)
C55 C 0.0188(5) 0.6232(5) 0.9166(3)
H42 H 0.0497 0.6445 0.9178
C56 C -0.0154(5) 0.6204(5) 0.9458(3)
H43 H -0.0068 0.6392 0.9673
C57 C -0.0607(5) 0.5915(5) 0.9444(3)
C58 C -0.0735(5) 0.5669(5) 0.9126(3)
H44 H -0.1065 0.5489 0.9106
C59 C -0.0398(5) 0.5672(5) 0.8832(3)
H45 H -0.0490 0.5489 0.8617
C60 C -0.0971(6) 0.5866(6) 0.9765(3)
H46 H -0.0892 0.5539 0.9894
H47 H -0.1342 0.5864 0.9681
H48 H -0.0913 0.6165 0.9928
N13 N 0.3193(4) 0.6603(4) 0.5386(2)
N14 N 0.3710(4) 0.7012(4) 0.5909(2)
N15 N 0.5073(4) 0.8974(4) 0.8051(2)
N16 N 0.5470(4) 0.9412(4) 0.8616(2)
N17 N 0.4016(4) 0.8197(4) 0.6886(3)
N18 N 0.4322(4) 0.8411(4) 0.7145(3)
C61 C 0.2938(6) 0.6351(5) 0.5084(3)
C62 C 0.2964(6) 0.6547(6) 0.4739(3)
H49 H 0.3143 0.6869 0.4695
C63 C 0.2729(6) 0.6275(6) 0.4453(4)
H50 H 0.2761 0.6412 0.4216
C64 C 0.2458(6) 0.5823(6) 0.4500(3)
C65 C 0.2434(6) 0.5630(6) 0.4843(3)
H51 H 0.2253 0.5310 0.4886
C66 C 0.2669(6) 0.5894(5) 0.5130(3)
H52 H 0.2643 0.5752 0.5366
C67 C 0.2214(7) 0.5529(7) 0.4183(4)
H53 H 0.1934 0.5744 0.4071
H54 H 0.2061 0.5199 0.4268
H55 H 0.2489 0.5454 0.4006
C68 C 0.2950(5) 0.6969(5) 0.5547(3)
H56 H 0.2601 0.7070 0.5475
C69 C 0.3223(5) 0.7227(5) 0.5844(3)
C70 C 0.3035(5) 0.7634(5) 0.6051(3)
H57 H 0.2684 0.7763 0.6011
C71 C 0.3352(5) 0.7850(5) 0.6312(3)
H58 H 0.3223 0.8133 0.6453
C72 C 0.3855(5) 0.7660(5) 0.6373(3)
C73 C 0.4016(5) 0.7230(4) 0.6164(3)
H59 H 0.4360 0.7088 0.6207
C74 C 0.4229(5) 0.7874(5) 0.6647(3)
C75 C 0.4764(5) 0.7767(5) 0.6659(3)
H60 H 0.4916 0.7547 0.6482
C76 C 0.5077(5) 0.7977(5) 0.6926(3)
H61 H 0.5445 0.7899 0.6944
C77 C 0.4836(5) 0.8306(5) 0.7169(3)
C78 C 0.4842(5) 0.8746(4) 0.7763(3)
H62 H 0.4467 0.8708 0.7760
C79 C 0.5122(5) 0.8561(5) 0.7470(3)
C80 C 0.5669(5) 0.8626(5) 0.7477(3)
H63 H 0.5875 0.8500 0.7283
C81 C 0.5913(5) 0.8875(5) 0.7765(3)
H64 H 0.6287 0.8930 0.7769
C82 C 0.5607(5) 0.9043(5) 0.8050(3)
C83 C 0.5811(5) 0.9289(4) 0.8373(3)
H65 H 0.6179 0.9357 0.8406
C84 C 0.5663(5) 0.9662(5) 0.8939(3)
C85 C 0.5711(5) 0.9377(5) 0.9255(3)
H66 H 0.5614 0.9017 0.9260
C86 C 0.5902(6) 0.9621(5) 0.9567(3)
H67 H 0.5931 0.9427 0.9785
C87 C 0.6048(6) 1.0139(5) 0.9561(3)
C88 C 0.5997(6) 1.0412(5) 0.9246(3)
H68 H 0.6094 1.0772 0.9242
C89 C 0.5810(5) 1.0181(5) 0.8932(3)
H69 H 0.5783 1.0377 0.8715
C90 C 0.6257(6) 1.0409(6) 0.9902(3)
H70 H 0.6162 1.0202 1.0113
H71 H 0.6100 1.0760 0.9919
H72 H 0.6645 1.0440 0.9891
N19 N 0.6802(4) 0.4074(4) 0.8143(3)
N20 N 0.6410(4) 0.4956(4) 0.8353(3)
N21 N 0.4863(4) 0.8516(4) 0.8733(3)
N22 N 0.4442(4) 0.9351(4) 0.8974(3)
N23 N 0.5918(5) 0.6422(4) 0.8749(3)
N24 N 0.5640(5) 0.6838(4) 0.8865(3)
C91 C 0.6985(5) 0.3569(4) 0.8021(4)
C92 C 0.6674(5) 0.3281(5) 0.7784(4)
H73 H 0.6345 0.3416 0.7697
C93 C 0.6851(6) 0.2791(5) 0.7676(4)
H74 H 0.6630 0.2591 0.7518
C94 C 0.7325(6) 0.2586(5) 0.7785(4)
C95 C 0.7639(6) 0.2883(5) 0.8012(4)
H75 H 0.7979 0.2758 0.8085
C96 C 0.7459(5) 0.3372(5) 0.8137(4)
H76 H 0.7672 0.3566 0.8304
C97 C 0.7505(7) 0.2047(5) 0.7664(5)
H77 H 0.7195 0.1840 0.7588
H78 H 0.7689 0.1870 0.7865
H79 H 0.7748 0.2084 0.7462
C98 C 0.7029(5) 0.4479(4) 0.8016(3)
H80 H 0.7325 0.4449 0.7861
C99 C 0.6819(5) 0.4986(4) 0.8114(3)
C100 C 0.6980(5) 0.5454(4) 0.7965(3)
H81 H 0.7269 0.5465 0.7803
C101 C 0.6714(5) 0.5904(5) 0.8058(3)
H82 H 0.6806 0.6228 0.7949
C102 C 0.6316(5) 0.5887(4) 0.8306(3)
C103 C 0.6182(5) 0.5403(4) 0.8454(3)
H83 H 0.5919 0.5391 0.8635
C104 C 0.6015(5) 0.6362(5) 0.8406(3)
C105 C 0.5841(6) 0.6716(5) 0.8152(3)
H84 H 0.5923 0.6672 0.7904
C106 C 0.5545(6) 0.7135(5) 0.8266(3)
H85 H 0.5399 0.7378 0.8097
C107 C 0.5467(5) 0.7193(5) 0.8629(3)
C108 C 0.5100(5) 0.8092(4) 0.8601(3)
H86 H 0.5227 0.8108 0.8362
C109 C 0.5173(5) 0.7631(4) 0.8790(3)
C110 C 0.4952(6) 0.7596(5) 0.9131(3)
H87 H 0.4969 0.7278 0.9264
C111 C 0.4708(6) 0.8032(5) 0.9271(3)
H88 H 0.4567 0.8019 0.9507
C112 C 0.4668(5) 0.8486(4) 0.9072(3)
C113 C 0.4441(5) 0.8966(4) 0.9198(4)
H89 H 0.4298 0.8998 0.9433
C114 C 0.4225(5) 0.9845(5) 0.9095(4)
C115 C 0.4510(6) 1.0171(5) 0.9323(4)
H90 H 0.4855 1.0072 0.9405
C116 C 0.4291(6) 1.0647(5) 0.9432(4)
H91 H 0.4494 1.0874 0.9585
C117 C 0.3792(6) 1.0794(5) 0.9324(4)
C118 C 0.3511(6) 1.0460(5) 0.9108(4)
H92 H 0.3160 1.0553 0.9036
C119 C 0.3721(5) 0.9986(5) 0.8990(4)
H93 H 0.3515 0.9762 0.8838
C120 C 0.3563(7) 1.1309(5) 0.9459(5)
H94 H 0.3264 1.1414 0.9303
H95 H 0.3839 1.1581 0.9454
H96 H 0.3440 1.1264 0.9706
N25 N 0.1031(4) 0.5211(4) 0.9008(3)
N26 N 0.1504(4) 0.6025(4) 0.8776(3)
N27 N 0.4002(4) 0.9005(4) 0.8338(3)
N28 N 0.4528(4) 0.9861(4) 0.8267(3)
N29 N 0.2766(4) 0.7401(4) 0.8843(3)
N30 N 0.3049(4) 0.7808(4) 0.8709(3)
C121 C 0.0781(5) 0.4729(4) 0.9121(3)
C122 C 0.0323(5) 0.4741(5) 0.9320(3)
H97 H 0.0166 0.5068 0.9381
C123 C 0.0092(5) 0.4276(5) 0.9430(3)
H98 H -0.0225 0.4290 0.9566
C124 C 0.0305(5) 0.3804(5) 0.9351(4)
C125 C 0.0775(5) 0.3794(5) 0.9166(3)
H99 H 0.0938 0.3467 0.9114
C126 C 0.1014(5) 0.4254(4) 0.9055(3)
H100 H 0.1342 0.4240 0.8932
C127 C 0.0058(5) 0.3289(5) 0.9460(4)
H101 H 0.0319 0.3007 0.9434
H102 H -0.0252 0.3217 0.9305
H103 H -0.0053 0.3309 0.9712
C128 C 0.1262(5) 0.5483(5) 0.9250(4)
H104 H 0.1248 0.5386 0.9497
C129 C 0.1546(5) 0.5944(5) 0.9139(3)
C130 C 0.1839(5) 0.6276(5) 0.9359(3)
H105 H 0.1858 0.6216 0.9612
C131 C 0.2105(5) 0.6694(5) 0.9210(3)
H106 H 0.2317 0.6917 0.9358
C132 C 0.2063(5) 0.6786(5) 0.8846(3)
C133 C 0.1765(5) 0.6431(5) 0.8633(3)
H107 H 0.1749 0.6481 0.8379
C134 C 0.2343(5) 0.7220(5) 0.8668(3)
C135 C 0.2179(5) 0.7437(5) 0.8346(3)
H108 H 0.1876 0.7301 0.8222
C136 C 0.2452(5) 0.7848(5) 0.8206(4)
H109 H 0.2347 0.8006 0.7984
C137 C 0.2894(5) 0.8027(5) 0.8401(3)
C138 C 0.3728(5) 0.8565(5) 0.8414(3)
H110 H 0.3895 0.8300 0.8556
C139 C 0.3212(5) 0.8487(4) 0.8291(3)
C140 C 0.2982(5) 0.8861(5) 0.8069(3)
H111 H 0.2636 0.8807 0.7969
C141 C 0.3258(5) 0.9312(5) 0.7994(3)
H112 H 0.3099 0.9577 0.7848
C142 C 0.3764(5) 0.9379(4) 0.8131(3)
C143 C 0.4075(5) 0.9846(5) 0.8099(3)
H113 H 0.3952 1.0135 0.7959
C144 C 0.4803(5) 1.0355(5) 0.8240(4)
C145 C 0.5246(5) 1.0393(5) 0.8027(4)
H114 H 0.5376 1.0095 0.7902
C146 C 0.5502(5) 1.0881(5) 0.7998(4)
H115 H 0.5809 1.0909 0.7853
C147 C 0.5322(6) 1.1313(5) 0.8171(4)
C148 C 0.4897(6) 1.1254(5) 0.8388(4)
H116 H 0.4779 1.1550 0.8521
C149 C 0.4625(6) 1.0785(5) 0.8426(4)
H117 H 0.4323 1.0761 0.8576
C150 C 0.5605(7) 1.1835(5) 0.8137(5)
H118 H 0.5663 1.1986 0.8378
H119 H 0.5387 1.2074 0.7991
H120 H 0.5948 1.1781 0.8021
N31 N 0.0691(4) 0.4918(4) 0.8264(3)
N32 N 0.1686(4) 0.5039(4) 0.8407(3)
N33 N 0.5583(4) 0.4420(4) 0.8762(3)
N34 N 0.6558(4) 0.4196(4) 0.8921(3)
N35 N 0.3491(4) 0.4538(4) 0.8363(3)
N36 N 0.3994(4) 0.4507(4) 0.8479(3)
C151 C 0.0126(4) 0.4843(5) 0.8201(3)
C152 C -0.0133(5) 0.4463(5) 0.8400(3)
H121 H 0.0056 0.4260 0.8574
C153 C -0.0670(5) 0.4386(5) 0.8340(3)
H122 H -0.0847 0.4125 0.8476
C154 C -0.0955(5) 0.4670(5) 0.8094(3)
C155 C -0.0687(5) 0.5038(5) 0.7892(3)
H123 H -0.0873 0.5229 0.7710
C156 C -0.0148(5) 0.5130(5) 0.7952(3)
H124 H 0.0028 0.5394 0.7818
C157 C -0.1537(5) 0.4578(6) 0.8028(4)
H125 H -0.1601 0.4202 0.7993
H126 H -0.1654 0.4769 0.7812
H127 H -0.1737 0.4701 0.8236
C158 C 0.0996(4) 0.4572(5) 0.8131(3)
H128 H 0.0854 0.4294 0.7988
C159 C 0.1563(4) 0.4611(5) 0.8202(3)
C160 C 0.1936(5) 0.4249(5) 0.8095(4)
H129 H 0.1837 0.3959 0.7947
C161 C 0.2448(5) 0.4317(5) 0.8205(3)
H130 H 0.2711 0.4074 0.8133
C162 C 0.2591(4) 0.4735(5) 0.8422(3)
C163 C 0.2190(4) 0.5086(5) 0.8517(3)
H131 H 0.2283 0.5374 0.8668
C164 C 0.3138(5) 0.4786(5) 0.8560(3)
C165 C 0.3273(5) 0.5052(5) 0.8868(3)
H132 H 0.3017 0.5255 0.8992
C166 C 0.3786(5) 0.5018(5) 0.8992(3)
H133 H 0.3898 0.5192 0.9207
C167 C 0.4136(4) 0.4721(5) 0.8792(3)
C168 C 0.5086(5) 0.4533(5) 0.8661(3)
H134 H 0.5002 0.4556 0.8411
C169 C 0.4688(4) 0.4618(5) 0.8908(3)
C170 C 0.4815(5) 0.4588(6) 0.9273(3)
H135 H 0.4550 0.4649 0.9448
C171 C 0.5327(5) 0.4471(6) 0.9379(3)
H136 H 0.5418 0.4438 0.9628
C172 C 0.5708(5) 0.4401(5) 0.9119(3)
C173 C 0.6256(4) 0.4281(5) 0.9193(4)
H137 H 0.6392 0.4265 0.9433
C174 C 0.7110(5) 0.4091(5) 0.9015(3)
C175 C 0.7227(5) 0.3687(5) 0.9255(3)
H138 H 0.6956 0.3458 0.9336
C176 C 0.7752(5) 0.3625(6) 0.9375(4)
H139 H 0.7839 0.3349 0.9537
C177 C 0.8138(5) 0.3956(6) 0.9263(4)
C178 C 0.8013(5) 0.4340(6) 0.9020(4)
H140 H 0.8288 0.4561 0.8935
C179 C 0.7499(5) 0.4417(5) 0.8891(4)
H141 H 0.7419 0.4688 0.8723
C180 C 0.8699(5) 0.3917(7) 0.9416(4)
H142 H 0.8762 0.4205 0.9587
H143 H 0.8953 0.3941 0.9219
H144 H 0.8743 0.3581 0.9541
B1 B 0.2900(7) 0.6126(7) 0.8016(5)
F1 F 0.2968(4) 0.6065(4) 0.8382(3)
F2 F 0.2715(4) 0.5664(4) 0.7870(3)
F3 F 0.3389(4) 0.6249(4) 0.7865(3)
F4 F 0.2547(4) 0.6522(4) 0.7945(2)
B2 B 0.6031(10) 0.6929(10) 0.7112(7)
F5 F 0.6199(4) 0.6528(4) 0.7329(3)
F6 F 0.6132(5) 0.7391(5) 0.7261(3)
F7 F 0.6346(5) 0.6866(5) 0.6796(3)
F8 F 0.5527(5) 0.6842(4) 0.6989(3)
S1 S 0.4224(2) 0.6676(2) 0.98023(14)
S2 S 0.4887(2) 0.5905(2) 0.95277(13)
N37 N 0.4648(5) 0.6486(4) 0.9520(3)
C181 C 0.3624(6) 0.6706(8) 0.9519(5)
C182 C 0.5528(5) 0.6001(7) 0.9762(4)
O1 O 0.4329(6) 0.7231(4) 0.9867(3)
O2 O 0.4094(5) 0.6352(4) 1.0103(3)
O3 O 0.4614(5) 0.5533(4) 0.9742(3)
O4 O 0.5027(5) 0.5779(4) 0.9161(3)
F9 F 0.3228(5) 0.6873(6) 0.9709(3)
F10 F 0.3511(5) 0.6236(5) 0.9403(3)
F11 F 0.3731(5) 0.6994(5) 0.9232(3)
F12 F 0.5781(5) 0.5556(5) 0.9783(3)
F13 F 0.5826(4) 0.6350(4) 0.9591(3)
F14 F 0.5457(4) 0.6176(5) 1.0089(3)
S3 S 0.2455(2) 0.56030(19) 0.29983(13)
S4 S 0.1990(2) 0.46358(18) 0.28919(12)
C183 C 0.2167(7) 0.4267(6) 0.3298(3)
C184 C 0.3126(5) 0.5640(7) 0.3194(5)
N38 N 0.2466(5) 0.5033(4) 0.2829(3)
O5 O 0.2431(5) 0.5988(4) 0.2715(3)
O6 O 0.2111(4) 0.5702(4) 0.3299(3)
O7 O 0.1490(4) 0.4878(4) 0.2965(3)
O8 O 0.2013(4) 0.4254(4) 0.2609(3)
F15 F 0.3442(5) 0.5586(5) 0.2910(3)
F16 F 0.3186(4) 0.5251(5) 0.3427(3)
F17 F 0.3166(4) 0.6068(5) 0.3374(3)
F18 F 0.2157(5) 0.4574(4) 0.3586(3)
F19 F 0.2651(5) 0.4079(4) 0.3276(3)
F20 F 0.1818(5) 0.3894(4) 0.3345(3)
S5 S 0.4634(2) 0.7326(2) 0.30214(17)
S6 S 0.5550(2) 0.7146(3) 0.34237(17)
C185 C 0.4152(6) 0.6858(6) 0.3189(5)
C186 C 0.6008(6) 0.6591(6) 0.3373(5)
N39 N 0.5197(4) 0.7045(5) 0.3061(3)
O9 O 0.4508(5) 0.7342(5) 0.2641(3)
O10 O 0.4557(5) 0.7771(5) 0.3241(4)
O11 O 0.5301(6) 0.7009(6) 0.3764(3)
O12 O 0.5864(5) 0.7603(5) 0.3395(4)
F21 F 0.3663(4) 0.7056(5) 0.3158(3)
F22 F 0.4157(4) 0.6424(4) 0.2995(3)
F23 F 0.4238(4) 0.6727(4) 0.3527(3)
F24 F 0.6260(5) 0.6645(5) 0.3054(3)
F25 F 0.6344(5) 0.6598(5) 0.3638(3)
F26 F 0.5744(5) 0.6148(5) 0.3352(3)
S7 S 0.8437(2) 0.1111(2) 0.99056(14)
S8 S 0.8465(2) 0.2211(2) 0.99854(12)
C187 C 0.8057(7) 0.0943(7) 0.9494(4)
C188 C 0.8843(7) 0.2260(8) 1.0411(3)
N40 N 0.8182(5) 0.1651(4) 1.0026(3)
O13 O 0.8284(6) 0.0723(5) 1.0157(3)
O14 O 0.8976(4) 0.1138(5) 0.9795(3)
O15 O 0.8062(4) 0.2599(4) 1.0012(3)
O16 O 0.8846(4) 0.2258(4) 0.9711(3)
F27 F 0.8129(4) 0.1309(4) 0.9249(3)
F28 F 0.8230(5) 0.0494(4) 0.9371(3)
F29 F 0.7548(5) 0.0921(5) 0.9568(4)
F30 F 0.9198(5) 0.1881(5) 1.0426(3)
F31 F 0.9081(5) 0.2708(5) 1.0421(3)
F32 F 0.8531(5) 0.2221(5) 1.0689(3)
S9 S 0.7646(2) 0.6246(2) 0.04051(17)
S10 S 0.7737(2) 0.5184(2) 0.02193(14)
C189 C 0.6935(5) 0.6405(8) 0.0415(5)
C190 C 0.7126(5) 0.4918(7) 0.0021(5)
N41 N 0.7701(6) 0.5788(4) 0.0115(3)
O17 O 0.7878(6) 0.6702(5) 0.0268(4)
O18 O 0.7720(6) 0.6118(6) 0.0785(3)
O19 O 0.7699(5) 0.5052(5) 0.0596(3)
O20 O 0.8146(4) 0.4930(4) 0.0014(3)
F33 F 0.6693(5) 0.6021(5) 0.0587(4)
F34 F 0.6738(5) 0.6417(5) 0.0089(4)
F35 F 0.6868(5) 0.6851(5) 0.0573(3)
F36 F 0.6703(4) 0.5103(4) 0.0182(3)
F37 F 0.7130(5) 0.4405(4) 0.0045(3)
F38 F 0.7086(5) 0.5042(5) -0.0325(3)
S11 S 0.2018(4) 0.7828(4) 0.6887(3)
S12 S 0.1507(4) 0.7154(4) 0.6396(2)
C191 C 0.1633(9) 0.8160(9) 0.7231(6)
C192 C 0.0963(8) 0.7581(9) 0.6245(7)
N42 N 0.1662(9) 0.7304(7) 0.6806(4)
O21 O 0.2488(7) 0.7614(9) 0.7063(6)
O22 O 0.2133(7) 0.8206(6) 0.6618(4)
O23 O 0.1934(7) 0.7221(9) 0.6152(5)
O24 O 0.1258(7) 0.6642(6) 0.6413(5)
F39 F 0.1224(9) 0.8367(9) 0.7091(6)
F40 F 0.1523(10) 0.7783(9) 0.7468(6)
F41 F 0.1927(9) 0.8526(8) 0.7371(5)
F42 F 0.0788(10) 0.7411(10) 0.5929(6)
F43 F 0.0566(8) 0.7573(8) 0.6476(5)
F44 F 0.1101(8) 0.8082(8) 0.6216(5)
N44 N 0.4920(7) 0.5597(7) 0.8155(5)
C195 C 0.4663(9) 0.5863(9) 0.8317(6)
C196 C 0.4330(7) 0.6251(7) 0.8499(5)
H145 H 0.4379 0.6595 0.8386
H146 H 0.4434 0.6271 0.8754
H147 H 0.3956 0.6147 0.8478
N45 N 0.4018(6) 0.6515(6) 0.6844(4)
C197 C 0.4261(8) 0.6423(7) 0.7095(5)
C198 C 0.4556(7) 0.6320(7) 0.7437(4)
H148 H 0.4338 0.6424 0.7641
H149 H 0.4887 0.6522 0.7440
H150 H 0.4638 0.5945 0.7454
N46 N 0.6026(8) 0.8076(9) 0.6314(6)
C199 C 0.6352(10) 0.7821(10) 0.6229(6)
C200 C 0.6782(7) 0.7506(7) 0.6126(5)
H151 H 0.7114 0.7703 0.6157
H152 H 0.6738 0.7404 0.5873
H153 H 0.6795 0.7190 0.6277
C201 C 0.3452(8) 0.8637(8) 0.3142(5)
H154 H 0.3830 0.8574 0.3192
H155 H 0.3401 0.8722 0.2886
H156 H 0.3248 0.8322 0.3200
C202 C 0.3270(10) 0.9073(10) 0.3361(7)
N47 N 0.3060(9) 0.9394(9) 0.3579(6)
N48 N 0.2712(8) 0.9023(8) 0.9053(5)
C203 C 0.2844(9) 0.8743(9) 0.9278(6)
C204 C 0.3002(8) 0.8369(7) 0.9526(5)
H157 H 0.3192 0.8088 0.9402
H158 H 0.2689 0.8224 0.9644
H159 H 0.3237 0.8530 0.9708
N49 N 0.5898(18) 0.8181(17) 0.9765(11)
C205 C 0.628(2) 0.792(2) 0.9568(14)
C206 C 0.6623(19) 0.7615(19) 0.9417(12)
H160 H 0.6790 0.7801 0.9217
H161 H 0.6896 0.7513 0.9595
H162 H 0.6443 0.7301 0.9324
N50 N 0.4314(7) 0.7569(6) 0.7932(5)
C207 C 0.3936(9) 0.7515(7) 0.7772(5)
C208 C 0.3447(7) 0.7445(6) 0.7559(4)
H163 H 0.3535 0.7315 0.7319
H164 H 0.3261 0.7782 0.7537
H165 H 0.3217 0.7191 0.7679
N51 N 0.3058(14) 0.4514(13) 0.7232(9)
C209 C 0.3323(16) 0.4767(15) 0.7359(10)
C210 C 0.3727(10) 0.5047(9) 0.7519(6)
H166 H 0.3909 0.4827 0.7699
H167 H 0.3581 0.5358 0.7637
H168 H 0.3981 0.5155 0.7335
N52 N 0.6393(12) 0.8220(12) 0.8620(8)
C211 C 0.6674(13) 0.8066(13) 0.8403(9)
C212 C 0.7080(16) 0.7837(15) 0.8169(13)
H169 H 0.6993 0.7915 0.7917
H170 H 0.7429 0.7987 0.8232
H171 H 0.7091 0.7456 0.8205
N54 N 0.7327(11) 0.6865(11) 0.8621(8)
C215 C 0.7261(12) 0.6560(13) 0.8901(9)
C216 C 0.7211(10) 0.6107(10) 0.9163(7)
H175 H 0.6845 0.5977 0.9158
H176 H 0.7303 0.6227 0.9407
H177 H 0.7453 0.5825 0.9093
loop_
_geom_bond_atom_site_label_1
_geom_bond_atom_site_label_2
_geom_bond_site_symmetry_1
_geom_bond_site_symmetry_2
Fe1 N1 1_555 1_555
Fe2 N3 1_555 1_555
Fe3 N15 1_555 1_555
Fe4 N9 1_555 1_555
N1 C1 1_555 1_555
N2 Fe1 1_555 1_555
N3 C18 1_555 1_555
N4 Fe2 1_555 1_555
N5 N6 1_555 1_555
N6 C17 1_555 1_555
C1 C2 1_555 1_555
C2 H1 1_555 1_555
C3 C2 1_555 1_555
H2 C3 1_555 1_555
C4 C3 1_555 1_555
C5 C4 1_555 1_555
H3 C5 1_555 1_555
C6 C1 1_555 1_555
H4 C6 1_555 1_555
C7 C4 1_555 1_555
H5 C7 1_555 1_555
H6 C7 1_555 1_555
H7 C7 1_555 1_555
C8 N1 1_555 1_555
H8 C8 1_555 1_555
C9 N2 1_555 1_555
C10 C9 1_555 1_555
H9 C10 1_555 1_555
C11 C10 1_555 1_555
H10 C11 1_555 1_555
C12 C11 1_555 1_555
C13 N2 1_555 1_555
H11 C13 1_555 1_555
C14 N5 1_555 1_555
C15 C14 1_555 1_555
H12 C15 1_555 1_555
C16 C15 1_555 1_555
H13 C16 1_555 1_555
C17 C16 1_555 1_555
C18 H14 1_555 1_555
C19 C17 1_555 1_555
C20 C19 1_555 1_555
H15 C20 1_555 1_555
C21 C20 1_555 1_555
H16 C21 1_555 1_555
C22 N3 1_555 1_555
C23 N4 1_555 1_555
H17 C23 1_555 1_555
C24 N4 1_555 1_555
C25 C24 1_555 1_555
H18 C25 1_555 1_555
C26 C25 1_555 1_555
H19 C26 1_555 1_555
C27 C26 1_555 1_555
C28 C27 1_555 1_555
H20 C28 1_555 1_555
C29 C24 1_555 1_555
H21 C29 1_555 1_555
C30 C27 1_555 1_555
H22 C30 1_555 1_555
H23 C30 1_555 1_555
H24 C30 1_555 1_555
N7 Fe1 1_555 1_555
N8 Fe1 1_555 1_555
N9 C48 1_555 1_555
N10 Fe4 1_555 1_555
N11 N12 1_555 1_555
N12 C47 1_555 1_555
C31 N7 1_555 1_555
C32 C31 1_555 1_555
H25 C32 1_555 1_555
C33 C32 1_555 1_555
H26 C33 1_555 1_555
C34 C33 1_555 1_555
C35 C34 1_555 1_555
H27 C35 1_555 1_555
C36 C31 1_555 1_555
H28 C36 1_555 1_555
C37 C34 1_555 1_555
H29 C37 1_555 1_555
H30 C37 1_555 1_555
H31 C37 1_555 1_555
C38 N7 1_555 1_555
H32 C38 1_555 1_555
C39 N8 1_555 1_555
C40 C39 1_555 1_555
H33 C40 1_555 1_555
C41 C40 1_555 1_555
H34 C41 1_555 1_555
C42 C41 1_555 1_555
C43 N8 1_555 1_555
H35 C43 1_555 1_555
C44 N11 1_555 1_555
C45 C44 1_555 1_555
H36 C45 1_555 1_555
C46 C45 1_555 1_555
H37 C46 1_555 1_555
C47 C46 1_555 1_555
C48 H38 1_555 1_555
C49 C47 1_555 1_555
C50 C49 1_555 1_555
H39 C50 1_555 1_555
C51 C50 1_555 1_555
H40 C51 1_555 1_555
C52 N9 1_555 1_555
C53 N10 1_555 1_555
H41 C53 1_555 1_555
C54 N10 1_555 1_555
C55 C54 1_555 1_555
H42 C55 1_555 1_555
C56 C55 1_555 1_555
H43 C56 1_555 1_555
C57 C56 1_555 1_555
C58 C57 1_555 1_555
H44 C58 1_555 1_555
C59 C54 1_555 1_555
H45 C59 1_555 1_555
C60 C57 1_555 1_555
H46 C60 1_555 1_555
H47 C60 1_555 1_555
H48 C60 1_555 1_555
N13 Fe1 1_555 1_555
N14 Fe1 1_555 1_555
N15 C78 1_555 1_555
N16 Fe3 1_555 1_555
N17 N18 1_555 1_555
N18 C77 1_555 1_555
C61 N13 1_555 1_555
C62 C61 1_555 1_555
H49 C62 1_555 1_555
C63 C62 1_555 1_555
H50 C63 1_555 1_555
C64 C63 1_555 1_555
C65 C64 1_555 1_555
H51 C65 1_555 1_555
C66 C61 1_555 1_555
H52 C66 1_555 1_555
C67 C64 1_555 1_555
H53 C67 1_555 1_555
H54 C67 1_555 1_555
H55 C67 1_555 1_555
C68 N13 1_555 1_555
H56 C68 1_555 1_555
C69 N14 1_555 1_555
C70 C69 1_555 1_555
H57 C70 1_555 1_555
C71 C70 1_555 1_555
H58 C71 1_555 1_555
C72 C71 1_555 1_555
C73 N14 1_555 1_555
H59 C73 1_555 1_555
C74 N17 1_555 1_555
C75 C74 1_555 1_555
H60 C75 1_555 1_555
C76 C75 1_555 1_555
H61 C76 1_555 1_555
C77 C76 1_555 1_555
C78 H62 1_555 1_555
C79 C77 1_555 1_555
C80 C79 1_555 1_555
H63 C80 1_555 1_555
C81 C80 1_555 1_555
H64 C81 1_555 1_555
C82 N15 1_555 1_555
C83 N16 1_555 1_555
H65 C83 1_555 1_555
C84 N16 1_555 1_555
C85 C84 1_555 1_555
H66 C85 1_555 1_555
C86 C85 1_555 1_555
H67 C86 1_555 1_555
C87 C86 1_555 1_555
C88 C87 1_555 1_555
H68 C88 1_555 1_555
C89 C84 1_555 1_555
H69 C89 1_555 1_555
C90 C87 1_555 1_555
H70 C90 1_555 1_555
H71 C90 1_555 1_555
H72 C90 1_555 1_555
N19 Fe2 1_555 1_555
N20 Fe2 1_555 1_555
N21 Fe3 1_555 1_555
N22 Fe3 1_555 1_555
N23 N24 1_555 1_555
N24 C107 1_555 1_555
C91 N19 1_555 1_555
C92 C91 1_555 1_555
H73 C92 1_555 1_555
C93 C92 1_555 1_555
H74 C93 1_555 1_555
C94 C93 1_555 1_555
C95 C94 1_555 1_555
H75 C95 1_555 1_555
C96 C91 1_555 1_555
H76 C96 1_555 1_555
C97 C94 1_555 1_555
H77 C97 1_555 1_555
H78 C97 1_555 1_555
H79 C97 1_555 1_555
C98 N19 1_555 1_555
H80 C98 1_555 1_555
C99 N20 1_555 1_555
C100 C99 1_555 1_555
H81 C100 1_555 1_555
C101 C100 1_555 1_555
H82 C101 1_555 1_555
C102 C101 1_555 1_555
C103 N20 1_555 1_555
H83 C103 1_555 1_555
C104 N23 1_555 1_555
C105 C104 1_555 1_555
H84 C105 1_555 1_555
C106 C105 1_555 1_555
H85 C106 1_555 1_555
C107 C106 1_555 1_555
C108 N21 1_555 1_555
H86 C108 1_555 1_555
C109 C107 1_555 1_555
C110 C109 1_555 1_555
H87 C110 1_555 1_555
C111 C110 1_555 1_555
H88 C111 1_555 1_555
C112 N21 1_555 1_555
C113 N22 1_555 1_555
H89 C113 1_555 1_555
C114 N22 1_555 1_555
C115 C114 1_555 1_555
H90 C115 1_555 1_555
C116 C115 1_555 1_555
H91 C116 1_555 1_555
C117 C116 1_555 1_555
C118 C117 1_555 1_555
H92 C118 1_555 1_555
C119 C114 1_555 1_555
H93 C119 1_555 1_555
C120 C117 1_555 1_555
H94 C120 1_555 1_555
H95 C120 1_555 1_555
H96 C120 1_555 1_555
N25 Fe4 1_555 1_555
N26 Fe4 1_555 1_555
N27 Fe3 1_555 1_555
N28 Fe3 1_555 1_555
N29 N30 1_555 1_555
N30 C137 1_555 1_555
C121 N25 1_555 1_555
C122 C121 1_555 1_555
H97 C122 1_555 1_555
C123 C122 1_555 1_555
H98 C123 1_555 1_555
C124 C123 1_555 1_555
C125 C124 1_555 1_555
H99 C125 1_555 1_555
C126 C121 1_555 1_555
H100 C126 1_555 1_555
C127 C124 1_555 1_555
H101 C127 1_555 1_555
H102 C127 1_555 1_555
H103 C127 1_555 1_555
C128 N25 1_555 1_555
H104 C128 1_555 1_555
C129 N26 1_555 1_555
C130 C129 1_555 1_555
H105 C130 1_555 1_555
C131 C130 1_555 1_555
H106 C131 1_555 1_555
C132 C131 1_555 1_555
C133 N26 1_555 1_555
H107 C133 1_555 1_555
C134 N29 1_555 1_555
C135 C134 1_555 1_555
H108 C135 1_555 1_555
C136 C135 1_555 1_555
H109 C136 1_555 1_555
C137 C136 1_555 1_555
C138 N27 1_555 1_555
H110 C138 1_555 1_555
C139 C137 1_555 1_555
C140 C139 1_555 1_555
H111 C140 1_555 1_555
C141 C140 1_555 1_555
H112 C141 1_555 1_555
C142 N27 1_555 1_555
C143 N28 1_555 1_555
H113 C143 1_555 1_555
C144 N28 1_555 1_555
C145 C144 1_555 1_555
H114 C145 1_555 1_555
C146 C145 1_555 1_555
H115 C146 1_555 1_555
C147 C146 1_555 1_555
C148 C147 1_555 1_555
H116 C148 1_555 1_555
C149 C144 1_555 1_555
H117 C149 1_555 1_555
C150 C147 1_555 1_555
H118 C150 1_555 1_555
H119 C150 1_555 1_555
H120 C150 1_555 1_555
N31 Fe4 1_555 1_555
N32 Fe4 1_555 1_555
N33 Fe2 1_555 1_555
N34 Fe2 1_555 1_555
N35 N36 1_555 1_555
N36 C167 1_555 1_555
C151 N31 1_555 1_555
C152 C151 1_555 1_555
H121 C152 1_555 1_555
C153 C152 1_555 1_555
H122 C153 1_555 1_555
C154 C153 1_555 1_555
C155 C154 1_555 1_555
H123 C155 1_555 1_555
C156 C151 1_555 1_555
H124 C156 1_555 1_555
C157 C154 1_555 1_555
H125 C157 1_555 1_555
H126 C157 1_555 1_555
H127 C157 1_555 1_555
C158 N31 1_555 1_555
H128 C158 1_555 1_555
C159 N32 1_555 1_555
C160 C159 1_555 1_555
H129 C160 1_555 1_555
C161 C160 1_555 1_555
H130 C161 1_555 1_555
C162 C161 1_555 1_555
C163 N32 1_555 1_555
H131 C163 1_555 1_555
C164 N35 1_555 1_555
C165 C164 1_555 1_555
H132 C165 1_555 1_555
C166 C165 1_555 1_555
H133 C166 1_555 1_555
C167 C166 1_555 1_555
C168 N33 1_555 1_555
H134 C168 1_555 1_555
C169 C167 1_555 1_555
C170 C169 1_555 1_555
H135 C170 1_555 1_555
C171 C170 1_555 1_555
H136 C171 1_555 1_555
C172 N33 1_555 1_555
C173 N34 1_555 1_555
H137 C173 1_555 1_555
C174 N34 1_555 1_555
C175 C174 1_555 1_555
H138 C175 1_555 1_555
C176 C175 1_555 1_555
H139 C176 1_555 1_555
C177 C176 1_555 1_555
C178 C177 1_555 1_555
H140 C178 1_555 1_555
C179 C174 1_555 1_555
H141 C179 1_555 1_555
C180 C177 1_555 1_555
H142 C180 1_555 1_555
H143 C180 1_555 1_555
H144 C180 1_555 1_555
B1 F1 1_555 1_555
F2 B1 1_555 1_555
F3 B1 1_555 1_555
F4 B1 1_555 1_555
B2 F5 1_555 1_555
F6 B2 1_555 1_555
F7 B2 1_555 1_555
F8 B2 1_555 1_555
S1 N37 1_555 1_555
S2 N37 1_555 1_555
C181 S1 1_555 1_555
C182 S2 1_555 1_555
O1 S1 1_555 1_555
O2 S1 1_555 1_555
O3 S2 1_555 1_555
O4 S2 1_555 1_555
F9 C181 1_555 1_555
F10 C181 1_555 1_555
F11 C181 1_555 1_555
F12 C182 1_555 1_555
F13 C182 1_555 1_555
F14 C182 1_555 1_555
S3 C184 1_555 1_555
S4 C183 1_555 1_555
C183 F18 1_555 1_555
C184 F15 1_555 1_555
N38 S3 1_555 1_555
O5 S3 1_555 1_555
O6 S3 1_555 1_555
O7 S4 1_555 1_555
O8 S4 1_555 1_555
F16 C184 1_555 1_555
F17 C184 1_555 1_555
F19 C183 1_555 1_555
F20 C183 1_555 1_555
S5 C185 1_555 1_555
S6 C186 1_555 1_555
C185 F21 1_555 1_555
C186 F24 1_555 1_555
N39 S5 1_555 1_555
O9 S5 1_555 1_555
O10 S5 1_555 1_555
O11 S6 1_555 1_555
O12 S6 1_555 1_555
F22 C185 1_555 1_555
F23 C185 1_555 1_555
F25 C186 1_555 1_555
F26 C186 1_555 1_555
S7 C187 1_555 1_555
S8 C188 1_555 1_555
C187 F27 1_555 1_555
C188 F30 1_555 1_555
N40 S7 1_555 1_555
O13 S7 1_555 1_555
O14 S7 1_555 1_555
O15 S8 1_555 1_555
O16 S8 1_555 1_555
F28 C187 1_555 1_555
F29 C187 1_555 1_555
F31 C188 1_555 1_555
F32 C188 1_555 1_555
S9 C189 1_555 1_555
S10 C190 1_555 1_555
C189 F33 1_555 1_555
C190 F36 1_555 1_555
N41 S9 1_555 1_555
O17 S9 1_555 1_555
O18 S9 1_555 1_555
O19 S10 1_555 1_555
O20 S10 1_555 1_555
F34 C189 1_555 1_555
F35 C189 1_555 1_555
F37 C190 1_555 1_555
F38 C190 1_555 1_555
S11 C191 1_555 1_555
S12 C192 1_555 1_555
C191 F39 1_555 1_555
C192 F42 1_555 1_555
N42 S11 1_555 1_555
O21 S11 1_555 1_555
O22 S11 1_555 1_555
O23 S12 1_555 1_555
O24 S12 1_555 1_555
F40 C191 1_555 1_555
F41 C191 1_555 1_555
F43 C192 1_555 1_555
F44 C192 1_555 1_555
N44 C195 1_555 1_555
C195 C196 1_555 1_555
C196 H145 1_555 1_555
H146 C196 1_555 1_555
H147 C196 1_555 1_555
N45 C197 1_555 1_555
C197 C198 1_555 1_555
C198 H148 1_555 1_555
H149 C198 1_555 1_555
H150 C198 1_555 1_555
N46 C199 1_555 1_555
C199 C200 1_555 1_555
C200 H151 1_555 1_555
H152 C200 1_555 1_555
H153 C200 1_555 1_555
C201 H154 1_555 1_555
H155 C201 1_555 1_555
H156 C201 1_555 1_555
C202 C201 1_555 1_555
N47 C202 1_555 1_555
N48 C203 1_555 1_555
C203 C204 1_555 1_555
C204 H157 1_555 1_555
H158 C204 1_555 1_555
H159 C204 1_555 1_555
N49 C205 1_555 1_555
C205 C206 1_555 1_555
C206 H160 1_555 1_555
H161 C206 1_555 1_555
H162 C206 1_555 1_555
N50 C207 1_555 1_555
C207 C208 1_555 1_555
C208 H163 1_555 1_555
H164 C208 1_555 1_555
H165 C208 1_555 1_555
N51 C209 1_555 1_555
C209 C210 1_555 1_555
C210 H166 1_555 1_555
H167 C210 1_555 1_555
H168 C210 1_555 1_555
N52 C211 1_555 1_555
C211 C212 1_555 1_555
C212 H169 1_555 1_555
H170 C212 1_555 1_555
H171 C212 1_555 1_555
N54 C215 1_555 1_555
C215 C216 1_555 1_555
C216 H175 1_555 1_555
H176 C216 1_555 1_555
H177 C216 1_555 1_555
C5 C6 1_555 1_555
C8 C9 1_555 1_555
C12 C13 1_555 1_555
C12 C14 1_555 1_555
C18 C19 1_555 1_555
C21 C22 1_555 1_555
C22 C23 1_555 1_555
C28 C29 1_555 1_555
C35 C36 1_555 1_555
C38 C39 1_555 1_555
C42 C43 1_555 1_555
C42 C44 1_555 1_555
C48 C49 1_555 1_555
C51 C52 1_555 1_555
C52 C53 1_555 1_555
C58 C59 1_555 1_555
C65 C66 1_555 1_555
C68 C69 1_555 1_555
C72 C73 1_555 1_555
C72 C74 1_555 1_555
C78 C79 1_555 1_555
C81 C82 1_555 1_555
C82 C83 1_555 1_555
C88 C89 1_555 1_555
C95 C96 1_555 1_555
C98 C99 1_555 1_555
C102 C103 1_555 1_555
C102 C104 1_555 1_555
C108 C109 1_555 1_555
C111 C112 1_555 1_555
C112 C113 1_555 1_555
C118 C119 1_555 1_555
C125 C126 1_555 1_555
C128 C129 1_555 1_555
C132 C133 1_555 1_555
C132 C134 1_555 1_555
C138 C139 1_555 1_555
C141 C142 1_555 1_555
C142 C143 1_555 1_555
C148 C149 1_555 1_555
C155 C156 1_555 1_555
C158 C159 1_555 1_555
C162 C163 1_555 1_555
C162 C164 1_555 1_555
C168 C169 1_555 1_555
C171 C172 1_555 1_555
C172 C173 1_555 1_555
C178 C179 1_555 1_555
S4 N38 1_555 1_555
S6 N39 1_555 1_555
S8 N40 1_555 1_555
S10 N41 1_555 1_555
S12 N42 1_555 1_555

#END
