
#######################################################################
#
#                 Cambridge Crystallographic Data Centre
#                                CCDC 
#
#######################################################################
#
# If this CIF has been generated from an entry in the Cambridge 
# Structural Database, then it will include bibliographic, chemical, 
# crystal, experimental, refinement or atomic coordinate data resulting 
# from the CCDC's data processing and validation procedures.
#
#######################################################################

data_SUTCER
_chemical_formula_moiety         
'C212 H184 N8 O24 Pt2 4+,C14 H18 B1 F2 N2,4(N1 O3 1-),3(C2 H3 N1),28(H2 O1)'
_chemical_name_systematic        
"tetrakis(\m~2~-3,3'-((4,5,6-tris(2-Methoxyethoxy)-1,3-phenylene)dianthracene-10,9-diyl)dipyridine)-di-platinum(ii) 4,4-difluoro-1,3,5,7,8-pentamethyl-3a,4a-diaza-4-bora-s-indacene tetranitrate acetonitrile solvate octacosahydrate"
_symmetry_cell_setting           triclinic
_symmetry_space_group_name_H-M   'P -1'
_symmetry_Int_Tables_number      2
_space_group_name_Hall           '-P 1'
loop_
_symmetry_equiv_pos_site_id
_symmetry_equiv_pos_as_xyz
1 x,y,z
2 -x,-y,-z
_cell_length_a                   21.5806(14)
_cell_length_b                   21.7696(14)
_cell_length_c                   25.8234(16)
_cell_angle_alpha                74.698(3)
_cell_angle_beta                 72.145(3)
_cell_angle_gamma                77.768(3)
_cell_volume                     11024.3
_cell_formula_units_Z            2
loop_
_atom_site_label
_atom_site_type_symbol
_atom_site_fract_x
_atom_site_fract_y
_atom_site_fract_z
Pt1 Pt 0.24936(2) 0.56645(2) 0.20945(2)
Pt2 Pt 0.21829(2) -0.04846(2) 0.25905(2)
N1 N 0.1670(2) 0.5772(2) 0.2720(2)
C1 C 0.1615(3) 0.6189(3) 0.3040(3)
H1 H 0.1963 0.6430 0.2968
C2 C 0.1061(4) 0.6272(3) 0.3471(3)
H2 H 0.1034 0.6553 0.3706
C3 C 0.0542(3) 0.5938(3) 0.3557(3)
H3 H 0.0149 0.6008 0.3840
C4 C 0.0596(3) 0.5510(3) 0.3235(3)
C5 C 0.1176(3) 0.5440(3) 0.2814(2)
H4 H 0.1223 0.5146 0.2586
C6 C -0.0059(3) 0.5633(3) 0.2369(3)
H5 H 0.0215 0.5940 0.2330
C7 C -0.0313(3) 0.5653(3) 0.1944(3)
H6 H -0.0202 0.5964 0.1607
C8 C -0.0738(3) 0.5219(3) 0.1995(3)
H7 H -0.0914 0.5241 0.1694
C9 C -0.0898(3) 0.4767(3) 0.2474(3)
H8 H -0.1180 0.4473 0.2501
C10 C -0.0650(3) 0.4729(3) 0.2935(3)
C11 C -0.0827(3) 0.4268(3) 0.3442(3)
C12 C -0.0565(3) 0.4239(3) 0.3884(3)
C13 C -0.0732(3) 0.3771(3) 0.4392(3)
H9 H -0.1038 0.3495 0.4433
C14 C -0.0454(3) 0.3711(3) 0.4827(3)
H10 H -0.0574 0.3406 0.5166
C15 C 0.0016(4) 0.4120(4) 0.4749(3)
H11 H 0.0216 0.4078 0.5039
C16 C 0.0184(3) 0.4564(3) 0.4278(3)
H12 H 0.0500 0.4827 0.4246
C17 C -0.0097(3) 0.4653(3) 0.3823(3)
C18 C 0.0083(3) 0.5106(3) 0.3319(3)
C19 C -0.0198(3) 0.5160(3) 0.2872(3)
N2 N 0.1375(3) -0.0132(3) 0.2302(2)
C20 C 0.1207(4) -0.0398(4) 0.1969(3)
H13 H 0.1490 -0.0758 0.1844
C21 C 0.0660(4) -0.0186(4) 0.1800(3)
H14 H 0.0562 -0.0394 0.1560
C22 C 0.0240(4) 0.0330(4) 0.1973(3)
H15 H -0.0154 0.0480 0.1858
C23 C 0.0395(3) 0.0634(3) 0.2317(3)
C24 C 0.0976(3) 0.0394(3) 0.2469(3)
H16 H 0.1100 0.0602 0.2696
C25 C -0.0372(4) 0.0487(4) 0.3471(4)
H17 H -0.0120 0.0119 0.3338
C26 C -0.0709(5) 0.0426(4) 0.4018(4)
H18 H -0.0675 0.0017 0.4262
C27 C -0.1104(4) 0.0947(4) 0.4230(3)
H19 H -0.1344 0.0886 0.4611
C28 C -0.1144(4) 0.1533(4) 0.3897(3)
H20 H -0.1398 0.1887 0.4050
C29 C -0.0815(3) 0.1639(3) 0.3317(3)
C30 C -0.0872(3) 0.2243(3) 0.2958(3)
C31 C -0.0527(3) 0.2327(3) 0.2400(3)
C32 C -0.0597(4) 0.2944(4) 0.2022(3)
H21 H -0.0886 0.3296 0.2158
C33 C -0.0260(4) 0.3030(4) 0.1476(3)
H22 H -0.0315 0.3438 0.1233
C34 C 0.0185(4) 0.2501(4) 0.1266(3)
H23 H 0.0428 0.2563 0.0886
C35 C 0.0257(4) 0.1915(4) 0.1610(3)
H24 H 0.0552 0.1572 0.1465
C36 C -0.0100(3) 0.1803(3) 0.2183(3)
C37 C -0.0038(3) 0.1188(3) 0.2542(3)
C38 C -0.0393(4) 0.1110(4) 0.3091(3)
C39 C -0.1231(3) 0.3783(3) 0.3470(3)
C40 C -0.1903(3) 0.3824(3) 0.3724(3)
C41 C -0.2260(3) 0.3383(3) 0.3691(3)
C42 C -0.1943(3) 0.2868(3) 0.3435(3)
C43 C -0.1263(3) 0.2808(3) 0.3206(3)
C44 C -0.0926(3) 0.3273(3) 0.3216(3)
H25 H -0.0466 0.3242 0.3042
N3 N 0.3053(2) 0.5425(2) 0.2649(2)
C45 C 0.3540(3) 0.5758(3) 0.2583(3)
H26 H 0.3616 0.6120 0.2282
C46 C 0.3927(3) 0.5580(3) 0.2946(3)
H27 H 0.4273 0.5814 0.2897
C47 C 0.3809(3) 0.5047(3) 0.3391(3)
H28 H 0.4072 0.4919 0.3648
C48 C 0.3296(3) 0.4707(3) 0.3452(2)
C49 C 0.2930(3) 0.4922(3) 0.3070(2)
H29 H 0.2576 0.4704 0.3109
C50 C 0.2129(3) 0.4808(3) 0.4374(3)
H30 H 0.2241 0.5182 0.4096
C51 C 0.1575(3) 0.4851(4) 0.4790(3)
H31 H 0.1297 0.5252 0.4794
C52 C 0.1398(4) 0.4319(4) 0.5215(3)
H32 H 0.1012 0.4366 0.5512
C53 C 0.1776(4) 0.3738(4) 0.5206(3)
H33 H 0.1641 0.3376 0.5489
C54 C 0.2370(3) 0.3656(3) 0.4781(3)
C55 C 0.2773(4) 0.3055(3) 0.4763(3)
C56 C 0.3351(4) 0.2998(3) 0.4350(3)
C57 C 0.3790(5) 0.2411(4) 0.4333(4)
H34 H 0.3702 0.2054 0.4637
C58 C 0.4318(5) 0.2340(5) 0.3910(5)
H35 H 0.4593 0.1937 0.3911
C59 C 0.4474(5) 0.2873(5) 0.3454(5)
H36 H 0.4840 0.2815 0.3144
C60 C 0.4106(4) 0.3454(4) 0.3460(4)
H37 H 0.4230 0.3810 0.3165
C61 C 0.3529(4) 0.3542(3) 0.3907(3)
C62 C 0.3131(3) 0.4147(3) 0.3913(3)
C63 C 0.2558(3) 0.4202(3) 0.4345(3)
N4 N 0.1603(3) -0.0504(3) 0.3374(2)
C64 C 0.1097(4) -0.0850(3) 0.3590(3)
H38 H 0.1024 -0.1106 0.3374
C65 C 0.0691(4) -0.0842(4) 0.4109(3)
H39 H 0.0337 -0.1089 0.4252
C66 C 0.0796(4) -0.0469(3) 0.4426(3)
H40 H 0.0514 -0.0456 0.4787
C67 C 0.1322(4) -0.0115(3) 0.4210(3)
C68 C 0.1714(3) -0.0140(3) 0.3674(3)
H41 H 0.2068 0.0106 0.3517
C69 C 0.2481(4) -0.0511(4) 0.4614(3)
H42 H 0.2362 -0.0787 0.4441
C70 C 0.3032(5) -0.0689(4) 0.4777(3)
H43 H 0.3296 -0.1089 0.4728
C71 C 0.3228(5) -0.0265(4) 0.5031(3)
H44 H 0.3629 -0.0381 0.5137
C72 C 0.2835(5) 0.0301(4) 0.5119(3)
H45 H 0.2970 0.0573 0.5286
C73 C 0.2239(4) 0.0491(4) 0.4969(3)
C74 C 0.1826(5) 0.1065(4) 0.5062(3)
C75 C 0.1242(4) 0.1270(4) 0.4890(3)
C76 C 0.0814(5) 0.1834(4) 0.4989(4)
H46 H 0.0908 0.2082 0.5201
C77 C 0.0281(5) 0.2038(4) 0.4798(4)
H47 H 0.0016 0.2433 0.4860
C78 C 0.0113(5) 0.1665(4) 0.4506(4)
H48 H -0.0274 0.1799 0.4379
C79 C 0.0512(4) 0.1105(4) 0.4405(4)
H49 H 0.0407 0.0868 0.4190
C80 C 0.1068(4) 0.0870(3) 0.4606(3)
C81 C 0.1479(4) 0.0294(3) 0.4508(3)
C82 C 0.2054(4) 0.0091(3) 0.4690(3)
C83 C 0.2534(4) 0.2465(3) 0.5168(3)
C84 C 0.2562(4) 0.2300(4) 0.5718(3)
C85 C 0.2309(4) 0.1765(4) 0.6081(3)
C86 C 0.2047(5) 0.1367(4) 0.5879(3)
C87 C 0.2046(5) 0.1497(4) 0.5328(3)
C88 C 0.2295(4) 0.2058(4) 0.4982(3)
H50 H 0.2295 0.2158 0.4601
N5 N 0.3323(2) 0.5545(2) 0.14810(19)
C89 C 0.3507(3) 0.6030(3) 0.1043(2)
H51 H 0.3233 0.6434 0.1013
C90 C 0.4090(3) 0.5946(3) 0.0636(2)
H52 H 0.4214 0.6289 0.0328
C91 C 0.4491(3) 0.5359(3) 0.0683(2)
H53 H 0.4890 0.5296 0.0404
C92 C 0.4312(3) 0.4861(3) 0.1136(2)
C93 C 0.3715(3) 0.4979(3) 0.1519(2)
H54 H 0.3576 0.4640 0.1826
C94 C 0.5049(3) 0.4542(3) 0.1952(3)
H55 H 0.4804 0.4957 0.1879
C95 C 0.5373(3) 0.4397(4) 0.2352(3)
H56 H 0.5355 0.4708 0.2556
C96 C 0.5743(4) 0.3774(4) 0.2466(3)
H57 H 0.5966 0.3671 0.2750
C97 C 0.5780(3) 0.3326(4) 0.2173(3)
H58 H 0.6031 0.2915 0.2256
C98 C 0.5454(3) 0.3457(3) 0.1747(3)
C99 C 0.5484(3) 0.3001(3) 0.1445(3)
C100 C 0.5135(3) 0.3146(3) 0.1032(3)
C101 C 0.5178(4) 0.2701(3) 0.0697(3)
H59 H 0.5463 0.2304 0.0739
C102 C 0.4824(4) 0.2834(3) 0.0322(3)
H60 H 0.4856 0.2530 0.0107
C103 C 0.4399(4) 0.3432(3) 0.0249(3)
H61 H 0.4140 0.3516 -0.0007
C104 C 0.4361(3) 0.3878(3) 0.0539(2)
H62 H 0.4079 0.4274 0.0481
C105 C 0.4740(3) 0.3761(3) 0.0934(2)
C106 C 0.4718(3) 0.4226(3) 0.1228(2)
C107 C 0.5067(3) 0.4085(3) 0.1638(3)
N6 N 0.2975(3) -0.0822(2) 0.2898(2)
C108 C 0.3006(4) -0.1381(3) 0.3287(3)
H63 H 0.2651 -0.1625 0.3408
C109 C 0.3528(4) -0.1598(3) 0.3503(3)
H64 H 0.3535 -0.1987 0.3777
C110 C 0.4059(4) -0.1250(3) 0.3324(3)
H65 H 0.4429 -0.1401 0.3473
C111 C 0.4037(4) -0.0684(3) 0.2928(3)
C112 C 0.3482(3) -0.0485(3) 0.2732(3)
H66 H 0.3458 -0.0091 0.2466
C113 C 0.4782(4) -0.0522(3) 0.1771(3)
H67 H 0.4500 -0.0843 0.1923
C114 C 0.5089(4) -0.0407(4) 0.1225(3)
H68 H 0.5022 -0.0650 0.0996
C115 C 0.5511(4) 0.0067(4) 0.0986(3)
H69 H 0.5715 0.0143 0.0597
C116 C 0.5630(4) 0.0406(4) 0.1290(3)
H70 H 0.5919 0.0719 0.1116
C117 C 0.5325(4) 0.0310(3) 0.1887(3)
C118 C 0.5451(4) 0.0646(3) 0.2225(3)
C119 C 0.5203(4) 0.0487(4) 0.2801(3)
C120 C 0.5366(4) 0.0784(4) 0.3171(3)
H71 H 0.5654 0.1101 0.3021
C121 C 0.5111(5) 0.0615(4) 0.3733(4)
H72 H 0.5244 0.0801 0.3968
C122 C 0.4666(5) 0.0182(4) 0.3970(4)
H73 H 0.4485 0.0087 0.4363
C123 C 0.4489(5) -0.0103(4) 0.3648(3)
H74 H 0.4184 -0.0402 0.3819
C124 C 0.4742(4) 0.0026(4) 0.3056(3)
C125 C 0.4567(4) -0.0270(3) 0.2700(3)
C126 C 0.4878(4) -0.0157(3) 0.2131(3)
C127 C 0.5847(3) 0.2352(3) 0.1574(3)
C128 C 0.6540(4) 0.2241(3) 0.1470(3)
C129 C 0.6865(4) 0.1639(4) 0.1645(3)
C130 C 0.6510(4) 0.1106(4) 0.1889(3)
C131 C 0.5847(4) 0.1199(3) 0.1968(3)
C132 C 0.5519(4) 0.1814(3) 0.1834(3)
H75 H 0.5053 0.1874 0.1921
N7 N 0.1962(2) 0.5870(2) 0.1537(2)
C133 C 0.1536(3) 0.6419(3) 0.1484(3)
H76 H 0.1468 0.6698 0.1730
C134 C 0.1195(4) 0.6588(4) 0.1079(3)
H77 H 0.0902 0.6980 0.1044
C135 C 0.1288(4) 0.6177(4) 0.0730(3)
H78 H 0.1050 0.6281 0.0457
C136 C 0.1726(3) 0.5612(3) 0.0774(3)
C137 C 0.2039(3) 0.5472(3) 0.1195(2)
H79 H 0.2323 0.5075 0.1244
C138 C 0.3021(3) 0.5418(3) -0.0005(3)
H80 H 0.2933 0.5723 0.0221
C139 C 0.3623(3) 0.5325(3) -0.0360(3)
H81 H 0.3946 0.5577 -0.0386
C140 C 0.3783(3) 0.4868(3) -0.0689(3)
H82 H 0.4211 0.4808 -0.0932
C141 C 0.3323(3) 0.4511(3) -0.0660(2)
H83 H 0.3442 0.4189 -0.0874
C142 C 0.2667(3) 0.4604(3) -0.0318(2)
C143 C 0.2186(3) 0.4275(3) -0.0309(2)
C144 C 0.1529(3) 0.4401(3) 0.0010(2)
C145 C 0.1025(4) 0.4094(4) -0.0009(3)
H84 H 0.1130 0.3790 -0.0238
C146 C 0.0378(4) 0.4226(4) 0.0300(3)
H85 H 0.0042 0.4035 0.0262
C147 C 0.0224(4) 0.4645(4) 0.0668(3)
H86 H -0.0213 0.4723 0.0891
C148 C 0.0717(4) 0.4949(4) 0.0707(3)
H87 H 0.0610 0.5224 0.0963
C149 C 0.1379(3) 0.4851(3) 0.0369(3)
C150 C 0.1878(3) 0.5167(3) 0.0383(2)
C151 C 0.2519(3) 0.5070(3) 0.0036(2)
N8 N 0.2749(3) -0.0464(3) 0.1800(2)
C152 C 0.3115(4) -0.0999(3) 0.1670(3)
H88 H 0.3133 -0.1378 0.1953
C153 C 0.3477(4) -0.1013(4) 0.1116(3)
H89 H 0.3750 -0.1393 0.1021
C154 C 0.3424(4) -0.0453(3) 0.0714(3)
H90 H 0.3651 -0.0459 0.0337
C155 C 0.3056(3) 0.0105(3) 0.0842(3)
C156 C 0.2721(3) 0.0073(3) 0.1408(2)
H91 H 0.2464 0.0453 0.1516
C157 C 0.1808(4) 0.0656(4) 0.0595(3)
H92 H 0.1859 0.0237 0.0822
C158 C 0.1215(4) 0.0922(4) 0.0506(4)
H93 H 0.0851 0.0691 0.0676
C159 C 0.1129(4) 0.1547(4) 0.0161(3)
H94 H 0.0710 0.1732 0.0102
C160 C 0.1640(4) 0.1868(4) -0.0076(3)
H95 H 0.1578 0.2286 -0.0302
C161 C 0.2283(4) 0.1606(4) -0.0002(3)
C162 C 0.2830(4) 0.1936(3) -0.0283(3)
C163 C 0.3454(4) 0.1665(3) -0.0215(2)
C164 C 0.4008(4) 0.1989(4) -0.0496(3)
H96 H 0.3956 0.2397 -0.0740
C165 C 0.4601(4) 0.1730(4) -0.0424(3)
H97 H 0.4970 0.1944 -0.0631
C166 C 0.4687(4) 0.1127(4) -0.0031(3)
H98 H 0.5108 0.0959 0.0032
C167 C 0.4181(4) 0.0807(4) 0.0239(3)
H99 H 0.4245 0.0409 0.0493
C168 C 0.3537(4) 0.1055(3) 0.0154(3)
C169 C 0.2987(4) 0.0725(3) 0.0438(3)
C170 C 0.2357(4) 0.0995(4) 0.0351(3)
C171 C 0.2361(4) 0.3758(3) -0.0632(3)
C172 C 0.2404(4) 0.3877(3) -0.1193(3)
C173 C 0.2585(4) 0.3367(3) -0.1472(3)
C174 C 0.2776(4) 0.2739(3) -0.1187(3)
C175 C 0.2716(4) 0.2608(3) -0.0620(3)
C176 C 0.2500(4) 0.3122(3) -0.0345(3)
H100 H 0.2446 0.3037 0.0046
O1 O -0.2219(2) 0.4345(2) 0.39642(17)
C177 C -0.2534(4) 0.4184(4) 0.4558(3)
H101 H -0.2208 0.3933 0.4760
H102 H -0.2884 0.3920 0.4629
C178 C -0.2817(3) 0.4787(4) 0.4750(3)
H103 H -0.2978 0.4694 0.5162
H104 H -0.2477 0.5073 0.4637
O2 O -0.3347(3) 0.5094(3) 0.4512(2)
C179 C -0.3682(7) 0.5647(6) 0.4734(5)
H105 H -0.3880 0.5513 0.5135
H106 H -0.4029 0.5864 0.4549
H107 H -0.3369 0.5942 0.4671
O3 O -0.2936(2) 0.3446(2) 0.39312(18)
C180 C -0.3304(3) 0.3840(4) 0.3563(3)
H108 H -0.3266 0.3628 0.3258
H109 H -0.3138 0.4259 0.3399
C181 C -0.4003(4) 0.3939(4) 0.3894(4)
H110 H -0.4042 0.4185 0.4177
H111 H -0.4278 0.4192 0.3645
O4 O -0.4225(3) 0.3358(3) 0.4153(3)
C182 C -0.4882(4) 0.3409(6) 0.4516(5)
H112 H -0.4956 0.3771 0.4696
H113 H -0.4936 0.3010 0.4800
H114 H -0.5200 0.3480 0.4297
O5 O -0.2278(2) 0.2432(2) 0.33707(18)
C183 C -0.2749(4) 0.2122(4) 0.3858(3)
H115 H -0.3161 0.2423 0.3945
H116 H -0.2565 0.1996 0.4184
C184 C -0.2884(4) 0.1546(4) 0.3734(3)
H117 H -0.2467 0.1251 0.3652
H118 H -0.3184 0.1321 0.4071
O6 O -0.3160(3) 0.1671(3) 0.3294(3)
C185 C -0.3798(5) 0.1995(5) 0.3398(5)
H119 H -0.4059 0.1783 0.3759
H120 H -0.3995 0.1990 0.3105
H121 H -0.3790 0.2441 0.3405
O7 O 0.2825(3) 0.2703(2) 0.5919(2)
C186 C 0.3514(5) 0.2507(5) 0.5854(5)
H122 H 0.3764 0.2671 0.5467
H123 H 0.3614 0.2031 0.5940
C187 C 0.3688(5) 0.2770(6) 0.6236(5)
H124 H 0.3519 0.2538 0.6624
H125 H 0.3505 0.3232 0.6205
O8 O 0.4402(4) 0.2688(5) 0.6076(4)
C188 C 0.4644(7) 0.2927(7) 0.6428(6)
H126 H 0.4360 0.2841 0.6809
H127 H 0.4646 0.3392 0.6292
H128 H 0.5093 0.2713 0.6424
O9 O 0.2347(3) 0.1592(3) 0.6627(2)
C189 C 0.1947(5) 0.1988(4) 0.6985(3)
H129 H 0.1501 0.2105 0.6927
H130 H 0.2136 0.2388 0.6916
C190 C 0.1919(7) 0.1608(6) 0.7566(4)
H131 H 0.1704 0.1227 0.7626
H132 H 0.2377 0.1448 0.7591
O10 O 0.1600(5) 0.1918(5) 0.7995(4)
C191 C 0.1719(7) 0.1564(7) 0.8531(4)
H133 H 0.1625 0.1123 0.8607
H134 H 0.1432 0.1778 0.8827
H135 H 0.2180 0.1555 0.8518
O11 O 0.1815(3) 0.0808(3) 0.6240(3)
C192 C 0.1109(6) 0.0792(7) 0.6425(6)
H136 H 0.0943 0.0924 0.6089
H137 H 0.1044 0.0337 0.6588
C193 C 0.0681(8) 0.1170(8) 0.6825(6)
H138 H 0.0213 0.1180 0.6847
H139 H 0.0781 0.1617 0.6716
O12 O 0.0820(6) 0.0845(6) 0.7354(5)
C194 C 0.0487(11) 0.1156(10) 0.7803(7)
H140 H 0.0405 0.1621 0.7659
H141 H 0.0760 0.1068 0.8063
H142 H 0.0068 0.0993 0.7997
O13 O 0.6888(3) 0.2757(3) 0.1240(3)
C195 C 0.7061(7) 0.2933(7) 0.0657(5)
H143 H 0.7273 0.3325 0.0553
H144 H 0.6644 0.3064 0.0545
C196 C 0.7463(8) 0.2519(9) 0.0320(7)
H145 H 0.7452 0.2689 -0.0073
H146 H 0.7323 0.2087 0.0446
O14 O 0.8124(7) 0.2490(7) 0.0380(6)
C197 C 0.8548(11) 0.1959(10) 0.0132(10)
H147 H 0.8294 0.1607 0.0205
H148 H 0.8921 0.1804 0.0295
H149 H 0.8710 0.2113 -0.0271
O15 O 0.7529(3) 0.1557(3) 0.1569(3)
C198 C 0.7724(4) 0.1822(5) 0.1937(5)
H150 H 0.7493 0.1648 0.2327
H151 H 0.7602 0.2296 0.1859
C199 C 0.8440(5) 0.1656(5) 0.1855(6)
H152 H 0.8661 0.1862 0.1471
H153 H 0.8567 0.1841 0.2113
O16 O 0.8667(4) 0.1005(4) 0.1941(4)
C200 C 0.8405(7) 0.0709(7) 0.2528(6)
H154 H 0.8482 0.0955 0.2764
H155 H 0.8626 0.0266 0.2608
H156 H 0.7931 0.0707 0.2606
O17 O 0.6784(3) 0.0505(3) 0.2102(3)
C201 C 0.7403(5) 0.0219(5) 0.1817(4)
H157 H 0.7491 -0.0229 0.2022
H158 H 0.7747 0.0454 0.1822
C202 C 0.7459(6) 0.0213(6) 0.1249(5)
H159 H 0.7261 0.0631 0.1060
H160 H 0.7926 0.0126 0.1042
O18 O 0.7122(5) -0.0275(4) 0.1277(4)
C203 C 0.7171(8) -0.0379(8) 0.0753(6)
H161 H 0.7141 0.0035 0.0490
H162 H 0.6813 -0.0607 0.0781
H163 H 0.7594 -0.0639 0.0623
O19 O 0.2218(3) 0.4490(2) -0.14476(18)
C204 C 0.2655(4) 0.4738(3) -0.1985(3)
H164 H 0.2442 0.4785 -0.2286
H165 H 0.3068 0.4433 -0.2056
C205 C 0.2806(4) 0.5373(3) -0.1985(3)
H166 H 0.2955 0.5339 -0.1651
H167 H 0.3165 0.5504 -0.2319
O20 O 0.2229(3) 0.5851(2) -0.1985(2)
C206 C 0.2368(5) 0.6463(4) -0.2006(4)
H168 H 0.2605 0.6427 -0.1729
H169 H 0.1955 0.6756 -0.1926
H170 H 0.2639 0.6630 -0.2379
O21 O 0.2574(3) 0.3488(2) -0.20210(19)
C207 C 0.2128(6) 0.3151(5) -0.2106(4)
H171 H 0.1758 0.3089 -0.1766
H172 H 0.2356 0.2720 -0.2166
C208 C 0.1871(4) 0.3481(5) -0.2572(3)
H173 H 0.1558 0.3221 -0.2594
H174 H 0.1612 0.3893 -0.2488
O22 O 0.2290(3) 0.3615(3) -0.3084(2)
C209 C 0.1940(4) 0.3940(4) -0.3494(3)
H175 H 0.1565 0.3721 -0.3440
H176 H 0.2235 0.3935 -0.3868
H177 H 0.1781 0.4387 -0.3456
O23 O 0.2996(3) 0.2233(2) -0.14613(19)
C210 C 0.3624(5) 0.2291(4) -0.1875(3)
H178 H 0.3576 0.2669 -0.2180
H179 H 0.3950 0.2355 -0.1703
C211 C 0.3853(5) 0.1705(4) -0.2099(3)
H180 H 0.4322 0.1696 -0.2310
H181 H 0.3813 0.1322 -0.1790
O24 O 0.3475(3) 0.1693(3) -0.2451(2)
C212 C 0.3716(6) 0.1155(5) -0.2716(5)
H182 H 0.4182 0.1163 -0.2914
H183 H 0.3465 0.1181 -0.2981
H184 H 0.3667 0.0755 -0.2433
B1 B 0.1965(6) 0.1927(6) 0.2948(3)
N9 N 0.2588(5) 0.1641(5) 0.2701(4)
C213 C 0.2836(4) 0.1785(6) 0.2125(4)
C214 C 0.2460(6) 0.2214(6) 0.1797(3)
C215 C 0.1837(5) 0.2500(5) 0.2044(5)
N10 N 0.1589(4) 0.2356(6) 0.2620(5)
F1 F 0.1917(6) 0.2040(7) 0.3522(5)
C216 C 0.3103(6) 0.1287(8) 0.2932(6)
C217 C 0.3501(6) 0.1486(8) 0.1947(6)
C218 C 0.3117(8) 0.1127(8) 0.3494(6)
H185 H 0.3404 0.1386 0.3547
H186 H 0.3287 0.0669 0.3595
H187 H 0.2672 0.1214 0.3732
F2 F 0.1573(7) 0.1333(7) 0.3156(7)
C219 C 0.3662(8) 0.1191(8) 0.2465(5)
H188 H 0.4080 0.0963 0.2496
C220 C 0.1427(8) 0.3028(7) 0.1794(7)
C221 C 0.1509(10) 0.3277(10) 0.1195(8)
H189 H 0.1184 0.3659 0.1135
H190 H 0.1446 0.2946 0.1029
H191 H 0.1953 0.3392 0.1020
C222 C 0.3921(9) 0.1476(9) 0.1401(6)
H192 H 0.3678 0.1382 0.1173
H193 H 0.4302 0.1142 0.1423
H194 H 0.4071 0.1896 0.1231
C223 C 0.2700(8) 0.2332(8) 0.1177(6)
H195 H 0.2447 0.2121 0.1035
H196 H 0.3167 0.2156 0.1069
H197 H 0.2642 0.2796 0.1021
C224 C 0.0968(10) 0.3324(10) 0.2218(7)
H198 H 0.0681 0.3720 0.2187
C225 C 0.1062(9) 0.2855(8) 0.2706(9)
C226 C 0.0945(15) 0.3405(13) 0.3038(12)
H199 H 0.1278 0.3693 0.2850
H200 H 0.0979 0.3211 0.3418
H201 H 0.0506 0.3651 0.3050
N11 N 0.8045(3) 0.2305(4) 0.5249(3)
O25 O 0.8639(4) 0.2306(5) 0.5106(4)
O26 O 0.7744(4) 0.2187(5) 0.4969(4)
O27 O 0.7715(4) 0.2400(5) 0.5699(3)
N12 N 0.4677(6) 0.3651(6) 0.8313(4)
O28 O 0.5095(8) 0.3515(8) 0.7926(6)
O29 O 0.4237(6) 0.3936(7) 0.8124(5)
O30 O 0.4739(7) 0.3476(7) 0.8771(5)
N13 N 0.6513(8) 0.1744(7) 0.9894(11)
O31 O 0.5933(8) 0.1616(8) 0.9995(7)
O32 O 0.6649(9) 0.2311(9) 0.9640(10)
O33 O 0.6953(9) 0.1304(9) 1.0057(9)
O34 O 0.0296(7) 0.3108(7) 0.9494(8)
O35 O 0.0369(7) 0.2630(6) 0.8292(8)
O36 O 1.0252(15) 0.2227(16) 0.9046(14)
O37 O 0.0371(5) 0.2918(5) 0.5812(4)
N14 N 0.0379(11) 0.2726(12) 0.6272(6)
O38 O 0.0674(10) 0.2956(10) 0.6470(7)
O39 O -0.0027(12) 0.2412(12) 0.6577(8)
C227 C 0.6392(7) 0.9525(6) 0.3943(6)
C228 C 0.6838(7) 0.9898(7) 0.3476(6)
N15 N 0.6050(6) 0.9208(6) 0.4327(5)
O40 O 0.6449(3) 0.2763(3) 0.5126(2)
O41 O 0.5276(3) 0.4573(3) 0.5974(2)
O42 O 0.3213(3) 0.4475(3) 0.6674(2)
O43 O 0.6239(3) 0.3503(3) 0.5936(3)
O44 O 0.5373(6) 0.4883(7) 0.4869(6)
O45 O 0.5701(9) 0.2943(6) 0.7039(6)
O46 O 0.5900(9) 0.2200(9) 0.7773(6)
O47 O 0.9048(5) 0.2433(4) 0.6030(4)
O48 O 0.7399(4) 0.3513(4) 0.6193(4)
O49 O 0.5502(4) 0.1934(4) 0.5497(3)
O50 O 0.5231(4) 0.1183(4) 0.4854(3)
O51 O 0.1285(4) 0.5691(4) 0.9040(4)
O52 O 0.5891(5) 0.2674(4) 0.8819(5)
O53 O 0.4331(9) 0.4049(9) 0.7019(8)
O54 O 0.7094(6) 0.2676(6) 0.7254(4)
O55 O 0.8292(5) 0.1979(4) 0.7117(4)
O56 O 0.7199(5) 0.2822(4) 0.8232(4)
O57 O -0.0335(9) 0.2853(6) 0.7619(7)
O58 O 0.8496(10) 0.2105(8) 0.8105(7)
O59 O 0.0971(7) 0.6757(7) 0.9527(5)
O60 O 0.8154(9) 0.0977(7) 0.9254(9)
O61 O 0.9466(9) 0.0542(10) 0.0961(7)
N16 N 0.1302(12) 0.3175(12) 0.4037(11)
C229 C 0.1534(15) 0.3540(16) 0.3584(14)
C230 C 0.1844(14) 0.3902(14) 0.3057(14)
N17 N 0.273(2) 0.374(2) 0.1899(17)
C231 C 0.294(3) 0.350(3) 0.232(2)
C232 C 0.331(2) 0.295(2) 0.231(2)
O62 O 0.993(2) 0.105(2) 0.9681(18)
O63 O 0.9262(16) 0.9978(17) 0.0343(14)
loop_
_geom_bond_atom_site_label_1
_geom_bond_atom_site_label_2
_geom_bond_site_symmetry_1
_geom_bond_site_symmetry_2
Pt1 N1 1_555 1_555
Pt2 N2 1_555 1_555
N1 C1 1_555 1_555
C1 H1 1_555 1_555
C2 C1 1_555 1_555
H2 C2 1_555 1_555
C3 C2 1_555 1_555
H3 C3 1_555 1_555
C4 C3 1_555 1_555
C5 N1 1_555 1_555
H4 C5 1_555 1_555
C6 H5 1_555 1_555
C7 C6 1_555 1_555
H6 C7 1_555 1_555
C8 C7 1_555 1_555
H7 C8 1_555 1_555
C9 C8 1_555 1_555
H8 C9 1_555 1_555
C10 C9 1_555 1_555
C11 C10 1_555 1_555
C12 C11 1_555 1_555
C13 C12 1_555 1_555
H9 C13 1_555 1_555
C14 C13 1_555 1_555
H10 C14 1_555 1_555
C15 C14 1_555 1_555
H11 C15 1_555 1_555
C16 C15 1_555 1_555
H12 C16 1_555 1_555
C17 C12 1_555 1_555
C18 C4 1_555 1_555
C19 C6 1_555 1_555
N2 C20 1_555 1_555
C20 H13 1_555 1_555
C21 C20 1_555 1_555
H14 C21 1_555 1_555
C22 C21 1_555 1_555
H15 C22 1_555 1_555
C23 C22 1_555 1_555
C24 N2 1_555 1_555
H16 C24 1_555 1_555
C25 H17 1_555 1_555
C26 C25 1_555 1_555
H18 C26 1_555 1_555
C27 C26 1_555 1_555
H19 C27 1_555 1_555
C28 C27 1_555 1_555
H20 C28 1_555 1_555
C29 C28 1_555 1_555
C30 C29 1_555 1_555
C31 C30 1_555 1_555
C32 C31 1_555 1_555
H21 C32 1_555 1_555
C33 C32 1_555 1_555
H22 C33 1_555 1_555
C34 C33 1_555 1_555
H23 C34 1_555 1_555
C35 C34 1_555 1_555
H24 C35 1_555 1_555
C36 C31 1_555 1_555
C37 C23 1_555 1_555
C38 C25 1_555 1_555
C39 C11 1_555 1_555
C40 C39 1_555 1_555
C41 C40 1_555 1_555
C42 C41 1_555 1_555
C43 C30 1_555 1_555
C44 C39 1_555 1_555
H25 C44 1_555 1_555
N3 Pt1 1_555 1_555
C45 N3 1_555 1_555
H26 C45 1_555 1_555
C46 C45 1_555 1_555
H27 C46 1_555 1_555
C47 C46 1_555 1_555
H28 C47 1_555 1_555
C48 C47 1_555 1_555
C49 N3 1_555 1_555
H29 C49 1_555 1_555
C50 H30 1_555 1_555
C51 C50 1_555 1_555
H31 C51 1_555 1_555
C52 C51 1_555 1_555
H32 C52 1_555 1_555
C53 C52 1_555 1_555
H33 C53 1_555 1_555
C54 C53 1_555 1_555
C55 C54 1_555 1_555
C56 C55 1_555 1_555
C57 C56 1_555 1_555
H34 C57 1_555 1_555
C58 C57 1_555 1_555
H35 C58 1_555 1_555
C59 C58 1_555 1_555
H36 C59 1_555 1_555
C60 C59 1_555 1_555
H37 C60 1_555 1_555
C61 C56 1_555 1_555
C62 C48 1_555 1_555
C63 C50 1_555 1_555
N4 Pt2 1_555 1_555
C64 N4 1_555 1_555
H38 C64 1_555 1_555
C65 C64 1_555 1_555
H39 C65 1_555 1_555
C66 C65 1_555 1_555
H40 C66 1_555 1_555
C67 C66 1_555 1_555
C68 N4 1_555 1_555
H41 C68 1_555 1_555
C69 H42 1_555 1_555
C70 C69 1_555 1_555
H43 C70 1_555 1_555
C71 C70 1_555 1_555
H44 C71 1_555 1_555
C72 C71 1_555 1_555
H45 C72 1_555 1_555
C73 C72 1_555 1_555
C74 C73 1_555 1_555
C75 C74 1_555 1_555
C76 C75 1_555 1_555
H46 C76 1_555 1_555
C77 C76 1_555 1_555
H47 C77 1_555 1_555
C78 C77 1_555 1_555
H48 C78 1_555 1_555
C79 C78 1_555 1_555
H49 C79 1_555 1_555
C80 C75 1_555 1_555
C81 C67 1_555 1_555
C82 C69 1_555 1_555
C83 C55 1_555 1_555
C84 C83 1_555 1_555
C85 C84 1_555 1_555
C86 C85 1_555 1_555
C87 C74 1_555 1_555
C88 C83 1_555 1_555
H50 C88 1_555 1_555
N5 Pt1 1_555 1_555
C89 N5 1_555 1_555
H51 C89 1_555 1_555
C90 C89 1_555 1_555
H52 C90 1_555 1_555
C91 C90 1_555 1_555
H53 C91 1_555 1_555
C92 C91 1_555 1_555
C93 N5 1_555 1_555
H54 C93 1_555 1_555
C94 H55 1_555 1_555
C95 C94 1_555 1_555
H56 C95 1_555 1_555
C96 C95 1_555 1_555
H57 C96 1_555 1_555
C97 C96 1_555 1_555
H58 C97 1_555 1_555
C98 C97 1_555 1_555
C99 C98 1_555 1_555
C100 C99 1_555 1_555
C101 C100 1_555 1_555
H59 C101 1_555 1_555
C102 C101 1_555 1_555
H60 C102 1_555 1_555
C103 C102 1_555 1_555
H61 C103 1_555 1_555
C104 C103 1_555 1_555
H62 C104 1_555 1_555
C105 C100 1_555 1_555
C106 C92 1_555 1_555
C107 C94 1_555 1_555
N6 Pt2 1_555 1_555
C108 N6 1_555 1_555
H63 C108 1_555 1_555
C109 C108 1_555 1_555
H64 C109 1_555 1_555
C110 C109 1_555 1_555
H65 C110 1_555 1_555
C111 C110 1_555 1_555
C112 N6 1_555 1_555
H66 C112 1_555 1_555
C113 H67 1_555 1_555
C114 C113 1_555 1_555
H68 C114 1_555 1_555
C115 C114 1_555 1_555
H69 C115 1_555 1_555
C116 C115 1_555 1_555
H70 C116 1_555 1_555
C117 C116 1_555 1_555
C118 C117 1_555 1_555
C119 C118 1_555 1_555
C120 C119 1_555 1_555
H71 C120 1_555 1_555
C121 C120 1_555 1_555
H72 C121 1_555 1_555
C122 C121 1_555 1_555
H73 C122 1_555 1_555
C123 C122 1_555 1_555
H74 C123 1_555 1_555
C124 C119 1_555 1_555
C125 C111 1_555 1_555
C126 C113 1_555 1_555
C127 C99 1_555 1_555
C128 C127 1_555 1_555
C129 C128 1_555 1_555
C130 C129 1_555 1_555
C131 C118 1_555 1_555
C132 C127 1_555 1_555
H75 C132 1_555 1_555
N7 Pt1 1_555 1_555
C133 N7 1_555 1_555
H76 C133 1_555 1_555
C134 C133 1_555 1_555
H77 C134 1_555 1_555
C135 C134 1_555 1_555
H78 C135 1_555 1_555
C136 C135 1_555 1_555
C137 N7 1_555 1_555
H79 C137 1_555 1_555
C138 H80 1_555 1_555
C139 C138 1_555 1_555
H81 C139 1_555 1_555
C140 C139 1_555 1_555
H82 C140 1_555 1_555
C141 C140 1_555 1_555
H83 C141 1_555 1_555
C142 C141 1_555 1_555
C143 C142 1_555 1_555
C144 C143 1_555 1_555
C145 C144 1_555 1_555
H84 C145 1_555 1_555
C146 C145 1_555 1_555
H85 C146 1_555 1_555
C147 C146 1_555 1_555
H86 C147 1_555 1_555
C148 C147 1_555 1_555
H87 C148 1_555 1_555
C149 C144 1_555 1_555
C150 C136 1_555 1_555
C151 C138 1_555 1_555
N8 Pt2 1_555 1_555
C152 N8 1_555 1_555
H88 C152 1_555 1_555
C153 C152 1_555 1_555
H89 C153 1_555 1_555
C154 C153 1_555 1_555
H90 C154 1_555 1_555
C155 C154 1_555 1_555
C156 N8 1_555 1_555
H91 C156 1_555 1_555
C157 H92 1_555 1_555
C158 C157 1_555 1_555
H93 C158 1_555 1_555
C159 C158 1_555 1_555
H94 C159 1_555 1_555
C160 C159 1_555 1_555
H95 C160 1_555 1_555
C161 C160 1_555 1_555
C162 C161 1_555 1_555
C163 C162 1_555 1_555
C164 C163 1_555 1_555
H96 C164 1_555 1_555
C165 C164 1_555 1_555
H97 C165 1_555 1_555
C166 C165 1_555 1_555
H98 C166 1_555 1_555
C167 C166 1_555 1_555
H99 C167 1_555 1_555
C168 C163 1_555 1_555
C169 C155 1_555 1_555
C170 C157 1_555 1_555
C171 C143 1_555 1_555
C172 C171 1_555 1_555
C173 C172 1_555 1_555
C174 C173 1_555 1_555
C175 C162 1_555 1_555
C176 C171 1_555 1_555
H100 C176 1_555 1_555
O1 C40 1_555 1_555
C177 O1 1_555 1_555
H101 C177 1_555 1_555
H102 C177 1_555 1_555
C178 C177 1_555 1_555
H103 C178 1_555 1_555
H104 C178 1_555 1_555
O2 C178 1_555 1_555
C179 O2 1_555 1_555
H105 C179 1_555 1_555
H106 C179 1_555 1_555
H107 C179 1_555 1_555
O3 C41 1_555 1_555
C180 O3 1_555 1_555
H108 C180 1_555 1_555
H109 C180 1_555 1_555
C181 C180 1_555 1_555
H110 C181 1_555 1_555
H111 C181 1_555 1_555
O4 C181 1_555 1_555
C182 O4 1_555 1_555
H112 C182 1_555 1_555
H113 C182 1_555 1_555
H114 C182 1_555 1_555
O5 C42 1_555 1_555
C183 O5 1_555 1_555
H115 C183 1_555 1_555
H116 C183 1_555 1_555
C184 C183 1_555 1_555
H117 C184 1_555 1_555
H118 C184 1_555 1_555
O6 C184 1_555 1_555
C185 O6 1_555 1_555
H119 C185 1_555 1_555
H120 C185 1_555 1_555
H121 C185 1_555 1_555
O7 C84 1_555 1_555
C186 O7 1_555 1_555
H122 C186 1_555 1_555
H123 C186 1_555 1_555
C187 C186 1_555 1_555
H124 C187 1_555 1_555
H125 C187 1_555 1_555
O8 C187 1_555 1_555
C188 O8 1_555 1_555
H126 C188 1_555 1_555
H127 C188 1_555 1_555
H128 C188 1_555 1_555
O9 C85 1_555 1_555
C189 O9 1_555 1_555
H129 C189 1_555 1_555
H130 C189 1_555 1_555
C190 C189 1_555 1_555
H131 C190 1_555 1_555
H132 C190 1_555 1_555
O10 C190 1_555 1_555
C191 O10 1_555 1_555
H133 C191 1_555 1_555
H134 C191 1_555 1_555
H135 C191 1_555 1_555
O11 C86 1_555 1_555
C192 O11 1_555 1_555
H136 C192 1_555 1_555
H137 C192 1_555 1_555
C193 C192 1_555 1_555
H138 C193 1_555 1_555
H139 C193 1_555 1_555
O12 C193 1_555 1_555
C194 O12 1_555 1_555
H140 C194 1_555 1_555
H141 C194 1_555 1_555
H142 C194 1_555 1_555
O13 C128 1_555 1_555
C195 O13 1_555 1_555
H143 C195 1_555 1_555
H144 C195 1_555 1_555
C196 C195 1_555 1_555
H145 C196 1_555 1_555
H146 C196 1_555 1_555
O14 C196 1_555 1_555
C197 O14 1_555 1_555
H147 C197 1_555 1_555
H148 C197 1_555 1_555
H149 C197 1_555 1_555
O15 C129 1_555 1_555
C198 O15 1_555 1_555
H150 C198 1_555 1_555
H151 C198 1_555 1_555
C199 C198 1_555 1_555
H152 C199 1_555 1_555
H153 C199 1_555 1_555
O16 C199 1_555 1_555
C200 O16 1_555 1_555
H154 C200 1_555 1_555
H155 C200 1_555 1_555
H156 C200 1_555 1_555
O17 C130 1_555 1_555
C201 O17 1_555 1_555
H157 C201 1_555 1_555
H158 C201 1_555 1_555
C202 C201 1_555 1_555
H159 C202 1_555 1_555
H160 C202 1_555 1_555
O18 C202 1_555 1_555
C203 O18 1_555 1_555
H161 C203 1_555 1_555
H162 C203 1_555 1_555
H163 C203 1_555 1_555
O19 C172 1_555 1_555
C204 O19 1_555 1_555
H164 C204 1_555 1_555
H165 C204 1_555 1_555
C205 C204 1_555 1_555
H166 C205 1_555 1_555
H167 C205 1_555 1_555
O20 C205 1_555 1_555
C206 O20 1_555 1_555
H168 C206 1_555 1_555
H169 C206 1_555 1_555
H170 C206 1_555 1_555
O21 C173 1_555 1_555
C207 O21 1_555 1_555
H171 C207 1_555 1_555
H172 C207 1_555 1_555
C208 C207 1_555 1_555
H173 C208 1_555 1_555
H174 C208 1_555 1_555
O22 C208 1_555 1_555
C209 O22 1_555 1_555
H175 C209 1_555 1_555
H176 C209 1_555 1_555
H177 C209 1_555 1_555
O23 C174 1_555 1_555
C210 O23 1_555 1_555
H178 C210 1_555 1_555
H179 C210 1_555 1_555
C211 C210 1_555 1_555
H180 C211 1_555 1_555
H181 C211 1_555 1_555
O24 C211 1_555 1_555
C212 O24 1_555 1_555
H182 C212 1_555 1_555
H183 C212 1_555 1_555
H184 C212 1_555 1_555
B1 N9 1_555 1_555
N9 C213 1_555 1_555
C213 C214 1_555 1_555
C214 C215 1_555 1_555
C215 N10 1_555 1_555
N10 B1 1_555 1_555
F1 B1 1_555 1_555
C216 N9 1_555 1_555
C217 C213 1_555 1_555
C218 C216 1_555 1_555
H185 C218 1_555 1_555
H186 C218 1_555 1_555
H187 C218 1_555 1_555
F2 B1 1_555 1_555
C219 C216 1_555 1_555
H188 C219 1_555 1_555
C220 C215 1_555 1_555
C221 C220 1_555 1_555
H189 C221 1_555 1_555
H190 C221 1_555 1_555
H191 C221 1_555 1_555
C222 C217 1_555 1_555
H192 C222 1_555 1_555
H193 C222 1_555 1_555
H194 C222 1_555 1_555
C223 C214 1_555 1_555
H195 C223 1_555 1_555
H196 C223 1_555 1_555
H197 C223 1_555 1_555
C224 C220 1_555 1_555
H198 C224 1_555 1_555
C225 N10 1_555 1_555
C226 C225 1_555 1_555
H199 C226 1_555 1_555
H200 C226 1_555 1_555
H201 C226 1_555 1_555
N11 O25 1_555 1_555
O26 N11 1_555 1_555
O27 N11 1_555 1_555
N12 O28 1_555 1_555
O29 N12 1_555 1_555
O30 N12 1_555 1_555
N13 O31 1_555 1_555
O32 N13 1_555 1_555
O33 N13 1_555 1_555
O37 N14 1_555 1_555
N14 O38 1_555 1_555
O39 N14 1_555 1_555
C227 C228 1_555 1_555
N15 C227 1_555 1_555
N16 C229 1_555 1_555
C229 C230 1_555 1_555
N17 C231 1_555 1_555
C231 C232 1_555 1_555
C4 C5 1_555 1_555
C10 C19 1_555 1_555
C16 C17 1_555 1_555
C17 C18 1_555 1_555
C18 C19 1_555 1_555
C23 C24 1_555 1_555
C29 C38 1_555 1_555
C35 C36 1_555 1_555
C36 C37 1_555 1_555
C37 C38 1_555 1_555
C42 C43 1_555 1_555
C43 C44 1_555 1_555
C48 C49 1_555 1_555
C54 C63 1_555 1_555
C60 C61 1_555 1_555
C61 C62 1_555 1_555
C62 C63 1_555 1_555
C67 C68 1_555 1_555
C73 C82 1_555 1_555
C79 C80 1_555 1_555
C80 C81 1_555 1_555
C81 C82 1_555 1_555
C86 C87 1_555 1_555
C87 C88 1_555 1_555
C92 C93 1_555 1_555
C98 C107 1_555 1_555
C104 C105 1_555 1_555
C105 C106 1_555 1_555
C106 C107 1_555 1_555
C111 C112 1_555 1_555
C117 C126 1_555 1_555
C123 C124 1_555 1_555
C124 C125 1_555 1_555
C125 C126 1_555 1_555
C130 C131 1_555 1_555
C131 C132 1_555 1_555
C136 C137 1_555 1_555
C142 C151 1_555 1_555
C148 C149 1_555 1_555
C149 C150 1_555 1_555
C150 C151 1_555 1_555
C155 C156 1_555 1_555
C161 C170 1_555 1_555
C167 C168 1_555 1_555
C168 C169 1_555 1_555
C169 C170 1_555 1_555
C174 C175 1_555 1_555
C175 C176 1_555 1_555
C217 C219 1_555 1_555
C224 C225 1_555 1_555

#END
