# generated using pymatgen
data_BH201Pt2C232N17(O32F)2
_symmetry_space_group_name_H-M   'P 1'
_cell_length_a   21.58060000
_cell_length_b   21.76960000
_cell_length_c   25.82340000
_cell_angle_alpha   74.69800000
_cell_angle_beta   72.14500000
_cell_angle_gamma   77.76800000
_symmetry_Int_Tables_number   1
_chemical_formula_structural   BH201Pt2C232N17(O32F)2
_chemical_formula_sum   'B2 H402 Pt4 C464 N34 O128 F4'
_cell_volume   11024.26619225
_cell_formula_units_Z   2
loop_
 _symmetry_equiv_pos_site_id
 _symmetry_equiv_pos_as_xyz
  1  'x, y, z'
loop_
 _atom_site_type_symbol
 _atom_site_label
 _atom_site_symmetry_multiplicity
 _atom_site_fract_x
 _atom_site_fract_y
 _atom_site_fract_z
 _atom_site_occupancy
  B  B1  1  0.196500  0.192700  0.294800  1
  B  B2  1  0.803500  0.807300  0.705200  1
  H  H3  1  0.196300  0.643000  0.296800  1
  H  H4  1  0.803700  0.357000  0.703200  1
  H  H5  1  0.103400  0.655300  0.370600  1
  H  H6  1  0.896600  0.344700  0.629400  1
  H  H7  1  0.014900  0.600800  0.384000  1
  H  H8  1  0.985100  0.399200  0.616000  1
  H  H9  1  0.122300  0.514600  0.258600  1
  H  H10  1  0.877700  0.485400  0.741400  1
  H  H11  1  0.021500  0.594000  0.233000  1
  H  H12  1  0.978500  0.406000  0.767000  1
  H  H13  1  0.979800  0.596400  0.160700  1
  H  H14  1  0.020200  0.403600  0.839300  1
  H  H15  1  0.908600  0.524100  0.169400  1
  H  H16  1  0.091400  0.475900  0.830600  1
  H  H17  1  0.882000  0.447300  0.250100  1
  H  H18  1  0.118000  0.552700  0.749900  1
  H  H19  1  0.896200  0.349500  0.443300  1
  H  H20  1  0.103800  0.650500  0.556700  1
  H  H21  1  0.942600  0.340600  0.516600  1
  H  H22  1  0.057400  0.659400  0.483400  1
  H  H23  1  0.021600  0.407800  0.503900  1
  H  H24  1  0.978400  0.592200  0.496100  1
  H  H25  1  0.050000  0.482700  0.424600  1
  H  H26  1  0.950000  0.517300  0.575400  1
  H  H27  1  0.149000  0.924200  0.184400  1
  H  H28  1  0.851000  0.075800  0.815600  1
  H  H29  1  0.056200  0.960600  0.156000  1
  H  H30  1  0.943800  0.039400  0.844000  1
  H  H31  1  0.984600  0.048000  0.185800  1
  H  H32  1  0.015400  0.952000  0.814200  1
  H  H33  1  0.110000  0.060200  0.269600  1
  H  H34  1  0.890000  0.939800  0.730400  1
  H  H35  1  0.988000  0.011900  0.333800  1
  H  H36  1  0.012000  0.988100  0.666200  1
  H  H37  1  0.932500  0.001700  0.426200  1
  H  H38  1  0.067500  0.998300  0.573800  1
  H  H39  1  0.865600  0.088600  0.461100  1
  H  H40  1  0.134400  0.911400  0.538900  1
  H  H41  1  0.860200  0.188700  0.405000  1
  H  H42  1  0.139800  0.811300  0.595000  1
  H  H43  1  0.911400  0.329600  0.215800  1
  H  H44  1  0.088600  0.670400  0.784200  1
  H  H45  1  0.968500  0.343800  0.123300  1
  H  H46  1  0.031500  0.656200  0.876700  1
  H  H47  1  0.042800  0.256300  0.088600  1
  H  H48  1  0.957200  0.743700  0.911400  1
  H  H49  1  0.055200  0.157200  0.146500  1
  H  H50  1  0.944800  0.842800  0.853500  1
  H  H51  1  0.953400  0.324200  0.304200  1
  H  H52  1  0.046600  0.675800  0.695800  1
  H  H53  1  0.361600  0.612000  0.228200  1
  H  H54  1  0.638400  0.388000  0.771800  1
  H  H55  1  0.427300  0.581400  0.289700  1
  H  H56  1  0.572700  0.418600  0.710300  1
  H  H57  1  0.407200  0.491900  0.364800  1
  H  H58  1  0.592800  0.508100  0.635200  1
  H  H59  1  0.257600  0.470400  0.310900  1
  H  H60  1  0.742400  0.529600  0.689100  1
  H  H61  1  0.224100  0.518200  0.409600  1
  H  H62  1  0.775900  0.481800  0.590400  1
  H  H63  1  0.129700  0.525200  0.479400  1
  H  H64  1  0.870300  0.474800  0.520600  1
  H  H65  1  0.101200  0.436600  0.551200  1
  H  H66  1  0.898800  0.563400  0.448800  1
  H  H67  1  0.164100  0.337600  0.548900  1
  H  H68  1  0.835900  0.662400  0.451100  1
  H  H69  1  0.370200  0.205400  0.463700  1
  H  H70  1  0.629800  0.794600  0.536300  1
  H  H71  1  0.459300  0.193700  0.391100  1
  H  H72  1  0.540700  0.806300  0.608900  1
  H  H73  1  0.484000  0.281500  0.314400  1
  H  H74  1  0.516000  0.718500  0.685600  1
  H  H75  1  0.423000  0.381000  0.316500  1
  H  H76  1  0.577000  0.619000  0.683500  1
  H  H77  1  0.102400  0.889400  0.337400  1
  H  H78  1  0.897600  0.110600  0.662600  1
  H  H79  1  0.033700  0.891100  0.425200  1
  H  H80  1  0.966300  0.108900  0.574800  1
  H  H81  1  0.051400  0.954400  0.478700  1
  H  H82  1  0.948600  0.045600  0.521300  1
  H  H83  1  0.206800  0.010600  0.351700  1
  H  H84  1  0.793200  0.989400  0.648300  1
  H  H85  1  0.236200  0.921300  0.444100  1
  H  H86  1  0.763800  0.078700  0.555900  1
  H  H87  1  0.329600  0.891100  0.472800  1
  H  H88  1  0.670400  0.108900  0.527200  1
  H  H89  1  0.362900  0.961900  0.513700  1
  H  H90  1  0.637100  0.038100  0.486300  1
  H  H91  1  0.297000  0.057300  0.528600  1
  H  H92  1  0.703000  0.942700  0.471400  1
  H  H93  1  0.090800  0.208200  0.520100  1
  H  H94  1  0.909200  0.791800  0.479900  1
  H  H95  1  0.001600  0.243300  0.486000  1
  H  H96  1  0.998400  0.756700  0.514000  1
  H  H97  1  0.972600  0.179900  0.437900  1
  H  H98  1  0.027400  0.820100  0.562100  1
  H  H99  1  0.040700  0.086800  0.419000  1
  H  H100  1  0.959300  0.913200  0.581000  1
  H  H101  1  0.229500  0.215800  0.460100  1
  H  H102  1  0.770500  0.784200  0.539900  1
  H  H103  1  0.323300  0.643400  0.101300  1
  H  H104  1  0.676700  0.356600  0.898700  1
  H  H105  1  0.421400  0.628900  0.032800  1
  H  H106  1  0.578600  0.371100  0.967200  1
  H  H107  1  0.489000  0.529600  0.040400  1
  H  H108  1  0.511000  0.470400  0.959600  1
  H  H109  1  0.357600  0.464000  0.182600  1
  H  H110  1  0.642400  0.536000  0.817400  1
  H  H111  1  0.480400  0.495700  0.187900  1
  H  H112  1  0.519600  0.504300  0.812100  1
  H  H113  1  0.535500  0.470800  0.255600  1
  H  H114  1  0.464500  0.529200  0.744400  1
  H  H115  1  0.596600  0.367100  0.275000  1
  H  H116  1  0.403400  0.632900  0.725000  1
  H  H117  1  0.603100  0.291500  0.225600  1
  H  H118  1  0.396900  0.708500  0.774400  1
  H  H119  1  0.546300  0.230400  0.073900  1
  H  H120  1  0.453700  0.769600  0.926100  1
  H  H121  1  0.485600  0.253000  0.010700  1
  H  H122  1  0.514400  0.747000  0.989300  1
  H  H123  1  0.414000  0.351600  0.999300  1
  H  H124  1  0.586000  0.648400  0.000700  1
  H  H125  1  0.407900  0.427400  0.048100  1
  H  H126  1  0.592100  0.572600  0.951900  1
  H  H127  1  0.265100  0.837500  0.340800  1
  H  H128  1  0.734900  0.162500  0.659200  1
  H  H129  1  0.353500  0.801300  0.377700  1
  H  H130  1  0.646500  0.198700  0.622300  1
  H  H131  1  0.442900  0.859900  0.347300  1
  H  H132  1  0.557100  0.140100  0.652700  1
  H  H133  1  0.345800  0.990900  0.246600  1
  H  H134  1  0.654200  0.009100  0.753400  1
  H  H135  1  0.450000  0.915700  0.192300  1
  H  H136  1  0.550000  0.084300  0.807700  1
  H  H137  1  0.502200  0.935000  0.099600  1
  H  H138  1  0.497800  0.065000  0.900400  1
  H  H139  1  0.571500  0.014300  0.059700  1
  H  H140  1  0.428500  0.985700  0.940300  1
  H  H141  1  0.591900  0.071900  0.111600  1
  H  H142  1  0.408100  0.928100  0.888400  1
  H  H143  1  0.565400  0.110100  0.302100  1
  H  H144  1  0.434600  0.889900  0.697900  1
  H  H145  1  0.524400  0.080100  0.396800  1
  H  H146  1  0.475600  0.919900  0.603200  1
  H  H147  1  0.448500  0.008700  0.436300  1
  H  H148  1  0.551500  0.991300  0.563700  1
  H  H149  1  0.418400  0.959800  0.381900  1
  H  H150  1  0.581600  0.040200  0.618100  1
  H  H151  1  0.505300  0.187400  0.192100  1
  H  H152  1  0.494700  0.812600  0.807900  1
  H  H153  1  0.146800  0.669800  0.173000  1
  H  H154  1  0.853200  0.330200  0.827000  1
  H  H155  1  0.090200  0.698000  0.104400  1
  H  H156  1  0.909800  0.302000  0.895600  1
  H  H157  1  0.105000  0.628100  0.045700  1
  H  H158  1  0.895000  0.371900  0.954300  1
  H  H159  1  0.232300  0.507500  0.124400  1
  H  H160  1  0.767700  0.492500  0.875600  1
  H  H161  1  0.293300  0.572300  0.022100  1
  H  H162  1  0.706700  0.427700  0.977900  1
  H  H163  1  0.394600  0.557700  0.961400  1
  H  H164  1  0.605400  0.442300  0.038600  1
  H  H165  1  0.421100  0.480800  0.906800  1
  H  H166  1  0.578900  0.519200  0.093200  1
  H  H167  1  0.344200  0.418900  0.912600  1
  H  H168  1  0.655800  0.581100  0.087400  1
  H  H169  1  0.113000  0.379000  0.976200  1
  H  H170  1  0.887000  0.621000  0.023800  1
  H  H171  1  0.004200  0.403500  0.026200  1
  H  H172  1  0.995800  0.596500  0.973800  1
  H  H173  1  0.978700  0.472300  0.089100  1
  H  H174  1  0.021300  0.527700  0.910900  1
  H  H175  1  0.061000  0.522400  0.096300  1
  H  H176  1  0.939000  0.477600  0.903700  1
  H  H177  1  0.313300  0.862200  0.195300  1
  H  H178  1  0.686700  0.137800  0.804700  1
  H  H179  1  0.375000  0.860700  0.102100  1
  H  H180  1  0.625000  0.139300  0.897900  1
  H  H181  1  0.365100  0.954100  0.033700  1
  H  H182  1  0.634900  0.045900  0.966300  1
  H  H183  1  0.246400  0.045300  0.151600  1
  H  H184  1  0.753600  0.954700  0.848400  1
  H  H185  1  0.185900  0.023700  0.082200  1
  H  H186  1  0.814100  0.976300  0.917800  1
  H  H187  1  0.085100  0.069100  0.067600  1
  H  H188  1  0.914900  0.930900  0.932400  1
  H  H189  1  0.071000  0.173200  0.010200  1
  H  H190  1  0.929000  0.826800  0.989800  1
  H  H191  1  0.157800  0.228600  0.969800  1
  H  H192  1  0.842200  0.771400  0.030200  1
  H  H193  1  0.395600  0.239700  0.926000  1
  H  H194  1  0.604400  0.760300  0.074000  1
  H  H195  1  0.497000  0.194400  0.936900  1
  H  H196  1  0.503000  0.805600  0.063100  1
  H  H197  1  0.510800  0.095900  0.003200  1
  H  H198  1  0.489200  0.904100  0.996800  1
  H  H199  1  0.424500  0.040900  0.049300  1
  H  H200  1  0.575500  0.959100  0.950700  1
  H  H201  1  0.244600  0.303700  0.004600  1
  H  H202  1  0.755400  0.696300  0.995400  1
  H  H203  1  0.779200  0.393300  0.476000  1
  H  H204  1  0.220800  0.606700  0.524000  1
  H  H205  1  0.711600  0.392000  0.462900  1
  H  H206  1  0.288400  0.608000  0.537100  1
  H  H207  1  0.702200  0.469400  0.516200  1
  H  H208  1  0.297800  0.530600  0.483800  1
  H  H209  1  0.752300  0.507300  0.463700  1
  H  H210  1  0.247700  0.492700  0.536300  1
  H  H211  1  0.612000  0.551300  0.513500  1
  H  H212  1  0.388000  0.448700  0.486500  1
  H  H213  1  0.597100  0.586400  0.454900  1
  H  H214  1  0.402900  0.413600  0.545100  1
  H  H215  1  0.663100  0.594200  0.467100  1
  H  H216  1  0.336900  0.405800  0.532900  1
  H  H217  1  0.673400  0.362800  0.325800  1
  H  H218  1  0.326600  0.637200  0.674200  1
  H  H219  1  0.686200  0.425900  0.339900  1
  H  H220  1  0.313800  0.574100  0.660100  1
  H  H221  1  0.595800  0.418500  0.417700  1
  H  H222  1  0.404200  0.581500  0.582300  1
  H  H223  1  0.572200  0.419200  0.364500  1
  H  H224  1  0.427800  0.580800  0.635500  1
  H  H225  1  0.504400  0.377100  0.469600  1
  H  H226  1  0.495600  0.622900  0.530400  1
  H  H227  1  0.506400  0.301000  0.480000  1
  H  H228  1  0.493600  0.699000  0.520000  1
  H  H229  1  0.480000  0.348000  0.429700  1
  H  H230  1  0.520000  0.652000  0.570300  1
  H  H231  1  0.683900  0.242300  0.394500  1
  H  H232  1  0.316100  0.757700  0.605500  1
  H  H233  1  0.743500  0.199600  0.418400  1
  H  H234  1  0.256500  0.800400  0.581600  1
  H  H235  1  0.753300  0.125100  0.365200  1
  H  H236  1  0.246700  0.874900  0.634800  1
  H  H237  1  0.681600  0.132100  0.407100  1
  H  H238  1  0.318400  0.867900  0.592900  1
  H  H239  1  0.594100  0.178300  0.375900  1
  H  H240  1  0.405900  0.821700  0.624100  1
  H  H241  1  0.600500  0.199000  0.310500  1
  H  H242  1  0.399500  0.801000  0.689500  1
  H  H243  1  0.621000  0.244100  0.340500  1
  H  H244  1  0.379000  0.755900  0.659500  1
  H  H245  1  0.376400  0.267100  0.546700  1
  H  H246  1  0.623600  0.732900  0.453300  1
  H  H247  1  0.361400  0.203100  0.594000  1
  H  H248  1  0.638600  0.796900  0.406000  1
  H  H249  1  0.351900  0.253800  0.662400  1
  H  H250  1  0.648100  0.746200  0.337600  1
  H  H251  1  0.350500  0.323200  0.620500  1
  H  H252  1  0.649500  0.676800  0.379500  1
  H  H253  1  0.436000  0.284100  0.680900  1
  H  H254  1  0.564000  0.715900  0.319100  1
  H  H255  1  0.464600  0.339200  0.629200  1
  H  H256  1  0.535400  0.660800  0.370800  1
  H  H257  1  0.509300  0.271300  0.642400  1
  H  H258  1  0.490700  0.728700  0.357600  1
  H  H259  1  0.150100  0.210500  0.692700  1
  H  H260  1  0.849900  0.789500  0.307300  1
  H  H261  1  0.213600  0.238800  0.691600  1
  H  H262  1  0.786400  0.761200  0.308400  1
  H  H263  1  0.170400  0.122700  0.762600  1
  H  H264  1  0.829600  0.877300  0.237400  1
  H  H265  1  0.237700  0.144800  0.759100  1
  H  H266  1  0.762300  0.855200  0.240900  1
  H  H267  1  0.162500  0.112300  0.860700  1
  H  H268  1  0.837500  0.887700  0.139300  1
  H  H269  1  0.143200  0.177800  0.882700  1
  H  H270  1  0.856800  0.822200  0.117300  1
  H  H271  1  0.218000  0.155500  0.851800  1
  H  H272  1  0.782000  0.844500  0.148200  1
  H  H273  1  0.094300  0.092400  0.608900  1
  H  H274  1  0.905700  0.907600  0.391100  1
  H  H275  1  0.104400  0.033700  0.658800  1
  H  H276  1  0.895600  0.966300  0.341200  1
  H  H277  1  0.021300  0.118000  0.684700  1
  H  H278  1  0.978700  0.882000  0.315300  1
  H  H279  1  0.078100  0.161700  0.671600  1
  H  H280  1  0.921900  0.838300  0.328400  1
  H  H281  1  0.040500  0.162100  0.765900  1
  H  H282  1  0.959500  0.837900  0.234100  1
  H  H283  1  0.076000  0.106800  0.806300  1
  H  H284  1  0.924000  0.893200  0.193700  1
  H  H285  1  0.006800  0.099300  0.799700  1
  H  H286  1  0.993200  0.900700  0.200300  1
  H  H287  1  0.727300  0.332500  0.055300  1
  H  H288  1  0.272700  0.667500  0.944700  1
  H  H289  1  0.664400  0.306400  0.054500  1
  H  H290  1  0.335600  0.693600  0.945500  1
  H  H291  1  0.745200  0.268900  0.992700  1
  H  H292  1  0.254800  0.731100  0.007300  1
  H  H293  1  0.732300  0.208700  0.044600  1
  H  H294  1  0.267700  0.791300  0.955400  1
  H  H295  1  0.829400  0.160700  0.020500  1
  H  H296  1  0.170600  0.839300  0.979500  1
  H  H297  1  0.892100  0.180400  0.029500  1
  H  H298  1  0.107900  0.819600  0.970500  1
  H  H299  1  0.871000  0.211300  0.972900  1
  H  H300  1  0.129000  0.788700  0.027100  1
  H  H301  1  0.749300  0.164800  0.232700  1
  H  H302  1  0.250700  0.835200  0.767300  1
  H  H303  1  0.760200  0.229600  0.185900  1
  H  H304  1  0.239800  0.770400  0.814100  1
  H  H305  1  0.866100  0.186200  0.147100  1
  H  H306  1  0.133900  0.813800  0.852900  1
  H  H307  1  0.856700  0.184100  0.211300  1
  H  H308  1  0.143300  0.815900  0.788700  1
  H  H309  1  0.848200  0.095500  0.276400  1
  H  H310  1  0.151800  0.904500  0.723600  1
  H  H311  1  0.862600  0.026600  0.260800  1
  H  H312  1  0.137400  0.973400  0.739200  1
  H  H313  1  0.793100  0.070700  0.260600  1
  H  H314  1  0.206900  0.929300  0.739400  1
  H  H315  1  0.749100  0.977100  0.202200  1
  H  H316  1  0.250900  0.022900  0.797800  1
  H  H317  1  0.774700  0.045400  0.182200  1
  H  H318  1  0.225300  0.954600  0.817800  1
  H  H319  1  0.726100  0.063100  0.106000  1
  H  H320  1  0.273900  0.936900  0.894000  1
  H  H321  1  0.792600  0.012600  0.104200  1
  H  H322  1  0.207400  0.987400  0.895800  1
  H  H323  1  0.714100  0.003500  0.049000  1
  H  H324  1  0.285900  0.996500  0.951000  1
  H  H325  1  0.681300  0.939300  0.078100  1
  H  H326  1  0.318700  0.060700  0.921900  1
  H  H327  1  0.759400  0.936100  0.062300  1
  H  H328  1  0.240600  0.063900  0.937700  1
  H  H329  1  0.244200  0.478500  0.771400  1
  H  H330  1  0.755800  0.521500  0.228600  1
  H  H331  1  0.306800  0.443300  0.794400  1
  H  H332  1  0.693200  0.556700  0.205600  1
  H  H333  1  0.295500  0.533900  0.834900  1
  H  H334  1  0.704500  0.466100  0.165100  1
  H  H335  1  0.316500  0.550400  0.768100  1
  H  H336  1  0.683500  0.449600  0.231900  1
  H  H337  1  0.260500  0.642700  0.827100  1
  H  H338  1  0.739500  0.357300  0.172900  1
  H  H339  1  0.195500  0.675600  0.807400  1
  H  H340  1  0.804500  0.324400  0.192600  1
  H  H341  1  0.263900  0.663000  0.762100  1
  H  H342  1  0.736100  0.337000  0.237900  1
  H  H343  1  0.175800  0.308900  0.823400  1
  H  H344  1  0.824200  0.691100  0.176600  1
  H  H345  1  0.235600  0.272000  0.783400  1
  H  H346  1  0.764400  0.728000  0.216600  1
  H  H347  1  0.155800  0.322100  0.740600  1
  H  H348  1  0.844200  0.677900  0.259400  1
  H  H349  1  0.161200  0.389300  0.751200  1
  H  H350  1  0.838800  0.610700  0.248800  1
  H  H351  1  0.156500  0.372100  0.656000  1
  H  H352  1  0.843500  0.627900  0.344000  1
  H  H353  1  0.223500  0.393500  0.613200  1
  H  H354  1  0.776500  0.606500  0.386800  1
  H  H355  1  0.178100  0.438700  0.654400  1
  H  H356  1  0.821900  0.561300  0.345600  1
  H  H357  1  0.357600  0.266900  0.782000  1
  H  H358  1  0.642400  0.733100  0.218000  1
  H  H359  1  0.395000  0.235500  0.829700  1
  H  H360  1  0.605000  0.764500  0.170300  1
  H  H361  1  0.432200  0.169600  0.769000  1
  H  H362  1  0.567800  0.830400  0.231000  1
  H  H363  1  0.381300  0.132200  0.821000  1
  H  H364  1  0.618700  0.867800  0.179000  1
  H  H365  1  0.418200  0.116300  0.708600  1
  H  H366  1  0.581800  0.883700  0.291400  1
  H  H367  1  0.346500  0.118100  0.701900  1
  H  H368  1  0.653500  0.881900  0.298100  1
  H  H369  1  0.366700  0.075500  0.756700  1
  H  H370  1  0.633300  0.924500  0.243300  1
  H  H371  1  0.340400  0.138600  0.354700  1
  H  H372  1  0.659600  0.861400  0.645300  1
  H  H373  1  0.328700  0.066900  0.359500  1
  H  H374  1  0.671300  0.933100  0.640500  1
  H  H375  1  0.267200  0.121400  0.373200  1
  H  H376  1  0.732800  0.878600  0.626800  1
  H  H377  1  0.408000  0.096300  0.249600  1
  H  H378  1  0.592000  0.903700  0.750400  1
  H  H379  1  0.118400  0.365900  0.113500  1
  H  H380  1  0.881600  0.634100  0.886500  1
  H  H381  1  0.144600  0.294600  0.102900  1
  H  H382  1  0.855400  0.705400  0.897100  1
  H  H383  1  0.195300  0.339200  0.102000  1
  H  H384  1  0.804700  0.660800  0.898000  1
  H  H385  1  0.367800  0.138200  0.117300  1
  H  H386  1  0.632200  0.861800  0.882700  1
  H  H387  1  0.430200  0.114200  0.142300  1
  H  H388  1  0.569800  0.885800  0.857700  1
  H  H389  1  0.407100  0.189600  0.123100  1
  H  H390  1  0.592900  0.810400  0.876900  1
  H  H391  1  0.244700  0.212100  0.103500  1
  H  H392  1  0.755300  0.787900  0.896500  1
  H  H393  1  0.316700  0.215600  0.106900  1
  H  H394  1  0.683300  0.784400  0.893100  1
  H  H395  1  0.264200  0.279600  0.102100  1
  H  H396  1  0.735800  0.720400  0.897900  1
  H  H397  1  0.068100  0.372000  0.218700  1
  H  H398  1  0.931900  0.628000  0.781300  1
  H  H399  1  0.127800  0.369300  0.285000  1
  H  H400  1  0.872200  0.630700  0.715000  1
  H  H401  1  0.097900  0.321100  0.341800  1
  H  H402  1  0.902100  0.678900  0.658200  1
  H  H403  1  0.050600  0.365100  0.305000  1
  H  H404  1  0.949400  0.634900  0.695000  1
  Pt  Pt405  1  0.249360  0.566450  0.209450  1
  Pt  Pt406  1  0.750640  0.433550  0.790550  1
  Pt  Pt407  1  0.218290  0.951540  0.259050  1
  Pt  Pt408  1  0.781710  0.048460  0.740950  1
  C  C409  1  0.161500  0.618900  0.304000  1
  C  C410  1  0.838500  0.381100  0.696000  1
  C  C411  1  0.106100  0.627200  0.347100  1
  C  C412  1  0.893900  0.372800  0.652900  1
  C  C413  1  0.054200  0.593800  0.355700  1
  C  C414  1  0.945800  0.406200  0.644300  1
  C  C415  1  0.059600  0.551000  0.323500  1
  C  C416  1  0.940400  0.449000  0.676500  1
  C  C417  1  0.117600  0.544000  0.281400  1
  C  C418  1  0.882400  0.456000  0.718600  1
  C  C419  1  0.994100  0.563300  0.236900  1
  C  C420  1  0.005900  0.436700  0.763100  1
  C  C421  1  0.968700  0.565300  0.194400  1
  C  C422  1  0.031300  0.434700  0.805600  1
  C  C423  1  0.926200  0.521900  0.199500  1
  C  C424  1  0.073800  0.478100  0.800500  1
  C  C425  1  0.910200  0.476700  0.247400  1
  C  C426  1  0.089800  0.523300  0.752600  1
  C  C427  1  0.935000  0.472900  0.293500  1
  C  C428  1  0.065000  0.527100  0.706500  1
  C  C429  1  0.917300  0.426800  0.344200  1
  C  C430  1  0.082700  0.573200  0.655800  1
  C  C431  1  0.943500  0.423900  0.388400  1
  C  C432  1  0.056500  0.576100  0.611600  1
  C  C433  1  0.926800  0.377100  0.439200  1
  C  C434  1  0.073200  0.622900  0.560800  1
  C  C435  1  0.954600  0.371100  0.482700  1
  C  C436  1  0.045400  0.628900  0.517300  1
  C  C437  1  0.001600  0.412000  0.474900  1
  C  C438  1  0.998400  0.588000  0.525100  1
  C  C439  1  0.018400  0.456400  0.427800  1
  C  C440  1  0.981600  0.543600  0.572200  1
  C  C441  1  0.990300  0.465300  0.382300  1
  C  C442  1  0.009700  0.534700  0.617700  1
  C  C443  1  0.008300  0.510600  0.331900  1
  C  C444  1  0.991700  0.489400  0.668100  1
  C  C445  1  0.980200  0.516000  0.287200  1
  C  C446  1  0.019800  0.484000  0.712800  1
  C  C447  1  0.120700  0.960200  0.196900  1
  C  C448  1  0.879300  0.039800  0.803100  1
  C  C449  1  0.066000  0.981400  0.180000  1
  C  C450  1  0.934000  0.018600  0.820000  1
  C  C451  1  0.024000  0.033000  0.197300  1
  C  C452  1  0.976000  0.967000  0.802700  1
  C  C453  1  0.039500  0.063400  0.231700  1
  C  C454  1  0.960500  0.936600  0.768300  1
  C  C455  1  0.097600  0.039400  0.246900  1
  C  C456  1  0.902400  0.960600  0.753100  1
  C  C457  1  0.962800  0.048700  0.347100  1
  C  C458  1  0.037200  0.951300  0.652900  1
  C  C459  1  0.929100  0.042600  0.401800  1
  C  C460  1  0.070900  0.957400  0.598200  1
  C  C461  1  0.889600  0.094700  0.423000  1
  C  C462  1  0.110400  0.905300  0.577000  1
  C  C463  1  0.885600  0.153300  0.389700  1
  C  C464  1  0.114400  0.846700  0.610300  1
  C  C465  1  0.918500  0.163900  0.331700  1
  C  C466  1  0.081500  0.836100  0.668300  1
  C  C467  1  0.912800  0.224300  0.295800  1
  C  C468  1  0.087200  0.775700  0.704200  1
  C  C469  1  0.947300  0.232700  0.240000  1
  C  C470  1  0.052700  0.767300  0.760000  1
  C  C471  1  0.940300  0.294400  0.202200  1
  C  C472  1  0.059700  0.705600  0.797800  1
  C  C473  1  0.974000  0.303000  0.147600  1
  C  C474  1  0.026000  0.697000  0.852400  1
  C  C475  1  0.018500  0.250100  0.126600  1
  C  C476  1  0.981500  0.749900  0.873400  1
  C  C477  1  0.025700  0.191500  0.161000  1
  C  C478  1  0.974300  0.808500  0.839000  1
  C  C479  1  0.990000  0.180300  0.218300  1
  C  C480  1  0.010000  0.819700  0.781700  1
  C  C481  1  0.996200  0.118800  0.254200  1
  C  C482  1  0.003800  0.881200  0.745800  1
  C  C483  1  0.960700  0.111000  0.309100  1
  C  C484  1  0.039300  0.889000  0.690900  1
  C  C485  1  0.876900  0.378300  0.347000  1
  C  C486  1  0.123100  0.621700  0.653000  1
  C  C487  1  0.809700  0.382400  0.372400  1
  C  C488  1  0.190300  0.617600  0.627600  1
  C  C489  1  0.774000  0.338300  0.369100  1
  C  C490  1  0.226000  0.661700  0.630900  1
  C  C491  1  0.805700  0.286800  0.343500  1
  C  C492  1  0.194300  0.713200  0.656500  1
  C  C493  1  0.873700  0.280800  0.320600  1
  C  C494  1  0.126300  0.719200  0.679400  1
  C  C495  1  0.907400  0.327300  0.321600  1
  C  C496  1  0.092600  0.672700  0.678400  1
  C  C497  1  0.354000  0.575800  0.258300  1
  C  C498  1  0.646000  0.424200  0.741700  1
  C  C499  1  0.392700  0.558000  0.294600  1
  C  C500  1  0.607300  0.442000  0.705400  1
  C  C501  1  0.380900  0.504700  0.339100  1
  C  C502  1  0.619100  0.495300  0.660900  1
  C  C503  1  0.329600  0.470700  0.345200  1
  C  C504  1  0.670400  0.529300  0.654800  1
  C  C505  1  0.293000  0.492200  0.307000  1
  C  C506  1  0.707000  0.507800  0.693000  1
  C  C507  1  0.212900  0.480800  0.437400  1
  C  C508  1  0.787100  0.519200  0.562600  1
  C  C509  1  0.157500  0.485100  0.479000  1
  C  C510  1  0.842500  0.514900  0.521000  1
  C  C511  1  0.139800  0.431900  0.521500  1
  C  C512  1  0.860200  0.568100  0.478500  1
  C  C513  1  0.177600  0.373800  0.520600  1
  C  C514  1  0.822400  0.626200  0.479400  1
  C  C515  1  0.237000  0.365600  0.478100  1
  C  C516  1  0.763000  0.634400  0.521900  1
  C  C517  1  0.277300  0.305500  0.476300  1
  C  C518  1  0.722700  0.694500  0.523700  1
  C  C519  1  0.335100  0.299800  0.435000  1
  C  C520  1  0.664900  0.700200  0.565000  1
  C  C521  1  0.379000  0.241100  0.433300  1
  C  C522  1  0.621000  0.758900  0.566700  1
  C  C523  1  0.431800  0.234000  0.391000  1
  C  C524  1  0.568200  0.766000  0.609000  1
  C  C525  1  0.447400  0.287300  0.345400  1
  C  C526  1  0.552600  0.712700  0.654600  1
  C  C527  1  0.410600  0.345400  0.346000  1
  C  C528  1  0.589400  0.654600  0.654000  1
  C  C529  1  0.352900  0.354200  0.390700  1
  C  C530  1  0.647100  0.645800  0.609300  1
  C  C531  1  0.313100  0.414700  0.391300  1
  C  C532  1  0.686900  0.585300  0.608700  1
  C  C533  1  0.255800  0.420200  0.434500  1
  C  C534  1  0.744200  0.579800  0.565500  1
  C  C535  1  0.109700  0.915000  0.359000  1
  C  C536  1  0.890300  0.085000  0.641000  1
  C  C537  1  0.069100  0.915800  0.410900  1
  C  C538  1  0.930900  0.084200  0.589100  1
  C  C539  1  0.079600  0.953100  0.442600  1
  C  C540  1  0.920400  0.046900  0.557400  1
  C  C541  1  0.132200  0.988500  0.421000  1
  C  C542  1  0.867800  0.011500  0.579000  1
  C  C543  1  0.171400  0.986000  0.367400  1
  C  C544  1  0.828600  0.014000  0.632600  1
  C  C545  1  0.248100  0.948900  0.461400  1
  C  C546  1  0.751900  0.051100  0.538600  1
  C  C547  1  0.303200  0.931100  0.477700  1
  C  C548  1  0.696800  0.068900  0.522300  1
  C  C549  1  0.322800  0.973500  0.503100  1
  C  C550  1  0.677200  0.026500  0.496900  1
  C  C551  1  0.283500  0.030100  0.511900  1
  C  C552  1  0.716500  0.969900  0.488100  1
  C  C553  1  0.223900  0.049100  0.496900  1
  C  C554  1  0.776100  0.950900  0.503100  1
  C  C555  1  0.182600  0.106500  0.506200  1
  C  C556  1  0.817400  0.893500  0.493800  1
  C  C557  1  0.124200  0.127000  0.489000  1
  C  C558  1  0.875800  0.873000  0.511000  1
  C  C559  1  0.081400  0.183400  0.498900  1
  C  C560  1  0.918600  0.816600  0.501100  1
  C  C561  1  0.028100  0.203800  0.479800  1
  C  C562  1  0.971900  0.796200  0.520200  1
  C  C563  1  0.011300  0.166500  0.450600  1
  C  C564  1  0.988700  0.833500  0.549400  1
  C  C565  1  0.051200  0.110500  0.440500  1
  C  C566  1  0.948800  0.889500  0.559500  1
  C  C567  1  0.106800  0.087000  0.460600  1
  C  C568  1  0.893200  0.913000  0.539400  1
  C  C569  1  0.147900  0.029400  0.450800  1
  C  C570  1  0.852100  0.970600  0.549200  1
  C  C571  1  0.205400  0.009100  0.469000  1
  C  C572  1  0.794600  0.990900  0.531000  1
  C  C573  1  0.253400  0.246500  0.516800  1
  C  C574  1  0.746600  0.753500  0.483200  1
  C  C575  1  0.256200  0.230000  0.571800  1
  C  C576  1  0.743800  0.770000  0.428200  1
  C  C577  1  0.230900  0.176500  0.608100  1
  C  C578  1  0.769100  0.823500  0.391900  1
  C  C579  1  0.204700  0.136700  0.587900  1
  C  C580  1  0.795300  0.863300  0.412100  1
  C  C581  1  0.204600  0.149700  0.532800  1
  C  C582  1  0.795400  0.850300  0.467200  1
  C  C583  1  0.229500  0.205800  0.498200  1
  C  C584  1  0.770500  0.794200  0.501800  1
  C  C585  1  0.350700  0.603000  0.104300  1
  C  C586  1  0.649300  0.397000  0.895700  1
  C  C587  1  0.409000  0.594600  0.063600  1
  C  C588  1  0.591000  0.405400  0.936400  1
  C  C589  1  0.449100  0.535900  0.068300  1
  C  C590  1  0.550900  0.464100  0.931700  1
  C  C591  1  0.431200  0.486100  0.113600  1
  C  C592  1  0.568800  0.513900  0.886400  1
  C  C593  1  0.371500  0.497900  0.151900  1
  C  C594  1  0.628500  0.502100  0.848100  1
  C  C595  1  0.504900  0.454200  0.195200  1
  C  C596  1  0.495100  0.545800  0.804800  1
  C  C597  1  0.537300  0.439700  0.235200  1
  C  C598  1  0.462700  0.560300  0.764800  1
  C  C599  1  0.574300  0.377400  0.246600  1
  C  C600  1  0.425700  0.622600  0.753400  1
  C  C601  1  0.578000  0.332600  0.217300  1
  C  C602  1  0.422000  0.667400  0.782700  1
  C  C603  1  0.545400  0.345700  0.174700  1
  C  C604  1  0.454600  0.654300  0.825300  1
  C  C605  1  0.548400  0.300100  0.144500  1
  C  C606  1  0.451600  0.699900  0.855500  1
  C  C607  1  0.513500  0.314600  0.103200  1
  C  C608  1  0.486500  0.685400  0.896800  1
  C  C609  1  0.517800  0.270100  0.069700  1
  C  C610  1  0.482200  0.729900  0.930300  1
  C  C611  1  0.482400  0.283400  0.032200  1
  C  C612  1  0.517600  0.716600  0.967800  1
  C  C613  1  0.439900  0.343200  0.024900  1
  C  C614  1  0.560100  0.656800  0.975100  1
  C  C615  1  0.436100  0.387800  0.053900  1
  C  C616  1  0.563900  0.612200  0.946100  1
  C  C617  1  0.474000  0.376100  0.093400  1
  C  C618  1  0.526000  0.623900  0.906600  1
  C  C619  1  0.471800  0.422600  0.122800  1
  C  C620  1  0.528200  0.577400  0.877200  1
  C  C621  1  0.506700  0.408500  0.163800  1
  C  C622  1  0.493300  0.591500  0.836200  1
  C  C623  1  0.300600  0.861900  0.328700  1
  C  C624  1  0.699400  0.138100  0.671300  1
  C  C625  1  0.352800  0.840200  0.350300  1
  C  C626  1  0.647200  0.159800  0.649700  1
  C  C627  1  0.405900  0.875000  0.332400  1
  C  C628  1  0.594100  0.125000  0.667600  1
  C  C629  1  0.403700  0.931600  0.292800  1
  C  C630  1  0.596300  0.068400  0.707200  1
  C  C631  1  0.348200  0.951500  0.273200  1
  C  C632  1  0.651800  0.048500  0.726800  1
  C  C633  1  0.478200  0.947800  0.177100  1
  C  C634  1  0.521800  0.052200  0.822900  1
  C  C635  1  0.508900  0.959300  0.122500  1
  C  C636  1  0.491100  0.040700  0.877500  1
  C  C637  1  0.551100  0.006700  0.098600  1
  C  C638  1  0.448900  0.993300  0.901400  1
  C  C639  1  0.563000  0.040600  0.129000  1
  C  C640  1  0.437000  0.959400  0.871000  1
  C  C641  1  0.532500  0.031000  0.188700  1
  C  C642  1  0.467500  0.969000  0.811300  1
  C  C643  1  0.545100  0.064600  0.222500  1
  C  C644  1  0.454900  0.935400  0.777500  1
  C  C645  1  0.520300  0.048700  0.280100  1
  C  C646  1  0.479700  0.951300  0.719900  1
  C  C647  1  0.536600  0.078400  0.317100  1
  C  C648  1  0.463400  0.921600  0.682900  1
  C  C649  1  0.511100  0.061500  0.373300  1
  C  C650  1  0.488900  0.938500  0.626700  1
  C  C651  1  0.466600  0.018200  0.397000  1
  C  C652  1  0.533400  0.981800  0.603000  1
  C  C653  1  0.448900  0.989700  0.364800  1
  C  C654  1  0.551100  0.010300  0.635200  1
  C  C655  1  0.474200  0.002600  0.305600  1
  C  C656  1  0.525800  0.997400  0.694400  1
  C  C657  1  0.456700  0.973000  0.270000  1
  C  C658  1  0.543300  0.027000  0.730000  1
  C  C659  1  0.487800  0.984300  0.213100  1
  C  C660  1  0.512200  0.015700  0.786900  1
  C  C661  1  0.584700  0.235200  0.157400  1
  C  C662  1  0.415300  0.764800  0.842600  1
  C  C663  1  0.654000  0.224100  0.147000  1
  C  C664  1  0.346000  0.775900  0.853000  1
  C  C665  1  0.686500  0.163900  0.164500  1
  C  C666  1  0.313500  0.836100  0.835500  1
  C  C667  1  0.651000  0.110600  0.188900  1
  C  C668  1  0.349000  0.889400  0.811100  1
  C  C669  1  0.584700  0.119900  0.196800  1
  C  C670  1  0.415300  0.880100  0.803200  1
  C  C671  1  0.551900  0.181400  0.183400  1
  C  C672  1  0.448100  0.818600  0.816600  1
  C  C673  1  0.153600  0.641900  0.148400  1
  C  C674  1  0.846400  0.358100  0.851600  1
  C  C675  1  0.119500  0.658800  0.107900  1
  C  C676  1  0.880500  0.341200  0.892100  1
  C  C677  1  0.128800  0.617700  0.073000  1
  C  C678  1  0.871200  0.382300  0.927000  1
  C  C679  1  0.172600  0.561200  0.077400  1
  C  C680  1  0.827400  0.438800  0.922600  1
  C  C681  1  0.203900  0.547200  0.119500  1
  C  C682  1  0.796100  0.452800  0.880500  1
  C  C683  1  0.302100  0.541800  0.999500  1
  C  C684  1  0.697900  0.458200  0.000500  1
  C  C685  1  0.362300  0.532500  0.964000  1
  C  C686  1  0.637700  0.467500  0.036000  1
  C  C687  1  0.378300  0.486800  0.931100  1
  C  C688  1  0.621700  0.513200  0.068900  1
  C  C689  1  0.332300  0.451100  0.934000  1
  C  C690  1  0.667700  0.548900  0.066000  1
  C  C691  1  0.266700  0.460400  0.968200  1
  C  C692  1  0.733300  0.539600  0.031800  1
  C  C693  1  0.218600  0.427500  0.969100  1
  C  C694  1  0.781400  0.572500  0.030900  1
  C  C695  1  0.152900  0.440100  0.001000  1
  C  C696  1  0.847100  0.559900  0.999000  1
  C  C697  1  0.102500  0.409400  0.999100  1
  C  C698  1  0.897500  0.590600  0.000900  1
  C  C699  1  0.037800  0.422600  0.030000  1
  C  C700  1  0.962200  0.577400  0.970000  1
  C  C701  1  0.022400  0.464500  0.066800  1
  C  C702  1  0.977600  0.535500  0.933200  1
  C  C703  1  0.071700  0.494900  0.070700  1
  C  C704  1  0.928300  0.505100  0.929300  1
  C  C705  1  0.137900  0.485100  0.036900  1
  C  C706  1  0.862100  0.514900  0.963100  1
  C  C707  1  0.187800  0.516700  0.038300  1
  C  C708  1  0.812200  0.483300  0.961700  1
  C  C709  1  0.251900  0.507000  0.003600  1
  C  C710  1  0.748100  0.493000  0.996400  1
  C  C711  1  0.311500  0.900100  0.167000  1
  C  C712  1  0.688500  0.099900  0.833000  1
  C  C713  1  0.347700  0.898700  0.111600  1
  C  C714  1  0.652300  0.101300  0.888400  1
  C  C715  1  0.342400  0.954700  0.071400  1
  C  C716  1  0.657600  0.045300  0.928600  1
  C  C717  1  0.305600  0.010500  0.084200  1
  C  C718  1  0.694400  0.989500  0.915800  1
  C  C719  1  0.272100  0.007300  0.140800  1
  C  C720  1  0.727900  0.992700  0.859200  1
  C  C721  1  0.180800  0.065600  0.059500  1
  C  C722  1  0.819200  0.934400  0.940500  1
  C  C723  1  0.121500  0.092200  0.050600  1
  C  C724  1  0.878500  0.907800  0.949400  1
  C  C725  1  0.112900  0.154700  0.016100  1
  C  C726  1  0.887100  0.845300  0.983900  1
  C  C727  1  0.164000  0.186800  0.992400  1
  C  C728  1  0.836000  0.813200  0.007600  1
  C  C729  1  0.228300  0.160600  0.999800  1
  C  C730  1  0.771700  0.839400  0.000200  1
  C  C731  1  0.283000  0.193600  0.971700  1
  C  C732  1  0.717000  0.806400  0.028300  1
  C  C733  1  0.345400  0.166500  0.978500  1
  C  C734  1  0.654600  0.833500  0.021500  1
  C  C735  1  0.400800  0.198900  0.950400  1
  C  C736  1  0.599200  0.801100  0.049600  1
  C  C737  1  0.460100  0.173000  0.957600  1
  C  C738  1  0.539900  0.827000  0.042400  1
  C  C739  1  0.468700  0.112700  0.996900  1
  C  C740  1  0.531300  0.887300  0.003100  1
  C  C741  1  0.418100  0.080700  0.023900  1
  C  C742  1  0.581900  0.919300  0.976100  1
  C  C743  1  0.353700  0.105500  0.015400  1
  C  C744  1  0.646300  0.894500  0.984600  1
  C  C745  1  0.298700  0.072500  0.043800  1
  C  C746  1  0.701300  0.927500  0.956200  1
  C  C747  1  0.235700  0.099500  0.035100  1
  C  C748  1  0.764300  0.900500  0.964900  1
  C  C749  1  0.236100  0.375800  0.936800  1
  C  C750  1  0.763900  0.624200  0.063200  1
  C  C751  1  0.240400  0.387700  0.880700  1
  C  C752  1  0.759600  0.612300  0.119300  1
  C  C753  1  0.258500  0.336700  0.852800  1
  C  C754  1  0.741500  0.663300  0.147200  1
  C  C755  1  0.277600  0.273900  0.881300  1
  C  C756  1  0.722400  0.726100  0.118700  1
  C  C757  1  0.271600  0.260800  0.938000  1
  C  C758  1  0.728400  0.739200  0.062000  1
  C  C759  1  0.250000  0.312200  0.965500  1
  C  C760  1  0.750000  0.687800  0.034500  1
  C  C761  1  0.746600  0.418400  0.455800  1
  C  C762  1  0.253400  0.581600  0.544200  1
  C  C763  1  0.718300  0.478700  0.475000  1
  C  C764  1  0.281700  0.521300  0.525000  1
  C  C765  1  0.631800  0.564700  0.473400  1
  C  C766  1  0.368200  0.435300  0.526600  1
  C  C767  1  0.669600  0.384000  0.356300  1
  C  C768  1  0.330400  0.616000  0.643700  1
  C  C769  1  0.599700  0.393900  0.389400  1
  C  C770  1  0.400300  0.606100  0.610600  1
  C  C771  1  0.511800  0.340900  0.451600  1
  C  C772  1  0.488200  0.659100  0.548400  1
  C  C773  1  0.725100  0.212200  0.385800  1
  C  C774  1  0.274900  0.787800  0.614200  1
  C  C775  1  0.711600  0.154600  0.373400  1
  C  C776  1  0.288400  0.845400  0.626600  1
  C  C777  1  0.620200  0.199500  0.339800  1
  C  C778  1  0.379800  0.800500  0.660200  1
  C  C779  1  0.351400  0.250700  0.585400  1
  C  C780  1  0.648600  0.749300  0.414600  1
  C  C781  1  0.368800  0.277000  0.623600  1
  C  C782  1  0.631200  0.723000  0.376400  1
  C  C783  1  0.464400  0.292700  0.642800  1
  C  C784  1  0.535600  0.707300  0.357200  1
  C  C785  1  0.194700  0.198800  0.698500  1
  C  C786  1  0.805300  0.801200  0.301500  1
  C  C787  1  0.191900  0.160800  0.756600  1
  C  C788  1  0.808100  0.839200  0.243400  1
  C  C789  1  0.171900  0.156400  0.853100  1
  C  C790  1  0.828100  0.843600  0.146900  1
  C  C791  1  0.110900  0.079200  0.642500  1
  C  C792  1  0.889100  0.920800  0.357500  1
  C  C793  1  0.068100  0.117000  0.682500  1
  C  C794  1  0.931900  0.883000  0.317500  1
  C  C795  1  0.048700  0.115600  0.780300  1
  C  C796  1  0.951300  0.884400  0.219700  1
  C  C797  1  0.706100  0.293300  0.065700  1
  C  C798  1  0.293900  0.706700  0.934300  1
  C  C799  1  0.746300  0.251900  0.032000  1
  C  C800  1  0.253700  0.748100  0.968000  1
  C  C801  1  0.854800  0.195900  0.013200  1
  C  C802  1  0.145200  0.804100  0.986800  1
  C  C803  1  0.772400  0.182200  0.193700  1
  C  C804  1  0.227600  0.817800  0.806300  1
  C  C805  1  0.844000  0.165600  0.185500  1
  C  C806  1  0.156000  0.834400  0.814500  1
  C  C807  1  0.840500  0.070900  0.252800  1
  C  C808  1  0.159500  0.929100  0.747200  1
  C  C809  1  0.740300  0.021900  0.181700  1
  C  C810  1  0.259700  0.978100  0.818300  1
  C  C811  1  0.745900  0.021300  0.124900  1
  C  C812  1  0.254100  0.978700  0.875100  1
  C  C813  1  0.717100  0.962100  0.075300  1
  C  C814  1  0.282900  0.037900  0.924700  1
  C  C815  1  0.265500  0.473800  0.801500  1
  C  C816  1  0.734500  0.526200  0.198500  1
  C  C817  1  0.280600  0.537300  0.801500  1
  C  C818  1  0.719400  0.462700  0.198500  1
  C  C819  1  0.236800  0.646300  0.799400  1
  C  C820  1  0.763200  0.353700  0.200600  1
  C  C821  1  0.212800  0.315100  0.789400  1
  C  C822  1  0.787200  0.684900  0.210600  1
  C  C823  1  0.187100  0.348100  0.742800  1
  C  C824  1  0.812900  0.651900  0.257200  1
  C  C825  1  0.194000  0.394000  0.650600  1
  C  C826  1  0.806000  0.606000  0.349400  1
  C  C827  1  0.362400  0.229100  0.812500  1
  C  C828  1  0.637600  0.770900  0.187500  1
  C  C829  1  0.385300  0.170500  0.790100  1
  C  C830  1  0.614700  0.829500  0.209900  1
  C  C831  1  0.371600  0.115500  0.728400  1
  C  C832  1  0.628400  0.884500  0.271600  1
  C  C833  1  0.283600  0.178500  0.212500  1
  C  C834  1  0.716400  0.821500  0.787500  1
  C  C835  1  0.246000  0.221400  0.179700  1
  C  C836  1  0.754000  0.778600  0.820300  1
  C  C837  1  0.183700  0.250000  0.204400  1
  C  C838  1  0.816300  0.750000  0.795600  1
  C  C839  1  0.310300  0.128700  0.293200  1
  C  C840  1  0.689700  0.871300  0.706800  1
  C  C841  1  0.350100  0.148600  0.194700  1
  C  C842  1  0.649900  0.851400  0.805300  1
  C  C843  1  0.311700  0.112700  0.349400  1
  C  C844  1  0.688300  0.887300  0.650600  1
  C  C845  1  0.366200  0.119100  0.246500  1
  C  C846  1  0.633800  0.880900  0.753500  1
  C  C847  1  0.142700  0.302800  0.179400  1
  C  C848  1  0.857300  0.697200  0.820600  1
  C  C849  1  0.150900  0.327700  0.119500  1
  C  C850  1  0.849100  0.672300  0.880500  1
  C  C851  1  0.392100  0.147600  0.140100  1
  C  C852  1  0.607900  0.852400  0.859900  1
  C  C853  1  0.270000  0.233200  0.117700  1
  C  C854  1  0.730000  0.766800  0.882300  1
  C  C855  1  0.096800  0.332400  0.221800  1
  C  C856  1  0.903200  0.667600  0.778200  1
  C  C857  1  0.106200  0.285500  0.270600  1
  C  C858  1  0.893800  0.714500  0.729400  1
  C  C859  1  0.094500  0.340500  0.303800  1
  C  C860  1  0.905500  0.659500  0.696200  1
  C  C861  1  0.639200  0.952500  0.394300  1
  C  C862  1  0.360800  0.047500  0.605700  1
  C  C863  1  0.683800  0.989800  0.347600  1
  C  C864  1  0.316200  0.010200  0.652400  1
  C  C865  1  0.153400  0.354000  0.358400  1
  C  C866  1  0.846600  0.646000  0.641600  1
  C  C867  1  0.184400  0.390200  0.305700  1
  C  C868  1  0.815600  0.609800  0.694300  1
  C  C869  1  0.294000  0.350000  0.232000  1
  C  C870  1  0.706000  0.650000  0.768000  1
  C  C871  1  0.331000  0.295000  0.231000  1
  C  C872  1  0.669000  0.705000  0.769000  1
  N  N873  1  0.167000  0.577200  0.272000  1
  N  N874  1  0.833000  0.422800  0.728000  1
  N  N875  1  0.137500  0.986800  0.230200  1
  N  N876  1  0.862500  0.013200  0.769800  1
  N  N877  1  0.305300  0.542500  0.264900  1
  N  N878  1  0.694700  0.457500  0.735100  1
  N  N879  1  0.160300  0.949600  0.337400  1
  N  N880  1  0.839700  0.050400  0.662600  1
  N  N881  1  0.332300  0.554500  0.148100  1
  N  N882  1  0.667700  0.445500  0.851900  1
  N  N883  1  0.297500  0.917800  0.289800  1
  N  N884  1  0.702500  0.082200  0.710200  1
  N  N885  1  0.196200  0.587000  0.153700  1
  N  N886  1  0.803800  0.413000  0.846300  1
  N  N887  1  0.274900  0.953600  0.180000  1
  N  N888  1  0.725100  0.046400  0.820000  1
  N  N889  1  0.258800  0.164100  0.270100  1
  N  N890  1  0.741200  0.835900  0.729900  1
  N  N891  1  0.158900  0.235600  0.262000  1
  N  N892  1  0.841100  0.764400  0.738000  1
  N  N893  1  0.804500  0.230500  0.524900  1
  N  N894  1  0.195500  0.769500  0.475100  1
  N  N895  1  0.467700  0.365100  0.831300  1
  N  N896  1  0.532300  0.634900  0.168700  1
  N  N897  1  0.651300  0.174400  0.989400  1
  N  N898  1  0.348700  0.825600  0.010600  1
  N  N899  1  0.037900  0.272600  0.627200  1
  N  N900  1  0.962100  0.727400  0.372800  1
  N  N901  1  0.605000  0.920800  0.432700  1
  N  N902  1  0.395000  0.079200  0.567300  1
  N  N903  1  0.130200  0.317500  0.403700  1
  N  N904  1  0.869800  0.682500  0.596300  1
  N  N905  1  0.273000  0.374000  0.189900  1
  N  N906  1  0.727000  0.626000  0.810100  1
  O  O907  1  0.778100  0.434500  0.396420  1
  O  O908  1  0.221900  0.565500  0.603580  1
  O  O909  1  0.665300  0.509400  0.451200  1
  O  O910  1  0.334700  0.490600  0.548800  1
  O  O911  1  0.706400  0.344600  0.393120  1
  O  O912  1  0.293600  0.655400  0.606880  1
  O  O913  1  0.577500  0.335800  0.415300  1
  O  O914  1  0.422500  0.664200  0.584700  1
  O  O915  1  0.772200  0.243200  0.337070  1
  O  O916  1  0.227800  0.756800  0.662930  1
  O  O917  1  0.684000  0.167100  0.329400  1
  O  O918  1  0.316000  0.832900  0.670600  1
  O  O919  1  0.282500  0.270300  0.591900  1
  O  O920  1  0.717500  0.729700  0.408100  1
  O  O921  1  0.440200  0.268800  0.607600  1
  O  O922  1  0.559800  0.731200  0.392400  1
  O  O923  1  0.234700  0.159200  0.662700  1
  O  O924  1  0.765300  0.840800  0.337300  1
  O  O925  1  0.160000  0.191800  0.799500  1
  O  O926  1  0.840000  0.808200  0.200500  1
  O  O927  1  0.181500  0.080800  0.624000  1
  O  O928  1  0.818500  0.919200  0.376000  1
  O  O929  1  0.082000  0.084500  0.735400  1
  O  O930  1  0.918000  0.915500  0.264600  1
  O  O931  1  0.688800  0.275700  0.124000  1
  O  O932  1  0.311200  0.724300  0.876000  1
  O  O933  1  0.812400  0.249000  0.038000  1
  O  O934  1  0.187600  0.751000  0.962000  1
  O  O935  1  0.752900  0.155700  0.156900  1
  O  O936  1  0.247100  0.844300  0.843100  1
  O  O937  1  0.866700  0.100500  0.194100  1
  O  O938  1  0.133300  0.899500  0.805900  1
  O  O939  1  0.678400  0.050500  0.210200  1
  O  O940  1  0.321600  0.949500  0.789800  1
  O  O941  1  0.712200  0.972500  0.127700  1
  O  O942  1  0.287800  0.027500  0.872300  1
  O  O943  1  0.221800  0.449000  0.855240  1
  O  O944  1  0.778200  0.551000  0.144760  1
  O  O945  1  0.222900  0.585100  0.801500  1
  O  O946  1  0.777100  0.414900  0.198500  1
  O  O947  1  0.257400  0.348800  0.797900  1
  O  O948  1  0.742600  0.651200  0.202100  1
  O  O949  1  0.229000  0.361500  0.691600  1
  O  O950  1  0.771000  0.638500  0.308400  1
  O  O951  1  0.299600  0.223300  0.853870  1
  O  O952  1  0.700400  0.776700  0.146130  1
  O  O953  1  0.347500  0.169300  0.754900  1
  O  O954  1  0.652500  0.830700  0.245100  1
  O  O955  1  0.863900  0.230600  0.510600  1
  O  O956  1  0.136100  0.769400  0.489400  1
  O  O957  1  0.774400  0.218700  0.496900  1
  O  O958  1  0.225600  0.781300  0.503100  1
  O  O959  1  0.771500  0.240000  0.569900  1
  O  O960  1  0.228500  0.760000  0.430100  1
  O  O961  1  0.509500  0.351500  0.792600  1
  O  O962  1  0.490500  0.648500  0.207400  1
  O  O963  1  0.423700  0.393600  0.812400  1
  O  O964  1  0.576300  0.606400  0.187600  1
  O  O965  1  0.473900  0.347600  0.877100  1
  O  O966  1  0.526100  0.652400  0.122900  1
  O  O967  1  0.593300  0.161600  0.999500  1
  O  O968  1  0.406700  0.838400  0.000500  1
  O  O969  1  0.664900  0.231100  0.964000  1
  O  O970  1  0.335100  0.768900  0.036000  1
  O  O971  1  0.695300  0.130400  0.005700  1
  O  O972  1  0.304700  0.869600  0.994300  1
  O  O973  1  0.029600  0.310800  0.949400  1
  O  O974  1  0.970400  0.689200  0.050600  1
  O  O975  1  0.036900  0.263000  0.829200  1
  O  O976  1  0.963100  0.737000  0.170800  1
  O  O977  1  0.025200  0.222700  0.904600  1
  O  O978  1  0.974800  0.777300  0.095400  1
  O  O979  1  0.037100  0.291800  0.581200  1
  O  O980  1  0.962900  0.708200  0.418800  1
  O  O981  1  0.067400  0.295600  0.647000  1
  O  O982  1  0.932600  0.704400  0.353000  1
  O  O983  1  0.997300  0.241200  0.657700  1
  O  O984  1  0.002700  0.758800  0.342300  1
  O  O985  1  0.644900  0.276300  0.512600  1
  O  O986  1  0.355100  0.723700  0.487400  1
  O  O987  1  0.527600  0.457300  0.597400  1
  O  O988  1  0.472400  0.542700  0.402600  1
  O  O989  1  0.321300  0.447500  0.667400  1
  O  O990  1  0.678700  0.552500  0.332600  1
  O  O991  1  0.623900  0.350300  0.593600  1
  O  O992  1  0.376100  0.649700  0.406400  1
  O  O993  1  0.537300  0.488300  0.486900  1
  O  O994  1  0.462700  0.511700  0.513100  1
  O  O995  1  0.570100  0.294300  0.703900  1
  O  O996  1  0.429900  0.705700  0.296100  1
  O  O997  1  0.590000  0.220000  0.777300  1
  O  O998  1  0.410000  0.780000  0.222700  1
  O  O999  1  0.904800  0.243300  0.603000  1
  O  O1000  1  0.095200  0.756700  0.397000  1
  O  O1001  1  0.739900  0.351300  0.619300  1
  O  O1002  1  0.260100  0.648700  0.380700  1
  O  O1003  1  0.550200  0.193400  0.549700  1
  O  O1004  1  0.449800  0.806600  0.450300  1
  O  O1005  1  0.523100  0.118300  0.485400  1
  O  O1006  1  0.476900  0.881700  0.514600  1
  O  O1007  1  0.128500  0.569100  0.904000  1
  O  O1008  1  0.871500  0.430900  0.096000  1
  O  O1009  1  0.589100  0.267400  0.881900  1
  O  O1010  1  0.410900  0.732600  0.118100  1
  O  O1011  1  0.433100  0.404900  0.701900  1
  O  O1012  1  0.566900  0.595100  0.298100  1
  O  O1013  1  0.709400  0.267600  0.725400  1
  O  O1014  1  0.290600  0.732400  0.274600  1
  O  O1015  1  0.829200  0.197900  0.711700  1
  O  O1016  1  0.170800  0.802100  0.288300  1
  O  O1017  1  0.719900  0.282200  0.823200  1
  O  O1018  1  0.280100  0.717800  0.176800  1
  O  O1019  1  0.966500  0.285300  0.761900  1
  O  O1020  1  0.033500  0.714700  0.238100  1
  O  O1021  1  0.849600  0.210500  0.810500  1
  O  O1022  1  0.150400  0.789500  0.189500  1
  O  O1023  1  0.097100  0.675700  0.952700  1
  O  O1024  1  0.902900  0.324300  0.047300  1
  O  O1025  1  0.815400  0.097700  0.925400  1
  O  O1026  1  0.184600  0.902300  0.074600  1
  O  O1027  1  0.946600  0.054200  0.096100  1
  O  O1028  1  0.053400  0.945800  0.903900  1
  O  O1029  1  0.993000  0.105000  0.968100  1
  O  O1030  1  0.007000  0.895000  0.031900  1
  O  O1031  1  0.926200  0.997800  0.034300  1
  O  O1032  1  0.073800  0.002200  0.965700  1
  O  O1033  1  0.431600  0.452400  0.695600  1
  O  O1034  1  0.568400  0.547600  0.304400  1
  F  F1035  1  0.191700  0.204000  0.352200  1
  F  F1036  1  0.808300  0.796000  0.647800  1
  F  F1037  1  0.157300  0.133300  0.315600  1
  F  F1038  1  0.842700  0.866700  0.684400  1
