# generated using pymatgen
data_Co4B2H231C335S22N40(O3F5)16
_symmetry_space_group_name_H-M   'P 1'
_cell_length_a   24.41590000
_cell_length_b   26.11040000
_cell_length_c   47.00100000
_cell_angle_alpha   100.27100000
_cell_angle_beta   90.00000000
_cell_angle_gamma   90.00000000
_symmetry_Int_Tables_number   1
_chemical_formula_structural   Co4B2H231C335S22N40(O3F5)16
_chemical_formula_sum   'Co16 B8 H924 C1340 S88 N160 O192 F320'
_cell_volume   29483.40287749
_cell_formula_units_Z   4
loop_
 _symmetry_equiv_pos_site_id
 _symmetry_equiv_pos_as_xyz
  1  'x, y, z'
loop_
 _atom_site_type_symbol
 _atom_site_label
 _atom_site_symmetry_multiplicity
 _atom_site_fract_x
 _atom_site_fract_y
 _atom_site_fract_z
 _atom_site_occupancy
  Co  Co1  1  0.793370  0.806180  0.311900  1
  Co  Co2  1  0.293370  0.693820  0.188100  1
  Co  Co3  1  0.206630  0.193820  0.688100  1
  Co  Co4  1  0.706630  0.306180  0.811900  1
  Co  Co5  1  0.743920  0.910970  0.960020  1
  Co  Co6  1  0.243920  0.589030  0.539980  1
  Co  Co7  1  0.256080  0.089030  0.039980  1
  Co  Co8  1  0.756080  0.410970  0.460020  1
  Co  Co9  1  0.773040  0.145020  0.189940  1
  Co  Co10  1  0.273040  0.354980  0.310060  1
  Co  Co11  1  0.226960  0.854980  0.810060  1
  Co  Co12  1  0.726960  0.645020  0.689940  1
  Co  Co13  1  0.744280  0.032090  0.542590  1
  Co  Co14  1  0.244280  0.467910  0.957410  1
  Co  Co15  1  0.255720  0.967910  0.457410  1
  Co  Co16  1  0.755720  0.532090  0.042590  1
  B  B17  1  0.853000  0.977300  0.251600  1
  B  B18  1  0.353000  0.522700  0.248400  1
  B  B19  1  0.147000  0.022700  0.748400  1
  B  B20  1  0.647000  0.477300  0.751600  1
  B  B21  1  0.859200  0.973300  0.246200  1
  B  B22  1  0.359200  0.526700  0.253800  1
  B  B23  1  0.140800  0.026700  0.753800  1
  B  B24  1  0.640800  0.473300  0.746200  1
  H  H25  1  0.768200  0.865700  0.376300  1
  H  H26  1  0.268200  0.634300  0.123700  1
  H  H27  1  0.231800  0.134300  0.623700  1
  H  H28  1  0.731800  0.365700  0.876300  1
  H  H29  1  0.709200  0.855200  0.413900  1
  H  H30  1  0.209200  0.644800  0.086100  1
  H  H31  1  0.290800  0.144800  0.586100  1
  H  H32  1  0.790800  0.355200  0.913900  1
  H  H33  1  0.646500  0.787600  0.407300  1
  H  H34  1  0.146500  0.712400  0.092700  1
  H  H35  1  0.353500  0.212400  0.592700  1
  H  H36  1  0.853500  0.287600  0.907300  1
  H  H37  1  0.644400  0.728500  0.363800  1
  H  H38  1  0.144400  0.771500  0.136200  1
  H  H39  1  0.355600  0.271500  0.636200  1
  H  H40  1  0.855600  0.228500  0.863800  1
  H  H41  1  0.685200  0.700700  0.312400  1
  H  H42  1  0.185200  0.799300  0.187600  1
  H  H43  1  0.314800  0.299300  0.687600  1
  H  H44  1  0.814800  0.200700  0.812400  1
  H  H45  1  0.753200  0.642700  0.282000  1
  H  H46  1  0.253200  0.857300  0.218000  1
  H  H47  1  0.246800  0.357300  0.718000  1
  H  H48  1  0.746800  0.142700  0.782000  1
  H  H49  1  0.759300  0.593300  0.235200  1
  H  H50  1  0.259300  0.906700  0.264800  1
  H  H51  1  0.240700  0.406700  0.764800  1
  H  H52  1  0.740700  0.093300  0.735200  1
  H  H53  1  0.744500  0.631300  0.195400  1
  H  H54  1  0.244500  0.868700  0.304600  1
  H  H55  1  0.255500  0.368700  0.804600  1
  H  H56  1  0.755500  0.131300  0.695400  1
  H  H57  1  0.723800  0.770300  0.246500  1
  H  H58  1  0.223800  0.729700  0.253500  1
  H  H59  1  0.276200  0.229700  0.753500  1
  H  H60  1  0.776200  0.270300  0.746500  1
  H  H61  1  0.642500  0.753600  0.208100  1
  H  H62  1  0.142500  0.746400  0.291900  1
  H  H63  1  0.357500  0.246400  0.791900  1
  H  H64  1  0.857500  0.253600  0.708100  1
  H  H65  1  0.610800  0.788700  0.169700  1
  H  H66  1  0.110800  0.711300  0.330300  1
  H  H67  1  0.389200  0.211300  0.830300  1
  H  H68  1  0.889200  0.288700  0.669700  1
  H  H69  1  0.818100  0.693700  0.182000  1
  H  H70  1  0.318100  0.806300  0.318000  1
  H  H71  1  0.181900  0.306300  0.818000  1
  H  H72  1  0.681900  0.193700  0.682000  1
  H  H73  1  0.874500  0.696600  0.144500  1
  H  H74  1  0.374500  0.803400  0.355500  1
  H  H75  1  0.125500  0.303400  0.855500  1
  H  H76  1  0.625500  0.196600  0.644500  1
  H  H77  1  0.858200  0.752600  0.055900  1
  H  H78  1  0.358200  0.747400  0.444100  1
  H  H79  1  0.141800  0.247400  0.944100  1
  H  H80  1  0.641800  0.252600  0.555900  1
  H  H81  1  0.890300  0.719700  0.095400  1
  H  H82  1  0.390300  0.780300  0.404600  1
  H  H83  1  0.109700  0.280300  0.904600  1
  H  H84  1  0.609700  0.219700  0.595400  1
  H  H85  1  0.626500  0.810700  0.120700  1
  H  H86  1  0.126500  0.689300  0.379300  1
  H  H87  1  0.373500  0.189300  0.879300  1
  H  H88  1  0.873500  0.310700  0.620700  1
  H  H89  1  0.680500  0.808000  0.080600  1
  H  H90  1  0.180500  0.692000  0.419400  1
  H  H91  1  0.319500  0.192000  0.919400  1
  H  H92  1  0.819500  0.308000  0.580600  1
  H  H93  1  0.816300  0.838100  0.039100  1
  H  H94  1  0.316300  0.661900  0.460900  1
  H  H95  1  0.183700  0.161900  0.960900  1
  H  H96  1  0.683700  0.338100  0.539100  1
  H  H97  1  0.710600  0.806800  0.971500  1
  H  H98  1  0.210600  0.693200  0.528500  1
  H  H99  1  0.289400  0.193200  0.028500  1
  H  H100  1  0.789400  0.306800  0.471500  1
  H  H101  1  0.666500  0.745700  0.993700  1
  H  H102  1  0.166500  0.754300  0.506300  1
  H  H103  1  0.333500  0.254300  0.006300  1
  H  H104  1  0.833500  0.245700  0.493700  1
  H  H105  1  0.696500  0.730400  0.038400  1
  H  H106  1  0.196500  0.769600  0.461600  1
  H  H107  1  0.303500  0.269600  0.961600  1
  H  H108  1  0.803500  0.230400  0.538400  1
  H  H109  1  0.857800  0.876400  0.010100  1
  H  H110  1  0.357800  0.623600  0.489900  1
  H  H111  1  0.142200  0.123600  0.989900  1
  H  H112  1  0.642200  0.376400  0.510100  1
  H  H113  1  0.928200  0.944100  0.004800  1
  H  H114  1  0.428200  0.555900  0.495200  1
  H  H115  1  0.071800  0.055900  0.995200  1
  H  H116  1  0.571800  0.444100  0.504800  1
  H  H117  1  0.953500  0.017100  0.984300  1
  H  H118  1  0.453500  0.482900  0.515700  1
  H  H119  1  0.046500  0.982900  0.015700  1
  H  H120  1  0.546500  0.517100  0.484300  1
  H  H121  1  0.893400  0.045500  0.951100  1
  H  H122  1  0.393400  0.454500  0.548900  1
  H  H123  1  0.106600  0.954500  0.048900  1
  H  H124  1  0.606600  0.545500  0.451100  1
  H  H125  1  0.809800  0.005300  0.941700  1
  H  H126  1  0.309800  0.494700  0.558300  1
  H  H127  1  0.190200  0.994700  0.058300  1
  H  H128  1  0.690200  0.505300  0.441700  1
  H  H129  1  0.901400  0.835600  0.351400  1
  H  H130  1  0.401400  0.664400  0.148600  1
  H  H131  1  0.098600  0.164400  0.648600  1
  H  H132  1  0.598600  0.335600  0.851400  1
  H  H133  1  0.948700  0.910700  0.370500  1
  H  H134  1  0.448700  0.589300  0.129500  1
  H  H135  1  0.051300  0.089300  0.629500  1
  H  H136  1  0.551300  0.410700  0.870500  1
  H  H137  1  0.925600  0.988400  0.356500  1
  H  H138  1  0.425600  0.511600  0.143500  1
  H  H139  1  0.074400  0.011600  0.643500  1
  H  H140  1  0.574400  0.488400  0.856500  1
  H  H141  1  0.847000  0.992500  0.328100  1
  H  H142  1  0.347000  0.507500  0.171900  1
  H  H143  1  0.153000  0.007500  0.671900  1
  H  H144  1  0.653000  0.492500  0.828100  1
  H  H145  1  0.766900  0.945300  0.300700  1
  H  H146  1  0.266900  0.554700  0.199300  1
  H  H147  1  0.233100  0.054700  0.699300  1
  H  H148  1  0.733100  0.445300  0.800700  1
  H  H149  1  0.657800  0.829200  0.306900  1
  H  H150  1  0.157800  0.670800  0.193100  1
  H  H151  1  0.342200  0.170800  0.693100  1
  H  H152  1  0.842200  0.329200  0.806900  1
  H  H153  1  0.581100  0.823400  0.277600  1
  H  H154  1  0.081100  0.676600  0.222400  1
  H  H155  1  0.418900  0.176600  0.722400  1
  H  H156  1  0.918900  0.323400  0.777600  1
  H  H157  1  0.585600  0.853000  0.233200  1
  H  H158  1  0.085600  0.647000  0.266800  1
  H  H159  1  0.414400  0.147000  0.766800  1
  H  H160  1  0.914400  0.353000  0.733200  1
  H  H161  1  0.738200  0.906300  0.251900  1
  H  H162  1  0.238200  0.593700  0.248100  1
  H  H163  1  0.261800  0.093700  0.748100  1
  H  H164  1  0.761800  0.406300  0.751900  1
  H  H165  1  0.585100  0.942200  0.222400  1
  H  H166  1  0.085100  0.557800  0.277600  1
  H  H167  1  0.414900  0.057800  0.777600  1
  H  H168  1  0.914900  0.442200  0.722400  1
  H  H169  1  0.577900  0.985700  0.183500  1
  H  H170  1  0.077900  0.514300  0.316500  1
  H  H171  1  0.422100  0.014300  0.816500  1
  H  H172  1  0.922100  0.485700  0.683500  1
  H  H173  1  0.750800  0.849900  0.207000  1
  H  H174  1  0.250800  0.650100  0.293000  1
  H  H175  1  0.249200  0.150100  0.793000  1
  H  H176  1  0.749200  0.349900  0.707000  1
  H  H177  1  0.814300  0.837200  0.171800  1
  H  H178  1  0.314300  0.662800  0.328200  1
  H  H179  1  0.185700  0.162800  0.828200  1
  H  H180  1  0.685700  0.337200  0.671800  1
  H  H181  1  0.844000  0.902000  0.086900  1
  H  H182  1  0.344000  0.598000  0.413100  1
  H  H183  1  0.156000  0.098000  0.913100  1
  H  H184  1  0.656000  0.402000  0.586900  1
  H  H185  1  0.852500  0.858900  0.125300  1
  H  H186  1  0.352500  0.641100  0.374700  1
  H  H187  1  0.147500  0.141100  0.874700  1
  H  H188  1  0.647500  0.358900  0.625300  1
  H  H189  1  0.682000  0.998000  0.103700  1
  H  H190  1  0.182000  0.502000  0.396300  1
  H  H191  1  0.318000  0.002000  0.896300  1
  H  H192  1  0.818000  0.498000  0.603700  1
  H  H193  1  0.618300  0.009100  0.138900  1
  H  H194  1  0.118300  0.490900  0.361100  1
  H  H195  1  0.381700  0.990900  0.861100  1
  H  H196  1  0.881700  0.509100  0.638900  1
  H  H197  1  0.820200  0.026900  0.089000  1
  H  H198  1  0.320200  0.473100  0.411000  1
  H  H199  1  0.179800  0.973100  0.911000  1
  H  H200  1  0.679800  0.526900  0.589000  1
  H  H201  1  0.812400  0.070400  0.050400  1
  H  H202  1  0.312400  0.429600  0.449600  1
  H  H203  1  0.187600  0.929600  0.949600  1
  H  H204  1  0.687600  0.570400  0.550400  1
  H  H205  1  0.759000  0.034600  0.010000  1
  H  H206  1  0.259000  0.465400  0.490000  1
  H  H207  1  0.241000  0.965400  0.990000  1
  H  H208  1  0.741000  0.534600  0.510000  1
  H  H209  1  0.717200  0.915300  0.050100  1
  H  H210  1  0.217200  0.584700  0.449900  1
  H  H211  1  0.282800  0.084700  0.949900  1
  H  H212  1  0.782800  0.415300  0.550100  1
  H  H213  1  0.638100  0.936500  0.021900  1
  H  H214  1  0.138100  0.563500  0.478100  1
  H  H215  1  0.361900  0.063500  0.978100  1
  H  H216  1  0.861900  0.436500  0.521900  1
  H  H217  1  0.552200  0.897100  0.995700  1
  H  H218  1  0.052200  0.602900  0.504300  1
  H  H219  1  0.447800  0.102900  0.004300  1
  H  H220  1  0.947800  0.397100  0.495700  1
  H  H221  1  0.514900  0.844500  0.954300  1
  H  H222  1  0.014900  0.655500  0.545700  1
  H  H223  1  0.485100  0.155500  0.045700  1
  H  H224  1  0.985100  0.344500  0.454300  1
  H  H225  1  0.569500  0.821600  0.913900  1
  H  H226  1  0.069500  0.678400  0.586100  1
  H  H227  1  0.430500  0.178400  0.086100  1
  H  H228  1  0.930500  0.321600  0.413900  1
  H  H229  1  0.661600  0.845400  0.915700  1
  H  H230  1  0.161600  0.654600  0.584300  1
  H  H231  1  0.338400  0.154600  0.084300  1
  H  H232  1  0.838400  0.345400  0.415700  1
  H  H233  1  0.880400  0.129900  0.150200  1
  H  H234  1  0.380400  0.370100  0.349800  1
  H  H235  1  0.119600  0.870100  0.849800  1
  H  H236  1  0.619600  0.629900  0.650200  1
  H  H237  1  0.940700  0.062200  0.132200  1
  H  H238  1  0.440700  0.437800  0.367800  1
  H  H239  1  0.059300  0.937800  0.867800  1
  H  H240  1  0.559300  0.562200  0.632200  1
  H  H241  1  0.924600  0.980300  0.141800  1
  H  H242  1  0.424600  0.519700  0.358200  1
  H  H243  1  0.075400  0.019700  0.858200  1
  H  H244  1  0.575400  0.480300  0.641800  1
  H  H245  1  0.851000  0.966800  0.172100  1
  H  H246  1  0.351000  0.533200  0.327900  1
  H  H247  1  0.149000  0.033200  0.827900  1
  H  H248  1  0.649000  0.466800  0.672100  1
  H  H249  1  0.764500  0.003200  0.199600  1
  H  H250  1  0.264500  0.496800  0.300400  1
  H  H251  1  0.235500  0.996800  0.800400  1
  H  H252  1  0.735500  0.503200  0.699600  1
  H  H253  1  0.642500  0.107100  0.194600  1
  H  H254  1  0.142500  0.392900  0.305400  1
  H  H255  1  0.357500  0.892900  0.805400  1
  H  H256  1  0.857500  0.607100  0.694600  1
  H  H257  1  0.567100  0.107400  0.224000  1
  H  H258  1  0.067100  0.392600  0.276000  1
  H  H259  1  0.432900  0.892600  0.776000  1
  H  H260  1  0.932900  0.607400  0.724000  1
  H  H261  1  0.573200  0.073200  0.266800  1
  H  H262  1  0.073200  0.426800  0.233200  1
  H  H263  1  0.426800  0.926800  0.733200  1
  H  H264  1  0.926800  0.573200  0.766800  1
  H  H265  1  0.731900  0.035700  0.248900  1
  H  H266  1  0.231900  0.464300  0.251100  1
  H  H267  1  0.268100  0.964300  0.751100  1
  H  H268  1  0.768100  0.535700  0.748900  1
  H  H269  1  0.585700  0.985600  0.277900  1
  H  H270  1  0.085700  0.514400  0.222100  1
  H  H271  1  0.414300  0.014400  0.722100  1
  H  H272  1  0.914300  0.485600  0.777900  1
  H  H273  1  0.582100  0.943600  0.317300  1
  H  H274  1  0.082100  0.556400  0.182700  1
  H  H275  1  0.417900  0.056400  0.682700  1
  H  H276  1  0.917900  0.443600  0.817300  1
  H  H277  1  0.739100  0.095100  0.294600  1
  H  H278  1  0.239100  0.404900  0.205400  1
  H  H279  1  0.260900  0.904900  0.705400  1
  H  H280  1  0.760900  0.595100  0.794600  1
  H  H281  1  0.801700  0.113800  0.330000  1
  H  H282  1  0.301700  0.386200  0.170000  1
  H  H283  1  0.198300  0.886200  0.670000  1
  H  H284  1  0.698300  0.613800  0.830000  1
  H  H285  1  0.839400  0.053200  0.415100  1
  H  H286  1  0.339400  0.446800  0.084900  1
  H  H287  1  0.160600  0.946800  0.584900  1
  H  H288  1  0.660600  0.553200  0.915100  1
  H  H289  1  0.841200  0.097700  0.377200  1
  H  H290  1  0.341200  0.402300  0.122800  1
  H  H291  1  0.158800  0.902300  0.622800  1
  H  H292  1  0.658800  0.597700  0.877200  1
  H  H293  1  0.622100  0.926300  0.362800  1
  H  H294  1  0.122100  0.573700  0.137200  1
  H  H295  1  0.377900  0.073700  0.637200  1
  H  H296  1  0.877900  0.426300  0.862800  1
  H  H297  1  0.687700  0.942500  0.398200  1
  H  H298  1  0.187700  0.557500  0.101800  1
  H  H299  1  0.312300  0.057500  0.601800  1
  H  H300  1  0.812300  0.442500  0.898200  1
  H  H301  1  0.713400  0.022900  0.452800  1
  H  H302  1  0.213400  0.477100  0.047200  1
  H  H303  1  0.286600  0.977100  0.547200  1
  H  H304  1  0.786600  0.522900  0.952800  1
  H  H305  1  0.780900  0.912700  0.492000  1
  H  H306  1  0.280900  0.587300  0.008000  1
  H  H307  1  0.219100  0.087300  0.508000  1
  H  H308  1  0.719100  0.412700  0.992000  1
  H  H309  1  0.834600  0.884600  0.450600  1
  H  H310  1  0.334600  0.615400  0.049400  1
  H  H311  1  0.165400  0.115400  0.549400  1
  H  H312  1  0.665400  0.384600  0.950600  1
  H  H313  1  0.831700  0.929300  0.412000  1
  H  H314  1  0.331700  0.570700  0.088000  1
  H  H315  1  0.168300  0.070700  0.588000  1
  H  H316  1  0.668300  0.429300  0.912000  1
  H  H317  1  0.642400  0.984400  0.481500  1
  H  H318  1  0.142400  0.515600  0.018500  1
  H  H319  1  0.357600  0.015600  0.518500  1
  H  H320  1  0.857600  0.484400  0.981500  1
  H  H321  1  0.553100  0.000300  0.509600  1
  H  H322  1  0.053100  0.499700  0.990400  1
  H  H323  1  0.446900  0.999700  0.490400  1
  H  H324  1  0.946900  0.500300  0.009600  1
  H  H325  1  0.507200  0.037000  0.551100  1
  H  H326  1  0.007200  0.463000  0.948900  1
  H  H327  1  0.492800  0.963000  0.448900  1
  H  H328  1  0.992800  0.537000  0.051100  1
  H  H329  1  0.557100  0.088000  0.588300  1
  H  H330  1  0.057100  0.412000  0.911700  1
  H  H331  1  0.442900  0.912000  0.411700  1
  H  H332  1  0.942900  0.588000  0.088300  1
  H  H333  1  0.652800  0.088000  0.585300  1
  H  H334  1  0.152800  0.412000  0.914700  1
  H  H335  1  0.347200  0.912000  0.414700  1
  H  H336  1  0.847200  0.588000  0.085300  1
  H  H337  1  0.748300  0.085000  0.125400  1
  H  H338  1  0.248300  0.415000  0.374600  1
  H  H339  1  0.251700  0.915000  0.874600  1
  H  H340  1  0.751700  0.585000  0.625400  1
  H  H341  1  0.689200  0.094400  0.088200  1
  H  H342  1  0.189200  0.405600  0.411800  1
  H  H343  1  0.310800  0.905600  0.911800  1
  H  H344  1  0.810800  0.594400  0.588200  1
  H  H345  1  0.620200  0.159100  0.096100  1
  H  H346  1  0.120200  0.340900  0.403900  1
  H  H347  1  0.379800  0.840900  0.903900  1
  H  H348  1  0.879800  0.659100  0.596100  1
  H  H349  1  0.617300  0.214500  0.140700  1
  H  H350  1  0.117300  0.285500  0.359300  1
  H  H351  1  0.382700  0.785500  0.859300  1
  H  H352  1  0.882700  0.714500  0.640700  1
  H  H353  1  0.656200  0.242100  0.191400  1
  H  H354  1  0.156200  0.257900  0.308600  1
  H  H355  1  0.343800  0.757900  0.808600  1
  H  H356  1  0.843800  0.742100  0.691400  1
  H  H357  1  0.726300  0.303300  0.221900  1
  H  H358  1  0.226300  0.196700  0.278100  1
  H  H359  1  0.273700  0.696700  0.778100  1
  H  H360  1  0.773700  0.803300  0.721900  1
  H  H361  1  0.731300  0.351900  0.269000  1
  H  H362  1  0.231300  0.148100  0.231000  1
  H  H363  1  0.268700  0.648100  0.731000  1
  H  H364  1  0.768700  0.851900  0.769000  1
  H  H365  1  0.716200  0.312300  0.308600  1
  H  H366  1  0.216200  0.187700  0.191400  1
  H  H367  1  0.283800  0.687700  0.691400  1
  H  H368  1  0.783800  0.812300  0.808600  1
  H  H369  1  0.699600  0.173400  0.255700  1
  H  H370  1  0.199600  0.326600  0.244300  1
  H  H371  1  0.300400  0.826600  0.744300  1
  H  H372  1  0.800400  0.673400  0.755700  1
  H  H373  1  0.620000  0.185300  0.293600  1
  H  H374  1  0.120000  0.314700  0.206400  1
  H  H375  1  0.380000  0.814700  0.706400  1
  H  H376  1  0.880000  0.685300  0.793600  1
  H  H377  1  0.590900  0.145000  0.330700  1
  H  H378  1  0.090900  0.355000  0.169300  1
  H  H379  1  0.409100  0.855000  0.669300  1
  H  H380  1  0.909100  0.645000  0.830700  1
  H  H381  1  0.604300  0.126200  0.381400  1
  H  H382  1  0.104300  0.373800  0.118600  1
  H  H383  1  0.395700  0.873800  0.618600  1
  H  H384  1  0.895700  0.626200  0.881400  1
  H  H385  1  0.656500  0.134700  0.421800  1
  H  H386  1  0.156500  0.365300  0.078200  1
  H  H387  1  0.343500  0.865300  0.578200  1
  H  H388  1  0.843500  0.634700  0.921800  1
  H  H389  1  0.863100  0.229900  0.408200  1
  H  H390  1  0.363100  0.270100  0.091800  1
  H  H391  1  0.136900  0.770100  0.591800  1
  H  H392  1  0.636900  0.729900  0.908200  1
  H  H393  1  0.831400  0.197600  0.448200  1
  H  H394  1  0.331400  0.302400  0.051800  1
  H  H395  1  0.168600  0.802400  0.551800  1
  H  H396  1  0.668600  0.697600  0.948200  1
  H  H397  1  0.792100  0.252100  0.320900  1
  H  H398  1  0.292100  0.247900  0.179100  1
  H  H399  1  0.207900  0.747900  0.679100  1
  H  H400  1  0.707900  0.752100  0.820900  1
  H  H401  1  0.847700  0.252400  0.359600  1
  H  H402  1  0.347700  0.247600  0.140400  1
  H  H403  1  0.152300  0.747600  0.640400  1
  H  H404  1  0.652300  0.752400  0.859600  1
  H  H405  1  0.667600  0.207900  0.465300  1
  H  H406  1  0.167600  0.292100  0.034700  1
  H  H407  1  0.332400  0.792100  0.534700  1
  H  H408  1  0.832400  0.707900  0.965300  1
  H  H409  1  0.640600  0.189200  0.509400  1
  H  H410  1  0.140600  0.310800  0.990600  1
  H  H411  1  0.359400  0.810800  0.490600  1
  H  H412  1  0.859400  0.689200  0.009400  1
  H  H413  1  0.691400  0.132200  0.531200  1
  H  H414  1  0.191400  0.367800  0.968800  1
  H  H415  1  0.308600  0.867800  0.468800  1
  H  H416  1  0.808600  0.632200  0.031200  1
  H  H417  1  0.796400  0.111000  0.463600  1
  H  H418  1  0.296400  0.389000  0.036400  1
  H  H419  1  0.203600  0.889000  0.536400  1
  H  H420  1  0.703600  0.611000  0.963600  1
  H  H421  1  0.847000  0.085100  0.493800  1
  H  H422  1  0.347000  0.414900  0.006200  1
  H  H423  1  0.153000  0.914900  0.506200  1
  H  H424  1  0.653000  0.585100  0.993800  1
  H  H425  1  0.929400  0.030900  0.499200  1
  H  H426  1  0.429400  0.469100  0.000800  1
  H  H427  1  0.070600  0.969100  0.500800  1
  H  H428  1  0.570600  0.530900  0.999200  1
  H  H429  1  0.968600  0.962700  0.517500  1
  H  H430  1  0.468600  0.537300  0.982500  1
  H  H431  1  0.031400  0.037300  0.482500  1
  H  H432  1  0.531400  0.462700  0.017500  1
  H  H433  1  0.916100  0.919200  0.547700  1
  H  H434  1  0.416100  0.580800  0.952300  1
  H  H435  1  0.083900  0.080800  0.452300  1
  H  H436  1  0.583900  0.419200  0.047700  1
  H  H437  1  0.826900  0.945600  0.558600  1
  H  H438  1  0.326900  0.554400  0.941400  1
  H  H439  1  0.173100  0.054400  0.441400  1
  H  H440  1  0.673100  0.445600  0.058600  1
  H  H441  1  0.813300  0.806400  0.941100  1
  H  H442  1  0.313300  0.693600  0.558900  1
  H  H443  1  0.186700  0.193600  0.058900  1
  H  H444  1  0.686700  0.306400  0.441100  1
  H  H445  1  0.866100  0.769000  0.901700  1
  H  H446  1  0.366100  0.731000  0.598300  1
  H  H447  1  0.133900  0.231000  0.098300  1
  H  H448  1  0.633900  0.269000  0.401700  1
  H  H449  1  0.862100  0.803500  0.859300  1
  H  H450  1  0.362100  0.696500  0.640700  1
  H  H451  1  0.137900  0.196500  0.140700  1
  H  H452  1  0.637900  0.303500  0.359300  1
  H  H453  1  0.802100  0.873600  0.857400  1
  H  H454  1  0.302100  0.626400  0.642600  1
  H  H455  1  0.197900  0.126400  0.142600  1
  H  H456  1  0.697900  0.373600  0.357400  1
  H  H457  1  0.731500  0.937400  0.882500  1
  H  H458  1  0.231500  0.562600  0.617500  1
  H  H459  1  0.268500  0.062600  0.117500  1
  H  H460  1  0.768500  0.437400  0.382500  1
  H  H461  1  0.646700  0.967100  0.885200  1
  H  H462  1  0.146700  0.532900  0.614800  1
  H  H463  1  0.353300  0.032900  0.114800  1
  H  H464  1  0.853300  0.467100  0.385200  1
  H  H465  1  0.592800  0.041900  0.887000  1
  H  H466  1  0.092800  0.458100  0.613000  1
  H  H467  1  0.407200  0.958100  0.113000  1
  H  H468  1  0.907200  0.541900  0.387000  1
  H  H469  1  0.596700  0.108600  0.925900  1
  H  H470  1  0.096700  0.391400  0.574100  1
  H  H471  1  0.403300  0.891400  0.074100  1
  H  H472  1  0.903300  0.608600  0.425900  1
  H  H473  1  0.707800  0.027600  0.963900  1
  H  H474  1  0.207800  0.472400  0.536100  1
  H  H475  1  0.292200  0.972400  0.036100  1
  H  H476  1  0.792200  0.527600  0.463900  1
  H  H477  1  0.574300  0.133500  0.975500  1
  H  H478  1  0.074300  0.366500  0.524500  1
  H  H479  1  0.425700  0.866500  0.024500  1
  H  H480  1  0.925700  0.633500  0.475500  1
  H  H481  1  0.572700  0.196200  0.017000  1
  H  H482  1  0.072700  0.303800  0.483000  1
  H  H483  1  0.427300  0.803800  0.983000  1
  H  H484  1  0.927300  0.696200  0.517000  1
  H  H485  1  0.761900  0.100700  0.959000  1
  H  H486  1  0.261900  0.399300  0.541000  1
  H  H487  1  0.238100  0.899300  0.041000  1
  H  H488  1  0.738100  0.600700  0.459000  1
  H  H489  1  0.839800  0.122500  0.985000  1
  H  H490  1  0.339800  0.377500  0.515000  1
  H  H491  1  0.160200  0.877500  0.015000  1
  H  H492  1  0.660200  0.622500  0.485000  1
  H  H493  1  0.877100  0.201500  0.079900  1
  H  H494  1  0.377100  0.298500  0.420100  1
  H  H495  1  0.122900  0.798500  0.920100  1
  H  H496  1  0.622900  0.701500  0.579900  1
  H  H497  1  0.884400  0.158300  0.031900  1
  H  H498  1  0.384400  0.341700  0.468100  1
  H  H499  1  0.115600  0.841700  0.968100  1
  H  H500  1  0.615600  0.658300  0.531900  1
  H  H501  1  0.693700  0.254400  0.090200  1
  H  H502  1  0.193700  0.245600  0.409800  1
  H  H503  1  0.306300  0.745600  0.909800  1
  H  H504  1  0.806300  0.754400  0.590200  1
  H  H505  1  0.618400  0.241200  0.061800  1
  H  H506  1  0.118400  0.258800  0.438200  1
  H  H507  1  0.381600  0.758800  0.938200  1
  H  H508  1  0.881600  0.741200  0.561800  1
  H  H509  1  0.771500  0.316500  0.102800  1
  H  H510  1  0.271500  0.183500  0.397200  1
  H  H511  1  0.228500  0.683500  0.897200  1
  H  H512  1  0.728500  0.816500  0.602800  1
  H  H513  1  0.776800  0.358800  0.150800  1
  H  H514  1  0.276800  0.141200  0.349200  1
  H  H515  1  0.223200  0.641200  0.849200  1
  H  H516  1  0.723200  0.858800  0.650800  1
  H  H517  1  0.798000  0.312400  0.187800  1
  H  H518  1  0.298000  0.187600  0.312200  1
  H  H519  1  0.202000  0.687600  0.812200  1
  H  H520  1  0.702000  0.812400  0.687800  1
  H  H521  1  0.816300  0.182300  0.127800  1
  H  H522  1  0.316300  0.317700  0.372200  1
  H  H523  1  0.183700  0.817700  0.872200  1
  H  H524  1  0.683700  0.682300  0.627800  1
  H  H525  1  0.866900  0.263700  0.204600  1
  H  H526  1  0.366900  0.236300  0.295400  1
  H  H527  1  0.133100  0.736300  0.795400  1
  H  H528  1  0.633100  0.763700  0.704600  1
  H  H529  1  0.913600  0.250200  0.250500  1
  H  H530  1  0.413600  0.249800  0.249500  1
  H  H531  1  0.086400  0.749800  0.749500  1
  H  H532  1  0.586400  0.750200  0.750500  1
  H  H533  1  0.921400  0.201900  0.288000  1
  H  H534  1  0.421400  0.298100  0.212000  1
  H  H535  1  0.078600  0.798100  0.712000  1
  H  H536  1  0.578600  0.701900  0.788000  1
  H  H537  1  0.866400  0.129000  0.286900  1
  H  H538  1  0.366400  0.371000  0.213100  1
  H  H539  1  0.133600  0.871000  0.713100  1
  H  H540  1  0.633600  0.629000  0.786900  1
  H  H541  1  0.807100  0.104000  0.248900  1
  H  H542  1  0.307100  0.396000  0.251100  1
  H  H543  1  0.192900  0.896000  0.751100  1
  H  H544  1  0.692900  0.604000  0.748900  1
  H  H545  1  0.824300  0.856700  0.256100  1
  H  H546  1  0.324300  0.643300  0.243900  1
  H  H547  1  0.175700  0.143300  0.743900  1
  H  H548  1  0.675700  0.356700  0.756100  1
  H  H549  1  0.873700  0.832700  0.213700  1
  H  H550  1  0.373700  0.667300  0.286300  1
  H  H551  1  0.126300  0.167300  0.786300  1
  H  H552  1  0.626300  0.332700  0.713700  1
  H  H553  1  0.920900  0.753800  0.205700  1
  H  H554  1  0.420900  0.746200  0.294300  1
  H  H555  1  0.079100  0.246200  0.794300  1
  H  H556  1  0.579100  0.253800  0.705700  1
  H  H557  1  0.922700  0.703500  0.243100  1
  H  H558  1  0.422700  0.796500  0.256900  1
  H  H559  1  0.077300  0.296500  0.756900  1
  H  H560  1  0.577300  0.203500  0.743100  1
  H  H561  1  0.889400  0.689500  0.291200  1
  H  H562  1  0.389400  0.810500  0.208800  1
  H  H563  1  0.110600  0.310500  0.708800  1
  H  H564  1  0.610600  0.189500  0.791200  1
  H  H565  1  0.835400  0.638500  0.313000  1
  H  H566  1  0.335400  0.861500  0.187000  1
  H  H567  1  0.164600  0.361500  0.687000  1
  H  H568  1  0.664600  0.138500  0.813000  1
  H  H569  1  0.821500  0.591800  0.350100  1
  H  H570  1  0.321500  0.908200  0.149900  1
  H  H571  1  0.178500  0.408200  0.649900  1
  H  H572  1  0.678500  0.091800  0.850100  1
  H  H573  1  0.817100  0.634200  0.397500  1
  H  H574  1  0.317100  0.865800  0.102500  1
  H  H575  1  0.182900  0.365800  0.602500  1
  H  H576  1  0.682900  0.134200  0.897500  1
  H  H577  1  0.842900  0.771600  0.371900  1
  H  H578  1  0.342900  0.728400  0.128100  1
  H  H579  1  0.157100  0.228400  0.628100  1
  H  H580  1  0.657100  0.271600  0.871900  1
  H  H581  1  0.907700  0.759100  0.421100  1
  H  H582  1  0.407700  0.740900  0.078900  1
  H  H583  1  0.092300  0.240900  0.578900  1
  H  H584  1  0.592300  0.259100  0.921100  1
  H  H585  1  0.909700  0.800700  0.469300  1
  H  H586  1  0.409700  0.699300  0.030700  1
  H  H587  1  0.090300  0.199300  0.530700  1
  H  H588  1  0.590300  0.300700  0.969300  1
  H  H589  1  0.731000  0.688200  0.408700  1
  H  H590  1  0.231000  0.811800  0.091300  1
  H  H591  1  0.269000  0.311800  0.591300  1
  H  H592  1  0.769000  0.188200  0.908700  1
  H  H593  1  0.654100  0.696400  0.435200  1
  H  H594  1  0.154100  0.803600  0.064800  1
  H  H595  1  0.345900  0.303600  0.564800  1
  H  H596  1  0.845900  0.196400  0.935200  1
  H  H597  1  0.599200  0.797600  0.522000  1
  H  H598  1  0.099200  0.702400  0.978000  1
  H  H599  1  0.400800  0.202400  0.478000  1
  H  H600  1  0.900800  0.297600  0.022000  1
  H  H601  1  0.602100  0.739400  0.480000  1
  H  H602  1  0.102100  0.760600  0.020000  1
  H  H603  1  0.397900  0.260600  0.520000  1
  H  H604  1  0.897900  0.239400  0.980000  1
  H  H605  1  0.782900  0.843000  0.541600  1
  H  H606  1  0.282900  0.657000  0.958400  1
  H  H607  1  0.217100  0.157000  0.458400  1
  H  H608  1  0.717100  0.343000  0.041600  1
  H  H609  1  0.862000  0.830300  0.515800  1
  H  H610  1  0.362000  0.669700  0.984200  1
  H  H611  1  0.138000  0.169700  0.484200  1
  H  H612  1  0.638000  0.330300  0.015800  1
  H  H613  1  0.619500  0.819500  0.572200  1
  H  H614  1  0.119500  0.680500  0.927800  1
  H  H615  1  0.380500  0.180500  0.427800  1
  H  H616  1  0.880500  0.319500  0.072200  1
  H  H617  1  0.610200  0.884700  0.612300  1
  H  H618  1  0.110200  0.615300  0.887700  1
  H  H619  1  0.389800  0.115300  0.387700  1
  H  H620  1  0.889800  0.384700  0.112300  1
  H  H621  1  0.656900  0.962200  0.616100  1
  H  H622  1  0.156900  0.537800  0.883900  1
  H  H623  1  0.343100  0.037800  0.383900  1
  H  H624  1  0.843100  0.462200  0.116100  1
  H  H625  1  0.723000  0.912900  0.537100  1
  H  H626  1  0.223000  0.587100  0.962900  1
  H  H627  1  0.277000  0.087100  0.462900  1
  H  H628  1  0.777000  0.412900  0.037100  1
  H  H629  1  0.740300  0.000700  0.619400  1
  H  H630  1  0.240300  0.499300  0.880600  1
  H  H631  1  0.259700  0.999300  0.380600  1
  H  H632  1  0.759700  0.500700  0.119400  1
  H  H633  1  0.800800  0.072600  0.646000  1
  H  H634  1  0.300800  0.427400  0.854000  1
  H  H635  1  0.199200  0.927400  0.354000  1
  H  H636  1  0.699200  0.572600  0.146000  1
  H  H637  1  0.850300  0.149700  0.645100  1
  H  H638  1  0.350300  0.350300  0.854900  1
  H  H639  1  0.149700  0.850300  0.354900  1
  H  H640  1  0.649700  0.649700  0.145100  1
  H  H641  1  0.852100  0.184000  0.602300  1
  H  H642  1  0.352100  0.316000  0.897700  1
  H  H643  1  0.147900  0.816000  0.397700  1
  H  H644  1  0.647900  0.684000  0.102300  1
  H  H645  1  0.802500  0.142600  0.562400  1
  H  H646  1  0.302500  0.357400  0.937600  1
  H  H647  1  0.197500  0.857400  0.437600  1
  H  H648  1  0.697500  0.642600  0.062400  1
  H  H649  1  0.581100  0.483200  0.945500  1
  H  H650  1  0.081100  0.016800  0.554500  1
  H  H651  1  0.418900  0.516800  0.054500  1
  H  H652  1  0.918900  0.983200  0.445500  1
  H  H653  1  0.531200  0.407200  0.946800  1
  H  H654  1  0.031200  0.092800  0.553200  1
  H  H655  1  0.468800  0.592800  0.053200  1
  H  H656  1  0.968800  0.907200  0.446800  1
  H  H657  1  0.450800  0.390400  0.919700  1
  H  H658  1  0.950800  0.109600  0.580300  1
  H  H659  1  0.549200  0.609600  0.080300  1
  H  H660  1  0.049200  0.890400  0.419700  1
  H  H661  1  0.420300  0.449500  0.891200  1
  H  H662  1  0.920300  0.050500  0.608800  1
  H  H663  1  0.579700  0.550500  0.108800  1
  H  H664  1  0.079700  0.949500  0.391200  1
  H  H665  1  0.470200  0.525600  0.889800  1
  H  H666  1  0.970200  0.974400  0.610200  1
  H  H667  1  0.529800  0.474400  0.110200  1
  H  H668  1  0.029800  0.025600  0.389800  1
  H  H669  1  0.550600  0.542400  0.917000  1
  H  H670  1  0.050600  0.957600  0.583000  1
  H  H671  1  0.449400  0.457600  0.083000  1
  H  H672  1  0.949400  0.042400  0.417000  1
  H  H673  1  0.948700  0.503600  0.891200  1
  H  H674  1  0.448700  0.996400  0.608800  1
  H  H675  1  0.051300  0.496400  0.108800  1
  H  H676  1  0.551300  0.003600  0.391200  1
  H  H677  1  0.879700  0.508800  0.926200  1
  H  H678  1  0.379700  0.991200  0.573800  1
  H  H679  1  0.120300  0.491200  0.073800  1
  H  H680  1  0.620300  0.008800  0.426200  1
  H  H681  1  0.886500  0.569600  0.969100  1
  H  H682  1  0.386500  0.930400  0.530900  1
  H  H683  1  0.113500  0.430400  0.030900  1
  H  H684  1  0.613500  0.069600  0.469100  1
  H  H685  1  0.962300  0.625100  0.977100  1
  H  H686  1  0.462300  0.874900  0.522900  1
  H  H687  1  0.037700  0.374900  0.022900  1
  H  H688  1  0.537700  0.125100  0.477100  1
  H  H689  1  0.031400  0.619800  0.942200  1
  H  H690  1  0.531400  0.880200  0.557800  1
  H  H691  1  0.968600  0.380200  0.057800  1
  H  H692  1  0.468600  0.119800  0.442200  1
  H  H693  1  0.024600  0.559100  0.899300  1
  H  H694  1  0.524600  0.940900  0.600700  1
  H  H695  1  0.975400  0.440900  0.100700  1
  H  H696  1  0.475400  0.059100  0.399300  1
  H  H697  1  0.521300  0.228800  0.181500  1
  H  H698  1  0.021300  0.271200  0.318500  1
  H  H699  1  0.478700  0.771200  0.818500  1
  H  H700  1  0.978700  0.728800  0.681500  1
  H  H701  1  0.558500  0.308000  0.174300  1
  H  H702  1  0.058500  0.192000  0.325700  1
  H  H703  1  0.441500  0.692000  0.825700  1
  H  H704  1  0.941500  0.808000  0.674300  1
  H  H705  1  0.598600  0.364400  0.213000  1
  H  H706  1  0.098600  0.135600  0.287000  1
  H  H707  1  0.401400  0.635600  0.787000  1
  H  H708  1  0.901400  0.864400  0.713000  1
  H  H709  1  0.601500  0.341500  0.258900  1
  H  H710  1  0.101500  0.158500  0.241100  1
  H  H711  1  0.398500  0.658500  0.741100  1
  H  H712  1  0.898500  0.841500  0.758900  1
  H  H713  1  0.564300  0.262300  0.266100  1
  H  H714  1  0.064300  0.237700  0.233900  1
  H  H715  1  0.435700  0.737700  0.733900  1
  H  H716  1  0.935700  0.762300  0.766100  1
  H  H717  1  0.524200  0.205900  0.227400  1
  H  H718  1  0.024200  0.294100  0.272600  1
  H  H719  1  0.475800  0.794100  0.772600  1
  H  H720  1  0.975800  0.705900  0.727400  1
  H  H721  1  0.033000  0.858200  0.922900  1
  H  H722  1  0.533000  0.641800  0.577100  1
  H  H723  1  0.967000  0.141800  0.077100  1
  H  H724  1  0.467000  0.358200  0.422900  1
  H  H725  1  0.954600  0.873600  0.897100  1
  H  H726  1  0.454600  0.626400  0.602900  1
  H  H727  1  0.045400  0.126400  0.102900  1
  H  H728  1  0.545400  0.373600  0.397100  1
  H  H729  1  0.932300  0.958600  0.891800  1
  H  H730  1  0.432300  0.541400  0.608200  1
  H  H731  1  0.067700  0.041400  0.108200  1
  H  H732  1  0.567700  0.458600  0.391800  1
  H  H733  1  0.988400  0.028100  0.912300  1
  H  H734  1  0.488400  0.471900  0.587700  1
  H  H735  1  0.011600  0.971900  0.087700  1
  H  H736  1  0.511600  0.528100  0.412300  1
  H  H737  1  0.066800  0.012600  0.938100  1
  H  H738  1  0.566800  0.487400  0.561900  1
  H  H739  1  0.933200  0.987400  0.061900  1
  H  H740  1  0.433200  0.512600  0.438100  1
  H  H741  1  0.089100  0.927700  0.943400  1
  H  H742  1  0.589100  0.572300  0.556600  1
  H  H743  1  0.910900  0.072300  0.056600  1
  H  H744  1  0.410900  0.427700  0.443400  1
  H  H745  1  0.059800  0.942900  0.323400  1
  H  H746  1  0.559800  0.557100  0.176600  1
  H  H747  1  0.940200  0.057100  0.676600  1
  H  H748  1  0.440200  0.442900  0.823400  1
  H  H749  1  0.973700  0.933800  0.301300  1
  H  H750  1  0.473700  0.566200  0.198700  1
  H  H751  1  0.026300  0.066200  0.698700  1
  H  H752  1  0.526300  0.433800  0.801300  1
  H  H753  1  0.959100  0.868900  0.260700  1
  H  H754  1  0.459100  0.631100  0.239300  1
  H  H755  1  0.040900  0.131100  0.739300  1
  H  H756  1  0.540900  0.368900  0.760700  1
  H  H757  1  0.030700  0.813100  0.242300  1
  H  H758  1  0.530700  0.686900  0.257700  1
  H  H759  1  0.969300  0.186900  0.757700  1
  H  H760  1  0.469300  0.313100  0.742300  1
  H  H761  1  0.116900  0.822300  0.264500  1
  H  H762  1  0.616900  0.677700  0.235500  1
  H  H763  1  0.883100  0.177700  0.735500  1
  H  H764  1  0.383100  0.322300  0.764500  1
  H  H765  1  0.131400  0.887100  0.305000  1
  H  H766  1  0.631400  0.612900  0.195000  1
  H  H767  1  0.868600  0.112900  0.695000  1
  H  H768  1  0.368600  0.387100  0.805000  1
  H  H769  1  0.487500  0.772900  0.114900  1
  H  H770  1  0.987500  0.727100  0.385100  1
  H  H771  1  0.512500  0.227100  0.885100  1
  H  H772  1  0.012500  0.272900  0.614900  1
  H  H773  1  0.510200  0.691600  0.125900  1
  H  H774  1  0.010200  0.808400  0.374100  1
  H  H775  1  0.489800  0.308400  0.874100  1
  H  H776  1  0.989800  0.191600  0.625900  1
  H  H777  1  0.522600  0.682200  0.174100  1
  H  H778  1  0.022600  0.817800  0.325900  1
  H  H779  1  0.477400  0.317800  0.825900  1
  H  H780  1  0.977400  0.182200  0.674100  1
  H  H781  1  0.512500  0.754200  0.211200  1
  H  H782  1  0.012500  0.745800  0.288800  1
  H  H783  1  0.487500  0.245800  0.788800  1
  H  H784  1  0.987500  0.254200  0.711200  1
  H  H785  1  0.489800  0.835500  0.200200  1
  H  H786  1  0.989800  0.664500  0.299800  1
  H  H787  1  0.510200  0.164500  0.799800  1
  H  H788  1  0.010200  0.335500  0.700200  1
  H  H789  1  0.477400  0.844900  0.152100  1
  H  H790  1  0.977400  0.655100  0.347900  1
  H  H791  1  0.522600  0.155100  0.847900  1
  H  H792  1  0.022600  0.344900  0.652100  1
  H  H793  1  0.051600  0.148500  0.172900  1
  H  H794  1  0.551600  0.351500  0.327100  1
  H  H795  1  0.948400  0.851500  0.827100  1
  H  H796  1  0.448400  0.648500  0.672900  1
  H  H797  1  0.974200  0.165000  0.202500  1
  H  H798  1  0.474200  0.335000  0.297500  1
  H  H799  1  0.025800  0.835000  0.797500  1
  H  H800  1  0.525800  0.665000  0.702500  1
  H  H801  1  0.936900  0.098700  0.224100  1
  H  H802  1  0.436900  0.401300  0.275900  1
  H  H803  1  0.063100  0.901300  0.775900  1
  H  H804  1  0.563100  0.598700  0.724100  1
  H  H805  1  0.977000  0.016000  0.216000  1
  H  H806  1  0.477000  0.484000  0.284000  1
  H  H807  1  0.023000  0.984000  0.784000  1
  H  H808  1  0.523000  0.516000  0.716000  1
  H  H809  1  0.054300  0.999500  0.186400  1
  H  H810  1  0.554300  0.500500  0.313600  1
  H  H811  1  0.945700  0.000500  0.813600  1
  H  H812  1  0.445700  0.499500  0.686400  1
  H  H813  1  0.091600  0.065700  0.164900  1
  H  H814  1  0.591600  0.434300  0.335100  1
  H  H815  1  0.908400  0.934300  0.835100  1
  H  H816  1  0.408400  0.565700  0.664900  1
  H  H817  1  0.565900  0.897500  0.123200  1
  H  H818  1  0.065900  0.602500  0.376800  1
  H  H819  1  0.434100  0.102500  0.876800  1
  H  H820  1  0.934100  0.397500  0.623200  1
  H  H821  1  0.511000  0.878200  0.106000  1
  H  H822  1  0.011000  0.621800  0.394000  1
  H  H823  1  0.489000  0.121800  0.894000  1
  H  H824  1  0.989000  0.378200  0.606000  1
  H  H825  1  0.519700  0.938700  0.118500  1
  H  H826  1  0.019700  0.561300  0.381500  1
  H  H827  1  0.480300  0.061300  0.881500  1
  H  H828  1  0.980300  0.438700  0.618500  1
  H  H829  1  0.507000  0.664100  0.860200  1
  H  H830  1  0.007000  0.835900  0.639800  1
  H  H831  1  0.493000  0.335900  0.139800  1
  H  H832  1  0.993000  0.164100  0.360200  1
  H  H833  1  0.560000  0.684700  0.878800  1
  H  H834  1  0.060000  0.815300  0.621200  1
  H  H835  1  0.440000  0.315300  0.121200  1
  H  H836  1  0.940000  0.184700  0.378800  1
  H  H837  1  0.542400  0.710900  0.851900  1
  H  H838  1  0.042400  0.789100  0.648100  1
  H  H839  1  0.457600  0.289100  0.148100  1
  H  H840  1  0.957600  0.210900  0.351900  1
  H  H841  1  0.004900  0.082300  0.279600  1
  H  H842  1  0.504900  0.417700  0.220400  1
  H  H843  1  0.995100  0.917700  0.720400  1
  H  H844  1  0.495100  0.582300  0.779600  1
  H  H845  1  0.972900  0.028000  0.273000  1
  H  H846  1  0.472900  0.472000  0.227000  1
  H  H847  1  0.027100  0.972000  0.727000  1
  H  H848  1  0.527100  0.528000  0.773000  1
  H  H849  1  0.024300  0.034900  0.294500  1
  H  H850  1  0.524300  0.465100  0.205500  1
  H  H851  1  0.975700  0.965100  0.705500  1
  H  H852  1  0.475700  0.534900  0.794500  1
  H  H853  1  0.922300  0.054100  0.750700  1
  H  H854  1  0.422300  0.445900  0.749300  1
  H  H855  1  0.077700  0.945900  0.249300  1
  H  H856  1  0.577700  0.554100  0.250700  1
  H  H857  1  0.858700  0.039000  0.749800  1
  H  H858  1  0.358700  0.461000  0.750200  1
  H  H859  1  0.141300  0.961000  0.250200  1
  H  H860  1  0.641300  0.539000  0.249800  1
  H  H861  1  0.898700  0.018200  0.772200  1
  H  H862  1  0.398700  0.481800  0.727800  1
  H  H863  1  0.101300  0.981800  0.227800  1
  H  H864  1  0.601300  0.518200  0.272200  1
  H  H865  1  0.528800  0.255600  0.173300  1
  H  H866  1  0.028800  0.244400  0.326700  1
  H  H867  1  0.471200  0.744400  0.826700  1
  H  H868  1  0.971200  0.755600  0.673300  1
  H  H869  1  0.565600  0.338200  0.190300  1
  H  H870  1  0.065600  0.161800  0.309700  1
  H  H871  1  0.434400  0.661800  0.809700  1
  H  H872  1  0.934400  0.838200  0.690300  1
  H  H873  1  0.594300  0.360500  0.238400  1
  H  H874  1  0.094300  0.139500  0.261600  1
  H  H875  1  0.405700  0.639500  0.761600  1
  H  H876  1  0.905700  0.860500  0.738400  1
  H  H877  1  0.586300  0.300200  0.269500  1
  H  H878  1  0.086300  0.199800  0.230500  1
  H  H879  1  0.413700  0.699800  0.730500  1
  H  H880  1  0.913700  0.800200  0.769500  1
  H  H881  1  0.549500  0.217700  0.252600  1
  H  H882  1  0.049500  0.282300  0.247400  1
  H  H883  1  0.450500  0.782300  0.747400  1
  H  H884  1  0.950500  0.717700  0.752600  1
  H  H885  1  0.520800  0.195400  0.204400  1
  H  H886  1  0.020800  0.304600  0.295600  1
  H  H887  1  0.479200  0.804600  0.795600  1
  H  H888  1  0.979200  0.695400  0.704400  1
  H  H889  1  0.965200  0.012300  0.898400  1
  H  H890  1  0.465200  0.487700  0.601600  1
  H  H891  1  0.034800  0.987700  0.101600  1
  H  H892  1  0.534800  0.512300  0.398400  1
  H  H893  1  0.044300  0.027100  0.926800  1
  H  H894  1  0.544300  0.472900  0.573200  1
  H  H895  1  0.955700  0.972900  0.073200  1
  H  H896  1  0.455700  0.527100  0.426800  1
  H  H897  1  0.080600  0.960500  0.948500  1
  H  H898  1  0.580600  0.539500  0.551500  1
  H  H899  1  0.919400  0.039500  0.051500  1
  H  H900  1  0.419400  0.460500  0.448500  1
  H  H901  1  0.037700  0.879100  0.941700  1
  H  H902  1  0.537700  0.620900  0.558300  1
  H  H903  1  0.962300  0.120900  0.058300  1
  H  H904  1  0.462300  0.379100  0.441700  1
  H  H905  1  0.958600  0.864300  0.913400  1
  H  H906  1  0.458600  0.635700  0.586600  1
  H  H907  1  0.041400  0.135700  0.086600  1
  H  H908  1  0.541400  0.364300  0.413400  1
  H  H909  1  0.922300  0.930900  0.891700  1
  H  H910  1  0.422300  0.569100  0.608300  1
  H  H911  1  0.077700  0.069100  0.108300  1
  H  H912  1  0.577700  0.430900  0.391700  1
  H  H913  1  0.507000  0.713800  0.108900  1
  H  H914  1  0.007000  0.786200  0.391100  1
  H  H915  1  0.493000  0.286200  0.891100  1
  H  H916  1  0.993000  0.213800  0.608900  1
  H  H917  1  0.527900  0.665700  0.145000  1
  H  H918  1  0.027900  0.834300  0.355000  1
  H  H919  1  0.472100  0.334300  0.855000  1
  H  H920  1  0.972100  0.165700  0.645000  1
  H  H921  1  0.523900  0.705300  0.193800  1
  H  H922  1  0.023900  0.794700  0.306200  1
  H  H923  1  0.476100  0.294700  0.806200  1
  H  H924  1  0.976100  0.205300  0.693800  1
  H  H925  1  0.499000  0.792900  0.206400  1
  H  H926  1  0.999000  0.707100  0.293600  1
  H  H927  1  0.501000  0.207100  0.793600  1
  H  H928  1  0.001000  0.292900  0.706400  1
  H  H929  1  0.478100  0.841000  0.170300  1
  H  H930  1  0.978100  0.659000  0.329700  1
  H  H931  1  0.521900  0.159000  0.829700  1
  H  H932  1  0.021900  0.341000  0.670300  1
  H  H933  1  0.482100  0.801500  0.121600  1
  H  H934  1  0.982100  0.698500  0.378400  1
  H  H935  1  0.517900  0.198500  0.878400  1
  H  H936  1  0.017900  0.301500  0.621600  1
  H  H937  1  0.452400  0.980700  0.956400  1.0
  H  H938  1  0.952400  0.519300  0.543600  1.0
  H  H939  1  0.547600  0.019300  0.043600  1.0
  H  H940  1  0.047600  0.480700  0.456400  1.0
  H  H941  1  0.585900  0.039700  0.001600  1.0
  H  H942  1  0.085900  0.460300  0.498400  1.0
  H  H943  1  0.414100  0.960300  0.998400  1.0
  H  H944  1  0.914100  0.539700  0.501600  1.0
  H  H945  1  0.535600  0.021100  0.957800  1.0
  H  H946  1  0.035600  0.478900  0.542200  1.0
  H  H947  1  0.464400  0.978900  0.042200  1.0
  H  H948  1  0.964400  0.521100  0.457800  1.0
  C  C949  1  0.743000  0.837500  0.373630  1
  C  C950  1  0.243000  0.662500  0.126370  1
  C  C951  1  0.257000  0.162500  0.626370  1
  C  C952  1  0.757000  0.337500  0.873630  1
  C  C953  1  0.707800  0.831600  0.396000  1
  C  C954  1  0.207800  0.668400  0.104000  1
  C  C955  1  0.292200  0.168400  0.604000  1
  C  C956  1  0.792200  0.331600  0.896000  1
  C  C957  1  0.671100  0.791500  0.392200  1
  C  C958  1  0.171100  0.708500  0.107800  1
  C  C959  1  0.328900  0.208500  0.607800  1
  C  C960  1  0.828900  0.291500  0.892200  1
  C  C961  1  0.669400  0.756800  0.366600  1
  C  C962  1  0.169400  0.743200  0.133400  1
  C  C963  1  0.330600  0.243200  0.633400  1
  C  C964  1  0.830600  0.256800  0.866600  1
  C  C965  1  0.706600  0.764700  0.344390  1
  C  C966  1  0.206600  0.735300  0.155610  1
  C  C967  1  0.293400  0.235300  0.655610  1
  C  C968  1  0.793400  0.264700  0.844390  1
  C  C969  1  0.706900  0.731300  0.316030  1
  C  C970  1  0.206900  0.768700  0.183970  1
  C  C971  1  0.293100  0.268700  0.683970  1
  C  C972  1  0.793100  0.231300  0.816030  1
  C  C973  1  0.737900  0.711100  0.268280  1
  C  C974  1  0.237900  0.788900  0.231720  1
  C  C975  1  0.262100  0.288900  0.731720  1
  C  C976  1  0.762100  0.211100  0.768280  1
  C  C977  1  0.748200  0.658500  0.265480  1
  C  C978  1  0.248200  0.841500  0.234520  1
  C  C979  1  0.251800  0.341500  0.734520  1
  C  C980  1  0.751800  0.158500  0.765480  1
  C  C981  1  0.751200  0.629500  0.237800  1
  C  C982  1  0.251200  0.870500  0.262200  1
  C  C983  1  0.248800  0.370500  0.762200  1
  C  C984  1  0.748800  0.129500  0.737800  1
  C  C985  1  0.742600  0.652100  0.214110  1
  C  C986  1  0.242600  0.847900  0.285890  1
  C  C987  1  0.257400  0.347900  0.785890  1
  C  C988  1  0.757400  0.152100  0.714110  1
  C  C989  1  0.731100  0.703900  0.216780  1
  C  C990  1  0.231100  0.796100  0.283220  1
  C  C991  1  0.268900  0.296100  0.783220  1
  C  C992  1  0.768900  0.203900  0.716780  1
  C  C993  1  0.730000  0.733900  0.244190  1
  C  C994  1  0.230000  0.766100  0.255810  1
  C  C995  1  0.270000  0.266100  0.755810  1
  C  C996  1  0.770000  0.233900  0.744190  1
  C  C997  1  0.715400  0.728800  0.191330  1
  C  C998  1  0.215400  0.771200  0.308670  1
  C  C999  1  0.284600  0.271200  0.808670  1
  C  C1000  1  0.784600  0.228800  0.691330  1
  C  C1001  1  0.665200  0.752200  0.191530  1
  C  C1002  1  0.165200  0.747800  0.308470  1
  C  C1003  1  0.334800  0.247800  0.808470  1
  C  C1004  1  0.834800  0.252200  0.691530  1
  C  C1005  1  0.646300  0.773600  0.168900  1
  C  C1006  1  0.146300  0.726400  0.331100  1
  C  C1007  1  0.353700  0.226400  0.831100  1
  C  C1008  1  0.853700  0.273600  0.668900  1
  C  C1009  1  0.679800  0.773300  0.144440  1
  C  C1010  1  0.179800  0.726700  0.355560  1
  C  C1011  1  0.320200  0.226700  0.855560  1
  C  C1012  1  0.820200  0.273300  0.644440  1
  C  C1013  1  0.732300  0.750500  0.143830  1
  C  C1014  1  0.232300  0.749500  0.356170  1
  C  C1015  1  0.267700  0.249500  0.856170  1
  C  C1016  1  0.767700  0.250500  0.643830  1
  C  C1017  1  0.750400  0.728100  0.167540  1
  C  C1018  1  0.250400  0.771900  0.332460  1
  C  C1019  1  0.249600  0.271900  0.832460  1
  C  C1020  1  0.749600  0.228100  0.667540  1
  C  C1021  1  0.804900  0.708400  0.166210  1
  C  C1022  1  0.304900  0.791600  0.333790  1
  C  C1023  1  0.195100  0.291600  0.833790  1
  C  C1024  1  0.695100  0.208400  0.666210  1
  C  C1025  1  0.838200  0.709400  0.143900  1
  C  C1026  1  0.338200  0.790600  0.356100  1
  C  C1027  1  0.161800  0.290600  0.856100  1
  C  C1028  1  0.661800  0.209400  0.643900  1
  C  C1029  1  0.820200  0.729800  0.118930  1
  C  C1030  1  0.320200  0.770200  0.381070  1
  C  C1031  1  0.179800  0.270200  0.881070  1
  C  C1032  1  0.679800  0.229800  0.618930  1
  C  C1033  1  0.766000  0.750000  0.118970  1
  C  C1034  1  0.266000  0.750000  0.381030  1
  C  C1035  1  0.234000  0.250000  0.881030  1
  C  C1036  1  0.734000  0.250000  0.618970  1
  C  C1037  1  0.746500  0.770200  0.094840  1
  C  C1038  1  0.246500  0.729800  0.405160  1
  C  C1039  1  0.253500  0.229800  0.905160  1
  C  C1040  1  0.753500  0.270200  0.594840  1
  C  C1041  1  0.781000  0.768000  0.070540  1
  C  C1042  1  0.281000  0.732000  0.429460  1
  C  C1043  1  0.219000  0.232000  0.929460  1
  C  C1044  1  0.719000  0.268000  0.570540  1
  C  C1045  1  0.834300  0.751100  0.071630  1
  C  C1046  1  0.334300  0.748900  0.428370  1
  C  C1047  1  0.165700  0.248900  0.928370  1
  C  C1048  1  0.665700  0.251100  0.571630  1
  C  C1049  1  0.853600  0.731800  0.095350  1
  C  C1050  1  0.353600  0.768200  0.404650  1
  C  C1051  1  0.146400  0.268200  0.904650  1
  C  C1052  1  0.646400  0.231800  0.595350  1
  C  C1053  1  0.661600  0.794900  0.120140  1
  C  C1054  1  0.161600  0.705100  0.379860  1
  C  C1055  1  0.338400  0.205100  0.879860  1
  C  C1056  1  0.838400  0.294900  0.620140  1
  C  C1057  1  0.693600  0.793400  0.096410  1
  C  C1058  1  0.193600  0.706600  0.403590  1
  C  C1059  1  0.306400  0.206600  0.903590  1
  C  C1060  1  0.806400  0.293400  0.596410  1
  C  C1061  1  0.759400  0.782400  0.042990  1
  C  C1062  1  0.259400  0.717600  0.457010  1
  C  C1063  1  0.240600  0.217600  0.957010  1
  C  C1064  1  0.740600  0.282400  0.542990  1
  C  C1065  1  0.785600  0.819700  0.029980  1
  C  C1066  1  0.285600  0.680300  0.470020  1
  C  C1067  1  0.214400  0.180300  0.970020  1
  C  C1068  1  0.714400  0.319700  0.529980  1
  C  C1069  1  0.766600  0.830200  0.003570  1
  C  C1070  1  0.266600  0.669800  0.496430  1
  C  C1071  1  0.233400  0.169800  0.996430  1
  C  C1072  1  0.733400  0.330200  0.503570  1
  C  C1073  1  0.722700  0.801200  0.989940  1
  C  C1074  1  0.222700  0.698800  0.510060  1
  C  C1075  1  0.277300  0.198800  0.010060  1
  C  C1076  1  0.777300  0.301200  0.489940  1
  C  C1077  1  0.696800  0.764600  0.002930  1
  C  C1078  1  0.196800  0.735400  0.497070  1
  C  C1079  1  0.303200  0.235400  0.997070  1
  C  C1080  1  0.803200  0.264600  0.502930  1
  C  C1081  1  0.714800  0.755400  0.029370  1
  C  C1082  1  0.214800  0.744600  0.470630  1
  C  C1083  1  0.285200  0.244600  0.970630  1
  C  C1084  1  0.785200  0.255400  0.529370  1
  C  C1085  1  0.835100  0.890300  0.996970  1
  C  C1086  1  0.335100  0.609700  0.503030  1
  C  C1087  1  0.164900  0.109700  0.003030  1
  C  C1088  1  0.664900  0.390300  0.496970  1
  C  C1089  1  0.853800  0.933900  0.984640  1
  C  C1090  1  0.353800  0.566100  0.515360  1
  C  C1091  1  0.146200  0.066100  0.015360  1
  C  C1092  1  0.646200  0.433900  0.484640  1
  C  C1093  1  0.904400  0.957200  0.991790  1
  C  C1094  1  0.404400  0.542800  0.508210  1
  C  C1095  1  0.095600  0.042800  0.008210  1
  C  C1096  1  0.595600  0.457200  0.491790  1
  C  C1097  1  0.919500  0.000000  0.979600  1
  C  C1098  1  0.419500  0.500000  0.520400  1
  C  C1099  1  0.080500  1.000000  0.020400  1
  C  C1100  1  0.580500  0.500000  0.479600  1
  C  C1101  1  0.883600  0.017200  0.960310  1
  C  C1102  1  0.383600  0.482800  0.539690  1
  C  C1103  1  0.116400  0.982800  0.039690  1
  C  C1104  1  0.616400  0.517200  0.460310  1
  C  C1105  1  0.834100  0.992800  0.954670  1
  C  C1106  1  0.334100  0.507200  0.545330  1
  C  C1107  1  0.165900  0.007200  0.045330  1
  C  C1108  1  0.665900  0.492800  0.454670  1
  C  C1109  1  0.889100  0.868000  0.347270  1
  C  C1110  1  0.389100  0.632000  0.152730  1
  C  C1111  1  0.110900  0.132000  0.652730  1
  C  C1112  1  0.610900  0.368000  0.847270  1
  C  C1113  1  0.918600  0.912200  0.357900  1
  C  C1114  1  0.418600  0.587800  0.142100  1
  C  C1115  1  0.081400  0.087800  0.642100  1
  C  C1116  1  0.581400  0.412200  0.857900  1
  C  C1117  1  0.904100  0.958100  0.350290  1
  C  C1118  1  0.404100  0.541900  0.149710  1
  C  C1119  1  0.095900  0.041900  0.649710  1
  C  C1120  1  0.595900  0.458100  0.850290  1
  C  C1121  1  0.858000  0.960700  0.333550  1
  C  C1122  1  0.358000  0.539300  0.166450  1
  C  C1123  1  0.142000  0.039300  0.666450  1
  C  C1124  1  0.642000  0.460700  0.833550  1
  C  C1125  1  0.828200  0.915000  0.324830  1
  C  C1126  1  0.328200  0.585000  0.175170  1
  C  C1127  1  0.171800  0.085000  0.675170  1
  C  C1128  1  0.671800  0.415000  0.824830  1
  C  C1129  1  0.778700  0.914600  0.307110  1
  C  C1130  1  0.278700  0.585400  0.192890  1
  C  C1131  1  0.221300  0.085400  0.692890  1
  C  C1132  1  0.721300  0.414600  0.807110  1
  C  C1133  1  0.704600  0.869900  0.282210  1
  C  C1134  1  0.204600  0.630100  0.217790  1
  C  C1135  1  0.295400  0.130100  0.717790  1
  C  C1136  1  0.795400  0.369900  0.782210  1
  C  C1137  1  0.658100  0.843700  0.289740  1
  C  C1138  1  0.158100  0.656300  0.210260  1
  C  C1139  1  0.341900  0.156300  0.710260  1
  C  C1140  1  0.841900  0.343700  0.789740  1
  C  C1141  1  0.613600  0.839300  0.272250  1
  C  C1142  1  0.113600  0.660700  0.227750  1
  C  C1143  1  0.386400  0.160700  0.727750  1
  C  C1144  1  0.886400  0.339300  0.772250  1
  C  C1145  1  0.615900  0.858600  0.246060  1
  C  C1146  1  0.115900  0.641400  0.253940  1
  C  C1147  1  0.384100  0.141400  0.753940  1
  C  C1148  1  0.884100  0.358600  0.746060  1
  C  C1149  1  0.660100  0.884800  0.238700  1
  C  C1150  1  0.160100  0.615200  0.261300  1
  C  C1151  1  0.339900  0.115200  0.761300  1
  C  C1152  1  0.839900  0.384800  0.738700  1
  C  C1153  1  0.706100  0.889500  0.257020  1
  C  C1154  1  0.206100  0.610500  0.242980  1
  C  C1155  1  0.293900  0.110500  0.742980  1
  C  C1156  1  0.793900  0.389500  0.757020  1
  C  C1157  1  0.659300  0.908500  0.212130  1
  C  C1158  1  0.159300  0.591500  0.287870  1
  C  C1159  1  0.340700  0.091500  0.787870  1
  C  C1160  1  0.840700  0.408500  0.712130  1
  C  C1161  1  0.613700  0.939000  0.208560  1
  C  C1162  1  0.113700  0.561000  0.291440  1
  C  C1163  1  0.386300  0.061000  0.791440  1
  C  C1164  1  0.886300  0.439000  0.708560  1
  C  C1165  1  0.609200  0.964800  0.185240  1
  C  C1166  1  0.109200  0.535200  0.314760  1
  C  C1167  1  0.390800  0.035200  0.814760  1
  C  C1168  1  0.890800  0.464800  0.685240  1
  C  C1169  1  0.650400  0.959900  0.164440  1
  C  C1170  1  0.150400  0.540100  0.335560  1
  C  C1171  1  0.349600  0.040100  0.835560  1
  C  C1172  1  0.849600  0.459900  0.664440  1
  C  C1173  1  0.696200  0.926700  0.166140  1
  C  C1174  1  0.196200  0.573300  0.333860  1
  C  C1175  1  0.303800  0.073300  0.833860  1
  C  C1176  1  0.803800  0.426700  0.666140  1
  C  C1177  1  0.701600  0.900700  0.190610  1
  C  C1178  1  0.201600  0.599300  0.309390  1
  C  C1179  1  0.298400  0.099300  0.809390  1
  C  C1180  1  0.798400  0.400700  0.690610  1
  C  C1181  1  0.747000  0.867700  0.191140  1
  C  C1182  1  0.247000  0.632300  0.308860  1
  C  C1183  1  0.253000  0.132300  0.808860  1
  C  C1184  1  0.753000  0.367700  0.691140  1
  C  C1185  1  0.784900  0.860400  0.170470  1
  C  C1186  1  0.284900  0.639600  0.329530  1
  C  C1187  1  0.215100  0.139600  0.829530  1
  C  C1188  1  0.715100  0.360400  0.670470  1
  C  C1189  1  0.782400  0.886900  0.145920  1
  C  C1190  1  0.282400  0.613100  0.354080  1
  C  C1191  1  0.217600  0.113100  0.854080  1
  C  C1192  1  0.717600  0.386900  0.645920  1
  C  C1193  1  0.736900  0.920200  0.144560  1
  C  C1194  1  0.236900  0.579800  0.355440  1
  C  C1195  1  0.263100  0.079800  0.855440  1
  C  C1196  1  0.763100  0.420200  0.644560  1
  C  C1197  1  0.732300  0.946700  0.120370  1
  C  C1198  1  0.232300  0.553300  0.379630  1
  C  C1199  1  0.267700  0.053300  0.879630  1
  C  C1200  1  0.767700  0.446700  0.620370  1
  C  C1201  1  0.773200  0.940100  0.099150  1
  C  C1202  1  0.273200  0.559900  0.400850  1
  C  C1203  1  0.226800  0.059900  0.900850  1
  C  C1204  1  0.726800  0.440100  0.599150  1
  C  C1205  1  0.816800  0.906900  0.101550  1
  C  C1206  1  0.316800  0.593100  0.398450  1
  C  C1207  1  0.183200  0.093100  0.898450  1
  C  C1208  1  0.683200  0.406900  0.601550  1
  C  C1209  1  0.821900  0.881000  0.124290  1
  C  C1210  1  0.321900  0.619000  0.375710  1
  C  C1211  1  0.178100  0.119000  0.875710  1
  C  C1212  1  0.678100  0.381000  0.624290  1
  C  C1213  1  0.685900  0.980000  0.119480  1
  C  C1214  1  0.185900  0.520000  0.380520  1
  C  C1215  1  0.314100  0.020000  0.880520  1
  C  C1216  1  0.814100  0.480000  0.619480  1
  C  C1217  1  0.648100  0.986200  0.140220  1
  C  C1218  1  0.148100  0.513800  0.359780  1
  C  C1219  1  0.351900  0.013800  0.859780  1
  C  C1220  1  0.851900  0.486200  0.640220  1
  C  C1221  1  0.768800  0.967200  0.073540  1
  C  C1222  1  0.268800  0.532800  0.426460  1
  C  C1223  1  0.231200  0.032800  0.926460  1
  C  C1224  1  0.731200  0.467200  0.573540  1
  C  C1225  1  0.797500  0.013000  0.073060  1
  C  C1226  1  0.297500  0.487000  0.426940  1
  C  C1227  1  0.202500  0.987000  0.926940  1
  C  C1228  1  0.702500  0.513000  0.573060  1
  C  C1229  1  0.793500  0.038500  0.050060  1
  C  C1230  1  0.293500  0.461500  0.449940  1
  C  C1231  1  0.206500  0.961500  0.949940  1
  C  C1232  1  0.706500  0.538500  0.550060  1
  C  C1233  1  0.761600  0.017400  0.026190  1
  C  C1234  1  0.261600  0.482600  0.473810  1
  C  C1235  1  0.238400  0.982600  0.973810  1
  C  C1236  1  0.738400  0.517400  0.526190  1
  C  C1237  1  0.734000  0.971400  0.026240  1
  C  C1238  1  0.234000  0.528600  0.473760  1
  C  C1239  1  0.266000  0.028600  0.973760  1
  C  C1240  1  0.766000  0.471400  0.526240  1
  C  C1241  1  0.737100  0.946600  0.050040  1
  C  C1242  1  0.237100  0.553400  0.449960  1
  C  C1243  1  0.262900  0.053400  0.949960  1
  C  C1244  1  0.762900  0.446600  0.550040  1
  C  C1245  1  0.656100  0.929500  0.003750  1
  C  C1246  1  0.156100  0.570500  0.496250  1
  C  C1247  1  0.343900  0.070500  0.996250  1
  C  C1248  1  0.843900  0.429500  0.503750  1
  C  C1249  1  0.629400  0.898700  0.979030  1
  C  C1250  1  0.129400  0.601300  0.520970  1
  C  C1251  1  0.370600  0.101300  0.020970  1
  C  C1252  1  0.870600  0.398700  0.479030  1
  C  C1253  1  0.574200  0.885500  0.979100  1
  C  C1254  1  0.074200  0.614500  0.520900  1
  C  C1255  1  0.425800  0.114500  0.020900  1
  C  C1256  1  0.925800  0.385500  0.479100  1
  C  C1257  1  0.552100  0.855300  0.954600  1
  C  C1258  1  0.052100  0.644700  0.545400  1
  C  C1259  1  0.447900  0.144700  0.045400  1
  C  C1260  1  0.947900  0.355300  0.454600  1
  C  C1261  1  0.584300  0.841300  0.931100  1
  C  C1262  1  0.084300  0.658700  0.568900  1
  C  C1263  1  0.415700  0.158700  0.068900  1
  C  C1264  1  0.915700  0.341300  0.431100  1
  C  C1265  1  0.639200  0.855800  0.932230  1
  C  C1266  1  0.139200  0.644200  0.567770  1
  C  C1267  1  0.360800  0.144200  0.067770  1
  C  C1268  1  0.860800  0.355800  0.432230  1
  C  C1269  1  0.873800  0.096100  0.154280  1
  C  C1270  1  0.373800  0.403900  0.345720  1
  C  C1271  1  0.126200  0.903900  0.845720  1
  C  C1272  1  0.626200  0.596100  0.654280  1
  C  C1273  1  0.910000  0.055900  0.143550  1
  C  C1274  1  0.410000  0.444100  0.356450  1
  C  C1275  1  0.090000  0.944100  0.856450  1
  C  C1276  1  0.590000  0.555900  0.643550  1
  C  C1277  1  0.901000  0.008300  0.149400  1
  C  C1278  1  0.401000  0.491700  0.350600  1
  C  C1279  1  0.099000  0.991700  0.850600  1
  C  C1280  1  0.599000  0.508300  0.649400  1
  C  C1281  1  0.856700  0.999800  0.166830  1
  C  C1282  1  0.356700  0.500200  0.333170  1
  C  C1283  1  0.143300  0.000200  0.833170  1
  C  C1284  1  0.643300  0.499800  0.666830  1
  C  C1285  1  0.821400  0.040700  0.176120  1
  C  C1286  1  0.321400  0.459300  0.323880  1
  C  C1287  1  0.178600  0.959300  0.823880  1
  C  C1288  1  0.678600  0.540700  0.676120  1
  C  C1289  1  0.772600  0.035300  0.193750  1
  C  C1290  1  0.272600  0.464700  0.306250  1
  C  C1291  1  0.227400  0.964700  0.806250  1
  C  C1292  1  0.727400  0.535300  0.693750  1
  C  C1293  1  0.694800  0.071400  0.218840  1
  C  C1294  1  0.194800  0.428600  0.281160  1
  C  C1295  1  0.305200  0.928600  0.781160  1
  C  C1296  1  0.805200  0.571400  0.718840  1
  C  C1297  1  0.645100  0.092700  0.211780  1
  C  C1298  1  0.145100  0.407300  0.288220  1
  C  C1299  1  0.354900  0.907300  0.788220  1
  C  C1300  1  0.854900  0.592700  0.711780  1
  C  C1301  1  0.600700  0.093200  0.229120  1
  C  C1302  1  0.100700  0.406800  0.270880  1
  C  C1303  1  0.399300  0.906800  0.770880  1
  C  C1304  1  0.899300  0.593200  0.729120  1
  C  C1305  1  0.604400  0.072700  0.254600  1
  C  C1306  1  0.104400  0.427300  0.245400  1
  C  C1307  1  0.395600  0.927300  0.745400  1
  C  C1308  1  0.895600  0.572700  0.754600  1
  C  C1309  1  0.653100  0.051500  0.262240  1
  C  C1310  1  0.153100  0.448500  0.237760  1
  C  C1311  1  0.346900  0.948500  0.737760  1
  C  C1312  1  0.846900  0.551500  0.762240  1
  C  C1313  1  0.698500  0.050600  0.244080  1
  C  C1314  1  0.198500  0.449400  0.255920  1
  C  C1315  1  0.301500  0.949400  0.755920  1
  C  C1316  1  0.801500  0.550600  0.744080  1
  C  C1317  1  0.654400  0.027400  0.289020  1
  C  C1318  1  0.154400  0.472600  0.210980  1
  C  C1319  1  0.345600  0.972600  0.710980  1
  C  C1320  1  0.845600  0.527400  0.789020  1
  C  C1321  1  0.613300  0.992500  0.292320  1
  C  C1322  1  0.113300  0.507500  0.207680  1
  C  C1323  1  0.386700  0.007500  0.707680  1
  C  C1324  1  0.886700  0.492500  0.792320  1
  C  C1325  1  0.610900  0.967400  0.315830  1
  C  C1326  1  0.110900  0.532600  0.184170  1
  C  C1327  1  0.389100  0.032600  0.684170  1
  C  C1328  1  0.889100  0.467400  0.815830  1
  C  C1329  1  0.650400  0.977000  0.337300  1
  C  C1330  1  0.150400  0.523000  0.162700  1
  C  C1331  1  0.349600  0.023000  0.662700  1
  C  C1332  1  0.849600  0.477000  0.837300  1
  C  C1333  1  0.692500  0.014100  0.335240  1
  C  C1334  1  0.192500  0.485900  0.164760  1
  C  C1335  1  0.307500  0.985900  0.664760  1
  C  C1336  1  0.807500  0.514100  0.835240  1
  C  C1337  1  0.694900  0.039400  0.310960  1
  C  C1338  1  0.194900  0.460600  0.189040  1
  C  C1339  1  0.305100  0.960600  0.689040  1
  C  C1340  1  0.805100  0.539400  0.810960  1
  C  C1341  1  0.737400  0.077300  0.310500  1
  C  C1342  1  0.237400  0.422700  0.189500  1
  C  C1343  1  0.262600  0.922700  0.689500  1
  C  C1344  1  0.762600  0.577300  0.810500  1
  C  C1345  1  0.774400  0.088500  0.331410  1
  C  C1346  1  0.274400  0.411500  0.168590  1
  C  C1347  1  0.225600  0.911500  0.668590  1
  C  C1348  1  0.725600  0.588500  0.831410  1
  C  C1349  1  0.773800  0.063000  0.356180  1
  C  C1350  1  0.273800  0.437000  0.143820  1
  C  C1351  1  0.226200  0.937000  0.643820  1
  C  C1352  1  0.726200  0.563000  0.856180  1
  C  C1353  1  0.732400  0.025400  0.357690  1
  C  C1354  1  0.232400  0.474600  0.142310  1
  C  C1355  1  0.267600  0.974600  0.642310  1
  C  C1356  1  0.767600  0.525400  0.857690  1
  C  C1357  1  0.731400  0.999000  0.381780  1
  C  C1358  1  0.231400  0.501000  0.118220  1
  C  C1359  1  0.268600  0.001000  0.618220  1
  C  C1360  1  0.768600  0.499000  0.881780  1
  C  C1361  1  0.771400  0.009300  0.403230  1
  C  C1362  1  0.271400  0.490700  0.096770  1
  C  C1363  1  0.228600  0.990700  0.596770  1
  C  C1364  1  0.728600  0.509300  0.903230  1
  C  C1365  1  0.812000  0.046200  0.400620  1
  C  C1366  1  0.312000  0.453800  0.099380  1
  C  C1367  1  0.188000  0.953800  0.599380  1
  C  C1368  1  0.688000  0.546200  0.900620  1
  C  C1369  1  0.813300  0.072600  0.378070  1
  C  C1370  1  0.313300  0.427400  0.121930  1
  C  C1371  1  0.186700  0.927400  0.621930  1
  C  C1372  1  0.686700  0.572600  0.878070  1
  C  C1373  1  0.650000  0.951100  0.361340  1
  C  C1374  1  0.150000  0.548900  0.138660  1
  C  C1375  1  0.350000  0.048900  0.638660  1
  C  C1376  1  0.850000  0.451100  0.861340  1
  C  C1377  1  0.688800  0.961100  0.382560  1
  C  C1378  1  0.188800  0.538900  0.117440  1
  C  C1379  1  0.311200  0.038900  0.617440  1
  C  C1380  1  0.811200  0.461100  0.882560  1
  C  C1381  1  0.772900  0.980900  0.428500  1
  C  C1382  1  0.272900  0.519100  0.071500  1
  C  C1383  1  0.227100  0.019100  0.571500  1
  C  C1384  1  0.727100  0.480900  0.928500  1
  C  C1385  1  0.739000  0.995400  0.452520  1
  C  C1386  1  0.239000  0.504600  0.047480  1
  C  C1387  1  0.261000  0.004600  0.547480  1
  C  C1388  1  0.761000  0.495400  0.952520  1
  C  C1389  1  0.742700  0.969800  0.476170  1
  C  C1390  1  0.242700  0.530200  0.023830  1
  C  C1391  1  0.257300  0.030200  0.523830  1
  C  C1392  1  0.757300  0.469800  0.976170  1
  C  C1393  1  0.778200  0.929700  0.475800  1
  C  C1394  1  0.278200  0.570300  0.024200  1
  C  C1395  1  0.221800  0.070300  0.524200  1
  C  C1396  1  0.721800  0.429700  0.975800  1
  C  C1397  1  0.810800  0.913600  0.451330  1
  C  C1398  1  0.310800  0.586400  0.048670  1
  C  C1399  1  0.189200  0.086400  0.548670  1
  C  C1400  1  0.689200  0.413600  0.951330  1
  C  C1401  1  0.808500  0.939700  0.428250  1
  C  C1402  1  0.308500  0.560300  0.071750  1
  C  C1403  1  0.191500  0.060300  0.571750  1
  C  C1404  1  0.691500  0.439700  0.928250  1
  C  C1405  1  0.660100  0.995600  0.499500  1
  C  C1406  1  0.160100  0.504400  0.000500  1
  C  C1407  1  0.339900  0.004400  0.500500  1
  C  C1408  1  0.839900  0.495600  0.999500  1
  C  C1409  1  0.628700  0.020300  0.524100  1
  C  C1410  1  0.128700  0.479700  0.975900  1
  C  C1411  1  0.371300  0.979700  0.475900  1
  C  C1412  1  0.871300  0.520300  0.024100  1
  C  C1413  1  0.573100  0.018100  0.525700  1
  C  C1414  1  0.073100  0.481900  0.974300  1
  C  C1415  1  0.426900  0.981900  0.474300  1
  C  C1416  1  0.926900  0.518100  0.025700  1
  C  C1417  1  0.545800  0.040700  0.549700  1
  C  C1418  1  0.045800  0.459300  0.950300  1
  C  C1419  1  0.454200  0.959300  0.450300  1
  C  C1420  1  0.954200  0.540700  0.049700  1
  C  C1421  1  0.575100  0.069100  0.571800  1
  C  C1422  1  0.075100  0.430900  0.928200  1
  C  C1423  1  0.424900  0.930900  0.428200  1
  C  C1424  1  0.924900  0.569100  0.071800  1
  C  C1425  1  0.632100  0.069600  0.569700  1
  C  C1426  1  0.132100  0.430400  0.930300  1
  C  C1427  1  0.367900  0.930400  0.430300  1
  C  C1428  1  0.867900  0.569600  0.069700  1
  C  C1429  1  0.721500  0.111800  0.128520  1
  C  C1430  1  0.221500  0.388200  0.371480  1
  C  C1431  1  0.278500  0.888200  0.871480  1
  C  C1432  1  0.778500  0.611800  0.628520  1
  C  C1433  1  0.686100  0.116900  0.106360  1
  C  C1434  1  0.186100  0.383100  0.393640  1
  C  C1435  1  0.313900  0.883100  0.893640  1
  C  C1436  1  0.813900  0.616900  0.606360  1
  C  C1437  1  0.645700  0.155500  0.110900  1
  C  C1438  1  0.145700  0.344500  0.389100  1
  C  C1439  1  0.354300  0.844500  0.889100  1
  C  C1440  1  0.854300  0.655500  0.610900  1
  C  C1441  1  0.644000  0.187600  0.137180  1
  C  C1442  1  0.144000  0.312400  0.362820  1
  C  C1443  1  0.356000  0.812400  0.862820  1
  C  C1444  1  0.856000  0.687600  0.637180  1
  C  C1445  1  0.680500  0.181500  0.158510  1
  C  C1446  1  0.180500  0.318500  0.341490  1
  C  C1447  1  0.319500  0.818500  0.841490  1
  C  C1448  1  0.819500  0.681500  0.658510  1
  C  C1449  1  0.680200  0.213100  0.187080  1
  C  C1450  1  0.180200  0.286900  0.312920  1
  C  C1451  1  0.319800  0.786900  0.812920  1
  C  C1452  1  0.819800  0.713100  0.687080  1
  C  C1453  1  0.713400  0.234200  0.235020  1
  C  C1454  1  0.213400  0.265800  0.264980  1
  C  C1455  1  0.286600  0.765800  0.764980  1
  C  C1456  1  0.786600  0.734200  0.735020  1
  C  C1457  1  0.721900  0.286900  0.238260  1
  C  C1458  1  0.221900  0.213100  0.261740  1
  C  C1459  1  0.278100  0.713100  0.761740  1
  C  C1460  1  0.778100  0.786900  0.738260  1
  C  C1461  1  0.723900  0.315600  0.266200  1
  C  C1462  1  0.223900  0.184400  0.233800  1
  C  C1463  1  0.276100  0.684400  0.733800  1
  C  C1464  1  0.776100  0.815600  0.766200  1
  C  C1465  1  0.715300  0.292200  0.289640  1
  C  C1466  1  0.215300  0.207800  0.210360  1
  C  C1467  1  0.284700  0.707800  0.710360  1
  C  C1468  1  0.784700  0.792200  0.789640  1
  C  C1469  1  0.705200  0.239100  0.285850  1
  C  C1470  1  0.205200  0.260900  0.214150  1
  C  C1471  1  0.294800  0.760900  0.714150  1
  C  C1472  1  0.794800  0.739100  0.785850  1
  C  C1473  1  0.705200  0.210000  0.258500  1
  C  C1474  1  0.205200  0.290000  0.241500  1
  C  C1475  1  0.294800  0.790000  0.741500  1
  C  C1476  1  0.794800  0.710000  0.758500  1
  C  C1477  1  0.690400  0.212900  0.311360  1
  C  C1478  1  0.190400  0.287100  0.188640  1
  C  C1479  1  0.309600  0.787100  0.688640  1
  C  C1480  1  0.809600  0.712900  0.811360  1
  C  C1481  1  0.642400  0.187100  0.310290  1
  C  C1482  1  0.142400  0.312900  0.189710  1
  C  C1483  1  0.357600  0.812900  0.689710  1
  C  C1484  1  0.857600  0.687100  0.810290  1
  C  C1485  1  0.624600  0.163500  0.332470  1
  C  C1486  1  0.124600  0.336500  0.167530  1
  C  C1487  1  0.375400  0.836500  0.667530  1
  C  C1488  1  0.875400  0.663500  0.832470  1
  C  C1489  1  0.655900  0.166600  0.357720  1
  C  C1490  1  0.155900  0.333400  0.142280  1
  C  C1491  1  0.344100  0.833400  0.642280  1
  C  C1492  1  0.844100  0.666600  0.857720  1
  C  C1493  1  0.707800  0.192300  0.358960  1
  C  C1494  1  0.207800  0.307700  0.141040  1
  C  C1495  1  0.292200  0.807700  0.641040  1
  C  C1496  1  0.792200  0.692300  0.858960  1
  C  C1497  1  0.725000  0.214700  0.335130  1
  C  C1498  1  0.225000  0.285300  0.164870  1
  C  C1499  1  0.275000  0.785300  0.664870  1
  C  C1500  1  0.775000  0.714700  0.835130  1
  C  C1501  1  0.638200  0.144200  0.382100  1
  C  C1502  1  0.138200  0.355800  0.117900  1
  C  C1503  1  0.361800  0.855800  0.617900  1
  C  C1504  1  0.861800  0.644200  0.882100  1
  C  C1505  1  0.669600  0.148900  0.405790  1
  C  C1506  1  0.169600  0.351100  0.094210  1
  C  C1507  1  0.330400  0.851100  0.594210  1
  C  C1508  1  0.830400  0.648900  0.905790  1
  C  C1509  1  0.721600  0.173800  0.408210  1
  C  C1510  1  0.221600  0.326200  0.091790  1
  C  C1511  1  0.278400  0.826200  0.591790  1
  C  C1512  1  0.778400  0.673800  0.908210  1
  C  C1513  1  0.741100  0.194100  0.383430  1
  C  C1514  1  0.241100  0.305900  0.116570  1
  C  C1515  1  0.258900  0.805900  0.616570  1
  C  C1516  1  0.758900  0.694100  0.883430  1
  C  C1517  1  0.794100  0.216600  0.384340  1
  C  C1518  1  0.294100  0.283400  0.115660  1
  C  C1519  1  0.205900  0.783400  0.615660  1
  C  C1520  1  0.705900  0.716600  0.884340  1
  C  C1521  1  0.826900  0.216500  0.408090  1
  C  C1522  1  0.326900  0.283500  0.091910  1
  C  C1523  1  0.173100  0.783500  0.591910  1
  C  C1524  1  0.673100  0.716500  0.908090  1
  C  C1525  1  0.808000  0.197100  0.431990  1
  C  C1526  1  0.308000  0.302900  0.068010  1
  C  C1527  1  0.192000  0.802900  0.568010  1
  C  C1528  1  0.692000  0.697100  0.931990  1
  C  C1529  1  0.756000  0.177400  0.432550  1
  C  C1530  1  0.256000  0.322600  0.067450  1
  C  C1531  1  0.244000  0.822600  0.567450  1
  C  C1532  1  0.744000  0.677400  0.932550  1
  C  C1533  1  0.779200  0.237200  0.336660  1
  C  C1534  1  0.279200  0.262800  0.163340  1
  C  C1535  1  0.220800  0.762800  0.663340  1
  C  C1536  1  0.720800  0.737200  0.836660  1
  C  C1537  1  0.812100  0.237800  0.359660  1
  C  C1538  1  0.312100  0.262200  0.140340  1
  C  C1539  1  0.187900  0.762200  0.640340  1
  C  C1540  1  0.687900  0.737800  0.859660  1
  C  C1541  1  0.735400  0.162300  0.460040  1
  C  C1542  1  0.235400  0.337700  0.039960  1
  C  C1543  1  0.264600  0.837700  0.539960  1
  C  C1544  1  0.764600  0.662300  0.960040  1
  C  C1545  1  0.688800  0.184500  0.474040  1
  C  C1546  1  0.188800  0.315500  0.025960  1
  C  C1547  1  0.311200  0.815500  0.525960  1
  C  C1548  1  0.811200  0.684500  0.974040  1
  C  C1549  1  0.672600  0.173500  0.500200  1
  C  C1550  1  0.172600  0.326500  0.999800  1
  C  C1551  1  0.327400  0.826500  0.499800  1
  C  C1552  1  0.827400  0.673500  0.000200  1
  C  C1553  1  0.702700  0.139700  0.513050  1
  C  C1554  1  0.202700  0.360300  0.986950  1
  C  C1555  1  0.297300  0.860300  0.486950  1
  C  C1556  1  0.797300  0.639700  0.013050  1
  C  C1557  1  0.750000  0.115900  0.499770  1
  C  C1558  1  0.250000  0.384100  0.000230  1
  C  C1559  1  0.250000  0.884100  0.500230  1
  C  C1560  1  0.750000  0.615900  0.999770  1
  C  C1561  1  0.765000  0.127400  0.473110  1
  C  C1562  1  0.265000  0.372600  0.026890  1
  C  C1563  1  0.235000  0.872600  0.526890  1
  C  C1564  1  0.735000  0.627400  0.973110  1
  C  C1565  1  0.827700  0.067100  0.506520  1
  C  C1566  1  0.327700  0.432900  0.993480  1
  C  C1567  1  0.172300  0.932900  0.493480  1
  C  C1568  1  0.672300  0.567100  0.006520  1
  C  C1569  1  0.854900  0.026200  0.518340  1
  C  C1570  1  0.354900  0.473800  0.981660  1
  C  C1571  1  0.145100  0.973800  0.481660  1
  C  C1572  1  0.645100  0.526200  0.018340  1
  C  C1573  1  0.908800  0.012600  0.511380  1
  C  C1574  1  0.408800  0.487400  0.988620  1
  C  C1575  1  0.091200  0.987400  0.488620  1
  C  C1576  1  0.591200  0.512600  0.011380  1
  C  C1577  1  0.931800  0.972800  0.522100  1
  C  C1578  1  0.431800  0.527200  0.977900  1
  C  C1579  1  0.068200  0.027200  0.477900  1
  C  C1580  1  0.568200  0.472800  0.022100  1
  C  C1581  1  0.900900  0.947200  0.539930  1
  C  C1582  1  0.400900  0.552800  0.960070  1
  C  C1583  1  0.099100  0.052800  0.460070  1
  C  C1584  1  0.599100  0.447200  0.039930  1
  C  C1585  1  0.847900  0.962900  0.546190  1
  C  C1586  1  0.347900  0.537100  0.953810  1
  C  C1587  1  0.152100  0.037100  0.453810  1
  C  C1588  1  0.652100  0.462900  0.046190  1
  C  C1589  1  0.811700  0.820800  0.923960  1
  C  C1590  1  0.311700  0.679200  0.576040  1
  C  C1591  1  0.188300  0.179200  0.076040  1
  C  C1592  1  0.688300  0.320800  0.423960  1
  C  C1593  1  0.843200  0.797900  0.900450  1
  C  C1594  1  0.343200  0.702100  0.599550  1
  C  C1595  1  0.156800  0.202100  0.099550  1
  C  C1596  1  0.656800  0.297900  0.400450  1
  C  C1597  1  0.840600  0.817800  0.875600  1
  C  C1598  1  0.340600  0.682200  0.624400  1
  C  C1599  1  0.159400  0.182200  0.124400  1
  C  C1600  1  0.659400  0.317800  0.375600  1
  C  C1601  1  0.805800  0.859800  0.874700  1
  C  C1602  1  0.305800  0.640200  0.625300  1
  C  C1603  1  0.194200  0.140200  0.125300  1
  C  C1604  1  0.694200  0.359800  0.374700  1
  C  C1605  1  0.777000  0.880800  0.898840  1
  C  C1606  1  0.277000  0.619200  0.601160  1
  C  C1607  1  0.223000  0.119200  0.101160  1
  C  C1608  1  0.723000  0.380800  0.398840  1
  C  C1609  1  0.740700  0.925400  0.899840  1
  C  C1610  1  0.240700  0.574600  0.600160  1
  C  C1611  1  0.259300  0.074600  0.100160  1
  C  C1612  1  0.759300  0.425400  0.399840  1
  C  C1613  1  0.684200  0.992600  0.924580  1
  C  C1614  1  0.184200  0.507400  0.575420  1
  C  C1615  1  0.315800  0.007400  0.075420  1
  C  C1616  1  0.815800  0.492600  0.424580  1
  C  C1617  1  0.648700  0.994800  0.901230  1
  C  C1618  1  0.148700  0.505200  0.598770  1
  C  C1619  1  0.351300  0.005200  0.098770  1
  C  C1620  1  0.851300  0.494800  0.401230  1
  C  C1621  1  0.616800  0.039200  0.902550  1
  C  C1622  1  0.116800  0.460800  0.597450  1
  C  C1623  1  0.383200  0.960800  0.097450  1
  C  C1624  1  0.883200  0.539200  0.402550  1
  C  C1625  1  0.619100  0.078800  0.925640  1
  C  C1626  1  0.119100  0.421200  0.574360  1
  C  C1627  1  0.380900  0.921200  0.074360  1
  C  C1628  1  0.880900  0.578800  0.425640  1
  C  C1629  1  0.654000  0.076600  0.949190  1
  C  C1630  1  0.154000  0.423400  0.550810  1
  C  C1631  1  0.346000  0.923400  0.050810  1
  C  C1632  1  0.846000  0.576600  0.449190  1
  C  C1633  1  0.685200  0.031300  0.947910  1
  C  C1634  1  0.185200  0.468700  0.552090  1
  C  C1635  1  0.314800  0.968700  0.052090  1
  C  C1636  1  0.814800  0.531300  0.447910  1
  C  C1637  1  0.656600  0.119700  0.974860  1
  C  C1638  1  0.156600  0.380300  0.525140  1
  C  C1639  1  0.343400  0.880300  0.025140  1
  C  C1640  1  0.843400  0.619700  0.474860  1
  C  C1641  1  0.607500  0.142900  0.985670  1
  C  C1642  1  0.107500  0.357100  0.514330  1
  C  C1643  1  0.392500  0.857100  0.014330  1
  C  C1644  1  0.892500  0.642900  0.485670  1
  C  C1645  1  0.606200  0.179300  0.010900  1
  C  C1646  1  0.106200  0.320700  0.489100  1
  C  C1647  1  0.393800  0.820700  0.989100  1
  C  C1648  1  0.893800  0.679300  0.510900  1
  C  C1649  1  0.652800  0.191600  0.027320  1
  C  C1650  1  0.152800  0.308400  0.472680  1
  C  C1651  1  0.347200  0.808400  0.972680  1
  C  C1652  1  0.847200  0.691600  0.527320  1
  C  C1653  1  0.703300  0.170700  0.016600  1
  C  C1654  1  0.203300  0.329300  0.483400  1
  C  C1655  1  0.296700  0.829300  0.983400  1
  C  C1656  1  0.796700  0.670700  0.516600  1
  C  C1657  1  0.705900  0.135900  0.988980  1
  C  C1658  1  0.205900  0.364100  0.511020  1
  C  C1659  1  0.294100  0.864100  0.011020  1
  C  C1660  1  0.794100  0.635900  0.488980  1
  C  C1661  1  0.759000  0.120500  0.977930  1
  C  C1662  1  0.259000  0.379500  0.522070  1
  C  C1663  1  0.241000  0.879500  0.022070  1
  C  C1664  1  0.741000  0.620500  0.477930  1
  C  C1665  1  0.805300  0.133000  0.993400  1
  C  C1666  1  0.305300  0.367000  0.506600  1
  C  C1667  1  0.194700  0.867000  0.006600  1
  C  C1668  1  0.694700  0.633000  0.493400  1
  C  C1669  1  0.802900  0.161700  0.022170  1
  C  C1670  1  0.302900  0.338300  0.477830  1
  C  C1671  1  0.197100  0.838300  0.977830  1
  C  C1672  1  0.697100  0.661700  0.522170  1
  C  C1673  1  0.751900  0.181400  0.033540  1
  C  C1674  1  0.251900  0.318600  0.466460  1
  C  C1675  1  0.248100  0.818600  0.966460  1
  C  C1676  1  0.748100  0.681400  0.533540  1
  C  C1677  1  0.749600  0.211400  0.061810  1
  C  C1678  1  0.249600  0.288600  0.438190  1
  C  C1679  1  0.250400  0.788600  0.938190  1
  C  C1680  1  0.750400  0.711400  0.561810  1
  C  C1681  1  0.796700  0.217100  0.078900  1
  C  C1682  1  0.296700  0.282900  0.421100  1
  C  C1683  1  0.203300  0.782900  0.921100  1
  C  C1684  1  0.703300  0.717100  0.578900  1
  C  C1685  1  0.845400  0.197200  0.067960  1
  C  C1686  1  0.345400  0.302800  0.432040  1
  C  C1687  1  0.154600  0.802800  0.932040  1
  C  C1688  1  0.654600  0.697200  0.567960  1
  C  C1689  1  0.849800  0.170500  0.039490  1
  C  C1690  1  0.349800  0.329500  0.460510  1
  C  C1691  1  0.150200  0.829500  0.960510  1
  C  C1692  1  0.650200  0.670500  0.539490  1
  C  C1693  1  0.696600  0.233400  0.071580  1
  C  C1694  1  0.196600  0.266600  0.428420  1
  C  C1695  1  0.303400  0.766600  0.928420  1
  C  C1696  1  0.803400  0.733400  0.571580  1
  C  C1697  1  0.651800  0.224700  0.054970  1
  C  C1698  1  0.151800  0.275300  0.445030  1
  C  C1699  1  0.348200  0.775300  0.945030  1
  C  C1700  1  0.848200  0.724700  0.554970  1
  C  C1701  1  0.794800  0.244300  0.110350  1
  C  C1702  1  0.294800  0.255700  0.389650  1
  C  C1703  1  0.205200  0.755700  0.889650  1
  C  C1704  1  0.705200  0.744300  0.610350  1
  C  C1705  1  0.781800  0.297700  0.117500  1
  C  C1706  1  0.281800  0.202300  0.382500  1
  C  C1707  1  0.218200  0.702300  0.882500  1
  C  C1708  1  0.718200  0.797700  0.617500  1
  C  C1709  1  0.784100  0.322500  0.146150  1
  C  C1710  1  0.284100  0.177500  0.353850  1
  C  C1711  1  0.215900  0.677500  0.853850  1
  C  C1712  1  0.715900  0.822500  0.646150  1
  C  C1713  1  0.796900  0.295300  0.168230  1
  C  C1714  1  0.296900  0.204700  0.331770  1
  C  C1715  1  0.203100  0.704700  0.831770  1
  C  C1716  1  0.703100  0.795300  0.668230  1
  C  C1717  1  0.807900  0.242800  0.160860  1
  C  C1718  1  0.307900  0.257200  0.339140  1
  C  C1719  1  0.192100  0.757200  0.839140  1
  C  C1720  1  0.692100  0.742800  0.660860  1
  C  C1721  1  0.807500  0.218200  0.132310  1
  C  C1722  1  0.307500  0.281800  0.367690  1
  C  C1723  1  0.192500  0.781800  0.867690  1
  C  C1724  1  0.692500  0.718200  0.632310  1
  C  C1725  1  0.848600  0.231600  0.204460  1
  C  C1726  1  0.348600  0.268400  0.295540  1
  C  C1727  1  0.151400  0.768400  0.795540  1
  C  C1728  1  0.651400  0.731600  0.704460  1
  C  C1729  1  0.855400  0.204000  0.228540  1
  C  C1730  1  0.355400  0.296000  0.271460  1
  C  C1731  1  0.144600  0.796000  0.771460  1
  C  C1732  1  0.644600  0.704000  0.728540  1
  C  C1733  1  0.891800  0.220100  0.250460  1
  C  C1734  1  0.391800  0.279900  0.249540  1
  C  C1735  1  0.108200  0.779900  0.749540  1
  C  C1736  1  0.608200  0.720100  0.750460  1
  C  C1737  1  0.896300  0.191600  0.272500  1
  C  C1738  1  0.396300  0.308400  0.227500  1
  C  C1739  1  0.103700  0.808400  0.727500  1
  C  C1740  1  0.603700  0.691600  0.772500  1
  C  C1741  1  0.864300  0.148700  0.271780  1
  C  C1742  1  0.364300  0.351300  0.228220  1
  C  C1743  1  0.135700  0.851300  0.728220  1
  C  C1744  1  0.635700  0.648700  0.771780  1
  C  C1745  1  0.829100  0.134100  0.249170  1
  C  C1746  1  0.329100  0.365900  0.250830  1
  C  C1747  1  0.170900  0.865900  0.750830  1
  C  C1748  1  0.670900  0.634100  0.749170  1
  C  C1749  1  0.843900  0.824800  0.253140  1
  C  C1750  1  0.343900  0.675200  0.246860  1
  C  C1751  1  0.156100  0.175200  0.746860  1
  C  C1752  1  0.656100  0.324800  0.753140  1
  C  C1753  1  0.873300  0.810800  0.227810  1
  C  C1754  1  0.373300  0.689200  0.272190  1
  C  C1755  1  0.126700  0.189200  0.772190  1
  C  C1756  1  0.626700  0.310800  0.727810  1
  C  C1757  1  0.901700  0.765000  0.223300  1
  C  C1758  1  0.401700  0.735000  0.276700  1
  C  C1759  1  0.098300  0.235000  0.776700  1
  C  C1760  1  0.598300  0.265000  0.723300  1
  C  C1761  1  0.902000  0.734800  0.245200  1
  C  C1762  1  0.402000  0.765200  0.254800  1
  C  C1763  1  0.098000  0.265200  0.754800  1
  C  C1764  1  0.598000  0.234800  0.745200  1
  C  C1765  1  0.871800  0.751500  0.269790  1
  C  C1766  1  0.371800  0.748500  0.230210  1
  C  C1767  1  0.128200  0.248500  0.730210  1
  C  C1768  1  0.628200  0.251500  0.769790  1
  C  C1769  1  0.871000  0.722100  0.293200  1
  C  C1770  1  0.371000  0.777900  0.206800  1
  C  C1771  1  0.129000  0.277900  0.706800  1
  C  C1772  1  0.629000  0.222100  0.793200  1
  C  C1773  1  0.840100  0.709500  0.339040  1
  C  C1774  1  0.340100  0.790500  0.160960  1
  C  C1775  1  0.159900  0.290500  0.660960  1
  C  C1776  1  0.659900  0.209500  0.839040  1
  C  C1777  1  0.833900  0.656000  0.332490  1
  C  C1778  1  0.333900  0.844000  0.167510  1
  C  C1779  1  0.166100  0.344000  0.667510  1
  C  C1780  1  0.666100  0.156000  0.832490  1
  C  C1781  1  0.825700  0.628600  0.354500  1
  C  C1782  1  0.325700  0.871400  0.145500  1
  C  C1783  1  0.174300  0.371400  0.645500  1
  C  C1784  1  0.674300  0.128600  0.854500  1
  C  C1785  1  0.823300  0.653900  0.382600  1
  C  C1786  1  0.323300  0.846100  0.117400  1
  C  C1787  1  0.176700  0.346100  0.617400  1
  C  C1788  1  0.676700  0.153900  0.882600  1
  C  C1789  1  0.829900  0.707200  0.389970  1
  C  C1790  1  0.329900  0.792800  0.110030  1
  C  C1791  1  0.170100  0.292800  0.610030  1
  C  C1792  1  0.670100  0.207200  0.889970  1
  C  C1793  1  0.838300  0.734900  0.367550  1
  C  C1794  1  0.338300  0.765100  0.132450  1
  C  C1795  1  0.161700  0.265100  0.632450  1
  C  C1796  1  0.661700  0.234900  0.867550  1
  C  C1797  1  0.829000  0.734900  0.420830  1
  C  C1798  1  0.329000  0.765100  0.079170  1
  C  C1799  1  0.171000  0.265100  0.579170  1
  C  C1800  1  0.671000  0.234900  0.920830  1
  C  C1801  1  0.875700  0.759700  0.432640  1
  C  C1802  1  0.375700  0.740300  0.067360  1
  C  C1803  1  0.124300  0.240300  0.567360  1
  C  C1804  1  0.624300  0.259700  0.932640  1
  C  C1805  1  0.876600  0.785600  0.461250  1
  C  C1806  1  0.376600  0.714400  0.038750  1
  C  C1807  1  0.123400  0.214400  0.538750  1
  C  C1808  1  0.623400  0.285600  0.961250  1
  C  C1809  1  0.830100  0.789400  0.478010  1
  C  C1810  1  0.330100  0.710600  0.021990  1
  C  C1811  1  0.169900  0.210600  0.521990  1
  C  C1812  1  0.669900  0.289400  0.978010  1
  C  C1813  1  0.781100  0.766000  0.465780  1
  C  C1814  1  0.281100  0.734000  0.034220  1
  C  C1815  1  0.218900  0.234000  0.534220  1
  C  C1816  1  0.718900  0.266000  0.965780  1
  C  C1817  1  0.781000  0.736300  0.437310  1
  C  C1818  1  0.281000  0.763700  0.062690  1
  C  C1819  1  0.219000  0.263700  0.562690  1
  C  C1820  1  0.719000  0.236300  0.937310  1
  C  C1821  1  0.731300  0.710000  0.427160  1
  C  C1822  1  0.231300  0.790000  0.072840  1
  C  C1823  1  0.268700  0.290000  0.572840  1
  C  C1824  1  0.768700  0.210000  0.927160  1
  C  C1825  1  0.685900  0.715000  0.442700  1
  C  C1826  1  0.185900  0.785000  0.057300  1
  C  C1827  1  0.314100  0.285000  0.557300  1
  C  C1828  1  0.814100  0.215000  0.942700  1
  C  C1829  1  0.683700  0.748200  0.470830  1
  C  C1830  1  0.183700  0.751800  0.029170  1
  C  C1831  1  0.316300  0.251800  0.529170  1
  C  C1832  1  0.816300  0.248200  0.970830  1
  C  C1833  1  0.731300  0.772600  0.482410  1
  C  C1834  1  0.231300  0.727400  0.017590  1
  C  C1835  1  0.268700  0.227400  0.517590  1
  C  C1836  1  0.768700  0.272600  0.982410  1
  C  C1837  1  0.730700  0.805400  0.509950  1
  C  C1838  1  0.230700  0.694600  0.990050  1
  C  C1839  1  0.269300  0.194600  0.490050  1
  C  C1840  1  0.769300  0.305400  0.009950  1
  C  C1841  1  0.679400  0.817600  0.524280  1
  C  C1842  1  0.179400  0.682400  0.975720  1
  C  C1843  1  0.320600  0.182400  0.475720  1
  C  C1844  1  0.820600  0.317600  0.024280  1
  C  C1845  1  0.633200  0.791400  0.512100  1
  C  C1846  1  0.133200  0.708600  0.987900  1
  C  C1847  1  0.366800  0.208600  0.487900  1
  C  C1848  1  0.866800  0.291400  0.012100  1
  C  C1849  1  0.634500  0.757400  0.487000  1
  C  C1850  1  0.134500  0.742600  0.013000  1
  C  C1851  1  0.365500  0.242600  0.513000  1
  C  C1852  1  0.865500  0.257400  0.987000  1
  C  C1853  1  0.781900  0.824500  0.522290  1
  C  C1854  1  0.281900  0.675500  0.977710  1
  C  C1855  1  0.218100  0.175500  0.477710  1
  C  C1856  1  0.718100  0.324500  0.022290  1
  C  C1857  1  0.828800  0.816900  0.506970  1
  C  C1858  1  0.328800  0.683100  0.993030  1
  C  C1859  1  0.171200  0.183100  0.493030  1
  C  C1860  1  0.671200  0.316900  0.006970  1
  C  C1861  1  0.674400  0.858300  0.550420  1
  C  C1862  1  0.174400  0.641700  0.949580  1
  C  C1863  1  0.325600  0.141700  0.449580  1
  C  C1864  1  0.825600  0.358300  0.050420  1
  C  C1865  1  0.639300  0.851100  0.573300  1
  C  C1866  1  0.139300  0.648900  0.926700  1
  C  C1867  1  0.360700  0.148900  0.426700  1
  C  C1868  1  0.860700  0.351100  0.073300  1
  C  C1869  1  0.633900  0.890000  0.597100  1
  C  C1870  1  0.133900  0.610000  0.902900  1
  C  C1871  1  0.366100  0.110000  0.402900  1
  C  C1872  1  0.866100  0.390000  0.097100  1
  C  C1873  1  0.661400  0.935900  0.599460  1
  C  C1874  1  0.161400  0.564100  0.900540  1
  C  C1875  1  0.338600  0.064100  0.400540  1
  C  C1876  1  0.838600  0.435900  0.099460  1
  C  C1877  1  0.697000  0.943900  0.576770  1
  C  C1878  1  0.197000  0.556100  0.923230  1
  C  C1879  1  0.303000  0.056100  0.423230  1
  C  C1880  1  0.803000  0.443900  0.076770  1
  C  C1881  1  0.701100  0.906300  0.552830  1
  C  C1882  1  0.201100  0.593700  0.947170  1
  C  C1883  1  0.298900  0.093700  0.447170  1
  C  C1884  1  0.798900  0.406300  0.052830  1
  C  C1885  1  0.745900  0.014800  0.602380  1
  C  C1886  1  0.245900  0.485200  0.897620  1
  C  C1887  1  0.254100  0.985200  0.397620  1
  C  C1888  1  0.754100  0.514800  0.102380  1
  C  C1889  1  0.774900  0.063400  0.603910  1
  C  C1890  1  0.274900  0.436600  0.896090  1
  C  C1891  1  0.225100  0.936600  0.396090  1
  C  C1892  1  0.725100  0.563400  0.103910  1
  C  C1893  1  0.802200  0.087300  0.628920  1
  C  C1894  1  0.302200  0.412700  0.871080  1
  C  C1895  1  0.197800  0.912700  0.371080  1
  C  C1896  1  0.697800  0.587300  0.128920  1
  C  C1897  1  0.831200  0.132900  0.628400  1
  C  C1898  1  0.331200  0.367100  0.871600  1
  C  C1899  1  0.168800  0.867100  0.371600  1
  C  C1900  1  0.668800  0.632900  0.128400  1
  C  C1901  1  0.832000  0.153200  0.603300  1
  C  C1902  1  0.332000  0.346800  0.896700  1
  C  C1903  1  0.168000  0.846800  0.396700  1
  C  C1904  1  0.668000  0.653200  0.103300  1
  C  C1905  1  0.802800  0.127700  0.579500  1
  C  C1906  1  0.302800  0.372300  0.920500  1
  C  C1907  1  0.197200  0.872300  0.420500  1
  C  C1908  1  0.697200  0.627700  0.079500  1
  C  C1909  1  0.612200  0.852200  0.810100  1
  C  C1910  1  0.112200  0.647800  0.689900  1
  C  C1911  1  0.387800  0.147800  0.189900  1
  C  C1912  1  0.887800  0.352200  0.310100  1
  C  C1913  1  0.484000  0.928300  0.889500  1
  C  C1914  1  0.984000  0.571700  0.610500  1
  C  C1915  1  0.516000  0.071700  0.110500  1
  C  C1916  1  0.016000  0.428300  0.389500  1
  C  C1917  1  0.993400  0.837800  0.077000  1
  C  C1918  1  0.493400  0.662200  0.423000  1
  C  C1919  1  0.006600  0.162200  0.923000  1
  C  C1920  1  0.506600  0.337800  0.577000  1
  C  C1921  1  0.966600  0.783500  0.967900  1
  C  C1922  1  0.466600  0.716500  0.532100  1
  C  C1923  1  0.033400  0.216500  0.032100  1
  C  C1924  1  0.533400  0.283500  0.467900  1
  C  C1925  1  0.858800  0.083100  0.874200  1
  C  C1926  1  0.358800  0.416900  0.625800  1
  C  C1927  1  0.141200  0.916900  0.125800  1
  C  C1928  1  0.641200  0.583100  0.374200  1
  C  C1929  1  0.719500  0.996700  0.801100  1
  C  C1930  1  0.219500  0.503300  0.698900  1
  C  C1931  1  0.280500  0.003300  0.198900  1
  C  C1932  1  0.780500  0.496700  0.301100  1
  C  C1933  1  0.516500  0.688900  0.959000  1
  C  C1934  1  0.016500  0.811100  0.541000  1
  C  C1935  1  0.483500  0.311100  0.041000  1
  C  C1936  1  0.983500  0.188900  0.459000  1
  C  C1937  1  0.547200  0.772700  0.043000  1
  C  C1938  1  0.047200  0.727300  0.457000  1
  C  C1939  1  0.452800  0.227300  0.957000  1
  C  C1940  1  0.952800  0.272700  0.543000  1
  C  C1941  1  0.772000  0.951400  0.709900  1
  C  C1942  1  0.272000  0.548600  0.790100  1
  C  C1943  1  0.228000  0.048600  0.290100  1
  C  C1944  1  0.728000  0.451400  0.209900  1
  C  C1945  1  0.885300  0.875100  0.628000  1
  C  C1946  1  0.385300  0.624900  0.872000  1
  C  C1947  1  0.114700  0.124900  0.372000  1
  C  C1948  1  0.614700  0.375100  0.128000  1
  C  C1949  1  0.985200  0.272300  0.123800  1
  C  C1950  1  0.485200  0.227700  0.376200  1
  C  C1951  1  0.014800  0.727700  0.876200  1
  C  C1952  1  0.514800  0.772300  0.623800  1
  C  C1953  1  0.908100  0.391100  0.211600  1
  C  C1954  1  0.408100  0.108900  0.288400  1
  C  C1955  1  0.091900  0.608900  0.788400  1
  C  C1956  1  0.591900  0.891100  0.711600  1
  C  C1957  1  0.535400  0.777300  0.342500  1
  C  C1958  1  0.035400  0.722700  0.157500  1
  C  C1959  1  0.464600  0.222700  0.657500  1
  C  C1960  1  0.964600  0.277300  0.842500  1
  C  C1961  1  0.433400  0.947200  0.338900  1
  C  C1962  1  0.933400  0.552800  0.161100  1
  C  C1963  1  0.566600  0.052800  0.661100  1
  C  C1964  1  0.066600  0.447200  0.838900  1
  C  C1965  1  0.548500  0.476400  0.934440  1
  C  C1966  1  0.048500  0.023600  0.565560  1
  C  C1967  1  0.451500  0.523600  0.065560  1
  C  C1968  1  0.951500  0.976400  0.434440  1
  C  C1969  1  0.518800  0.431200  0.935250  1
  C  C1970  1  0.018800  0.068800  0.564750  1
  C  C1971  1  0.481200  0.568800  0.064750  1
  C  C1972  1  0.981200  0.931200  0.435250  1
  C  C1973  1  0.471000  0.421200  0.919140  1
  C  C1974  1  0.971000  0.078800  0.580860  1
  C  C1975  1  0.529000  0.578800  0.080860  1
  C  C1976  1  0.029000  0.921200  0.419140  1
  C  C1977  1  0.452900  0.456400  0.902210  1
  C  C1978  1  0.952900  0.043600  0.597790  1
  C  C1979  1  0.547100  0.543600  0.097790  1
  C  C1980  1  0.047100  0.956400  0.402210  1
  C  C1981  1  0.482600  0.501500  0.901390  1
  C  C1982  1  0.982600  0.998500  0.598610  1
  C  C1983  1  0.517400  0.498500  0.098610  1
  C  C1984  1  0.017400  0.001500  0.401390  1
  C  C1985  1  0.530400  0.511500  0.917510  1
  C  C1986  1  0.030400  0.988500  0.582490  1
  C  C1987  1  0.469600  0.488500  0.082490  1
  C  C1988  1  0.969600  0.011500  0.417510  1
  C  C1989  1  0.951500  0.528200  0.908700  1
  C  C1990  1  0.451500  0.971800  0.591300  1
  C  C1991  1  0.048500  0.471800  0.091300  1
  C  C1992  1  0.548500  0.028200  0.408700  1
  C  C1993  1  0.910500  0.531400  0.929400  1
  C  C1994  1  0.410500  0.968600  0.570600  1
  C  C1995  1  0.089500  0.468600  0.070600  1
  C  C1996  1  0.589500  0.031400  0.429400  1
  C  C1997  1  0.914500  0.567500  0.954900  1
  C  C1998  1  0.414500  0.932500  0.545100  1
  C  C1999  1  0.085500  0.432500  0.045100  1
  C  C2000  1  0.585500  0.067500  0.454900  1
  C  C2001  1  0.959600  0.600400  0.959700  1
  C  C2002  1  0.459600  0.899600  0.540300  1
  C  C2003  1  0.040400  0.399600  0.040300  1
  C  C2004  1  0.540400  0.100400  0.459700  1
  C  C2005  1  0.000600  0.597300  0.938900  1
  C  C2006  1  0.500600  0.902700  0.561100  1
  C  C2007  1  0.999400  0.402700  0.061100  1
  C  C2008  1  0.499400  0.097300  0.438900  1
  C  C2009  1  0.996500  0.561200  0.913400  1
  C  C2010  1  0.496500  0.938800  0.586600  1
  C  C2011  1  0.003500  0.438800  0.086600  1
  C  C2012  1  0.503500  0.061200  0.413400  1
  C  C2013  1  0.537600  0.251700  0.197200  1
  C  C2014  1  0.037600  0.248300  0.302800  1
  C  C2015  1  0.462400  0.748300  0.802800  1
  C  C2016  1  0.962400  0.751700  0.697200  1
  C  C2017  1  0.559700  0.298700  0.192900  1
  C  C2018  1  0.059700  0.201300  0.307100  1
  C  C2019  1  0.440300  0.701300  0.807100  1
  C  C2020  1  0.940300  0.798700  0.692900  1
  C  C2021  1  0.583500  0.332200  0.215900  1
  C  C2022  1  0.083500  0.167800  0.284100  1
  C  C2023  1  0.416500  0.667800  0.784100  1
  C  C2024  1  0.916500  0.832200  0.715900  1
  C  C2025  1  0.585200  0.318600  0.243200  1
  C  C2026  1  0.085200  0.181400  0.256800  1
  C  C2027  1  0.414800  0.681400  0.756800  1
  C  C2028  1  0.914800  0.818600  0.743200  1
  C  C2029  1  0.563100  0.271600  0.247500  1
  C  C2030  1  0.063100  0.228400  0.252500  1
  C  C2031  1  0.436900  0.728400  0.752500  1
  C  C2032  1  0.936900  0.771600  0.747500  1
  C  C2033  1  0.539300  0.238100  0.224500  1
  C  C2034  1  0.039300  0.261900  0.275500  1
  C  C2035  1  0.460700  0.761900  0.775500  1
  C  C2036  1  0.960700  0.738100  0.724500  1
  C  C2037  1  0.024000  0.892700  0.920700  1
  C  C2038  1  0.524000  0.607300  0.579300  1
  C  C2039  1  0.976000  0.107300  0.079300  1
  C  C2040  1  0.476000  0.392700  0.420700  1
  C  C2041  1  0.977400  0.901900  0.905400  1
  C  C2042  1  0.477400  0.598100  0.594600  1
  C  C2043  1  0.022600  0.098100  0.094600  1
  C  C2044  1  0.522600  0.401900  0.405400  1
  C  C2045  1  0.964200  0.952300  0.902300  1
  C  C2046  1  0.464200  0.547700  0.597700  1
  C  C2047  1  0.035800  0.047700  0.097700  1
  C  C2048  1  0.535800  0.452300  0.402300  1
  C  C2049  1  0.997500  0.993600  0.914500  1
  C  C2050  1  0.497500  0.506400  0.585500  1
  C  C2051  1  0.002500  0.006400  0.085500  1
  C  C2052  1  0.502500  0.493600  0.414500  1
  C  C2053  1  0.044100  0.984400  0.929800  1
  C  C2054  1  0.544100  0.515600  0.570200  1
  C  C2055  1  0.955900  0.015600  0.070200  1
  C  C2056  1  0.455900  0.484400  0.429800  1
  C  C2057  1  0.057300  0.933900  0.933000  1
  C  C2058  1  0.557300  0.566100  0.567000  1
  C  C2059  1  0.942700  0.066100  0.067000  1
  C  C2060  1  0.442700  0.433900  0.433000  1
  C  C2061  1  0.053900  0.916600  0.307000  1
  C  C2062  1  0.553900  0.583400  0.193000  1
  C  C2063  1  0.946100  0.083400  0.693000  1
  C  C2064  1  0.446100  0.416600  0.807000  1
  C  C2065  1  0.002700  0.911200  0.293800  1
  C  C2066  1  0.502700  0.588800  0.206200  1
  C  C2067  1  0.997300  0.088800  0.706200  1
  C  C2068  1  0.497300  0.411200  0.793800  1
  C  C2069  1  0.994100  0.872600  0.269700  1
  C  C2070  1  0.494100  0.627400  0.230300  1
  C  C2071  1  0.005900  0.127400  0.730300  1
  C  C2072  1  0.505900  0.372600  0.769700  1
  C  C2073  1  0.036600  0.839500  0.258800  1
  C  C2074  1  0.536600  0.660500  0.241200  1
  C  C2075  1  0.963400  0.160500  0.741200  1
  C  C2076  1  0.463400  0.339500  0.758800  1
  C  C2077  1  0.087800  0.844900  0.272000  1
  C  C2078  1  0.587800  0.655100  0.228000  1
  C  C2079  1  0.912200  0.155100  0.728000  1
  C  C2080  1  0.412200  0.344900  0.772000  1
  C  C2081  1  0.096400  0.883400  0.296000  1
  C  C2082  1  0.596400  0.616600  0.204000  1
  C  C2083  1  0.903600  0.116600  0.704000  1
  C  C2084  1  0.403600  0.383400  0.796000  1
  C  C2085  1  0.492600  0.769100  0.134500  1
  C  C2086  1  0.992600  0.730900  0.365500  1
  C  C2087  1  0.507400  0.230900  0.865500  1
  C  C2088  1  0.007400  0.269100  0.634500  1
  C  C2089  1  0.506000  0.720800  0.141000  1
  C  C2090  1  0.006000  0.779200  0.359000  1
  C  C2091  1  0.494000  0.279200  0.859000  1
  C  C2092  1  0.994000  0.220800  0.641000  1
  C  C2093  1  0.513400  0.715200  0.169600  1
  C  C2094  1  0.013400  0.784800  0.330400  1
  C  C2095  1  0.486600  0.284800  0.830400  1
  C  C2096  1  0.986600  0.215200  0.669600  1
  C  C2097  1  0.507400  0.758000  0.191700  1
  C  C2098  1  0.007400  0.742000  0.308300  1
  C  C2099  1  0.492600  0.242000  0.808300  1
  C  C2100  1  0.992600  0.258000  0.691700  1
  C  C2101  1  0.494000  0.806300  0.185100  1
  C  C2102  1  0.994000  0.693700  0.314900  1
  C  C2103  1  0.506000  0.193700  0.814900  1
  C  C2104  1  0.006000  0.306300  0.685100  1
  C  C2105  1  0.486500  0.811900  0.156500  1
  C  C2106  1  0.986500  0.688100  0.343500  1
  C  C2107  1  0.513500  0.188100  0.843500  1
  C  C2108  1  0.013500  0.311900  0.656500  1
  C  C2109  1  0.036400  0.121600  0.181700  1
  C  C2110  1  0.536400  0.378400  0.318300  1
  C  C2111  1  0.963600  0.878400  0.818300  1
  C  C2112  1  0.463600  0.621600  0.681700  1
  C  C2113  1  0.990500  0.131400  0.199300  1
  C  C2114  1  0.490500  0.368600  0.300700  1
  C  C2115  1  0.009500  0.868600  0.800700  1
  C  C2116  1  0.509500  0.631400  0.699300  1
  C  C2117  1  0.968300  0.092000  0.212100  1
  C  C2118  1  0.468300  0.408000  0.287900  1
  C  C2119  1  0.031700  0.908000  0.787900  1
  C  C2120  1  0.531700  0.592000  0.712100  1
  C  C2121  1  0.992100  0.042900  0.207300  1
  C  C2122  1  0.492100  0.457100  0.292700  1
  C  C2123  1  0.007900  0.957100  0.792700  1
  C  C2124  1  0.507900  0.542900  0.707300  1
  C  C2125  1  0.038100  0.033100  0.189700  1
  C  C2126  1  0.538100  0.466900  0.310300  1
  C  C2127  1  0.961900  0.966900  0.810300  1
  C  C2128  1  0.461900  0.533100  0.689700  1
  C  C2129  1  0.060200  0.072400  0.176900  1
  C  C2130  1  0.560200  0.427600  0.323100  1
  C  C2131  1  0.939800  0.927600  0.823100  1
  C  C2132  1  0.439800  0.572400  0.676900  1
  C  C2133  1  0.562800  0.912700  0.084300  1
  C  C2134  1  0.062800  0.587300  0.415700  1
  C  C2135  1  0.437200  0.087300  0.915700  1
  C  C2136  1  0.937200  0.412700  0.584300  1
  C  C2137  1  0.538100  0.906300  0.109900  1
  C  C2138  1  0.038100  0.593700  0.390100  1
  C  C2139  1  0.461900  0.093700  0.890100  1
  C  C2140  1  0.961900  0.406300  0.609900  1
  C  C2141  1  0.494000  0.733400  0.887500  1
  C  C2142  1  0.994000  0.766600  0.612500  1
  C  C2143  1  0.506000  0.266600  0.112500  1
  C  C2144  1  0.006000  0.233400  0.387500  1
  C  C2145  1  0.528800  0.695000  0.867900  1
  C  C2146  1  0.028800  0.805000  0.632100  1
  C  C2147  1  0.471200  0.305000  0.132100  1
  C  C2148  1  0.971200  0.195000  0.367900  1
  C  C2149  1  0.992500  0.052400  0.287800  1
  C  C2150  1  0.492500  0.447600  0.212200  1
  C  C2151  1  0.007500  0.947600  0.712200  1
  C  C2152  1  0.507500  0.552400  0.787800  1
  C  C2153  1  0.955600  0.070500  0.312500  1
  C  C2154  1  0.455600  0.429500  0.187500  1
  C  C2155  1  0.044400  0.929500  0.687500  1
  C  C2156  1  0.544400  0.570500  0.812500  1
  C  C2157  1  0.879100  0.093600  0.783800  1
  C  C2158  1  0.379100  0.406400  0.716200  1
  C  C2159  1  0.120900  0.906400  0.216200  1
  C  C2160  1  0.620900  0.593600  0.283800  1
  C  C2161  1  0.890600  0.047500  0.762400  1
  C  C2162  1  0.390600  0.452500  0.737600  1
  C  C2163  1  0.109400  0.952500  0.237600  1
  C  C2164  1  0.609400  0.547500  0.262400  1
  C  C2165  1  0.791400  0.959800  0.796700  1
  C  C2166  1  0.291400  0.540200  0.703300  1
  C  C2167  1  0.208600  0.040200  0.203300  1
  C  C2168  1  0.708600  0.459800  0.296700  1
  C  C2169  1  0.875700  0.093300  0.888400  1
  C  C2170  1  0.375700  0.406700  0.611600  1
  C  C2171  1  0.124300  0.906700  0.111600  1
  C  C2172  1  0.624300  0.593300  0.388400  1
  C  C2173  1  0.514100  0.688300  0.959500  1
  C  C2174  1  0.014100  0.811700  0.540500  1
  C  C2175  1  0.485900  0.311700  0.040500  1
  C  C2176  1  0.985900  0.188300  0.459500  1
  C  C2177  1  0.545000  0.772700  0.040400  1
  C  C2178  1  0.045000  0.727300  0.459600  1
  C  C2179  1  0.455000  0.227300  0.959600  1
  C  C2180  1  0.955000  0.272700  0.540400  1
  C  C2181  1  0.855700  0.878000  0.616300  1
  C  C2182  1  0.355700  0.622000  0.883700  1
  C  C2183  1  0.144300  0.122000  0.383700  1
  C  C2184  1  0.644300  0.378000  0.116300  1
  C  C2185  1  0.763100  0.946500  0.711100  1
  C  C2186  1  0.263100  0.553500  0.788900  1
  C  C2187  1  0.236900  0.053500  0.288900  1
  C  C2188  1  0.736900  0.446500  0.211100  1
  C  C2189  1  0.001300  0.240700  0.137900  1
  C  C2190  1  0.501300  0.259300  0.362100  1
  C  C2191  1  0.998700  0.759300  0.862100  1
  C  C2192  1  0.498700  0.740700  0.637900  1
  C  C2193  1  0.948600  0.405200  0.186900  1
  C  C2194  1  0.448600  0.094800  0.313100  1
  C  C2195  1  0.051400  0.594800  0.813100  1
  C  C2196  1  0.551400  0.905200  0.686900  1
  C  C2197  1  0.401500  0.918600  0.250500  1
  C  C2198  1  0.901500  0.581400  0.249500  1
  C  C2199  1  0.598500  0.081400  0.749500  1
  C  C2200  1  0.098500  0.418600  0.750500  1
  C  C2201  1  0.386700  0.940500  0.342700  1
  C  C2202  1  0.886700  0.559500  0.157300  1
  C  C2203  1  0.613300  0.059500  0.657300  1
  C  C2204  1  0.113300  0.440500  0.842700  1
  C  C2205  1  0.540500  0.264700  0.192800  1
  C  C2206  1  0.040500  0.235300  0.307200  1
  C  C2207  1  0.459500  0.735300  0.807200  1
  C  C2208  1  0.959500  0.764700  0.692800  1
  C  C2209  1  0.562300  0.313700  0.202900  1
  C  C2210  1  0.062300  0.186300  0.297100  1
  C  C2211  1  0.437700  0.686300  0.797100  1
  C  C2212  1  0.937700  0.813700  0.702900  1
  C  C2213  1  0.579400  0.327000  0.231500  1
  C  C2214  1  0.079400  0.173000  0.268500  1
  C  C2215  1  0.420600  0.673000  0.768500  1
  C  C2216  1  0.920600  0.827000  0.731500  1
  C  C2217  1  0.574600  0.291200  0.250000  1
  C  C2218  1  0.074600  0.208800  0.250000  1
  C  C2219  1  0.425400  0.708800  0.750000  1
  C  C2220  1  0.925400  0.791200  0.750000  1
  C  C2221  1  0.552800  0.242100  0.239900  1
  C  C2222  1  0.052800  0.257900  0.260100  1
  C  C2223  1  0.447200  0.757900  0.760100  1
  C  C2224  1  0.947200  0.742100  0.739900  1
  C  C2225  1  0.535700  0.228900  0.211300  1
  C  C2226  1  0.035700  0.271100  0.288700  1
  C  C2227  1  0.464300  0.771100  0.788700  1
  C  C2228  1  0.964300  0.728900  0.711300  1
  C  C2229  1  0.979900  0.985300  0.907200  1
  C  C2230  1  0.479900  0.514700  0.592800  1
  C  C2231  1  0.020100  0.014700  0.092800  1
  C  C2232  1  0.520100  0.485300  0.407200  1
  C  C2233  1  0.026900  0.994100  0.924100  1
  C  C2234  1  0.526900  0.505900  0.575900  1
  C  C2235  1  0.973100  0.005900  0.075900  1
  C  C2236  1  0.473100  0.494100  0.424100  1
  C  C2237  1  0.048400  0.954500  0.936900  1
  C  C2238  1  0.548400  0.545500  0.563100  1
  C  C2239  1  0.951600  0.045500  0.063100  1
  C  C2240  1  0.451600  0.454500  0.436900  1
  C  C2241  1  0.023000  0.906100  0.932900  1
  C  C2242  1  0.523000  0.593900  0.567100  1
  C  C2243  1  0.977000  0.093900  0.067100  1
  C  C2244  1  0.477000  0.406100  0.432900  1
  C  C2245  1  0.976000  0.897400  0.916100  1
  C  C2246  1  0.476000  0.602600  0.583900  1
  C  C2247  1  0.024000  0.102600  0.083900  1
  C  C2248  1  0.524000  0.397400  0.416100  1
  C  C2249  1  0.954400  0.936900  0.903200  1
  C  C2250  1  0.454400  0.563100  0.596800  1
  C  C2251  1  0.045600  0.063100  0.096800  1
  C  C2252  1  0.545600  0.436900  0.403200  1
  C  C2253  1  0.505400  0.729900  0.128700  1
  C  C2254  1  0.005400  0.770100  0.371300  1
  C  C2255  1  0.494600  0.270100  0.871300  1
  C  C2256  1  0.994600  0.229900  0.628700  1
  C  C2257  1  0.517800  0.701300  0.150200  1
  C  C2258  1  0.017800  0.798700  0.349800  1
  C  C2259  1  0.482200  0.298700  0.849800  1
  C  C2260  1  0.982200  0.201300  0.650200  1
  C  C2261  1  0.515400  0.724800  0.179100  1
  C  C2262  1  0.015400  0.775200  0.320900  1
  C  C2263  1  0.484600  0.275200  0.820900  1
  C  C2264  1  0.984600  0.224800  0.679100  1
  C  C2265  1  0.500600  0.776900  0.186600  1
  C  C2266  1  0.000600  0.723100  0.313400  1
  C  C2267  1  0.499400  0.223100  0.813400  1
  C  C2268  1  0.999400  0.276900  0.686600  1
  C  C2269  1  0.488200  0.805500  0.165200  1
  C  C2270  1  0.988200  0.694500  0.334800  1
  C  C2271  1  0.511800  0.194500  0.834800  1
  C  C2272  1  0.011800  0.305500  0.665200  1
  C  C2273  1  0.490600  0.782000  0.136200  1
  C  C2274  1  0.990600  0.718000  0.363800  1
  C  C2275  1  0.509400  0.218000  0.863800  1
  C  C2276  1  0.009400  0.282000  0.636200  1
  C  C2277  1  0.471700  0.988800  0.974200  1.0
  C  C2278  1  0.971700  0.511200  0.525800  1.0
  C  C2279  1  0.528300  0.011200  0.025800  1.0
  C  C2280  1  0.028300  0.488800  0.474200  1.0
  C  C2281  1  0.550900  0.023700  0.001200  1.0
  C  C2282  1  0.050900  0.476300  0.498800  1.0
  C  C2283  1  0.449100  0.976300  0.998800  1.0
  C  C2284  1  0.949100  0.523700  0.501200  1.0
  C  C2285  1  0.520900  0.012200  0.975000  1.0
  C  C2286  1  0.020900  0.487800  0.525000  1.0
  C  C2287  1  0.479100  0.987800  0.025000  1.0
  C  C2288  1  0.979100  0.512200  0.475000  1.0
  S  S2289  1  0.595740  0.859170  0.846810  1
  S  S2290  1  0.095740  0.640830  0.653190  1
  S  S2291  1  0.404260  0.140830  0.153190  1
  S  S2292  1  0.904260  0.359170  0.346810  1
  S  S2293  1  0.501490  0.921950  0.852820  1
  S  S2294  1  0.001490  0.578050  0.647180  1
  S  S2295  1  0.498510  0.078050  0.147180  1
  S  S2296  1  0.998510  0.421950  0.352820  1
  S  S2297  1  0.994740  0.855500  0.041210  1
  S  S2298  1  0.494740  0.644500  0.458790  1
  S  S2299  1  0.005260  0.144500  0.958790  1
  S  S2300  1  0.505260  0.355500  0.541210  1
  S  S2301  1  0.957650  0.767970  0.003260  1
  S  S2302  1  0.457650  0.732030  0.496740  1
  S  S2303  1  0.042350  0.232030  0.996740  1
  S  S2304  1  0.542350  0.267970  0.503260  1
  S  S2305  1  0.806900  0.034650  0.875710  1
  S  S2306  1  0.306900  0.465350  0.624290  1
  S  S2307  1  0.193100  0.965350  0.124290  1
  S  S2308  1  0.693100  0.534650  0.375710  1
  S  S2309  1  0.777870  0.980070  0.821880  1
  S  S2310  1  0.277870  0.519930  0.678120  1
  S  S2311  1  0.222130  0.019930  0.178120  1
  S  S2312  1  0.722130  0.480070  0.321880  1
  S  S2313  1  0.549750  0.702960  0.040690  1
  S  S2314  1  0.049750  0.797040  0.459310  1
  S  S2315  1  0.450250  0.297040  0.959310  1
  S  S2316  1  0.950250  0.202960  0.540690  1
  S  S2317  1  0.550490  0.652240  0.983450  1
  S  S2318  1  0.050490  0.847760  0.516550  1
  S  S2319  1  0.449510  0.347760  0.016550  1
  S  S2320  1  0.949510  0.152240  0.483450  1
  S  S2321  1  0.816300  0.969100  0.681630  1
  S  S2322  1  0.316300  0.530900  0.818370  1
  S  S2323  1  0.183700  0.030900  0.318370  1
  S  S2324  1  0.683700  0.469100  0.181630  1
  S  S2325  1  0.832700  0.923700  0.625080  1
  S  S2326  1  0.332700  0.576300  0.874920  1
  S  S2327  1  0.167300  0.076300  0.374920  1
  S  S2328  1  0.667300  0.423700  0.125080  1
  S  S2329  1  0.976300  0.255200  0.159670  1
  S  S2330  1  0.476300  0.244800  0.340330  1
  S  S2331  1  0.023700  0.744800  0.840330  1
  S  S2332  1  0.523700  0.755200  0.659670  1
  S  S2333  1  0.962800  0.342700  0.201930  1
  S  S2334  1  0.462800  0.157300  0.298070  1
  S  S2335  1  0.037200  0.657300  0.798070  1
  S  S2336  1  0.537200  0.842700  0.701930  1
  S  S2337  1  0.463100  0.887200  0.318500  1
  S  S2338  1  0.963100  0.612800  0.181500  1
  S  S2339  1  0.536900  0.112800  0.681500  1
  S  S2340  1  0.036900  0.387200  0.818500  1
  S  S2341  1  0.517500  0.843200  0.360410  1
  S  S2342  1  0.017500  0.656800  0.139590  1
  S  S2343  1  0.482500  0.156800  0.639590  1
  S  S2344  1  0.982500  0.343200  0.860410  1
  S  S2345  1  0.776200  0.023900  0.818500  1
  S  S2346  1  0.276200  0.476100  0.681500  1
  S  S2347  1  0.223800  0.976100  0.181500  1
  S  S2348  1  0.723800  0.523900  0.318500  1
  S  S2349  1  0.859300  0.030100  0.865900  1
  S  S2350  1  0.359300  0.469900  0.634100  1
  S  S2351  1  0.140700  0.969900  0.134100  1
  S  S2352  1  0.640700  0.530100  0.365900  1
  S  S2353  1  0.786300  0.972300  0.679370  1
  S  S2354  1  0.286300  0.527700  0.820630  1
  S  S2355  1  0.213700  0.027700  0.320630  1
  S  S2356  1  0.713700  0.472300  0.179370  1
  S  S2357  1  0.874900  0.933700  0.643910  1
  S  S2358  1  0.374900  0.566300  0.856090  1
  S  S2359  1  0.125100  0.066300  0.356090  1
  S  S2360  1  0.625100  0.433700  0.143910  1
  S  S2361  1  0.958600  0.346200  0.201700  1
  S  S2362  1  0.458600  0.153800  0.298300  1
  S  S2363  1  0.041400  0.653800  0.798300  1
  S  S2364  1  0.541400  0.846200  0.701700  1
  S  S2365  1  0.960800  0.301000  0.141580  1
  S  S2366  1  0.460800  0.199000  0.358420  1
  S  S2367  1  0.039200  0.699000  0.858420  1
  S  S2368  1  0.539200  0.801000  0.641580  1
  S  S2369  1  0.469000  0.912500  0.266550  1
  S  S2370  1  0.969000  0.587500  0.233450  1
  S  S2371  1  0.531000  0.087500  0.733450  1
  S  S2372  1  0.031000  0.412500  0.766550  1
  S  S2373  1  0.442900  0.899400  0.326100  1
  S  S2374  1  0.942900  0.600600  0.173900  1
  S  S2375  1  0.557100  0.100600  0.673900  1
  S  S2376  1  0.057100  0.399400  0.826100  1
  N  N2377  1  0.742300  0.804800  0.348550  1
  N  N2378  1  0.242300  0.695200  0.151450  1
  N  N2379  1  0.257700  0.195200  0.651450  1
  N  N2380  1  0.757700  0.304800  0.848550  1
  N  N2381  1  0.736500  0.743700  0.296240  1
  N  N2382  1  0.236500  0.756300  0.203760  1
  N  N2383  1  0.263500  0.256300  0.703760  1
  N  N2384  1  0.763500  0.243700  0.796240  1
  N  N2385  1  0.787900  0.870100  0.990220  1
  N  N2386  1  0.287900  0.629900  0.509780  1
  N  N2387  1  0.212100  0.129900  0.009780  1
  N  N2388  1  0.712100  0.370100  0.490220  1
  N  N2389  1  0.818500  0.952500  0.966540  1
  N  N2390  1  0.318500  0.547500  0.533460  1
  N  N2391  1  0.181500  0.047500  0.033460  1
  N  N2392  1  0.681500  0.452500  0.466540  1
  N  N2393  1  0.843600  0.869000  0.331260  1
  N  N2394  1  0.343600  0.631000  0.168740  1
  N  N2395  1  0.156400  0.131000  0.668740  1
  N  N2396  1  0.656400  0.369000  0.831260  1
  N  N2397  1  0.751900  0.872300  0.300560  1
  N  N2398  1  0.251900  0.627700  0.199440  1
  N  N2399  1  0.248100  0.127700  0.699440  1
  N  N2400  1  0.748100  0.372300  0.800560  1
  N  N2401  1  0.704100  0.946900  0.000900  1
  N  N2402  1  0.204100  0.553100  0.499100  1
  N  N2403  1  0.295900  0.053100  0.999100  1
  N  N2404  1  0.795900  0.446900  0.500900  1
  N  N2405  1  0.661200  0.883800  0.955880  1
  N  N2406  1  0.161200  0.616200  0.544120  1
  N  N2407  1  0.338800  0.116200  0.044120  1
  N  N2408  1  0.838800  0.383800  0.455880  1
  N  N2409  1  0.830200  0.088300  0.170230  1
  N  N2410  1  0.330200  0.411700  0.329770  1
  N  N2411  1  0.169800  0.911700  0.829770  1
  N  N2412  1  0.669800  0.588300  0.670230  1
  N  N2413  1  0.741700  0.074600  0.200860  1
  N  N2414  1  0.241700  0.425400  0.299140  1
  N  N2415  1  0.258300  0.925400  0.799140  1
  N  N2416  1  0.758300  0.574600  0.700860  1
  N  N2417  1  0.711100  0.988800  0.501760  1
  N  N2418  1  0.211100  0.511200  0.998240  1
  N  N2419  1  0.288900  0.011200  0.498240  1
  N  N2420  1  0.788900  0.488800  0.001760  1
  N  N2421  1  0.658300  0.045300  0.546370  1
  N  N2422  1  0.158300  0.454700  0.953630  1
  N  N2423  1  0.341700  0.954700  0.453630  1
  N  N2424  1  0.841700  0.545300  0.046370  1
  N  N2425  1  0.719600  0.143200  0.154290  1
  N  N2426  1  0.219600  0.356800  0.345710  1
  N  N2427  1  0.280400  0.856800  0.845710  1
  N  N2428  1  0.780400  0.643200  0.654290  1
  N  N2429  1  0.711800  0.202000  0.206330  1
  N  N2430  1  0.211800  0.298000  0.293670  1
  N  N2431  1  0.288200  0.798000  0.793670  1
  N  N2432  1  0.788200  0.702000  0.706330  1
  N  N2433  1  0.777700  0.079200  0.513090  1
  N  N2434  1  0.277700  0.420800  0.986910  1
  N  N2435  1  0.222300  0.920800  0.486910  1
  N  N2436  1  0.722300  0.579200  0.013090  1
  N  N2437  1  0.825100  0.001400  0.535510  1
  N  N2438  1  0.325100  0.498600  0.964490  1
  N  N2439  1  0.174900  0.998600  0.464490  1
  N  N2440  1  0.674900  0.501400  0.035510  1
  N  N2441  1  0.824100  0.160500  0.227300  1
  N  N2442  1  0.324100  0.339500  0.272700  1
  N  N2443  1  0.175900  0.839500  0.772700  1
  N  N2444  1  0.675900  0.660500  0.727300  1
  N  N2445  1  0.817700  0.212400  0.182890  1
  N  N2446  1  0.317700  0.287600  0.317110  1
  N  N2447  1  0.182300  0.787600  0.817110  1
  N  N2448  1  0.682300  0.712400  0.682890  1
  N  N2449  1  0.720800  0.948800  0.924240  1
  N  N2450  1  0.220800  0.551200  0.575760  1
  N  N2451  1  0.279200  0.051200  0.075760  1
  N  N2452  1  0.779200  0.448800  0.424240  1
  N  N2453  1  0.779800  0.861200  0.923800  1
  N  N2454  1  0.279800  0.638800  0.576200  1
  N  N2455  1  0.220200  0.138800  0.076200  1
  N  N2456  1  0.720200  0.361200  0.423800  1
  N  N2457  1  0.842000  0.795600  0.273630  1
  N  N2458  1  0.342000  0.704400  0.226370  1
  N  N2459  1  0.158000  0.204400  0.726370  1
  N  N2460  1  0.658000  0.295600  0.773630  1
  N  N2461  1  0.845300  0.740100  0.316680  1
  N  N2462  1  0.345300  0.759900  0.183320  1
  N  N2463  1  0.154700  0.259900  0.683320  1
  N  N2464  1  0.654700  0.240100  0.816680  1
  N  N2465  1  0.727700  0.990600  0.578100  1
  N  N2466  1  0.227700  0.509400  0.921900  1
  N  N2467  1  0.272300  0.009400  0.421900  1
  N  N2468  1  0.772300  0.490600  0.078100  1
  N  N2469  1  0.775500  0.084100  0.579320  1
  N  N2470  1  0.275500  0.415900  0.920680  1
  N  N2471  1  0.224500  0.915900  0.420680  1
  N  N2472  1  0.724500  0.584100  0.079320  1
  N  N2473  1  0.563100  0.912400  0.852260  1
  N  N2474  1  0.063100  0.587600  0.647740  1
  N  N2475  1  0.436900  0.087600  0.147740  1
  N  N2476  1  0.936900  0.412400  0.352260  1
  N  N2477  1  0.003100  0.801300  0.020960  1
  N  N2478  1  0.503100  0.698700  0.479040  1
  N  N2479  1  0.996900  0.198700  0.979040  1
  N  N2480  1  0.496900  0.301300  0.520960  1
  N  N2481  1  0.770100  0.030400  0.848130  1
  N  N2482  1  0.270100  0.469600  0.651870  1
  N  N2483  1  0.229900  0.969600  0.151870  1
  N  N2484  1  0.729900  0.530400  0.348130  1
  N  N2485  1  0.515800  0.675800  0.013100  1
  N  N2486  1  0.015800  0.824200  0.486900  1
  N  N2487  1  0.484200  0.324200  0.986900  1
  N  N2488  1  0.984200  0.175800  0.513100  1
  N  N2489  1  0.799100  0.928000  0.654300  1
  N  N2490  1  0.299100  0.572000  0.845700  1
  N  N2491  1  0.200900  0.072000  0.345700  1
  N  N2492  1  0.700900  0.428000  0.154300  1
  N  N2493  1  0.936900  0.303200  0.174700  1
  N  N2494  1  0.436900  0.196800  0.325300  1
  N  N2495  1  0.063100  0.696800  0.825300  1
  N  N2496  1  0.563100  0.803200  0.674700  1
  N  N2497  1  0.518800  0.880200  0.336500  1
  N  N2498  1  0.018800  0.619800  0.163500  1
  N  N2499  1  0.481200  0.119800  0.663500  1
  N  N2500  1  0.981200  0.380200  0.836500  1
  N  N2501  1  0.583200  0.919200  0.063400  1
  N  N2502  1  0.083200  0.580800  0.436600  1
  N  N2503  1  0.416800  0.080800  0.936600  1
  N  N2504  1  0.916800  0.419200  0.563400  1
  N  N2505  1  0.466600  0.762400  0.901800  1
  N  N2506  1  0.966600  0.737600  0.598200  1
  N  N2507  1  0.533400  0.237600  0.098200  1
  N  N2508  1  0.033400  0.262400  0.401800  1
  N  N2509  1  0.929100  0.085200  0.331000  1
  N  N2510  1  0.429100  0.414800  0.169000  1
  N  N2511  1  0.070900  0.914800  0.669000  1
  N  N2512  1  0.570900  0.585200  0.831000  1
  N  N2513  1  0.882900  0.131400  0.801000  1
  N  N2514  1  0.382900  0.368600  0.699000  1
  N  N2515  1  0.117100  0.868600  0.199000  1
  N  N2516  1  0.617100  0.631400  0.301000  1
  N  N2517  1  0.830700  0.041900  0.836800  1
  N  N2518  1  0.330700  0.458100  0.663200  1
  N  N2519  1  0.169300  0.958100  0.163200  1
  N  N2520  1  0.669300  0.541900  0.336800  1
  N  N2521  1  0.581100  0.690100  0.008300  1
  N  N2522  1  0.081100  0.809900  0.491700  1
  N  N2523  1  0.418900  0.309900  0.991700  1
  N  N2524  1  0.918900  0.190100  0.508300  1
  N  N2525  1  0.836800  0.929900  0.671900  1
  N  N2526  1  0.336800  0.570100  0.828100  1
  N  N2527  1  0.163200  0.070100  0.328100  1
  N  N2528  1  0.663200  0.429900  0.171900  1
  N  N2529  1  0.942200  0.299600  0.175000  1
  N  N2530  1  0.442200  0.200400  0.325000  1
  N  N2531  1  0.057800  0.700400  0.825000  1
  N  N2532  1  0.557800  0.799600  0.675000  1
  N  N2533  1  0.468600  0.931600  0.301600  1
  N  N2534  1  0.968600  0.568400  0.198400  1
  N  N2535  1  0.531400  0.068400  0.698400  1
  N  N2536  1  0.031400  0.431600  0.801600  1
  O  O2537  1  0.647400  0.867400  0.861110  1
  O  O2538  1  0.147400  0.632600  0.638890  1
  O  O2539  1  0.352600  0.132600  0.138890  1
  O  O2540  1  0.852600  0.367400  0.361110  1
  O  O2541  1  0.566000  0.814300  0.848850  1
  O  O2542  1  0.066000  0.685700  0.651150  1
  O  O2543  1  0.434000  0.185700  0.151150  1
  O  O2544  1  0.934000  0.314300  0.348850  1
  O  O2545  1  0.468600  0.882800  0.838600  1
  O  O2546  1  0.968600  0.617200  0.661400  1
  O  O2547  1  0.531400  0.117200  0.161400  1
  O  O2548  1  0.031400  0.382800  0.338600  1
  O  O2549  1  0.492900  0.974300  0.847700  1
  O  O2550  1  0.992900  0.525700  0.652300  1
  O  O2551  1  0.507100  0.025700  0.152300  1
  O  O2552  1  0.007100  0.474300  0.347700  1
  O  O2553  1  0.042700  0.884400  0.041930  1
  O  O2554  1  0.542700  0.615600  0.458070  1
  O  O2555  1  0.957300  0.115600  0.958070  1
  O  O2556  1  0.457300  0.384400  0.541930  1
  O  O2557  1  0.943300  0.879800  0.039590  1
  O  O2558  1  0.443300  0.620200  0.460410  1
  O  O2559  1  0.056700  0.120200  0.960410  1
  O  O2560  1  0.556700  0.379800  0.539590  1
  O  O2561  1  0.902800  0.782600  0.009800  1
  O  O2562  1  0.402800  0.717400  0.490200  1
  O  O2563  1  0.097200  0.217400  0.990200  1
  O  O2564  1  0.597200  0.282600  0.509800  1
  O  O2565  1  0.971400  0.714600  0.000080  1
  O  O2566  1  0.471400  0.785400  0.499920  1
  O  O2567  1  0.028600  0.285400  0.999920  1
  O  O2568  1  0.528600  0.214600  0.500080  1
  O  O2569  1  0.775200  0.061500  0.899830  1
  O  O2570  1  0.275200  0.438500  0.600170  1
  O  O2571  1  0.224800  0.938500  0.100170  1
  O  O2572  1  0.724800  0.561500  0.399830  1
  O  O2573  1  0.837500  0.987800  0.878100  1
  O  O2574  1  0.337500  0.512200  0.621900  1
  O  O2575  1  0.162500  0.012200  0.121900  1
  O  O2576  1  0.662500  0.487800  0.378100  1
  O  O2577  1  0.762000  0.930600  0.828400  1
  O  O2578  1  0.262000  0.569400  0.671600  1
  O  O2579  1  0.238000  0.069400  0.171600  1
  O  O2580  1  0.738000  0.430600  0.328400  1
  O  O2581  1  0.825600  0.987500  0.805900  1
  O  O2582  1  0.325600  0.512500  0.694100  1
  O  O2583  1  0.174400  0.012500  0.194100  1
  O  O2584  1  0.674400  0.487500  0.305900  1
  O  O2585  1  0.605000  0.670700  0.985900  1
  O  O2586  1  0.105000  0.829300  0.514100  1
  O  O2587  1  0.395000  0.329300  0.014100  1
  O  O2588  1  0.895000  0.170700  0.485900  1
  O  O2589  1  0.535300  0.600800  0.974800  1
  O  O2590  1  0.035300  0.899200  0.525200  1
  O  O2591  1  0.464700  0.399200  0.025200  1
  O  O2592  1  0.964700  0.100800  0.474800  1
  O  O2593  1  0.602200  0.686300  0.046300  1
  O  O2594  1  0.102200  0.813700  0.453700  1
  O  O2595  1  0.397800  0.313700  0.953700  1
  O  O2596  1  0.897800  0.186300  0.546300  1
  O  O2597  1  0.507600  0.697000  0.063900  1
  O  O2598  1  0.007600  0.803000  0.436100  1
  O  O2599  1  0.492400  0.303000  0.936100  1
  O  O2600  1  0.992400  0.197000  0.563900  1
  O  O2601  1  0.797400  0.899200  0.602600  1
  O  O2602  1  0.297400  0.600800  0.897400  1
  O  O2603  1  0.202600  0.100800  0.397400  1
  O  O2604  1  0.702600  0.399200  0.102600  1
  O  O2605  1  0.861300  0.968200  0.620400  1
  O  O2606  1  0.361300  0.531800  0.879600  1
  O  O2607  1  0.138700  0.031800  0.379600  1
  O  O2608  1  0.638700  0.468200  0.120400  1
  O  O2609  1  0.869300  0.967700  0.693800  1
  O  O2610  1  0.369300  0.532300  0.806200  1
  O  O2611  1  0.130700  0.032300  0.306200  1
  O  O2612  1  0.630700  0.467700  0.193800  1
  O  O2613  1  0.788800  0.019600  0.680000  1
  O  O2614  1  0.288800  0.480400  0.820000  1
  O  O2615  1  0.211200  0.980400  0.320000  1
  O  O2616  1  0.711200  0.519600  0.180000  1
  O  O2617  1  0.027300  0.256100  0.173100  1
  O  O2618  1  0.527300  0.243900  0.326900  1
  O  O2619  1  0.972700  0.743900  0.826900  1
  O  O2620  1  0.472700  0.756100  0.673100  1
  O  O2621  1  0.942700  0.209900  0.152400  1
  O  O2622  1  0.442700  0.290100  0.347600  1
  O  O2623  1  0.057300  0.790100  0.847600  1
  O  O2624  1  0.557300  0.709900  0.652400  1
  O  O2625  1  0.009300  0.371800  0.195500  1
  O  O2626  1  0.509300  0.128200  0.304500  1
  O  O2627  1  0.990700  0.628200  0.804500  1
  O  O2628  1  0.490700  0.871800  0.695500  1
  O  O2629  1  0.960200  0.317600  0.226900  1
  O  O2630  1  0.460200  0.182400  0.273100  1
  O  O2631  1  0.039800  0.682400  0.773100  1
  O  O2632  1  0.539800  0.817600  0.726900  1
  O  O2633  1  0.484400  0.898600  0.291900  1
  O  O2634  1  0.984400  0.601400  0.208100  1
  O  O2635  1  0.515600  0.101400  0.708100  1
  O  O2636  1  0.015600  0.398600  0.791900  1
  O  O2637  1  0.425700  0.845100  0.315000  1
  O  O2638  1  0.925700  0.654900  0.185000  1
  O  O2639  1  0.574300  0.154900  0.685000  1
  O  O2640  1  0.074300  0.345100  0.815000  1
  O  O2641  1  0.564600  0.856600  0.378600  1
  O  O2642  1  0.064600  0.643400  0.121400  1
  O  O2643  1  0.435400  0.143400  0.621400  1
  O  O2644  1  0.935400  0.356600  0.878600  1
  O  O2645  1  0.467600  0.838000  0.374500  1
  O  O2646  1  0.967600  0.662000  0.125500  1
  O  O2647  1  0.532400  0.162000  0.625500  1
  O  O2648  1  0.032400  0.338000  0.874500  1
  O  O2649  1  0.915800  0.017700  0.857600  1
  O  O2650  1  0.415800  0.482300  0.642400  1
  O  O2651  1  0.084200  0.982300  0.142400  1
  O  O2652  1  0.584200  0.517700  0.357600  1
  O  O2653  1  0.832600  0.998000  0.883200  1
  O  O2654  1  0.332600  0.502000  0.616800  1
  O  O2655  1  0.167400  0.002000  0.116800  1
  O  O2656  1  0.667400  0.498000  0.383200  1
  O  O2657  1  0.763400  0.058500  0.799400  1
  O  O2658  1  0.263400  0.441500  0.700600  1
  O  O2659  1  0.236600  0.941500  0.200600  1
  O  O2660  1  0.736600  0.558500  0.299400  1
  O  O2661  1  0.732700  0.008500  0.836100  1
  O  O2662  1  0.232700  0.491500  0.663900  1
  O  O2663  1  0.267300  0.991500  0.163900  1
  O  O2664  1  0.767300  0.508500  0.336100  1
  O  O2665  1  0.598400  0.702100  0.058100  1
  O  O2666  1  0.098400  0.797900  0.441900  1
  O  O2667  1  0.401600  0.297900  0.941900  1
  O  O2668  1  0.901600  0.202100  0.558100  1
  O  O2669  1  0.592300  0.627100  0.962900  1
  O  O2670  1  0.092300  0.872900  0.537100  1
  O  O2671  1  0.407700  0.372900  0.037100  1
  O  O2672  1  0.907700  0.127100  0.462900  1
  O  O2673  1  0.513500  0.614000  0.989800  1
  O  O2674  1  0.013500  0.886000  0.510200  1
  O  O2675  1  0.486500  0.386000  0.010200  1
  O  O2676  1  0.986500  0.114000  0.489800  1
  O  O2677  1  0.500600  0.680000  0.041600  1
  O  O2678  1  0.000600  0.820000  0.458400  1
  O  O2679  1  0.499400  0.320000  0.958400  1
  O  O2680  1  0.999400  0.180000  0.541600  1
  O  O2681  1  0.807500  0.024500  0.688000  1
  O  O2682  1  0.307500  0.475500  0.812000  1
  O  O2683  1  0.192500  0.975500  0.312000  1
  O  O2684  1  0.692500  0.524500  0.188000  1
  O  O2685  1  0.741700  0.957600  0.660100  1
  O  O2686  1  0.241700  0.542400  0.839900  1
  O  O2687  1  0.258300  0.042400  0.339900  1
  O  O2688  1  0.758300  0.457600  0.160100  1
  O  O2689  1  0.930100  0.920800  0.650300  1
  O  O2690  1  0.430100  0.579200  0.849700  1
  O  O2691  1  0.069900  0.079200  0.349700  1
  O  O2692  1  0.569900  0.420800  0.150300  1
  O  O2693  1  0.865400  0.978900  0.632200  1
  O  O2694  1  0.365400  0.521100  0.867800  1
  O  O2695  1  0.134600  0.021100  0.367800  1
  O  O2696  1  0.634600  0.478900  0.132200  1
  O  O2697  1  0.916800  0.290200  0.122200  1
  O  O2698  1  0.416800  0.209800  0.377800  1
  O  O2699  1  0.083200  0.709800  0.877800  1
  O  O2700  1  0.583200  0.790200  0.622200  1
  O  O2701  1  0.999900  0.338700  0.135900  1
  O  O2702  1  0.499900  0.161300  0.364100  1
  O  O2703  1  0.000100  0.661300  0.864100  1
  O  O2704  1  0.500100  0.838700  0.635900  1
  O  O2705  1  0.919100  0.341900  0.223600  1
  O  O2706  1  0.419100  0.158100  0.276400  1
  O  O2707  1  0.080900  0.658100  0.776400  1
  O  O2708  1  0.580900  0.841900  0.723600  1
  O  O2709  1  0.016800  0.341800  0.206100  1
  O  O2710  1  0.516800  0.158200  0.293900  1
  O  O2711  1  0.983200  0.658200  0.793900  1
  O  O2712  1  0.483200  0.841800  0.706100  1
  O  O2713  1  0.498300  0.951300  0.254700  1
  O  O2714  1  0.998300  0.548700  0.245300  1
  O  O2715  1  0.501700  0.048700  0.745300  1
  O  O2716  1  0.001700  0.451300  0.754700  1
  O  O2717  1  0.480900  0.858700  0.256500  1
  O  O2718  1  0.980900  0.641300  0.243500  1
  O  O2719  1  0.519100  0.141300  0.743500  1
  O  O2720  1  0.019100  0.358700  0.756500  1
  O  O2721  1  0.408600  0.861500  0.308600  1
  O  O2722  1  0.908600  0.638500  0.191400  1
  O  O2723  1  0.591400  0.138500  0.691400  1
  O  O2724  1  0.091400  0.361500  0.808600  1
  O  O2725  1  0.484700  0.898100  0.347900  1
  O  O2726  1  0.984700  0.601900  0.152100  1
  O  O2727  1  0.515300  0.101900  0.652100  1
  O  O2728  1  0.015300  0.398100  0.847900  1
  F  F2729  1  0.640400  0.889900  0.803290  1
  F  F2730  1  0.140400  0.610100  0.696710  1
  F  F2731  1  0.359600  0.110100  0.196710  1
  F  F2732  1  0.859600  0.389900  0.303290  1
  F  F2733  1  0.638800  0.809600  0.800640  1
  F  F2734  1  0.138800  0.690400  0.699360  1
  F  F2735  1  0.361200  0.190400  0.199360  1
  F  F2736  1  0.861200  0.309600  0.300640  1
  F  F2737  1  0.567400  0.849700  0.793590  1
  F  F2738  1  0.067400  0.650300  0.706410  1
  F  F2739  1  0.432600  0.150300  0.206410  1
  F  F2740  1  0.932600  0.349700  0.293590  1
  F  F2741  1  0.515800  0.959500  0.906740  1
  F  F2742  1  0.015800  0.540500  0.593260  1
  F  F2743  1  0.484200  0.040500  0.093260  1
  F  F2744  1  0.984200  0.459500  0.406740  1
  F  F2745  1  0.487900  0.883100  0.899210  1
  F  F2746  1  0.987900  0.616900  0.600790  1
  F  F2747  1  0.512100  0.116900  0.100790  1
  F  F2748  1  0.012100  0.383100  0.399210  1
  F  F2749  1  0.432800  0.943000  0.895930  1
  F  F2750  1  0.932800  0.557000  0.604070  1
  F  F2751  1  0.567200  0.057000  0.104070  1
  F  F2752  1  0.067200  0.443000  0.395930  1
  F  F2753  1  0.986900  0.878200  0.096990  1
  F  F2754  1  0.486900  0.621800  0.403010  1
  F  F2755  1  0.013100  0.121800  0.903010  1
  F  F2756  1  0.513100  0.378200  0.596990  1
  F  F2757  1  0.953100  0.804600  0.078650  1
  F  F2758  1  0.453100  0.695400  0.421350  1
  F  F2759  1  0.046900  0.195400  0.921350  1
  F  F2760  1  0.546900  0.304600  0.578650  1
  F  F2761  1  0.037800  0.815000  0.083120  1
  F  F2762  1  0.537800  0.685000  0.416880  1
  F  F2763  1  0.962200  0.185000  0.916880  1
  F  F2764  1  0.462200  0.315000  0.583120  1
  F  F2765  1  0.956900  0.831000  0.967210  1
  F  F2766  1  0.456900  0.669000  0.532790  1
  F  F2767  1  0.043100  0.169000  0.032790  1
  F  F2768  1  0.543100  0.331000  0.467210  1
  F  F2769  1  0.933100  0.755100  0.949150  1
  F  F2770  1  0.433100  0.744900  0.550850  1
  F  F2771  1  0.066900  0.244900  0.050850  1
  F  F2772  1  0.566900  0.255100  0.449150  1
  F  F2773  1  0.017400  0.772500  0.957660  1
  F  F2774  1  0.517400  0.727500  0.542340  1
  F  F2775  1  0.982600  0.227500  0.042340  1
  F  F2776  1  0.482600  0.272500  0.457660  1
  F  F2777  1  0.896800  0.065800  0.854400  1
  F  F2778  1  0.396800  0.434200  0.645600  1
  F  F2779  1  0.103200  0.934200  0.145600  1
  F  F2780  1  0.603200  0.565800  0.354400  1
  F  F2781  1  0.834500  0.125000  0.867600  1
  F  F2782  1  0.334500  0.375000  0.632400  1
  F  F2783  1  0.165500  0.875000  0.132400  1
  F  F2784  1  0.665500  0.625000  0.367600  1
  F  F2785  1  0.886700  0.091800  0.899400  1
  F  F2786  1  0.386700  0.408200  0.600600  1
  F  F2787  1  0.113300  0.908200  0.100600  1
  F  F2788  1  0.613300  0.591800  0.399400  1
  F  F2789  1  0.728600  0.042200  0.792900  1
  F  F2790  1  0.228600  0.457800  0.707100  1
  F  F2791  1  0.271400  0.957800  0.207100  1
  F  F2792  1  0.771400  0.542200  0.292900  1
  F  F2793  1  0.711800  0.958200  0.779300  1
  F  F2794  1  0.211800  0.541800  0.720700  1
  F  F2795  1  0.288200  0.041800  0.220700  1
  F  F2796  1  0.788200  0.458200  0.279300  1
  F  F2797  1  0.675800  0.999400  0.818000  1
  F  F2798  1  0.175800  0.500600  0.682000  1
  F  F2799  1  0.324200  0.000600  0.182000  1
  F  F2800  1  0.824200  0.499400  0.318000  1
  F  F2801  1  0.522300  0.739300  0.966200  1
  F  F2802  1  0.022300  0.760700  0.533800  1
  F  F2803  1  0.477700  0.260700  0.033800  1
  F  F2804  1  0.977700  0.239300  0.466200  1
  F  F2805  1  0.537200  0.674400  0.932800  1
  F  F2806  1  0.037200  0.825600  0.567200  1
  F  F2807  1  0.462800  0.325600  0.067200  1
  F  F2808  1  0.962800  0.174400  0.432800  1
  F  F2809  1  0.463000  0.680800  0.958200  1
  F  F2810  1  0.963000  0.819200  0.541800  1
  F  F2811  1  0.537000  0.319200  0.041800  1
  F  F2812  1  0.037000  0.180800  0.458200  1
  F  F2813  1  0.563400  0.794500  0.069600  1
  F  F2814  1  0.063400  0.705500  0.430400  1
  F  F2815  1  0.436600  0.205500  0.930400  1
  F  F2816  1  0.936600  0.294500  0.569600  1
  F  F2817  1  0.495500  0.787900  0.040800  1
  F  F2818  1  0.995500  0.712100  0.459200  1
  F  F2819  1  0.504500  0.212100  0.959200  1
  F  F2820  1  0.004500  0.287900  0.540800  1
  F  F2821  1  0.576500  0.785000  0.022900  1
  F  F2822  1  0.076500  0.715000  0.477100  1
  F  F2823  1  0.423500  0.215000  0.977100  1
  F  F2824  1  0.923500  0.285000  0.522900  1
  F  F2825  1  0.728600  0.981200  0.722000  1
  F  F2826  1  0.228600  0.518800  0.778000  1
  F  F2827  1  0.271400  0.018800  0.278000  1
  F  F2828  1  0.771400  0.481200  0.222000  1
  F  F2829  1  0.808000  0.955000  0.731900  1
  F  F2830  1  0.308000  0.545000  0.768100  1
  F  F2831  1  0.192000  0.045000  0.268100  1
  F  F2832  1  0.692000  0.455000  0.231900  1
  F  F2833  1  0.752400  0.903600  0.707700  1
  F  F2834  1  0.252400  0.596400  0.792300  1
  F  F2835  1  0.247600  0.096400  0.292300  1
  F  F2836  1  0.747600  0.403600  0.207700  1
  F  F2837  1  0.909900  0.864700  0.602400  1
  F  F2838  1  0.409900  0.635300  0.897600  1
  F  F2839  1  0.090100  0.135300  0.397600  1
  F  F2840  1  0.590100  0.364700  0.102400  1
  F  F2841  1  0.861200  0.833900  0.635400  1
  F  F2842  1  0.361200  0.666100  0.864600  1
  F  F2843  1  0.138800  0.166100  0.364600  1
  F  F2844  1  0.638800  0.333900  0.135400  1
  F  F2845  1  0.920900  0.891200  0.648300  1
  F  F2846  1  0.420900  0.608800  0.851700  1
  F  F2847  1  0.079100  0.108800  0.351700  1
  F  F2848  1  0.579100  0.391200  0.148300  1
  F  F2849  1  0.939100  0.280000  0.111000  1
  F  F2850  1  0.439100  0.220000  0.389000  1
  F  F2851  1  0.060900  0.720000  0.889000  1
  F  F2852  1  0.560900  0.780000  0.611000  1
  F  F2853  1  0.006600  0.234400  0.106000  1
  F  F2854  1  0.506600  0.265600  0.394000  1
  F  F2855  1  0.993400  0.765600  0.894000  1
  F  F2856  1  0.493400  0.734400  0.606000  1
  F  F2857  1  0.012900  0.315000  0.125700  1
  F  F2858  1  0.512900  0.185000  0.374300  1
  F  F2859  1  0.987100  0.685000  0.874300  1
  F  F2860  1  0.487100  0.815000  0.625700  1
  F  F2861  1  0.888800  0.405600  0.188700  1
  F  F2862  1  0.388800  0.094400  0.311300  1
  F  F2863  1  0.111200  0.594400  0.811300  1
  F  F2864  1  0.611200  0.905600  0.688700  1
  F  F2865  1  0.866200  0.367900  0.221500  1
  F  F2866  1  0.366200  0.132100  0.278500  1
  F  F2867  1  0.133800  0.632100  0.778500  1
  F  F2868  1  0.633800  0.867900  0.721500  1
  F  F2869  1  0.927900  0.428200  0.232200  1
  F  F2870  1  0.427900  0.071800  0.267800  1
  F  F2871  1  0.072100  0.571800  0.767800  1
  F  F2872  1  0.572100  0.928200  0.732200  1
  F  F2873  1  0.475200  0.980100  0.342800  1
  F  F2874  1  0.975200  0.519900  0.157200  1
  F  F2875  1  0.524800  0.019900  0.657200  1
  F  F2876  1  0.024800  0.480100  0.842800  1
  F  F2877  1  0.415700  0.933500  0.363100  1
  F  F2878  1  0.915700  0.566500  0.136900  1
  F  F2879  1  0.584300  0.066500  0.636900  1
  F  F2880  1  0.084300  0.433500  0.863100  1
  F  F2881  1  0.398500  0.962700  0.321100  1
  F  F2882  1  0.898500  0.537300  0.178900  1
  F  F2883  1  0.601500  0.037300  0.678900  1
  F  F2884  1  0.101500  0.462700  0.821100  1
  F  F2885  1  0.537000  0.746400  0.361300  1
  F  F2886  1  0.037000  0.753600  0.138700  1
  F  F2887  1  0.463000  0.253600  0.638700  1
  F  F2888  1  0.963000  0.246400  0.861300  1
  F  F2889  1  0.497300  0.759200  0.324400  1
  F  F2890  1  0.997300  0.740800  0.175600  1
  F  F2891  1  0.502700  0.240800  0.675600  1
  F  F2892  1  0.002700  0.259200  0.824400  1
  F  F2893  1  0.581000  0.781900  0.328000  1
  F  F2894  1  0.081000  0.718100  0.172000  1
  F  F2895  1  0.419000  0.218100  0.672000  1
  F  F2896  1  0.919000  0.281900  0.828000  1
  F  F2897  1  0.875400  0.944800  0.267200  1
  F  F2898  1  0.375400  0.555200  0.232800  1
  F  F2899  1  0.124600  0.055200  0.732800  1
  F  F2900  1  0.624600  0.444800  0.767200  1
  F  F2901  1  0.889300  0.005300  0.239900  1
  F  F2902  1  0.389300  0.494700  0.260100  1
  F  F2903  1  0.110700  0.994700  0.760100  1
  F  F2904  1  0.610700  0.505300  0.739900  1
  F  F2905  1  0.820900  0.948600  0.231500  1
  F  F2906  1  0.320900  0.551400  0.268500  1
  F  F2907  1  0.179100  0.051400  0.768500  1
  F  F2908  1  0.679100  0.448600  0.731500  1
  F  F2909  1  0.821500  0.009900  0.270300  1
  F  F2910  1  0.321500  0.490100  0.229700  1
  F  F2911  1  0.178500  0.990100  0.729700  1
  F  F2912  1  0.678500  0.509900  0.770300  1
  F  F2913  1  0.745700  0.946700  0.782400  1
  F  F2914  1  0.245700  0.553300  0.717600  1
  F  F2915  1  0.254300  0.053300  0.217600  1
  F  F2916  1  0.754300  0.446700  0.282400  1
  F  F2917  1  0.855700  0.094700  0.914100  1
  F  F2918  1  0.355700  0.405300  0.585900  1
  F  F2919  1  0.144300  0.905300  0.085900  1
  F  F2920  1  0.644300  0.594700  0.414100  1
  F  F2921  1  0.854600  0.132900  0.878600  1
  F  F2922  1  0.354600  0.367100  0.621400  1
  F  F2923  1  0.145400  0.867100  0.121400  1
  F  F2924  1  0.645400  0.632900  0.378600  1
  F  F2925  1  0.805500  0.929300  0.815700  1
  F  F2926  1  0.305500  0.570700  0.684300  1
  F  F2927  1  0.194500  0.070700  0.184300  1
  F  F2928  1  0.694500  0.429300  0.315700  1
  F  F2929  1  0.929300  0.096200  0.885100  1
  F  F2930  1  0.429300  0.403800  0.614900  1
  F  F2931  1  0.070700  0.903800  0.114900  1
  F  F2932  1  0.570700  0.596200  0.385100  1
  F  F2933  1  0.831900  0.962300  0.779300  1
  F  F2934  1  0.331900  0.537700  0.720700  1
  F  F2935  1  0.168100  0.037700  0.220700  1
  F  F2936  1  0.668100  0.462300  0.279300  1
  F  F2937  1  0.497900  0.656100  0.935100  1
  F  F2938  1  0.997900  0.843900  0.564900  1
  F  F2939  1  0.502100  0.343900  0.064900  1
  F  F2940  1  0.002100  0.156100  0.435100  1
  F  F2941  1  0.470600  0.709500  0.972700  1
  F  F2942  1  0.970600  0.790500  0.527300  1
  F  F2943  1  0.529400  0.290500  0.027300  1
  F  F2944  1  0.029400  0.209500  0.472700  1
  F  F2945  1  0.510100  0.783300  0.020500  1
  F  F2946  1  0.010100  0.716700  0.479500  1
  F  F2947  1  0.489900  0.216700  0.979500  1
  F  F2948  1  0.989900  0.283300  0.520500  1
  F  F2949  1  0.526700  0.793800  0.066500  1
  F  F2950  1  0.026700  0.706200  0.433500  1
  F  F2951  1  0.473300  0.206200  0.933500  1
  F  F2952  1  0.973300  0.293800  0.566500  1
  F  F2953  1  0.591300  0.797400  0.036000  1
  F  F2954  1  0.091300  0.702600  0.464000  1
  F  F2955  1  0.408700  0.202600  0.964000  1
  F  F2956  1  0.908700  0.297400  0.536000  1
  F  F2957  1  0.547700  0.722900  0.951000  1
  F  F2958  1  0.047700  0.777100  0.549000  1
  F  F2959  1  0.452300  0.277100  0.049000  1
  F  F2960  1  0.952300  0.222900  0.451000  1
  F  F2961  1  0.775600  0.985000  0.732900  1
  F  F2962  1  0.275600  0.515000  0.767100  1
  F  F2963  1  0.224400  0.015000  0.267100  1
  F  F2964  1  0.724400  0.485000  0.232900  1
  F  F2965  1  0.790300  0.901300  0.709500  1
  F  F2966  1  0.290300  0.598700  0.790500  1
  F  F2967  1  0.209700  0.098700  0.290500  1
  F  F2968  1  0.709700  0.401300  0.209500  1
  F  F2969  1  0.715200  0.945700  0.699100  1
  F  F2970  1  0.215200  0.554300  0.800900  1
  F  F2971  1  0.284800  0.054300  0.300900  1
  F  F2972  1  0.784800  0.445700  0.199100  1
  F  F2973  1  0.885600  0.872000  0.592800  1
  F  F2974  1  0.385600  0.628000  0.907200  1
  F  F2975  1  0.114400  0.128000  0.407200  1
  F  F2976  1  0.614400  0.372000  0.092800  1
  F  F2977  1  0.859900  0.832200  0.625900  1
  F  F2978  1  0.359900  0.667800  0.874100  1
  F  F2979  1  0.140100  0.167800  0.374100  1
  F  F2980  1  0.640100  0.332200  0.125900  1
  F  F2981  1  0.806200  0.882500  0.606200  1
  F  F2982  1  0.306200  0.617500  0.893800  1
  F  F2983  1  0.193800  0.117500  0.393800  1
  F  F2984  1  0.693800  0.382500  0.106200  1
  F  F2985  1  0.965800  0.202500  0.137000  1
  F  F2986  1  0.465800  0.297500  0.363000  1
  F  F2987  1  0.034200  0.797500  0.863000  1
  F  F2988  1  0.534200  0.702500  0.637000  1
  F  F2989  1  0.028500  0.236300  0.114100  1
  F  F2990  1  0.528500  0.263700  0.385900  1
  F  F2991  1  0.971500  0.763700  0.885900  1
  F  F2992  1  0.471500  0.736300  0.614100  1
  F  F2993  1  0.951200  0.443200  0.209100  1
  F  F2994  1  0.451200  0.056800  0.290900  1
  F  F2995  1  0.048800  0.556800  0.790900  1
  F  F2996  1  0.548800  0.943200  0.709100  1
  F  F2997  1  0.904000  0.409400  0.173100  1
  F  F2998  1  0.404000  0.090600  0.326900  1
  F  F2999  1  0.096000  0.590600  0.826900  1
  F  F3000  1  0.596000  0.909400  0.673100  1
  F  F3001  1  0.982900  0.408300  0.166100  1
  F  F3002  1  0.482900  0.091700  0.333900  1
  F  F3003  1  0.017100  0.591700  0.833900  1
  F  F3004  1  0.517100  0.908300  0.666100  1
  F  F3005  1  0.033700  0.241400  0.161500  1
  F  F3006  1  0.533700  0.258600  0.338500  1
  F  F3007  1  0.966300  0.758600  0.838500  1
  F  F3008  1  0.466300  0.741400  0.661500  1
  F  F3009  1  0.409300  0.917100  0.223900  1
  F  F3010  1  0.909300  0.582900  0.276100  1
  F  F3011  1  0.590700  0.082900  0.776100  1
  F  F3012  1  0.090700  0.417100  0.723900  1
  F  F3013  1  0.369100  0.886200  0.260500  1
  F  F3014  1  0.869100  0.613800  0.239500  1
  F  F3015  1  0.630900  0.113800  0.739500  1
  F  F3016  1  0.130900  0.386200  0.760500  1
  F  F3017  1  0.381200  0.966300  0.259700  1
  F  F3018  1  0.881200  0.533700  0.240300  1
  F  F3019  1  0.618800  0.033700  0.740300  1
  F  F3020  1  0.118800  0.466300  0.759700  1
  F  F3021  1  0.355400  0.923300  0.359900  1
  F  F3022  1  0.855400  0.576700  0.140100  1
  F  F3023  1  0.644600  0.076700  0.640100  1
  F  F3024  1  0.144600  0.423300  0.859900  1
  F  F3025  1  0.352000  0.939200  0.321500  1
  F  F3026  1  0.852000  0.560800  0.178500  1
  F  F3027  1  0.648000  0.060800  0.678500  1
  F  F3028  1  0.148000  0.439200  0.821500  1
  F  F3029  1  0.411200  0.984300  0.354000  1
  F  F3030  1  0.911200  0.515700  0.146000  1
  F  F3031  1  0.588800  0.015700  0.646000  1
  F  F3032  1  0.088800  0.484300  0.854000  1
  F  F3033  1  0.894700  0.966700  0.266400  1
  F  F3034  1  0.394700  0.533300  0.233600  1
  F  F3035  1  0.105300  0.033300  0.733600  1
  F  F3036  1  0.605300  0.466700  0.766400  1
  F  F3037  1  0.860600  0.022000  0.240600  1
  F  F3038  1  0.360600  0.478000  0.259400  1
  F  F3039  1  0.139400  0.978000  0.759400  1
  F  F3040  1  0.639400  0.522000  0.740600  1
  F  F3041  1  0.807100  0.965200  0.252900  1
  F  F3042  1  0.307100  0.534800  0.247100  1
  F  F3043  1  0.192900  0.034800  0.747100  1
  F  F3044  1  0.692900  0.465200  0.752900  1
  F  F3045  1  0.873300  0.939700  0.222300  1
  F  F3046  1  0.373300  0.560300  0.277700  1
  F  F3047  1  0.126700  0.060300  0.777700  1
  F  F3048  1  0.626700  0.439700  0.722300  1
