
#######################################################################
#
#                 Cambridge Crystallographic Data Centre
#                                CCDC 
#
#######################################################################
#
# If this CIF has been generated from an entry in the Cambridge 
# Structural Database, then it will include bibliographic, chemical, 
# crystal, experimental, refinement or atomic coordinate data resulting 
# from the CCDC's data processing and validation procedures.
#
#######################################################################

data_SUWFUN
_chemical_formula_moiety         
'C240 H156 Co4 N24 8+,7(C2 F6 N1 O4 S2 1-),7.5(C6 H6),4(C2 H3 N1),B1 F4 1-'
_chemical_name_systematic        
"hexakis(\m~2~-N,N'-(pyrene-1,6-diyldi-3,1-phenylene)bis(1-(pyridin-2-yl)methanimine))-tetra-cobalt heptakis(bis((trifluoromethyl)sulfonyl)azanide) tetrafluoroborate acetonitrile benzene solvate"
_symmetry_cell_setting           monoclinic
_symmetry_space_group_name_H-M   'P 21/n'
_symmetry_Int_Tables_number      14
_space_group_name_Hall           '-P 2yn'
loop_
_symmetry_equiv_pos_site_id
_symmetry_equiv_pos_as_xyz
1 x,y,z
2 1/2-x,1/2+y,1/2-z
3 -x,-y,-z
4 1/2+x,1/2-y,1/2+z
_cell_length_a                   26.1104(14)
_cell_length_b                   24.4159(13)
_cell_length_c                   47.001(2)
_cell_angle_alpha                90
_cell_angle_beta                 100.2710(10)
_cell_angle_gamma                90
_cell_volume                     29483.4
_exptl_crystal_colour            orange
_exptl_crystal_description       block
_cell_formula_units_Z            4
_exptl_crystal_recrystallization_method 
'Re-crystallisation from solvent: acetonitrile, benzene'
loop_
_atom_site_label
_atom_site_type_symbol
_atom_site_fract_x
_atom_site_fract_y
_atom_site_fract_z
Co1 Co 0.19382(5) 0.20663(5) -0.31190(3)
Co2 Co 0.08903(5) 0.25608(5) 0.03998(3)
Co3 Co -0.14502(5) 0.22696(5) -0.18994(2)
Co4 Co -0.03209(5) 0.25572(5) -0.54259(3)
N1 N 0.1952(3) 0.2577(3) -0.34855(14)
N2 N 0.2563(3) 0.2635(3) -0.29624(14)
N3 N 0.1299(2) 0.2121(3) 0.00978(13)
N4 N 0.0475(2) 0.1815(3) 0.03346(13)
N5 N 0.1310(3) 0.1564(3) -0.33126(13)
N6 N 0.1277(3) 0.2481(3) -0.30056(13)
N7 N 0.0531(2) 0.2959(3) -0.00090(13)
N8 N 0.1162(2) 0.3388(3) 0.04412(13)
N9 N -0.0883(3) 0.1698(3) -0.17023(12)
N10 N -0.0746(3) 0.2583(3) -0.20086(13)
N11 N 0.0112(3) 0.2889(3) -0.50176(15)
N12 N -0.0453(3) 0.3417(3) -0.54637(17)
N13 N -0.1432(3) 0.2804(3) -0.15429(13)
N14 N -0.2020(3) 0.2882(3) -0.20633(14)
N15 N -0.0792(3) 0.2223(3) -0.51309(13)
N16 N -0.0014(3) 0.1749(3) -0.53551(13)
N17 N -0.1605(2) 0.1759(3) -0.22730(12)
N18 N -0.2124(2) 0.1823(3) -0.18289(13)
N19 N 0.0512(3) 0.2792(3) 0.07576(14)
N20 N 0.1388(3) 0.2202(3) 0.07620(13)
N21 N 0.2044(3) 0.1580(3) -0.27363(13)
N22 N 0.2599(3) 0.1547(3) -0.31668(14)
N23 N 0.0094(3) 0.2723(3) -0.57810(15)
N24 N -0.0841(3) 0.2245(3) -0.57932(14)
C1 C 0.1625(4) 0.2570(4) -0.37363(18)
H1 H 0.1343 0.2318 -0.3763
C2 C 0.1684(4) 0.2922(5) -0.3960(2)
H2 H 0.1448 0.2908 -0.4139
C3 C 0.2085(5) 0.3289(5) -0.3922(2)
H3 H 0.2124 0.3535 -0.4073
C4 C 0.2432(4) 0.3306(4) -0.3666(2)
H4 H 0.2715 0.3556 -0.3638
C5 C 0.2353(4) 0.2934(4) -0.34439(18)
C6 C 0.2687(4) 0.2931(4) -0.31603(19)
H5 H 0.2993 0.3148 -0.3124
C7 C 0.2889(3) 0.2621(3) -0.26828(18)
C8 C 0.3415(4) 0.2518(4) -0.26548(19)
H6 H 0.3573 0.2468 -0.2820
C9 C 0.3705(4) 0.2488(4) -0.2378(2)
H7 H 0.4067 0.2407 -0.2352
C10 C 0.3479(4) 0.2574(4) -0.21411(19)
H8 H 0.3687 0.2555 -0.1954
C11 C 0.2961(3) 0.2689(3) -0.21678(17)
C12 C 0.2661(3) 0.2700(3) -0.24419(17)
H9 H 0.2297 0.2762 -0.2465
C13 C 0.2712(3) 0.2846(4) -0.19133(17)
C14 C 0.2478(3) 0.3348(3) -0.19153(17)
H10 H 0.2464 0.3575 -0.2081
C15 C 0.2264(3) 0.3537(3) -0.16890(16)
H11 H 0.2113 0.3892 -0.1697
C16 C 0.2267(3) 0.3202(3) -0.14444(16)
C17 C 0.2495(3) 0.2677(3) -0.14383(15)
C18 C 0.2719(3) 0.2496(3) -0.16754(17)
C19 C 0.2916(3) 0.1951(4) -0.16621(18)
H12 H 0.3063 0.1819 -0.1820
C20 C 0.2906(3) 0.1618(3) -0.14390(18)
H13 H 0.3034 0.1255 -0.1445
C21 C 0.2702(3) 0.1798(3) -0.11893(16)
C22 C 0.2500(3) 0.2340(3) -0.11897(16)
C23 C 0.2298(3) 0.2535(3) -0.09484(15)
C24 C 0.2320(3) 0.2190(3) -0.07054(16)
C25 C 0.2489(3) 0.1657(3) -0.07163(17)
H14 H 0.2474 0.1418 -0.0559
C26 C 0.2682(3) 0.1464(4) -0.09535(18)
H15 H 0.2803 0.1097 -0.0954
C27 C 0.2051(3) 0.3384(3) -0.12014(17)
H16 H 0.1893 0.3735 -0.1207
C28 C 0.2066(3) 0.3064(3) -0.09641(17)
H17 H 0.1920 0.3195 -0.0806
C29 C 0.2176(3) 0.2406(3) -0.04299(16)
C30 C 0.1803(3) 0.2144(3) -0.02998(16)
H18 H 0.1619 0.1837 -0.0391
C31 C 0.1698(3) 0.2334(3) -0.00357(16)
C32 C 0.1988(3) 0.2773(3) 0.01006(16)
H19 H 0.1932 0.2894 0.0285
C33 C 0.2354(3) 0.3032(3) -0.00293(17)
H20 H 0.2543 0.3335 0.0063
C34 C 0.2446(3) 0.2852(3) -0.02937(16)
H21 H 0.2696 0.3035 -0.0384
C35 C 0.1097(3) 0.1649(3) 0.00303(16)
H22 H 0.1236 0.1422 -0.0101
C36 C 0.0661(3) 0.1462(3) 0.01536(16)
C37 C 0.0428(3) 0.0956(4) 0.00821(19)
H23 H 0.0559 0.0718 -0.0048
C38 C 0.0000(4) 0.0805(4) 0.0204(2)
H24 H -0.0171 0.0465 0.0157
C39 C -0.0172(3) 0.1164(4) 0.03969(18)
H25 H -0.0455 0.1066 0.0489
C40 C 0.0072(3) 0.1659(4) 0.04533(17)
H26 H -0.0053 0.1902 0.0583
C41 C 0.1320(4) 0.1109(4) -0.34727(17)
H27 H 0.1644 0.0986 -0.3514
C42 C 0.0878(4) 0.0814(4) -0.35790(18)
H28 H 0.0893 0.0513 -0.3705
C43 C 0.0419(4) 0.0959(4) -0.35029(19)
H29 H 0.0116 0.0744 -0.3565
C44 C 0.0393(3) 0.1420(4) -0.33355(17)
H30 H 0.0075 0.1530 -0.3281
C45 C 0.0850(3) 0.1718(4) -0.32483(17)
C46 C 0.0854(3) 0.2213(3) -0.30711(16)
H31 H 0.0547 0.2331 -0.3007
C47 C 0.1301(3) 0.2954(3) -0.28221(17)
C48 C 0.1563(4) 0.3419(4) -0.28974(19)
H32 H 0.1708 0.3422 -0.3069
C49 C 0.1607(4) 0.3864(4) -0.27225(19)
H33 H 0.1766 0.4189 -0.2776
C50 C 0.1414(3) 0.3841(4) -0.24606(18)
H34 H 0.1470 0.4144 -0.2332
C51 C 0.1152(3) 0.3399(3) -0.23870(16)
C52 C 0.1105(3) 0.2939(3) -0.25702(16)
H35 H 0.0937 0.2618 -0.2519
C53 C 0.0915(3) 0.3407(3) -0.21213(16)
C54 C 0.0610(3) 0.3863(4) -0.20856(17)
H36 H 0.0578 0.4149 -0.2224
C55 C 0.0352(3) 0.3908(4) -0.18524(17)
H37 H 0.0143 0.4221 -0.1835
C56 C 0.0401(3) 0.3496(3) -0.16444(16)
C57 C 0.0733(3) 0.3038(3) -0.16614(16)
C58 C 0.0993(3) 0.2984(3) -0.19061(16)
C59 C 0.1323(3) 0.2530(3) -0.19114(16)
H38 H 0.1501 0.2492 -0.2070
C60 C 0.1396(3) 0.2151(3) -0.17047(16)
H39 H 0.1628 0.1857 -0.1718
C61 C 0.1131(3) 0.2176(3) -0.14592(15)
C62 C 0.0798(3) 0.2631(3) -0.14456(15)
C63 C 0.0533(3) 0.2677(3) -0.12037(16)
C64 C 0.0599(3) 0.2268(3) -0.09915(16)
C65 C 0.0931(3) 0.1832(3) -0.10155(16)
H40 H 0.0980 0.1560 -0.0869
C66 C 0.1190(3) 0.1781(3) -0.12429(16)
H41 H 0.1411 0.1475 -0.1253
C67 C 0.0200(3) 0.3141(3) -0.11948(17)
H42 H 0.0020 0.3180 -0.1037
C68 C 0.0138(3) 0.3519(4) -0.14022(18)
H43 H -0.0091 0.3817 -0.1389
C69 C 0.0328(3) 0.2312(3) -0.07354(16)
C70 C -0.0130(3) 0.2025(4) -0.07306(17)
H44 H -0.0269 0.1798 -0.0890
C71 C -0.0385(3) 0.2065(4) -0.05006(17)
H45 H -0.0704 0.1876 -0.0504
C72 C -0.0174(3) 0.2384(3) -0.02619(17)
H46 H -0.0346 0.2410 -0.0100
C73 C 0.0286(3) 0.2660(3) -0.02624(16)
C74 C 0.0534(3) 0.2629(3) -0.05004(16)
H47 H 0.0847 0.2828 -0.0501
C75 C 0.0705(3) 0.3439(4) -0.00375(17)
H48 H 0.0635 0.3619 -0.0219
C76 C 0.1013(3) 0.3706(3) 0.02097(17)
C77 C 0.1145(3) 0.4258(4) 0.0209(2)
H49 H 0.1029 0.4478 0.0043
C78 C 0.1447(4) 0.4479(4) 0.0454(2)
H50 H 0.1555 0.4851 0.0457
C79 C 0.1587(3) 0.4157(4) 0.0689(2)
H51 H 0.1784 0.4305 0.0861
C80 C 0.1442(3) 0.3608(4) 0.06777(19)
H52 H 0.1546 0.3384 0.0843
C81 C -0.0961(4) 0.1262(4) -0.15428(17)
H53 H -0.1299 0.1196 -0.1502
C82 C -0.0559(4) 0.0900(4) -0.14355(18)
H54 H -0.0622 0.0593 -0.1322
C83 C -0.0083(4) 0.0990(4) -0.1494(2)
H55 H 0.0197 0.0754 -0.1418
C84 C 0.0002(4) 0.1433(4) -0.16683(19)
H56 H 0.0332 0.1490 -0.1721
C85 C -0.0407(3) 0.1786(3) -0.17612(16)
C86 C -0.0353(3) 0.2274(3) -0.19375(16)
H57 H -0.0032 0.2355 -0.1996
C87 C -0.0714(3) 0.3052(3) -0.21884(17)
C88 C -0.0927(3) 0.3549(4) -0.21178(18)
H58 H -0.1071 0.3575 -0.1946
C89 C -0.0932(3) 0.3993(4) -0.22912(18)
H59 H -0.1074 0.4329 -0.2240
C90 C -0.0727(3) 0.3956(3) -0.25460(17)
H60 H -0.0732 0.4268 -0.2668
C91 C -0.0515(3) 0.3469(3) -0.26224(16)
C92 C -0.0506(3) 0.3015(3) -0.24408(16)
H61 H -0.0357 0.2681 -0.2489
C93 C -0.0274(3) 0.3456(3) -0.28902(17)
C94 C 0.0075(3) 0.3867(3) -0.29232(17)
H62 H 0.0144 0.4143 -0.2779
C95 C 0.0326(3) 0.3891(4) -0.31583(18)
H63 H 0.0564 0.4179 -0.3173
C96 C 0.0230(3) 0.3496(3) -0.33730(17)
C97 C -0.0141(3) 0.3075(3) -0.33524(17)
C98 C -0.0394(3) 0.3051(3) -0.31096(16)
C99 C -0.0773(3) 0.2626(3) -0.31050(17)
H64 H -0.0951 0.2609 -0.2946
C100 C -0.0885(3) 0.2256(3) -0.33141(16)
H65 H -0.1138 0.1983 -0.3300
C101 C -0.0630(3) 0.2262(3) -0.35618(16)
C102 C -0.0254(3) 0.2676(3) -0.35769(16)
C103 C 0.0010(3) 0.2686(3) -0.38178(17)
C104 C -0.0093(3) 0.2286(4) -0.40323(16)
C105 C -0.0462(3) 0.1880(3) -0.40062(17)
H66 H -0.0532 0.1606 -0.4151
C106 C -0.0726(3) 0.1867(3) -0.37807(17)
H67 H -0.0977 0.1588 -0.3772
C107 C 0.0489(4) 0.3500(4) -0.36134(19)
H68 H 0.0737 0.3779 -0.3628
C108 C 0.0389(3) 0.3112(4) -0.38256(18)
H69 H 0.0575 0.3123 -0.3982
C109 C 0.0191(3) 0.2271(3) -0.42850(17)
C110 C 0.0046(3) 0.2610(4) -0.45252(17)
H70 H -0.0229 0.2866 -0.4528
C111 C 0.0302(3) 0.2573(3) -0.47617(18)
C112 C 0.0703(4) 0.2218(4) -0.47580(19)
H71 H 0.0873 0.2191 -0.4920
C113 C 0.0864(4) 0.1892(4) -0.45133(19)
H72 H 0.1154 0.1654 -0.4506
C114 C 0.0603(3) 0.1915(4) -0.42825(18)
H73 H 0.0707 0.1683 -0.4120
C115 C 0.0044(5) 0.3399(5) -0.4995(2)
H74 H 0.0156 0.3576 -0.4815
C116 C -0.0203(6) 0.3713(4) -0.5241(2)
C117 C -0.0181(7) 0.4269(5) -0.5257(3)
H75 H -0.0003 0.4469 -0.5096
C118 C -0.0407(8) 0.4542(7) -0.5497(4)
H76 H -0.0370 0.4928 -0.5511
C119 C -0.0691(7) 0.4249(6) -0.5718(3)
H77 H -0.0880 0.4429 -0.5883
C120 C -0.0696(5) 0.3679(5) -0.5697(2)
H78 H -0.0880 0.3472 -0.5853
C121 C -0.1118(3) 0.2785(4) -0.12852(17)
H79 H -0.0850 0.2517 -0.1254
C122 C -0.1169(4) 0.3139(4) -0.10636(18)
H80 H -0.0944 0.3108 -0.0882
C123 C -0.1555(4) 0.3543(4) -0.1109(2)
H81 H -0.1591 0.3798 -0.0961
C124 C -0.1876(4) 0.3560(4) -0.13718(19)
H82 H -0.2145 0.3827 -0.1407
C125 C -0.1815(3) 0.3195(3) -0.15851(17)
C126 C -0.2131(3) 0.3198(4) -0.18708(18)
H83 H -0.2421 0.3438 -0.1914
C127 C -0.2342(3) 0.2866(4) -0.23502(17)
C128 C -0.2869(4) 0.2781(4) -0.23826(19)
H84 H -0.3033 0.2737 -0.2219
C129 C -0.3156(4) 0.2761(5) -0.2662(2)
H85 H -0.3519 0.2687 -0.2690
C130 C -0.2922(4) 0.2847(4) -0.28964(19)
H86 H -0.3123 0.2838 -0.3086
C131 C -0.2391(3) 0.2948(4) -0.28585(17)
C132 C -0.2100(3) 0.2948(3) -0.25850(16)
H87 H -0.1734 0.3004 -0.2557
C133 C -0.2129(3) 0.3096(4) -0.31136(17)
C134 C -0.1871(3) 0.3576(4) -0.31029(17)
H88 H -0.1853 0.3800 -0.2936
C135 C -0.1635(3) 0.3754(4) -0.33247(18)
H89 H -0.1450 0.4091 -0.3307
C136 C -0.1666(3) 0.3441(3) -0.35772(16)
C137 C -0.1923(3) 0.2922(4) -0.35896(16)
C138 C -0.2147(3) 0.2750(4) -0.33513(16)
C139 C -0.1442(3) 0.3618(4) -0.38210(17)
H90 H -0.1262 0.3957 -0.3814
C140 C -0.1489(3) 0.3304(4) -0.40579(18)
H91 H -0.1347 0.3435 -0.4218
C141 C -0.1738(3) 0.2784(4) -0.40821(17)
C142 C -0.1941(3) 0.2589(4) -0.38343(17)
C143 C -0.2166(3) 0.2059(4) -0.38434(18)
C144 C -0.2165(3) 0.1731(4) -0.40809(18)
H92 H -0.2299 0.1369 -0.4082
C145 C -0.1971(3) 0.1920(4) -0.43199(18)
H93 H -0.1976 0.1686 -0.4482
C146 C -0.1774(3) 0.2440(4) -0.43255(17)
C147 C -0.2372(3) 0.2208(4) -0.33666(19)
H94 H -0.2521 0.2079 -0.3209
C148 C -0.2378(3) 0.1879(4) -0.35966(18)
H95 H -0.2524 0.1523 -0.3596
C149 C -0.1623(3) 0.2646(4) -0.46004(17)
C150 C -0.1845(3) 0.3112(4) -0.47404(18)
H96 H -0.2079 0.3324 -0.4653
C151 C -0.1735(3) 0.3274(4) -0.50020(18)
H97 H -0.1892 0.3594 -0.5094
C152 C -0.1397(3) 0.2973(4) -0.51305(18)
H98 H -0.1322 0.3086 -0.5312
C153 C -0.1159(3) 0.2500(3) -0.49977(17)
C154 C -0.1274(3) 0.2350(3) -0.47311(17)
H99 H -0.1110 0.2036 -0.4636
C155 C -0.0671(3) 0.1723(4) -0.50652(17)
H100 H -0.0851 0.1530 -0.4938
C156 C -0.0262(3) 0.1451(3) -0.51834(16)
C157 C -0.0126(4) 0.0912(4) -0.51138(19)
H101 H -0.0309 0.0706 -0.4992
C158 C 0.0272(4) 0.0682(4) -0.5221(2)
H102 H 0.0373 0.0314 -0.5175
C159 C 0.0528(3) 0.0991(4) -0.53993(19)
H103 H 0.0808 0.0839 -0.5477
C160 C 0.0371(3) 0.1521(4) -0.54619(17)
H104 H 0.0544 0.1731 -0.5586
C161 C 0.1792(3) 0.1883(4) 0.07604(19)
H105 H 0.1936 0.1867 0.0589
C162 C 0.2021(3) 0.1568(4) 0.09955(19)
H106 H 0.2310 0.1339 0.0983
C163 C 0.1822(4) 0.1594(4) 0.1244(2)
H107 H 0.1965 0.1379 0.1407
C164 C 0.1402(3) 0.1942(4) 0.12530(18)
H108 H 0.1264 0.1979 0.1426
C165 C 0.1192(3) 0.2230(4) 0.10116(17)
C166 C 0.0746(3) 0.2593(3) 0.10016(17)
H109 H 0.0626 0.2685 0.1175
C167 C 0.0074(3) 0.3158(3) 0.07542(17)
C168 C 0.0052(3) 0.3513(4) 0.09877(18)
H110 H 0.0329 0.3533 0.1148
C169 C -0.0392(3) 0.3832(4) 0.09745(19)
H111 H -0.0419 0.4072 0.1130
C170 C -0.0788(3) 0.3809(4) 0.07436(18)
H112 H -0.1086 0.4033 0.0741
C171 C -0.0766(3) 0.3460(3) 0.05081(17)
C172 C -0.0313(3) 0.3148(3) 0.05209(17)
H113 H -0.0276 0.2922 0.0361
C173 C -0.1197(3) 0.3434(4) 0.02514(17)
C174 C -0.1429(3) 0.3925(4) 0.01433(19)
H114 H -0.1335 0.4257 0.0245
C175 C -0.1793(3) 0.3938(4) -0.0109(2)
H115 H -0.1962 0.4273 -0.0170
C176 C -0.1916(3) 0.3472(4) -0.02732(18)
C177 C -0.1707(3) 0.2967(3) -0.01660(17)
C178 C -0.1359(3) 0.2941(3) 0.01102(16)
C179 C -0.1205(3) 0.2410(4) 0.02207(18)
H116 H -0.1007 0.2381 0.0410
C180 C -0.1330(3) 0.1947(4) 0.00660(17)
H117 H -0.1225 0.1602 0.0150
C181 C -0.1617(3) 0.1971(4) -0.02217(16)
C182 C -0.1814(3) 0.2481(3) -0.03354(16)
C183 C -0.2114(3) 0.2504(4) -0.06181(17)
C184 C -0.2171(3) 0.2033(4) -0.07890(17)
C185 C -0.1972(3) 0.1546(4) -0.06796(18)
H118 H -0.2015 0.1229 -0.0799
C186 C -0.1705(3) 0.1502(4) -0.03949(17)
H119 H -0.1583 0.1156 -0.0319
C187 C -0.2334(3) 0.3034(4) -0.07158(19)
H120 H -0.2544 0.3063 -0.0902
C188 C -0.2247(3) 0.3482(4) -0.05497(18)
H121 H -0.2412 0.3816 -0.0618
C189 C -0.2443(3) 0.2052(4) -0.11035(17)
C190 C -0.2977(3) 0.2182(4) -0.11750(19)
H122 H -0.3165 0.2285 -0.1028
C191 C -0.3225(4) 0.2159(4) -0.14615(19)
H123 H -0.3588 0.2232 -0.1508
C192 C -0.2953(3) 0.2031(4) -0.16823(19)
H124 H -0.3124 0.2020 -0.1878
C193 C -0.2428(3) 0.1921(4) -0.16086(17)
C194 C -0.2182(3) 0.1925(3) -0.13231(17)
H125 H -0.1823 0.1837 -0.1278
C195 C -0.2316(3) 0.1514(4) -0.20446(18)
H126 H -0.2637 0.1331 -0.2046
C196 C -0.2040(3) 0.1446(4) -0.22854(17)
C197 C -0.2201(4) 0.1082(4) -0.25046(19)
H127 H -0.2502 0.0864 -0.2505
C198 C -0.1916(4) 0.1037(5) -0.2725(2)
H128 H -0.2019 0.0786 -0.2880
C199 C -0.1487(4) 0.1357(4) -0.27178(18)
H129 H -0.1290 0.1336 -0.2869
C200 C -0.1341(4) 0.1709(3) -0.24917(17)
H130 H -0.1040 0.1929 -0.2489
C201 C 0.1752(4) 0.1561(4) -0.25314(18)
H131 H 0.1433 0.1757 -0.2561
C202 C 0.1892(4) 0.1267(4) -0.22781(19)
H132 H 0.1673 0.1263 -0.2137
C203 C 0.2350(5) 0.0983(4) -0.2233(2)
H133 H 0.2462 0.0791 -0.2057
C204 C 0.2652(4) 0.0980(4) -0.2452(2)
H134 H 0.2965 0.0773 -0.2431
C205 C 0.2485(4) 0.1282(4) -0.26979(17)
C206 C 0.2779(4) 0.1290(3) -0.29320(18)
H135 H 0.3105 0.1106 -0.2912
C207 C 0.2905(3) 0.1599(4) -0.33904(18)
C208 C 0.3440(3) 0.1661(4) -0.33249(19)
H136 H 0.3615 0.1646 -0.3130
C209 C 0.3714(4) 0.1743(4) -0.3545(2)
H137 H 0.4082 0.1785 -0.3501
C210 C 0.3461(4) 0.1767(4) -0.3826(2)
H138 H 0.3658 0.1829 -0.3975
C211 C 0.2928(3) 0.1701(4) -0.38997(18)
C212 C 0.2651(3) 0.1617(3) -0.36755(17)
H139 H 0.2284 0.1571 -0.3719
C213 C 0.2651(3) 0.1710(4) -0.42083(18)
C214 C 0.2403(3) 0.1243(4) -0.43264(19)
H140 H 0.2409 0.0923 -0.4211
C215 C 0.2144(3) 0.1234(4) -0.46125(19)
H141 H 0.1993 0.0903 -0.4693
C216 C 0.2106(3) 0.1699(3) -0.47801(17)
C217 C 0.2340(3) 0.2189(3) -0.46578(17)
C218 C 0.2637(3) 0.2190(4) -0.43731(17)
C219 C 0.2900(4) 0.2687(4) -0.42716(19)
H142 H 0.3118 0.2690 -0.4087
C220 C 0.2850(4) 0.3141(4) -0.4427(2)
H143 H 0.3036 0.3459 -0.4352
C221 C 0.2518(3) 0.3163(4) -0.47083(18)
C222 C 0.2274(3) 0.2687(3) -0.48241(17)
C223 C 0.1946(3) 0.2693(3) -0.50995(17)
C224 C 0.1824(3) 0.3206(4) -0.52428(18)
C225 C 0.2086(4) 0.3668(4) -0.5121(2)
H144 H 0.2024 0.4008 -0.5220
C226 C 0.2426(4) 0.3655(4) -0.4870(2)
H145 H 0.2606 0.3979 -0.4800
C227 C 0.1755(3) 0.2181(3) -0.52229(18)
H146 H 0.1570 0.2171 -0.5416
C228 C 0.1831(3) 0.1712(4) -0.50697(18)
H147 H 0.1697 0.1380 -0.5158
C229 C 0.1417(3) 0.3256(3) -0.55042(18)
C230 C 0.1489(4) 0.3607(4) -0.5733(2)
H148 H 0.1805 0.3805 -0.5722
C231 C 0.1100(4) 0.3661(4) -0.5971(2)
H149 H 0.1153 0.3898 -0.6123
C232 C 0.0641(4) 0.3386(4) -0.59946(19)
H150 H 0.0378 0.3431 -0.6161
C233 C 0.0561(3) 0.3030(4) -0.57677(18)
C234 C 0.0937(3) 0.2989(3) -0.55283(18)
H151 H 0.0871 0.2770 -0.5371
C235 C -0.0148(3) 0.2541(4) -0.60238(19)
H152 H -0.0007 0.2597 -0.6194
C236 C -0.0634(3) 0.2251(4) -0.60391(18)
C237 C -0.0873(4) 0.1978(4) -0.62892(19)
H153 H -0.0726 0.1992 -0.6460
C238 C -0.1329(4) 0.1688(4) -0.6284(2)
H154 H -0.1497 0.1497 -0.6451
C239 C -0.1532(4) 0.1680(4) -0.60330(19)
H155 H -0.1840 0.1479 -0.6023
C240 C -0.1277(3) 0.1972(4) -0.5795(2)
H156 H -0.1426 0.1975 -0.5624
S1 S 0.14083(11) 0.40426(12) 0.15319(6)
S2 S 0.07805(15) 0.49851(15) 0.14718(7)
N25 N 0.0876(4) 0.4369(4) 0.14774(19)
O1 O 0.1326(3) 0.3526(3) 0.13889(15)
O2 O 0.1857(3) 0.4340(4) 0.15115(19)
O3 O 0.1172(5) 0.5314(4) 0.1614(2)
O4 O 0.0257(4) 0.5071(4) 0.1523(2)
C241 C 0.1478(6) 0.3878(6) 0.1899(3)
C242 C 0.0717(5) 0.5160(5) 0.1105(3)
F1 F 0.1101(4) 0.3596(4) 0.19671(18)
F2 F 0.1904(3) 0.3612(4) 0.19936(16)
F3 F 0.1503(4) 0.4326(4) 0.20641(15)
F4 F 0.0405(4) 0.4842(3) 0.09326(15)
F5 F 0.1169(3) 0.5121(3) 0.10079(18)
F6 F 0.0570(3) 0.5672(3) 0.10407(14)
S3 S 0.14450(10) 0.00526(11) -0.04121(6)
S4 S 0.23203(10) 0.04235(10) -0.00326(6)
O5 O 0.1156(3) -0.0427(4) -0.04193(19)
O6 O 0.1202(3) 0.0567(3) -0.03959(17)
O7 O 0.2174(3) 0.0972(3) -0.00980(15)
O8 O 0.2854(3) 0.0286(3) -0.00008(18)
N26 N 0.1987(3) -0.0031(3) -0.02096(19)
C243 C 0.1622(5) 0.0066(5) -0.0770(3)
C244 C 0.2165(6) 0.0334(5) 0.0321(3)
F7 F 0.1218(3) 0.0131(3) -0.09699(15)
F8 F 0.1954(3) 0.0469(3) -0.07865(17)
F9 F 0.1850(3) -0.0378(3) -0.08312(17)
F10 F 0.1690(4) 0.0431(4) 0.03279(19)
F11 F 0.2449(4) 0.0669(3) 0.05085(16)
F12 F 0.2275(4) -0.0174(3) 0.04234(16)
S5 S -0.03465(12) 0.19310(13) 0.12429(6)
S6 S 0.01993(17) 0.22213(18) 0.17812(9)
N27 N -0.0304(4) 0.2299(4) 0.15187(19)
O9 O -0.0615(3) 0.2248(3) 0.10017(17)
O10 O 0.0122(3) 0.1625(4) 0.1219(2)
O11 O 0.0694(3) 0.2380(4) 0.1716(2)
O12 O 0.0125(5) 0.1744(4) 0.1941(3)
C245 C -0.0831(4) 0.1412(4) 0.1258(3)
C246 C 0.0033(5) 0.2805(5) 0.1989(3)
F13 F -0.0658(4) 0.1032(4) 0.1456(2)
F14 F -0.1250(4) 0.1655(4) 0.1324(2)
F15 F -0.0918(4) 0.1133(5) 0.1006(2)
F16 F -0.0422(4) 0.2714(5) 0.2071(2)
F17 F 0.0418(4) 0.2882(4) 0.2207(2)
F18 F 0.0006(4) 0.3242(4) 0.1820(2)
S9 S 0.29704(11) 0.45025(14) -0.04069(7)
S10 S 0.34776(10) 0.44951(10) 0.01655(6)
N29 N 0.3242(5) 0.4842(5) -0.0131(2)
O17 O 0.3293(4) 0.3950(4) 0.0141(3)
O18 O 0.3992(4) 0.4647(5) 0.0252(3)
C249 C 0.3111(6) 0.4835(6) 0.0410(3)
F25 F 0.2607(4) 0.4777(5) 0.0338(3)
F26 F 0.3256(5) 0.4628(5) 0.0672(2)
F27 F 0.3192(5) 0.5370(4) 0.0418(3)
O19 O 0.3137(5) 0.3978(4) -0.0463(3)
O20 O 0.3030(5) 0.4924(5) -0.0639(3)
C250 C 0.2273(4) 0.4528(7) -0.0430(4)
F28 F 0.2055(5) 0.4366(6) -0.0696(3)
F29 F 0.2121(4) 0.5045(4) -0.0408(3)
F30 F 0.2150(5) 0.4235(5) -0.0229(3)
S11 S 0.0309(3) 0.1837(3) -0.68163(16)
N31 N 0.0720(6) 0.2009(6) -0.6543(2)
S12 S 0.0763(2) 0.1673(2) -0.62508(12)
O25 O 0.1008(7) 0.2026(6) -0.6026(3)
O26 O 0.0318(5) 0.1387(6) -0.6204(3)
O27 O 0.0323(8) 0.1307(6) -0.6938(4)
O28 O -0.0196(6) 0.2112(8) -0.6800(4)
C253 C 0.0486(7) 0.2280(7) -0.7099(4)
C254 C 0.1249(6) 0.1147(6) -0.6280(4)
F37 F 0.0188(7) 0.2714(8) -0.7220(4)
F38 F 0.0450(7) 0.1920(7) -0.7319(4)
F39 F 0.0964(5) 0.2476(6) -0.7077(3)
F40 F 0.1353(6) 0.0901(7) -0.6024(3)
F41 F 0.1661(6) 0.1388(8) -0.6354(4)
F42 F 0.1088(7) 0.0791(6) -0.6483(3)
S15 S -0.25520(19) 0.0237(2) -0.15967(11)
O33 O -0.2561(9) -0.0273(6) -0.1731(5)
O34 O -0.2099(5) 0.0573(6) -0.1524(3)
C257 C -0.2723(7) 0.0148(7) -0.1238(3)
F49 F -0.2800(6) 0.0609(6) -0.1110(3)
F50 F -0.2344(7) -0.0066(9) -0.1060(4)
F51 F -0.3150(6) -0.0129(6) -0.1257(3)
S16 S -0.3427(2) 0.0372(2) -0.20193(11)
N33 N -0.3032(7) 0.0631(7) -0.1747(4)
O35 O -0.3718(8) -0.0093(7) -0.1955(5)
O36 O -0.3176(11) 0.0398(14) -0.2269(5)
C258 C -0.3911(8) 0.0919(8) -0.2116(6)
F52 F -0.4056(10) 0.1112(11) -0.1887(6)
F53 F -0.3679(10) 0.1338(10) -0.2215(5)
F54 F -0.4282(10) 0.0721(11) -0.2322(6)
S19 S 0.1128(3) 0.5369(3) -0.31850(15)
S20 S 0.1568(3) 0.4825(3) -0.36041(17)
N35 N 0.1198(7) 0.4812(6) -0.3365(4)
O41 O 0.1014(10) 0.5156(10) -0.2919(4)
O42 O 0.1549(6) 0.5743(7) -0.3150(4)
O43 O 0.1434(10) 0.4354(8) -0.3786(5)
O44 O 0.1620(7) 0.5324(6) -0.3745(4)
C261 C 0.2227(6) 0.4646(11) -0.3425(5)
C262 C 0.0528(7) 0.5666(11) -0.3389(5)
F61 F 0.0199(10) 0.5248(12) -0.3428(7)
F62 F 0.0665(11) 0.5843(12) -0.3631(5)
F63 F 0.0373(13) 0.6015(14) -0.3211(7)
F64 F 0.2536(9) 0.4630(10) -0.3613(5)
F65 F 0.2408(11) 0.5027(11) -0.3244(6)
F66 F 0.2181(9) 0.4190(9) -0.3280(5)
B2 B 0.0227(6) 0.1470(6) -0.2516(3)
F77 F 0.0552(6) 0.1246(7) -0.2672(3)
F78 F -0.0053(7) 0.1107(8) -0.2399(4)
F79 F 0.0514(5) 0.1791(6) -0.2315(3)
F80 F -0.0099(6) 0.1785(7) -0.2703(3)
C265 C 0.5236(3) 0.4515(2) 0.06556(15)
H157 H 0.5168 0.4189 0.0545
C266 C 0.5688(3) 0.4812(3) 0.06475(14)
H158 H 0.5928 0.4688 0.0532
C267 C 0.5788(2) 0.5290(3) 0.08086(16)
H159 H 0.6096 0.5492 0.0803
C268 C 0.5436(3) 0.5471(2) 0.09779(14)
H160 H 0.5505 0.5797 0.1088
C269 C 0.4985(2) 0.5174(3) 0.09861(14)
H161 H 0.4744 0.5298 0.1102
C270 C 0.4885(2) 0.4696(3) 0.08249(16)
H162 H 0.4576 0.4494 0.0830
C271 C 0.4718(5) 0.0485(6) 0.0913(2)
H163 H 0.4964 0.0513 0.1088
C272 C 0.4686(4) 0.0895(4) 0.0706(3)
H164 H 0.4912 0.1203 0.0738
C273 C 0.4325(5) 0.0855(5) 0.0451(2)
H165 H 0.4304 0.1135 0.0309
C274 C 0.3996(4) 0.0404(6) 0.0403(3)
H166 H 0.3749 0.0377 0.0229
C275 C 0.4027(6) -0.0006(5) 0.0611(4)
H167 H 0.3802 -0.0314 0.0578
C276 C 0.4388(6) 0.0035(5) 0.0866(3)
H168 H 0.4409 -0.0246 0.1007
C277 C -0.2517(8) 0.4624(9) -0.1972(5)
H169 H -0.2288 0.4787 -0.1815
C278 C -0.2987(10) 0.4403(9) -0.1929(3)
H170 H -0.3080 0.4415 -0.1743
C279 C -0.3322(5) 0.4165(8) -0.2159(5)
H171 H -0.3644 0.4014 -0.2130
C280 C -0.3186(10) 0.4148(9) -0.2432(4)
H172 H -0.3415 0.3985 -0.2589
C281 C -0.2716(12) 0.4369(10) -0.2475(4)
H173 H -0.2623 0.4357 -0.2661
C282 C -0.2381(7) 0.4607(10) -0.2245(7)
H174 H -0.2059 0.4758 -0.2274
C289 C 0.1073(5) -0.0240(6) 0.0793(5)
H181 H 0.1418 -0.0330 0.0771
C290 C 0.0981(6) 0.0226(5) 0.0946(5)
H182 H 0.1264 0.0454 0.1029
C291 C 0.0477(8) 0.0358(7) 0.0977(3)
H183 H 0.0414 0.0677 0.1082
C292 C 0.0064(4) 0.0025(9) 0.0855(4)
H184 H -0.0281 0.0116 0.0877
C293 C 0.0156(6) -0.0441(8) 0.0702(4)
H185 H -0.0126 -0.0668 0.0619
C294 C 0.0661(9) -0.0573(5) 0.0670(3)
H186 H 0.0723 -0.0891 0.0566
C301 C 0.0834(4) -0.0539(5) -0.3070(2)
H193 H 0.0571 -0.0598 -0.3234
C302 C 0.0888(4) -0.0027(4) -0.2938(2)
H194 H 0.0662 0.0263 -0.3013
C303 C 0.1274(5) 0.0059(4) -0.2697(2)
H195 H 0.1311 0.0409 -0.2607
C304 C 0.1605(4) -0.0366(5) -0.2588(2)
H196 H 0.1869 -0.0307 -0.2423
C305 C 0.1551(4) -0.0878(4) -0.2720(2)
H197 H 0.1777 -0.1169 -0.2645
C306 C 0.1166(4) -0.0964(4) -0.2960(2)
H198 H 0.1129 -0.1314 -0.3050
C307 C 0.2309(8) 0.5074(9) -0.1345(2)
H199 H 0.2271 0.5125 -0.1149
C308 C 0.2792(6) 0.4940(8) -0.1410(4)
H200 H 0.3084 0.4898 -0.1259
C309 C 0.2848(5) 0.4866(7) -0.1696(4)
H201 H 0.3178 0.4774 -0.1741
C310 C 0.2420(7) 0.4926(7) -0.1917(3)
H202 H 0.2458 0.4875 -0.2112
C311 C 0.1937(5) 0.5060(7) -0.1851(3)
H203 H 0.1645 0.5102 -0.2002
C312 C 0.1881(5) 0.5135(8) -0.1565(3)
H204 H 0.1551 0.5226 -0.1521
C319 C -0.1216(4) -0.0364(5) -0.1817(2)
H211 H -0.1485 -0.0516 -0.1729
C320 C -0.1314(3) 0.0095(4) -0.1993(2)
H212 H -0.1650 0.0258 -0.2025
C321 C -0.0920(4) 0.0317(4) -0.2121(2)
H213 H -0.0987 0.0631 -0.2241
C322 C -0.0429(4) 0.0079(5) -0.2073(2)
H214 H -0.0160 0.0230 -0.2160
C323 C -0.0331(4) -0.0381(5) -0.1897(3)
H215 H 0.0005 -0.0543 -0.1864
C324 C -0.0724(5) -0.0602(4) -0.1769(2)
H216 H -0.0657 -0.0916 -0.1649
C325 C 0.0112(4) 0.5283(5) 0.0258(2)
H217 H 0.0193 0.5476 0.0436
C326 C -0.0237(4) 0.4491(5) -0.0012(3)
H218 H -0.0397 0.4141 -0.0016
C327 C -0.0122(4) 0.4791(6) 0.0250(3)
H219 H -0.0211 0.4644 0.0422
C325B C -0.0112(4) 0.4717(5) -0.0258(2)
H217B H -0.0193 0.4524 -0.0436
C326B C 0.0237(4) 0.5509(5) 0.0012(3)
H218B H 0.0397 0.5859 0.0016
C327B C 0.0122(4) 0.5209(6) -0.0250(3)
H219B H 0.0211 0.5356 -0.0422
N37 N 0.0808(5) 0.4168(6) -0.0634(3)
C328 C 0.0873(5) 0.4372(6) -0.0843(3)
C329 C 0.0937(5) 0.4619(5) -0.1099(3)
H220 H 0.1025 0.4341 -0.1232
H221 H 0.1218 0.4890 -0.1060
H222 H 0.0613 0.4803 -0.1185
N38 N 0.2376(5) 0.5334(5) 0.0982(3)
C330 C 0.2666(6) 0.5060(6) 0.1125(3)
C331 C 0.3050(7) 0.4712(7) 0.1321(3)
H223 H 0.3359 0.4930 0.1398
H224 H 0.3153 0.4400 0.1212
H225 H 0.2891 0.4576 0.1481
C332 C -0.0524(7) 0.0075(7) -0.2878(4)
H226 H -0.0823 -0.0049 -0.2796
H227 H -0.0280 0.0271 -0.2730
H228 H -0.0349 -0.0243 -0.2945
N39 N -0.0852(7) 0.0709(7) -0.3310(3)
C333 C -0.0705(6) 0.0444(7) -0.3125(3)
N40 N -0.1314(8) 0.1171(9) 0.1990(4)
C334 C -0.0936(10) 0.1209(9) 0.2162(5)
C335 C -0.0475(8) 0.1094(9) 0.2376(4)
H229 H -0.0541 0.0777 0.2493
H230 H -0.0390 0.1413 0.2502
H231 H -0.0182 0.1013 0.2278
loop_
_geom_bond_atom_site_label_1
_geom_bond_atom_site_label_2
_geom_bond_site_symmetry_1
_geom_bond_site_symmetry_2
Co1 N1 1_555 1_555
Co2 N3 1_555 1_555
Co3 N9 1_555 1_555
Co4 N11 1_555 1_555
N1 C1 1_555 1_555
N2 Co1 1_555 1_555
N3 C31 1_555 1_555
N4 Co2 1_555 1_555
N5 Co1 1_555 1_555
N6 Co1 1_555 1_555
N7 Co2 1_555 1_555
N8 Co2 1_555 1_555
N9 C81 1_555 1_555
N10 Co3 1_555 1_555
N11 C111 1_555 1_555
N12 Co4 1_555 1_555
N13 Co3 1_555 1_555
N14 Co3 1_555 1_555
N15 Co4 1_555 1_555
N16 Co4 1_555 1_555
N17 Co3 1_555 1_555
N18 Co3 1_555 1_555
N19 Co2 1_555 1_555
N20 Co2 1_555 1_555
N21 Co1 1_555 1_555
N22 Co1 1_555 1_555
N23 Co4 1_555 1_555
N24 Co4 1_555 1_555
C1 H1 1_555 1_555
C2 C1 1_555 1_555
H2 C2 1_555 1_555
C3 C2 1_555 1_555
H3 C3 1_555 1_555
C4 C3 1_555 1_555
H4 C4 1_555 1_555
C5 N1 1_555 1_555
C6 N2 1_555 1_555
H5 C6 1_555 1_555
C7 N2 1_555 1_555
C8 C7 1_555 1_555
H6 C8 1_555 1_555
C9 C8 1_555 1_555
H7 C9 1_555 1_555
C10 C9 1_555 1_555
H8 C10 1_555 1_555
C11 C10 1_555 1_555
C12 C7 1_555 1_555
H9 C12 1_555 1_555
C13 C11 1_555 1_555
C14 C13 1_555 1_555
H10 C14 1_555 1_555
C15 C14 1_555 1_555
H11 C15 1_555 1_555
C16 C15 1_555 1_555
C17 C16 1_555 1_555
C18 C13 1_555 1_555
C19 C18 1_555 1_555
H12 C19 1_555 1_555
C20 C19 1_555 1_555
H13 C20 1_555 1_555
C21 C20 1_555 1_555
C22 C17 1_555 1_555
C23 C22 1_555 1_555
C24 C23 1_555 1_555
C25 C24 1_555 1_555
H14 C25 1_555 1_555
C26 C21 1_555 1_555
H15 C26 1_555 1_555
C27 C16 1_555 1_555
H16 C27 1_555 1_555
C28 C23 1_555 1_555
H17 C28 1_555 1_555
C29 C24 1_555 1_555
C30 C29 1_555 1_555
H18 C30 1_555 1_555
C31 C30 1_555 1_555
C32 C31 1_555 1_555
H19 C32 1_555 1_555
C33 C32 1_555 1_555
H20 C33 1_555 1_555
C34 C29 1_555 1_555
H21 C34 1_555 1_555
C35 N3 1_555 1_555
H22 C35 1_555 1_555
C36 N4 1_555 1_555
C37 C36 1_555 1_555
H23 C37 1_555 1_555
C38 C37 1_555 1_555
H24 C38 1_555 1_555
C39 C38 1_555 1_555
H25 C39 1_555 1_555
C40 N4 1_555 1_555
H26 C40 1_555 1_555
C41 N5 1_555 1_555
H27 C41 1_555 1_555
C42 C41 1_555 1_555
H28 C42 1_555 1_555
C43 C42 1_555 1_555
H29 C43 1_555 1_555
C44 C43 1_555 1_555
H30 C44 1_555 1_555
C45 N5 1_555 1_555
C46 N6 1_555 1_555
H31 C46 1_555 1_555
C47 N6 1_555 1_555
C48 C47 1_555 1_555
H32 C48 1_555 1_555
C49 C48 1_555 1_555
H33 C49 1_555 1_555
C50 C49 1_555 1_555
H34 C50 1_555 1_555
C51 C50 1_555 1_555
C52 C47 1_555 1_555
H35 C52 1_555 1_555
C53 C51 1_555 1_555
C54 C53 1_555 1_555
H36 C54 1_555 1_555
C55 C54 1_555 1_555
H37 C55 1_555 1_555
C56 C55 1_555 1_555
C57 C56 1_555 1_555
C58 C53 1_555 1_555
C59 C58 1_555 1_555
H38 C59 1_555 1_555
C60 C59 1_555 1_555
H39 C60 1_555 1_555
C61 C60 1_555 1_555
C62 C57 1_555 1_555
C63 C62 1_555 1_555
C64 C63 1_555 1_555
C65 C64 1_555 1_555
H40 C65 1_555 1_555
C66 C61 1_555 1_555
H41 C66 1_555 1_555
C67 C63 1_555 1_555
H42 C67 1_555 1_555
C68 C56 1_555 1_555
H43 C68 1_555 1_555
C69 C64 1_555 1_555
C70 C69 1_555 1_555
H44 C70 1_555 1_555
C71 C70 1_555 1_555
H45 C71 1_555 1_555
C72 C71 1_555 1_555
H46 C72 1_555 1_555
C73 N7 1_555 1_555
C74 C69 1_555 1_555
H47 C74 1_555 1_555
C75 N7 1_555 1_555
H48 C75 1_555 1_555
C76 N8 1_555 1_555
C77 C76 1_555 1_555
H49 C77 1_555 1_555
C78 C77 1_555 1_555
H50 C78 1_555 1_555
C79 C78 1_555 1_555
H51 C79 1_555 1_555
C80 N8 1_555 1_555
H52 C80 1_555 1_555
C81 H53 1_555 1_555
C82 C81 1_555 1_555
H54 C82 1_555 1_555
C83 C82 1_555 1_555
H55 C83 1_555 1_555
C84 C83 1_555 1_555
H56 C84 1_555 1_555
C85 N9 1_555 1_555
C86 N10 1_555 1_555
H57 C86 1_555 1_555
C87 N10 1_555 1_555
C88 C87 1_555 1_555
H58 C88 1_555 1_555
C89 C88 1_555 1_555
H59 C89 1_555 1_555
C90 C89 1_555 1_555
H60 C90 1_555 1_555
C91 C90 1_555 1_555
C92 C87 1_555 1_555
H61 C92 1_555 1_555
C93 C91 1_555 1_555
C94 C93 1_555 1_555
H62 C94 1_555 1_555
C95 C94 1_555 1_555
H63 C95 1_555 1_555
C96 C95 1_555 1_555
C97 C96 1_555 1_555
C98 C93 1_555 1_555
C99 C98 1_555 1_555
H64 C99 1_555 1_555
C100 C99 1_555 1_555
H65 C100 1_555 1_555
C101 C100 1_555 1_555
C102 C97 1_555 1_555
C103 C102 1_555 1_555
C104 C103 1_555 1_555
C105 C104 1_555 1_555
H66 C105 1_555 1_555
C106 C101 1_555 1_555
H67 C106 1_555 1_555
C107 C96 1_555 1_555
H68 C107 1_555 1_555
C108 C103 1_555 1_555
H69 C108 1_555 1_555
C109 C104 1_555 1_555
C110 C109 1_555 1_555
H70 C110 1_555 1_555
C111 C110 1_555 1_555
C112 C111 1_555 1_555
H71 C112 1_555 1_555
C113 C112 1_555 1_555
H72 C113 1_555 1_555
C114 C109 1_555 1_555
H73 C114 1_555 1_555
C115 N11 1_555 1_555
H74 C115 1_555 1_555
C116 N12 1_555 1_555
C117 C116 1_555 1_555
H75 C117 1_555 1_555
C118 C117 1_555 1_555
H76 C118 1_555 1_555
C119 C118 1_555 1_555
H77 C119 1_555 1_555
C120 N12 1_555 1_555
H78 C120 1_555 1_555
C121 N13 1_555 1_555
H79 C121 1_555 1_555
C122 C121 1_555 1_555
H80 C122 1_555 1_555
C123 C122 1_555 1_555
H81 C123 1_555 1_555
C124 C123 1_555 1_555
H82 C124 1_555 1_555
C125 N13 1_555 1_555
C126 N14 1_555 1_555
H83 C126 1_555 1_555
C127 N14 1_555 1_555
C128 C127 1_555 1_555
H84 C128 1_555 1_555
C129 C128 1_555 1_555
H85 C129 1_555 1_555
C130 C129 1_555 1_555
H86 C130 1_555 1_555
C131 C130 1_555 1_555
C132 C127 1_555 1_555
H87 C132 1_555 1_555
C133 C131 1_555 1_555
C134 C133 1_555 1_555
H88 C134 1_555 1_555
C135 C134 1_555 1_555
H89 C135 1_555 1_555
C136 C135 1_555 1_555
C137 C136 1_555 1_555
C138 C133 1_555 1_555
C139 C136 1_555 1_555
H90 C139 1_555 1_555
C140 C139 1_555 1_555
H91 C140 1_555 1_555
C141 C140 1_555 1_555
C142 C137 1_555 1_555
C143 C142 1_555 1_555
C144 C143 1_555 1_555
H92 C144 1_555 1_555
C145 C144 1_555 1_555
H93 C145 1_555 1_555
C146 C141 1_555 1_555
C147 C138 1_555 1_555
H94 C147 1_555 1_555
C148 C143 1_555 1_555
H95 C148 1_555 1_555
C149 C146 1_555 1_555
C150 C149 1_555 1_555
H96 C150 1_555 1_555
C151 C150 1_555 1_555
H97 C151 1_555 1_555
C152 C151 1_555 1_555
H98 C152 1_555 1_555
C153 N15 1_555 1_555
C154 C149 1_555 1_555
H99 C154 1_555 1_555
C155 N15 1_555 1_555
H100 C155 1_555 1_555
C156 N16 1_555 1_555
C157 C156 1_555 1_555
H101 C157 1_555 1_555
C158 C157 1_555 1_555
H102 C158 1_555 1_555
C159 C158 1_555 1_555
H103 C159 1_555 1_555
C160 N16 1_555 1_555
H104 C160 1_555 1_555
C161 N20 1_555 1_555
H105 C161 1_555 1_555
C162 C161 1_555 1_555
H106 C162 1_555 1_555
C163 C162 1_555 1_555
H107 C163 1_555 1_555
C164 C163 1_555 1_555
H108 C164 1_555 1_555
C165 N20 1_555 1_555
C166 N19 1_555 1_555
H109 C166 1_555 1_555
C167 N19 1_555 1_555
C168 C167 1_555 1_555
H110 C168 1_555 1_555
C169 C168 1_555 1_555
H111 C169 1_555 1_555
C170 C169 1_555 1_555
H112 C170 1_555 1_555
C171 C170 1_555 1_555
C172 C167 1_555 1_555
H113 C172 1_555 1_555
C173 C171 1_555 1_555
C174 C173 1_555 1_555
H114 C174 1_555 1_555
C175 C174 1_555 1_555
H115 C175 1_555 1_555
C176 C175 1_555 1_555
C177 C176 1_555 1_555
C178 C173 1_555 1_555
C179 C178 1_555 1_555
H116 C179 1_555 1_555
C180 C179 1_555 1_555
H117 C180 1_555 1_555
C181 C180 1_555 1_555
C182 C177 1_555 1_555
C183 C182 1_555 1_555
C184 C183 1_555 1_555
C185 C184 1_555 1_555
H118 C185 1_555 1_555
C186 C181 1_555 1_555
H119 C186 1_555 1_555
C187 C183 1_555 1_555
H120 C187 1_555 1_555
C188 C176 1_555 1_555
H121 C188 1_555 1_555
C189 C184 1_555 1_555
C190 C189 1_555 1_555
H122 C190 1_555 1_555
C191 C190 1_555 1_555
H123 C191 1_555 1_555
C192 C191 1_555 1_555
H124 C192 1_555 1_555
C193 N18 1_555 1_555
C194 C189 1_555 1_555
H125 C194 1_555 1_555
C195 N18 1_555 1_555
H126 C195 1_555 1_555
C196 N17 1_555 1_555
C197 C196 1_555 1_555
H127 C197 1_555 1_555
C198 C197 1_555 1_555
H128 C198 1_555 1_555
C199 C198 1_555 1_555
H129 C199 1_555 1_555
C200 N17 1_555 1_555
H130 C200 1_555 1_555
C201 N21 1_555 1_555
H131 C201 1_555 1_555
C202 C201 1_555 1_555
H132 C202 1_555 1_555
C203 C202 1_555 1_555
H133 C203 1_555 1_555
C204 C203 1_555 1_555
H134 C204 1_555 1_555
C205 N21 1_555 1_555
C206 N22 1_555 1_555
H135 C206 1_555 1_555
C207 N22 1_555 1_555
C208 C207 1_555 1_555
H136 C208 1_555 1_555
C209 C208 1_555 1_555
H137 C209 1_555 1_555
C210 C209 1_555 1_555
H138 C210 1_555 1_555
C211 C210 1_555 1_555
C212 C207 1_555 1_555
H139 C212 1_555 1_555
C213 C211 1_555 1_555
C214 C213 1_555 1_555
H140 C214 1_555 1_555
C215 C214 1_555 1_555
H141 C215 1_555 1_555
C216 C215 1_555 1_555
C217 C216 1_555 1_555
C218 C213 1_555 1_555
C219 C218 1_555 1_555
H142 C219 1_555 1_555
C220 C219 1_555 1_555
H143 C220 1_555 1_555
C221 C220 1_555 1_555
C222 C217 1_555 1_555
C223 C222 1_555 1_555
C224 C223 1_555 1_555
C225 C224 1_555 1_555
H144 C225 1_555 1_555
C226 C221 1_555 1_555
H145 C226 1_555 1_555
C227 C223 1_555 1_555
H146 C227 1_555 1_555
C228 C216 1_555 1_555
H147 C228 1_555 1_555
C229 C224 1_555 1_555
C230 C229 1_555 1_555
H148 C230 1_555 1_555
C231 C230 1_555 1_555
H149 C231 1_555 1_555
C232 C231 1_555 1_555
H150 C232 1_555 1_555
C233 N23 1_555 1_555
C234 C229 1_555 1_555
H151 C234 1_555 1_555
C235 N23 1_555 1_555
H152 C235 1_555 1_555
C236 N24 1_555 1_555
C237 C236 1_555 1_555
H153 C237 1_555 1_555
C238 C237 1_555 1_555
H154 C238 1_555 1_555
C239 C238 1_555 1_555
H155 C239 1_555 1_555
C240 N24 1_555 1_555
H156 C240 1_555 1_555
S1 N25 1_555 1_555
S2 N25 1_555 1_555
O1 S1 1_555 1_555
O2 S1 1_555 1_555
O3 S2 1_555 1_555
O4 S2 1_555 1_555
C241 S1 1_555 1_555
C242 S2 1_555 1_555
F1 C241 1_555 1_555
F2 C241 1_555 1_555
F3 C241 1_555 1_555
F4 C242 1_555 1_555
F5 C242 1_555 1_555
F6 C242 1_555 1_555
S3 O5 1_555 1_555
S4 O7 1_555 1_555
O6 S3 1_555 1_555
O8 S4 1_555 1_555
N26 S3 1_555 1_555
C243 S3 1_555 1_555
C244 S4 1_555 1_555
F7 C243 1_555 1_555
F8 C243 1_555 1_555
F9 C243 1_555 1_555
F10 C244 1_555 1_555
F11 C244 1_555 1_555
F12 C244 1_555 1_555
S5 N27 1_555 1_555
S6 N27 1_555 1_555
O9 S5 1_555 1_555
O10 S5 1_555 1_555
O11 S6 1_555 1_555
O12 S6 1_555 1_555
C245 S5 1_555 1_555
C246 S6 1_555 1_555
F13 C245 1_555 1_555
F14 C245 1_555 1_555
F15 C245 1_555 1_555
F16 C246 1_555 1_555
F17 C246 1_555 1_555
F18 C246 1_555 1_555
S9 N29 1_555 1_555
S10 N29 1_555 1_555
O17 S10 1_555 1_555
O18 S10 1_555 1_555
C249 S10 1_555 1_555
F25 C249 1_555 1_555
F26 C249 1_555 1_555
F27 C249 1_555 1_555
O19 S9 1_555 1_555
O20 S9 1_555 1_555
C250 S9 1_555 1_555
F28 C250 1_555 1_555
F29 C250 1_555 1_555
F30 C250 1_555 1_555
S11 N31 1_555 1_555
N31 S12 1_555 1_555
S12 O25 1_555 1_555
O26 S12 1_555 1_555
O27 S11 1_555 1_555
O28 S11 1_555 1_555
C253 S11 1_555 1_555
C254 S12 1_555 1_555
F37 C253 1_555 1_555
F38 C253 1_555 1_555
F39 C253 1_555 1_555
F40 C254 1_555 1_555
F41 C254 1_555 1_555
F42 C254 1_555 1_555
S15 O33 1_555 1_555
O34 S15 1_555 1_555
C257 S15 1_555 1_555
F49 C257 1_555 1_555
F50 C257 1_555 1_555
F51 C257 1_555 1_555
S16 N33 1_555 1_555
N33 S15 1_555 1_555
O35 S16 1_555 1_555
O36 S16 1_555 1_555
C258 S16 1_555 1_555
F52 C258 1_555 1_555
F53 C258 1_555 1_555
F54 C258 1_555 1_555
S19 N35 1_555 1_555
S20 N35 1_555 1_555
O41 S19 1_555 1_555
O42 S19 1_555 1_555
O43 S20 1_555 1_555
O44 S20 1_555 1_555
C261 S20 1_555 1_555
C262 S19 1_555 1_555
F61 C262 1_555 1_555
F62 C262 1_555 1_555
F63 C262 1_555 1_555
F64 C261 1_555 1_555
F65 C261 1_555 1_555
F66 C261 1_555 1_555
B2 F77 1_555 1_555
F78 B2 1_555 1_555
F79 B2 1_555 1_555
F80 B2 1_555 1_555
C265 H157 1_555 1_555
C266 C265 1_555 1_555
H158 C266 1_555 1_555
C267 C266 1_555 1_555
H159 C267 1_555 1_555
C268 C267 1_555 1_555
H160 C268 1_555 1_555
C269 C268 1_555 1_555
H161 C269 1_555 1_555
C270 C265 1_555 1_555
H162 C270 1_555 1_555
C271 H163 1_555 1_555
C272 C271 1_555 1_555
H164 C272 1_555 1_555
C273 C272 1_555 1_555
H165 C273 1_555 1_555
C274 C273 1_555 1_555
H166 C274 1_555 1_555
C275 C274 1_555 1_555
H167 C275 1_555 1_555
C276 C271 1_555 1_555
H168 C276 1_555 1_555
C277 H169 1_555 1_555
C278 C277 1_555 1_555
H170 C278 1_555 1_555
C279 C278 1_555 1_555
H171 C279 1_555 1_555
C280 C279 1_555 1_555
H172 C280 1_555 1_555
C281 C280 1_555 1_555
H173 C281 1_555 1_555
C282 C277 1_555 1_555
H174 C282 1_555 1_555
C289 H181 1_555 1_555
C290 C289 1_555 1_555
H182 C290 1_555 1_555
C291 C290 1_555 1_555
H183 C291 1_555 1_555
C292 C291 1_555 1_555
H184 C292 1_555 1_555
C293 C292 1_555 1_555
H185 C293 1_555 1_555
C294 C289 1_555 1_555
H186 C294 1_555 1_555
C301 H193 1_555 1_555
C302 C301 1_555 1_555
H194 C302 1_555 1_555
C303 C302 1_555 1_555
H195 C303 1_555 1_555
C304 C303 1_555 1_555
H196 C304 1_555 1_555
C305 C304 1_555 1_555
H197 C305 1_555 1_555
C306 C301 1_555 1_555
H198 C306 1_555 1_555
C307 H199 1_555 1_555
C308 C307 1_555 1_555
H200 C308 1_555 1_555
C309 C308 1_555 1_555
H201 C309 1_555 1_555
C310 C309 1_555 1_555
H202 C310 1_555 1_555
C311 C310 1_555 1_555
H203 C311 1_555 1_555
C312 C307 1_555 1_555
H204 C312 1_555 1_555
C319 H211 1_555 1_555
C320 C319 1_555 1_555
H212 C320 1_555 1_555
C321 C320 1_555 1_555
H213 C321 1_555 1_555
C322 C321 1_555 1_555
H214 C322 1_555 1_555
C323 C322 1_555 1_555
H215 C323 1_555 1_555
C324 C319 1_555 1_555
H216 C324 1_555 1_555
C325 H217 1_555 1_555
C326 H218 1_555 1_555
C327 C325 1_555 1_555
H219 C327 1_555 1_555
N37 C328 1_555 1_555
C328 C329 1_555 1_555
C329 H220 1_555 1_555
H221 C329 1_555 1_555
H222 C329 1_555 1_555
N38 C330 1_555 1_555
C330 C331 1_555 1_555
C331 H223 1_555 1_555
H224 C331 1_555 1_555
H225 C331 1_555 1_555
C332 H226 1_555 1_555
H227 C332 1_555 1_555
H228 C332 1_555 1_555
N39 C333 1_555 1_555
C333 C332 1_555 1_555
N40 C334 1_555 1_555
C334 C335 1_555 1_555
C335 H229 1_555 1_555
H230 C335 1_555 1_555
H231 C335 1_555 1_555
C325B C326 1_555 1_555
H217B C325B 1_555 1_555
C326B C325 1_555 1_555
H218B C326B 1_555 1_555
C327B C325B 1_555 1_555
H219B C327B 1_555 1_555
C4 C5 1_555 1_555
C5 C6 1_555 1_555
C11 C12 1_555 1_555
C17 C18 1_555 1_555
C21 C22 1_555 1_555
C25 C26 1_555 1_555
C27 C28 1_555 1_555
C33 C34 1_555 1_555
C35 C36 1_555 1_555
C39 C40 1_555 1_555
C44 C45 1_555 1_555
C45 C46 1_555 1_555
C51 C52 1_555 1_555
C57 C58 1_555 1_555
C61 C62 1_555 1_555
C65 C66 1_555 1_555
C67 C68 1_555 1_555
C72 C73 1_555 1_555
C73 C74 1_555 1_555
C75 C76 1_555 1_555
C79 C80 1_555 1_555
C84 C85 1_555 1_555
C85 C86 1_555 1_555
C91 C92 1_555 1_555
C97 C98 1_555 1_555
C101 C102 1_555 1_555
C105 C106 1_555 1_555
C107 C108 1_555 1_555
C113 C114 1_555 1_555
C115 C116 1_555 1_555
C119 C120 1_555 1_555
C124 C125 1_555 1_555
C125 C126 1_555 1_555
C131 C132 1_555 1_555
C137 C138 1_555 1_555
C141 C142 1_555 1_555
C145 C146 1_555 1_555
C147 C148 1_555 1_555
C152 C153 1_555 1_555
C153 C154 1_555 1_555
C155 C156 1_555 1_555
C159 C160 1_555 1_555
C164 C165 1_555 1_555
C165 C166 1_555 1_555
C171 C172 1_555 1_555
C177 C178 1_555 1_555
C181 C182 1_555 1_555
C185 C186 1_555 1_555
C187 C188 1_555 1_555
C192 C193 1_555 1_555
C193 C194 1_555 1_555
C195 C196 1_555 1_555
C199 C200 1_555 1_555
C204 C205 1_555 1_555
C205 C206 1_555 1_555
C211 C212 1_555 1_555
C217 C218 1_555 1_555
C221 C222 1_555 1_555
C225 C226 1_555 1_555
C227 C228 1_555 1_555
C232 C233 1_555 1_555
C233 C234 1_555 1_555
C235 C236 1_555 1_555
C239 C240 1_555 1_555
S4 N26 1_555 1_555
C269 C270 1_555 1_555
C275 C276 1_555 1_555
C281 C282 1_555 1_555
C293 C294 1_555 1_555
C305 C306 1_555 1_555
C311 C312 1_555 1_555
C323 C324 1_555 1_555
C326 C327 1_555 1_555
C326B C327B 1_555 1_555

#END
