# generated using pymatgen
data_Zn4BH180C268S6N29(O6F11)2
_symmetry_space_group_name_H-M   'P 1'
_cell_length_a   36.36900000
_cell_length_b   66.84500000
_cell_length_c   66.84500000
_cell_angle_alpha   120.00000000
_cell_angle_beta   90.00000000
_cell_angle_gamma   90.00000000
_symmetry_Int_Tables_number   1
_chemical_formula_structural   Zn4BH180C268S6N29(O6F11)2
_chemical_formula_sum   'Zn72 B18 H3240 C4824 S108 N522 O216 F396'
_cell_volume   140734.26419574
_cell_formula_units_Z   18
loop_
 _symmetry_equiv_pos_site_id
 _symmetry_equiv_pos_as_xyz
  1  'x, y, z'
loop_
 _atom_site_type_symbol
 _atom_site_label
 _atom_site_symmetry_multiplicity
 _atom_site_fract_x
 _atom_site_fract_y
 _atom_site_fract_z
 _atom_site_occupancy
  Zn  Zn1  1  0.995400  0.990370  0.770340  1
  Zn  Zn2  1  0.995400  0.779970  0.009630  1
  Zn  Zn3  1  0.995400  0.229660  0.220030  1
  Zn  Zn4  1  0.662067  0.323703  0.437007  1
  Zn  Zn5  1  0.662067  0.113303  0.676297  1
  Zn  Zn6  1  0.662067  0.562993  0.886697  1
  Zn  Zn7  1  0.328733  0.657037  0.103673  1
  Zn  Zn8  1  0.328733  0.446637  0.342963  1
  Zn  Zn9  1  0.328733  0.896327  0.553363  1
  Zn  Zn10  1  0.004600  0.009630  0.229660  1
  Zn  Zn11  1  0.004600  0.220030  0.990370  1
  Zn  Zn12  1  0.004600  0.770340  0.779970  1
  Zn  Zn13  1  0.337933  0.676297  0.562993  1
  Zn  Zn14  1  0.337933  0.886697  0.323703  1
  Zn  Zn15  1  0.337933  0.437007  0.113303  1
  Zn  Zn16  1  0.671267  0.342963  0.896327  1
  Zn  Zn17  1  0.671267  0.553363  0.657037  1
  Zn  Zn18  1  0.671267  0.103673  0.446637  1
  Zn  Zn19  1  0.709020  0.940580  0.686140  1
  Zn  Zn20  1  0.709020  0.745560  0.059420  1
  Zn  Zn21  1  0.709020  0.313860  0.254440  1
  Zn  Zn22  1  0.375687  0.273913  0.352807  1
  Zn  Zn23  1  0.375687  0.078893  0.726087  1
  Zn  Zn24  1  0.375687  0.647193  0.921107  1
  Zn  Zn25  1  0.042353  0.607247  0.019473  1
  Zn  Zn26  1  0.042353  0.412227  0.392753  1
  Zn  Zn27  1  0.042353  0.980527  0.587773  1
  Zn  Zn28  1  0.290980  0.059420  0.313860  1
  Zn  Zn29  1  0.290980  0.254440  0.940580  1
  Zn  Zn30  1  0.290980  0.686140  0.745560  1
  Zn  Zn31  1  0.624313  0.726087  0.647193  1
  Zn  Zn32  1  0.624313  0.921107  0.273913  1
  Zn  Zn33  1  0.624313  0.352807  0.078893  1
  Zn  Zn34  1  0.957647  0.392753  0.980527  1
  Zn  Zn35  1  0.957647  0.587773  0.607247  1
  Zn  Zn36  1  0.957647  0.019473  0.412227  1
  Zn  Zn37  1  0.586940  0.870650  0.789860  1
  Zn  Zn38  1  0.586940  0.919210  0.129350  1
  Zn  Zn39  1  0.586940  0.210140  0.080790  1
  Zn  Zn40  1  0.253607  0.203983  0.456527  1
  Zn  Zn41  1  0.253607  0.252543  0.796017  1
  Zn  Zn42  1  0.253607  0.543473  0.747457  1
  Zn  Zn43  1  0.920273  0.537317  0.123193  1
  Zn  Zn44  1  0.920273  0.585877  0.462683  1
  Zn  Zn45  1  0.920273  0.876807  0.414123  1
  Zn  Zn46  1  0.413060  0.129350  0.210140  1
  Zn  Zn47  1  0.413060  0.080790  0.870650  1
  Zn  Zn48  1  0.413060  0.789860  0.919210  1
  Zn  Zn49  1  0.746393  0.796017  0.543473  1
  Zn  Zn50  1  0.746393  0.747457  0.203983  1
  Zn  Zn51  1  0.746393  0.456527  0.252543  1
  Zn  Zn52  1  0.079727  0.462683  0.876807  1
  Zn  Zn53  1  0.079727  0.414123  0.537317  1
  Zn  Zn54  1  0.079727  0.123193  0.585877  1
  Zn  Zn55  1  0.271530  0.879990  0.745830  1
  Zn  Zn56  1  0.271530  0.865840  0.120010  1
  Zn  Zn57  1  0.271530  0.254170  0.134160  1
  Zn  Zn58  1  0.938197  0.213323  0.412497  1
  Zn  Zn59  1  0.938197  0.199173  0.786677  1
  Zn  Zn60  1  0.938197  0.587503  0.800827  1
  Zn  Zn61  1  0.604863  0.546657  0.079163  1
  Zn  Zn62  1  0.604863  0.532507  0.453343  1
  Zn  Zn63  1  0.604863  0.920837  0.467493  1
  Zn  Zn64  1  0.728470  0.120010  0.254170  1
  Zn  Zn65  1  0.728470  0.134160  0.879990  1
  Zn  Zn66  1  0.728470  0.745830  0.865840  1
  Zn  Zn67  1  0.061803  0.786677  0.587503  1
  Zn  Zn68  1  0.061803  0.800827  0.213323  1
  Zn  Zn69  1  0.061803  0.412497  0.199173  1
  Zn  Zn70  1  0.395137  0.453343  0.920837  1
  Zn  Zn71  1  0.395137  0.467493  0.546657  1
  Zn  Zn72  1  0.395137  0.079163  0.532507  1
  B  B73  1  0.657100  0.885700  0.721600  1
  B  B74  1  0.657100  0.835900  0.114300  1
  B  B75  1  0.657100  0.278400  0.164100  1
  B  B76  1  0.323767  0.219033  0.388267  1
  B  B77  1  0.323767  0.169233  0.780967  1
  B  B78  1  0.323767  0.611733  0.830767  1
  B  B79  1  0.990433  0.552367  0.054933  1
  B  B80  1  0.990433  0.502567  0.447633  1
  B  B81  1  0.990433  0.945067  0.497433  1
  B  B82  1  0.342900  0.114300  0.278400  1
  B  B83  1  0.342900  0.164100  0.885700  1
  B  B84  1  0.342900  0.721600  0.835900  1
  B  B85  1  0.676233  0.780967  0.611733  1
  B  B86  1  0.676233  0.830767  0.219033  1
  B  B87  1  0.676233  0.388267  0.169233  1
  B  B88  1  0.009567  0.447633  0.945067  1
  B  B89  1  0.009567  0.497433  0.552367  1
  B  B90  1  0.009567  0.054933  0.502567  1
  H  H91  1  0.027600  0.972500  0.719500  1
  H  H92  1  0.027600  0.747000  0.027500  1
  H  H93  1  0.027600  0.280500  0.253000  1
  H  H94  1  0.694267  0.305833  0.386167  1
  H  H95  1  0.694267  0.080333  0.694167  1
  H  H96  1  0.694267  0.613833  0.919667  1
  H  H97  1  0.360933  0.639167  0.052833  1
  H  H98  1  0.360933  0.413667  0.360833  1
  H  H99  1  0.360933  0.947167  0.586333  1
  H  H100  1  0.972400  0.027500  0.280500  1
  H  H101  1  0.972400  0.253000  0.972500  1
  H  H102  1  0.972400  0.719500  0.747000  1
  H  H103  1  0.305733  0.694167  0.613833  1
  H  H104  1  0.305733  0.919667  0.305833  1
  H  H105  1  0.305733  0.386167  0.080333  1
  H  H106  1  0.639067  0.360833  0.947167  1
  H  H107  1  0.639067  0.586333  0.639167  1
  H  H108  1  0.639067  0.052833  0.413667  1
  H  H109  1  0.031300  0.937500  0.685100  1
  H  H110  1  0.031300  0.747600  0.062500  1
  H  H111  1  0.031300  0.314900  0.252400  1
  H  H112  1  0.697967  0.270833  0.351767  1
  H  H113  1  0.697967  0.080933  0.729167  1
  H  H114  1  0.697967  0.648233  0.919067  1
  H  H115  1  0.364633  0.604167  0.018433  1
  H  H116  1  0.364633  0.414267  0.395833  1
  H  H117  1  0.364633  0.981567  0.585733  1
  H  H118  1  0.968700  0.062500  0.314900  1
  H  H119  1  0.968700  0.252400  0.937500  1
  H  H120  1  0.968700  0.685100  0.747600  1
  H  H121  1  0.302033  0.729167  0.648233  1
  H  H122  1  0.302033  0.919067  0.270833  1
  H  H123  1  0.302033  0.351767  0.080933  1
  H  H124  1  0.635367  0.395833  0.981567  1
  H  H125  1  0.635367  0.585733  0.604167  1
  H  H126  1  0.635367  0.018433  0.414267  1
  H  H127  1  0.009700  0.903700  0.683500  1
  H  H128  1  0.009700  0.779800  0.096300  1
  H  H129  1  0.009700  0.316500  0.220200  1
  H  H130  1  0.676367  0.237033  0.350167  1
  H  H131  1  0.676367  0.113133  0.762967  1
  H  H132  1  0.676367  0.649833  0.886867  1
  H  H133  1  0.343033  0.570367  0.016833  1
  H  H134  1  0.343033  0.446467  0.429633  1
  H  H135  1  0.343033  0.983167  0.553533  1
  H  H136  1  0.990300  0.096300  0.316500  1
  H  H137  1  0.990300  0.220200  0.903700  1
  H  H138  1  0.990300  0.683500  0.779800  1
  H  H139  1  0.323633  0.762967  0.649833  1
  H  H140  1  0.323633  0.886867  0.237033  1
  H  H141  1  0.323633  0.350167  0.113133  1
  H  H142  1  0.656967  0.429633  0.983167  1
  H  H143  1  0.656967  0.553533  0.570367  1
  H  H144  1  0.656967  0.016833  0.446467  1
  H  H145  1  0.984200  0.905900  0.716800  1
  H  H146  1  0.984200  0.810900  0.094100  1
  H  H147  1  0.984200  0.283200  0.189100  1
  H  H148  1  0.650867  0.239233  0.383467  1
  H  H149  1  0.650867  0.144233  0.760767  1
  H  H150  1  0.650867  0.616533  0.855767  1
  H  H151  1  0.317533  0.572567  0.050133  1
  H  H152  1  0.317533  0.477567  0.427433  1
  H  H153  1  0.317533  0.949867  0.522433  1
  H  H154  1  0.015800  0.094100  0.283200  1
  H  H155  1  0.015800  0.189100  0.905900  1
  H  H156  1  0.015800  0.716800  0.810900  1
  H  H157  1  0.349133  0.760767  0.616533  1
  H  H158  1  0.349133  0.855767  0.239233  1
  H  H159  1  0.349133  0.383467  0.144233  1
  H  H160  1  0.682467  0.427433  0.949867  1
  H  H161  1  0.682467  0.522433  0.572567  1
  H  H162  1  0.682467  0.050133  0.477567  1
  H  H163  1  0.965200  0.930900  0.758800  1
  H  H164  1  0.965200  0.827900  0.069100  1
  H  H165  1  0.965200  0.241200  0.172100  1
  H  H166  1  0.631867  0.264233  0.425467  1
  H  H167  1  0.631867  0.161233  0.735767  1
  H  H168  1  0.631867  0.574533  0.838767  1
  H  H169  1  0.298533  0.597567  0.092133  1
  H  H170  1  0.298533  0.494567  0.402433  1
  H  H171  1  0.298533  0.907867  0.505433  1
  H  H172  1  0.034800  0.069100  0.241200  1
  H  H173  1  0.034800  0.172100  0.930900  1
  H  H174  1  0.034800  0.758800  0.827900  1
  H  H175  1  0.368133  0.735767  0.574533  1
  H  H176  1  0.368133  0.838767  0.264233  1
  H  H177  1  0.368133  0.425467  0.161233  1
  H  H178  1  0.701467  0.402433  0.907867  1
  H  H179  1  0.701467  0.505433  0.597567  1
  H  H180  1  0.701467  0.092133  0.494567  1
  H  H181  1  0.979900  0.993900  0.817100  1
  H  H182  1  0.979900  0.823200  0.006100  1
  H  H183  1  0.979900  0.182900  0.176800  1
  H  H184  1  0.646567  0.327233  0.483767  1
  H  H185  1  0.646567  0.156533  0.672767  1
  H  H186  1  0.646567  0.516233  0.843467  1
  H  H187  1  0.313233  0.660567  0.150433  1
  H  H188  1  0.313233  0.489867  0.339433  1
  H  H189  1  0.313233  0.849567  0.510133  1
  H  H190  1  0.020100  0.006100  0.182900  1
  H  H191  1  0.020100  0.176800  0.993900  1
  H  H192  1  0.020100  0.817100  0.823200  1
  H  H193  1  0.353433  0.672767  0.516233  1
  H  H194  1  0.353433  0.843467  0.327233  1
  H  H195  1  0.353433  0.483767  0.156533  1
  H  H196  1  0.686767  0.339433  0.849567  1
  H  H197  1  0.686767  0.510133  0.660567  1
  H  H198  1  0.686767  0.150433  0.489867  1
  H  H199  1  0.952400  0.998500  0.850900  1
  H  H200  1  0.952400  0.852400  0.001500  1
  H  H201  1  0.952400  0.149100  0.147600  1
  H  H202  1  0.619067  0.331833  0.517567  1
  H  H203  1  0.619067  0.185733  0.668167  1
  H  H204  1  0.619067  0.482433  0.814267  1
  H  H205  1  0.285733  0.665167  0.184233  1
  H  H206  1  0.285733  0.519067  0.334833  1
  H  H207  1  0.285733  0.815767  0.480933  1
  H  H208  1  0.047600  0.001500  0.149100  1
  H  H209  1  0.047600  0.147600  0.998500  1
  H  H210  1  0.047600  0.850900  0.852400  1
  H  H211  1  0.380933  0.668167  0.482433  1
  H  H212  1  0.380933  0.814267  0.331833  1
  H  H213  1  0.380933  0.517567  0.185733  1
  H  H214  1  0.714267  0.334833  0.815767  1
  H  H215  1  0.714267  0.480933  0.665167  1
  H  H216  1  0.714267  0.184233  0.519067  1
  H  H217  1  0.906100  0.973100  0.848500  1
  H  H218  1  0.906100  0.875400  0.026900  1
  H  H219  1  0.906100  0.151500  0.124600  1
  H  H220  1  0.572767  0.306433  0.515167  1
  H  H221  1  0.572767  0.208733  0.693567  1
  H  H222  1  0.572767  0.484833  0.791267  1
  H  H223  1  0.239433  0.639767  0.181833  1
  H  H224  1  0.239433  0.542067  0.360233  1
  H  H225  1  0.239433  0.818167  0.457933  1
  H  H226  1  0.093900  0.026900  0.151500  1
  H  H227  1  0.093900  0.124600  0.973100  1
  H  H228  1  0.093900  0.848500  0.875400  1
  H  H229  1  0.427233  0.693567  0.484833  1
  H  H230  1  0.427233  0.791267  0.306433  1
  H  H231  1  0.427233  0.515167  0.208733  1
  H  H232  1  0.760567  0.360233  0.818167  1
  H  H233  1  0.760567  0.457933  0.639767  1
  H  H234  1  0.760567  0.181833  0.542067  1
  H  H235  1  0.914800  0.938500  0.778700  1
  H  H236  1  0.914800  0.840200  0.061500  1
  H  H237  1  0.914800  0.221300  0.159800  1
  H  H238  1  0.581467  0.271833  0.445367  1
  H  H239  1  0.581467  0.173533  0.728167  1
  H  H240  1  0.581467  0.554633  0.826467  1
  H  H241  1  0.248133  0.605167  0.112033  1
  H  H242  1  0.248133  0.506867  0.394833  1
  H  H243  1  0.248133  0.887967  0.493133  1
  H  H244  1  0.085200  0.061500  0.221300  1
  H  H245  1  0.085200  0.159800  0.938500  1
  H  H246  1  0.085200  0.778700  0.840200  1
  H  H247  1  0.418533  0.728167  0.554633  1
  H  H248  1  0.418533  0.826467  0.271833  1
  H  H249  1  0.418533  0.445367  0.173533  1
  H  H250  1  0.751867  0.394833  0.887967  1
  H  H251  1  0.751867  0.493133  0.605167  1
  H  H252  1  0.751867  0.112033  0.506867  1
  H  H253  1  0.911000  0.909500  0.791600  1
  H  H254  1  0.911000  0.882100  0.090500  1
  H  H255  1  0.911000  0.208400  0.117900  1
  H  H256  1  0.577667  0.242833  0.458267  1
  H  H257  1  0.577667  0.215433  0.757167  1
  H  H258  1  0.577667  0.541733  0.784567  1
  H  H259  1  0.244333  0.576167  0.124933  1
  H  H260  1  0.244333  0.548767  0.423833  1
  H  H261  1  0.244333  0.875067  0.451233  1
  H  H262  1  0.089000  0.090500  0.208400  1
  H  H263  1  0.089000  0.117900  0.909500  1
  H  H264  1  0.089000  0.791600  0.882100  1
  H  H265  1  0.422333  0.757167  0.541733  1
  H  H266  1  0.422333  0.784567  0.242833  1
  H  H267  1  0.422333  0.458267  0.215433  1
  H  H268  1  0.755667  0.423833  0.875067  1
  H  H269  1  0.755667  0.451233  0.576167  1
  H  H270  1  0.755667  0.124933  0.548767  1
  H  H271  1  0.870200  0.880600  0.787300  1
  H  H272  1  0.870200  0.906700  0.119400  1
  H  H273  1  0.870200  0.212700  0.093300  1
  H  H274  1  0.536867  0.213933  0.453967  1
  H  H275  1  0.536867  0.240033  0.786067  1
  H  H276  1  0.536867  0.546033  0.759967  1
  H  H277  1  0.203533  0.547267  0.120633  1
  H  H278  1  0.203533  0.573367  0.452733  1
  H  H279  1  0.203533  0.879367  0.426633  1
  H  H280  1  0.129800  0.119400  0.212700  1
  H  H281  1  0.129800  0.093300  0.880600  1
  H  H282  1  0.129800  0.787300  0.906700  1
  H  H283  1  0.463133  0.786067  0.546033  1
  H  H284  1  0.463133  0.759967  0.213933  1
  H  H285  1  0.463133  0.453967  0.240033  1
  H  H286  1  0.796467  0.452733  0.879367  1
  H  H287  1  0.796467  0.426633  0.547267  1
  H  H288  1  0.796467  0.120633  0.573367  1
  H  H289  1  0.813300  0.868900  0.799300  1
  H  H290  1  0.813300  0.930400  0.131100  1
  H  H291  1  0.813300  0.200700  0.069600  1
  H  H292  1  0.479967  0.202233  0.465967  1
  H  H293  1  0.479967  0.263733  0.797767  1
  H  H294  1  0.479967  0.534033  0.736267  1
  H  H295  1  0.146633  0.535567  0.132633  1
  H  H296  1  0.146633  0.597067  0.464433  1
  H  H297  1  0.146633  0.867367  0.402933  1
  H  H298  1  0.186700  0.131100  0.200700  1
  H  H299  1  0.186700  0.069600  0.868900  1
  H  H300  1  0.186700  0.799300  0.930400  1
  H  H301  1  0.520033  0.797767  0.534033  1
  H  H302  1  0.520033  0.736267  0.202233  1
  H  H303  1  0.520033  0.465967  0.263733  1
  H  H304  1  0.853367  0.464433  0.867367  1
  H  H305  1  0.853367  0.402933  0.535567  1
  H  H306  1  0.853367  0.132633  0.597067  1
  H  H307  1  0.756200  0.879000  0.817800  1
  H  H308  1  0.756200  0.938800  0.121000  1
  H  H309  1  0.756200  0.182200  0.061200  1
  H  H310  1  0.422867  0.212333  0.484467  1
  H  H311  1  0.422867  0.272133  0.787667  1
  H  H312  1  0.422867  0.515533  0.727867  1
  H  H313  1  0.089533  0.545667  0.151133  1
  H  H314  1  0.089533  0.605467  0.454333  1
  H  H315  1  0.089533  0.848867  0.394533  1
  H  H316  1  0.243800  0.121000  0.182200  1
  H  H317  1  0.243800  0.061200  0.879000  1
  H  H318  1  0.243800  0.817800  0.938800  1
  H  H319  1  0.577133  0.787667  0.515533  1
  H  H320  1  0.577133  0.727867  0.212333  1
  H  H321  1  0.577133  0.484467  0.272133  1
  H  H322  1  0.910467  0.454333  0.848867  1
  H  H323  1  0.910467  0.394533  0.545667  1
  H  H324  1  0.910467  0.151133  0.605467  1
  H  H325  1  0.844900  0.976000  0.831900  1
  H  H326  1  0.844900  0.855900  0.024000  1
  H  H327  1  0.844900  0.168100  0.144100  1
  H  H328  1  0.511567  0.309333  0.498567  1
  H  H329  1  0.511567  0.189233  0.690667  1
  H  H330  1  0.511567  0.501433  0.810767  1
  H  H331  1  0.178233  0.642667  0.165233  1
  H  H332  1  0.178233  0.522567  0.357333  1
  H  H333  1  0.178233  0.834767  0.477433  1
  H  H334  1  0.155100  0.024000  0.168100  1
  H  H335  1  0.155100  0.144100  0.976000  1
  H  H336  1  0.155100  0.831900  0.855900  1
  H  H337  1  0.488433  0.690667  0.501433  1
  H  H338  1  0.488433  0.810767  0.309333  1
  H  H339  1  0.488433  0.498567  0.189233  1
  H  H340  1  0.821767  0.357333  0.834767  1
  H  H341  1  0.821767  0.477433  0.642667  1
  H  H342  1  0.821767  0.165233  0.522567  1
  H  H343  1  0.787800  0.986200  0.850500  1
  H  H344  1  0.787800  0.864300  0.013800  1
  H  H345  1  0.787800  0.149500  0.135700  1
  H  H346  1  0.454467  0.319533  0.517167  1
  H  H347  1  0.454467  0.197633  0.680467  1
  H  H348  1  0.454467  0.482833  0.802367  1
  H  H349  1  0.121133  0.652867  0.183833  1
  H  H350  1  0.121133  0.530967  0.347133  1
  H  H351  1  0.121133  0.816167  0.469033  1
  H  H352  1  0.212200  0.013800  0.149500  1
  H  H353  1  0.212200  0.135700  0.986200  1
  H  H354  1  0.212200  0.850500  0.864300  1
  H  H355  1  0.545533  0.680467  0.482833  1
  H  H356  1  0.545533  0.802367  0.319533  1
  H  H357  1  0.545533  0.517167  0.197633  1
  H  H358  1  0.878867  0.347133  0.816167  1
  H  H359  1  0.878867  0.469033  0.652867  1
  H  H360  1  0.878867  0.183833  0.530967  1
  H  H361  1  0.727000  0.974000  0.857100  1
  H  H362  1  0.727000  0.883100  0.026000  1
  H  H363  1  0.727000  0.142900  0.116900  1
  H  H364  1  0.393667  0.307333  0.523767  1
  H  H365  1  0.393667  0.216433  0.692667  1
  H  H366  1  0.393667  0.476233  0.783567  1
  H  H367  1  0.060333  0.640667  0.190433  1
  H  H368  1  0.060333  0.549767  0.359333  1
  H  H369  1  0.060333  0.809567  0.450233  1
  H  H370  1  0.273000  0.026000  0.142900  1
  H  H371  1  0.273000  0.116900  0.974000  1
  H  H372  1  0.273000  0.857100  0.883100  1
  H  H373  1  0.606333  0.692667  0.476233  1
  H  H374  1  0.606333  0.783567  0.307333  1
  H  H375  1  0.606333  0.523767  0.216433  1
  H  H376  1  0.939667  0.359333  0.809567  1
  H  H377  1  0.939667  0.450233  0.640667  1
  H  H378  1  0.939667  0.190433  0.549767  1
  H  H379  1  0.690400  0.944900  0.855500  1
  H  H380  1  0.690400  0.910600  0.055100  1
  H  H381  1  0.690400  0.144500  0.089400  1
  H  H382  1  0.357067  0.278233  0.522167  1
  H  H383  1  0.357067  0.243933  0.721767  1
  H  H384  1  0.357067  0.477833  0.756067  1
  H  H385  1  0.023733  0.611567  0.188833  1
  H  H386  1  0.023733  0.577267  0.388433  1
  H  H387  1  0.023733  0.811167  0.422733  1
  H  H388  1  0.309600  0.055100  0.144500  1
  H  H389  1  0.309600  0.089400  0.944900  1
  H  H390  1  0.309600  0.855500  0.910600  1
  H  H391  1  0.642933  0.721767  0.477833  1
  H  H392  1  0.642933  0.756067  0.278233  1
  H  H393  1  0.642933  0.522167  0.243933  1
  H  H394  1  0.976267  0.388433  0.811167  1
  H  H395  1  0.976267  0.422733  0.611567  1
  H  H396  1  0.976267  0.188833  0.577267  1
  H  H397  1  0.732200  0.888900  0.856500  1
  H  H398  1  0.732200  0.967600  0.111100  1
  H  H399  1  0.732200  0.143500  0.032400  1
  H  H400  1  0.398867  0.222233  0.523167  1
  H  H401  1  0.398867  0.300933  0.777767  1
  H  H402  1  0.398867  0.476833  0.699067  1
  H  H403  1  0.065533  0.555567  0.189833  1
  H  H404  1  0.065533  0.634267  0.444433  1
  H  H405  1  0.065533  0.810167  0.365733  1
  H  H406  1  0.267800  0.111100  0.143500  1
  H  H407  1  0.267800  0.032400  0.888900  1
  H  H408  1  0.267800  0.856500  0.967600  1
  H  H409  1  0.601133  0.777767  0.476833  1
  H  H410  1  0.601133  0.699067  0.222233  1
  H  H411  1  0.601133  0.523167  0.300933  1
  H  H412  1  0.934467  0.444433  0.810167  1
  H  H413  1  0.934467  0.365733  0.555567  1
  H  H414  1  0.934467  0.189833  0.634267  1
  H  H415  1  0.688000  0.865100  0.859600  1
  H  H416  1  0.688000  0.994500  0.134900  1
  H  H417  1  0.688000  0.140400  0.005500  1
  H  H418  1  0.354667  0.198433  0.526267  1
  H  H419  1  0.354667  0.327833  0.801567  1
  H  H420  1  0.354667  0.473733  0.672167  1
  H  H421  1  0.021333  0.531767  0.192933  1
  H  H422  1  0.021333  0.661167  0.468233  1
  H  H423  1  0.021333  0.807067  0.338833  1
  H  H424  1  0.312000  0.134900  0.140400  1
  H  H425  1  0.312000  0.005500  0.865100  1
  H  H426  1  0.312000  0.859600  0.994500  1
  H  H427  1  0.645333  0.801567  0.473733  1
  H  H428  1  0.645333  0.672167  0.198433  1
  H  H429  1  0.645333  0.526267  0.327833  1
  H  H430  1  0.978667  0.468233  0.807067  1
  H  H431  1  0.978667  0.338833  0.531767  1
  H  H432  1  0.978667  0.192933  0.661167  1
  H  H433  1  0.628300  0.863600  0.845900  1
  H  H434  1  0.628300  0.982300  0.136400  1
  H  H435  1  0.628300  0.154100  0.017700  1
  H  H436  1  0.294967  0.196933  0.512567  1
  H  H437  1  0.294967  0.315633  0.803067  1
  H  H438  1  0.294967  0.487433  0.684367  1
  H  H439  1  0.961633  0.530267  0.179233  1
  H  H440  1  0.961633  0.648967  0.469733  1
  H  H441  1  0.961633  0.820767  0.351033  1
  H  H442  1  0.371700  0.136400  0.154100  1
  H  H443  1  0.371700  0.017700  0.863600  1
  H  H444  1  0.371700  0.845900  0.982300  1
  H  H445  1  0.705033  0.803067  0.487433  1
  H  H446  1  0.705033  0.684367  0.196933  1
  H  H447  1  0.705033  0.512567  0.315633  1
  H  H448  1  0.038367  0.469733  0.820767  1
  H  H449  1  0.038367  0.351033  0.530267  1
  H  H450  1  0.038367  0.179233  0.648967  1
  H  H451  1  0.657000  0.909600  0.825900  1
  H  H452  1  0.657000  0.916300  0.090400  1
  H  H453  1  0.657000  0.174100  0.083700  1
  H  H454  1  0.323667  0.242933  0.492567  1
  H  H455  1  0.323667  0.249633  0.757067  1
  H  H456  1  0.323667  0.507433  0.750367  1
  H  H457  1  0.990333  0.576267  0.159233  1
  H  H458  1  0.990333  0.582967  0.423733  1
  H  H459  1  0.990333  0.840767  0.417033  1
  H  H460  1  0.343000  0.090400  0.174100  1
  H  H461  1  0.343000  0.083700  0.909600  1
  H  H462  1  0.343000  0.825900  0.916300  1
  H  H463  1  0.676333  0.757067  0.507433  1
  H  H464  1  0.676333  0.750367  0.242933  1
  H  H465  1  0.676333  0.492567  0.249633  1
  H  H466  1  0.009667  0.423733  0.840767  1
  H  H467  1  0.009667  0.417033  0.576267  1
  H  H468  1  0.009667  0.159233  0.582967  1
  H  H469  1  0.578400  0.893700  0.854700  1
  H  H470  1  0.578400  0.961000  0.106300  1
  H  H471  1  0.578400  0.145300  0.039000  1
  H  H472  1  0.245067  0.227033  0.521367  1
  H  H473  1  0.245067  0.294333  0.772967  1
  H  H474  1  0.245067  0.478633  0.705667  1
  H  H475  1  0.911733  0.560367  0.188033  1
  H  H476  1  0.911733  0.627667  0.439633  1
  H  H477  1  0.911733  0.811967  0.372333  1
  H  H478  1  0.421600  0.106300  0.145300  1
  H  H479  1  0.421600  0.039000  0.893700  1
  H  H480  1  0.421600  0.854700  0.961000  1
  H  H481  1  0.754933  0.772967  0.478633  1
  H  H482  1  0.754933  0.705667  0.227033  1
  H  H483  1  0.754933  0.521367  0.294333  1
  H  H484  1  0.088267  0.439633  0.811967  1
  H  H485  1  0.088267  0.372333  0.560367  1
  H  H486  1  0.088267  0.188033  0.627667  1
  H  H487  1  0.510900  0.901900  0.860800  1
  H  H488  1  0.510900  0.958900  0.098100  1
  H  H489  1  0.510900  0.139200  0.041100  1
  H  H490  1  0.177567  0.235233  0.527467  1
  H  H491  1  0.177567  0.292233  0.764767  1
  H  H492  1  0.177567  0.472533  0.707767  1
  H  H493  1  0.844233  0.568567  0.194133  1
  H  H494  1  0.844233  0.625567  0.431433  1
  H  H495  1  0.844233  0.805867  0.374433  1
  H  H496  1  0.489100  0.098100  0.139200  1
  H  H497  1  0.489100  0.041100  0.901900  1
  H  H498  1  0.489100  0.860800  0.958900  1
  H  H499  1  0.822433  0.764767  0.472533  1
  H  H500  1  0.822433  0.707767  0.235233  1
  H  H501  1  0.822433  0.527467  0.292233  1
  H  H502  1  0.155767  0.431433  0.805867  1
  H  H503  1  0.155767  0.374433  0.568567  1
  H  H504  1  0.155767  0.194133  0.625567  1
  H  H505  1  0.453100  0.903300  0.845900  1
  H  H506  1  0.453100  0.942600  0.096700  1
  H  H507  1  0.453100  0.154100  0.057400  1
  H  H508  1  0.119767  0.236633  0.512567  1
  H  H509  1  0.119767  0.275933  0.763367  1
  H  H510  1  0.119767  0.487433  0.724067  1
  H  H511  1  0.786433  0.569967  0.179233  1
  H  H512  1  0.786433  0.609267  0.430033  1
  H  H513  1  0.786433  0.820767  0.390733  1
  H  H514  1  0.546900  0.096700  0.154100  1
  H  H515  1  0.546900  0.057400  0.903300  1
  H  H516  1  0.546900  0.845900  0.942600  1
  H  H517  1  0.880233  0.763367  0.487433  1
  H  H518  1  0.880233  0.724067  0.236633  1
  H  H519  1  0.880233  0.512567  0.275933  1
  H  H520  1  0.213567  0.430033  0.820767  1
  H  H521  1  0.213567  0.390733  0.569967  1
  H  H522  1  0.213567  0.179233  0.609267  1
  H  H523  1  0.447500  0.890500  0.806400  1
  H  H524  1  0.447500  0.915900  0.109500  1
  H  H525  1  0.447500  0.193600  0.084100  1
  H  H526  1  0.114167  0.223833  0.473067  1
  H  H527  1  0.114167  0.249233  0.776167  1
  H  H528  1  0.114167  0.526933  0.750767  1
  H  H529  1  0.780833  0.557167  0.139733  1
  H  H530  1  0.780833  0.582567  0.442833  1
  H  H531  1  0.780833  0.860267  0.417433  1
  H  H532  1  0.552500  0.109500  0.193600  1
  H  H533  1  0.552500  0.084100  0.890500  1
  H  H534  1  0.552500  0.806400  0.915900  1
  H  H535  1  0.885833  0.776167  0.526933  1
  H  H536  1  0.885833  0.750767  0.223833  1
  H  H537  1  0.885833  0.473067  0.249233  1
  H  H538  1  0.219167  0.442833  0.860267  1
  H  H539  1  0.219167  0.417433  0.557167  1
  H  H540  1  0.219167  0.139733  0.582567  1
  H  H541  1  0.498800  0.876400  0.782500  1
  H  H542  1  0.498800  0.906100  0.123600  1
  H  H543  1  0.498800  0.217500  0.093900  1
  H  H544  1  0.165467  0.209733  0.449167  1
  H  H545  1  0.165467  0.239433  0.790267  1
  H  H546  1  0.165467  0.550833  0.760567  1
  H  H547  1  0.832133  0.543067  0.115833  1
  H  H548  1  0.832133  0.572767  0.456933  1
  H  H549  1  0.832133  0.884167  0.427233  1
  H  H550  1  0.501200  0.123600  0.217500  1
  H  H551  1  0.501200  0.093900  0.876400  1
  H  H552  1  0.501200  0.782500  0.906100  1
  H  H553  1  0.834533  0.790267  0.550833  1
  H  H554  1  0.834533  0.760567  0.209733  1
  H  H555  1  0.834533  0.449167  0.239433  1
  H  H556  1  0.167867  0.456933  0.884167  1
  H  H557  1  0.167867  0.427233  0.543067  1
  H  H558  1  0.167867  0.115833  0.572767  1
  H  H559  1  0.028800  0.031300  0.815500  1
  H  H560  1  0.028800  0.784200  0.968700  1
  H  H561  1  0.028800  0.184500  0.215800  1
  H  H562  1  0.695467  0.364633  0.482167  1
  H  H563  1  0.695467  0.117533  0.635367  1
  H  H564  1  0.695467  0.517833  0.882467  1
  H  H565  1  0.362133  0.697967  0.148833  1
  H  H566  1  0.362133  0.450867  0.302033  1
  H  H567  1  0.362133  0.851167  0.549133  1
  H  H568  1  0.971200  0.968700  0.184500  1
  H  H569  1  0.971200  0.215800  0.031300  1
  H  H570  1  0.971200  0.815500  0.784200  1
  H  H571  1  0.304533  0.635367  0.517833  1
  H  H572  1  0.304533  0.882467  0.364633  1
  H  H573  1  0.304533  0.482167  0.117533  1
  H  H574  1  0.637867  0.302033  0.851167  1
  H  H575  1  0.637867  0.549133  0.697967  1
  H  H576  1  0.637867  0.148833  0.450867  1
  H  H577  1  0.011400  0.067700  0.845100  1
  H  H578  1  0.011400  0.777400  0.932300  1
  H  H579  1  0.011400  0.154900  0.222600  1
  H  H580  1  0.678067  0.401033  0.511767  1
  H  H581  1  0.678067  0.110733  0.598967  1
  H  H582  1  0.678067  0.488233  0.889267  1
  H  H583  1  0.344733  0.734367  0.178433  1
  H  H584  1  0.344733  0.444067  0.265633  1
  H  H585  1  0.344733  0.821567  0.555933  1
  H  H586  1  0.988600  0.932300  0.154900  1
  H  H587  1  0.988600  0.222600  0.067700  1
  H  H588  1  0.988600  0.845100  0.777400  1
  H  H589  1  0.321933  0.598967  0.488233  1
  H  H590  1  0.321933  0.889267  0.401033  1
  H  H591  1  0.321933  0.511767  0.110733  1
  H  H592  1  0.655267  0.265633  0.821567  1
  H  H593  1  0.655267  0.555933  0.734367  1
  H  H594  1  0.655267  0.178433  0.444067  1
  H  H595  1  0.952200  0.081600  0.845300  1
  H  H596  1  0.952200  0.763700  0.918400  1
  H  H597  1  0.952200  0.154700  0.236300  1
  H  H598  1  0.618867  0.414933  0.511967  1
  H  H599  1  0.618867  0.097033  0.585067  1
  H  H600  1  0.618867  0.488033  0.902967  1
  H  H601  1  0.285533  0.748267  0.178633  1
  H  H602  1  0.285533  0.430367  0.251733  1
  H  H603  1  0.285533  0.821367  0.569633  1
  H  H604  1  0.047800  0.918400  0.154700  1
  H  H605  1  0.047800  0.236300  0.081600  1
  H  H606  1  0.047800  0.845300  0.763700  1
  H  H607  1  0.381133  0.585067  0.488033  1
  H  H608  1  0.381133  0.902967  0.414933  1
  H  H609  1  0.381133  0.511967  0.097033  1
  H  H610  1  0.714467  0.251733  0.821367  1
  H  H611  1  0.714467  0.569633  0.748267  1
  H  H612  1  0.714467  0.178633  0.430367  1
  H  H613  1  0.911100  0.058200  0.815500  1
  H  H614  1  0.911100  0.757300  0.941800  1
  H  H615  1  0.911100  0.184500  0.242700  1
  H  H616  1  0.577767  0.391533  0.482167  1
  H  H617  1  0.577767  0.090633  0.608467  1
  H  H618  1  0.577767  0.517833  0.909367  1
  H  H619  1  0.244433  0.724867  0.148833  1
  H  H620  1  0.244433  0.423967  0.275133  1
  H  H621  1  0.244433  0.851167  0.576033  1
  H  H622  1  0.088900  0.941800  0.184500  1
  H  H623  1  0.088900  0.242700  0.058200  1
  H  H624  1  0.088900  0.815500  0.757300  1
  H  H625  1  0.422233  0.608467  0.517833  1
  H  H626  1  0.422233  0.909367  0.391533  1
  H  H627  1  0.422233  0.482167  0.090633  1
  H  H628  1  0.755567  0.275133  0.851167  1
  H  H629  1  0.755567  0.576033  0.724867  1
  H  H630  1  0.755567  0.148833  0.423967  1
  H  H631  1  0.898200  0.014300  0.782400  1
  H  H632  1  0.898200  0.768100  0.985700  1
  H  H633  1  0.898200  0.217600  0.231900  1
  H  H634  1  0.564867  0.347633  0.449067  1
  H  H635  1  0.564867  0.101433  0.652367  1
  H  H636  1  0.564867  0.550933  0.898567  1
  H  H637  1  0.231533  0.680967  0.115733  1
  H  H638  1  0.231533  0.434767  0.319033  1
  H  H639  1  0.231533  0.884267  0.565233  1
  H  H640  1  0.101800  0.985700  0.217600  1
  H  H641  1  0.101800  0.231900  0.014300  1
  H  H642  1  0.101800  0.782400  0.768100  1
  H  H643  1  0.435133  0.652367  0.550933  1
  H  H644  1  0.435133  0.898567  0.347633  1
  H  H645  1  0.435133  0.449067  0.101433  1
  H  H646  1  0.768467  0.319033  0.884267  1
  H  H647  1  0.768467  0.565233  0.680967  1
  H  H648  1  0.768467  0.115733  0.434767  1
  H  H649  1  0.937300  0.972200  0.717600  1
  H  H650  1  0.937300  0.745400  0.027800  1
  H  H651  1  0.937300  0.282400  0.254600  1
  H  H652  1  0.603967  0.305533  0.384267  1
  H  H653  1  0.603967  0.078733  0.694467  1
  H  H654  1  0.603967  0.615733  0.921267  1
  H  H655  1  0.270633  0.638867  0.050933  1
  H  H656  1  0.270633  0.412067  0.361133  1
  H  H657  1  0.270633  0.949067  0.587933  1
  H  H658  1  0.062700  0.027800  0.282400  1
  H  H659  1  0.062700  0.254600  0.972200  1
  H  H660  1  0.062700  0.717600  0.745400  1
  H  H661  1  0.396033  0.694467  0.615733  1
  H  H662  1  0.396033  0.921267  0.305533  1
  H  H663  1  0.396033  0.384267  0.078733  1
  H  H664  1  0.729367  0.361133  0.949067  1
  H  H665  1  0.729367  0.587933  0.638867  1
  H  H666  1  0.729367  0.050933  0.412067  1
  H  H667  1  0.901800  0.940400  0.692200  1
  H  H668  1  0.901800  0.751800  0.059600  1
  H  H669  1  0.901800  0.307800  0.248200  1
  H  H670  1  0.568467  0.273733  0.358867  1
  H  H671  1  0.568467  0.085133  0.726267  1
  H  H672  1  0.568467  0.641133  0.914867  1
  H  H673  1  0.235133  0.607067  0.025533  1
  H  H674  1  0.235133  0.418467  0.392933  1
  H  H675  1  0.235133  0.974467  0.581533  1
  H  H676  1  0.098200  0.059600  0.307800  1
  H  H677  1  0.098200  0.248200  0.940400  1
  H  H678  1  0.098200  0.692200  0.751800  1
  H  H679  1  0.431533  0.726267  0.641133  1
  H  H680  1  0.431533  0.914867  0.273733  1
  H  H681  1  0.431533  0.358867  0.085133  1
  H  H682  1  0.764867  0.392933  0.974467  1
  H  H683  1  0.764867  0.581533  0.607067  1
  H  H684  1  0.764867  0.025533  0.418467  1
  H  H685  1  0.855300  0.926700  0.706500  1
  H  H686  1  0.855300  0.779800  0.073300  1
  H  H687  1  0.855300  0.293500  0.220200  1
  H  H688  1  0.521967  0.260033  0.373167  1
  H  H689  1  0.521967  0.113133  0.739967  1
  H  H690  1  0.521967  0.626833  0.886867  1
  H  H691  1  0.188633  0.593367  0.039833  1
  H  H692  1  0.188633  0.446467  0.406633  1
  H  H693  1  0.188633  0.960167  0.553533  1
  H  H694  1  0.144700  0.073300  0.293500  1
  H  H695  1  0.144700  0.220200  0.926700  1
  H  H696  1  0.144700  0.706500  0.779800  1
  H  H697  1  0.478033  0.739967  0.626833  1
  H  H698  1  0.478033  0.886867  0.260033  1
  H  H699  1  0.478033  0.373167  0.113133  1
  H  H700  1  0.811367  0.406633  0.960167  1
  H  H701  1  0.811367  0.553533  0.593367  1
  H  H702  1  0.811367  0.039833  0.446467  1
  H  H703  1  0.880000  0.976700  0.771800  1
  H  H704  1  0.880000  0.795100  0.023300  1
  H  H705  1  0.880000  0.228200  0.204900  1
  H  H706  1  0.546667  0.310033  0.438467  1
  H  H707  1  0.546667  0.128433  0.689967  1
  H  H708  1  0.546667  0.561533  0.871567  1
  H  H709  1  0.213333  0.643367  0.105133  1
  H  H710  1  0.213333  0.461767  0.356633  1
  H  H711  1  0.213333  0.894867  0.538233  1
  H  H712  1  0.120000  0.023300  0.228200  1
  H  H713  1  0.120000  0.204900  0.976700  1
  H  H714  1  0.120000  0.771800  0.795100  1
  H  H715  1  0.453333  0.689967  0.561533  1
  H  H716  1  0.453333  0.871567  0.310033  1
  H  H717  1  0.453333  0.438467  0.128433  1
  H  H718  1  0.786667  0.356633  0.894867  1
  H  H719  1  0.786667  0.538233  0.643367  1
  H  H720  1  0.786667  0.105133  0.461767  1
  H  H721  1  0.861600  0.911100  0.739900  1
  H  H722  1  0.861600  0.828800  0.088900  1
  H  H723  1  0.861600  0.260100  0.171200  1
  H  H724  1  0.528267  0.244433  0.406567  1
  H  H725  1  0.528267  0.162133  0.755567  1
  H  H726  1  0.528267  0.593433  0.837867  1
  H  H727  1  0.194933  0.577767  0.073233  1
  H  H728  1  0.194933  0.495467  0.422233  1
  H  H729  1  0.194933  0.926767  0.504533  1
  H  H730  1  0.138400  0.088900  0.260100  1
  H  H731  1  0.138400  0.171200  0.911100  1
  H  H732  1  0.138400  0.739900  0.828800  1
  H  H733  1  0.471733  0.755567  0.593433  1
  H  H734  1  0.471733  0.837867  0.244433  1
  H  H735  1  0.471733  0.406567  0.162133  1
  H  H736  1  0.805067  0.422233  0.926767  1
  H  H737  1  0.805067  0.504533  0.577767  1
  H  H738  1  0.805067  0.073233  0.495467  1
  H  H739  1  0.820100  0.896600  0.756200  1
  H  H740  1  0.820100  0.859600  0.103400  1
  H  H741  1  0.820100  0.243800  0.140400  1
  H  H742  1  0.486767  0.229933  0.422867  1
  H  H743  1  0.486767  0.192933  0.770067  1
  H  H744  1  0.486767  0.577133  0.807067  1
  H  H745  1  0.153433  0.563267  0.089533  1
  H  H746  1  0.153433  0.526267  0.436733  1
  H  H747  1  0.153433  0.910467  0.473733  1
  H  H748  1  0.179900  0.103400  0.243800  1
  H  H749  1  0.179900  0.140400  0.896600  1
  H  H750  1  0.179900  0.756200  0.859600  1
  H  H751  1  0.513233  0.770067  0.577133  1
  H  H752  1  0.513233  0.807067  0.229933  1
  H  H753  1  0.513233  0.422867  0.192933  1
  H  H754  1  0.846567  0.436733  0.910467  1
  H  H755  1  0.846567  0.473733  0.563267  1
  H  H756  1  0.846567  0.089533  0.526267  1
  H  H757  1  0.762700  0.899500  0.775600  1
  H  H758  1  0.762700  0.876100  0.100500  1
  H  H759  1  0.762700  0.224400  0.123900  1
  H  H760  1  0.429367  0.232833  0.442267  1
  H  H761  1  0.429367  0.209433  0.767167  1
  H  H762  1  0.429367  0.557733  0.790567  1
  H  H763  1  0.096033  0.566167  0.108933  1
  H  H764  1  0.096033  0.542767  0.433833  1
  H  H765  1  0.096033  0.891067  0.457233  1
  H  H766  1  0.237300  0.100500  0.224400  1
  H  H767  1  0.237300  0.123900  0.899500  1
  H  H768  1  0.237300  0.775600  0.876100  1
  H  H769  1  0.570633  0.767167  0.557733  1
  H  H770  1  0.570633  0.790567  0.232833  1
  H  H771  1  0.570633  0.442267  0.209433  1
  H  H772  1  0.903967  0.433833  0.891067  1
  H  H773  1  0.903967  0.457233  0.566167  1
  H  H774  1  0.903967  0.108933  0.542767  1
  H  H775  1  0.708700  0.919800  0.793200  1
  H  H776  1  0.708700  0.873400  0.080200  1
  H  H777  1  0.708700  0.206800  0.126600  1
  H  H778  1  0.375367  0.253133  0.459867  1
  H  H779  1  0.375367  0.206733  0.746867  1
  H  H780  1  0.375367  0.540133  0.793267  1
  H  H781  1  0.042033  0.586467  0.126533  1
  H  H782  1  0.042033  0.540067  0.413533  1
  H  H783  1  0.042033  0.873467  0.459933  1
  H  H784  1  0.291300  0.080200  0.206800  1
  H  H785  1  0.291300  0.126600  0.919800  1
  H  H786  1  0.291300  0.793200  0.873400  1
  H  H787  1  0.624633  0.746867  0.540133  1
  H  H788  1  0.624633  0.793267  0.253133  1
  H  H789  1  0.624633  0.459867  0.206733  1
  H  H790  1  0.957967  0.413533  0.873467  1
  H  H791  1  0.957967  0.459933  0.586467  1
  H  H792  1  0.957967  0.126533  0.540067  1
  H  H793  1  0.813400  0.981800  0.757600  1
  H  H794  1  0.813400  0.775800  0.018200  1
  H  H795  1  0.813400  0.242400  0.224200  1
  H  H796  1  0.480067  0.315133  0.424267  1
  H  H797  1  0.480067  0.109133  0.684867  1
  H  H798  1  0.480067  0.575733  0.890867  1
  H  H799  1  0.146733  0.648467  0.090933  1
  H  H800  1  0.146733  0.442467  0.351533  1
  H  H801  1  0.146733  0.909067  0.557533  1
  H  H802  1  0.186600  0.018200  0.242400  1
  H  H803  1  0.186600  0.224200  0.981800  1
  H  H804  1  0.186600  0.757600  0.775800  1
  H  H805  1  0.519933  0.684867  0.575733  1
  H  H806  1  0.519933  0.890867  0.315133  1
  H  H807  1  0.519933  0.424267  0.109133  1
  H  H808  1  0.853267  0.351533  0.909067  1
  H  H809  1  0.853267  0.557533  0.648467  1
  H  H810  1  0.853267  0.090933  0.442467  1
  H  H811  1  0.759400  0.002100  0.775200  1
  H  H812  1  0.759400  0.773100  0.997900  1
  H  H813  1  0.759400  0.224800  0.226900  1
  H  H814  1  0.426067  0.335433  0.441867  1
  H  H815  1  0.426067  0.106433  0.664567  1
  H  H816  1  0.426067  0.558133  0.893567  1
  H  H817  1  0.092733  0.668767  0.108533  1
  H  H818  1  0.092733  0.439767  0.331233  1
  H  H819  1  0.092733  0.891467  0.560233  1
  H  H820  1  0.240600  0.997900  0.224800  1
  H  H821  1  0.240600  0.226900  0.002100  1
  H  H822  1  0.240600  0.775200  0.773100  1
  H  H823  1  0.573933  0.664567  0.558133  1
  H  H824  1  0.573933  0.893567  0.335433  1
  H  H825  1  0.573933  0.441867  0.106433  1
  H  H826  1  0.907267  0.331233  0.891467  1
  H  H827  1  0.907267  0.560233  0.668767  1
  H  H828  1  0.907267  0.108533  0.439767  1
  H  H829  1  0.705000  0.007300  0.797200  1
  H  H830  1  0.705000  0.789900  0.992700  1
  H  H831  1  0.705000  0.202800  0.210100  1
  H  H832  1  0.371667  0.340633  0.463867  1
  H  H833  1  0.371667  0.123233  0.659367  1
  H  H834  1  0.371667  0.536133  0.876767  1
  H  H835  1  0.038333  0.673967  0.130533  1
  H  H836  1  0.038333  0.456567  0.326033  1
  H  H837  1  0.038333  0.869467  0.543433  1
  H  H838  1  0.295000  0.992700  0.202800  1
  H  H839  1  0.295000  0.210100  0.007300  1
  H  H840  1  0.295000  0.797200  0.789900  1
  H  H841  1  0.628333  0.659367  0.536133  1
  H  H842  1  0.628333  0.876767  0.340633  1
  H  H843  1  0.628333  0.463867  0.123233  1
  H  H844  1  0.961667  0.326033  0.869467  1
  H  H845  1  0.961667  0.543433  0.673967  1
  H  H846  1  0.961667  0.130533  0.456567  1
  H  H847  1  0.661000  0.990200  0.808600  1
  H  H848  1  0.661000  0.818400  0.009800  1
  H  H849  1  0.661000  0.191400  0.181600  1
  H  H850  1  0.327667  0.323533  0.475267  1
  H  H851  1  0.327667  0.151733  0.676467  1
  H  H852  1  0.327667  0.524733  0.848267  1
  H  H853  1  0.994333  0.656867  0.141933  1
  H  H854  1  0.994333  0.485067  0.343133  1
  H  H855  1  0.994333  0.858067  0.514933  1
  H  H856  1  0.339000  0.009800  0.191400  1
  H  H857  1  0.339000  0.181600  0.990200  1
  H  H858  1  0.339000  0.808600  0.818400  1
  H  H859  1  0.672333  0.676467  0.524733  1
  H  H860  1  0.672333  0.848267  0.323533  1
  H  H861  1  0.672333  0.475267  0.151733  1
  H  H862  1  0.005667  0.343133  0.858067  1
  H  H863  1  0.005667  0.514933  0.656867  1
  H  H864  1  0.005667  0.141933  0.485067  1
  H  H865  1  0.649200  0.920200  0.777900  1
  H  H866  1  0.649200  0.857700  0.079800  1
  H  H867  1  0.649200  0.222100  0.142300  1
  H  H868  1  0.315867  0.253533  0.444567  1
  H  H869  1  0.315867  0.191033  0.746467  1
  H  H870  1  0.315867  0.555433  0.808967  1
  H  H871  1  0.982533  0.586867  0.111233  1
  H  H872  1  0.982533  0.524367  0.413133  1
  H  H873  1  0.982533  0.888767  0.475633  1
  H  H874  1  0.350800  0.079800  0.222100  1
  H  H875  1  0.350800  0.142300  0.920200  1
  H  H876  1  0.350800  0.777900  0.857700  1
  H  H877  1  0.684133  0.746467  0.555433  1
  H  H878  1  0.684133  0.808967  0.253533  1
  H  H879  1  0.684133  0.444567  0.191033  1
  H  H880  1  0.017467  0.413133  0.888767  1
  H  H881  1  0.017467  0.475633  0.586867  1
  H  H882  1  0.017467  0.111233  0.524367  1
  H  H883  1  0.576600  0.929500  0.827800  1
  H  H884  1  0.576600  0.898300  0.070500  1
  H  H885  1  0.576600  0.172200  0.101700  1
  H  H886  1  0.243267  0.262833  0.494467  1
  H  H887  1  0.243267  0.231633  0.737167  1
  H  H888  1  0.243267  0.505533  0.768367  1
  H  H889  1  0.909933  0.596167  0.161133  1
  H  H890  1  0.909933  0.564967  0.403833  1
  H  H891  1  0.909933  0.838867  0.435033  1
  H  H892  1  0.423400  0.070500  0.172200  1
  H  H893  1  0.423400  0.101700  0.929500  1
  H  H894  1  0.423400  0.827800  0.898300  1
  H  H895  1  0.756733  0.737167  0.505533  1
  H  H896  1  0.756733  0.768367  0.262833  1
  H  H897  1  0.756733  0.494467  0.231633  1
  H  H898  1  0.090067  0.403833  0.838867  1
  H  H899  1  0.090067  0.435033  0.596167  1
  H  H900  1  0.090067  0.161133  0.564967  1
  H  H901  1  0.603700  0.965200  0.853000  1
  H  H902  1  0.603700  0.887800  0.034800  1
  H  H903  1  0.603700  0.147000  0.112200  1
  H  H904  1  0.270367  0.298533  0.519667  1
  H  H905  1  0.270367  0.221133  0.701467  1
  H  H906  1  0.270367  0.480333  0.778867  1
  H  H907  1  0.937033  0.631867  0.186333  1
  H  H908  1  0.937033  0.554467  0.368133  1
  H  H909  1  0.937033  0.813667  0.445533  1
  H  H910  1  0.396300  0.034800  0.147000  1
  H  H911  1  0.396300  0.112200  0.965200  1
  H  H912  1  0.396300  0.853000  0.887800  1
  H  H913  1  0.729633  0.701467  0.480333  1
  H  H914  1  0.729633  0.778867  0.298533  1
  H  H915  1  0.729633  0.519667  0.221133  1
  H  H916  1  0.062967  0.368133  0.813667  1
  H  H917  1  0.062967  0.445533  0.631867  1
  H  H918  1  0.062967  0.186333  0.554467  1
  H  H919  1  0.653500  0.978400  0.840600  1
  H  H920  1  0.653500  0.862200  0.021600  1
  H  H921  1  0.653500  0.159400  0.137800  1
  H  H922  1  0.320167  0.311733  0.507267  1
  H  H923  1  0.320167  0.195533  0.688267  1
  H  H924  1  0.320167  0.492733  0.804467  1
  H  H925  1  0.986833  0.645067  0.173933  1
  H  H926  1  0.986833  0.528867  0.354933  1
  H  H927  1  0.986833  0.826067  0.471133  1
  H  H928  1  0.346500  0.021600  0.159400  1
  H  H929  1  0.346500  0.137800  0.978400  1
  H  H930  1  0.346500  0.840600  0.862200  1
  H  H931  1  0.679833  0.688267  0.492733  1
  H  H932  1  0.679833  0.804467  0.311733  1
  H  H933  1  0.679833  0.507267  0.195533  1
  H  H934  1  0.013167  0.354933  0.826067  1
  H  H935  1  0.013167  0.471133  0.645067  1
  H  H936  1  0.013167  0.173933  0.528867  1
  H  H937  1  0.590200  0.906900  0.759600  1
  H  H938  1  0.590200  0.852700  0.093100  1
  H  H939  1  0.590200  0.240400  0.147300  1
  H  H940  1  0.256867  0.240233  0.426267  1
  H  H941  1  0.256867  0.186033  0.759767  1
  H  H942  1  0.256867  0.573733  0.813967  1
  H  H943  1  0.923533  0.573567  0.092933  1
  H  H944  1  0.923533  0.519367  0.426433  1
  H  H945  1  0.923533  0.907067  0.480633  1
  H  H946  1  0.409800  0.093100  0.240400  1
  H  H947  1  0.409800  0.147300  0.906900  1
  H  H948  1  0.409800  0.759600  0.852700  1
  H  H949  1  0.743133  0.759767  0.573733  1
  H  H950  1  0.743133  0.813967  0.240233  1
  H  H951  1  0.743133  0.426267  0.186033  1
  H  H952  1  0.076467  0.426433  0.907067  1
  H  H953  1  0.076467  0.480633  0.573567  1
  H  H954  1  0.076467  0.092933  0.519367  1
  H  H955  1  0.554400  0.878900  0.721700  1
  H  H956  1  0.554400  0.842800  0.121100  1
  H  H957  1  0.554400  0.278300  0.157200  1
  H  H958  1  0.221067  0.212233  0.388367  1
  H  H959  1  0.221067  0.176133  0.787767  1
  H  H960  1  0.221067  0.611633  0.823867  1
  H  H961  1  0.887733  0.545567  0.055033  1
  H  H962  1  0.887733  0.509467  0.454433  1
  H  H963  1  0.887733  0.944967  0.490533  1
  H  H964  1  0.445600  0.121100  0.278300  1
  H  H965  1  0.445600  0.157200  0.878900  1
  H  H966  1  0.445600  0.721700  0.842800  1
  H  H967  1  0.778933  0.787767  0.611633  1
  H  H968  1  0.778933  0.823867  0.212233  1
  H  H969  1  0.778933  0.388367  0.176133  1
  H  H970  1  0.112267  0.454433  0.944967  1
  H  H971  1  0.112267  0.490533  0.545567  1
  H  H972  1  0.112267  0.055033  0.509467  1
  H  H973  1  0.525600  0.842900  0.699100  1
  H  H974  1  0.525600  0.856200  0.157100  1
  H  H975  1  0.525600  0.300900  0.143800  1
  H  H976  1  0.192267  0.176233  0.365767  1
  H  H977  1  0.192267  0.189533  0.823767  1
  H  H978  1  0.192267  0.634233  0.810467  1
  H  H979  1  0.858933  0.509567  0.032433  1
  H  H980  1  0.858933  0.522867  0.490433  1
  H  H981  1  0.858933  0.967567  0.477133  1
  H  H982  1  0.474400  0.157100  0.300900  1
  H  H983  1  0.474400  0.143800  0.842900  1
  H  H984  1  0.474400  0.699100  0.856200  1
  H  H985  1  0.807733  0.823767  0.634233  1
  H  H986  1  0.807733  0.810467  0.176233  1
  H  H987  1  0.807733  0.365767  0.189533  1
  H  H988  1  0.141067  0.490433  0.967567  1
  H  H989  1  0.141067  0.477133  0.509567  1
  H  H990  1  0.141067  0.032433  0.522867  1
  H  H991  1  0.521100  0.817500  0.713600  1
  H  H992  1  0.521100  0.896100  0.182500  1
  H  H993  1  0.521100  0.286400  0.103900  1
  H  H994  1  0.187767  0.150833  0.380267  1
  H  H995  1  0.187767  0.229433  0.849167  1
  H  H996  1  0.187767  0.619733  0.770567  1
  H  H997  1  0.854433  0.484167  0.046933  1
  H  H998  1  0.854433  0.562767  0.515833  1
  H  H999  1  0.854433  0.953067  0.437233  1
  H  H1000  1  0.478900  0.182500  0.286400  1
  H  H1001  1  0.478900  0.103900  0.817500  1
  H  H1002  1  0.478900  0.713600  0.896100  1
  H  H1003  1  0.812233  0.849167  0.619733  1
  H  H1004  1  0.812233  0.770567  0.150833  1
  H  H1005  1  0.812233  0.380267  0.229433  1
  H  H1006  1  0.145567  0.515833  0.953067  1
  H  H1007  1  0.145567  0.437233  0.484167  1
  H  H1008  1  0.145567  0.046933  0.562767  1
  H  H1009  1  0.544500  0.828300  0.750000  1
  H  H1010  1  0.544500  0.921700  0.171700  1
  H  H1011  1  0.544500  0.250000  0.078300  1
  H  H1012  1  0.211167  0.161633  0.416667  1
  H  H1013  1  0.211167  0.255033  0.838367  1
  H  H1014  1  0.211167  0.583333  0.744967  1
  H  H1015  1  0.877833  0.494967  0.083333  1
  H  H1016  1  0.877833  0.588367  0.505033  1
  H  H1017  1  0.877833  0.916667  0.411633  1
  H  H1018  1  0.455500  0.171700  0.250000  1
  H  H1019  1  0.455500  0.078300  0.828300  1
  H  H1020  1  0.455500  0.750000  0.921700  1
  H  H1021  1  0.788833  0.838367  0.583333  1
  H  H1022  1  0.788833  0.744967  0.161633  1
  H  H1023  1  0.788833  0.416667  0.255033  1
  H  H1024  1  0.122167  0.505033  0.916667  1
  H  H1025  1  0.122167  0.411633  0.494967  1
  H  H1026  1  0.122167  0.083333  0.588367  1
  H  H1027  1  0.774200  0.903500  0.657700  1
  H  H1028  1  0.774200  0.754200  0.096500  1
  H  H1029  1  0.774200  0.342300  0.245800  1
  H  H1030  1  0.440867  0.236833  0.324367  1
  H  H1031  1  0.440867  0.087533  0.763167  1
  H  H1032  1  0.440867  0.675633  0.912467  1
  H  H1033  1  0.107533  0.570167  0.991033  1
  H  H1034  1  0.107533  0.420867  0.429833  1
  H  H1035  1  0.107533  0.008967  0.579133  1
  H  H1036  1  0.225800  0.096500  0.342300  1
  H  H1037  1  0.225800  0.245800  0.903500  1
  H  H1038  1  0.225800  0.657700  0.754200  1
  H  H1039  1  0.559133  0.763167  0.675633  1
  H  H1040  1  0.559133  0.912467  0.236833  1
  H  H1041  1  0.559133  0.324367  0.087533  1
  H  H1042  1  0.892467  0.429833  0.008967  1
  H  H1043  1  0.892467  0.579133  0.570167  1
  H  H1044  1  0.892467  0.991033  0.420867  1
  H  H1045  1  0.808800  0.876700  0.662100  1
  H  H1046  1  0.808800  0.785400  0.123300  1
  H  H1047  1  0.808800  0.337900  0.214600  1
  H  H1048  1  0.475467  0.210033  0.328767  1
  H  H1049  1  0.475467  0.118733  0.789967  1
  H  H1050  1  0.475467  0.671233  0.881267  1
  H  H1051  1  0.142133  0.543367  0.995433  1
  H  H1052  1  0.142133  0.452067  0.456633  1
  H  H1053  1  0.142133  0.004567  0.547933  1
  H  H1054  1  0.191200  0.123300  0.337900  1
  H  H1055  1  0.191200  0.214600  0.876700  1
  H  H1056  1  0.191200  0.662100  0.785400  1
  H  H1057  1  0.524533  0.789967  0.671233  1
  H  H1058  1  0.524533  0.881267  0.210033  1
  H  H1059  1  0.524533  0.328767  0.118733  1
  H  H1060  1  0.857867  0.456633  0.004567  1
  H  H1061  1  0.857867  0.547933  0.543367  1
  H  H1062  1  0.857867  0.995433  0.452067  1
  H  H1063  1  0.801000  0.873500  0.695200  1
  H  H1064  1  0.801000  0.821700  0.126500  1
  H  H1065  1  0.801000  0.304800  0.178300  1
  H  H1066  1  0.467667  0.206833  0.361867  1
  H  H1067  1  0.467667  0.155033  0.793167  1
  H  H1068  1  0.467667  0.638133  0.844967  1
  H  H1069  1  0.134333  0.540167  0.028533  1
  H  H1070  1  0.134333  0.488367  0.459833  1
  H  H1071  1  0.134333  0.971467  0.511633  1
  H  H1072  1  0.199000  0.126500  0.304800  1
  H  H1073  1  0.199000  0.178300  0.873500  1
  H  H1074  1  0.199000  0.695200  0.821700  1
  H  H1075  1  0.532333  0.793167  0.638133  1
  H  H1076  1  0.532333  0.844967  0.206833  1
  H  H1077  1  0.532333  0.361867  0.155033  1
  H  H1078  1  0.865667  0.459833  0.971467  1
  H  H1079  1  0.865667  0.511633  0.540167  1
  H  H1080  1  0.865667  0.028533  0.488367  1
  H  H1081  1  0.757800  0.897300  0.723200  1
  H  H1082  1  0.757800  0.825900  0.102700  1
  H  H1083  1  0.757800  0.276800  0.174100  1
  H  H1084  1  0.424467  0.230633  0.389867  1
  H  H1085  1  0.424467  0.159233  0.769367  1
  H  H1086  1  0.424467  0.610133  0.840767  1
  H  H1087  1  0.091133  0.563967  0.056533  1
  H  H1088  1  0.091133  0.492567  0.436033  1
  H  H1089  1  0.091133  0.943467  0.507433  1
  H  H1090  1  0.242200  0.102700  0.276800  1
  H  H1091  1  0.242200  0.174100  0.897300  1
  H  H1092  1  0.242200  0.723200  0.825900  1
  H  H1093  1  0.575533  0.769367  0.610133  1
  H  H1094  1  0.575533  0.840767  0.230633  1
  H  H1095  1  0.575533  0.389867  0.159233  1
  H  H1096  1  0.908867  0.436033  0.943467  1
  H  H1097  1  0.908867  0.507433  0.563967  1
  H  H1098  1  0.908867  0.056533  0.492567  1
  H  H1099  1  0.710300  0.928400  0.736500  1
  H  H1100  1  0.710300  0.808100  0.071600  1
  H  H1101  1  0.710300  0.263500  0.191900  1
  H  H1102  1  0.376967  0.261733  0.403167  1
  H  H1103  1  0.376967  0.141433  0.738267  1
  H  H1104  1  0.376967  0.596833  0.858567  1
  H  H1105  1  0.043633  0.595067  0.069833  1
  H  H1106  1  0.043633  0.474767  0.404933  1
  H  H1107  1  0.043633  0.930167  0.525233  1
  H  H1108  1  0.289700  0.071600  0.263500  1
  H  H1109  1  0.289700  0.191900  0.928400  1
  H  H1110  1  0.289700  0.736500  0.808100  1
  H  H1111  1  0.623033  0.738267  0.596833  1
  H  H1112  1  0.623033  0.858567  0.261733  1
  H  H1113  1  0.623033  0.403167  0.141433  1
  H  H1114  1  0.956367  0.404933  0.930167  1
  H  H1115  1  0.956367  0.525233  0.595067  1
  H  H1116  1  0.956367  0.069833  0.474767  1
  H  H1117  1  0.641600  0.933500  0.737000  1
  H  H1118  1  0.641600  0.803500  0.066500  1
  H  H1119  1  0.641600  0.263000  0.196500  1
  H  H1120  1  0.308267  0.266833  0.403667  1
  H  H1121  1  0.308267  0.136833  0.733167  1
  H  H1122  1  0.308267  0.596333  0.863167  1
  H  H1123  1  0.974933  0.600167  0.070333  1
  H  H1124  1  0.974933  0.470167  0.399833  1
  H  H1125  1  0.974933  0.929667  0.529833  1
  H  H1126  1  0.358400  0.066500  0.263000  1
  H  H1127  1  0.358400  0.196500  0.933500  1
  H  H1128  1  0.358400  0.737000  0.803500  1
  H  H1129  1  0.691733  0.733167  0.596333  1
  H  H1130  1  0.691733  0.863167  0.266833  1
  H  H1131  1  0.691733  0.403667  0.136833  1
  H  H1132  1  0.025067  0.399833  0.929667  1
  H  H1133  1  0.025067  0.529833  0.600167  1
  H  H1134  1  0.025067  0.070333  0.470167  1
  H  H1135  1  0.595900  0.997100  0.773600  1
  H  H1136  1  0.595900  0.776500  0.002900  1
  H  H1137  1  0.595900  0.226400  0.223500  1
  H  H1138  1  0.262567  0.330433  0.440267  1
  H  H1139  1  0.262567  0.109833  0.669567  1
  H  H1140  1  0.262567  0.559733  0.890167  1
  H  H1141  1  0.929233  0.663767  0.106933  1
  H  H1142  1  0.929233  0.443167  0.336233  1
  H  H1143  1  0.929233  0.893067  0.556833  1
  H  H1144  1  0.404100  0.002900  0.226400  1
  H  H1145  1  0.404100  0.223500  0.997100  1
  H  H1146  1  0.404100  0.773600  0.776500  1
  H  H1147  1  0.737433  0.669567  0.559733  1
  H  H1148  1  0.737433  0.890167  0.330433  1
  H  H1149  1  0.737433  0.440267  0.109833  1
  H  H1150  1  0.070767  0.336233  0.893067  1
  H  H1151  1  0.070767  0.556833  0.663767  1
  H  H1152  1  0.070767  0.106933  0.443167  1
  H  H1153  1  0.643700  0.012600  0.762200  1
  H  H1154  1  0.643700  0.749600  0.987400  1
  H  H1155  1  0.643700  0.237800  0.250400  1
  H  H1156  1  0.310367  0.345933  0.428867  1
  H  H1157  1  0.310367  0.082933  0.654067  1
  H  H1158  1  0.310367  0.571133  0.917067  1
  H  H1159  1  0.977033  0.679267  0.095533  1
  H  H1160  1  0.977033  0.416267  0.320733  1
  H  H1161  1  0.977033  0.904467  0.583733  1
  H  H1162  1  0.356300  0.987400  0.237800  1
  H  H1163  1  0.356300  0.250400  0.012600  1
  H  H1164  1  0.356300  0.762200  0.749600  1
  H  H1165  1  0.689633  0.654067  0.571133  1
  H  H1166  1  0.689633  0.917067  0.345933  1
  H  H1167  1  0.689633  0.428867  0.082933  1
  H  H1168  1  0.022967  0.320733  0.904467  1
  H  H1169  1  0.022967  0.583733  0.679267  1
  H  H1170  1  0.022967  0.095533  0.416267  1
  H  H1171  1  0.690500  0.988600  0.738200  1
  H  H1172  1  0.690500  0.749600  0.011400  1
  H  H1173  1  0.690500  0.261800  0.250400  1
  H  H1174  1  0.357167  0.321933  0.404867  1
  H  H1175  1  0.357167  0.082933  0.678067  1
  H  H1176  1  0.357167  0.595133  0.917067  1
  H  H1177  1  0.023833  0.655267  0.071533  1
  H  H1178  1  0.023833  0.416267  0.344733  1
  H  H1179  1  0.023833  0.928467  0.583733  1
  H  H1180  1  0.309500  0.011400  0.261800  1
  H  H1181  1  0.309500  0.250400  0.988600  1
  H  H1182  1  0.309500  0.738200  0.749600  1
  H  H1183  1  0.642833  0.678067  0.595133  1
  H  H1184  1  0.642833  0.917067  0.321933  1
  H  H1185  1  0.642833  0.404867  0.082933  1
  H  H1186  1  0.976167  0.344733  0.928467  1
  H  H1187  1  0.976167  0.583733  0.655267  1
  H  H1188  1  0.976167  0.071533  0.416267  1
  H  H1189  1  0.592500  0.976300  0.798600  1
  H  H1190  1  0.592500  0.822300  0.023700  1
  H  H1191  1  0.592500  0.201400  0.177700  1
  H  H1192  1  0.259167  0.309633  0.465267  1
  H  H1193  1  0.259167  0.155633  0.690367  1
  H  H1194  1  0.259167  0.534733  0.844367  1
  H  H1195  1  0.925833  0.642967  0.131933  1
  H  H1196  1  0.925833  0.488967  0.357033  1
  H  H1197  1  0.925833  0.868067  0.511033  1
  H  H1198  1  0.407500  0.023700  0.201400  1
  H  H1199  1  0.407500  0.177700  0.976300  1
  H  H1200  1  0.407500  0.798600  0.822300  1
  H  H1201  1  0.740833  0.690367  0.534733  1
  H  H1202  1  0.740833  0.844367  0.309633  1
  H  H1203  1  0.740833  0.465267  0.155633  1
  H  H1204  1  0.074167  0.357033  0.868067  1
  H  H1205  1  0.074167  0.511033  0.642967  1
  H  H1206  1  0.074167  0.131933  0.488967  1
  H  H1207  1  0.544700  0.963200  0.811700  1
  H  H1208  1  0.544700  0.848500  0.036800  1
  H  H1209  1  0.544700  0.188300  0.151500  1
  H  H1210  1  0.211367  0.296533  0.478367  1
  H  H1211  1  0.211367  0.181833  0.703467  1
  H  H1212  1  0.211367  0.521633  0.818167  1
  H  H1213  1  0.878033  0.629867  0.145033  1
  H  H1214  1  0.878033  0.515167  0.370133  1
  H  H1215  1  0.878033  0.854967  0.484833  1
  H  H1216  1  0.455300  0.036800  0.188300  1
  H  H1217  1  0.455300  0.151500  0.963200  1
  H  H1218  1  0.455300  0.811700  0.848500  1
  H  H1219  1  0.788633  0.703467  0.521633  1
  H  H1220  1  0.788633  0.818167  0.296533  1
  H  H1221  1  0.788633  0.478367  0.181833  1
  H  H1222  1  0.121967  0.370133  0.854967  1
  H  H1223  1  0.121967  0.484833  0.629867  1
  H  H1224  1  0.121967  0.145033  0.515167  1
  H  H1225  1  0.492500  0.939000  0.805800  1
  H  H1226  1  0.492500  0.866800  0.061000  1
  H  H1227  1  0.492500  0.194200  0.133200  1
  H  H1228  1  0.159167  0.272333  0.472467  1
  H  H1229  1  0.159167  0.200133  0.727667  1
  H  H1230  1  0.159167  0.527533  0.799867  1
  H  H1231  1  0.825833  0.605667  0.139133  1
  H  H1232  1  0.825833  0.533467  0.394333  1
  H  H1233  1  0.825833  0.860867  0.466533  1
  H  H1234  1  0.507500  0.061000  0.194200  1
  H  H1235  1  0.507500  0.133200  0.939000  1
  H  H1236  1  0.507500  0.805800  0.866800  1
  H  H1237  1  0.840833  0.727667  0.527533  1
  H  H1238  1  0.840833  0.799867  0.272333  1
  H  H1239  1  0.840833  0.472467  0.200133  1
  H  H1240  1  0.174167  0.394333  0.860867  1
  H  H1241  1  0.174167  0.466533  0.605667  1
  H  H1242  1  0.174167  0.139133  0.533467  1
  H  H1243  1  0.450600  0.911400  0.780400  1
  H  H1244  1  0.450600  0.869000  0.088600  1
  H  H1245  1  0.450600  0.219600  0.131000  1
  H  H1246  1  0.117267  0.244733  0.447067  1
  H  H1247  1  0.117267  0.202333  0.755267  1
  H  H1248  1  0.117267  0.552933  0.797667  1
  H  H1249  1  0.783933  0.578067  0.113733  1
  H  H1250  1  0.783933  0.535667  0.421933  1
  H  H1251  1  0.783933  0.886267  0.464333  1
  H  H1252  1  0.549400  0.088600  0.219600  1
  H  H1253  1  0.549400  0.131000  0.911400  1
  H  H1254  1  0.549400  0.780400  0.869000  1
  H  H1255  1  0.882733  0.755267  0.552933  1
  H  H1256  1  0.882733  0.797667  0.244733  1
  H  H1257  1  0.882733  0.447067  0.202333  1
  H  H1258  1  0.216067  0.421933  0.886267  1
  H  H1259  1  0.216067  0.464333  0.578067  1
  H  H1260  1  0.216067  0.113733  0.535667  1
  H  H1261  1  0.579600  0.933900  0.719100  1
  H  H1262  1  0.579600  0.785200  0.066100  1
  H  H1263  1  0.579600  0.280900  0.214800  1
  H  H1264  1  0.246267  0.267233  0.385767  1
  H  H1265  1  0.246267  0.118533  0.732767  1
  H  H1266  1  0.246267  0.614233  0.881467  1
  H  H1267  1  0.912933  0.600567  0.052433  1
  H  H1268  1  0.912933  0.451867  0.399433  1
  H  H1269  1  0.912933  0.947567  0.548133  1
  H  H1270  1  0.420400  0.066100  0.280900  1
  H  H1271  1  0.420400  0.214800  0.933900  1
  H  H1272  1  0.420400  0.719100  0.785200  1
  H  H1273  1  0.753733  0.732767  0.614233  1
  H  H1274  1  0.753733  0.881467  0.267233  1
  H  H1275  1  0.753733  0.385767  0.118533  1
  H  H1276  1  0.087067  0.399433  0.947567  1
  H  H1277  1  0.087067  0.548133  0.600567  1
  H  H1278  1  0.087067  0.052433  0.451867  1
  H  H1279  1  0.537700  0.906400  0.693800  1
  H  H1280  1  0.537700  0.787400  0.093600  1
  H  H1281  1  0.537700  0.306200  0.212600  1
  H  H1282  1  0.204367  0.239733  0.360467  1
  H  H1283  1  0.204367  0.120733  0.760267  1
  H  H1284  1  0.204367  0.639533  0.879267  1
  H  H1285  1  0.871033  0.573067  0.027133  1
  H  H1286  1  0.871033  0.454067  0.426933  1
  H  H1287  1  0.871033  0.972867  0.545933  1
  H  H1288  1  0.462300  0.093600  0.306200  1
  H  H1289  1  0.462300  0.212600  0.906400  1
  H  H1290  1  0.462300  0.693800  0.787400  1
  H  H1291  1  0.795633  0.760267  0.639533  1
  H  H1292  1  0.795633  0.879267  0.239733  1
  H  H1293  1  0.795633  0.360467  0.120733  1
  H  H1294  1  0.128967  0.426933  0.972867  1
  H  H1295  1  0.128967  0.545933  0.573067  1
  H  H1296  1  0.128967  0.027133  0.454067  1
  H  H1297  1  0.484200  0.881300  0.686500  1
  H  H1298  1  0.484200  0.805200  0.118700  1
  H  H1299  1  0.484200  0.313500  0.194800  1
  H  H1300  1  0.150867  0.214633  0.353167  1
  H  H1301  1  0.150867  0.138533  0.785367  1
  H  H1302  1  0.150867  0.646833  0.861467  1
  H  H1303  1  0.817533  0.547967  0.019833  1
  H  H1304  1  0.817533  0.471867  0.452033  1
  H  H1305  1  0.817533  0.980167  0.528133  1
  H  H1306  1  0.515800  0.118700  0.313500  1
  H  H1307  1  0.515800  0.194800  0.881300  1
  H  H1308  1  0.515800  0.686500  0.805200  1
  H  H1309  1  0.849133  0.785367  0.646833  1
  H  H1310  1  0.849133  0.861467  0.214633  1
  H  H1311  1  0.849133  0.353167  0.138533  1
  H  H1312  1  0.182467  0.452033  0.980167  1
  H  H1313  1  0.182467  0.528133  0.547967  1
  H  H1314  1  0.182467  0.019833  0.471867  1
  H  H1315  1  0.436900  0.868200  0.701000  1
  H  H1316  1  0.436900  0.832800  0.131800  1
  H  H1317  1  0.436900  0.299000  0.167200  1
  H  H1318  1  0.103567  0.201533  0.367667  1
  H  H1319  1  0.103567  0.166133  0.798467  1
  H  H1320  1  0.103567  0.632333  0.833867  1
  H  H1321  1  0.770233  0.534867  0.034333  1
  H  H1322  1  0.770233  0.499467  0.465133  1
  H  H1323  1  0.770233  0.965667  0.500533  1
  H  H1324  1  0.563100  0.131800  0.299000  1
  H  H1325  1  0.563100  0.167200  0.868200  1
  H  H1326  1  0.563100  0.701000  0.832800  1
  H  H1327  1  0.896433  0.798467  0.632333  1
  H  H1328  1  0.896433  0.833867  0.201533  1
  H  H1329  1  0.896433  0.367667  0.166133  1
  H  H1330  1  0.229767  0.465133  0.965667  1
  H  H1331  1  0.229767  0.500533  0.534867  1
  H  H1332  1  0.229767  0.034333  0.499467  1
  H  H1333  1  0.383200  0.906000  0.752500  1
  H  H1334  1  0.383200  0.846500  0.094000  1
  H  H1335  1  0.383200  0.247500  0.153500  1
  H  H1336  1  0.049867  0.239333  0.419167  1
  H  H1337  1  0.049867  0.179833  0.760667  1
  H  H1338  1  0.049867  0.580833  0.820167  1
  H  H1339  1  0.716533  0.572667  0.085833  1
  H  H1340  1  0.716533  0.513167  0.427333  1
  H  H1341  1  0.716533  0.914167  0.486833  1
  H  H1342  1  0.616800  0.094000  0.247500  1
  H  H1343  1  0.616800  0.153500  0.906000  1
  H  H1344  1  0.616800  0.752500  0.846500  1
  H  H1345  1  0.950133  0.760667  0.580833  1
  H  H1346  1  0.950133  0.820167  0.239333  1
  H  H1347  1  0.950133  0.419167  0.179833  1
  H  H1348  1  0.283467  0.427333  0.914167  1
  H  H1349  1  0.283467  0.486833  0.572667  1
  H  H1350  1  0.283467  0.085833  0.513167  1
  H  H1351  1  0.343600  0.853600  0.760200  1
  H  H1352  1  0.343600  0.906600  0.146400  1
  H  H1353  1  0.343600  0.239800  0.093400  1
  H  H1354  1  0.010267  0.186933  0.426867  1
  H  H1355  1  0.010267  0.239933  0.813067  1
  H  H1356  1  0.010267  0.573133  0.760067  1
  H  H1357  1  0.676933  0.520267  0.093533  1
  H  H1358  1  0.676933  0.573267  0.479733  1
  H  H1359  1  0.676933  0.906467  0.426733  1
  H  H1360  1  0.656400  0.146400  0.239800  1
  H  H1361  1  0.656400  0.093400  0.853600  1
  H  H1362  1  0.656400  0.760200  0.906600  1
  H  H1363  1  0.989733  0.813067  0.573133  1
  H  H1364  1  0.989733  0.760067  0.186933  1
  H  H1365  1  0.989733  0.426867  0.239933  1
  H  H1366  1  0.323067  0.479733  0.906467  1
  H  H1367  1  0.323067  0.426733  0.520267  1
  H  H1368  1  0.323067  0.093533  0.573267  1
  H  H1369  1  0.398800  0.833400  0.745800  1
  H  H1370  1  0.398800  0.912400  0.166600  1
  H  H1371  1  0.398800  0.254200  0.087600  1
  H  H1372  1  0.065467  0.166733  0.412467  1
  H  H1373  1  0.065467  0.245733  0.833267  1
  H  H1374  1  0.065467  0.587533  0.754267  1
  H  H1375  1  0.732133  0.500067  0.079133  1
  H  H1376  1  0.732133  0.579067  0.499933  1
  H  H1377  1  0.732133  0.920867  0.420933  1
  H  H1378  1  0.601200  0.166600  0.254200  1
  H  H1379  1  0.601200  0.087600  0.833400  1
  H  H1380  1  0.601200  0.745800  0.912400  1
  H  H1381  1  0.934533  0.833267  0.587533  1
  H  H1382  1  0.934533  0.754267  0.166733  1
  H  H1383  1  0.934533  0.412467  0.245733  1
  H  H1384  1  0.267867  0.499933  0.920867  1
  H  H1385  1  0.267867  0.420933  0.500067  1
  H  H1386  1  0.267867  0.079133  0.579067  1
  H  H1387  1  0.446200  0.849600  0.734900  1
  H  H1388  1  0.446200  0.885300  0.150400  1
  H  H1389  1  0.446200  0.265100  0.114700  1
  H  H1390  1  0.112867  0.182933  0.401567  1
  H  H1391  1  0.112867  0.218633  0.817067  1
  H  H1392  1  0.112867  0.598433  0.781367  1
  H  H1393  1  0.779533  0.516267  0.068233  1
  H  H1394  1  0.779533  0.551967  0.483733  1
  H  H1395  1  0.779533  0.931767  0.448033  1
  H  H1396  1  0.553800  0.150400  0.265100  1
  H  H1397  1  0.553800  0.114700  0.849600  1
  H  H1398  1  0.553800  0.734900  0.885300  1
  H  H1399  1  0.887133  0.817067  0.598433  1
  H  H1400  1  0.887133  0.781367  0.182933  1
  H  H1401  1  0.887133  0.401567  0.218633  1
  H  H1402  1  0.220467  0.483733  0.931767  1
  H  H1403  1  0.220467  0.448033  0.516267  1
  H  H1404  1  0.220467  0.068233  0.551967  1
  H  H1405  1  0.346500  0.923800  0.782900  1
  H  H1406  1  0.346500  0.859100  0.076200  1
  H  H1407  1  0.346500  0.217100  0.140900  1
  H  H1408  1  0.013167  0.257133  0.449567  1
  H  H1409  1  0.013167  0.192433  0.742867  1
  H  H1410  1  0.013167  0.550433  0.807567  1
  H  H1411  1  0.679833  0.590467  0.116233  1
  H  H1412  1  0.679833  0.525767  0.409533  1
  H  H1413  1  0.679833  0.883767  0.474233  1
  H  H1414  1  0.653500  0.076200  0.217100  1
  H  H1415  1  0.653500  0.140900  0.923800  1
  H  H1416  1  0.653500  0.782900  0.859100  1
  H  H1417  1  0.986833  0.742867  0.550433  1
  H  H1418  1  0.986833  0.807567  0.257133  1
  H  H1419  1  0.986833  0.449567  0.192433  1
  H  H1420  1  0.320167  0.409533  0.883767  1
  H  H1421  1  0.320167  0.474233  0.590467  1
  H  H1422  1  0.320167  0.116233  0.525767  1
  H  H1423  1  0.204000  0.918100  0.768500  1
  H  H1424  1  0.204000  0.850400  0.081900  1
  H  H1425  1  0.204000  0.231500  0.149600  1
  H  H1426  1  0.870667  0.251433  0.435167  1
  H  H1427  1  0.870667  0.183733  0.748567  1
  H  H1428  1  0.870667  0.564833  0.816267  1
  H  H1429  1  0.537333  0.584767  0.101833  1
  H  H1430  1  0.537333  0.517067  0.415233  1
  H  H1431  1  0.537333  0.898167  0.482933  1
  H  H1432  1  0.796000  0.081900  0.231500  1
  H  H1433  1  0.796000  0.149600  0.918100  1
  H  H1434  1  0.796000  0.768500  0.850400  1
  H  H1435  1  0.129333  0.748567  0.564833  1
  H  H1436  1  0.129333  0.816267  0.251433  1
  H  H1437  1  0.129333  0.435167  0.183733  1
  H  H1438  1  0.462667  0.415233  0.898167  1
  H  H1439  1  0.462667  0.482933  0.584767  1
  H  H1440  1  0.462667  0.101833  0.517067  1
  H  H1441  1  0.200600  0.958200  0.790000  1
  H  H1442  1  0.200600  0.831800  0.041800  1
  H  H1443  1  0.200600  0.210000  0.168200  1
  H  H1444  1  0.867267  0.291533  0.456667  1
  H  H1445  1  0.867267  0.165133  0.708467  1
  H  H1446  1  0.867267  0.543333  0.834867  1
  H  H1447  1  0.533933  0.624867  0.123333  1
  H  H1448  1  0.533933  0.498467  0.375133  1
  H  H1449  1  0.533933  0.876667  0.501533  1
  H  H1450  1  0.799400  0.041800  0.210000  1
  H  H1451  1  0.799400  0.168200  0.958200  1
  H  H1452  1  0.799400  0.790000  0.831800  1
  H  H1453  1  0.132733  0.708467  0.543333  1
  H  H1454  1  0.132733  0.834867  0.291533  1
  H  H1455  1  0.132733  0.456667  0.165133  1
  H  H1456  1  0.466067  0.375133  0.876667  1
  H  H1457  1  0.466067  0.501533  0.624867  1
  H  H1458  1  0.466067  0.123333  0.498467  1
  H  H1459  1  0.253800  0.979900  0.807200  1
  H  H1460  1  0.253800  0.827300  0.020100  1
  H  H1461  1  0.253800  0.192800  0.172700  1
  H  H1462  1  0.920467  0.313233  0.473867  1
  H  H1463  1  0.920467  0.160633  0.686767  1
  H  H1464  1  0.920467  0.526133  0.839367  1
  H  H1465  1  0.587133  0.646567  0.140533  1
  H  H1466  1  0.587133  0.493967  0.353433  1
  H  H1467  1  0.587133  0.859467  0.506033  1
  H  H1468  1  0.746200  0.020100  0.192800  1
  H  H1469  1  0.746200  0.172700  0.979900  1
  H  H1470  1  0.746200  0.807200  0.827300  1
  H  H1471  1  0.079533  0.686767  0.526133  1
  H  H1472  1  0.079533  0.839367  0.313233  1
  H  H1473  1  0.079533  0.473867  0.160633  1
  H  H1474  1  0.412867  0.353433  0.859467  1
  H  H1475  1  0.412867  0.506033  0.646567  1
  H  H1476  1  0.412867  0.140533  0.493967  1
  H  H1477  1  0.310000  0.960500  0.801900  1
  H  H1478  1  0.310000  0.841400  0.039500  1
  H  H1479  1  0.310000  0.198100  0.158600  1
  H  H1480  1  0.976667  0.293833  0.468567  1
  H  H1481  1  0.976667  0.174733  0.706167  1
  H  H1482  1  0.976667  0.531433  0.825267  1
  H  H1483  1  0.643333  0.627167  0.135233  1
  H  H1484  1  0.643333  0.508067  0.372833  1
  H  H1485  1  0.643333  0.864767  0.491933  1
  H  H1486  1  0.690000  0.039500  0.198100  1
  H  H1487  1  0.690000  0.158600  0.960500  1
  H  H1488  1  0.690000  0.801900  0.841400  1
  H  H1489  1  0.023333  0.706167  0.531433  1
  H  H1490  1  0.023333  0.825267  0.293833  1
  H  H1491  1  0.023333  0.468567  0.174733  1
  H  H1492  1  0.356667  0.372833  0.864767  1
  H  H1493  1  0.356667  0.491933  0.627167  1
  H  H1494  1  0.356667  0.135233  0.508067  1
  H  H1495  1  0.793400  0.953200  0.705600  1
  H  H1496  1  0.793400  0.752400  0.046800  1
  H  H1497  1  0.793400  0.294400  0.247600  1
  H  H1498  1  0.460067  0.286533  0.372267  1
  H  H1499  1  0.460067  0.085733  0.713467  1
  H  H1500  1  0.460067  0.627733  0.914267  1
  H  H1501  1  0.126733  0.619867  0.038933  1
  H  H1502  1  0.126733  0.419067  0.380133  1
  H  H1503  1  0.126733  0.961067  0.580933  1
  H  H1504  1  0.206600  0.046800  0.294400  1
  H  H1505  1  0.206600  0.247600  0.953200  1
  H  H1506  1  0.206600  0.705600  0.752400  1
  H  H1507  1  0.539933  0.713467  0.627733  1
  H  H1508  1  0.539933  0.914267  0.286533  1
  H  H1509  1  0.539933  0.372267  0.085733  1
  H  H1510  1  0.873267  0.380133  0.961067  1
  H  H1511  1  0.873267  0.580933  0.619867  1
  H  H1512  1  0.873267  0.038933  0.419067  1
  H  H1513  1  0.830600  0.985800  0.722000  1
  H  H1514  1  0.830600  0.736200  0.014200  1
  H  H1515  1  0.830600  0.278000  0.263800  1
  H  H1516  1  0.497267  0.319133  0.388667  1
  H  H1517  1  0.497267  0.069533  0.680867  1
  H  H1518  1  0.497267  0.611333  0.930467  1
  H  H1519  1  0.163933  0.652467  0.055333  1
  H  H1520  1  0.163933  0.402867  0.347533  1
  H  H1521  1  0.163933  0.944667  0.597133  1
  H  H1522  1  0.169400  0.014200  0.278000  1
  H  H1523  1  0.169400  0.263800  0.985800  1
  H  H1524  1  0.169400  0.722000  0.736200  1
  H  H1525  1  0.502733  0.680867  0.611333  1
  H  H1526  1  0.502733  0.930467  0.319133  1
  H  H1527  1  0.502733  0.388667  0.069533  1
  H  H1528  1  0.836067  0.347533  0.944667  1
  H  H1529  1  0.836067  0.597133  0.652467  1
  H  H1530  1  0.836067  0.055333  0.402867  1
  H  H1531  1  0.809400  0.020200  0.724800  1
  H  H1532  1  0.809400  0.704600  0.979800  1
  H  H1533  1  0.809400  0.275200  0.295400  1
  H  H1534  1  0.476067  0.353533  0.391467  1
  H  H1535  1  0.476067  0.037933  0.646467  1
  H  H1536  1  0.476067  0.608533  0.962067  1
  H  H1537  1  0.142733  0.686867  0.058133  1
  H  H1538  1  0.142733  0.371267  0.313133  1
  H  H1539  1  0.142733  0.941867  0.628733  1
  H  H1540  1  0.190600  0.979800  0.275200  1
  H  H1541  1  0.190600  0.295400  0.020200  1
  H  H1542  1  0.190600  0.724800  0.704600  1
  H  H1543  1  0.523933  0.646467  0.608533  1
  H  H1544  1  0.523933  0.962067  0.353533  1
  H  H1545  1  0.523933  0.391467  0.037933  1
  H  H1546  1  0.857267  0.313133  0.941867  1
  H  H1547  1  0.857267  0.628733  0.686867  1
  H  H1548  1  0.857267  0.058133  0.371267  1
  H  H1549  1  0.750400  0.021100  0.711100  1
  H  H1550  1  0.750400  0.690000  0.978900  1
  H  H1551  1  0.750400  0.288900  0.310000  1
  H  H1552  1  0.417067  0.354433  0.377767  1
  H  H1553  1  0.417067  0.023333  0.645567  1
  H  H1554  1  0.417067  0.622233  0.976667  1
  H  H1555  1  0.083733  0.687767  0.044433  1
  H  H1556  1  0.083733  0.356667  0.312233  1
  H  H1557  1  0.083733  0.955567  0.643333  1
  H  H1558  1  0.249600  0.978900  0.288900  1
  H  H1559  1  0.249600  0.310000  0.021100  1
  H  H1560  1  0.249600  0.711100  0.690000  1
  H  H1561  1  0.582933  0.645567  0.622233  1
  H  H1562  1  0.582933  0.976667  0.354433  1
  H  H1563  1  0.582933  0.377767  0.023333  1
  H  H1564  1  0.916267  0.312233  0.955567  1
  H  H1565  1  0.916267  0.643333  0.687767  1
  H  H1566  1  0.916267  0.044433  0.356667  1
  H  H1567  1  0.691100  0.998900  0.692000  1
  H  H1568  1  0.691100  0.693100  0.001100  1
  H  H1569  1  0.691100  0.308000  0.306900  1
  H  H1570  1  0.357767  0.332233  0.358667  1
  H  H1571  1  0.357767  0.026433  0.667767  1
  H  H1572  1  0.357767  0.641333  0.973567  1
  H  H1573  1  0.024433  0.665567  0.025333  1
  H  H1574  1  0.024433  0.359767  0.334433  1
  H  H1575  1  0.024433  0.974667  0.640233  1
  H  H1576  1  0.308900  0.001100  0.308000  1
  H  H1577  1  0.308900  0.306900  0.998900  1
  H  H1578  1  0.308900  0.692000  0.693100  1
  H  H1579  1  0.642233  0.667767  0.641333  1
  H  H1580  1  0.642233  0.973567  0.332233  1
  H  H1581  1  0.642233  0.358667  0.026433  1
  H  H1582  1  0.975567  0.334433  0.974667  1
  H  H1583  1  0.975567  0.640233  0.665567  1
  H  H1584  1  0.975567  0.025333  0.359767  1
  H  H1585  1  0.616300  0.964200  0.704300  1
  H  H1586  1  0.616300  0.740100  0.035800  1
  H  H1587  1  0.616300  0.295700  0.259900  1
  H  H1588  1  0.282967  0.297533  0.370967  1
  H  H1589  1  0.282967  0.073433  0.702467  1
  H  H1590  1  0.282967  0.629033  0.926567  1
  H  H1591  1  0.949633  0.630867  0.037633  1
  H  H1592  1  0.949633  0.406767  0.369133  1
  H  H1593  1  0.949633  0.962367  0.593233  1
  H  H1594  1  0.383700  0.035800  0.295700  1
  H  H1595  1  0.383700  0.259900  0.964200  1
  H  H1596  1  0.383700  0.704300  0.740100  1
  H  H1597  1  0.717033  0.702467  0.629033  1
  H  H1598  1  0.717033  0.926567  0.297533  1
  H  H1599  1  0.717033  0.370967  0.073433  1
  H  H1600  1  0.050367  0.369133  0.962367  1
  H  H1601  1  0.050367  0.593233  0.630867  1
  H  H1602  1  0.050367  0.037633  0.406767  1
  H  H1603  1  0.547600  0.962700  0.655900  1
  H  H1604  1  0.547600  0.693200  0.037300  1
  H  H1605  1  0.547600  0.344100  0.306800  1
  H  H1606  1  0.214267  0.296033  0.322567  1
  H  H1607  1  0.214267  0.026533  0.703967  1
  H  H1608  1  0.214267  0.677433  0.973467  1
  H  H1609  1  0.880933  0.629367  0.989233  1
  H  H1610  1  0.880933  0.359867  0.370633  1
  H  H1611  1  0.880933  0.010767  0.640133  1
  H  H1612  1  0.452400  0.037300  0.344100  1
  H  H1613  1  0.452400  0.306800  0.962700  1
  H  H1614  1  0.452400  0.655900  0.693200  1
  H  H1615  1  0.785733  0.703967  0.677433  1
  H  H1616  1  0.785733  0.973467  0.296033  1
  H  H1617  1  0.785733  0.322567  0.026533  1
  H  H1618  1  0.119067  0.370633  0.010767  1
  H  H1619  1  0.119067  0.640133  0.629367  1
  H  H1620  1  0.119067  0.989233  0.359867  1
  H  H1621  1  0.597500  0.969300  0.637800  1
  H  H1622  1  0.597500  0.668500  0.030700  1
  H  H1623  1  0.597500  0.362200  0.331500  1
  H  H1624  1  0.264167  0.302633  0.304467  1
  H  H1625  1  0.264167  0.001833  0.697367  1
  H  H1626  1  0.264167  0.695533  0.998167  1
  H  H1627  1  0.930833  0.635967  0.971133  1
  H  H1628  1  0.930833  0.335167  0.364033  1
  H  H1629  1  0.930833  0.028867  0.664833  1
  H  H1630  1  0.402500  0.030700  0.362200  1
  H  H1631  1  0.402500  0.331500  0.969300  1
  H  H1632  1  0.402500  0.637800  0.668500  1
  H  H1633  1  0.735833  0.697367  0.695533  1
  H  H1634  1  0.735833  0.998167  0.302633  1
  H  H1635  1  0.735833  0.304467  0.001833  1
  H  H1636  1  0.069167  0.364033  0.028867  1
  H  H1637  1  0.069167  0.664833  0.635967  1
  H  H1638  1  0.069167  0.971133  0.335167  1
  H  H1639  1  0.656700  0.973400  0.653000  1
  H  H1640  1  0.656700  0.679600  0.026600  1
  H  H1641  1  0.656700  0.347000  0.320400  1
  H  H1642  1  0.323367  0.306733  0.319667  1
  H  H1643  1  0.323367  0.012933  0.693267  1
  H  H1644  1  0.323367  0.680333  0.987067  1
  H  H1645  1  0.990033  0.640067  0.986333  1
  H  H1646  1  0.990033  0.346267  0.359933  1
  H  H1647  1  0.990033  0.013667  0.653733  1
  H  H1648  1  0.343300  0.026600  0.347000  1
  H  H1649  1  0.343300  0.320400  0.973400  1
  H  H1650  1  0.343300  0.653000  0.679600  1
  H  H1651  1  0.676633  0.693267  0.680333  1
  H  H1652  1  0.676633  0.987067  0.306733  1
  H  H1653  1  0.676633  0.319667  0.012933  1
  H  H1654  1  0.009967  0.359933  0.013667  1
  H  H1655  1  0.009967  0.653733  0.640067  1
  H  H1656  1  0.009967  0.986333  0.346267  1
  H  H1657  1  0.561700  0.988400  0.725200  1
  H  H1658  1  0.561700  0.736800  0.011600  1
  H  H1659  1  0.561700  0.274800  0.263200  1
  H  H1660  1  0.228367  0.321733  0.391867  1
  H  H1661  1  0.228367  0.070133  0.678267  1
  H  H1662  1  0.228367  0.608133  0.929867  1
  H  H1663  1  0.895033  0.655067  0.058533  1
  H  H1664  1  0.895033  0.403467  0.344933  1
  H  H1665  1  0.895033  0.941467  0.596533  1
  H  H1666  1  0.438300  0.011600  0.274800  1
  H  H1667  1  0.438300  0.263200  0.988400  1
  H  H1668  1  0.438300  0.725200  0.736800  1
  H  H1669  1  0.771633  0.678267  0.608133  1
  H  H1670  1  0.771633  0.929867  0.321733  1
  H  H1671  1  0.771633  0.391867  0.070133  1
  H  H1672  1  0.104967  0.344933  0.941467  1
  H  H1673  1  0.104967  0.596533  0.655067  1
  H  H1674  1  0.104967  0.058533  0.403467  1
  H  H1675  1  0.511300  0.987600  0.746700  1
  H  H1676  1  0.511300  0.759100  0.012400  1
  H  H1677  1  0.511300  0.253300  0.240900  1
  H  H1678  1  0.177967  0.320933  0.413367  1
  H  H1679  1  0.177967  0.092433  0.679067  1
  H  H1680  1  0.177967  0.586633  0.907567  1
  H  H1681  1  0.844633  0.654267  0.080033  1
  H  H1682  1  0.844633  0.425767  0.345733  1
  H  H1683  1  0.844633  0.919967  0.574233  1
  H  H1684  1  0.488700  0.012400  0.253300  1
  H  H1685  1  0.488700  0.240900  0.987600  1
  H  H1686  1  0.488700  0.746700  0.759100  1
  H  H1687  1  0.822033  0.679067  0.586633  1
  H  H1688  1  0.822033  0.907567  0.320933  1
  H  H1689  1  0.822033  0.413367  0.092433  1
  H  H1690  1  0.155367  0.345733  0.919967  1
  H  H1691  1  0.155367  0.574233  0.654267  1
  H  H1692  1  0.155367  0.080033  0.425767  1
  H  H1693  1  0.450000  0.972800  0.748200  1
  H  H1694  1  0.450000  0.775400  0.027200  1
  H  H1695  1  0.450000  0.251800  0.224600  1
  H  H1696  1  0.116667  0.306133  0.414867  1
  H  H1697  1  0.116667  0.108733  0.693867  1
  H  H1698  1  0.116667  0.585133  0.891267  1
  H  H1699  1  0.783333  0.639467  0.081533  1
  H  H1700  1  0.783333  0.442067  0.360533  1
  H  H1701  1  0.783333  0.918467  0.557933  1
  H  H1702  1  0.550000  0.027200  0.251800  1
  H  H1703  1  0.550000  0.224600  0.972800  1
  H  H1704  1  0.550000  0.748200  0.775400  1
  H  H1705  1  0.883333  0.693867  0.585133  1
  H  H1706  1  0.883333  0.891267  0.306133  1
  H  H1707  1  0.883333  0.414867  0.108733  1
  H  H1708  1  0.216667  0.360533  0.918467  1
  H  H1709  1  0.216667  0.557933  0.639467  1
  H  H1710  1  0.216667  0.081533  0.442067  1
  H  H1711  1  0.405100  0.944000  0.730900  1
  H  H1712  1  0.405100  0.786900  0.056000  1
  H  H1713  1  0.405100  0.269100  0.213100  1
  H  H1714  1  0.071767  0.277333  0.397567  1
  H  H1715  1  0.071767  0.120233  0.722667  1
  H  H1716  1  0.071767  0.602433  0.879767  1
  H  H1717  1  0.738433  0.610667  0.064233  1
  H  H1718  1  0.738433  0.453567  0.389333  1
  H  H1719  1  0.738433  0.935767  0.546433  1
  H  H1720  1  0.594900  0.056000  0.269100  1
  H  H1721  1  0.594900  0.213100  0.944000  1
  H  H1722  1  0.594900  0.730900  0.786900  1
  H  H1723  1  0.928233  0.722667  0.602433  1
  H  H1724  1  0.928233  0.879767  0.277333  1
  H  H1725  1  0.928233  0.397567  0.120233  1
  H  H1726  1  0.261567  0.389333  0.935767  1
  H  H1727  1  0.261567  0.546433  0.610667  1
  H  H1728  1  0.261567  0.064233  0.453567  1
  H  H1729  1  0.542500  0.925400  0.652900  1
  H  H1730  1  0.542500  0.727500  0.074600  1
  H  H1731  1  0.542500  0.347100  0.272500  1
  H  H1732  1  0.209167  0.258733  0.319567  1
  H  H1733  1  0.209167  0.060833  0.741267  1
  H  H1734  1  0.209167  0.680433  0.939167  1
  H  H1735  1  0.875833  0.592067  0.986233  1
  H  H1736  1  0.875833  0.394167  0.407933  1
  H  H1737  1  0.875833  0.013767  0.605833  1
  H  H1738  1  0.457500  0.074600  0.347100  1
  H  H1739  1  0.457500  0.272500  0.925400  1
  H  H1740  1  0.457500  0.652900  0.727500  1
  H  H1741  1  0.790833  0.741267  0.680433  1
  H  H1742  1  0.790833  0.939167  0.258733  1
  H  H1743  1  0.790833  0.319567  0.060833  1
  H  H1744  1  0.124167  0.407933  0.013767  1
  H  H1745  1  0.124167  0.605833  0.592067  1
  H  H1746  1  0.124167  0.986233  0.394167  1
  H  H1747  1  0.497600  0.896700  0.635700  1
  H  H1748  1  0.497600  0.739000  0.103300  1
  H  H1749  1  0.497600  0.364300  0.261000  1
  H  H1750  1  0.164267  0.230033  0.302367  1
  H  H1751  1  0.164267  0.072333  0.769967  1
  H  H1752  1  0.164267  0.697633  0.927667  1
  H  H1753  1  0.830933  0.563367  0.969033  1
  H  H1754  1  0.830933  0.405667  0.436633  1
  H  H1755  1  0.830933  0.030967  0.594333  1
  H  H1756  1  0.502400  0.103300  0.364300  1
  H  H1757  1  0.502400  0.261000  0.896700  1
  H  H1758  1  0.502400  0.635700  0.739000  1
  H  H1759  1  0.835733  0.769967  0.697633  1
  H  H1760  1  0.835733  0.927667  0.230033  1
  H  H1761  1  0.835733  0.302367  0.072333  1
  H  H1762  1  0.169067  0.436633  0.030967  1
  H  H1763  1  0.169067  0.594333  0.563367  1
  H  H1764  1  0.169067  0.969033  0.405667  1
  H  H1765  1  0.442300  0.877900  0.638700  1
  H  H1766  1  0.442300  0.760800  0.122100  1
  H  H1767  1  0.442300  0.361300  0.239200  1
  H  H1768  1  0.108967  0.211233  0.305367  1
  H  H1769  1  0.108967  0.094133  0.788767  1
  H  H1770  1  0.108967  0.694633  0.905867  1
  H  H1771  1  0.775633  0.544567  0.972033  1
  H  H1772  1  0.775633  0.427467  0.455433  1
  H  H1773  1  0.775633  0.027967  0.572533  1
  H  H1774  1  0.557700  0.122100  0.361300  1
  H  H1775  1  0.557700  0.239200  0.877900  1
  H  H1776  1  0.557700  0.638700  0.760800  1
  H  H1777  1  0.891033  0.788767  0.694633  1
  H  H1778  1  0.891033  0.905867  0.211233  1
  H  H1779  1  0.891033  0.305367  0.094133  1
  H  H1780  1  0.224367  0.455433  0.027967  1
  H  H1781  1  0.224367  0.572533  0.544567  1
  H  H1782  1  0.224367  0.972033  0.427467  1
  H  H1783  1  0.391900  0.879200  0.661000  1
  H  H1784  1  0.391900  0.781800  0.120800  1
  H  H1785  1  0.391900  0.339000  0.218200  1
  H  H1786  1  0.058567  0.212533  0.327667  1
  H  H1787  1  0.058567  0.115133  0.787467  1
  H  H1788  1  0.058567  0.672333  0.884867  1
  H  H1789  1  0.725233  0.545867  0.994333  1
  H  H1790  1  0.725233  0.448467  0.454133  1
  H  H1791  1  0.725233  0.005667  0.551533  1
  H  H1792  1  0.608100  0.120800  0.339000  1
  H  H1793  1  0.608100  0.218200  0.879200  1
  H  H1794  1  0.608100  0.661000  0.781800  1
  H  H1795  1  0.941433  0.787467  0.672333  1
  H  H1796  1  0.941433  0.884867  0.212533  1
  H  H1797  1  0.941433  0.327667  0.115133  1
  H  H1798  1  0.274767  0.454133  0.005667  1
  H  H1799  1  0.274767  0.551533  0.545867  1
  H  H1800  1  0.274767  0.994333  0.448467  1
  H  H1801  1  0.368500  0.879600  0.697500  1
  H  H1802  1  0.368500  0.817900  0.120400  1
  H  H1803  1  0.368500  0.302500  0.182100  1
  H  H1804  1  0.035167  0.212933  0.364167  1
  H  H1805  1  0.035167  0.151233  0.787067  1
  H  H1806  1  0.035167  0.635833  0.848767  1
  H  H1807  1  0.701833  0.546267  0.030833  1
  H  H1808  1  0.701833  0.484567  0.453733  1
  H  H1809  1  0.701833  0.969167  0.515433  1
  H  H1810  1  0.631500  0.120400  0.302500  1
  H  H1811  1  0.631500  0.182100  0.879600  1
  H  H1812  1  0.631500  0.697500  0.817900  1
  H  H1813  1  0.964833  0.787067  0.635833  1
  H  H1814  1  0.964833  0.848767  0.212933  1
  H  H1815  1  0.964833  0.364167  0.151233  1
  H  H1816  1  0.298167  0.453733  0.969167  1
  H  H1817  1  0.298167  0.515433  0.546267  1
  H  H1818  1  0.298167  0.030833  0.484567  1
  H  H1819  1  0.271500  0.912300  0.723100  1
  H  H1820  1  0.271500  0.810800  0.087700  1
  H  H1821  1  0.271500  0.276900  0.189200  1
  H  H1822  1  0.938167  0.245633  0.389767  1
  H  H1823  1  0.938167  0.144133  0.754367  1
  H  H1824  1  0.938167  0.610233  0.855867  1
  H  H1825  1  0.604833  0.578967  0.056433  1
  H  H1826  1  0.604833  0.477467  0.421033  1
  H  H1827  1  0.604833  0.943567  0.522533  1
  H  H1828  1  0.728500  0.087700  0.276900  1
  H  H1829  1  0.728500  0.189200  0.912300  1
  H  H1830  1  0.728500  0.723100  0.810800  1
  H  H1831  1  0.061833  0.754367  0.610233  1
  H  H1832  1  0.061833  0.855867  0.245633  1
  H  H1833  1  0.061833  0.389767  0.144133  1
  H  H1834  1  0.395167  0.421033  0.943567  1
  H  H1835  1  0.395167  0.522533  0.578967  1
  H  H1836  1  0.395167  0.056433  0.477467  1
  H  H1837  1  0.291500  0.943200  0.718800  1
  H  H1838  1  0.291500  0.775600  0.056800  1
  H  H1839  1  0.291500  0.281200  0.224400  1
  H  H1840  1  0.958167  0.276533  0.385467  1
  H  H1841  1  0.958167  0.108933  0.723467  1
  H  H1842  1  0.958167  0.614533  0.891067  1
  H  H1843  1  0.624833  0.609867  0.052133  1
  H  H1844  1  0.624833  0.442267  0.390133  1
  H  H1845  1  0.624833  0.947867  0.557733  1
  H  H1846  1  0.708500  0.056800  0.281200  1
  H  H1847  1  0.708500  0.224400  0.943200  1
  H  H1848  1  0.708500  0.718800  0.775600  1
  H  H1849  1  0.041833  0.723467  0.614533  1
  H  H1850  1  0.041833  0.891067  0.276533  1
  H  H1851  1  0.041833  0.385467  0.108933  1
  H  H1852  1  0.375167  0.390133  0.947867  1
  H  H1853  1  0.375167  0.557733  0.609867  1
  H  H1854  1  0.375167  0.052133  0.442267  1
  H  H1855  1  0.350100  0.942300  0.703900  1
  H  H1856  1  0.350100  0.761600  0.057700  1
  H  H1857  1  0.350100  0.296100  0.238400  1
  H  H1858  1  0.016767  0.275633  0.370567  1
  H  H1859  1  0.016767  0.094933  0.724367  1
  H  H1860  1  0.016767  0.629433  0.905067  1
  H  H1861  1  0.683433  0.608967  0.037233  1
  H  H1862  1  0.683433  0.428267  0.391033  1
  H  H1863  1  0.683433  0.962767  0.571733  1
  H  H1864  1  0.649900  0.057700  0.296100  1
  H  H1865  1  0.649900  0.238400  0.942300  1
  H  H1866  1  0.649900  0.703900  0.761600  1
  H  H1867  1  0.983233  0.724367  0.629433  1
  H  H1868  1  0.983233  0.905067  0.275633  1
  H  H1869  1  0.983233  0.370567  0.094933  1
  H  H1870  1  0.316567  0.391033  0.962767  1
  H  H1871  1  0.316567  0.571733  0.608967  1
  H  H1872  1  0.316567  0.037233  0.428267  1
  H  H1873  1  0.331900  0.853000  0.690600  1
  H  H1874  1  0.331900  0.837600  0.147000  1
  H  H1875  1  0.331900  0.309400  0.162400  1
  H  H1876  1  0.998567  0.186333  0.357267  1
  H  H1877  1  0.998567  0.170933  0.813667  1
  H  H1878  1  0.998567  0.642733  0.829067  1
  H  H1879  1  0.665233  0.519667  0.023933  1
  H  H1880  1  0.665233  0.504267  0.480333  1
  H  H1881  1  0.665233  0.976067  0.495733  1
  H  H1882  1  0.668100  0.147000  0.309400  1
  H  H1883  1  0.668100  0.162400  0.853000  1
  H  H1884  1  0.668100  0.690600  0.837600  1
  H  H1885  1  0.001433  0.813667  0.642733  1
  H  H1886  1  0.001433  0.829067  0.186333  1
  H  H1887  1  0.001433  0.357267  0.170933  1
  H  H1888  1  0.334767  0.480333  0.976067  1
  H  H1889  1  0.334767  0.495733  0.519667  1
  H  H1890  1  0.334767  0.023933  0.504267  1
  H  H1891  1  0.333333  0.811400  0.680300  1
  H  H1892  1  0.333333  0.868900  0.188600  1
  H  H1893  1  0.333333  0.319700  0.131100  1
  H  H1894  1  0.000000  0.144733  0.346967  1
  H  H1895  1  0.000000  0.202233  0.855267  1
  H  H1896  1  0.000000  0.653033  0.797767  1
  H  H1897  1  0.666667  0.478067  0.013633  1
  H  H1898  1  0.666667  0.535567  0.521933  1
  H  H1899  1  0.666667  0.986367  0.464433  1
  H  H1900  1  0.666667  0.188600  0.319700  1
  H  H1901  1  0.666667  0.131100  0.811400  1
  H  H1902  1  0.666667  0.680300  0.868900  1
  H  H1903  1  1.000000  0.855267  0.653033  1
  H  H1904  1  0.000000  0.797767  0.144733  1
  H  H1905  1  0.000000  0.346967  0.202233  1
  H  H1906  1  0.333333  0.521933  0.986367  1
  H  H1907  1  0.333333  0.464433  0.478067  1
  H  H1908  1  0.333333  0.013633  0.535567  1
  H  H1909  1  0.318800  0.782700  0.689500  1
  H  H1910  1  0.318800  0.906800  0.217300  1
  H  H1911  1  0.318800  0.310500  0.093200  1
  H  H1912  1  0.985467  0.116033  0.356167  1
  H  H1913  1  0.985467  0.240133  0.883967  1
  H  H1914  1  0.985467  0.643833  0.759867  1
  H  H1915  1  0.652133  0.449367  0.022833  1
  H  H1916  1  0.652133  0.573467  0.550633  1
  H  H1917  1  0.652133  0.977167  0.426533  1
  H  H1918  1  0.681200  0.217300  0.310500  1
  H  H1919  1  0.681200  0.093200  0.782700  1
  H  H1920  1  0.681200  0.689500  0.906800  1
  H  H1921  1  0.014533  0.883967  0.643833  1
  H  H1922  1  0.014533  0.759867  0.116033  1
  H  H1923  1  0.014533  0.356167  0.240133  1
  H  H1924  1  0.347867  0.550633  0.977167  1
  H  H1925  1  0.347867  0.426533  0.449367  1
  H  H1926  1  0.347867  0.022833  0.573467  1
  H  H1927  1  0.281900  0.792400  0.721900  1
  H  H1928  1  0.281900  0.929500  0.207600  1
  H  H1929  1  0.281900  0.278100  0.070500  1
  H  H1930  1  0.948567  0.125733  0.388567  1
  H  H1931  1  0.948567  0.262833  0.874267  1
  H  H1932  1  0.948567  0.611433  0.737167  1
  H  H1933  1  0.615233  0.459067  0.055233  1
  H  H1934  1  0.615233  0.596167  0.540933  1
  H  H1935  1  0.615233  0.944767  0.403833  1
  H  H1936  1  0.718100  0.207600  0.278100  1
  H  H1937  1  0.718100  0.070500  0.792400  1
  H  H1938  1  0.718100  0.721900  0.929500  1
  H  H1939  1  0.051433  0.874267  0.611433  1
  H  H1940  1  0.051433  0.737167  0.125733  1
  H  H1941  1  0.051433  0.388567  0.262833  1
  H  H1942  1  0.384767  0.540933  0.944767  1
  H  H1943  1  0.384767  0.403833  0.459067  1
  H  H1944  1  0.384767  0.055233  0.596167  1
  H  H1945  1  0.260100  0.829900  0.744100  1
  H  H1946  1  0.260100  0.914200  0.170100  1
  H  H1947  1  0.260100  0.255900  0.085800  1
  H  H1948  1  0.926767  0.163233  0.410767  1
  H  H1949  1  0.926767  0.247533  0.836767  1
  H  H1950  1  0.926767  0.589233  0.752467  1
  H  H1951  1  0.593433  0.496567  0.077433  1
  H  H1952  1  0.593433  0.580867  0.503433  1
  H  H1953  1  0.593433  0.922567  0.419133  1
  H  H1954  1  0.739900  0.170100  0.255900  1
  H  H1955  1  0.739900  0.085800  0.829900  1
  H  H1956  1  0.739900  0.744100  0.914200  1
  H  H1957  1  0.073233  0.836767  0.589233  1
  H  H1958  1  0.073233  0.752467  0.163233  1
  H  H1959  1  0.073233  0.410767  0.247533  1
  H  H1960  1  0.406567  0.503433  0.922567  1
  H  H1961  1  0.406567  0.419133  0.496567  1
  H  H1962  1  0.406567  0.077433  0.580867  1
  H  H1963  1  0.642700  0.913800  0.694600  1
  H  H1964  1  0.642700  0.780800  0.086200  1
  H  H1965  1  0.642700  0.305400  0.219200  1
  H  H1966  1  0.309367  0.247133  0.361267  1
  H  H1967  1  0.309367  0.114133  0.752867  1
  H  H1968  1  0.309367  0.638733  0.885867  1
  H  H1969  1  0.976033  0.580467  0.027933  1
  H  H1970  1  0.976033  0.447467  0.419533  1
  H  H1971  1  0.976033  0.972067  0.552533  1
  H  H1972  1  0.357300  0.086200  0.305400  1
  H  H1973  1  0.357300  0.219200  0.913800  1
  H  H1974  1  0.357300  0.694600  0.780800  1
  H  H1975  1  0.690633  0.752867  0.638733  1
  H  H1976  1  0.690633  0.885867  0.247133  1
  H  H1977  1  0.690633  0.361267  0.114133  1
  H  H1978  1  0.023967  0.419533  0.972067  1
  H  H1979  1  0.023967  0.552533  0.580467  1
  H  H1980  1  0.023967  0.027933  0.447467  1
  H  H1981  1  0.596900  0.887500  0.672900  1
  H  H1982  1  0.596900  0.785400  0.112500  1
  H  H1983  1  0.596900  0.327100  0.214600  1
  H  H1984  1  0.263567  0.220833  0.339567  1
  H  H1985  1  0.263567  0.118733  0.779167  1
  H  H1986  1  0.263567  0.660433  0.881267  1
  H  H1987  1  0.930233  0.554167  0.006233  1
  H  H1988  1  0.930233  0.452067  0.445833  1
  H  H1989  1  0.930233  0.993767  0.547933  1
  H  H1990  1  0.403100  0.112500  0.327100  1
  H  H1991  1  0.403100  0.214600  0.887500  1
  H  H1992  1  0.403100  0.672900  0.785400  1
  H  H1993  1  0.736433  0.779167  0.660433  1
  H  H1994  1  0.736433  0.881267  0.220833  1
  H  H1995  1  0.736433  0.339567  0.118733  1
  H  H1996  1  0.069767  0.445833  0.993767  1
  H  H1997  1  0.069767  0.547933  0.554167  1
  H  H1998  1  0.069767  0.006233  0.452067  1
  H  H1999  1  0.590100  0.875900  0.633800  1
  H  H2000  1  0.590100  0.757900  0.124100  1
  H  H2001  1  0.590100  0.366200  0.242100  1
  H  H2002  1  0.256767  0.209233  0.300467  1
  H  H2003  1  0.256767  0.091233  0.790767  1
  H  H2004  1  0.256767  0.699533  0.908767  1
  H  H2005  1  0.923433  0.542567  0.967133  1
  H  H2006  1  0.923433  0.424567  0.457433  1
  H  H2007  1  0.923433  0.032867  0.575433  1
  H  H2008  1  0.409900  0.124100  0.366200  1
  H  H2009  1  0.409900  0.242100  0.875900  1
  H  H2010  1  0.409900  0.633800  0.757900  1
  H  H2011  1  0.743233  0.790767  0.699533  1
  H  H2012  1  0.743233  0.908767  0.209233  1
  H  H2013  1  0.743233  0.300467  0.091233  1
  H  H2014  1  0.076567  0.457433  0.032867  1
  H  H2015  1  0.076567  0.575433  0.542567  1
  H  H2016  1  0.076567  0.967133  0.424567  1
  H  H2017  1  0.630300  0.890900  0.617000  1
  H  H2018  1  0.630300  0.726100  0.109100  1
  H  H2019  1  0.630300  0.383000  0.273900  1
  H  H2020  1  0.296967  0.224233  0.283667  1
  H  H2021  1  0.296967  0.059433  0.775767  1
  H  H2022  1  0.296967  0.716333  0.940567  1
  H  H2023  1  0.963633  0.557567  0.950333  1
  H  H2024  1  0.963633  0.392767  0.442433  1
  H  H2025  1  0.963633  0.049667  0.607233  1
  H  H2026  1  0.369700  0.109100  0.383000  1
  H  H2027  1  0.369700  0.273900  0.890900  1
  H  H2028  1  0.369700  0.617000  0.726100  1
  H  H2029  1  0.703033  0.775767  0.716333  1
  H  H2030  1  0.703033  0.940567  0.224233  1
  H  H2031  1  0.703033  0.283667  0.059433  1
  H  H2032  1  0.036367  0.442433  0.049667  1
  H  H2033  1  0.036367  0.607233  0.557567  1
  H  H2034  1  0.036367  0.950333  0.392767  1
  H  H2035  1  0.681900  0.916600  0.621800  1
  H  H2036  1  0.681900  0.705200  0.083400  1
  H  H2037  1  0.681900  0.378200  0.294800  1
  H  H2038  1  0.348567  0.249933  0.288467  1
  H  H2039  1  0.348567  0.038533  0.750067  1
  H  H2040  1  0.348567  0.711533  0.961467  1
  H  H2041  1  0.015233  0.583267  0.955133  1
  H  H2042  1  0.015233  0.371867  0.416733  1
  H  H2043  1  0.015233  0.044867  0.628133  1
  H  H2044  1  0.318100  0.083400  0.378200  1
  H  H2045  1  0.318100  0.294800  0.916600  1
  H  H2046  1  0.318100  0.621800  0.705200  1
  H  H2047  1  0.651433  0.750067  0.711533  1
  H  H2048  1  0.651433  0.961467  0.249933  1
  H  H2049  1  0.651433  0.288467  0.038533  1
  H  H2050  1  0.984767  0.416733  0.044867  1
  H  H2051  1  0.984767  0.628133  0.583267  1
  H  H2052  1  0.984767  0.955133  0.371867  1
  H  H2053  1  0.784300  0.938400  0.656800  1
  H  H2054  1  0.784300  0.718400  0.061600  1
  H  H2055  1  0.784300  0.343200  0.281600  1
  H  H2056  1  0.450967  0.271733  0.323467  1
  H  H2057  1  0.450967  0.051733  0.728267  1
  H  H2058  1  0.450967  0.676533  0.948267  1
  H  H2059  1  0.117633  0.605067  0.990133  1
  H  H2060  1  0.117633  0.385067  0.394933  1
  H  H2061  1  0.117633  0.009867  0.614933  1
  H  H2062  1  0.215700  0.061600  0.343200  1
  H  H2063  1  0.215700  0.281600  0.938400  1
  H  H2064  1  0.215700  0.656800  0.718400  1
  H  H2065  1  0.549033  0.728267  0.676533  1
  H  H2066  1  0.549033  0.948267  0.271733  1
  H  H2067  1  0.549033  0.323467  0.051733  1
  H  H2068  1  0.882367  0.394933  0.009867  1
  H  H2069  1  0.882367  0.614933  0.605067  1
  H  H2070  1  0.882367  0.990133  0.385067  1
  H  H2071  1  0.803200  0.972800  0.622200  1
  H  H2072  1  0.803200  0.649400  0.027200  1
  H  H2073  1  0.803200  0.377800  0.350600  1
  H  H2074  1  0.469867  0.306133  0.288867  1
  H  H2075  1  0.469867  0.982733  0.693867  1
  H  H2076  1  0.469867  0.711133  0.017267  1
  H  H2077  1  0.136533  0.639467  0.955533  1
  H  H2078  1  0.136533  0.316067  0.360533  1
  H  H2079  1  0.136533  0.044467  0.683933  1
  H  H2080  1  0.196800  0.027200  0.377800  1
  H  H2081  1  0.196800  0.350600  0.972800  1
  H  H2082  1  0.196800  0.622200  0.649400  1
  H  H2083  1  0.530133  0.693867  0.711133  1
  H  H2084  1  0.530133  0.017267  0.306133  1
  H  H2085  1  0.530133  0.288867  0.982733  1
  H  H2086  1  0.863467  0.360533  0.044467  1
  H  H2087  1  0.863467  0.683933  0.639467  1
  H  H2088  1  0.863467  0.955533  0.316067  1
  H  H2089  1  0.741600  0.968100  0.610800  1
  H  H2090  1  0.741600  0.642700  0.031900  1
  H  H2091  1  0.741600  0.389200  0.357300  1
  H  H2092  1  0.408267  0.301433  0.277467  1
  H  H2093  1  0.408267  0.976033  0.698567  1
  H  H2094  1  0.408267  0.722533  0.023967  1
  H  H2095  1  0.074933  0.634767  0.944133  1
  H  H2096  1  0.074933  0.309367  0.365233  1
  H  H2097  1  0.074933  0.055867  0.690633  1
  H  H2098  1  0.258400  0.031900  0.389200  1
  H  H2099  1  0.258400  0.357300  0.968100  1
  H  H2100  1  0.258400  0.610800  0.642700  1
  H  H2101  1  0.591733  0.698567  0.722533  1
  H  H2102  1  0.591733  0.023967  0.301433  1
  H  H2103  1  0.591733  0.277467  0.976033  1
  H  H2104  1  0.925067  0.365233  0.055867  1
  H  H2105  1  0.925067  0.690633  0.634767  1
  H  H2106  1  0.925067  0.944133  0.309367  1
  H  H2107  1  0.701200  0.948500  0.622300  1
  H  H2108  1  0.701200  0.673800  0.051500  1
  H  H2109  1  0.701200  0.377700  0.326200  1
  H  H2110  1  0.367867  0.281833  0.288967  1
  H  H2111  1  0.367867  0.007133  0.718167  1
  H  H2112  1  0.367867  0.711033  0.992867  1
  H  H2113  1  0.034533  0.615167  0.955633  1
  H  H2114  1  0.034533  0.340467  0.384833  1
  H  H2115  1  0.034533  0.044367  0.659533  1
  H  H2116  1  0.298800  0.051500  0.377700  1
  H  H2117  1  0.298800  0.326200  0.948500  1
  H  H2118  1  0.298800  0.622300  0.673800  1
  H  H2119  1  0.632133  0.718167  0.711033  1
  H  H2120  1  0.632133  0.992867  0.281833  1
  H  H2121  1  0.632133  0.288967  0.007133  1
  H  H2122  1  0.965467  0.384833  0.044367  1
  H  H2123  1  0.965467  0.659533  0.615167  1
  H  H2124  1  0.965467  0.955633  0.340467  1
  H  H2125  1  0.853600  0.925300  0.629100  1
  H  H2126  1  0.853600  0.703800  0.074700  1
  H  H2127  1  0.853600  0.370900  0.296200  1
  H  H2128  1  0.520267  0.258633  0.295767  1
  H  H2129  1  0.520267  0.037133  0.741367  1
  H  H2130  1  0.520267  0.704233  0.962867  1
  H  H2131  1  0.186933  0.591967  0.962433  1
  H  H2132  1  0.186933  0.370467  0.408033  1
  H  H2133  1  0.186933  0.037567  0.629533  1
  H  H2134  1  0.146400  0.074700  0.370900  1
  H  H2135  1  0.146400  0.296200  0.925300  1
  H  H2136  1  0.146400  0.629100  0.703800  1
  H  H2137  1  0.479733  0.741367  0.704233  1
  H  H2138  1  0.479733  0.962867  0.258633  1
  H  H2139  1  0.479733  0.295767  0.037133  1
  H  H2140  1  0.813067  0.408033  0.037567  1
  H  H2141  1  0.813067  0.629533  0.591967  1
  H  H2142  1  0.813067  0.962433  0.370467  1
  H  H2143  1  0.910900  0.928300  0.644100  1
  H  H2144  1  0.910900  0.715800  0.071700  1
  H  H2145  1  0.910900  0.355900  0.284200  1
  H  H2146  1  0.577567  0.261633  0.310767  1
  H  H2147  1  0.577567  0.049133  0.738367  1
  H  H2148  1  0.577567  0.689233  0.950867  1
  H  H2149  1  0.244233  0.594967  0.977433  1
  H  H2150  1  0.244233  0.382467  0.405033  1
  H  H2151  1  0.244233  0.022567  0.617533  1
  H  H2152  1  0.089100  0.071700  0.355900  1
  H  H2153  1  0.089100  0.284200  0.928300  1
  H  H2154  1  0.089100  0.644100  0.715800  1
  H  H2155  1  0.422433  0.738367  0.689233  1
  H  H2156  1  0.422433  0.950867  0.261633  1
  H  H2157  1  0.422433  0.310767  0.049133  1
  H  H2158  1  0.755767  0.405033  0.022567  1
  H  H2159  1  0.755767  0.617533  0.594967  1
  H  H2160  1  0.755767  0.977433  0.382467  1
  H  H2161  1  0.963100  0.952800  0.666000  1
  H  H2162  1  0.963100  0.713200  0.047200  1
  H  H2163  1  0.963100  0.334000  0.286800  1
  H  H2164  1  0.629767  0.286133  0.332667  1
  H  H2165  1  0.629767  0.046533  0.713867  1
  H  H2166  1  0.629767  0.667333  0.953467  1
  H  H2167  1  0.296433  0.619467  0.999333  1
  H  H2168  1  0.296433  0.379867  0.380533  1
  H  H2169  1  0.296433  0.000667  0.620133  1
  H  H2170  1  0.036900  0.047200  0.334000  1
  H  H2171  1  0.036900  0.286800  0.952800  1
  H  H2172  1  0.036900  0.666000  0.713200  1
  H  H2173  1  0.370233  0.713867  0.667333  1
  H  H2174  1  0.370233  0.953467  0.286133  1
  H  H2175  1  0.370233  0.332667  0.046533  1
  H  H2176  1  0.703567  0.380533  0.000667  1
  H  H2177  1  0.703567  0.620133  0.619467  1
  H  H2178  1  0.703567  0.999333  0.379867  1
  H  H2179  1  0.985600  0.989000  0.693800  1
  H  H2180  1  0.985600  0.704800  0.011000  1
  H  H2181  1  0.985600  0.306200  0.295200  1
  H  H2182  1  0.652267  0.322333  0.360467  1
  H  H2183  1  0.652267  0.038133  0.677667  1
  H  H2184  1  0.652267  0.639533  0.961867  1
  H  H2185  1  0.318933  0.655667  0.027133  1
  H  H2186  1  0.318933  0.371467  0.344333  1
  H  H2187  1  0.318933  0.972867  0.628533  1
  H  H2188  1  0.014400  0.011000  0.306200  1
  H  H2189  1  0.014400  0.295200  0.989000  1
  H  H2190  1  0.014400  0.693800  0.704800  1
  H  H2191  1  0.347733  0.677667  0.639533  1
  H  H2192  1  0.347733  0.961867  0.322333  1
  H  H2193  1  0.347733  0.360467  0.038133  1
  H  H2194  1  0.681067  0.344333  0.972867  1
  H  H2195  1  0.681067  0.628533  0.655667  1
  H  H2196  1  0.681067  0.027133  0.371467  1
  H  H2197  1  0.807000  0.999100  0.666400  1
  H  H2198  1  0.807000  0.667300  0.000900  1
  H  H2199  1  0.807000  0.333600  0.332700  1
  H  H2200  1  0.473667  0.332433  0.333067  1
  H  H2201  1  0.473667  0.000633  0.667567  1
  H  H2202  1  0.473667  0.666933  0.999367  1
  H  H2203  1  0.140333  0.665767  0.999733  1
  H  H2204  1  0.140333  0.333967  0.334233  1
  H  H2205  1  0.140333  0.000267  0.666033  1
  H  H2206  1  0.193000  0.000900  0.333600  1
  H  H2207  1  0.193000  0.332700  0.999100  1
  H  H2208  1  0.193000  0.666400  0.667300  1
  H  H2209  1  0.526333  0.667567  0.666933  1
  H  H2210  1  0.526333  0.999367  0.332433  1
  H  H2211  1  0.526333  0.333067  0.000633  1
  H  H2212  1  0.859667  0.334233  0.000267  1
  H  H2213  1  0.859667  0.666033  0.665767  1
  H  H2214  1  0.859667  0.999733  0.333967  1
  H  H2215  1  0.829500  0.035300  0.694200  1
  H  H2216  1  0.829500  0.658900  0.964700  1
  H  H2217  1  0.829500  0.305800  0.341100  1
  H  H2218  1  0.496167  0.368633  0.360867  1
  H  H2219  1  0.496167  0.992233  0.631367  1
  H  H2220  1  0.496167  0.639133  0.007767  1
  H  H2221  1  0.162833  0.701967  0.027533  1
  H  H2222  1  0.162833  0.325567  0.298033  1
  H  H2223  1  0.162833  0.972467  0.674433  1
  H  H2224  1  0.170500  0.964700  0.305800  1
  H  H2225  1  0.170500  0.341100  0.035300  1
  H  H2226  1  0.170500  0.694200  0.658900  1
  H  H2227  1  0.503833  0.631367  0.639133  1
  H  H2228  1  0.503833  0.007767  0.368633  1
  H  H2229  1  0.503833  0.360867  0.992233  1
  H  H2230  1  0.837167  0.298033  0.972467  1
  H  H2231  1  0.837167  0.674433  0.701967  1
  H  H2232  1  0.837167  0.027533  0.325567  1
  H  H2233  1  0.878900  0.059700  0.717000  1
  H  H2234  1  0.878900  0.657300  0.940300  1
  H  H2235  1  0.878900  0.283000  0.342700  1
  H  H2236  1  0.545567  0.393033  0.383667  1
  H  H2237  1  0.545567  0.990633  0.606967  1
  H  H2238  1  0.545567  0.616333  0.009367  1
  H  H2239  1  0.212233  0.726367  0.050333  1
  H  H2240  1  0.212233  0.323967  0.273633  1
  H  H2241  1  0.212233  0.949667  0.676033  1
  H  H2242  1  0.121100  0.940300  0.283000  1
  H  H2243  1  0.121100  0.342700  0.059700  1
  H  H2244  1  0.121100  0.717000  0.657300  1
  H  H2245  1  0.454433  0.606967  0.616333  1
  H  H2246  1  0.454433  0.009367  0.393033  1
  H  H2247  1  0.454433  0.383667  0.990633  1
  H  H2248  1  0.787767  0.273633  0.949667  1
  H  H2249  1  0.787767  0.676033  0.726367  1
  H  H2250  1  0.787767  0.050333  0.323967  1
  H  H2251  1  0.938600  0.062800  0.731200  1
  H  H2252  1  0.938600  0.668400  0.937200  1
  H  H2253  1  0.938600  0.268800  0.331600  1
  H  H2254  1  0.605267  0.396133  0.397867  1
  H  H2255  1  0.605267  0.001733  0.603867  1
  H  H2256  1  0.605267  0.602133  0.998267  1
  H  H2257  1  0.271933  0.729467  0.064533  1
  H  H2258  1  0.271933  0.335067  0.270533  1
  H  H2259  1  0.271933  0.935467  0.664933  1
  H  H2260  1  0.061400  0.937200  0.268800  1
  H  H2261  1  0.061400  0.331600  0.062800  1
  H  H2262  1  0.061400  0.731200  0.668400  1
  H  H2263  1  0.394733  0.603867  0.602133  1
  H  H2264  1  0.394733  0.998267  0.396133  1
  H  H2265  1  0.394733  0.397867  0.001733  1
  H  H2266  1  0.728067  0.270533  0.935467  1
  H  H2267  1  0.728067  0.664933  0.729467  1
  H  H2268  1  0.728067  0.064533  0.335067  1
  H  H2269  1  0.977800  0.007700  0.735900  1
  H  H2270  1  0.977800  0.728200  0.992300  1
  H  H2271  1  0.977800  0.264100  0.271800  1
  H  H2272  1  0.644467  0.341033  0.402567  1
  H  H2273  1  0.644467  0.061533  0.658967  1
  H  H2274  1  0.644467  0.597433  0.938467  1
  H  H2275  1  0.311133  0.674367  0.069233  1
  H  H2276  1  0.311133  0.394867  0.325633  1
  H  H2277  1  0.311133  0.930767  0.605133  1
  H  H2278  1  0.022200  0.992300  0.264100  1
  H  H2279  1  0.022200  0.271800  0.007700  1
  H  H2280  1  0.022200  0.735900  0.728200  1
  H  H2281  1  0.355533  0.658967  0.597433  1
  H  H2282  1  0.355533  0.938467  0.341033  1
  H  H2283  1  0.355533  0.402567  0.061533  1
  H  H2284  1  0.688867  0.325633  0.930767  1
  H  H2285  1  0.688867  0.605133  0.674367  1
  H  H2286  1  0.688867  0.069233  0.394867  1
  H  H2287  1  0.070400  0.045300  0.763400  1
  H  H2288  1  0.070400  0.718100  0.954700  1
  H  H2289  1  0.070400  0.236600  0.281900  1
  H  H2290  1  0.737067  0.378633  0.430067  1
  H  H2291  1  0.737067  0.051433  0.621367  1
  H  H2292  1  0.737067  0.569933  0.948567  1
  H  H2293  1  0.403733  0.711967  0.096733  1
  H  H2294  1  0.403733  0.384767  0.288033  1
  H  H2295  1  0.403733  0.903267  0.615233  1
  H  H2296  1  0.929600  0.954700  0.236600  1
  H  H2297  1  0.929600  0.281900  0.045300  1
  H  H2298  1  0.929600  0.763400  0.718100  1
  H  H2299  1  0.262933  0.621367  0.569933  1
  H  H2300  1  0.262933  0.948567  0.378633  1
  H  H2301  1  0.262933  0.430067  0.051433  1
  H  H2302  1  0.596267  0.288033  0.903267  1
  H  H2303  1  0.596267  0.615233  0.711967  1
  H  H2304  1  0.596267  0.096733  0.384767  1
  H  H2305  1  0.059600  0.065100  0.743300  1
  H  H2306  1  0.059600  0.678200  0.934900  1
  H  H2307  1  0.059600  0.256700  0.321800  1
  H  H2308  1  0.726267  0.398433  0.409967  1
  H  H2309  1  0.726267  0.011533  0.601567  1
  H  H2310  1  0.726267  0.590033  0.988467  1
  H  H2311  1  0.392933  0.731767  0.076633  1
  H  H2312  1  0.392933  0.344867  0.268233  1
  H  H2313  1  0.392933  0.923367  0.655133  1
  H  H2314  1  0.940400  0.934900  0.256700  1
  H  H2315  1  0.940400  0.321800  0.065100  1
  H  H2316  1  0.940400  0.743300  0.678200  1
  H  H2317  1  0.273733  0.601567  0.590033  1
  H  H2318  1  0.273733  0.988467  0.398433  1
  H  H2319  1  0.273733  0.409967  0.011533  1
  H  H2320  1  0.607067  0.268233  0.923367  1
  H  H2321  1  0.607067  0.655133  0.731767  1
  H  H2322  1  0.607067  0.076633  0.344867  1
  H  H2323  1  0.007900  0.056100  0.719500  1
  H  H2324  1  0.007900  0.663400  0.943900  1
  H  H2325  1  0.007900  0.280500  0.336600  1
  H  H2326  1  0.674567  0.389433  0.386167  1
  H  H2327  1  0.674567  0.996733  0.610567  1
  H  H2328  1  0.674567  0.613833  0.003267  1
  H  H2329  1  0.341233  0.722767  0.052833  1
  H  H2330  1  0.341233  0.330067  0.277233  1
  H  H2331  1  0.341233  0.947167  0.669933  1
  H  H2332  1  0.992100  0.943900  0.280500  1
  H  H2333  1  0.992100  0.336600  0.056100  1
  H  H2334  1  0.992100  0.719500  0.663400  1
  H  H2335  1  0.325433  0.610567  0.613833  1
  H  H2336  1  0.325433  0.003267  0.389433  1
  H  H2337  1  0.325433  0.386167  0.996733  1
  H  H2338  1  0.658767  0.277233  0.947167  1
  H  H2339  1  0.658767  0.669933  0.722767  1
  H  H2340  1  0.658767  0.052833  0.330067  1
  H  H2341  1  0.086600  0.012600  0.759400  1
  H  H2342  1  0.086600  0.746800  0.987400  1
  H  H2343  1  0.086600  0.240600  0.253200  1
  H  H2344  1  0.753267  0.345933  0.426067  1
  H  H2345  1  0.753267  0.080133  0.654067  1
  H  H2346  1  0.753267  0.573933  0.919867  1
  H  H2347  1  0.419933  0.679267  0.092733  1
  H  H2348  1  0.419933  0.413467  0.320733  1
  H  H2349  1  0.419933  0.907267  0.586533  1
  H  H2350  1  0.913400  0.987400  0.240600  1
  H  H2351  1  0.913400  0.253200  0.012600  1
  H  H2352  1  0.913400  0.759400  0.746800  1
  H  H2353  1  0.246733  0.654067  0.573933  1
  H  H2354  1  0.246733  0.919867  0.345933  1
  H  H2355  1  0.246733  0.426067  0.080133  1
  H  H2356  1  0.580067  0.320733  0.907267  1
  H  H2357  1  0.580067  0.586533  0.679267  1
  H  H2358  1  0.580067  0.092733  0.413467  1
  H  H2359  1  0.131000  0.996800  0.773900  1
  H  H2360  1  0.131000  0.777100  0.003200  1
  H  H2361  1  0.131000  0.226100  0.222900  1
  H  H2362  1  0.797667  0.330133  0.440567  1
  H  H2363  1  0.797667  0.110433  0.669867  1
  H  H2364  1  0.797667  0.559433  0.889567  1
  H  H2365  1  0.464333  0.663467  0.107233  1
  H  H2366  1  0.464333  0.443767  0.336533  1
  H  H2367  1  0.464333  0.892767  0.556233  1
  H  H2368  1  0.869000  0.003200  0.226100  1
  H  H2369  1  0.869000  0.222900  0.996800  1
  H  H2370  1  0.869000  0.773900  0.777100  1
  H  H2371  1  0.202333  0.669867  0.559433  1
  H  H2372  1  0.202333  0.889567  0.330133  1
  H  H2373  1  0.202333  0.440567  0.110433  1
  H  H2374  1  0.535667  0.336533  0.892767  1
  H  H2375  1  0.535667  0.556233  0.663467  1
  H  H2376  1  0.535667  0.107233  0.443767  1
  H  H2377  1  0.145800  0.976400  0.793000  1
  H  H2378  1  0.145800  0.816600  0.023600  1
  H  H2379  1  0.145800  0.207000  0.183400  1
  H  H2380  1  0.812467  0.309733  0.459667  1
  H  H2381  1  0.812467  0.149933  0.690267  1
  H  H2382  1  0.812467  0.540333  0.850067  1
  H  H2383  1  0.479133  0.643067  0.126333  1
  H  H2384  1  0.479133  0.483267  0.356933  1
  H  H2385  1  0.479133  0.873667  0.516733  1
  H  H2386  1  0.854200  0.023600  0.207000  1
  H  H2387  1  0.854200  0.183400  0.976400  1
  H  H2388  1  0.854200  0.793000  0.816600  1
  H  H2389  1  0.187533  0.690267  0.540333  1
  H  H2390  1  0.187533  0.850067  0.309733  1
  H  H2391  1  0.187533  0.459667  0.149933  1
  H  H2392  1  0.520867  0.356933  0.873667  1
  H  H2393  1  0.520867  0.516733  0.643067  1
  H  H2394  1  0.520867  0.126333  0.483267  1
  H  H2395  1  0.098300  0.961000  0.804900  1
  H  H2396  1  0.098300  0.843900  0.039000  1
  H  H2397  1  0.098300  0.195100  0.156100  1
  H  H2398  1  0.764967  0.294333  0.471567  1
  H  H2399  1  0.764967  0.177233  0.705667  1
  H  H2400  1  0.764967  0.528433  0.822767  1
  H  H2401  1  0.431633  0.627667  0.138233  1
  H  H2402  1  0.431633  0.510567  0.372333  1
  H  H2403  1  0.431633  0.861767  0.489433  1
  H  H2404  1  0.901700  0.039000  0.195100  1
  H  H2405  1  0.901700  0.156100  0.961000  1
  H  H2406  1  0.901700  0.804900  0.843900  1
  H  H2407  1  0.235033  0.705667  0.528433  1
  H  H2408  1  0.235033  0.822767  0.294333  1
  H  H2409  1  0.235033  0.471567  0.177233  1
  H  H2410  1  0.568367  0.372333  0.861767  1
  H  H2411  1  0.568367  0.489433  0.627667  1
  H  H2412  1  0.568367  0.138233  0.510567  1
  H  H2413  1  0.037500  0.965700  0.797300  1
  H  H2414  1  0.037500  0.831600  0.034300  1
  H  H2415  1  0.037500  0.202700  0.168400  1
  H  H2416  1  0.704167  0.299033  0.463967  1
  H  H2417  1  0.704167  0.164933  0.700967  1
  H  H2418  1  0.704167  0.536033  0.835067  1
  H  H2419  1  0.370833  0.632367  0.130633  1
  H  H2420  1  0.370833  0.498267  0.367633  1
  H  H2421  1  0.370833  0.869367  0.501733  1
  H  H2422  1  0.962500  0.034300  0.202700  1
  H  H2423  1  0.962500  0.168400  0.965700  1
  H  H2424  1  0.962500  0.797300  0.831600  1
  H  H2425  1  0.295833  0.700967  0.536033  1
  H  H2426  1  0.295833  0.835067  0.299033  1
  H  H2427  1  0.295833  0.463967  0.164933  1
  H  H2428  1  0.629167  0.367633  0.869367  1
  H  H2429  1  0.629167  0.501733  0.632367  1
  H  H2430  1  0.629167  0.130633  0.498267  1
  H  H2431  1  0.660700  0.883400  0.771000  1
  H  H2432  1  0.660700  0.887600  0.116600  1
  H  H2433  1  0.660700  0.229000  0.112400  1
  H  H2434  1  0.327367  0.216733  0.437667  1
  H  H2435  1  0.327367  0.220933  0.783267  1
  H  H2436  1  0.327367  0.562333  0.779067  1
  H  H2437  1  0.994033  0.550067  0.104333  1
  H  H2438  1  0.994033  0.554267  0.449933  1
  H  H2439  1  0.994033  0.895667  0.445733  1
  H  H2440  1  0.339300  0.116600  0.229000  1
  H  H2441  1  0.339300  0.112400  0.883400  1
  H  H2442  1  0.339300  0.771000  0.887600  1
  H  H2443  1  0.672633  0.783267  0.562333  1
  H  H2444  1  0.672633  0.779067  0.216733  1
  H  H2445  1  0.672633  0.437667  0.220933  1
  H  H2446  1  0.005967  0.449933  0.895667  1
  H  H2447  1  0.005967  0.445733  0.550067  1
  H  H2448  1  0.005967  0.104333  0.554267  1
  H  H2449  1  0.718800  0.867800  0.758200  1
  H  H2450  1  0.718800  0.890400  0.132200  1
  H  H2451  1  0.718800  0.241800  0.109600  1
  H  H2452  1  0.385467  0.201133  0.424867  1
  H  H2453  1  0.385467  0.223733  0.798867  1
  H  H2454  1  0.385467  0.575133  0.776267  1
  H  H2455  1  0.052133  0.534467  0.091533  1
  H  H2456  1  0.052133  0.557067  0.465533  1
  H  H2457  1  0.052133  0.908467  0.442933  1
  H  H2458  1  0.281200  0.132200  0.241800  1
  H  H2459  1  0.281200  0.109600  0.867800  1
  H  H2460  1  0.281200  0.758200  0.890400  1
  H  H2461  1  0.614533  0.798867  0.575133  1
  H  H2462  1  0.614533  0.776267  0.201133  1
  H  H2463  1  0.614533  0.424867  0.223733  1
  H  H2464  1  0.947867  0.465533  0.908467  1
  H  H2465  1  0.947867  0.442933  0.534467  1
  H  H2466  1  0.947867  0.091533  0.557067  1
  H  H2467  1  0.735700  0.833800  0.757900  1
  H  H2468  1  0.735700  0.924100  0.166200  1
  H  H2469  1  0.735700  0.242100  0.075900  1
  H  H2470  1  0.402367  0.167133  0.424567  1
  H  H2471  1  0.402367  0.257433  0.832867  1
  H  H2472  1  0.402367  0.575433  0.742567  1
  H  H2473  1  0.069033  0.500467  0.091233  1
  H  H2474  1  0.069033  0.590767  0.499533  1
  H  H2475  1  0.069033  0.908767  0.409233  1
  H  H2476  1  0.264300  0.166200  0.242100  1
  H  H2477  1  0.264300  0.075900  0.833800  1
  H  H2478  1  0.264300  0.757900  0.924100  1
  H  H2479  1  0.597633  0.832867  0.575433  1
  H  H2480  1  0.597633  0.742567  0.167133  1
  H  H2481  1  0.597633  0.424567  0.257433  1
  H  H2482  1  0.930967  0.499533  0.908767  1
  H  H2483  1  0.930967  0.409233  0.500467  1
  H  H2484  1  0.930967  0.091233  0.590767  1
  H  H2485  1  0.693000  0.815900  0.770300  1
  H  H2486  1  0.693000  0.954400  0.184100  1
  H  H2487  1  0.693000  0.229700  0.045600  1
  H  H2488  1  0.359667  0.149233  0.436967  1
  H  H2489  1  0.359667  0.287733  0.850767  1
  H  H2490  1  0.359667  0.563033  0.712267  1
  H  H2491  1  0.026333  0.482567  0.103633  1
  H  H2492  1  0.026333  0.621067  0.517433  1
  H  H2493  1  0.026333  0.896367  0.378933  1
  H  H2494  1  0.307000  0.184100  0.229700  1
  H  H2495  1  0.307000  0.045600  0.815900  1
  H  H2496  1  0.307000  0.770300  0.954400  1
  H  H2497  1  0.640333  0.850767  0.563033  1
  H  H2498  1  0.640333  0.712267  0.149233  1
  H  H2499  1  0.640333  0.436967  0.287733  1
  H  H2500  1  0.973667  0.517433  0.896367  1
  H  H2501  1  0.973667  0.378933  0.482567  1
  H  H2502  1  0.973667  0.103633  0.621067  1
  H  H2503  1  0.628300  0.813800  0.781900  1
  H  H2504  1  0.628300  0.968100  0.186200  1
  H  H2505  1  0.628300  0.218100  0.031900  1
  H  H2506  1  0.294967  0.147133  0.448567  1
  H  H2507  1  0.294967  0.301433  0.852867  1
  H  H2508  1  0.294967  0.551433  0.698567  1
  H  H2509  1  0.961633  0.480467  0.115233  1
  H  H2510  1  0.961633  0.634767  0.519533  1
  H  H2511  1  0.961633  0.884767  0.365233  1
  H  H2512  1  0.371700  0.186200  0.218100  1
  H  H2513  1  0.371700  0.031900  0.813800  1
  H  H2514  1  0.371700  0.781900  0.968100  1
  H  H2515  1  0.705033  0.852867  0.551433  1
  H  H2516  1  0.705033  0.698567  0.147133  1
  H  H2517  1  0.705033  0.448567  0.301433  1
  H  H2518  1  0.038367  0.519533  0.884767  1
  H  H2519  1  0.038367  0.365233  0.480467  1
  H  H2520  1  0.038367  0.115233  0.634767  1
  H  H2521  1  0.520600  0.833600  0.780500  1
  H  H2522  1  0.520600  0.946900  0.166400  1
  H  H2523  1  0.520600  0.219500  0.053100  1
  H  H2524  1  0.187267  0.166933  0.447167  1
  H  H2525  1  0.187267  0.280233  0.833067  1
  H  H2526  1  0.187267  0.552833  0.719767  1
  H  H2527  1  0.853933  0.500267  0.113833  1
  H  H2528  1  0.853933  0.613567  0.499733  1
  H  H2529  1  0.853933  0.886167  0.386433  1
  H  H2530  1  0.479400  0.166400  0.219500  1
  H  H2531  1  0.479400  0.053100  0.833600  1
  H  H2532  1  0.479400  0.780500  0.946900  1
  H  H2533  1  0.812733  0.833067  0.552833  1
  H  H2534  1  0.812733  0.719767  0.166933  1
  H  H2535  1  0.812733  0.447167  0.280233  1
  H  H2536  1  0.146067  0.499733  0.886167  1
  H  H2537  1  0.146067  0.386433  0.500267  1
  H  H2538  1  0.146067  0.113833  0.613567  1
  H  H2539  1  0.492700  0.792600  0.806800  1
  H  H2540  1  0.492700  0.014200  0.207400  1
  H  H2541  1  0.492700  0.193200  0.985800  1
  H  H2542  1  0.159367  0.125933  0.473467  1
  H  H2543  1  0.159367  0.347533  0.874067  1
  H  H2544  1  0.159367  0.526533  0.652467  1
  H  H2545  1  0.826033  0.459267  0.140133  1
  H  H2546  1  0.826033  0.680867  0.540733  1
  H  H2547  1  0.826033  0.859867  0.319133  1
  H  H2548  1  0.507300  0.207400  0.193200  1
  H  H2549  1  0.507300  0.985800  0.792600  1
  H  H2550  1  0.507300  0.806800  0.014200  1
  H  H2551  1  0.840633  0.874067  0.526533  1
  H  H2552  1  0.840633  0.652467  0.125933  1
  H  H2553  1  0.840633  0.473467  0.347533  1
  H  H2554  1  0.173967  0.540733  0.859867  1
  H  H2555  1  0.173967  0.319133  0.459267  1
  H  H2556  1  0.173967  0.140133  0.680867  1
  H  H2557  1  0.553600  0.793400  0.818500  1
  H  H2558  1  0.553600  0.025100  0.206600  1
  H  H2559  1  0.553600  0.181500  0.974900  1
  H  H2560  1  0.220267  0.126733  0.485167  1
  H  H2561  1  0.220267  0.358433  0.873267  1
  H  H2562  1  0.220267  0.514833  0.641567  1
  H  H2563  1  0.886933  0.460067  0.151833  1
  H  H2564  1  0.886933  0.691767  0.539933  1
  H  H2565  1  0.886933  0.848167  0.308233  1
  H  H2566  1  0.446400  0.206600  0.181500  1
  H  H2567  1  0.446400  0.974900  0.793400  1
  H  H2568  1  0.446400  0.818500  0.025100  1
  H  H2569  1  0.779733  0.873267  0.514833  1
  H  H2570  1  0.779733  0.641567  0.126733  1
  H  H2571  1  0.779733  0.485167  0.358433  1
  H  H2572  1  0.113067  0.539933  0.848167  1
  H  H2573  1  0.113067  0.308233  0.460067  1
  H  H2574  1  0.113067  0.151833  0.691767  1
  H  H2575  1  0.598000  0.814400  0.811300  1
  H  H2576  1  0.598000  0.996900  0.185600  1
  H  H2577  1  0.598000  0.188700  0.003100  1
  H  H2578  1  0.264667  0.147733  0.477967  1
  H  H2579  1  0.264667  0.330233  0.852267  1
  H  H2580  1  0.264667  0.522033  0.669767  1
  H  H2581  1  0.931333  0.481067  0.144633  1
  H  H2582  1  0.931333  0.663567  0.518933  1
  H  H2583  1  0.931333  0.855367  0.336433  1
  H  H2584  1  0.402000  0.185600  0.188700  1
  H  H2585  1  0.402000  0.003100  0.814400  1
  H  H2586  1  0.402000  0.811300  0.996900  1
  H  H2587  1  0.735333  0.852267  0.522033  1
  H  H2588  1  0.735333  0.669767  0.147733  1
  H  H2589  1  0.735333  0.477967  0.330233  1
  H  H2590  1  0.068667  0.518933  0.855367  1
  H  H2591  1  0.068667  0.336433  0.481067  1
  H  H2592  1  0.068667  0.144633  0.663567  1
  H  H2593  1  0.465600  0.789700  0.751600  1
  H  H2594  1  0.465600  0.961900  0.210300  1
  H  H2595  1  0.465600  0.248400  0.038100  1
  H  H2596  1  0.132267  0.123033  0.418267  1
  H  H2597  1  0.132267  0.295233  0.876967  1
  H  H2598  1  0.132267  0.581733  0.704767  1
  H  H2599  1  0.798933  0.456367  0.084933  1
  H  H2600  1  0.798933  0.628567  0.543633  1
  H  H2601  1  0.798933  0.915067  0.371433  1
  H  H2602  1  0.534400  0.210300  0.248400  1
  H  H2603  1  0.534400  0.038100  0.789700  1
  H  H2604  1  0.534400  0.751600  0.961900  1
  H  H2605  1  0.867733  0.876967  0.581733  1
  H  H2606  1  0.867733  0.704767  0.123033  1
  H  H2607  1  0.867733  0.418267  0.295233  1
  H  H2608  1  0.201067  0.543633  0.915067  1
  H  H2609  1  0.201067  0.371433  0.456367  1
  H  H2610  1  0.201067  0.084933  0.628567  1
  H  H2611  1  0.404400  0.789800  0.740500  1
  H  H2612  1  0.404400  0.950700  0.210200  1
  H  H2613  1  0.404400  0.259500  0.049300  1
  H  H2614  1  0.071067  0.123133  0.407167  1
  H  H2615  1  0.071067  0.284033  0.876867  1
  H  H2616  1  0.071067  0.592833  0.715967  1
  H  H2617  1  0.737733  0.456467  0.073833  1
  H  H2618  1  0.737733  0.617367  0.543533  1
  H  H2619  1  0.737733  0.926167  0.382633  1
  H  H2620  1  0.595600  0.210200  0.259500  1
  H  H2621  1  0.595600  0.049300  0.789800  1
  H  H2622  1  0.595600  0.740500  0.950700  1
  H  H2623  1  0.928933  0.876867  0.592833  1
  H  H2624  1  0.928933  0.715967  0.123133  1
  H  H2625  1  0.928933  0.407167  0.284033  1
  H  H2626  1  0.262267  0.543533  0.926167  1
  H  H2627  1  0.262267  0.382633  0.456467  1
  H  H2628  1  0.262267  0.073833  0.617367  1
  H  H2629  1  0.343400  0.805300  0.751600  1
  H  H2630  1  0.343400  0.946300  0.194700  1
  H  H2631  1  0.343400  0.248400  0.053700  1
  H  H2632  1  0.010067  0.138633  0.418267  1
  H  H2633  1  0.010067  0.279633  0.861367  1
  H  H2634  1  0.010067  0.581733  0.720367  1
  H  H2635  1  0.676733  0.471967  0.084933  1
  H  H2636  1  0.676733  0.612967  0.528033  1
  H  H2637  1  0.676733  0.915067  0.387033  1
  H  H2638  1  0.656600  0.194700  0.248400  1
  H  H2639  1  0.656600  0.053700  0.805300  1
  H  H2640  1  0.656600  0.751600  0.946300  1
  H  H2641  1  0.989933  0.861367  0.581733  1
  H  H2642  1  0.989933  0.720367  0.138633  1
  H  H2643  1  0.989933  0.418267  0.279633  1
  H  H2644  1  0.323267  0.528033  0.915067  1
  H  H2645  1  0.323267  0.387033  0.471967  1
  H  H2646  1  0.323267  0.084933  0.612967  1
  H  H2647  1  0.302700  0.832100  0.779000  1
  H  H2648  1  0.302700  0.946900  0.167900  1
  H  H2649  1  0.302700  0.221000  0.053100  1
  H  H2650  1  0.969367  0.165433  0.445667  1
  H  H2651  1  0.969367  0.280233  0.834567  1
  H  H2652  1  0.969367  0.554333  0.719767  1
  H  H2653  1  0.636033  0.498767  0.112333  1
  H  H2654  1  0.636033  0.613567  0.501233  1
  H  H2655  1  0.636033  0.887667  0.386433  1
  H  H2656  1  0.697300  0.167900  0.221000  1
  H  H2657  1  0.697300  0.053100  0.832100  1
  H  H2658  1  0.697300  0.779000  0.946900  1
  H  H2659  1  0.030633  0.834567  0.554333  1
  H  H2660  1  0.030633  0.719767  0.165433  1
  H  H2661  1  0.030633  0.445667  0.280233  1
  H  H2662  1  0.363967  0.501233  0.887667  1
  H  H2663  1  0.363967  0.386433  0.498767  1
  H  H2664  1  0.363967  0.112333  0.613567  1
  H  H2665  1  0.472100  0.841800  0.828500  1
  H  H2666  1  0.472100  0.986700  0.158200  1
  H  H2667  1  0.472100  0.171500  0.013300  1
  H  H2668  1  0.138767  0.175133  0.495167  1
  H  H2669  1  0.138767  0.320033  0.824867  1
  H  H2670  1  0.138767  0.504833  0.679967  1
  H  H2671  1  0.805433  0.508467  0.161833  1
  H  H2672  1  0.805433  0.653367  0.491533  1
  H  H2673  1  0.805433  0.838167  0.346633  1
  H  H2674  1  0.527900  0.158200  0.171500  1
  H  H2675  1  0.527900  0.013300  0.841800  1
  H  H2676  1  0.527900  0.828500  0.986700  1
  H  H2677  1  0.861233  0.824867  0.504833  1
  H  H2678  1  0.861233  0.679967  0.175133  1
  H  H2679  1  0.861233  0.495167  0.320033  1
  H  H2680  1  0.194567  0.491533  0.838167  1
  H  H2681  1  0.194567  0.346633  0.508467  1
  H  H2682  1  0.194567  0.161833  0.653367  1
  H  H2683  1  0.431300  0.868600  0.855800  1
  H  H2684  1  0.431300  0.987200  0.131400  1
  H  H2685  1  0.431300  0.144200  0.012800  1
  H  H2686  1  0.097967  0.201933  0.522467  1
  H  H2687  1  0.097967  0.320533  0.798067  1
  H  H2688  1  0.097967  0.477533  0.679467  1
  H  H2689  1  0.764633  0.535267  0.189133  1
  H  H2690  1  0.764633  0.653867  0.464733  1
  H  H2691  1  0.764633  0.810867  0.346133  1
  H  H2692  1  0.568700  0.131400  0.144200  1
  H  H2693  1  0.568700  0.012800  0.868600  1
  H  H2694  1  0.568700  0.855800  0.987200  1
  H  H2695  1  0.902033  0.798067  0.477533  1
  H  H2696  1  0.902033  0.679467  0.201933  1
  H  H2697  1  0.902033  0.522467  0.320533  1
  H  H2698  1  0.235367  0.464733  0.810867  1
  H  H2699  1  0.235367  0.346133  0.535267  1
  H  H2700  1  0.235367  0.189133  0.653867  1
  H  H2701  1  0.373000  0.887200  0.866500  1
  H  H2702  1  0.373000  0.979300  0.112800  1
  H  H2703  1  0.373000  0.133500  0.020700  1
  H  H2704  1  0.039667  0.220533  0.533167  1
  H  H2705  1  0.039667  0.312633  0.779467  1
  H  H2706  1  0.039667  0.466833  0.687367  1
  H  H2707  1  0.706333  0.553867  0.199833  1
  H  H2708  1  0.706333  0.645967  0.446133  1
  H  H2709  1  0.706333  0.800167  0.354033  1
  H  H2710  1  0.627000  0.112800  0.133500  1
  H  H2711  1  0.627000  0.020700  0.887200  1
  H  H2712  1  0.627000  0.866500  0.979300  1
  H  H2713  1  0.960333  0.779467  0.466833  1
  H  H2714  1  0.960333  0.687367  0.220533  1
  H  H2715  1  0.960333  0.533167  0.312633  1
  H  H2716  1  0.293667  0.446133  0.800167  1
  H  H2717  1  0.293667  0.354033  0.553867  1
  H  H2718  1  0.293667  0.199833  0.645967  1
  H  H2719  1  0.316700  0.893600  0.853300  1
  H  H2720  1  0.316700  0.959700  0.106400  1
  H  H2721  1  0.316700  0.146700  0.040300  1
  H  H2722  1  0.983367  0.226933  0.519967  1
  H  H2723  1  0.983367  0.293033  0.773067  1
  H  H2724  1  0.983367  0.480033  0.706967  1
  H  H2725  1  0.650033  0.560267  0.186633  1
  H  H2726  1  0.650033  0.626367  0.439733  1
  H  H2727  1  0.650033  0.813367  0.373633  1
  H  H2728  1  0.683300  0.106400  0.146700  1
  H  H2729  1  0.683300  0.040300  0.893600  1
  H  H2730  1  0.683300  0.853300  0.959700  1
  H  H2731  1  0.016633  0.773067  0.480033  1
  H  H2732  1  0.016633  0.706967  0.226933  1
  H  H2733  1  0.016633  0.519967  0.293033  1
  H  H2734  1  0.349967  0.439733  0.813367  1
  H  H2735  1  0.349967  0.373633  0.560267  1
  H  H2736  1  0.349967  0.186633  0.626367  1
  H  H2737  1  0.287400  0.862000  0.780400  1
  H  H2738  1  0.287400  0.918400  0.138000  1
  H  H2739  1  0.287400  0.219600  0.081600  1
  H  H2740  1  0.954067  0.195333  0.447067  1
  H  H2741  1  0.954067  0.251733  0.804667  1
  H  H2742  1  0.954067  0.552933  0.748267  1
  H  H2743  1  0.620733  0.528667  0.113733  1
  H  H2744  1  0.620733  0.585067  0.471333  1
  H  H2745  1  0.620733  0.886267  0.414933  1
  H  H2746  1  0.712600  0.138000  0.219600  1
  H  H2747  1  0.712600  0.081600  0.862000  1
  H  H2748  1  0.712600  0.780400  0.918400  1
  H  H2749  1  0.045933  0.804667  0.552933  1
  H  H2750  1  0.045933  0.748267  0.195333  1
  H  H2751  1  0.045933  0.447067  0.251733  1
  H  H2752  1  0.379267  0.471333  0.886267  1
  H  H2753  1  0.379267  0.414933  0.528667  1
  H  H2754  1  0.379267  0.113733  0.585067  1
  H  H2755  1  0.192100  0.895200  0.809800  1
  H  H2756  1  0.192100  0.914600  0.104800  1
  H  H2757  1  0.192100  0.190200  0.085400  1
  H  H2758  1  0.858767  0.228533  0.476467  1
  H  H2759  1  0.858767  0.247933  0.771467  1
  H  H2760  1  0.858767  0.523533  0.752067  1
  H  H2761  1  0.525433  0.561867  0.143133  1
  H  H2762  1  0.525433  0.581267  0.438133  1
  H  H2763  1  0.525433  0.856867  0.418733  1
  H  H2764  1  0.807900  0.104800  0.190200  1
  H  H2765  1  0.807900  0.085400  0.895200  1
  H  H2766  1  0.807900  0.809800  0.914600  1
  H  H2767  1  0.141233  0.771467  0.523533  1
  H  H2768  1  0.141233  0.752067  0.228533  1
  H  H2769  1  0.141233  0.476467  0.247933  1
  H  H2770  1  0.474567  0.438133  0.856867  1
  H  H2771  1  0.474567  0.418733  0.561867  1
  H  H2772  1  0.474567  0.143133  0.581267  1
  H  H2773  1  0.209100  0.897100  0.844500  1
  H  H2774  1  0.209100  0.947400  0.102900  1
  H  H2775  1  0.209100  0.155500  0.052600  1
  H  H2776  1  0.875767  0.230433  0.511167  1
  H  H2777  1  0.875767  0.280733  0.769567  1
  H  H2778  1  0.875767  0.488833  0.719267  1
  H  H2779  1  0.542433  0.563767  0.177833  1
  H  H2780  1  0.542433  0.614067  0.436233  1
  H  H2781  1  0.542433  0.822167  0.385933  1
  H  H2782  1  0.790900  0.102900  0.155500  1
  H  H2783  1  0.790900  0.052600  0.897100  1
  H  H2784  1  0.790900  0.844500  0.947400  1
  H  H2785  1  0.124233  0.769567  0.488833  1
  H  H2786  1  0.124233  0.719267  0.230433  1
  H  H2787  1  0.124233  0.511167  0.280733  1
  H  H2788  1  0.457567  0.436233  0.822167  1
  H  H2789  1  0.457567  0.385933  0.563767  1
  H  H2790  1  0.457567  0.177833  0.614067  1
  H  H2791  1  0.265200  0.881500  0.847200  1
  H  H2792  1  0.265200  0.965700  0.118500  1
  H  H2793  1  0.265200  0.152800  0.034300  1
  H  H2794  1  0.931867  0.214833  0.513867  1
  H  H2795  1  0.931867  0.299033  0.785167  1
  H  H2796  1  0.931867  0.486133  0.700967  1
  H  H2797  1  0.598533  0.548167  0.180533  1
  H  H2798  1  0.598533  0.632367  0.451833  1
  H  H2799  1  0.598533  0.819467  0.367633  1
  H  H2800  1  0.734800  0.118500  0.152800  1
  H  H2801  1  0.734800  0.034300  0.881500  1
  H  H2802  1  0.734800  0.847200  0.965700  1
  H  H2803  1  0.068133  0.785167  0.486133  1
  H  H2804  1  0.068133  0.700967  0.214833  1
  H  H2805  1  0.068133  0.513867  0.299033  1
  H  H2806  1  0.401467  0.451833  0.819467  1
  H  H2807  1  0.401467  0.367633  0.548167  1
  H  H2808  1  0.401467  0.180533  0.632367  1
  H  H2809  1  0.140900  0.854400  0.730300  1
  H  H2810  1  0.140900  0.875900  0.145600  1
  H  H2811  1  0.140900  0.269700  0.124100  1
  H  H2812  1  0.807567  0.187733  0.396967  1
  H  H2813  1  0.807567  0.209233  0.812267  1
  H  H2814  1  0.807567  0.603033  0.790767  1
  H  H2815  1  0.474233  0.521067  0.063633  1
  H  H2816  1  0.474233  0.542567  0.478933  1
  H  H2817  1  0.474233  0.936367  0.457433  1
  H  H2818  1  0.859100  0.145600  0.269700  1
  H  H2819  1  0.859100  0.124100  0.854400  1
  H  H2820  1  0.859100  0.730300  0.875900  1
  H  H2821  1  0.192433  0.812267  0.603033  1
  H  H2822  1  0.192433  0.790767  0.187733  1
  H  H2823  1  0.192433  0.396967  0.209233  1
  H  H2824  1  0.525767  0.478933  0.936367  1
  H  H2825  1  0.525767  0.457433  0.521067  1
  H  H2826  1  0.525767  0.063633  0.542567  1
  H  H2827  1  0.133100  0.855700  0.696100  1
  H  H2828  1  0.133100  0.840400  0.144300  1
  H  H2829  1  0.133100  0.303900  0.159600  1
  H  H2830  1  0.799767  0.189033  0.362767  1
  H  H2831  1  0.799767  0.173733  0.810967  1
  H  H2832  1  0.799767  0.637233  0.826267  1
  H  H2833  1  0.466433  0.522367  0.029433  1
  H  H2834  1  0.466433  0.507067  0.477633  1
  H  H2835  1  0.466433  0.970567  0.492933  1
  H  H2836  1  0.866900  0.144300  0.303900  1
  H  H2837  1  0.866900  0.159600  0.855700  1
  H  H2838  1  0.866900  0.696100  0.840400  1
  H  H2839  1  0.200233  0.810967  0.637233  1
  H  H2840  1  0.200233  0.826267  0.189033  1
  H  H2841  1  0.200233  0.362767  0.173733  1
  H  H2842  1  0.533567  0.477633  0.970567  1
  H  H2843  1  0.533567  0.492933  0.522367  1
  H  H2844  1  0.533567  0.029433  0.507067  1
  H  H2845  1  0.182400  0.867700  0.682100  1
  H  H2846  1  0.182400  0.814400  0.132300  1
  H  H2847  1  0.182400  0.317900  0.185600  1
  H  H2848  1  0.849067  0.201033  0.348767  1
  H  H2849  1  0.849067  0.147733  0.798967  1
  H  H2850  1  0.849067  0.651233  0.852267  1
  H  H2851  1  0.515733  0.534367  0.015433  1
  H  H2852  1  0.515733  0.481067  0.465633  1
  H  H2853  1  0.515733  0.984567  0.518933  1
  H  H2854  1  0.817600  0.132300  0.317900  1
  H  H2855  1  0.817600  0.185600  0.867700  1
  H  H2856  1  0.817600  0.682100  0.814400  1
  H  H2857  1  0.150933  0.798967  0.651233  1
  H  H2858  1  0.150933  0.852267  0.201033  1
  H  H2859  1  0.150933  0.348767  0.147733  1
  H  H2860  1  0.484267  0.465633  0.984567  1
  H  H2861  1  0.484267  0.518933  0.534367  1
  H  H2862  1  0.484267  0.015433  0.481067  1
  H  H2863  1  0.238100  0.877700  0.701800  1
  H  H2864  1  0.238100  0.824100  0.122300  1
  H  H2865  1  0.238100  0.298200  0.175900  1
  H  H2866  1  0.904767  0.211033  0.368467  1
  H  H2867  1  0.904767  0.157433  0.788967  1
  H  H2868  1  0.904767  0.631533  0.842567  1
  H  H2869  1  0.571433  0.544367  0.035133  1
  H  H2870  1  0.571433  0.490767  0.455633  1
  H  H2871  1  0.571433  0.964867  0.509233  1
  H  H2872  1  0.761900  0.122300  0.298200  1
  H  H2873  1  0.761900  0.175900  0.877700  1
  H  H2874  1  0.761900  0.701800  0.824100  1
  H  H2875  1  0.095233  0.788967  0.631533  1
  H  H2876  1  0.095233  0.842567  0.211033  1
  H  H2877  1  0.095233  0.368467  0.157433  1
  H  H2878  1  0.428567  0.455633  0.964867  1
  H  H2879  1  0.428567  0.509233  0.544367  1
  H  H2880  1  0.428567  0.035133  0.490767  1
  H  H2881  1  0.179300  0.862600  0.764700  1
  H  H2882  1  0.179300  0.902100  0.137400  1
  H  H2883  1  0.179300  0.235300  0.097900  1
  H  H2884  1  0.845967  0.195933  0.431367  1
  H  H2885  1  0.845967  0.235433  0.804067  1
  H  H2886  1  0.845967  0.568633  0.764567  1
  H  H2887  1  0.512633  0.529267  0.098033  1
  H  H2888  1  0.512633  0.568767  0.470733  1
  H  H2889  1  0.512633  0.901967  0.431233  1
  H  H2890  1  0.820700  0.137400  0.235300  1
  H  H2891  1  0.820700  0.097900  0.862600  1
  H  H2892  1  0.820700  0.764700  0.902100  1
  H  H2893  1  0.154033  0.804067  0.568633  1
  H  H2894  1  0.154033  0.764567  0.195933  1
  H  H2895  1  0.154033  0.431367  0.235433  1
  H  H2896  1  0.487367  0.470733  0.901967  1
  H  H2897  1  0.487367  0.431233  0.529267  1
  H  H2898  1  0.487367  0.098033  0.568767  1
  H  H2899  1  0.527400  0.856500  0.667200  1
  H  H2900  1  0.527400  0.810700  0.143500  1
  H  H2901  1  0.527400  0.332800  0.189300  1
  H  H2902  1  0.194067  0.189833  0.333867  1
  H  H2903  1  0.194067  0.144033  0.810167  1
  H  H2904  1  0.194067  0.666133  0.855967  1
  H  H2905  1  0.860733  0.523167  0.000533  1
  H  H2906  1  0.860733  0.477367  0.476833  1
  H  H2907  1  0.860733  0.999467  0.522633  1
  H  H2908  1  0.472600  0.143500  0.332800  1
  H  H2909  1  0.472600  0.189300  0.856500  1
  H  H2910  1  0.472600  0.667200  0.810700  1
  H  H2911  1  0.805933  0.810167  0.666133  1
  H  H2912  1  0.805933  0.855967  0.189833  1
  H  H2913  1  0.805933  0.333867  0.144033  1
  H  H2914  1  0.139267  0.476833  0.999467  1
  H  H2915  1  0.139267  0.522633  0.523167  1
  H  H2916  1  0.139267  0.000533  0.477367  1
  H  H2917  1  0.513700  0.836700  0.627700  1
  H  H2918  1  0.513700  0.791000  0.163300  1
  H  H2919  1  0.513700  0.372300  0.209000  1
  H  H2920  1  0.180367  0.170033  0.294367  1
  H  H2921  1  0.180367  0.124333  0.829967  1
  H  H2922  1  0.180367  0.705633  0.875667  1
  H  H2923  1  0.847033  0.503367  0.961033  1
  H  H2924  1  0.847033  0.457667  0.496633  1
  H  H2925  1  0.847033  0.038967  0.542333  1
  H  H2926  1  0.486300  0.163300  0.372300  1
  H  H2927  1  0.486300  0.209000  0.836700  1
  H  H2928  1  0.486300  0.627700  0.791000  1
  H  H2929  1  0.819633  0.829967  0.705633  1
  H  H2930  1  0.819633  0.875667  0.170033  1
  H  H2931  1  0.819633  0.294367  0.124333  1
  H  H2932  1  0.152967  0.496633  0.038967  1
  H  H2933  1  0.152967  0.542333  0.503367  1
  H  H2934  1  0.152967  0.961033  0.457667  1
  H  H2935  1  0.557800  0.812600  0.601000  1
  H  H2936  1  0.557800  0.788400  0.187400  1
  H  H2937  1  0.557800  0.399000  0.211600  1
  H  H2938  1  0.224467  0.145933  0.267667  1
  H  H2939  1  0.224467  0.121733  0.854067  1
  H  H2940  1  0.224467  0.732333  0.878267  1
  H  H2941  1  0.891133  0.479267  0.934333  1
  H  H2942  1  0.891133  0.455067  0.520733  1
  H  H2943  1  0.891133  0.065667  0.544933  1
  H  H2944  1  0.442200  0.187400  0.399000  1
  H  H2945  1  0.442200  0.211600  0.812600  1
  H  H2946  1  0.442200  0.601000  0.788400  1
  H  H2947  1  0.775533  0.854067  0.732333  1
  H  H2948  1  0.775533  0.878267  0.145933  1
  H  H2949  1  0.775533  0.267667  0.121733  1
  H  H2950  1  0.108867  0.520733  0.065667  1
  H  H2951  1  0.108867  0.544933  0.479267  1
  H  H2952  1  0.108867  0.934333  0.455067  1
  H  H2953  1  0.615500  0.808200  0.613800  1
  H  H2954  1  0.615500  0.805600  0.191800  1
  H  H2955  1  0.615500  0.386200  0.194400  1
  H  H2956  1  0.282167  0.141533  0.280467  1
  H  H2957  1  0.282167  0.138933  0.858467  1
  H  H2958  1  0.282167  0.719533  0.861067  1
  H  H2959  1  0.948833  0.474867  0.947133  1
  H  H2960  1  0.948833  0.472267  0.525133  1
  H  H2961  1  0.948833  0.052867  0.527733  1
  H  H2962  1  0.384500  0.191800  0.386200  1
  H  H2963  1  0.384500  0.194400  0.808200  1
  H  H2964  1  0.384500  0.613800  0.805600  1
  H  H2965  1  0.717833  0.858467  0.719533  1
  H  H2966  1  0.717833  0.861067  0.141533  1
  H  H2967  1  0.717833  0.280467  0.138933  1
  H  H2968  1  0.051167  0.525133  0.052867  1
  H  H2969  1  0.051167  0.527733  0.474867  1
  H  H2970  1  0.051167  0.947133  0.472267  1
  H  H2971  1  0.629100  0.827900  0.653300  1
  H  H2972  1  0.629100  0.825400  0.172100  1
  H  H2973  1  0.629100  0.346700  0.174600  1
  H  H2974  1  0.295767  0.161233  0.319967  1
  H  H2975  1  0.295767  0.158733  0.838767  1
  H  H2976  1  0.295767  0.680033  0.841267  1
  H  H2977  1  0.962433  0.494567  0.986633  1
  H  H2978  1  0.962433  0.492067  0.505433  1
  H  H2979  1  0.962433  0.013367  0.507933  1
  H  H2980  1  0.370900  0.172100  0.346700  1
  H  H2981  1  0.370900  0.174600  0.827900  1
  H  H2982  1  0.370900  0.653300  0.825400  1
  H  H2983  1  0.704233  0.838767  0.680033  1
  H  H2984  1  0.704233  0.841267  0.161233  1
  H  H2985  1  0.704233  0.319967  0.158733  1
  H  H2986  1  0.037567  0.505433  0.013367  1
  H  H2987  1  0.037567  0.507933  0.494567  1
  H  H2988  1  0.037567  0.986633  0.492067  1
  H  H2989  1  0.585100  0.852100  0.680000  1
  H  H2990  1  0.585100  0.827900  0.147900  1
  H  H2991  1  0.585100  0.320000  0.172100  1
  H  H2992  1  0.251767  0.185433  0.346667  1
  H  H2993  1  0.251767  0.161233  0.814567  1
  H  H2994  1  0.251767  0.653333  0.838767  1
  H  H2995  1  0.918433  0.518767  0.013333  1
  H  H2996  1  0.918433  0.494567  0.481233  1
  H  H2997  1  0.918433  0.986667  0.505433  1
  H  H2998  1  0.414900  0.147900  0.320000  1
  H  H2999  1  0.414900  0.172100  0.852100  1
  H  H3000  1  0.414900  0.680000  0.827900  1
  H  H3001  1  0.748233  0.814567  0.653333  1
  H  H3002  1  0.748233  0.838767  0.185433  1
  H  H3003  1  0.748233  0.346667  0.161233  1
  H  H3004  1  0.081567  0.481233  0.986667  1
  H  H3005  1  0.081567  0.505433  0.518767  1
  H  H3006  1  0.081567  0.013333  0.494567  1
  H  H3007  1  0.068800  0.970100  0.686000  1
  H  H3008  1  0.068800  0.715900  0.029900  1
  H  H3009  1  0.068800  0.314000  0.284100  1
  H  H3010  1  0.735467  0.303433  0.352667  1
  H  H3011  1  0.735467  0.049233  0.696567  1
  H  H3012  1  0.735467  0.647333  0.950767  1
  H  H3013  1  0.402133  0.636767  0.019333  1
  H  H3014  1  0.402133  0.382567  0.363233  1
  H  H3015  1  0.402133  0.980667  0.617433  1
  H  H3016  1  0.931200  0.029900  0.314000  1
  H  H3017  1  0.931200  0.284100  0.970100  1
  H  H3018  1  0.931200  0.686000  0.715900  1
  H  H3019  1  0.264533  0.696567  0.647333  1
  H  H3020  1  0.264533  0.950767  0.303433  1
  H  H3021  1  0.264533  0.352667  0.049233  1
  H  H3022  1  0.597867  0.363233  0.980667  1
  H  H3023  1  0.597867  0.617433  0.636767  1
  H  H3024  1  0.597867  0.019333  0.382567  1
  H  H3025  1  0.110500  0.956100  0.702700  1
  H  H3026  1  0.110500  0.746600  0.043900  1
  H  H3027  1  0.110500  0.297300  0.253400  1
  H  H3028  1  0.777167  0.289433  0.369367  1
  H  H3029  1  0.777167  0.079933  0.710567  1
  H  H3030  1  0.777167  0.630633  0.920067  1
  H  H3031  1  0.443833  0.622767  0.036033  1
  H  H3032  1  0.443833  0.413267  0.377233  1
  H  H3033  1  0.443833  0.963967  0.586733  1
  H  H3034  1  0.889500  0.043900  0.297300  1
  H  H3035  1  0.889500  0.253400  0.956100  1
  H  H3036  1  0.889500  0.702700  0.746600  1
  H  H3037  1  0.222833  0.710567  0.630633  1
  H  H3038  1  0.222833  0.920067  0.289433  1
  H  H3039  1  0.222833  0.369367  0.079933  1
  H  H3040  1  0.556167  0.377233  0.963967  1
  H  H3041  1  0.556167  0.586733  0.622767  1
  H  H3042  1  0.556167  0.036033  0.413267  1
  H  H3043  1  0.155700  0.980600  0.728100  1
  H  H3044  1  0.155700  0.747500  0.019400  1
  H  H3045  1  0.155700  0.271900  0.252500  1
  H  H3046  1  0.822367  0.313933  0.394767  1
  H  H3047  1  0.822367  0.080833  0.686067  1
  H  H3048  1  0.822367  0.605233  0.919167  1
  H  H3049  1  0.489033  0.647267  0.061433  1
  H  H3050  1  0.489033  0.414167  0.352733  1
  H  H3051  1  0.489033  0.938567  0.585833  1
  H  H3052  1  0.844300  0.019400  0.271900  1
  H  H3053  1  0.844300  0.252500  0.980600  1
  H  H3054  1  0.844300  0.728100  0.747500  1
  H  H3055  1  0.177633  0.686067  0.605233  1
  H  H3056  1  0.177633  0.919167  0.313933  1
  H  H3057  1  0.177633  0.394767  0.080833  1
  H  H3058  1  0.510967  0.352733  0.938567  1
  H  H3059  1  0.510967  0.585833  0.647267  1
  H  H3060  1  0.510967  0.061433  0.414167  1
  H  H3061  1  0.159200  0.019000  0.736600  1
  H  H3062  1  0.159200  0.717600  0.981000  1
  H  H3063  1  0.159200  0.263400  0.282400  1
  H  H3064  1  0.825867  0.352333  0.403267  1
  H  H3065  1  0.825867  0.050933  0.647667  1
  H  H3066  1  0.825867  0.596733  0.949067  1
  H  H3067  1  0.492533  0.685667  0.069933  1
  H  H3068  1  0.492533  0.384267  0.314333  1
  H  H3069  1  0.492533  0.930067  0.615733  1
  H  H3070  1  0.840800  0.981000  0.263400  1
  H  H3071  1  0.840800  0.282400  0.019000  1
  H  H3072  1  0.840800  0.736600  0.717600  1
  H  H3073  1  0.174133  0.647667  0.596733  1
  H  H3074  1  0.174133  0.949067  0.352333  1
  H  H3075  1  0.174133  0.403267  0.050933  1
  H  H3076  1  0.507467  0.314333  0.930067  1
  H  H3077  1  0.507467  0.615733  0.685667  1
  H  H3078  1  0.507467  0.069933  0.384267  1
  H  H3079  1  0.117500  0.033000  0.719900  1
  H  H3080  1  0.117500  0.686900  0.967000  1
  H  H3081  1  0.117500  0.280100  0.313100  1
  H  H3082  1  0.784167  0.366333  0.386567  1
  H  H3083  1  0.784167  0.020233  0.633667  1
  H  H3084  1  0.784167  0.613433  0.979767  1
  H  H3085  1  0.450833  0.699667  0.053233  1
  H  H3086  1  0.450833  0.353567  0.300333  1
  H  H3087  1  0.450833  0.946767  0.646433  1
  H  H3088  1  0.882500  0.967000  0.280100  1
  H  H3089  1  0.882500  0.313100  0.033000  1
  H  H3090  1  0.882500  0.719900  0.686900  1
  H  H3091  1  0.215833  0.633667  0.613433  1
  H  H3092  1  0.215833  0.979767  0.366333  1
  H  H3093  1  0.215833  0.386567  0.020233  1
  H  H3094  1  0.549167  0.300333  0.946767  1
  H  H3095  1  0.549167  0.646433  0.699667  1
  H  H3096  1  0.549167  0.053233  0.353567  1
  H  H3097  1  0.072300  0.008500  0.694500  1
  H  H3098  1  0.072300  0.686000  0.991500  1
  H  H3099  1  0.072300  0.305500  0.314000  1
  H  H3100  1  0.738967  0.341833  0.361167  1
  H  H3101  1  0.738967  0.019333  0.658167  1
  H  H3102  1  0.738967  0.638833  0.980667  1
  H  H3103  1  0.405633  0.675167  0.027833  1
  H  H3104  1  0.405633  0.352667  0.324833  1
  H  H3105  1  0.405633  0.972167  0.647333  1
  H  H3106  1  0.927700  0.991500  0.305500  1
  H  H3107  1  0.927700  0.314000  0.008500  1
  H  H3108  1  0.927700  0.694500  0.686000  1
  H  H3109  1  0.261033  0.658167  0.638833  1
  H  H3110  1  0.261033  0.980667  0.341833  1
  H  H3111  1  0.261033  0.361167  0.019333  1
  H  H3112  1  0.594367  0.324833  0.972167  1
  H  H3113  1  0.594367  0.647333  0.675167  1
  H  H3114  1  0.594367  0.027833  0.352667  1
  H  H3115  1  0.742500  0.889600  0.588300  1
  H  H3116  1  0.742500  0.698700  0.110400  1
  H  H3117  1  0.742500  0.411700  0.301300  1
  H  H3118  1  0.409167  0.222933  0.254967  1
  H  H3119  1  0.409167  0.032033  0.777067  1
  H  H3120  1  0.409167  0.745033  0.967967  1
  H  H3121  1  0.075833  0.556267  0.921633  1
  H  H3122  1  0.075833  0.365367  0.443733  1
  H  H3123  1  0.075833  0.078367  0.634633  1
  H  H3124  1  0.257500  0.110400  0.411700  1
  H  H3125  1  0.257500  0.301300  0.889600  1
  H  H3126  1  0.257500  0.588300  0.698700  1
  H  H3127  1  0.590833  0.777067  0.745033  1
  H  H3128  1  0.590833  0.967967  0.222933  1
  H  H3129  1  0.590833  0.254967  0.032033  1
  H  H3130  1  0.924167  0.443733  0.078367  1
  H  H3131  1  0.924167  0.634633  0.556267  1
  H  H3132  1  0.924167  0.921633  0.365367  1
  H  H3133  1  0.778000  0.888000  0.573400  1
  H  H3134  1  0.778000  0.685400  0.112000  1
  H  H3135  1  0.778000  0.426600  0.314600  1
  H  H3136  1  0.444667  0.221333  0.240067  1
  H  H3137  1  0.444667  0.018733  0.778667  1
  H  H3138  1  0.444667  0.759933  0.981267  1
  H  H3139  1  0.111333  0.554667  0.906733  1
  H  H3140  1  0.111333  0.352067  0.445333  1
  H  H3141  1  0.111333  0.093267  0.647933  1
  H  H3142  1  0.222000  0.112000  0.426600  1
  H  H3143  1  0.222000  0.314600  0.888000  1
  H  H3144  1  0.222000  0.573400  0.685400  1
  H  H3145  1  0.555333  0.778667  0.759933  1
  H  H3146  1  0.555333  0.981267  0.221333  1
  H  H3147  1  0.555333  0.240067  0.018733  1
  H  H3148  1  0.888667  0.445333  0.093267  1
  H  H3149  1  0.888667  0.647933  0.554667  1
  H  H3150  1  0.888667  0.906733  0.352067  1
  H  H3151  1  0.767100  0.912100  0.595700  1
  H  H3152  1  0.767100  0.683600  0.087900  1
  H  H3153  1  0.767100  0.404300  0.316400  1
  H  H3154  1  0.433767  0.245433  0.262367  1
  H  H3155  1  0.433767  0.016933  0.754567  1
  H  H3156  1  0.433767  0.737633  0.983067  1
  H  H3157  1  0.100433  0.578767  0.929033  1
  H  H3158  1  0.100433  0.350267  0.421233  1
  H  H3159  1  0.100433  0.070967  0.649733  1
  H  H3160  1  0.232900  0.087900  0.404300  1
  H  H3161  1  0.232900  0.316400  0.912100  1
  H  H3162  1  0.232900  0.595700  0.683600  1
  H  H3163  1  0.566233  0.754567  0.737633  1
  H  H3164  1  0.566233  0.983067  0.245433  1
  H  H3165  1  0.566233  0.262367  0.016933  1
  H  H3166  1  0.899567  0.421233  0.070967  1
  H  H3167  1  0.899567  0.649733  0.578767  1
  H  H3168  1  0.899567  0.929033  0.350267  1
  H  H3169  1  0.658300  0.817500  0.693700  1
  H  H3170  1  0.658300  0.876200  0.182500  1
  H  H3171  1  0.658300  0.306300  0.123800  1
  H  H3172  1  0.324967  0.150833  0.360367  1
  H  H3173  1  0.324967  0.209533  0.849167  1
  H  H3174  1  0.324967  0.639633  0.790467  1
  H  H3175  1  0.991633  0.484167  0.027033  1
  H  H3176  1  0.991633  0.542867  0.515833  1
  H  H3177  1  0.991633  0.972967  0.457133  1
  H  H3178  1  0.341700  0.182500  0.306300  1
  H  H3179  1  0.341700  0.123800  0.817500  1
  H  H3180  1  0.341700  0.693700  0.876200  1
  H  H3181  1  0.675033  0.849167  0.639633  1
  H  H3182  1  0.675033  0.790467  0.150833  1
  H  H3183  1  0.675033  0.360367  0.209533  1
  H  H3184  1  0.008367  0.515833  0.972967  1
  H  H3185  1  0.008367  0.457133  0.484167  1
  H  H3186  1  0.008367  0.027033  0.542867  1
  H  H3187  1  0.616000  0.821900  0.690500  1
  H  H3188  1  0.616000  0.868600  0.178100  1
  H  H3189  1  0.616000  0.309500  0.131400  1
  H  H3190  1  0.282667  0.155233  0.357167  1
  H  H3191  1  0.282667  0.201933  0.844767  1
  H  H3192  1  0.282667  0.642833  0.798067  1
  H  H3193  1  0.949333  0.488567  0.023833  1
  H  H3194  1  0.949333  0.535267  0.511433  1
  H  H3195  1  0.949333  0.976167  0.464733  1
  H  H3196  1  0.384000  0.178100  0.309500  1
  H  H3197  1  0.384000  0.131400  0.821900  1
  H  H3198  1  0.384000  0.690500  0.868600  1
  H  H3199  1  0.717333  0.844767  0.642833  1
  H  H3200  1  0.717333  0.798067  0.155233  1
  H  H3201  1  0.717333  0.357167  0.201933  1
  H  H3202  1  0.050667  0.511433  0.976167  1
  H  H3203  1  0.050667  0.464733  0.488567  1
  H  H3204  1  0.050667  0.023833  0.535267  1
  H  H3205  1  0.633200  0.796600  0.675500  1
  H  H3206  1  0.633200  0.878900  0.203400  1
  H  H3207  1  0.633200  0.324500  0.121100  1
  H  H3208  1  0.299867  0.129933  0.342167  1
  H  H3209  1  0.299867  0.212233  0.870067  1
  H  H3210  1  0.299867  0.657833  0.787767  1
  H  H3211  1  0.966533  0.463267  0.008833  1
  H  H3212  1  0.966533  0.545567  0.536733  1
  H  H3213  1  0.966533  0.991167  0.454433  1
  H  H3214  1  0.366800  0.203400  0.324500  1
  H  H3215  1  0.366800  0.121100  0.796600  1
  H  H3216  1  0.366800  0.675500  0.878900  1
  H  H3217  1  0.700133  0.870067  0.657833  1
  H  H3218  1  0.700133  0.787767  0.129933  1
  H  H3219  1  0.700133  0.342167  0.212233  1
  H  H3220  1  0.033467  0.536733  0.991167  1
  H  H3221  1  0.033467  0.454433  0.463267  1
  H  H3222  1  0.033467  0.008833  0.545567  1
  H  H3223  1  0.508400  0.833100  0.611100  1
  H  H3224  1  0.508400  0.778000  0.166900  1
  H  H3225  1  0.508400  0.388900  0.222000  1
  H  H3226  1  0.175067  0.166433  0.277767  1
  H  H3227  1  0.175067  0.111333  0.833567  1
  H  H3228  1  0.175067  0.722233  0.888667  1
  H  H3229  1  0.841733  0.499767  0.944433  1
  H  H3230  1  0.841733  0.444667  0.500233  1
  H  H3231  1  0.841733  0.055567  0.555333  1
  H  H3232  1  0.491600  0.166900  0.388900  1
  H  H3233  1  0.491600  0.222000  0.833100  1
  H  H3234  1  0.491600  0.611100  0.778000  1
  H  H3235  1  0.824933  0.833567  0.722233  1
  H  H3236  1  0.824933  0.888667  0.166433  1
  H  H3237  1  0.824933  0.277767  0.111333  1
  H  H3238  1  0.158267  0.500233  0.055567  1
  H  H3239  1  0.158267  0.555333  0.499767  1
  H  H3240  1  0.158267  0.944433  0.444667  1
  H  H3241  1  0.503600  0.853300  0.651400  1
  H  H3242  1  0.503600  0.798100  0.146700  1
  H  H3243  1  0.503600  0.348600  0.201900  1
  H  H3244  1  0.170267  0.186633  0.318067  1
  H  H3245  1  0.170267  0.131433  0.813367  1
  H  H3246  1  0.170267  0.681933  0.868567  1
  H  H3247  1  0.836933  0.519967  0.984733  1
  H  H3248  1  0.836933  0.464767  0.480033  1
  H  H3249  1  0.836933  0.015267  0.535233  1
  H  H3250  1  0.496400  0.146700  0.348600  1
  H  H3251  1  0.496400  0.201900  0.853300  1
  H  H3252  1  0.496400  0.651400  0.798100  1
  H  H3253  1  0.829733  0.813367  0.681933  1
  H  H3254  1  0.829733  0.868567  0.186633  1
  H  H3255  1  0.829733  0.318067  0.131433  1
  H  H3256  1  0.163067  0.480033  0.015267  1
  H  H3257  1  0.163067  0.535233  0.519967  1
  H  H3258  1  0.163067  0.984733  0.464767  1
  H  H3259  1  0.553400  0.854200  0.674000  1
  H  H3260  1  0.553400  0.819800  0.145800  1
  H  H3261  1  0.553400  0.326000  0.180200  1
  H  H3262  1  0.220067  0.187533  0.340667  1
  H  H3263  1  0.220067  0.153133  0.812467  1
  H  H3264  1  0.220067  0.659333  0.846867  1
  H  H3265  1  0.886733  0.520867  0.007333  1
  H  H3266  1  0.886733  0.486467  0.479133  1
  H  H3267  1  0.886733  0.992667  0.513533  1
  H  H3268  1  0.446600  0.145800  0.326000  1
  H  H3269  1  0.446600  0.180200  0.854200  1
  H  H3270  1  0.446600  0.674000  0.819800  1
  H  H3271  1  0.779933  0.812467  0.659333  1
  H  H3272  1  0.779933  0.846867  0.187533  1
  H  H3273  1  0.779933  0.340667  0.153133  1
  H  H3274  1  0.113267  0.479133  0.992667  1
  H  H3275  1  0.113267  0.513533  0.520867  1
  H  H3276  1  0.113267  0.007333  0.486467  1
  H  H3277  1  0.607900  0.834900  0.656300  1
  H  H3278  1  0.607900  0.821400  0.165100  1
  H  H3279  1  0.607900  0.343700  0.178600  1
  H  H3280  1  0.274567  0.168233  0.322967  1
  H  H3281  1  0.274567  0.154733  0.831767  1
  H  H3282  1  0.274567  0.677033  0.845267  1
  H  H3283  1  0.941233  0.501567  0.989633  1
  H  H3284  1  0.941233  0.488067  0.498433  1
  H  H3285  1  0.941233  0.010367  0.511933  1
  H  H3286  1  0.392100  0.165100  0.343700  1
  H  H3287  1  0.392100  0.178600  0.834900  1
  H  H3288  1  0.392100  0.656300  0.821400  1
  H  H3289  1  0.725433  0.831767  0.677033  1
  H  H3290  1  0.725433  0.845267  0.168233  1
  H  H3291  1  0.725433  0.322967  0.154733  1
  H  H3292  1  0.058767  0.498433  0.010367  1
  H  H3293  1  0.058767  0.511933  0.501567  1
  H  H3294  1  0.058767  0.989633  0.488067  1
  H  H3295  1  0.612700  0.814700  0.616000  1
  H  H3296  1  0.612700  0.801300  0.185300  1
  H  H3297  1  0.612700  0.384000  0.198700  1
  H  H3298  1  0.279367  0.148033  0.282667  1
  H  H3299  1  0.279367  0.134633  0.851967  1
  H  H3300  1  0.279367  0.717333  0.865367  1
  H  H3301  1  0.946033  0.481367  0.949333  1
  H  H3302  1  0.946033  0.467967  0.518633  1
  H  H3303  1  0.946033  0.050667  0.532033  1
  H  H3304  1  0.387300  0.185300  0.384000  1
  H  H3305  1  0.387300  0.198700  0.814700  1
  H  H3306  1  0.387300  0.616000  0.801300  1
  H  H3307  1  0.720633  0.851967  0.717333  1
  H  H3308  1  0.720633  0.865367  0.148033  1
  H  H3309  1  0.720633  0.282667  0.134633  1
  H  H3310  1  0.053967  0.518633  0.050667  1
  H  H3311  1  0.053967  0.532033  0.481367  1
  H  H3312  1  0.053967  0.949333  0.467967  1
  H  H3313  1  0.562900  0.813800  0.593400  1
  H  H3314  1  0.562900  0.779600  0.186200  1
  H  H3315  1  0.562900  0.406600  0.220400  1
  H  H3316  1  0.229567  0.147133  0.260067  1
  H  H3317  1  0.229567  0.112933  0.852867  1
  H  H3318  1  0.229567  0.739933  0.887067  1
  H  H3319  1  0.896233  0.480467  0.926733  1
  H  H3320  1  0.896233  0.446267  0.519533  1
  H  H3321  1  0.896233  0.073267  0.553733  1
  H  H3322  1  0.437100  0.186200  0.406600  1
  H  H3323  1  0.437100  0.220400  0.813800  1
  H  H3324  1  0.437100  0.593400  0.779600  1
  H  H3325  1  0.770433  0.852867  0.739933  1
  H  H3326  1  0.770433  0.887067  0.147133  1
  H  H3327  1  0.770433  0.260067  0.112933  1
  H  H3328  1  0.103767  0.519533  0.073267  1
  H  H3329  1  0.103767  0.553733  0.480467  1
  H  H3330  1  0.103767  0.926733  0.446267  1
  C  C3331  1  0.018200  0.958980  0.718950  1
  C  C3332  1  0.018200  0.759970  0.041020  1
  C  C3333  1  0.018200  0.281050  0.240030  1
  C  C3334  1  0.684867  0.292313  0.385617  1
  C  C3335  1  0.684867  0.093303  0.707687  1
  C  C3336  1  0.684867  0.614383  0.906697  1
  C  C3337  1  0.351533  0.625647  0.052283  1
  C  C3338  1  0.351533  0.426637  0.374353  1
  C  C3339  1  0.351533  0.947717  0.573363  1
  C  C3340  1  0.981800  0.041020  0.281050  1
  C  C3341  1  0.981800  0.240030  0.958980  1
  C  C3342  1  0.981800  0.718950  0.759970  1
  C  C3343  1  0.315133  0.707687  0.614383  1
  C  C3344  1  0.315133  0.906697  0.292313  1
  C  C3345  1  0.315133  0.385617  0.093303  1
  C  C3346  1  0.648467  0.374353  0.947717  1
  C  C3347  1  0.648467  0.573363  0.625647  1
  C  C3348  1  0.648467  0.052283  0.426637  1
  C  C3349  1  0.020800  0.938100  0.698400  1
  C  C3350  1  0.020800  0.760300  0.061900  1
  C  C3351  1  0.020800  0.301600  0.239700  1
  C  C3352  1  0.687467  0.271433  0.365067  1
  C  C3353  1  0.687467  0.093633  0.728567  1
  C  C3354  1  0.687467  0.634933  0.906367  1
  C  C3355  1  0.354133  0.604767  0.031733  1
  C  C3356  1  0.354133  0.426967  0.395233  1
  C  C3357  1  0.354133  0.968267  0.573033  1
  C  C3358  1  0.979200  0.061900  0.301600  1
  C  C3359  1  0.979200  0.239700  0.938100  1
  C  C3360  1  0.979200  0.698400  0.760300  1
  C  C3361  1  0.312533  0.728567  0.634933  1
  C  C3362  1  0.312533  0.906367  0.271433  1
  C  C3363  1  0.312533  0.365067  0.093633  1
  C  C3364  1  0.645867  0.395233  0.968267  1
  C  C3365  1  0.645867  0.573033  0.604767  1
  C  C3366  1  0.645867  0.031733  0.426967  1
  C  C3367  1  0.008000  0.918140  0.697440  1
  C  C3368  1  0.008000  0.779300  0.081860  1
  C  C3369  1  0.008000  0.302560  0.220700  1
  C  C3370  1  0.674667  0.251473  0.364107  1
  C  C3371  1  0.674667  0.112633  0.748527  1
  C  C3372  1  0.674667  0.635893  0.887367  1
  C  C3373  1  0.341333  0.584807  0.030773  1
  C  C3374  1  0.341333  0.445967  0.415193  1
  C  C3375  1  0.341333  0.969227  0.554033  1
  C  C3376  1  0.992000  0.081860  0.302560  1
  C  C3377  1  0.992000  0.220700  0.918140  1
  C  C3378  1  0.992000  0.697440  0.779300  1
  C  C3379  1  0.325333  0.748527  0.635893  1
  C  C3380  1  0.325333  0.887367  0.251473  1
  C  C3381  1  0.325333  0.364107  0.112633  1
  C  C3382  1  0.658667  0.415193  0.969227  1
  C  C3383  1  0.658667  0.554033  0.584807  1
  C  C3384  1  0.658667  0.030773  0.445967  1
  C  C3385  1  0.992600  0.919500  0.717000  1
  C  C3386  1  0.992600  0.797500  0.080500  1
  C  C3387  1  0.992600  0.283000  0.202500  1
  C  C3388  1  0.659267  0.252833  0.383667  1
  C  C3389  1  0.659267  0.130833  0.747167  1
  C  C3390  1  0.659267  0.616333  0.869167  1
  C  C3391  1  0.325933  0.586167  0.050333  1
  C  C3392  1  0.325933  0.464167  0.413833  1
  C  C3393  1  0.325933  0.949667  0.535833  1
  C  C3394  1  0.007400  0.080500  0.283000  1
  C  C3395  1  0.007400  0.202500  0.919500  1
  C  C3396  1  0.007400  0.717000  0.797500  1
  C  C3397  1  0.340733  0.747167  0.616333  1
  C  C3398  1  0.340733  0.869167  0.252833  1
  C  C3399  1  0.340733  0.383667  0.130833  1
  C  C3400  1  0.674067  0.413833  0.949667  1
  C  C3401  1  0.674067  0.535833  0.586167  1
  C  C3402  1  0.674067  0.050333  0.464167  1
  C  C3403  1  0.989800  0.940800  0.736700  1
  C  C3404  1  0.989800  0.795900  0.059200  1
  C  C3405  1  0.989800  0.263300  0.204100  1
  C  C3406  1  0.656467  0.274133  0.403367  1
  C  C3407  1  0.656467  0.129233  0.725867  1
  C  C3408  1  0.656467  0.596633  0.870767  1
  C  C3409  1  0.323133  0.607467  0.070033  1
  C  C3410  1  0.323133  0.462567  0.392533  1
  C  C3411  1  0.323133  0.929967  0.537433  1
  C  C3412  1  0.010200  0.059200  0.263300  1
  C  C3413  1  0.010200  0.204100  0.940800  1
  C  C3414  1  0.010200  0.736700  0.795900  1
  C  C3415  1  0.343533  0.725867  0.596633  1
  C  C3416  1  0.343533  0.870767  0.274133  1
  C  C3417  1  0.343533  0.403367  0.129233  1
  C  C3418  1  0.676867  0.392533  0.929967  1
  C  C3419  1  0.676867  0.537433  0.607467  1
  C  C3420  1  0.676867  0.070033  0.462567  1
  C  C3421  1  0.973700  0.944000  0.758200  1
  C  C3422  1  0.973700  0.814200  0.056000  1
  C  C3423  1  0.973700  0.241800  0.185800  1
  C  C3424  1  0.640367  0.277333  0.424867  1
  C  C3425  1  0.640367  0.147533  0.722667  1
  C  C3426  1  0.640367  0.575133  0.852467  1
  C  C3427  1  0.307033  0.610667  0.091533  1
  C  C3428  1  0.307033  0.480867  0.389333  1
  C  C3429  1  0.307033  0.908467  0.519133  1
  C  C3430  1  0.026300  0.056000  0.241800  1
  C  C3431  1  0.026300  0.185800  0.944000  1
  C  C3432  1  0.026300  0.758200  0.814200  1
  C  C3433  1  0.359633  0.722667  0.575133  1
  C  C3434  1  0.359633  0.852467  0.277333  1
  C  C3435  1  0.359633  0.424867  0.147533  1
  C  C3436  1  0.692967  0.389333  0.908467  1
  C  C3437  1  0.692967  0.519133  0.610667  1
  C  C3438  1  0.692967  0.091533  0.480867  1
  C  C3439  1  0.949900  0.965800  0.794800  1
  C  C3440  1  0.949900  0.829000  0.034200  1
  C  C3441  1  0.949900  0.205200  0.171000  1
  C  C3442  1  0.616567  0.299133  0.461467  1
  C  C3443  1  0.616567  0.162333  0.700867  1
  C  C3444  1  0.616567  0.538533  0.837667  1
  C  C3445  1  0.283233  0.632467  0.128133  1
  C  C3446  1  0.283233  0.495667  0.367533  1
  C  C3447  1  0.283233  0.871867  0.504333  1
  C  C3448  1  0.050100  0.034200  0.205200  1
  C  C3449  1  0.050100  0.171000  0.965800  1
  C  C3450  1  0.050100  0.794800  0.829000  1
  C  C3451  1  0.383433  0.700867  0.538533  1
  C  C3452  1  0.383433  0.837667  0.299133  1
  C  C3453  1  0.383433  0.461467  0.162333  1
  C  C3454  1  0.716767  0.367533  0.871867  1
  C  C3455  1  0.716767  0.504333  0.632467  1
  C  C3456  1  0.716767  0.128133  0.495667  1
  C  C3457  1  0.961100  0.983600  0.816200  1
  C  C3458  1  0.961100  0.832600  0.016400  1
  C  C3459  1  0.961100  0.183800  0.167400  1
  C  C3460  1  0.627767  0.316933  0.482867  1
  C  C3461  1  0.627767  0.165933  0.683067  1
  C  C3462  1  0.627767  0.517133  0.834067  1
  C  C3463  1  0.294433  0.650267  0.149533  1
  C  C3464  1  0.294433  0.499267  0.349733  1
  C  C3465  1  0.294433  0.850467  0.500733  1
  C  C3466  1  0.038900  0.016400  0.183800  1
  C  C3467  1  0.038900  0.167400  0.983600  1
  C  C3468  1  0.038900  0.816200  0.832600  1
  C  C3469  1  0.372233  0.683067  0.517133  1
  C  C3470  1  0.372233  0.834067  0.316933  1
  C  C3471  1  0.372233  0.482867  0.165933  1
  C  C3472  1  0.705567  0.349733  0.850467  1
  C  C3473  1  0.705567  0.500733  0.650267  1
  C  C3474  1  0.705567  0.149533  0.499267  1
  C  C3475  1  0.944800  0.986300  0.836200  1
  C  C3476  1  0.944800  0.849900  0.013700  1
  C  C3477  1  0.944800  0.163800  0.150100  1
  C  C3478  1  0.611467  0.319633  0.502867  1
  C  C3479  1  0.611467  0.183233  0.680367  1
  C  C3480  1  0.611467  0.497133  0.816767  1
  C  C3481  1  0.278133  0.652967  0.169533  1
  C  C3482  1  0.278133  0.516567  0.347033  1
  C  C3483  1  0.278133  0.830467  0.483433  1
  C  C3484  1  0.055200  0.013700  0.163800  1
  C  C3485  1  0.055200  0.150100  0.986300  1
  C  C3486  1  0.055200  0.836200  0.849900  1
  C  C3487  1  0.388533  0.680367  0.497133  1
  C  C3488  1  0.388533  0.816767  0.319633  1
  C  C3489  1  0.388533  0.502867  0.183233  1
  C  C3490  1  0.721867  0.347033  0.830467  1
  C  C3491  1  0.721867  0.483433  0.652967  1
  C  C3492  1  0.721867  0.169533  0.516567  1
  C  C3493  1  0.917300  0.971200  0.834800  1
  C  C3494  1  0.917300  0.863600  0.028800  1
  C  C3495  1  0.917300  0.165200  0.136400  1
  C  C3496  1  0.583967  0.304533  0.501467  1
  C  C3497  1  0.583967  0.196933  0.695467  1
  C  C3498  1  0.583967  0.498533  0.803067  1
  C  C3499  1  0.250633  0.637867  0.168133  1
  C  C3500  1  0.250633  0.530267  0.362133  1
  C  C3501  1  0.250633  0.831867  0.469733  1
  C  C3502  1  0.082700  0.028800  0.165200  1
  C  C3503  1  0.082700  0.136400  0.971200  1
  C  C3504  1  0.082700  0.834800  0.863600  1
  C  C3505  1  0.416033  0.695467  0.498533  1
  C  C3506  1  0.416033  0.803067  0.304533  1
  C  C3507  1  0.416033  0.501467  0.196933  1
  C  C3508  1  0.749367  0.362133  0.831867  1
  C  C3509  1  0.749367  0.469733  0.637867  1
  C  C3510  1  0.749367  0.168133  0.530267  1
  C  C3511  1  0.906100  0.953400  0.813400  1
  C  C3512  1  0.906100  0.860000  0.046600  1
  C  C3513  1  0.906100  0.186600  0.140000  1
  C  C3514  1  0.572767  0.286733  0.480067  1
  C  C3515  1  0.572767  0.193333  0.713267  1
  C  C3516  1  0.572767  0.519933  0.806667  1
  C  C3517  1  0.239433  0.620067  0.146733  1
  C  C3518  1  0.239433  0.526667  0.379933  1
  C  C3519  1  0.239433  0.853267  0.473333  1
  C  C3520  1  0.093900  0.046600  0.186600  1
  C  C3521  1  0.093900  0.140000  0.953400  1
  C  C3522  1  0.093900  0.813400  0.860000  1
  C  C3523  1  0.427233  0.713267  0.519933  1
  C  C3524  1  0.427233  0.806667  0.286733  1
  C  C3525  1  0.427233  0.480067  0.193333  1
  C  C3526  1  0.760567  0.379933  0.853267  1
  C  C3527  1  0.760567  0.473333  0.620067  1
  C  C3528  1  0.760567  0.146733  0.526667  1
  C  C3529  1  0.922500  0.950600  0.793300  1
  C  C3530  1  0.922500  0.842700  0.049400  1
  C  C3531  1  0.922500  0.206700  0.157300  1
  C  C3532  1  0.589167  0.283933  0.459967  1
  C  C3533  1  0.589167  0.176033  0.716067  1
  C  C3534  1  0.589167  0.540033  0.823967  1
  C  C3535  1  0.255833  0.617267  0.126633  1
  C  C3536  1  0.255833  0.509367  0.382733  1
  C  C3537  1  0.255833  0.873367  0.490633  1
  C  C3538  1  0.077500  0.049400  0.206700  1
  C  C3539  1  0.077500  0.157300  0.950600  1
  C  C3540  1  0.077500  0.793300  0.842700  1
  C  C3541  1  0.410833  0.716067  0.540033  1
  C  C3542  1  0.410833  0.823967  0.283933  1
  C  C3543  1  0.410833  0.459967  0.176033  1
  C  C3544  1  0.744167  0.382733  0.873367  1
  C  C3545  1  0.744167  0.490633  0.617267  1
  C  C3546  1  0.744167  0.126633  0.509367  1
  C  C3547  1  0.877200  0.936700  0.812200  1
  C  C3548  1  0.877200  0.875500  0.063300  1
  C  C3549  1  0.877200  0.187800  0.124500  1
  C  C3550  1  0.543867  0.270033  0.478867  1
  C  C3551  1  0.543867  0.208833  0.729967  1
  C  C3552  1  0.543867  0.521133  0.791167  1
  C  C3553  1  0.210533  0.603367  0.145533  1
  C  C3554  1  0.210533  0.542167  0.396633  1
  C  C3555  1  0.210533  0.854467  0.457833  1
  C  C3556  1  0.122800  0.063300  0.187800  1
  C  C3557  1  0.122800  0.124500  0.936700  1
  C  C3558  1  0.122800  0.812200  0.875500  1
  C  C3559  1  0.456133  0.729967  0.521133  1
  C  C3560  1  0.456133  0.791167  0.270033  1
  C  C3561  1  0.456133  0.478867  0.208833  1
  C  C3562  1  0.789467  0.396633  0.854467  1
  C  C3563  1  0.789467  0.457833  0.603367  1
  C  C3564  1  0.789467  0.145533  0.542167  1
  C  C3565  1  0.887700  0.913500  0.798900  1
  C  C3566  1  0.887700  0.885400  0.086500  1
  C  C3567  1  0.887700  0.201100  0.114600  1
  C  C3568  1  0.554367  0.246833  0.465567  1
  C  C3569  1  0.554367  0.218733  0.753167  1
  C  C3570  1  0.554367  0.534433  0.781267  1
  C  C3571  1  0.221033  0.580167  0.132233  1
  C  C3572  1  0.221033  0.552067  0.419833  1
  C  C3573  1  0.221033  0.867767  0.447933  1
  C  C3574  1  0.112300  0.086500  0.201100  1
  C  C3575  1  0.112300  0.114600  0.913500  1
  C  C3576  1  0.112300  0.798900  0.885400  1
  C  C3577  1  0.445633  0.753167  0.534433  1
  C  C3578  1  0.445633  0.781267  0.246833  1
  C  C3579  1  0.445633  0.465567  0.218733  1
  C  C3580  1  0.778967  0.419833  0.867767  1
  C  C3581  1  0.778967  0.447933  0.580167  1
  C  C3582  1  0.778967  0.132233  0.552067  1
  C  C3583  1  0.863200  0.896300  0.796600  1
  C  C3584  1  0.863200  0.900300  0.103700  1
  C  C3585  1  0.863200  0.203400  0.099700  1
  C  C3586  1  0.529867  0.229633  0.463267  1
  C  C3587  1  0.529867  0.233633  0.770367  1
  C  C3588  1  0.529867  0.536733  0.766367  1
  C  C3589  1  0.196533  0.562967  0.129933  1
  C  C3590  1  0.196533  0.566967  0.437033  1
  C  C3591  1  0.196533  0.870067  0.433033  1
  C  C3592  1  0.136800  0.103700  0.203400  1
  C  C3593  1  0.136800  0.099700  0.896300  1
  C  C3594  1  0.136800  0.796600  0.900300  1
  C  C3595  1  0.470133  0.770367  0.536733  1
  C  C3596  1  0.470133  0.766367  0.229633  1
  C  C3597  1  0.470133  0.463267  0.233633  1
  C  C3598  1  0.803467  0.437033  0.870067  1
  C  C3599  1  0.803467  0.433033  0.562967  1
  C  C3600  1  0.803467  0.129933  0.566967  1
  C  C3601  1  0.828600  0.901510  0.807760  1
  C  C3602  1  0.828600  0.906250  0.098490  1
  C  C3603  1  0.828600  0.192240  0.093750  1
  C  C3604  1  0.495267  0.234843  0.474427  1
  C  C3605  1  0.495267  0.239583  0.765157  1
  C  C3606  1  0.495267  0.525573  0.760417  1
  C  C3607  1  0.161933  0.568177  0.141093  1
  C  C3608  1  0.161933  0.572917  0.431823  1
  C  C3609  1  0.161933  0.858907  0.427083  1
  C  C3610  1  0.171400  0.098490  0.192240  1
  C  C3611  1  0.171400  0.093750  0.901510  1
  C  C3612  1  0.171400  0.807760  0.906250  1
  C  C3613  1  0.504733  0.765157  0.525573  1
  C  C3614  1  0.504733  0.760417  0.234843  1
  C  C3615  1  0.504733  0.474427  0.239583  1
  C  C3616  1  0.838067  0.431823  0.858907  1
  C  C3617  1  0.838067  0.427083  0.568177  1
  C  C3618  1  0.838067  0.141093  0.572917  1
  C  C3619  1  0.805700  0.884570  0.807190  1
  C  C3620  1  0.805700  0.922620  0.115430  1
  C  C3621  1  0.805700  0.192810  0.077380  1
  C  C3622  1  0.472367  0.217903  0.473857  1
  C  C3623  1  0.472367  0.255953  0.782097  1
  C  C3624  1  0.472367  0.526143  0.744047  1
  C  C3625  1  0.139033  0.551237  0.140523  1
  C  C3626  1  0.139033  0.589287  0.448763  1
  C  C3627  1  0.139033  0.859477  0.410713  1
  C  C3628  1  0.194300  0.115430  0.192810  1
  C  C3629  1  0.194300  0.077380  0.884570  1
  C  C3630  1  0.194300  0.807190  0.922620  1
  C  C3631  1  0.527633  0.782097  0.526143  1
  C  C3632  1  0.527633  0.744047  0.217903  1
  C  C3633  1  0.527633  0.473857  0.255953  1
  C  C3634  1  0.860967  0.448763  0.859477  1
  C  C3635  1  0.860967  0.410713  0.551237  1
  C  C3636  1  0.860967  0.140523  0.589287  1
  C  C3637  1  0.771800  0.890600  0.818220  1
  C  C3638  1  0.771800  0.927620  0.109400  1
  C  C3639  1  0.771800  0.181780  0.072380  1
  C  C3640  1  0.438467  0.223933  0.484887  1
  C  C3641  1  0.438467  0.260953  0.776067  1
  C  C3642  1  0.438467  0.515113  0.739047  1
  C  C3643  1  0.105133  0.557267  0.151553  1
  C  C3644  1  0.105133  0.594287  0.442733  1
  C  C3645  1  0.105133  0.848447  0.405713  1
  C  C3646  1  0.228200  0.109400  0.181780  1
  C  C3647  1  0.228200  0.072380  0.890600  1
  C  C3648  1  0.228200  0.818220  0.927620  1
  C  C3649  1  0.561533  0.776067  0.515113  1
  C  C3650  1  0.561533  0.739047  0.223933  1
  C  C3651  1  0.561533  0.484887  0.260953  1
  C  C3652  1  0.894867  0.442733  0.848447  1
  C  C3653  1  0.894867  0.405713  0.557267  1
  C  C3654  1  0.894867  0.151553  0.594287  1
  C  C3655  1  0.760700  0.913600  0.829840  1
  C  C3656  1  0.760700  0.916240  0.086400  1
  C  C3657  1  0.760700  0.170160  0.083760  1
  C  C3658  1  0.427367  0.246933  0.496507  1
  C  C3659  1  0.427367  0.249573  0.753067  1
  C  C3660  1  0.427367  0.503493  0.750427  1
  C  C3661  1  0.094033  0.580267  0.163173  1
  C  C3662  1  0.094033  0.582907  0.419733  1
  C  C3663  1  0.094033  0.836827  0.417093  1
  C  C3664  1  0.239300  0.086400  0.170160  1
  C  C3665  1  0.239300  0.083760  0.913600  1
  C  C3666  1  0.239300  0.829840  0.916240  1
  C  C3667  1  0.572633  0.753067  0.503493  1
  C  C3668  1  0.572633  0.750427  0.246933  1
  C  C3669  1  0.572633  0.496507  0.249573  1
  C  C3670  1  0.905967  0.419733  0.836827  1
  C  C3671  1  0.905967  0.417093  0.580267  1
  C  C3672  1  0.905967  0.163173  0.582907  1
  C  C3673  1  0.783600  0.930540  0.830400  1
  C  C3674  1  0.783600  0.899860  0.069460  1
  C  C3675  1  0.783600  0.169600  0.100140  1
  C  C3676  1  0.450267  0.263873  0.497067  1
  C  C3677  1  0.450267  0.233193  0.736127  1
  C  C3678  1  0.450267  0.502933  0.766807  1
  C  C3679  1  0.116933  0.597207  0.163733  1
  C  C3680  1  0.116933  0.566527  0.402793  1
  C  C3681  1  0.116933  0.836267  0.433473  1
  C  C3682  1  0.216400  0.069460  0.169600  1
  C  C3683  1  0.216400  0.100140  0.930540  1
  C  C3684  1  0.216400  0.830400  0.899860  1
  C  C3685  1  0.549733  0.736127  0.502933  1
  C  C3686  1  0.549733  0.766807  0.263873  1
  C  C3687  1  0.549733  0.497067  0.233193  1
  C  C3688  1  0.883067  0.402793  0.836267  1
  C  C3689  1  0.883067  0.433473  0.597207  1
  C  C3690  1  0.883067  0.163733  0.566527  1
  C  C3691  1  0.817500  0.924490  0.819360  1
  C  C3692  1  0.817500  0.894870  0.075510  1
  C  C3693  1  0.817500  0.180640  0.105130  1
  C  C3694  1  0.484167  0.257823  0.486027  1
  C  C3695  1  0.484167  0.228203  0.742177  1
  C  C3696  1  0.484167  0.513973  0.771797  1
  C  C3697  1  0.150833  0.591157  0.152693  1
  C  C3698  1  0.150833  0.561537  0.408843  1
  C  C3699  1  0.150833  0.847307  0.438463  1
  C  C3700  1  0.182500  0.075510  0.180640  1
  C  C3701  1  0.182500  0.105130  0.924490  1
  C  C3702  1  0.182500  0.819360  0.894870  1
  C  C3703  1  0.515833  0.742177  0.513973  1
  C  C3704  1  0.515833  0.771797  0.257823  1
  C  C3705  1  0.515833  0.486027  0.228203  1
  C  C3706  1  0.849167  0.408843  0.847307  1
  C  C3707  1  0.849167  0.438463  0.591157  1
  C  C3708  1  0.849167  0.152693  0.561537  1
  C  C3709  1  0.840400  0.941430  0.819920  1
  C  C3710  1  0.840400  0.878490  0.058570  1
  C  C3711  1  0.840400  0.180080  0.121510  1
  C  C3712  1  0.507067  0.274763  0.486587  1
  C  C3713  1  0.507067  0.211823  0.725237  1
  C  C3714  1  0.507067  0.513413  0.788177  1
  C  C3715  1  0.173733  0.608097  0.153253  1
  C  C3716  1  0.173733  0.545157  0.391903  1
  C  C3717  1  0.173733  0.846747  0.454843  1
  C  C3718  1  0.159600  0.058570  0.180080  1
  C  C3719  1  0.159600  0.121510  0.941430  1
  C  C3720  1  0.159600  0.819920  0.878490  1
  C  C3721  1  0.492933  0.725237  0.513413  1
  C  C3722  1  0.492933  0.788177  0.274763  1
  C  C3723  1  0.492933  0.486587  0.211823  1
  C  C3724  1  0.826267  0.391903  0.846747  1
  C  C3725  1  0.826267  0.454843  0.608097  1
  C  C3726  1  0.826267  0.153253  0.545157  1
  C  C3727  1  0.829300  0.964410  0.831520  1
  C  C3728  1  0.829300  0.867110  0.035590  1
  C  C3729  1  0.829300  0.168480  0.132890  1
  C  C3730  1  0.495967  0.297743  0.498187  1
  C  C3731  1  0.495967  0.200443  0.702257  1
  C  C3732  1  0.495967  0.501813  0.799557  1
  C  C3733  1  0.162633  0.631077  0.164853  1
  C  C3734  1  0.162633  0.533777  0.368923  1
  C  C3735  1  0.162633  0.835147  0.466223  1
  C  C3736  1  0.170700  0.035590  0.168480  1
  C  C3737  1  0.170700  0.132890  0.964410  1
  C  C3738  1  0.170700  0.831520  0.867110  1
  C  C3739  1  0.504033  0.702257  0.501813  1
  C  C3740  1  0.504033  0.799557  0.297743  1
  C  C3741  1  0.504033  0.498187  0.200443  1
  C  C3742  1  0.837367  0.368923  0.835147  1
  C  C3743  1  0.837367  0.466223  0.631077  1
  C  C3744  1  0.837367  0.164853  0.533777  1
  C  C3745  1  0.795400  0.970460  0.842570  1
  C  C3746  1  0.795400  0.872110  0.029540  1
  C  C3747  1  0.795400  0.157430  0.127890  1
  C  C3748  1  0.462067  0.303793  0.509237  1
  C  C3749  1  0.462067  0.205443  0.696207  1
  C  C3750  1  0.462067  0.490763  0.794557  1
  C  C3751  1  0.128733  0.637127  0.175903  1
  C  C3752  1  0.128733  0.538777  0.362873  1
  C  C3753  1  0.128733  0.824097  0.461223  1
  C  C3754  1  0.204600  0.029540  0.157430  1
  C  C3755  1  0.204600  0.127890  0.970460  1
  C  C3756  1  0.204600  0.842570  0.872110  1
  C  C3757  1  0.537933  0.696207  0.490763  1
  C  C3758  1  0.537933  0.794557  0.303793  1
  C  C3759  1  0.537933  0.509237  0.205443  1
  C  C3760  1  0.871267  0.362873  0.824097  1
  C  C3761  1  0.871267  0.461223  0.637127  1
  C  C3762  1  0.871267  0.175903  0.538777  1
  C  C3763  1  0.772500  0.953520  0.842020  1
  C  C3764  1  0.772500  0.888500  0.046480  1
  C  C3765  1  0.772500  0.157980  0.111500  1
  C  C3766  1  0.439167  0.286853  0.508687  1
  C  C3767  1  0.439167  0.221833  0.713147  1
  C  C3768  1  0.439167  0.491313  0.778167  1
  C  C3769  1  0.105833  0.620187  0.175353  1
  C  C3770  1  0.105833  0.555167  0.379813  1
  C  C3771  1  0.105833  0.824647  0.444833  1
  C  C3772  1  0.227500  0.046480  0.157980  1
  C  C3773  1  0.227500  0.111500  0.953520  1
  C  C3774  1  0.227500  0.842020  0.888500  1
  C  C3775  1  0.560833  0.713147  0.491313  1
  C  C3776  1  0.560833  0.778167  0.286853  1
  C  C3777  1  0.560833  0.508687  0.221833  1
  C  C3778  1  0.894167  0.379813  0.824647  1
  C  C3779  1  0.894167  0.444833  0.620187  1
  C  C3780  1  0.894167  0.175353  0.555167  1
  C  C3781  1  0.736300  0.958700  0.850600  1
  C  C3782  1  0.736300  0.891900  0.041300  1
  C  C3783  1  0.736300  0.149400  0.108100  1
  C  C3784  1  0.402967  0.292033  0.517267  1
  C  C3785  1  0.402967  0.225233  0.707967  1
  C  C3786  1  0.402967  0.482733  0.774767  1
  C  C3787  1  0.069633  0.625367  0.183933  1
  C  C3788  1  0.069633  0.558567  0.374633  1
  C  C3789  1  0.069633  0.816067  0.441433  1
  C  C3790  1  0.263700  0.041300  0.149400  1
  C  C3791  1  0.263700  0.108100  0.958700  1
  C  C3792  1  0.263700  0.850600  0.891900  1
  C  C3793  1  0.597033  0.707967  0.482733  1
  C  C3794  1  0.597033  0.774767  0.292033  1
  C  C3795  1  0.597033  0.517267  0.225233  1
  C  C3796  1  0.930367  0.374633  0.816067  1
  C  C3797  1  0.930367  0.441433  0.625367  1
  C  C3798  1  0.930367  0.183933  0.558567  1
  C  C3799  1  0.714600  0.941100  0.849500  1
  C  C3800  1  0.714600  0.908400  0.058900  1
  C  C3801  1  0.714600  0.150500  0.091600  1
  C  C3802  1  0.381267  0.274433  0.516167  1
  C  C3803  1  0.381267  0.241733  0.725567  1
  C  C3804  1  0.381267  0.483833  0.758267  1
  C  C3805  1  0.047933  0.607767  0.182833  1
  C  C3806  1  0.047933  0.575067  0.392233  1
  C  C3807  1  0.047933  0.817167  0.424933  1
  C  C3808  1  0.285400  0.058900  0.150500  1
  C  C3809  1  0.285400  0.091600  0.941100  1
  C  C3810  1  0.285400  0.849500  0.908400  1
  C  C3811  1  0.618733  0.725567  0.483833  1
  C  C3812  1  0.618733  0.758267  0.274433  1
  C  C3813  1  0.618733  0.516167  0.241733  1
  C  C3814  1  0.952067  0.392233  0.817167  1
  C  C3815  1  0.952067  0.424933  0.607767  1
  C  C3816  1  0.952067  0.182833  0.575067  1
  C  C3817  1  0.725900  0.918100  0.840100  1
  C  C3818  1  0.725900  0.922000  0.081900  1
  C  C3819  1  0.725900  0.159900  0.078000  1
  C  C3820  1  0.392567  0.251433  0.506767  1
  C  C3821  1  0.392567  0.255333  0.748567  1
  C  C3822  1  0.392567  0.493233  0.744667  1
  C  C3823  1  0.059233  0.584767  0.173433  1
  C  C3824  1  0.059233  0.588667  0.415233  1
  C  C3825  1  0.059233  0.826567  0.411333  1
  C  C3826  1  0.274100  0.081900  0.159900  1
  C  C3827  1  0.274100  0.078000  0.918100  1
  C  C3828  1  0.274100  0.840100  0.922000  1
  C  C3829  1  0.607433  0.748567  0.493233  1
  C  C3830  1  0.607433  0.744667  0.251433  1
  C  C3831  1  0.607433  0.506767  0.255333  1
  C  C3832  1  0.940767  0.415233  0.826567  1
  C  C3833  1  0.940767  0.411333  0.584767  1
  C  C3834  1  0.940767  0.173433  0.588667  1
  C  C3835  1  0.698700  0.901500  0.840900  1
  C  C3836  1  0.698700  0.939400  0.098500  1
  C  C3837  1  0.698700  0.159100  0.060600  1
  C  C3838  1  0.365367  0.234833  0.507567  1
  C  C3839  1  0.365367  0.272733  0.765167  1
  C  C3840  1  0.365367  0.492433  0.727267  1
  C  C3841  1  0.032033  0.568167  0.174233  1
  C  C3842  1  0.032033  0.606067  0.431833  1
  C  C3843  1  0.032033  0.825767  0.393933  1
  C  C3844  1  0.301300  0.098500  0.159100  1
  C  C3845  1  0.301300  0.060600  0.901500  1
  C  C3846  1  0.301300  0.840900  0.939400  1
  C  C3847  1  0.634633  0.765167  0.492433  1
  C  C3848  1  0.634633  0.727267  0.234833  1
  C  C3849  1  0.634633  0.507567  0.272733  1
  C  C3850  1  0.967967  0.431833  0.825767  1
  C  C3851  1  0.967967  0.393933  0.568167  1
  C  C3852  1  0.967967  0.174233  0.606067  1
  C  C3853  1  0.708000  0.888300  0.851000  1
  C  C3854  1  0.708000  0.962700  0.111700  1
  C  C3855  1  0.708000  0.149000  0.037300  1
  C  C3856  1  0.374667  0.221633  0.517667  1
  C  C3857  1  0.374667  0.296033  0.778367  1
  C  C3858  1  0.374667  0.482333  0.703967  1
  C  C3859  1  0.041333  0.554967  0.184333  1
  C  C3860  1  0.041333  0.629367  0.445033  1
  C  C3861  1  0.041333  0.815667  0.370633  1
  C  C3862  1  0.292000  0.111700  0.149000  1
  C  C3863  1  0.292000  0.037300  0.888300  1
  C  C3864  1  0.292000  0.851000  0.962700  1
  C  C3865  1  0.625333  0.778367  0.482333  1
  C  C3866  1  0.625333  0.703967  0.221633  1
  C  C3867  1  0.625333  0.517667  0.296033  1
  C  C3868  1  0.958667  0.445033  0.815667  1
  C  C3869  1  0.958667  0.370633  0.554967  1
  C  C3870  1  0.958667  0.184333  0.629367  1
  C  C3871  1  0.681700  0.874200  0.852830  1
  C  C3872  1  0.681700  0.978630  0.125800  1
  C  C3873  1  0.681700  0.147170  0.021370  1
  C  C3874  1  0.348367  0.207533  0.519497  1
  C  C3875  1  0.348367  0.311963  0.792467  1
  C  C3876  1  0.348367  0.480503  0.688037  1
  C  C3877  1  0.015033  0.540867  0.186163  1
  C  C3878  1  0.015033  0.645297  0.459133  1
  C  C3879  1  0.015033  0.813837  0.354703  1
  C  C3880  1  0.318300  0.125800  0.147170  1
  C  C3881  1  0.318300  0.021370  0.874200  1
  C  C3882  1  0.318300  0.852830  0.978630  1
  C  C3883  1  0.651633  0.792467  0.480503  1
  C  C3884  1  0.651633  0.688037  0.207533  1
  C  C3885  1  0.651633  0.519497  0.311963  1
  C  C3886  1  0.984967  0.459133  0.813837  1
  C  C3887  1  0.984967  0.354703  0.540867  1
  C  C3888  1  0.984967  0.186163  0.645297  1
  C  C3889  1  0.646200  0.873300  0.844700  1
  C  C3890  1  0.646200  0.971400  0.126700  1
  C  C3891  1  0.646200  0.155300  0.028600  1
  C  C3892  1  0.312867  0.206633  0.511367  1
  C  C3893  1  0.312867  0.304733  0.793367  1
  C  C3894  1  0.312867  0.488633  0.695267  1
  C  C3895  1  0.979533  0.539967  0.178033  1
  C  C3896  1  0.979533  0.638067  0.460033  1
  C  C3897  1  0.979533  0.821967  0.361933  1
  C  C3898  1  0.353800  0.126700  0.155300  1
  C  C3899  1  0.353800  0.028600  0.873300  1
  C  C3900  1  0.353800  0.844700  0.971400  1
  C  C3901  1  0.687133  0.793367  0.488633  1
  C  C3902  1  0.687133  0.695267  0.206633  1
  C  C3903  1  0.687133  0.511367  0.304733  1
  C  C3904  1  0.020467  0.460033  0.821967  1
  C  C3905  1  0.020467  0.361933  0.539967  1
  C  C3906  1  0.020467  0.178033  0.638067  1
  C  C3907  1  0.637000  0.886500  0.834600  1
  C  C3908  1  0.637000  0.948100  0.113500  1
  C  C3909  1  0.637000  0.165400  0.051900  1
  C  C3910  1  0.303667  0.219833  0.501267  1
  C  C3911  1  0.303667  0.281433  0.780167  1
  C  C3912  1  0.303667  0.498733  0.718567  1
  C  C3913  1  0.970333  0.553167  0.167933  1
  C  C3914  1  0.970333  0.614767  0.446833  1
  C  C3915  1  0.970333  0.832067  0.385233  1
  C  C3916  1  0.363000  0.113500  0.165400  1
  C  C3917  1  0.363000  0.051900  0.886500  1
  C  C3918  1  0.363000  0.834600  0.948100  1
  C  C3919  1  0.696333  0.780167  0.498733  1
  C  C3920  1  0.696333  0.718567  0.219833  1
  C  C3921  1  0.696333  0.501267  0.281433  1
  C  C3922  1  0.029667  0.446833  0.832067  1
  C  C3923  1  0.029667  0.385233  0.553167  1
  C  C3924  1  0.029667  0.167933  0.614767  1
  C  C3925  1  0.663300  0.900600  0.832760  1
  C  C3926  1  0.663300  0.932160  0.099400  1
  C  C3927  1  0.663300  0.167240  0.067840  1
  C  C3928  1  0.329967  0.233933  0.499427  1
  C  C3929  1  0.329967  0.265493  0.766067  1
  C  C3930  1  0.329967  0.500573  0.734507  1
  C  C3931  1  0.996633  0.567267  0.166093  1
  C  C3932  1  0.996633  0.598827  0.432733  1
  C  C3933  1  0.996633  0.833907  0.401173  1
  C  C3934  1  0.336700  0.099400  0.167240  1
  C  C3935  1  0.336700  0.067840  0.900600  1
  C  C3936  1  0.336700  0.832760  0.932160  1
  C  C3937  1  0.670033  0.766067  0.500573  1
  C  C3938  1  0.670033  0.734507  0.233933  1
  C  C3939  1  0.670033  0.499427  0.265493  1
  C  C3940  1  0.003367  0.432733  0.833907  1
  C  C3941  1  0.003367  0.401173  0.567267  1
  C  C3942  1  0.003367  0.166093  0.598827  1
  C  C3943  1  0.574600  0.890300  0.839300  1
  C  C3944  1  0.574600  0.949000  0.109700  1
  C  C3945  1  0.574600  0.160700  0.051000  1
  C  C3946  1  0.241267  0.223633  0.505967  1
  C  C3947  1  0.241267  0.282333  0.776367  1
  C  C3948  1  0.241267  0.494033  0.717667  1
  C  C3949  1  0.907933  0.556967  0.172633  1
  C  C3950  1  0.907933  0.615667  0.443033  1
  C  C3951  1  0.907933  0.827367  0.384333  1
  C  C3952  1  0.425400  0.109700  0.160700  1
  C  C3953  1  0.425400  0.051000  0.890300  1
  C  C3954  1  0.425400  0.839300  0.949000  1
  C  C3955  1  0.758733  0.776367  0.494033  1
  C  C3956  1  0.758733  0.717667  0.223633  1
  C  C3957  1  0.758733  0.505967  0.282333  1
  C  C3958  1  0.092067  0.443033  0.827367  1
  C  C3959  1  0.092067  0.384333  0.556967  1
  C  C3960  1  0.092067  0.172633  0.615667  1
  C  C3961  1  0.537900  0.889440  0.830130  1
  C  C3962  1  0.537900  0.940690  0.110560  1
  C  C3963  1  0.537900  0.169870  0.059310  1
  C  C3964  1  0.204567  0.222773  0.496797  1
  C  C3965  1  0.204567  0.274023  0.777227  1
  C  C3966  1  0.204567  0.503203  0.725977  1
  C  C3967  1  0.871233  0.556107  0.163463  1
  C  C3968  1  0.871233  0.607357  0.443893  1
  C  C3969  1  0.871233  0.836537  0.392643  1
  C  C3970  1  0.462100  0.110560  0.169870  1
  C  C3971  1  0.462100  0.059310  0.889440  1
  C  C3972  1  0.462100  0.830130  0.940690  1
  C  C3973  1  0.795433  0.777227  0.503203  1
  C  C3974  1  0.795433  0.725977  0.222773  1
  C  C3975  1  0.795433  0.496797  0.274023  1
  C  C3976  1  0.128767  0.443893  0.836537  1
  C  C3977  1  0.128767  0.392643  0.556107  1
  C  C3978  1  0.128767  0.163463  0.607357  1
  C  C3979  1  0.508100  0.897110  0.844870  1
  C  C3980  1  0.508100  0.947760  0.102890  1
  C  C3981  1  0.508100  0.155130  0.052240  1
  C  C3982  1  0.174767  0.230443  0.511537  1
  C  C3983  1  0.174767  0.281093  0.769557  1
  C  C3984  1  0.174767  0.488463  0.718907  1
  C  C3985  1  0.841433  0.563777  0.178203  1
  C  C3986  1  0.841433  0.614427  0.436223  1
  C  C3987  1  0.841433  0.821797  0.385573  1
  C  C3988  1  0.491900  0.102890  0.155130  1
  C  C3989  1  0.491900  0.052240  0.897110  1
  C  C3990  1  0.491900  0.844870  0.947760  1
  C  C3991  1  0.825233  0.769557  0.488463  1
  C  C3992  1  0.825233  0.718907  0.230443  1
  C  C3993  1  0.825233  0.511537  0.281093  1
  C  C3994  1  0.158567  0.436223  0.821797  1
  C  C3995  1  0.158567  0.385573  0.563777  1
  C  C3996  1  0.158567  0.178203  0.614427  1
  C  C3997  1  0.474000  0.897710  0.836030  1
  C  C3998  1  0.474000  0.938320  0.102290  1
  C  C3999  1  0.474000  0.163970  0.061680  1
  C  C4000  1  0.140667  0.231043  0.502697  1
  C  C4001  1  0.140667  0.271653  0.768957  1
  C  C4002  1  0.140667  0.497303  0.728347  1
  C  C4003  1  0.807333  0.564377  0.169363  1
  C  C4004  1  0.807333  0.604987  0.435623  1
  C  C4005  1  0.807333  0.830637  0.395013  1
  C  C4006  1  0.526000  0.102290  0.163970  1
  C  C4007  1  0.526000  0.061680  0.897710  1
  C  C4008  1  0.526000  0.836030  0.938320  1
  C  C4009  1  0.859333  0.768957  0.497303  1
  C  C4010  1  0.859333  0.728347  0.231043  1
  C  C4011  1  0.859333  0.502697  0.271653  1
  C  C4012  1  0.192667  0.435623  0.830637  1
  C  C4013  1  0.192667  0.395013  0.564377  1
  C  C4014  1  0.192667  0.169363  0.604987  1
  C  C4015  1  0.470700  0.890110  0.812680  1
  C  C4016  1  0.470700  0.922570  0.109890  1
  C  C4017  1  0.470700  0.187320  0.077430  1
  C  C4018  1  0.137367  0.223443  0.479347  1
  C  C4019  1  0.137367  0.255903  0.776557  1
  C  C4020  1  0.137367  0.520653  0.744097  1
  C  C4021  1  0.804033  0.556777  0.146013  1
  C  C4022  1  0.804033  0.589237  0.443223  1
  C  C4023  1  0.804033  0.853987  0.410763  1
  C  C4024  1  0.529300  0.109890  0.187320  1
  C  C4025  1  0.529300  0.077430  0.890110  1
  C  C4026  1  0.529300  0.812680  0.922570  1
  C  C4027  1  0.862633  0.776557  0.520653  1
  C  C4028  1  0.862633  0.744097  0.223443  1
  C  C4029  1  0.862633  0.479347  0.255903  1
  C  C4030  1  0.195967  0.443223  0.853987  1
  C  C4031  1  0.195967  0.410763  0.556777  1
  C  C4032  1  0.195967  0.146013  0.589237  1
  C  C4033  1  0.501500  0.881970  0.798610  1
  C  C4034  1  0.501500  0.916640  0.118030  1
  C  C4035  1  0.501500  0.201390  0.083360  1
  C  C4036  1  0.168167  0.215303  0.465277  1
  C  C4037  1  0.168167  0.249973  0.784697  1
  C  C4038  1  0.168167  0.534723  0.750027  1
  C  C4039  1  0.834833  0.548637  0.131943  1
  C  C4040  1  0.834833  0.583307  0.451363  1
  C  C4041  1  0.834833  0.868057  0.416693  1
  C  C4042  1  0.498500  0.118030  0.201390  1
  C  C4043  1  0.498500  0.083360  0.881970  1
  C  C4044  1  0.498500  0.798610  0.916640  1
  C  C4045  1  0.831833  0.784697  0.534723  1
  C  C4046  1  0.831833  0.750027  0.215303  1
  C  C4047  1  0.831833  0.465277  0.249973  1
  C  C4048  1  0.165167  0.451363  0.868057  1
  C  C4049  1  0.165167  0.416693  0.548637  1
  C  C4050  1  0.165167  0.131943  0.583307  1
  C  C4051  1  0.004500  0.036660  0.815690  1
  C  C4052  1  0.004500  0.779030  0.963340  1
  C  C4053  1  0.004500  0.184310  0.220970  1
  C  C4054  1  0.671167  0.369993  0.482357  1
  C  C4055  1  0.671167  0.112363  0.630007  1
  C  C4056  1  0.671167  0.517643  0.887637  1
  C  C4057  1  0.337833  0.703327  0.149023  1
  C  C4058  1  0.337833  0.445697  0.296673  1
  C  C4059  1  0.337833  0.850977  0.554303  1
  C  C4060  1  0.995500  0.963340  0.184310  1
  C  C4061  1  0.995500  0.220970  0.036660  1
  C  C4062  1  0.995500  0.815690  0.779030  1
  C  C4063  1  0.328833  0.630007  0.517643  1
  C  C4064  1  0.328833  0.887637  0.369993  1
  C  C4065  1  0.328833  0.482357  0.112363  1
  C  C4066  1  0.662167  0.296673  0.850977  1
  C  C4067  1  0.662167  0.554303  0.703327  1
  C  C4068  1  0.662167  0.149023  0.445697  1
  C  C4069  1  0.994400  0.058430  0.833220  1
  C  C4070  1  0.994400  0.774790  0.941570  1
  C  C4071  1  0.994400  0.166780  0.225210  1
  C  C4072  1  0.661067  0.391763  0.499887  1
  C  C4073  1  0.661067  0.108123  0.608237  1
  C  C4074  1  0.661067  0.500113  0.891877  1
  C  C4075  1  0.327733  0.725097  0.166553  1
  C  C4076  1  0.327733  0.441457  0.274903  1
  C  C4077  1  0.327733  0.833447  0.558543  1
  C  C4078  1  0.005600  0.941570  0.166780  1
  C  C4079  1  0.005600  0.225210  0.058430  1
  C  C4080  1  0.005600  0.833220  0.774790  1
  C  C4081  1  0.338933  0.608237  0.500113  1
  C  C4082  1  0.338933  0.891877  0.391763  1
  C  C4083  1  0.338933  0.499887  0.108123  1
  C  C4084  1  0.672267  0.274903  0.833447  1
  C  C4085  1  0.672267  0.558543  0.725097  1
  C  C4086  1  0.672267  0.166553  0.441457  1
  C  C4087  1  0.959400  0.066630  0.833330  1
  C  C4088  1  0.959400  0.766700  0.933370  1
  C  C4089  1  0.959400  0.166670  0.233300  1
  C  C4090  1  0.626067  0.399963  0.499997  1
  C  C4091  1  0.626067  0.100033  0.600037  1
  C  C4092  1  0.626067  0.500003  0.899967  1
  C  C4093  1  0.292733  0.733297  0.166663  1
  C  C4094  1  0.292733  0.433367  0.266703  1
  C  C4095  1  0.292733  0.833337  0.566633  1
  C  C4096  1  0.040600  0.933370  0.166670  1
  C  C4097  1  0.040600  0.233300  0.066630  1
  C  C4098  1  0.040600  0.833330  0.766700  1
  C  C4099  1  0.373933  0.600037  0.500003  1
  C  C4100  1  0.373933  0.899967  0.399963  1
  C  C4101  1  0.373933  0.499997  0.100033  1
  C  C4102  1  0.707267  0.266703  0.833337  1
  C  C4103  1  0.707267  0.566633  0.733297  1
  C  C4104  1  0.707267  0.166663  0.433367  1
  C  C4105  1  0.935100  0.052820  0.816000  1
  C  C4106  1  0.935100  0.763180  0.947180  1
  C  C4107  1  0.935100  0.184000  0.236820  1
  C  C4108  1  0.601767  0.386153  0.482667  1
  C  C4109  1  0.601767  0.096513  0.613847  1
  C  C4110  1  0.601767  0.517333  0.903487  1
  C  C4111  1  0.268433  0.719487  0.149333  1
  C  C4112  1  0.268433  0.429847  0.280513  1
  C  C4113  1  0.268433  0.850667  0.570153  1
  C  C4114  1  0.064900  0.947180  0.184000  1
  C  C4115  1  0.064900  0.236820  0.052820  1
  C  C4116  1  0.064900  0.816000  0.763180  1
  C  C4117  1  0.398233  0.613847  0.517333  1
  C  C4118  1  0.398233  0.903487  0.386153  1
  C  C4119  1  0.398233  0.482667  0.096513  1
  C  C4120  1  0.731567  0.280513  0.850667  1
  C  C4121  1  0.731567  0.570153  0.719487  1
  C  C4122  1  0.731567  0.149333  0.429847  1
  C  C4123  1  0.946400  0.031060  0.799370  1
  C  C4124  1  0.946400  0.768310  0.968940  1
  C  C4125  1  0.946400  0.200630  0.231690  1
  C  C4126  1  0.613067  0.364393  0.466037  1
  C  C4127  1  0.613067  0.101643  0.635607  1
  C  C4128  1  0.613067  0.533963  0.898357  1
  C  C4129  1  0.279733  0.697727  0.132703  1
  C  C4130  1  0.279733  0.434977  0.302273  1
  C  C4131  1  0.279733  0.867297  0.565023  1
  C  C4132  1  0.053600  0.968940  0.200630  1
  C  C4133  1  0.053600  0.231690  0.031060  1
  C  C4134  1  0.053600  0.799370  0.768310  1
  C  C4135  1  0.386933  0.635607  0.533963  1
  C  C4136  1  0.386933  0.898357  0.364393  1
  C  C4137  1  0.386933  0.466037  0.101643  1
  C  C4138  1  0.720267  0.302273  0.867297  1
  C  C4139  1  0.720267  0.565023  0.697727  1
  C  C4140  1  0.720267  0.132703  0.434977  1
  C  C4141  1  0.924200  0.012800  0.780800  1
  C  C4142  1  0.924200  0.768000  0.987200  1
  C  C4143  1  0.924200  0.219200  0.232000  1
  C  C4144  1  0.590867  0.346133  0.447467  1
  C  C4145  1  0.590867  0.101333  0.653867  1
  C  C4146  1  0.590867  0.552533  0.898667  1
  C  C4147  1  0.257533  0.679467  0.114133  1
  C  C4148  1  0.257533  0.434667  0.320533  1
  C  C4149  1  0.257533  0.885867  0.565333  1
  C  C4150  1  0.075800  0.987200  0.219200  1
  C  C4151  1  0.075800  0.232000  0.012800  1
  C  C4152  1  0.075800  0.780800  0.768000  1
  C  C4153  1  0.409133  0.653867  0.552533  1
  C  C4154  1  0.409133  0.898667  0.346133  1
  C  C4155  1  0.409133  0.447467  0.101333  1
  C  C4156  1  0.742467  0.320533  0.885867  1
  C  C4157  1  0.742467  0.565333  0.679467  1
  C  C4158  1  0.742467  0.114133  0.434667  1
  C  C4159  1  0.912000  0.977440  0.747090  1
  C  C4160  1  0.912000  0.769650  0.022560  1
  C  C4161  1  0.912000  0.252910  0.230350  1
  C  C4162  1  0.578667  0.310773  0.413757  1
  C  C4163  1  0.578667  0.102983  0.689227  1
  C  C4164  1  0.578667  0.586243  0.897017  1
  C  C4165  1  0.245333  0.644107  0.080423  1
  C  C4166  1  0.245333  0.436317  0.355893  1
  C  C4167  1  0.245333  0.919577  0.563683  1
  C  C4168  1  0.088000  0.022560  0.252910  1
  C  C4169  1  0.088000  0.230350  0.977440  1
  C  C4170  1  0.088000  0.747090  0.769650  1
  C  C4171  1  0.421333  0.689227  0.586243  1
  C  C4172  1  0.421333  0.897017  0.310773  1
  C  C4173  1  0.421333  0.413757  0.102983  1
  C  C4174  1  0.754667  0.355893  0.919577  1
  C  C4175  1  0.754667  0.563683  0.644107  1
  C  C4176  1  0.754667  0.080423  0.436317  1
  C  C4177  1  0.918400  0.966660  0.723460  1
  C  C4178  1  0.918400  0.756800  0.033340  1
  C  C4179  1  0.918400  0.276540  0.243200  1
  C  C4180  1  0.585067  0.299993  0.390127  1
  C  C4181  1  0.585067  0.090133  0.700007  1
  C  C4182  1  0.585067  0.609873  0.909867  1
  C  C4183  1  0.251733  0.633327  0.056793  1
  C  C4184  1  0.251733  0.423467  0.366673  1
  C  C4185  1  0.251733  0.943207  0.576533  1
  C  C4186  1  0.081600  0.033340  0.276540  1
  C  C4187  1  0.081600  0.243200  0.966660  1
  C  C4188  1  0.081600  0.723460  0.756800  1
  C  C4189  1  0.414933  0.700007  0.609873  1
  C  C4190  1  0.414933  0.909867  0.299993  1
  C  C4191  1  0.414933  0.390127  0.090133  1
  C  C4192  1  0.748267  0.366673  0.943207  1
  C  C4193  1  0.748267  0.576533  0.633327  1
  C  C4194  1  0.748267  0.056793  0.423467  1
  C  C4195  1  0.897300  0.947740  0.708310  1
  C  C4196  1  0.897300  0.760570  0.052260  1
  C  C4197  1  0.897300  0.291690  0.239430  1
  C  C4198  1  0.563967  0.281073  0.374977  1
  C  C4199  1  0.563967  0.093903  0.718927  1
  C  C4200  1  0.563967  0.625023  0.906097  1
  C  C4201  1  0.230633  0.614407  0.041643  1
  C  C4202  1  0.230633  0.427237  0.385593  1
  C  C4203  1  0.230633  0.958357  0.572763  1
  C  C4204  1  0.102700  0.052260  0.291690  1
  C  C4205  1  0.102700  0.239430  0.947740  1
  C  C4206  1  0.102700  0.708310  0.760570  1
  C  C4207  1  0.436033  0.718927  0.625023  1
  C  C4208  1  0.436033  0.906097  0.281073  1
  C  C4209  1  0.436033  0.374977  0.093903  1
  C  C4210  1  0.769367  0.385593  0.958357  1
  C  C4211  1  0.769367  0.572763  0.614407  1
  C  C4212  1  0.769367  0.041643  0.427237  1
  C  C4213  1  0.869800  0.939620  0.716810  1
  C  C4214  1  0.869800  0.777190  0.060380  1
  C  C4215  1  0.869800  0.283190  0.222810  1
  C  C4216  1  0.536467  0.272953  0.383477  1
  C  C4217  1  0.536467  0.110523  0.727047  1
  C  C4218  1  0.536467  0.616523  0.889477  1
  C  C4219  1  0.203133  0.606287  0.050143  1
  C  C4220  1  0.203133  0.443857  0.393713  1
  C  C4221  1  0.203133  0.949857  0.556143  1
  C  C4222  1  0.130200  0.060380  0.283190  1
  C  C4223  1  0.130200  0.222810  0.939620  1
  C  C4224  1  0.130200  0.716810  0.777190  1
  C  C4225  1  0.463533  0.727047  0.616523  1
  C  C4226  1  0.463533  0.889477  0.272953  1
  C  C4227  1  0.463533  0.383477  0.110523  1
  C  C4228  1  0.796867  0.393713  0.949857  1
  C  C4229  1  0.796867  0.556143  0.606287  1
  C  C4230  1  0.796867  0.050143  0.443857  1
  C  C4231  1  0.863300  0.950400  0.740440  1
  C  C4232  1  0.863300  0.790040  0.049600  1
  C  C4233  1  0.863300  0.259560  0.209960  1
  C  C4234  1  0.529967  0.283733  0.407107  1
  C  C4235  1  0.529967  0.123373  0.716267  1
  C  C4236  1  0.529967  0.592893  0.876627  1
  C  C4237  1  0.196633  0.617067  0.073773  1
  C  C4238  1  0.196633  0.456707  0.382933  1
  C  C4239  1  0.196633  0.926227  0.543293  1
  C  C4240  1  0.136700  0.049600  0.259560  1
  C  C4241  1  0.136700  0.209960  0.950400  1
  C  C4242  1  0.136700  0.740440  0.790040  1
  C  C4243  1  0.470033  0.716267  0.592893  1
  C  C4244  1  0.470033  0.876627  0.283733  1
  C  C4245  1  0.470033  0.407107  0.123373  1
  C  C4246  1  0.803367  0.382933  0.926227  1
  C  C4247  1  0.803367  0.543293  0.617067  1
  C  C4248  1  0.803367  0.073773  0.456707  1
  C  C4249  1  0.884400  0.969310  0.755580  1
  C  C4250  1  0.884400  0.786270  0.030690  1
  C  C4251  1  0.884400  0.244420  0.213730  1
  C  C4252  1  0.551067  0.302643  0.422247  1
  C  C4253  1  0.551067  0.119603  0.697357  1
  C  C4254  1  0.551067  0.577753  0.880397  1
  C  C4255  1  0.217733  0.635977  0.088913  1
  C  C4256  1  0.217733  0.452937  0.364023  1
  C  C4257  1  0.217733  0.911087  0.547063  1
  C  C4258  1  0.115600  0.030690  0.244420  1
  C  C4259  1  0.115600  0.213730  0.969310  1
  C  C4260  1  0.115600  0.755580  0.786270  1
  C  C4261  1  0.448933  0.697357  0.577753  1
  C  C4262  1  0.448933  0.880397  0.302643  1
  C  C4263  1  0.448933  0.422247  0.119603  1
  C  C4264  1  0.782267  0.364023  0.911087  1
  C  C4265  1  0.782267  0.547063  0.635977  1
  C  C4266  1  0.782267  0.088913  0.452937  1
  C  C4267  1  0.836000  0.941900  0.750500  1
  C  C4268  1  0.836000  0.808600  0.058100  1
  C  C4269  1  0.836000  0.249500  0.191400  1
  C  C4270  1  0.502667  0.275233  0.417167  1
  C  C4271  1  0.502667  0.141933  0.724767  1
  C  C4272  1  0.502667  0.582833  0.858067  1
  C  C4273  1  0.169333  0.608567  0.083833  1
  C  C4274  1  0.169333  0.475267  0.391433  1
  C  C4275  1  0.169333  0.916167  0.524733  1
  C  C4276  1  0.164000  0.058100  0.249500  1
  C  C4277  1  0.164000  0.191400  0.941900  1
  C  C4278  1  0.164000  0.750500  0.808600  1
  C  C4279  1  0.497333  0.724767  0.582833  1
  C  C4280  1  0.497333  0.858067  0.275233  1
  C  C4281  1  0.497333  0.417167  0.141933  1
  C  C4282  1  0.830667  0.391433  0.916167  1
  C  C4283  1  0.830667  0.524733  0.608567  1
  C  C4284  1  0.830667  0.083833  0.475267  1
  C  C4285  1  0.840800  0.920100  0.748100  1
  C  C4286  1  0.840800  0.828000  0.079900  1
  C  C4287  1  0.840800  0.251900  0.172000  1
  C  C4288  1  0.507467  0.253433  0.414767  1
  C  C4289  1  0.507467  0.161333  0.746567  1
  C  C4290  1  0.507467  0.585233  0.838667  1
  C  C4291  1  0.174133  0.586767  0.081433  1
  C  C4292  1  0.174133  0.494667  0.413233  1
  C  C4293  1  0.174133  0.918567  0.505333  1
  C  C4294  1  0.159200  0.079900  0.251900  1
  C  C4295  1  0.159200  0.172000  0.920100  1
  C  C4296  1  0.159200  0.748100  0.828000  1
  C  C4297  1  0.492533  0.746567  0.585233  1
  C  C4298  1  0.492533  0.838667  0.253433  1
  C  C4299  1  0.492533  0.414767  0.161333  1
  C  C4300  1  0.825867  0.413233  0.918567  1
  C  C4301  1  0.825867  0.505333  0.586767  1
  C  C4302  1  0.825867  0.081433  0.494667  1
  C  C4303  1  0.815500  0.911100  0.757300  1
  C  C4304  1  0.815500  0.846200  0.088900  1
  C  C4305  1  0.815500  0.242700  0.153800  1
  C  C4306  1  0.482167  0.244433  0.423967  1
  C  C4307  1  0.482167  0.179533  0.755567  1
  C  C4308  1  0.482167  0.576033  0.820467  1
  C  C4309  1  0.148833  0.577767  0.090633  1
  C  C4310  1  0.148833  0.512867  0.422233  1
  C  C4311  1  0.148833  0.909367  0.487133  1
  C  C4312  1  0.184500  0.088900  0.242700  1
  C  C4313  1  0.184500  0.153800  0.911100  1
  C  C4314  1  0.184500  0.757300  0.846200  1
  C  C4315  1  0.517833  0.755567  0.576033  1
  C  C4316  1  0.517833  0.820467  0.244433  1
  C  C4317  1  0.517833  0.423967  0.179533  1
  C  C4318  1  0.851167  0.422233  0.909367  1
  C  C4319  1  0.851167  0.487133  0.577767  1
  C  C4320  1  0.851167  0.090633  0.512867  1
  C  C4321  1  0.783600  0.923390  0.768260  1
  C  C4322  1  0.783600  0.844870  0.076610  1
  C  C4323  1  0.783600  0.231740  0.155130  1
  C  C4324  1  0.450267  0.256723  0.434927  1
  C  C4325  1  0.450267  0.178203  0.743277  1
  C  C4326  1  0.450267  0.565073  0.821797  1
  C  C4327  1  0.116933  0.590057  0.101593  1
  C  C4328  1  0.116933  0.511537  0.409943  1
  C  C4329  1  0.116933  0.898407  0.488463  1
  C  C4330  1  0.216400  0.076610  0.231740  1
  C  C4331  1  0.216400  0.155130  0.923390  1
  C  C4332  1  0.216400  0.768260  0.844870  1
  C  C4333  1  0.549733  0.743277  0.565073  1
  C  C4334  1  0.549733  0.821797  0.256723  1
  C  C4335  1  0.549733  0.434927  0.178203  1
  C  C4336  1  0.883067  0.409943  0.898407  1
  C  C4337  1  0.883067  0.488463  0.590057  1
  C  C4338  1  0.883067  0.101593  0.511537  1
  C  C4339  1  0.758200  0.914080  0.776850  1
  C  C4340  1  0.758200  0.862770  0.085920  1
  C  C4341  1  0.758200  0.223150  0.137230  1
  C  C4342  1  0.424867  0.247413  0.443517  1
  C  C4343  1  0.424867  0.196103  0.752587  1
  C  C4344  1  0.424867  0.556483  0.803897  1
  C  C4345  1  0.091533  0.580747  0.110183  1
  C  C4346  1  0.091533  0.529437  0.419253  1
  C  C4347  1  0.091533  0.889817  0.470563  1
  C  C4348  1  0.241800  0.085920  0.223150  1
  C  C4349  1  0.241800  0.137230  0.914080  1
  C  C4350  1  0.241800  0.776850  0.862770  1
  C  C4351  1  0.575133  0.752587  0.556483  1
  C  C4352  1  0.575133  0.803897  0.247413  1
  C  C4353  1  0.575133  0.443517  0.196103  1
  C  C4354  1  0.908467  0.419253  0.889817  1
  C  C4355  1  0.908467  0.470563  0.580747  1
  C  C4356  1  0.908467  0.110183  0.529437  1
  C  C4357  1  0.726100  0.926130  0.787320  1
  C  C4358  1  0.726100  0.861190  0.073870  1
  C  C4359  1  0.726100  0.212680  0.138810  1
  C  C4360  1  0.392767  0.259463  0.453987  1
  C  C4361  1  0.392767  0.194523  0.740537  1
  C  C4362  1  0.392767  0.546013  0.805477  1
  C  C4363  1  0.059433  0.592797  0.120653  1
  C  C4364  1  0.059433  0.527857  0.407203  1
  C  C4365  1  0.059433  0.879347  0.472143  1
  C  C4366  1  0.273900  0.073870  0.212680  1
  C  C4367  1  0.273900  0.138810  0.926130  1
  C  C4368  1  0.273900  0.787320  0.861190  1
  C  C4369  1  0.607233  0.740537  0.546013  1
  C  C4370  1  0.607233  0.805477  0.259463  1
  C  C4371  1  0.607233  0.453987  0.194523  1
  C  C4372  1  0.940567  0.407203  0.879347  1
  C  C4373  1  0.940567  0.472143  0.592797  1
  C  C4374  1  0.940567  0.120653  0.527857  1
  C  C4375  1  0.719560  0.947480  0.789190  1
  C  C4376  1  0.719560  0.841710  0.052520  1
  C  C4377  1  0.719560  0.210810  0.158290  1
  C  C4378  1  0.386227  0.280813  0.455857  1
  C  C4379  1  0.386227  0.175043  0.719187  1
  C  C4380  1  0.386227  0.544143  0.824957  1
  C  C4381  1  0.052893  0.614147  0.122523  1
  C  C4382  1  0.052893  0.508377  0.385853  1
  C  C4383  1  0.052893  0.877477  0.491623  1
  C  C4384  1  0.280440  0.052520  0.210810  1
  C  C4385  1  0.280440  0.158290  0.947480  1
  C  C4386  1  0.280440  0.789190  0.841710  1
  C  C4387  1  0.613773  0.719187  0.544143  1
  C  C4388  1  0.613773  0.824957  0.280813  1
  C  C4389  1  0.613773  0.455857  0.175043  1
  C  C4390  1  0.947107  0.385853  0.877477  1
  C  C4391  1  0.947107  0.491623  0.614147  1
  C  C4392  1  0.947107  0.122523  0.508377  1
  C  C4393  1  0.745020  0.956790  0.780600  1
  C  C4394  1  0.745020  0.823810  0.043210  1
  C  C4395  1  0.745020  0.219400  0.176190  1
  C  C4396  1  0.411687  0.290123  0.447267  1
  C  C4397  1  0.411687  0.157143  0.709877  1
  C  C4398  1  0.411687  0.552733  0.842857  1
  C  C4399  1  0.078353  0.623457  0.113933  1
  C  C4400  1  0.078353  0.490477  0.376543  1
  C  C4401  1  0.078353  0.886067  0.509523  1
  C  C4402  1  0.254980  0.043210  0.219400  1
  C  C4403  1  0.254980  0.176190  0.956790  1
  C  C4404  1  0.254980  0.780600  0.823810  1
  C  C4405  1  0.588313  0.709877  0.552733  1
  C  C4406  1  0.588313  0.842857  0.290123  1
  C  C4407  1  0.588313  0.447267  0.157143  1
  C  C4408  1  0.921647  0.376543  0.886067  1
  C  C4409  1  0.921647  0.509523  0.623457  1
  C  C4410  1  0.921647  0.113933  0.490477  1
  C  C4411  1  0.777060  0.944750  0.770140  1
  C  C4412  1  0.777060  0.825390  0.055250  1
  C  C4413  1  0.777060  0.229860  0.174610  1
  C  C4414  1  0.443727  0.278083  0.436807  1
  C  C4415  1  0.443727  0.158723  0.721917  1
  C  C4416  1  0.443727  0.563193  0.841277  1
  C  C4417  1  0.110393  0.611417  0.103473  1
  C  C4418  1  0.110393  0.492057  0.388583  1
  C  C4419  1  0.110393  0.896527  0.507943  1
  C  C4420  1  0.222940  0.055250  0.229860  1
  C  C4421  1  0.222940  0.174610  0.944750  1
  C  C4422  1  0.222940  0.770140  0.825390  1
  C  C4423  1  0.556273  0.721917  0.563193  1
  C  C4424  1  0.556273  0.841277  0.278083  1
  C  C4425  1  0.556273  0.436807  0.158723  1
  C  C4426  1  0.889607  0.388583  0.896527  1
  C  C4427  1  0.889607  0.507943  0.611417  1
  C  C4428  1  0.889607  0.103473  0.492057  1
  C  C4429  1  0.802520  0.954050  0.761540  1
  C  C4430  1  0.802520  0.807490  0.045950  1
  C  C4431  1  0.802520  0.238460  0.192510  1
  C  C4432  1  0.469187  0.287383  0.428207  1
  C  C4433  1  0.469187  0.140823  0.712617  1
  C  C4434  1  0.469187  0.571793  0.859177  1
  C  C4435  1  0.135853  0.620717  0.094873  1
  C  C4436  1  0.135853  0.474157  0.379283  1
  C  C4437  1  0.135853  0.905127  0.525843  1
  C  C4438  1  0.197480  0.045950  0.238460  1
  C  C4439  1  0.197480  0.192510  0.954050  1
  C  C4440  1  0.197480  0.761540  0.807490  1
  C  C4441  1  0.530813  0.712617  0.571793  1
  C  C4442  1  0.530813  0.859177  0.287383  1
  C  C4443  1  0.530813  0.428207  0.140823  1
  C  C4444  1  0.864147  0.379283  0.905127  1
  C  C4445  1  0.864147  0.525843  0.620717  1
  C  C4446  1  0.864147  0.094873  0.474157  1
  C  C4447  1  0.796000  0.975410  0.763410  1
  C  C4448  1  0.796000  0.788000  0.024590  1
  C  C4449  1  0.796000  0.236590  0.212000  1
  C  C4450  1  0.462667  0.308743  0.430077  1
  C  C4451  1  0.462667  0.121333  0.691257  1
  C  C4452  1  0.462667  0.569923  0.878667  1
  C  C4453  1  0.129333  0.642077  0.096743  1
  C  C4454  1  0.129333  0.454667  0.357923  1
  C  C4455  1  0.129333  0.903257  0.545333  1
  C  C4456  1  0.204000  0.024590  0.236590  1
  C  C4457  1  0.204000  0.212000  0.975410  1
  C  C4458  1  0.204000  0.763410  0.788000  1
  C  C4459  1  0.537333  0.691257  0.569923  1
  C  C4460  1  0.537333  0.878667  0.308743  1
  C  C4461  1  0.537333  0.430077  0.121333  1
  C  C4462  1  0.870667  0.357923  0.903257  1
  C  C4463  1  0.870667  0.545333  0.642077  1
  C  C4464  1  0.870667  0.096743  0.454667  1
  C  C4465  1  0.763900  0.987460  0.773880  1
  C  C4466  1  0.763900  0.786420  0.012540  1
  C  C4467  1  0.763900  0.226120  0.213580  1
  C  C4468  1  0.430567  0.320793  0.440547  1
  C  C4469  1  0.430567  0.119753  0.679207  1
  C  C4470  1  0.430567  0.559453  0.880247  1
  C  C4471  1  0.097233  0.654127  0.107213  1
  C  C4472  1  0.097233  0.453087  0.345873  1
  C  C4473  1  0.097233  0.892787  0.546913  1
  C  C4474  1  0.236100  0.012540  0.226120  1
  C  C4475  1  0.236100  0.213580  0.987460  1
  C  C4476  1  0.236100  0.773880  0.786420  1
  C  C4477  1  0.569433  0.679207  0.559453  1
  C  C4478  1  0.569433  0.880247  0.320793  1
  C  C4479  1  0.569433  0.440547  0.119753  1
  C  C4480  1  0.902767  0.345873  0.892787  1
  C  C4481  1  0.902767  0.546913  0.654127  1
  C  C4482  1  0.902767  0.107213  0.453087  1
  C  C4483  1  0.738500  0.978150  0.782470  1
  C  C4484  1  0.738500  0.804320  0.021850  1
  C  C4485  1  0.738500  0.217530  0.195680  1
  C  C4486  1  0.405167  0.311483  0.449137  1
  C  C4487  1  0.405167  0.137653  0.688517  1
  C  C4488  1  0.405167  0.550863  0.862347  1
  C  C4489  1  0.071833  0.644817  0.115803  1
  C  C4490  1  0.071833  0.470987  0.355183  1
  C  C4491  1  0.071833  0.884197  0.529013  1
  C  C4492  1  0.261500  0.021850  0.217530  1
  C  C4493  1  0.261500  0.195680  0.978150  1
  C  C4494  1  0.261500  0.782470  0.804320  1
  C  C4495  1  0.594833  0.688517  0.550863  1
  C  C4496  1  0.594833  0.862347  0.311483  1
  C  C4497  1  0.594833  0.449137  0.137653  1
  C  C4498  1  0.928167  0.355183  0.884197  1
  C  C4499  1  0.928167  0.529013  0.644817  1
  C  C4500  1  0.928167  0.115803  0.470987  1
  C  C4501  1  0.707900  0.992000  0.794400  1
  C  C4502  1  0.707900  0.802400  0.008000  1
  C  C4503  1  0.707900  0.205600  0.197600  1
  C  C4504  1  0.374567  0.325333  0.461067  1
  C  C4505  1  0.374567  0.135733  0.674667  1
  C  C4506  1  0.374567  0.538933  0.864267  1
  C  C4507  1  0.041233  0.658667  0.127733  1
  C  C4508  1  0.041233  0.469067  0.341333  1
  C  C4509  1  0.041233  0.872267  0.530933  1
  C  C4510  1  0.292100  0.008000  0.205600  1
  C  C4511  1  0.292100  0.197600  0.992000  1
  C  C4512  1  0.292100  0.794400  0.802400  1
  C  C4513  1  0.625433  0.674667  0.538933  1
  C  C4514  1  0.625433  0.864267  0.325333  1
  C  C4515  1  0.625433  0.461067  0.135733  1
  C  C4516  1  0.958767  0.341333  0.872267  1
  C  C4517  1  0.958767  0.530933  0.658667  1
  C  C4518  1  0.958767  0.127733  0.469067  1
  C  C4519  1  0.682900  0.981800  0.801700  1
  C  C4520  1  0.682900  0.819900  0.018200  1
  C  C4521  1  0.682900  0.198300  0.180100  1
  C  C4522  1  0.349567  0.315133  0.468367  1
  C  C4523  1  0.349567  0.153233  0.684867  1
  C  C4524  1  0.349567  0.531633  0.846767  1
  C  C4525  1  0.016233  0.648467  0.135033  1
  C  C4526  1  0.016233  0.486567  0.351533  1
  C  C4527  1  0.016233  0.864967  0.513433  1
  C  C4528  1  0.317100  0.018200  0.198300  1
  C  C4529  1  0.317100  0.180100  0.981800  1
  C  C4530  1  0.317100  0.801700  0.819900  1
  C  C4531  1  0.650433  0.684867  0.531633  1
  C  C4532  1  0.650433  0.846767  0.315133  1
  C  C4533  1  0.650433  0.468367  0.153233  1
  C  C4534  1  0.983767  0.351533  0.864967  1
  C  C4535  1  0.983767  0.513433  0.648467  1
  C  C4536  1  0.983767  0.135033  0.486567  1
  C  C4537  1  0.686300  0.959800  0.799600  1
  C  C4538  1  0.686300  0.839800  0.040200  1
  C  C4539  1  0.686300  0.200400  0.160200  1
  C  C4540  1  0.352967  0.293133  0.466267  1
  C  C4541  1  0.352967  0.173133  0.706867  1
  C  C4542  1  0.352967  0.533733  0.826867  1
  C  C4543  1  0.019633  0.626467  0.132933  1
  C  C4544  1  0.019633  0.506467  0.373533  1
  C  C4545  1  0.019633  0.867067  0.493533  1
  C  C4546  1  0.313700  0.040200  0.200400  1
  C  C4547  1  0.313700  0.160200  0.959800  1
  C  C4548  1  0.313700  0.799600  0.839800  1
  C  C4549  1  0.647033  0.706867  0.533733  1
  C  C4550  1  0.647033  0.826867  0.293133  1
  C  C4551  1  0.647033  0.466267  0.173133  1
  C  C4552  1  0.980367  0.373533  0.867067  1
  C  C4553  1  0.980367  0.493533  0.626467  1
  C  C4554  1  0.980367  0.132933  0.506467  1
  C  C4555  1  0.656000  0.950500  0.808040  1
  C  C4556  1  0.656000  0.857540  0.049500  1
  C  C4557  1  0.656000  0.191960  0.142460  1
  C  C4558  1  0.322667  0.283833  0.474707  1
  C  C4559  1  0.322667  0.190873  0.716167  1
  C  C4560  1  0.322667  0.525293  0.809127  1
  C  C4561  1  0.989333  0.617167  0.141373  1
  C  C4562  1  0.989333  0.524207  0.382833  1
  C  C4563  1  0.989333  0.858627  0.475793  1
  C  C4564  1  0.344000  0.049500  0.191960  1
  C  C4565  1  0.344000  0.142460  0.950500  1
  C  C4566  1  0.344000  0.808040  0.857540  1
  C  C4567  1  0.677333  0.716167  0.525293  1
  C  C4568  1  0.677333  0.809127  0.283833  1
  C  C4569  1  0.677333  0.474707  0.190873  1
  C  C4570  1  0.010667  0.382833  0.858627  1
  C  C4571  1  0.010667  0.475793  0.617167  1
  C  C4572  1  0.010667  0.141373  0.524207  1
  C  C4573  1  0.639900  0.929310  0.793120  1
  C  C4574  1  0.639900  0.863810  0.070690  1
  C  C4575  1  0.639900  0.206880  0.136190  1
  C  C4576  1  0.306567  0.262643  0.459787  1
  C  C4577  1  0.306567  0.197143  0.737357  1
  C  C4578  1  0.306567  0.540213  0.802857  1
  C  C4579  1  0.973233  0.595977  0.126453  1
  C  C4580  1  0.973233  0.530477  0.404023  1
  C  C4581  1  0.973233  0.873547  0.469523  1
  C  C4582  1  0.360100  0.070690  0.206880  1
  C  C4583  1  0.360100  0.136190  0.929310  1
  C  C4584  1  0.360100  0.793120  0.863810  1
  C  C4585  1  0.693433  0.737357  0.540213  1
  C  C4586  1  0.693433  0.802857  0.262643  1
  C  C4587  1  0.693433  0.459787  0.197143  1
  C  C4588  1  0.026767  0.404023  0.873547  1
  C  C4589  1  0.026767  0.469523  0.595977  1
  C  C4590  1  0.026767  0.126453  0.530477  1
  C  C4591  1  0.610400  0.921490  0.800500  1
  C  C4592  1  0.610400  0.879010  0.078510  1
  C  C4593  1  0.610400  0.199500  0.120990  1
  C  C4594  1  0.277067  0.254823  0.467167  1
  C  C4595  1  0.277067  0.212343  0.745177  1
  C  C4596  1  0.277067  0.532833  0.787657  1
  C  C4597  1  0.943733  0.588157  0.133833  1
  C  C4598  1  0.943733  0.545677  0.411843  1
  C  C4599  1  0.943733  0.866167  0.454323  1
  C  C4600  1  0.389600  0.078510  0.199500  1
  C  C4601  1  0.389600  0.120990  0.921490  1
  C  C4602  1  0.389600  0.800500  0.879010  1
  C  C4603  1  0.722933  0.745177  0.532833  1
  C  C4604  1  0.722933  0.787657  0.254823  1
  C  C4605  1  0.722933  0.467167  0.212343  1
  C  C4606  1  0.056267  0.411843  0.866167  1
  C  C4607  1  0.056267  0.454323  0.588157  1
  C  C4608  1  0.056267  0.133833  0.545677  1
  C  C4609  1  0.596900  0.934880  0.822820  1
  C  C4610  1  0.596900  0.887940  0.065120  1
  C  C4611  1  0.596900  0.177180  0.112060  1
  C  C4612  1  0.263567  0.268213  0.489487  1
  C  C4613  1  0.263567  0.221273  0.731787  1
  C  C4614  1  0.263567  0.510513  0.778727  1
  C  C4615  1  0.930233  0.601547  0.156153  1
  C  C4616  1  0.930233  0.554607  0.398453  1
  C  C4617  1  0.930233  0.843847  0.445393  1
  C  C4618  1  0.403100  0.065120  0.177180  1
  C  C4619  1  0.403100  0.112060  0.934880  1
  C  C4620  1  0.403100  0.822820  0.887940  1
  C  C4621  1  0.736433  0.731787  0.510513  1
  C  C4622  1  0.736433  0.778727  0.268213  1
  C  C4623  1  0.736433  0.489487  0.221273  1
  C  C4624  1  0.069767  0.398453  0.843847  1
  C  C4625  1  0.069767  0.445393  0.601547  1
  C  C4626  1  0.069767  0.156153  0.554607  1
  C  C4627  1  0.613000  0.956070  0.837750  1
  C  C4628  1  0.613000  0.881680  0.043930  1
  C  C4629  1  0.613000  0.162250  0.118320  1
  C  C4630  1  0.279667  0.289403  0.504417  1
  C  C4631  1  0.279667  0.215013  0.710597  1
  C  C4632  1  0.279667  0.495583  0.784987  1
  C  C4633  1  0.946333  0.622737  0.171083  1
  C  C4634  1  0.946333  0.548347  0.377263  1
  C  C4635  1  0.946333  0.828917  0.451653  1
  C  C4636  1  0.387000  0.043930  0.162250  1
  C  C4637  1  0.387000  0.118320  0.956070  1
  C  C4638  1  0.387000  0.837750  0.881680  1
  C  C4639  1  0.720333  0.710597  0.495583  1
  C  C4640  1  0.720333  0.784987  0.289403  1
  C  C4641  1  0.720333  0.504417  0.215013  1
  C  C4642  1  0.053667  0.377263  0.828917  1
  C  C4643  1  0.053667  0.451653  0.622737  1
  C  C4644  1  0.053667  0.171083  0.548347  1
  C  C4645  1  0.642500  0.963890  0.830370  1
  C  C4646  1  0.642500  0.866480  0.036110  1
  C  C4647  1  0.642500  0.169630  0.133520  1
  C  C4648  1  0.309167  0.297223  0.497037  1
  C  C4649  1  0.309167  0.199813  0.702777  1
  C  C4650  1  0.309167  0.502963  0.800187  1
  C  C4651  1  0.975833  0.630557  0.163703  1
  C  C4652  1  0.975833  0.533147  0.369443  1
  C  C4653  1  0.975833  0.836297  0.466853  1
  C  C4654  1  0.357500  0.036110  0.169630  1
  C  C4655  1  0.357500  0.133520  0.963890  1
  C  C4656  1  0.357500  0.830370  0.866480  1
  C  C4657  1  0.690833  0.702777  0.502963  1
  C  C4658  1  0.690833  0.800187  0.297223  1
  C  C4659  1  0.690833  0.497037  0.199813  1
  C  C4660  1  0.024167  0.369443  0.836297  1
  C  C4661  1  0.024167  0.466853  0.630557  1
  C  C4662  1  0.024167  0.163703  0.533147  1
  C  C4663  1  0.585200  0.896000  0.764400  1
  C  C4664  1  0.585200  0.868400  0.104000  1
  C  C4665  1  0.585200  0.235600  0.131600  1
  C  C4666  1  0.251867  0.229333  0.431067  1
  C  C4667  1  0.251867  0.201733  0.770667  1
  C  C4668  1  0.251867  0.568933  0.798267  1
  C  C4669  1  0.918533  0.562667  0.097733  1
  C  C4670  1  0.918533  0.535067  0.437333  1
  C  C4671  1  0.918533  0.902267  0.464933  1
  C  C4672  1  0.414800  0.104000  0.235600  1
  C  C4673  1  0.414800  0.131600  0.896000  1
  C  C4674  1  0.414800  0.764400  0.868400  1
  C  C4675  1  0.748133  0.770667  0.568933  1
  C  C4676  1  0.748133  0.798267  0.229333  1
  C  C4677  1  0.748133  0.431067  0.201733  1
  C  C4678  1  0.081467  0.437333  0.902267  1
  C  C4679  1  0.081467  0.464933  0.562667  1
  C  C4680  1  0.081467  0.097733  0.535067  1
  C  C4681  1  0.567350  0.873280  0.748070  1
  C  C4682  1  0.567350  0.874790  0.126720  1
  C  C4683  1  0.567350  0.251930  0.125210  1
  C  C4684  1  0.234017  0.206613  0.414737  1
  C  C4685  1  0.234017  0.208123  0.793387  1
  C  C4686  1  0.234017  0.585263  0.791877  1
  C  C4687  1  0.900683  0.539947  0.081403  1
  C  C4688  1  0.900683  0.541457  0.460053  1
  C  C4689  1  0.900683  0.918597  0.458543  1
  C  C4690  1  0.432650  0.126720  0.251930  1
  C  C4691  1  0.432650  0.125210  0.873280  1
  C  C4692  1  0.432650  0.748070  0.874790  1
  C  C4693  1  0.765983  0.793387  0.585263  1
  C  C4694  1  0.765983  0.791877  0.206613  1
  C  C4695  1  0.765983  0.414737  0.208123  1
  C  C4696  1  0.099317  0.460053  0.918597  1
  C  C4697  1  0.099317  0.458543  0.539947  1
  C  C4698  1  0.099317  0.081403  0.541457  1
  C  C4699  1  0.552690  0.868140  0.727010  1
  C  C4700  1  0.552690  0.858870  0.131860  1
  C  C4701  1  0.552690  0.272990  0.141130  1
  C  C4702  1  0.219357  0.201473  0.393677  1
  C  C4703  1  0.219357  0.192203  0.798527  1
  C  C4704  1  0.219357  0.606323  0.807797  1
  C  C4705  1  0.886023  0.534807  0.060343  1
  C  C4706  1  0.886023  0.525537  0.465193  1
  C  C4707  1  0.886023  0.939657  0.474463  1
  C  C4708  1  0.447310  0.131860  0.272990  1
  C  C4709  1  0.447310  0.141130  0.868140  1
  C  C4710  1  0.447310  0.727010  0.858870  1
  C  C4711  1  0.780643  0.798527  0.606323  1
  C  C4712  1  0.780643  0.807797  0.201473  1
  C  C4713  1  0.780643  0.393677  0.192203  1
  C  C4714  1  0.113977  0.465193  0.939657  1
  C  C4715  1  0.113977  0.474463  0.534807  1
  C  C4716  1  0.113977  0.060343  0.525537  1
  C  C4717  1  0.535450  0.847060  0.713860  1
  C  C4718  1  0.535450  0.866800  0.152940  1
  C  C4719  1  0.535450  0.286140  0.133200  1
  C  C4720  1  0.202117  0.180393  0.380527  1
  C  C4721  1  0.202117  0.200133  0.819607  1
  C  C4722  1  0.202117  0.619473  0.799867  1
  C  C4723  1  0.868783  0.513727  0.047193  1
  C  C4724  1  0.868783  0.533467  0.486273  1
  C  C4725  1  0.868783  0.952807  0.466533  1
  C  C4726  1  0.464550  0.152940  0.286140  1
  C  C4727  1  0.464550  0.133200  0.847060  1
  C  C4728  1  0.464550  0.713860  0.866800  1
  C  C4729  1  0.797883  0.819607  0.619473  1
  C  C4730  1  0.797883  0.799867  0.180393  1
  C  C4731  1  0.797883  0.380527  0.200133  1
  C  C4732  1  0.131217  0.486273  0.952807  1
  C  C4733  1  0.131217  0.466533  0.513727  1
  C  C4734  1  0.131217  0.047193  0.533467  1
  C  C4735  1  0.532730  0.832120  0.722470  1
  C  C4736  1  0.532730  0.890350  0.167880  1
  C  C4737  1  0.532730  0.277530  0.109650  1
  C  C4738  1  0.199397  0.165453  0.389137  1
  C  C4739  1  0.199397  0.223683  0.834547  1
  C  C4740  1  0.199397  0.610863  0.776317  1
  C  C4741  1  0.866063  0.498787  0.055803  1
  C  C4742  1  0.866063  0.557017  0.501213  1
  C  C4743  1  0.866063  0.944197  0.442983  1
  C  C4744  1  0.467270  0.167880  0.277530  1
  C  C4745  1  0.467270  0.109650  0.832120  1
  C  C4746  1  0.467270  0.722470  0.890350  1
  C  C4747  1  0.800603  0.834547  0.610863  1
  C  C4748  1  0.800603  0.776317  0.165453  1
  C  C4749  1  0.800603  0.389137  0.223683  1
  C  C4750  1  0.133937  0.501213  0.944197  1
  C  C4751  1  0.133937  0.442983  0.498787  1
  C  C4752  1  0.133937  0.055803  0.557017  1
  C  C4753  1  0.547080  0.838530  0.744060  1
  C  C4754  1  0.547080  0.905530  0.161470  1
  C  C4755  1  0.547080  0.255940  0.094470  1
  C  C4756  1  0.213747  0.171863  0.410727  1
  C  C4757  1  0.213747  0.238863  0.828137  1
  C  C4758  1  0.213747  0.589273  0.761137  1
  C  C4759  1  0.880413  0.505197  0.077393  1
  C  C4760  1  0.880413  0.572197  0.494803  1
  C  C4761  1  0.880413  0.922607  0.427803  1
  C  C4762  1  0.452920  0.161470  0.255940  1
  C  C4763  1  0.452920  0.094470  0.838530  1
  C  C4764  1  0.452920  0.744060  0.905530  1
  C  C4765  1  0.786253  0.828137  0.589273  1
  C  C4766  1  0.786253  0.761137  0.171863  1
  C  C4767  1  0.786253  0.410727  0.238863  1
  C  C4768  1  0.119587  0.494803  0.922607  1
  C  C4769  1  0.119587  0.427803  0.505197  1
  C  C4770  1  0.119587  0.077393  0.572197  1
  C  C4771  1  0.770440  0.901970  0.670910  1
  C  C4772  1  0.770440  0.768940  0.098030  1
  C  C4773  1  0.770440  0.329090  0.231060  1
  C  C4774  1  0.437107  0.235303  0.337577  1
  C  C4775  1  0.437107  0.102273  0.764697  1
  C  C4776  1  0.437107  0.662423  0.897727  1
  C  C4777  1  0.103773  0.568637  0.004243  1
  C  C4778  1  0.103773  0.435607  0.431363  1
  C  C4779  1  0.103773  0.995757  0.564393  1
  C  C4780  1  0.229560  0.098030  0.329090  1
  C  C4781  1  0.229560  0.231060  0.901970  1
  C  C4782  1  0.229560  0.670910  0.768940  1
  C  C4783  1  0.562893  0.764697  0.662423  1
  C  C4784  1  0.562893  0.897727  0.235303  1
  C  C4785  1  0.562893  0.337577  0.102273  1
  C  C4786  1  0.896227  0.431363  0.995757  1
  C  C4787  1  0.896227  0.564393  0.568637  1
  C  C4788  1  0.896227  0.004243  0.435607  1
  C  C4789  1  0.791350  0.886170  0.673640  1
  C  C4790  1  0.791350  0.787470  0.113830  1
  C  C4791  1  0.791350  0.326360  0.212530  1
  C  C4792  1  0.458017  0.219503  0.340307  1
  C  C4793  1  0.458017  0.120803  0.780497  1
  C  C4794  1  0.458017  0.659693  0.879197  1
  C  C4795  1  0.124683  0.552837  0.006973  1
  C  C4796  1  0.124683  0.454137  0.447163  1
  C  C4797  1  0.124683  0.993027  0.545863  1
  C  C4798  1  0.208650  0.113830  0.326360  1
  C  C4799  1  0.208650  0.212530  0.886170  1
  C  C4800  1  0.208650  0.673640  0.787470  1
  C  C4801  1  0.541983  0.780497  0.659693  1
  C  C4802  1  0.541983  0.879197  0.219503  1
  C  C4803  1  0.541983  0.340307  0.120803  1
  C  C4804  1  0.875317  0.447163  0.993027  1
  C  C4805  1  0.875317  0.545863  0.552837  1
  C  C4806  1  0.875317  0.006973  0.454137  1
  C  C4807  1  0.786720  0.884190  0.693120  1
  C  C4808  1  0.786720  0.808930  0.115810  1
  C  C4809  1  0.786720  0.306880  0.191070  1
  C  C4810  1  0.453387  0.217523  0.359787  1
  C  C4811  1  0.453387  0.142263  0.782477  1
  C  C4812  1  0.453387  0.640213  0.857737  1
  C  C4813  1  0.120053  0.550857  0.026453  1
  C  C4814  1  0.120053  0.475597  0.449143  1
  C  C4815  1  0.120053  0.973547  0.524403  1
  C  C4816  1  0.213280  0.115810  0.306880  1
  C  C4817  1  0.213280  0.191070  0.884190  1
  C  C4818  1  0.213280  0.693120  0.808930  1
  C  C4819  1  0.546613  0.782477  0.640213  1
  C  C4820  1  0.546613  0.857737  0.217523  1
  C  C4821  1  0.546613  0.359787  0.142263  1
  C  C4822  1  0.879947  0.449143  0.973547  1
  C  C4823  1  0.879947  0.524403  0.550857  1
  C  C4824  1  0.879947  0.026453  0.475597  1
  C  C4825  1  0.761050  0.898040  0.709490  1
  C  C4826  1  0.761050  0.811450  0.101960  1
  C  C4827  1  0.761050  0.290510  0.188550  1
  C  C4828  1  0.427717  0.231373  0.376157  1
  C  C4829  1  0.427717  0.144783  0.768627  1
  C  C4830  1  0.427717  0.623843  0.855217  1
  C  C4831  1  0.094383  0.564707  0.042823  1
  C  C4832  1  0.094383  0.478117  0.435293  1
  C  C4833  1  0.094383  0.957177  0.521883  1
  C  C4834  1  0.238950  0.101960  0.290510  1
  C  C4835  1  0.238950  0.188550  0.898040  1
  C  C4836  1  0.238950  0.709490  0.811450  1
  C  C4837  1  0.572283  0.768627  0.623843  1
  C  C4838  1  0.572283  0.855217  0.231373  1
  C  C4839  1  0.572283  0.376157  0.144783  1
  C  C4840  1  0.905617  0.435293  0.957177  1
  C  C4841  1  0.905617  0.521883  0.564707  1
  C  C4842  1  0.905617  0.042823  0.478117  1
  C  C4843  1  0.740330  0.912980  0.705520  1
  C  C4844  1  0.740330  0.792540  0.087020  1
  C  C4845  1  0.740330  0.294480  0.207460  1
  C  C4846  1  0.406997  0.246313  0.372187  1
  C  C4847  1  0.406997  0.125873  0.753687  1
  C  C4848  1  0.406997  0.627813  0.874127  1
  C  C4849  1  0.073663  0.579647  0.038853  1
  C  C4850  1  0.073663  0.459207  0.420353  1
  C  C4851  1  0.073663  0.961147  0.540793  1
  C  C4852  1  0.259670  0.087020  0.294480  1
  C  C4853  1  0.259670  0.207460  0.912980  1
  C  C4854  1  0.259670  0.705520  0.792540  1
  C  C4855  1  0.593003  0.753687  0.627813  1
  C  C4856  1  0.593003  0.874127  0.246313  1
  C  C4857  1  0.593003  0.372187  0.125873  1
  C  C4858  1  0.926337  0.420353  0.961147  1
  C  C4859  1  0.926337  0.540793  0.579647  1
  C  C4860  1  0.926337  0.038853  0.459207  1
  C  C4861  1  0.714400  0.928900  0.722700  1
  C  C4862  1  0.714400  0.793800  0.071100  1
  C  C4863  1  0.714400  0.277300  0.206200  1
  C  C4864  1  0.381067  0.262233  0.389367  1
  C  C4865  1  0.381067  0.127133  0.737767  1
  C  C4866  1  0.381067  0.610633  0.872867  1
  C  C4867  1  0.047733  0.595567  0.056033  1
  C  C4868  1  0.047733  0.460467  0.404433  1
  C  C4869  1  0.047733  0.943967  0.539533  1
  C  C4870  1  0.285600  0.071100  0.277300  1
  C  C4871  1  0.285600  0.206200  0.928900  1
  C  C4872  1  0.285600  0.722700  0.793800  1
  C  C4873  1  0.618933  0.737767  0.610633  1
  C  C4874  1  0.618933  0.872867  0.262233  1
  C  C4875  1  0.618933  0.389367  0.127133  1
  C  C4876  1  0.952267  0.404433  0.943967  1
  C  C4877  1  0.952267  0.539533  0.595567  1
  C  C4878  1  0.952267  0.056033  0.460467  1
  C  C4879  1  0.670500  0.958790  0.735330  1
  C  C4880  1  0.670500  0.776540  0.041210  1
  C  C4881  1  0.670500  0.264670  0.223460  1
  C  C4882  1  0.337167  0.292123  0.401997  1
  C  C4883  1  0.337167  0.109873  0.707877  1
  C  C4884  1  0.337167  0.598003  0.890127  1
  C  C4885  1  0.003833  0.625457  0.068663  1
  C  C4886  1  0.003833  0.443207  0.374543  1
  C  C4887  1  0.003833  0.931337  0.556793  1
  C  C4888  1  0.329500  0.041210  0.264670  1
  C  C4889  1  0.329500  0.223460  0.958790  1
  C  C4890  1  0.329500  0.735330  0.776540  1
  C  C4891  1  0.662833  0.707877  0.598003  1
  C  C4892  1  0.662833  0.890127  0.292123  1
  C  C4893  1  0.662833  0.401997  0.109873  1
  C  C4894  1  0.996167  0.374543  0.931337  1
  C  C4895  1  0.996167  0.556793  0.625457  1
  C  C4896  1  0.996167  0.068663  0.443207  1
  C  C4897  1  0.642100  0.949570  0.742120  1
  C  C4898  1  0.642100  0.792550  0.050430  1
  C  C4899  1  0.642100  0.257880  0.207450  1
  C  C4900  1  0.308767  0.282903  0.408787  1
  C  C4901  1  0.308767  0.125883  0.717097  1
  C  C4902  1  0.308767  0.591213  0.874117  1
  C  C4903  1  0.975433  0.616237  0.075453  1
  C  C4904  1  0.975433  0.459217  0.383763  1
  C  C4905  1  0.975433  0.924547  0.540783  1
  C  C4906  1  0.357900  0.050430  0.257880  1
  C  C4907  1  0.357900  0.207450  0.949570  1
  C  C4908  1  0.357900  0.742120  0.792550  1
  C  C4909  1  0.691233  0.717097  0.591213  1
  C  C4910  1  0.691233  0.874117  0.282903  1
  C  C4911  1  0.691233  0.408787  0.125883  1
  C  C4912  1  0.024567  0.383763  0.924547  1
  C  C4913  1  0.024567  0.540783  0.616237  1
  C  C4914  1  0.024567  0.075453  0.459217  1
  C  C4915  1  0.614300  0.963850  0.756400  1
  C  C4916  1  0.614300  0.792550  0.036150  1
  C  C4917  1  0.614300  0.243600  0.207450  1
  C  C4918  1  0.280967  0.297183  0.423067  1
  C  C4919  1  0.280967  0.125883  0.702817  1
  C  C4920  1  0.280967  0.576933  0.874117  1
  C  C4921  1  0.947633  0.630517  0.089733  1
  C  C4922  1  0.947633  0.459217  0.369483  1
  C  C4923  1  0.947633  0.910267  0.540783  1
  C  C4924  1  0.385700  0.036150  0.243600  1
  C  C4925  1  0.385700  0.207450  0.963850  1
  C  C4926  1  0.385700  0.756400  0.792550  1
  C  C4927  1  0.719033  0.702817  0.576933  1
  C  C4928  1  0.719033  0.874117  0.297183  1
  C  C4929  1  0.719033  0.423067  0.125883  1
  C  C4930  1  0.052367  0.369483  0.910267  1
  C  C4931  1  0.052367  0.540783  0.630517  1
  C  C4932  1  0.052367  0.089733  0.459217  1
  C  C4933  1  0.614900  0.987350  0.763900  1
  C  C4934  1  0.614900  0.776550  0.012650  1
  C  C4935  1  0.614900  0.236100  0.223450  1
  C  C4936  1  0.281567  0.320683  0.430567  1
  C  C4937  1  0.281567  0.109883  0.679317  1
  C  C4938  1  0.281567  0.569433  0.890117  1
  C  C4939  1  0.948233  0.654017  0.097233  1
  C  C4940  1  0.948233  0.443217  0.345983  1
  C  C4941  1  0.948233  0.902767  0.556783  1
  C  C4942  1  0.385100  0.012650  0.236100  1
  C  C4943  1  0.385100  0.223450  0.987350  1
  C  C4944  1  0.385100  0.763900  0.776550  1
  C  C4945  1  0.718433  0.679317  0.569433  1
  C  C4946  1  0.718433  0.890117  0.320683  1
  C  C4947  1  0.718433  0.430567  0.109883  1
  C  C4948  1  0.051767  0.345983  0.902767  1
  C  C4949  1  0.051767  0.556783  0.654017  1
  C  C4950  1  0.051767  0.097233  0.443217  1
  C  C4951  1  0.643300  0.996570  0.757120  1
  C  C4952  1  0.643300  0.760550  0.003430  1
  C  C4953  1  0.643300  0.242880  0.239450  1
  C  C4954  1  0.309967  0.329903  0.423787  1
  C  C4955  1  0.309967  0.093883  0.670097  1
  C  C4956  1  0.309967  0.576213  0.906117  1
  C  C4957  1  0.976633  0.663237  0.090453  1
  C  C4958  1  0.976633  0.427217  0.336763  1
  C  C4959  1  0.976633  0.909547  0.572783  1
  C  C4960  1  0.356700  0.003430  0.242880  1
  C  C4961  1  0.356700  0.239450  0.996570  1
  C  C4962  1  0.356700  0.757120  0.760550  1
  C  C4963  1  0.690033  0.670097  0.576213  1
  C  C4964  1  0.690033  0.906117  0.329903  1
  C  C4965  1  0.690033  0.423787  0.093883  1
  C  C4966  1  0.023367  0.336763  0.909547  1
  C  C4967  1  0.023367  0.572783  0.663237  1
  C  C4968  1  0.023367  0.090453  0.427217  1
  C  C4969  1  0.671100  0.982290  0.742830  1
  C  C4970  1  0.671100  0.760540  0.017710  1
  C  C4971  1  0.671100  0.257170  0.239460  1
  C  C4972  1  0.337767  0.315623  0.409497  1
  C  C4973  1  0.337767  0.093873  0.684377  1
  C  C4974  1  0.337767  0.590503  0.906127  1
  C  C4975  1  0.004433  0.648957  0.076163  1
  C  C4976  1  0.004433  0.427207  0.351043  1
  C  C4977  1  0.004433  0.923837  0.572793  1
  C  C4978  1  0.328900  0.017710  0.257170  1
  C  C4979  1  0.328900  0.239460  0.982290  1
  C  C4980  1  0.328900  0.742830  0.760540  1
  C  C4981  1  0.662233  0.684377  0.590503  1
  C  C4982  1  0.662233  0.906127  0.315623  1
  C  C4983  1  0.662233  0.409497  0.093873  1
  C  C4984  1  0.995567  0.351043  0.923837  1
  C  C4985  1  0.995567  0.572793  0.648957  1
  C  C4986  1  0.995567  0.076163  0.427207  1
  C  C4987  1  0.581900  0.955700  0.764000  1
  C  C4988  1  0.581900  0.808300  0.044300  1
  C  C4989  1  0.581900  0.236000  0.191700  1
  C  C4990  1  0.248567  0.289033  0.430667  1
  C  C4991  1  0.248567  0.141633  0.710967  1
  C  C4992  1  0.248567  0.569333  0.858367  1
  C  C4993  1  0.915233  0.622367  0.097333  1
  C  C4994  1  0.915233  0.474967  0.377633  1
  C  C4995  1  0.915233  0.902667  0.525033  1
  C  C4996  1  0.418100  0.044300  0.236000  1
  C  C4997  1  0.418100  0.191700  0.955700  1
  C  C4998  1  0.418100  0.764000  0.808300  1
  C  C4999  1  0.751433  0.710967  0.569333  1
  C  C5000  1  0.751433  0.858367  0.289033  1
  C  C5001  1  0.751433  0.430667  0.141633  1
  C  C5002  1  0.084767  0.377633  0.902667  1
  C  C5003  1  0.084767  0.525033  0.622367  1
  C  C5004  1  0.084767  0.097333  0.474967  1
  C  C5005  1  0.576500  0.964800  0.787900  1
  C  C5006  1  0.576500  0.823100  0.035200  1
  C  C5007  1  0.576500  0.212100  0.176900  1
  C  C5008  1  0.243167  0.298133  0.454567  1
  C  C5009  1  0.243167  0.156433  0.701867  1
  C  C5010  1  0.243167  0.545433  0.843567  1
  C  C5011  1  0.909833  0.631467  0.121233  1
  C  C5012  1  0.909833  0.489767  0.368533  1
  C  C5013  1  0.909833  0.878767  0.510233  1
  C  C5014  1  0.423500  0.035200  0.212100  1
  C  C5015  1  0.423500  0.176900  0.964800  1
  C  C5016  1  0.423500  0.787900  0.823100  1
  C  C5017  1  0.756833  0.701867  0.545433  1
  C  C5018  1  0.756833  0.843567  0.298133  1
  C  C5019  1  0.756833  0.454567  0.156433  1
  C  C5020  1  0.090167  0.368533  0.878767  1
  C  C5021  1  0.090167  0.510233  0.631467  1
  C  C5022  1  0.090167  0.121233  0.489767  1
  C  C5023  1  0.547900  0.956700  0.795500  1
  C  C5024  1  0.547900  0.838800  0.043300  1
  C  C5025  1  0.547900  0.204500  0.161200  1
  C  C5026  1  0.214567  0.290033  0.462167  1
  C  C5027  1  0.214567  0.172133  0.709967  1
  C  C5028  1  0.214567  0.537833  0.827867  1
  C  C5029  1  0.881233  0.623367  0.128833  1
  C  C5030  1  0.881233  0.505467  0.376633  1
  C  C5031  1  0.881233  0.871167  0.494533  1
  C  C5032  1  0.452100  0.043300  0.204500  1
  C  C5033  1  0.452100  0.161200  0.956700  1
  C  C5034  1  0.452100  0.795500  0.838800  1
  C  C5035  1  0.785433  0.709967  0.537833  1
  C  C5036  1  0.785433  0.827867  0.290033  1
  C  C5037  1  0.785433  0.462167  0.172133  1
  C  C5038  1  0.118767  0.376633  0.871167  1
  C  C5039  1  0.118767  0.494533  0.623367  1
  C  C5040  1  0.118767  0.128833  0.505467  1
  C  C5041  1  0.523800  0.939970  0.781010  1
  C  C5042  1  0.523800  0.841040  0.060030  1
  C  C5043  1  0.523800  0.218990  0.158960  1
  C  C5044  1  0.190467  0.273303  0.447677  1
  C  C5045  1  0.190467  0.174373  0.726697  1
  C  C5046  1  0.190467  0.552323  0.825627  1
  C  C5047  1  0.857133  0.606637  0.114343  1
  C  C5048  1  0.857133  0.507707  0.393363  1
  C  C5049  1  0.857133  0.885657  0.492293  1
  C  C5050  1  0.476200  0.060030  0.218990  1
  C  C5051  1  0.476200  0.158960  0.939970  1
  C  C5052  1  0.476200  0.781010  0.841040  1
  C  C5053  1  0.809533  0.726697  0.552323  1
  C  C5054  1  0.809533  0.825627  0.273303  1
  C  C5055  1  0.809533  0.447677  0.174373  1
  C  C5056  1  0.142867  0.393363  0.885657  1
  C  C5057  1  0.142867  0.492293  0.606637  1
  C  C5058  1  0.142867  0.114343  0.507707  1
  C  C5059  1  0.495100  0.932720  0.789610  1
  C  C5060  1  0.495100  0.856890  0.067280  1
  C  C5061  1  0.495100  0.210390  0.143110  1
  C  C5062  1  0.161767  0.266053  0.456277  1
  C  C5063  1  0.161767  0.190223  0.733947  1
  C  C5064  1  0.161767  0.543723  0.809777  1
  C  C5065  1  0.828433  0.599387  0.122943  1
  C  C5066  1  0.828433  0.523557  0.400613  1
  C  C5067  1  0.828433  0.877057  0.476443  1
  C  C5068  1  0.504900  0.067280  0.210390  1
  C  C5069  1  0.504900  0.143110  0.932720  1
  C  C5070  1  0.504900  0.789610  0.856890  1
  C  C5071  1  0.838233  0.733947  0.543723  1
  C  C5072  1  0.838233  0.809777  0.266053  1
  C  C5073  1  0.838233  0.456277  0.190223  1
  C  C5074  1  0.171567  0.400613  0.877057  1
  C  C5075  1  0.171567  0.476443  0.599387  1
  C  C5076  1  0.171567  0.122943  0.523557  1
  C  C5077  1  0.470200  0.916340  0.774520  1
  C  C5078  1  0.470200  0.858180  0.083660  1
  C  C5079  1  0.470200  0.225480  0.141820  1
  C  C5080  1  0.136867  0.249673  0.441187  1
  C  C5081  1  0.136867  0.191513  0.750327  1
  C  C5082  1  0.136867  0.558813  0.808487  1
  C  C5083  1  0.803533  0.583007  0.107853  1
  C  C5084  1  0.803533  0.524847  0.416993  1
  C  C5085  1  0.803533  0.892147  0.475153  1
  C  C5086  1  0.529800  0.083660  0.225480  1
  C  C5087  1  0.529800  0.141820  0.916340  1
  C  C5088  1  0.529800  0.774520  0.858180  1
  C  C5089  1  0.863133  0.750327  0.558813  1
  C  C5090  1  0.863133  0.808487  0.249673  1
  C  C5091  1  0.863133  0.441187  0.191513  1
  C  C5092  1  0.196467  0.416993  0.892147  1
  C  C5093  1  0.196467  0.475153  0.583007  1
  C  C5094  1  0.196467  0.107853  0.524847  1
  C  C5095  1  0.473980  0.907220  0.750840  1
  C  C5096  1  0.473980  0.843620  0.092780  1
  C  C5097  1  0.473980  0.249160  0.156380  1
  C  C5098  1  0.140647  0.240553  0.417507  1
  C  C5099  1  0.140647  0.176953  0.759447  1
  C  C5100  1  0.140647  0.582493  0.823047  1
  C  C5101  1  0.807313  0.573887  0.084173  1
  C  C5102  1  0.807313  0.510287  0.426113  1
  C  C5103  1  0.807313  0.915827  0.489713  1
  C  C5104  1  0.526020  0.092780  0.249160  1
  C  C5105  1  0.526020  0.156380  0.907220  1
  C  C5106  1  0.526020  0.750840  0.843620  1
  C  C5107  1  0.859353  0.759447  0.582493  1
  C  C5108  1  0.859353  0.823047  0.240553  1
  C  C5109  1  0.859353  0.417507  0.176953  1
  C  C5110  1  0.192687  0.426113  0.915827  1
  C  C5111  1  0.192687  0.489713  0.573887  1
  C  C5112  1  0.192687  0.084173  0.510287  1
  C  C5113  1  0.502660  0.914470  0.742240  1
  C  C5114  1  0.502660  0.827770  0.085530  1
  C  C5115  1  0.502660  0.257760  0.172230  1
  C  C5116  1  0.169327  0.247803  0.408907  1
  C  C5117  1  0.169327  0.161103  0.752197  1
  C  C5118  1  0.169327  0.591093  0.838897  1
  C  C5119  1  0.835993  0.581137  0.075573  1
  C  C5120  1  0.835993  0.494437  0.418863  1
  C  C5121  1  0.835993  0.924427  0.505563  1
  C  C5122  1  0.497340  0.085530  0.257760  1
  C  C5123  1  0.497340  0.172230  0.914470  1
  C  C5124  1  0.497340  0.742240  0.827770  1
  C  C5125  1  0.830673  0.752197  0.591093  1
  C  C5126  1  0.830673  0.838897  0.247803  1
  C  C5127  1  0.830673  0.408907  0.161103  1
  C  C5128  1  0.164007  0.418863  0.924427  1
  C  C5129  1  0.164007  0.505563  0.581137  1
  C  C5130  1  0.164007  0.075573  0.494437  1
  C  C5131  1  0.527570  0.930840  0.757320  1
  C  C5132  1  0.527570  0.826480  0.069160  1
  C  C5133  1  0.527570  0.242680  0.173520  1
  C  C5134  1  0.194237  0.264173  0.423987  1
  C  C5135  1  0.194237  0.159813  0.735827  1
  C  C5136  1  0.194237  0.576013  0.840187  1
  C  C5137  1  0.860903  0.597507  0.090653  1
  C  C5138  1  0.860903  0.493147  0.402493  1
  C  C5139  1  0.860903  0.909347  0.506853  1
  C  C5140  1  0.472430  0.069160  0.242680  1
  C  C5141  1  0.472430  0.173520  0.930840  1
  C  C5142  1  0.472430  0.757320  0.826480  1
  C  C5143  1  0.805763  0.735827  0.576013  1
  C  C5144  1  0.805763  0.840187  0.264173  1
  C  C5145  1  0.805763  0.423987  0.159813  1
  C  C5146  1  0.139097  0.402493  0.909347  1
  C  C5147  1  0.139097  0.506853  0.597507  1
  C  C5148  1  0.139097  0.090653  0.493147  1
  C  C5149  1  0.556250  0.938090  0.748720  1
  C  C5150  1  0.556250  0.810630  0.061910  1
  C  C5151  1  0.556250  0.251280  0.189370  1
  C  C5152  1  0.222917  0.271423  0.415387  1
  C  C5153  1  0.222917  0.143963  0.728577  1
  C  C5154  1  0.222917  0.584613  0.856037  1
  C  C5155  1  0.889583  0.604757  0.082053  1
  C  C5156  1  0.889583  0.477297  0.395243  1
  C  C5157  1  0.889583  0.917947  0.522703  1
  C  C5158  1  0.443750  0.061910  0.251280  1
  C  C5159  1  0.443750  0.189370  0.938090  1
  C  C5160  1  0.443750  0.748720  0.810630  1
  C  C5161  1  0.777083  0.728577  0.584613  1
  C  C5162  1  0.777083  0.856037  0.271423  1
  C  C5163  1  0.777083  0.415387  0.143963  1
  C  C5164  1  0.110417  0.395243  0.917947  1
  C  C5165  1  0.110417  0.522703  0.604757  1
  C  C5166  1  0.110417  0.082053  0.477297  1
  C  C5167  1  0.560000  0.928970  0.725040  1
  C  C5168  1  0.560000  0.796070  0.071030  1
  C  C5169  1  0.560000  0.274960  0.203930  1
  C  C5170  1  0.226667  0.262303  0.391707  1
  C  C5171  1  0.226667  0.129403  0.737697  1
  C  C5172  1  0.226667  0.608293  0.870597  1
  C  C5173  1  0.893333  0.595637  0.058373  1
  C  C5174  1  0.893333  0.462737  0.404363  1
  C  C5175  1  0.893333  0.941627  0.537263  1
  C  C5176  1  0.440000  0.071030  0.274960  1
  C  C5177  1  0.440000  0.203930  0.928970  1
  C  C5178  1  0.440000  0.725040  0.796070  1
  C  C5179  1  0.773333  0.737697  0.608293  1
  C  C5180  1  0.773333  0.870597  0.262303  1
  C  C5181  1  0.773333  0.391707  0.129403  1
  C  C5182  1  0.106667  0.404363  0.941627  1
  C  C5183  1  0.106667  0.537263  0.595637  1
  C  C5184  1  0.106667  0.058373  0.462737  1
  C  C5185  1  0.535100  0.912590  0.709950  1
  C  C5186  1  0.535100  0.797360  0.087410  1
  C  C5187  1  0.535100  0.290050  0.202640  1
  C  C5188  1  0.201767  0.245923  0.376617  1
  C  C5189  1  0.201767  0.130693  0.754077  1
  C  C5190  1  0.201767  0.623383  0.869307  1
  C  C5191  1  0.868433  0.579257  0.043283  1
  C  C5192  1  0.868433  0.464027  0.420743  1
  C  C5193  1  0.868433  0.956717  0.535973  1
  C  C5194  1  0.464900  0.087410  0.290050  1
  C  C5195  1  0.464900  0.202640  0.912590  1
  C  C5196  1  0.464900  0.709950  0.797360  1
  C  C5197  1  0.798233  0.754077  0.623383  1
  C  C5198  1  0.798233  0.869307  0.245923  1
  C  C5199  1  0.798233  0.376617  0.130693  1
  C  C5200  1  0.131567  0.420743  0.956717  1
  C  C5201  1  0.131567  0.535973  0.579257  1
  C  C5202  1  0.131567  0.043283  0.464027  1
  C  C5203  1  0.506400  0.905340  0.718550  1
  C  C5204  1  0.506400  0.813210  0.094660  1
  C  C5205  1  0.506400  0.281450  0.186790  1
  C  C5206  1  0.173067  0.238673  0.385217  1
  C  C5207  1  0.173067  0.146543  0.761327  1
  C  C5208  1  0.173067  0.614783  0.853457  1
  C  C5209  1  0.839733  0.572007  0.051883  1
  C  C5210  1  0.839733  0.479877  0.427993  1
  C  C5211  1  0.839733  0.948117  0.520123  1
  C  C5212  1  0.493600  0.094660  0.281450  1
  C  C5213  1  0.493600  0.186790  0.905340  1
  C  C5214  1  0.493600  0.718550  0.813210  1
  C  C5215  1  0.826933  0.761327  0.614783  1
  C  C5216  1  0.826933  0.853457  0.238673  1
  C  C5217  1  0.826933  0.385217  0.146543  1
  C  C5218  1  0.160267  0.427993  0.948117  1
  C  C5219  1  0.160267  0.520123  0.572007  1
  C  C5220  1  0.160267  0.051883  0.479877  1
  C  C5221  1  0.481500  0.887600  0.702700  1
  C  C5222  1  0.481500  0.815100  0.112400  1
  C  C5223  1  0.481500  0.297300  0.184900  1
  C  C5224  1  0.148167  0.220933  0.369367  1
  C  C5225  1  0.148167  0.148433  0.779067  1
  C  C5226  1  0.148167  0.630633  0.851567  1
  C  C5227  1  0.814833  0.554267  0.036033  1
  C  C5228  1  0.814833  0.481767  0.445733  1
  C  C5229  1  0.814833  0.963967  0.518233  1
  C  C5230  1  0.518500  0.112400  0.297300  1
  C  C5231  1  0.518500  0.184900  0.887600  1
  C  C5232  1  0.518500  0.702700  0.815100  1
  C  C5233  1  0.851833  0.779067  0.630633  1
  C  C5234  1  0.851833  0.851567  0.220933  1
  C  C5235  1  0.851833  0.369367  0.148433  1
  C  C5236  1  0.185167  0.445733  0.963967  1
  C  C5237  1  0.185167  0.518233  0.554267  1
  C  C5238  1  0.185167  0.036033  0.481767  1
  C  C5239  1  0.453600  0.879700  0.711200  1
  C  C5240  1  0.453600  0.831500  0.120300  1
  C  C5241  1  0.453600  0.288800  0.168500  1
  C  C5242  1  0.120267  0.213033  0.377867  1
  C  C5243  1  0.120267  0.164833  0.786967  1
  C  C5244  1  0.120267  0.622133  0.835167  1
  C  C5245  1  0.786933  0.546367  0.044533  1
  C  C5246  1  0.786933  0.498167  0.453633  1
  C  C5247  1  0.786933  0.955467  0.501833  1
  C  C5248  1  0.546400  0.120300  0.288800  1
  C  C5249  1  0.546400  0.168500  0.879700  1
  C  C5250  1  0.546400  0.711200  0.831500  1
  C  C5251  1  0.879733  0.786967  0.622133  1
  C  C5252  1  0.879733  0.835167  0.213033  1
  C  C5253  1  0.879733  0.377867  0.164833  1
  C  C5254  1  0.213067  0.453633  0.955467  1
  C  C5255  1  0.213067  0.501833  0.546367  1
  C  C5256  1  0.213067  0.044533  0.498167  1
  C  C5257  1  0.450400  0.889100  0.735200  1
  C  C5258  1  0.450400  0.846100  0.110900  1
  C  C5259  1  0.450400  0.264800  0.153900  1
  C  C5260  1  0.117067  0.222433  0.401867  1
  C  C5261  1  0.117067  0.179433  0.777567  1
  C  C5262  1  0.117067  0.598133  0.820567  1
  C  C5263  1  0.783733  0.555767  0.068533  1
  C  C5264  1  0.783733  0.512767  0.444233  1
  C  C5265  1  0.783733  0.931467  0.487233  1
  C  C5266  1  0.549600  0.110900  0.264800  1
  C  C5267  1  0.549600  0.153900  0.889100  1
  C  C5268  1  0.549600  0.735200  0.846100  1
  C  C5269  1  0.882933  0.777567  0.598133  1
  C  C5270  1  0.882933  0.820567  0.222433  1
  C  C5271  1  0.882933  0.401867  0.179433  1
  C  C5272  1  0.216267  0.444233  0.931467  1
  C  C5273  1  0.216267  0.487233  0.555767  1
  C  C5274  1  0.216267  0.068533  0.512767  1
  C  C5275  1  0.419200  0.879300  0.742600  1
  C  C5276  1  0.419200  0.863300  0.120700  1
  C  C5277  1  0.419200  0.257400  0.136700  1
  C  C5278  1  0.085867  0.212633  0.409267  1
  C  C5279  1  0.085867  0.196633  0.787367  1
  C  C5280  1  0.085867  0.590733  0.803367  1
  C  C5281  1  0.752533  0.545967  0.075933  1
  C  C5282  1  0.752533  0.529967  0.454033  1
  C  C5283  1  0.752533  0.924067  0.470033  1
  C  C5284  1  0.580800  0.120700  0.257400  1
  C  C5285  1  0.580800  0.136700  0.879300  1
  C  C5286  1  0.580800  0.742600  0.863300  1
  C  C5287  1  0.914133  0.787367  0.590733  1
  C  C5288  1  0.914133  0.803367  0.212633  1
  C  C5289  1  0.914133  0.409267  0.196633  1
  C  C5290  1  0.247467  0.454033  0.924067  1
  C  C5291  1  0.247467  0.470033  0.545967  1
  C  C5292  1  0.247467  0.075933  0.529967  1
  C  C5293  1  0.386300  0.891250  0.751120  1
  C  C5294  1  0.386300  0.859870  0.108750  1
  C  C5295  1  0.386300  0.248880  0.140130  1
  C  C5296  1  0.052967  0.224583  0.417787  1
  C  C5297  1  0.052967  0.193203  0.775417  1
  C  C5298  1  0.052967  0.582213  0.806797  1
  C  C5299  1  0.719633  0.557917  0.084453  1
  C  C5300  1  0.719633  0.526537  0.442083  1
  C  C5301  1  0.719633  0.915547  0.473463  1
  C  C5302  1  0.613700  0.108750  0.248880  1
  C  C5303  1  0.613700  0.140130  0.891250  1
  C  C5304  1  0.613700  0.751120  0.859870  1
  C  C5305  1  0.947033  0.775417  0.582213  1
  C  C5306  1  0.947033  0.806797  0.224583  1
  C  C5307  1  0.947033  0.417787  0.193203  1
  C  C5308  1  0.280367  0.442083  0.915547  1
  C  C5309  1  0.280367  0.473463  0.557917  1
  C  C5310  1  0.280367  0.084453  0.526537  1
  C  C5311  1  0.358200  0.881700  0.757700  1
  C  C5312  1  0.358200  0.876000  0.118300  1
  C  C5313  1  0.358200  0.242300  0.124000  1
  C  C5314  1  0.024867  0.215033  0.424367  1
  C  C5315  1  0.024867  0.209333  0.784967  1
  C  C5316  1  0.024867  0.575633  0.790667  1
  C  C5317  1  0.691533  0.548367  0.091033  1
  C  C5318  1  0.691533  0.542667  0.451633  1
  C  C5319  1  0.691533  0.908967  0.457333  1
  C  C5320  1  0.641800  0.118300  0.242300  1
  C  C5321  1  0.641800  0.124000  0.881700  1
  C  C5322  1  0.641800  0.757700  0.876000  1
  C  C5323  1  0.975133  0.784967  0.575633  1
  C  C5324  1  0.975133  0.790667  0.215033  1
  C  C5325  1  0.975133  0.424367  0.209333  1
  C  C5326  1  0.308467  0.451633  0.908967  1
  C  C5327  1  0.308467  0.457333  0.548367  1
  C  C5328  1  0.308467  0.091033  0.542667  1
  C  C5329  1  0.362800  0.860100  0.755700  1
  C  C5330  1  0.362800  0.895600  0.139900  1
  C  C5331  1  0.362800  0.244300  0.104400  1
  C  C5332  1  0.029467  0.193433  0.422367  1
  C  C5333  1  0.029467  0.228933  0.806567  1
  C  C5334  1  0.029467  0.577633  0.771067  1
  C  C5335  1  0.696133  0.526767  0.089033  1
  C  C5336  1  0.696133  0.562267  0.473233  1
  C  C5337  1  0.696133  0.910967  0.437733  1
  C  C5338  1  0.637200  0.139900  0.244300  1
  C  C5339  1  0.637200  0.104400  0.860100  1
  C  C5340  1  0.637200  0.755700  0.895600  1
  C  C5341  1  0.970533  0.806567  0.577633  1
  C  C5342  1  0.970533  0.771067  0.193433  1
  C  C5343  1  0.970533  0.422367  0.228933  1
  C  C5344  1  0.303867  0.473233  0.910967  1
  C  C5345  1  0.303867  0.437733  0.526767  1
  C  C5346  1  0.303867  0.089033  0.562267  1
  C  C5347  1  0.395700  0.848160  0.747220  1
  C  C5348  1  0.395700  0.899060  0.151840  1
  C  C5349  1  0.395700  0.252780  0.100940  1
  C  C5350  1  0.062367  0.181493  0.413887  1
  C  C5351  1  0.062367  0.232393  0.818507  1
  C  C5352  1  0.062367  0.586113  0.767607  1
  C  C5353  1  0.729033  0.514827  0.080553  1
  C  C5354  1  0.729033  0.565727  0.485173  1
  C  C5355  1  0.729033  0.919447  0.434273  1
  C  C5356  1  0.604300  0.151840  0.252780  1
  C  C5357  1  0.604300  0.100940  0.848160  1
  C  C5358  1  0.604300  0.747220  0.899060  1
  C  C5359  1  0.937633  0.818507  0.586113  1
  C  C5360  1  0.937633  0.767607  0.181493  1
  C  C5361  1  0.937633  0.413887  0.232393  1
  C  C5362  1  0.270967  0.485173  0.919447  1
  C  C5363  1  0.270967  0.434273  0.514827  1
  C  C5364  1  0.270967  0.080553  0.565727  1
  C  C5365  1  0.423800  0.857700  0.740600  1
  C  C5366  1  0.423800  0.882900  0.142300  1
  C  C5367  1  0.423800  0.259400  0.117100  1
  C  C5368  1  0.090467  0.191033  0.407267  1
  C  C5369  1  0.090467  0.216233  0.808967  1
  C  C5370  1  0.090467  0.592733  0.783767  1
  C  C5371  1  0.757133  0.524367  0.073933  1
  C  C5372  1  0.757133  0.549567  0.475633  1
  C  C5373  1  0.757133  0.926067  0.450433  1
  C  C5374  1  0.576200  0.142300  0.259400  1
  C  C5375  1  0.576200  0.117100  0.857700  1
  C  C5376  1  0.576200  0.740600  0.882900  1
  C  C5377  1  0.909533  0.808967  0.592733  1
  C  C5378  1  0.909533  0.783767  0.191033  1
  C  C5379  1  0.909533  0.407267  0.216233  1
  C  C5380  1  0.242867  0.475633  0.926067  1
  C  C5381  1  0.242867  0.450433  0.524367  1
  C  C5382  1  0.242867  0.073933  0.549567  1
  C  C5383  1  0.324280  0.915640  0.776130  1
  C  C5384  1  0.324280  0.860490  0.084360  1
  C  C5385  1  0.324280  0.223870  0.139510  1
  C  C5386  1  0.990947  0.248973  0.442797  1
  C  C5387  1  0.990947  0.193823  0.751027  1
  C  C5388  1  0.990947  0.557203  0.806177  1
  C  C5389  1  0.657613  0.582307  0.109463  1
  C  C5390  1  0.657613  0.527157  0.417693  1
  C  C5391  1  0.657613  0.890537  0.472843  1
  C  C5392  1  0.675720  0.084360  0.223870  1
  C  C5393  1  0.675720  0.139510  0.915640  1
  C  C5394  1  0.675720  0.776130  0.860490  1
  C  C5395  1  0.009053  0.751027  0.557203  1
  C  C5396  1  0.009053  0.806177  0.248973  1
  C  C5397  1  0.009053  0.442797  0.193823  1
  C  C5398  1  0.342387  0.417693  0.890537  1
  C  C5399  1  0.342387  0.472843  0.582307  1
  C  C5400  1  0.342387  0.109463  0.527157  1
  C  C5401  1  0.225860  0.926800  0.775030  1
  C  C5402  1  0.225860  0.848230  0.073200  1
  C  C5403  1  0.225860  0.224970  0.151770  1
  C  C5404  1  0.892527  0.260133  0.441697  1
  C  C5405  1  0.892527  0.181563  0.739867  1
  C  C5406  1  0.892527  0.558303  0.818437  1
  C  C5407  1  0.559193  0.593467  0.108363  1
  C  C5408  1  0.559193  0.514897  0.406533  1
  C  C5409  1  0.559193  0.891637  0.485103  1
  C  C5410  1  0.774140  0.073200  0.224970  1
  C  C5411  1  0.774140  0.151770  0.926800  1
  C  C5412  1  0.774140  0.775030  0.848230  1
  C  C5413  1  0.107473  0.739867  0.558303  1
  C  C5414  1  0.107473  0.818437  0.260133  1
  C  C5415  1  0.107473  0.441697  0.181563  1
  C  C5416  1  0.440807  0.406533  0.891637  1
  C  C5417  1  0.440807  0.485103  0.593467  1
  C  C5418  1  0.440807  0.108363  0.514897  1
  C  C5419  1  0.223600  0.950700  0.788060  1
  C  C5420  1  0.223600  0.837360  0.049300  1
  C  C5421  1  0.223600  0.211940  0.162640  1
  C  C5422  1  0.890267  0.284033  0.454727  1
  C  C5423  1  0.890267  0.170693  0.715967  1
  C  C5424  1  0.890267  0.545273  0.829307  1
  C  C5425  1  0.556933  0.617367  0.121393  1
  C  C5426  1  0.556933  0.504027  0.382633  1
  C  C5427  1  0.556933  0.878607  0.495973  1
  C  C5428  1  0.776400  0.049300  0.211940  1
  C  C5429  1  0.776400  0.162640  0.950700  1
  C  C5430  1  0.776400  0.788060  0.837360  1
  C  C5431  1  0.109733  0.715967  0.545273  1
  C  C5432  1  0.109733  0.829307  0.284033  1
  C  C5433  1  0.109733  0.454727  0.170693  1
  C  C5434  1  0.443067  0.382633  0.878607  1
  C  C5435  1  0.443067  0.495973  0.617367  1
  C  C5436  1  0.443067  0.121393  0.504027  1
  C  C5437  1  0.255000  0.963500  0.798100  1
  C  C5438  1  0.255000  0.834600  0.036500  1
  C  C5439  1  0.255000  0.201900  0.165400  1
  C  C5440  1  0.921667  0.296833  0.464767  1
  C  C5441  1  0.921667  0.167933  0.703167  1
  C  C5442  1  0.921667  0.535233  0.832067  1
  C  C5443  1  0.588333  0.630167  0.131433  1
  C  C5444  1  0.588333  0.501267  0.369833  1
  C  C5445  1  0.588333  0.868567  0.498733  1
  C  C5446  1  0.745000  0.036500  0.201900  1
  C  C5447  1  0.745000  0.165400  0.963500  1
  C  C5448  1  0.745000  0.798100  0.834600  1
  C  C5449  1  0.078333  0.703167  0.535233  1
  C  C5450  1  0.078333  0.832067  0.296833  1
  C  C5451  1  0.078333  0.464767  0.167933  1
  C  C5452  1  0.411667  0.369833  0.868567  1
  C  C5453  1  0.411667  0.498733  0.630167  1
  C  C5454  1  0.411667  0.131433  0.501267  1
  C  C5455  1  0.288170  0.952100  0.794840  1
  C  C5456  1  0.288170  0.842740  0.047900  1
  C  C5457  1  0.288170  0.205160  0.157260  1
  C  C5458  1  0.954837  0.285433  0.461507  1
  C  C5459  1  0.954837  0.176073  0.714567  1
  C  C5460  1  0.954837  0.538493  0.823927  1
  C  C5461  1  0.621503  0.618767  0.128173  1
  C  C5462  1  0.621503  0.509407  0.381233  1
  C  C5463  1  0.621503  0.871827  0.490593  1
  C  C5464  1  0.711830  0.047900  0.205160  1
  C  C5465  1  0.711830  0.157260  0.952100  1
  C  C5466  1  0.711830  0.794840  0.842740  1
  C  C5467  1  0.045163  0.714567  0.538493  1
  C  C5468  1  0.045163  0.823927  0.285433  1
  C  C5469  1  0.045163  0.461507  0.176073  1
  C  C5470  1  0.378497  0.381233  0.871827  1
  C  C5471  1  0.378497  0.490593  0.618767  1
  C  C5472  1  0.378497  0.128173  0.509407  1
  C  C5473  1  0.288860  0.928400  0.781220  1
  C  C5474  1  0.288860  0.852820  0.071600  1
  C  C5475  1  0.288860  0.218780  0.147180  1
  C  C5476  1  0.955527  0.261733  0.447887  1
  C  C5477  1  0.955527  0.186153  0.738267  1
  C  C5478  1  0.955527  0.552113  0.813847  1
  C  C5479  1  0.622193  0.595067  0.114553  1
  C  C5480  1  0.622193  0.519487  0.404933  1
  C  C5481  1  0.622193  0.885447  0.480513  1
  C  C5482  1  0.711140  0.071600  0.218780  1
  C  C5483  1  0.711140  0.147180  0.928400  1
  C  C5484  1  0.711140  0.781220  0.852820  1
  C  C5485  1  0.044473  0.738267  0.552113  1
  C  C5486  1  0.044473  0.813847  0.261733  1
  C  C5487  1  0.044473  0.447887  0.186153  1
  C  C5488  1  0.377807  0.404933  0.885447  1
  C  C5489  1  0.377807  0.480513  0.595067  1
  C  C5490  1  0.377807  0.114553  0.519487  1
  C  C5491  1  0.784330  0.967140  0.706960  1
  C  C5492  1  0.784330  0.739820  0.032860  1
  C  C5493  1  0.784330  0.293040  0.260180  1
  C  C5494  1  0.450997  0.300473  0.373627  1
  C  C5495  1  0.450997  0.073153  0.699527  1
  C  C5496  1  0.450997  0.626373  0.926847  1
  C  C5497  1  0.117663  0.633807  0.040293  1
  C  C5498  1  0.117663  0.406487  0.366193  1
  C  C5499  1  0.117663  0.959707  0.593513  1
  C  C5500  1  0.215670  0.032860  0.293040  1
  C  C5501  1  0.215670  0.260180  0.967140  1
  C  C5502  1  0.215670  0.706960  0.739820  1
  C  C5503  1  0.549003  0.699527  0.626373  1
  C  C5504  1  0.549003  0.926847  0.300473  1
  C  C5505  1  0.549003  0.373627  0.073153  1
  C  C5506  1  0.882337  0.366193  0.959707  1
  C  C5507  1  0.882337  0.593513  0.633807  1
  C  C5508  1  0.882337  0.040293  0.406487  1
  C  C5509  1  0.806780  0.986480  0.716590  1
  C  C5510  1  0.806780  0.730110  0.013520  1
  C  C5511  1  0.806780  0.283410  0.269890  1
  C  C5512  1  0.473447  0.319813  0.383257  1
  C  C5513  1  0.473447  0.063443  0.680187  1
  C  C5514  1  0.473447  0.616743  0.936557  1
  C  C5515  1  0.140113  0.653147  0.049923  1
  C  C5516  1  0.140113  0.396777  0.346853  1
  C  C5517  1  0.140113  0.950077  0.603223  1
  C  C5518  1  0.193220  0.013520  0.283410  1
  C  C5519  1  0.193220  0.269890  0.986480  1
  C  C5520  1  0.193220  0.716590  0.730110  1
  C  C5521  1  0.526553  0.680187  0.616743  1
  C  C5522  1  0.526553  0.936557  0.319813  1
  C  C5523  1  0.526553  0.383257  0.063443  1
  C  C5524  1  0.859887  0.346853  0.950077  1
  C  C5525  1  0.859887  0.603223  0.653147  1
  C  C5526  1  0.859887  0.049923  0.396777  1
  C  C5527  1  0.794270  0.006830  0.718310  1
  C  C5528  1  0.794270  0.711480  0.993170  1
  C  C5529  1  0.794270  0.281690  0.288520  1
  C  C5530  1  0.460937  0.340163  0.384977  1
  C  C5531  1  0.460937  0.044813  0.659837  1
  C  C5532  1  0.460937  0.615023  0.955187  1
  C  C5533  1  0.127603  0.673497  0.051643  1
  C  C5534  1  0.127603  0.378147  0.326503  1
  C  C5535  1  0.127603  0.948357  0.621853  1
  C  C5536  1  0.205730  0.993170  0.281690  1
  C  C5537  1  0.205730  0.288520  0.006830  1
  C  C5538  1  0.205730  0.718310  0.711480  1
  C  C5539  1  0.539063  0.659837  0.615023  1
  C  C5540  1  0.539063  0.955187  0.340163  1
  C  C5541  1  0.539063  0.384977  0.044813  1
  C  C5542  1  0.872397  0.326503  0.948357  1
  C  C5543  1  0.872397  0.621853  0.673497  1
  C  C5544  1  0.872397  0.051643  0.378147  1
  C  C5545  1  0.759360  0.007450  0.710420  1
  C  C5546  1  0.759360  0.702970  0.992550  1
  C  C5547  1  0.759360  0.289580  0.297030  1
  C  C5548  1  0.426027  0.340783  0.377087  1
  C  C5549  1  0.426027  0.036303  0.659217  1
  C  C5550  1  0.426027  0.622913  0.963697  1
  C  C5551  1  0.092693  0.674117  0.043753  1
  C  C5552  1  0.092693  0.369637  0.325883  1
  C  C5553  1  0.092693  0.956247  0.630363  1
  C  C5554  1  0.240640  0.992550  0.289580  1
  C  C5555  1  0.240640  0.297030  0.007450  1
  C  C5556  1  0.240640  0.710420  0.702970  1
  C  C5557  1  0.573973  0.659217  0.622913  1
  C  C5558  1  0.573973  0.963697  0.340783  1
  C  C5559  1  0.573973  0.377087  0.036303  1
  C  C5560  1  0.907307  0.325883  0.956247  1
  C  C5561  1  0.907307  0.630363  0.674117  1
  C  C5562  1  0.907307  0.043753  0.369637  1
  C  C5563  1  0.737910  0.987850  0.701610  1
  C  C5564  1  0.737910  0.713760  0.012150  1
  C  C5565  1  0.737910  0.298390  0.286240  1
  C  C5566  1  0.404577  0.321183  0.368277  1
  C  C5567  1  0.404577  0.047093  0.678817  1
  C  C5568  1  0.404577  0.631723  0.952907  1
  C  C5569  1  0.071243  0.654517  0.034943  1
  C  C5570  1  0.071243  0.380427  0.345483  1
  C  C5571  1  0.071243  0.965057  0.619573  1
  C  C5572  1  0.262090  0.012150  0.298390  1
  C  C5573  1  0.262090  0.286240  0.987850  1
  C  C5574  1  0.262090  0.701610  0.713760  1
  C  C5575  1  0.595423  0.678817  0.631723  1
  C  C5576  1  0.595423  0.952907  0.321183  1
  C  C5577  1  0.595423  0.368277  0.047093  1
  C  C5578  1  0.928757  0.345483  0.965057  1
  C  C5579  1  0.928757  0.619573  0.654517  1
  C  C5580  1  0.928757  0.034943  0.380427  1
  C  C5581  1  0.700000  0.986500  0.693700  1
  C  C5582  1  0.700000  0.707200  0.013500  1
  C  C5583  1  0.700000  0.306300  0.292800  1
  C  C5584  1  0.366667  0.319833  0.360367  1
  C  C5585  1  0.366667  0.040533  0.680167  1
  C  C5586  1  0.366667  0.639633  0.959467  1
  C  C5587  1  0.033333  0.653167  0.027033  1
  C  C5588  1  0.033333  0.373867  0.346833  1
  C  C5589  1  0.033333  0.972967  0.626133  1
  C  C5590  1  0.300000  0.013500  0.306300  1
  C  C5591  1  0.300000  0.292800  0.986500  1
  C  C5592  1  0.300000  0.693700  0.707200  1
  C  C5593  1  0.633333  0.680167  0.639633  1
  C  C5594  1  0.633333  0.959467  0.319833  1
  C  C5595  1  0.633333  0.360367  0.040533  1
  C  C5596  1  0.966667  0.346833  0.972967  1
  C  C5597  1  0.966667  0.626133  0.653167  1
  C  C5598  1  0.966667  0.027033  0.373867  1
  C  C5599  1  0.642100  0.969220  0.680120  1
  C  C5600  1  0.642100  0.710900  0.030780  1
  C  C5601  1  0.642100  0.319880  0.289100  1
  C  C5602  1  0.308767  0.302553  0.346787  1
  C  C5603  1  0.308767  0.044233  0.697447  1
  C  C5604  1  0.308767  0.653213  0.955767  1
  C  C5605  1  0.975433  0.635887  0.013453  1
  C  C5606  1  0.975433  0.377567  0.364113  1
  C  C5607  1  0.975433  0.986547  0.622433  1
  C  C5608  1  0.357900  0.030780  0.319880  1
  C  C5609  1  0.357900  0.289100  0.969220  1
  C  C5610  1  0.357900  0.680120  0.710900  1
  C  C5611  1  0.691233  0.697447  0.653213  1
  C  C5612  1  0.691233  0.955767  0.302553  1
  C  C5613  1  0.691233  0.346787  0.044233  1
  C  C5614  1  0.024567  0.364113  0.986547  1
  C  C5615  1  0.024567  0.622433  0.635887  1
  C  C5616  1  0.024567  0.013453  0.377567  1
  C  C5617  1  0.612400  0.965270  0.690870  1
  C  C5618  1  0.612400  0.725600  0.034730  1
  C  C5619  1  0.612400  0.309130  0.274400  1
  C  C5620  1  0.279067  0.298603  0.357537  1
  C  C5621  1  0.279067  0.058933  0.701397  1
  C  C5622  1  0.279067  0.642463  0.941067  1
  C  C5623  1  0.945733  0.631937  0.024203  1
  C  C5624  1  0.945733  0.392267  0.368063  1
  C  C5625  1  0.945733  0.975797  0.607733  1
  C  C5626  1  0.387600  0.034730  0.309130  1
  C  C5627  1  0.387600  0.274400  0.965270  1
  C  C5628  1  0.387600  0.690870  0.725600  1
  C  C5629  1  0.720933  0.701397  0.642463  1
  C  C5630  1  0.720933  0.941067  0.298603  1
  C  C5631  1  0.720933  0.357537  0.058933  1
  C  C5632  1  0.054267  0.368063  0.975797  1
  C  C5633  1  0.054267  0.607733  0.631937  1
  C  C5634  1  0.054267  0.024203  0.392267  1
  C  C5635  1  0.577300  0.962820  0.681810  1
  C  C5636  1  0.577300  0.718990  0.037180  1
  C  C5637  1  0.577300  0.318190  0.281010  1
  C  C5638  1  0.243967  0.296153  0.348477  1
  C  C5639  1  0.243967  0.052323  0.703847  1
  C  C5640  1  0.243967  0.651523  0.947677  1
  C  C5641  1  0.910633  0.629487  0.015143  1
  C  C5642  1  0.910633  0.385657  0.370513  1
  C  C5643  1  0.910633  0.984857  0.614343  1
  C  C5644  1  0.422700  0.037180  0.318190  1
  C  C5645  1  0.422700  0.281010  0.962820  1
  C  C5646  1  0.422700  0.681810  0.718990  1
  C  C5647  1  0.756033  0.703847  0.651523  1
  C  C5648  1  0.756033  0.947677  0.296153  1
  C  C5649  1  0.756033  0.348477  0.052323  1
  C  C5650  1  0.089367  0.370513  0.984857  1
  C  C5651  1  0.089367  0.614343  0.629487  1
  C  C5652  1  0.089367  0.015143  0.385657  1
  C  C5653  1  0.571700  0.964320  0.662020  1
  C  C5654  1  0.571700  0.697700  0.035680  1
  C  C5655  1  0.571700  0.337980  0.302300  1
  C  C5656  1  0.238367  0.297653  0.328687  1
  C  C5657  1  0.238367  0.031033  0.702347  1
  C  C5658  1  0.238367  0.671313  0.968967  1
  C  C5659  1  0.905033  0.630987  0.995353  1
  C  C5660  1  0.905033  0.364367  0.369013  1
  C  C5661  1  0.905033  0.004647  0.635633  1
  C  C5662  1  0.428300  0.035680  0.337980  1
  C  C5663  1  0.428300  0.302300  0.964320  1
  C  C5664  1  0.428300  0.662020  0.697700  1
  C  C5665  1  0.761633  0.702347  0.671313  1
  C  C5666  1  0.761633  0.968967  0.297653  1
  C  C5667  1  0.761633  0.328687  0.031033  1
  C  C5668  1  0.094967  0.369013  0.004647  1
  C  C5669  1  0.094967  0.635633  0.630987  1
  C  C5670  1  0.094967  0.995353  0.364367  1
  C  C5671  1  0.601300  0.968270  0.651310  1
  C  C5672  1  0.601300  0.683040  0.031730  1
  C  C5673  1  0.601300  0.348690  0.316960  1
  C  C5674  1  0.267967  0.301603  0.317977  1
  C  C5675  1  0.267967  0.016373  0.698397  1
  C  C5676  1  0.267967  0.682023  0.983627  1
  C  C5677  1  0.934633  0.634937  0.984643  1
  C  C5678  1  0.934633  0.349707  0.365063  1
  C  C5679  1  0.934633  0.015357  0.650293  1
  C  C5680  1  0.398700  0.031730  0.348690  1
  C  C5681  1  0.398700  0.316960  0.968270  1
  C  C5682  1  0.398700  0.651310  0.683040  1
  C  C5683  1  0.732033  0.698397  0.682023  1
  C  C5684  1  0.732033  0.983627  0.301603  1
  C  C5685  1  0.732033  0.317977  0.016373  1
  C  C5686  1  0.065367  0.365063  0.015357  1
  C  C5687  1  0.065367  0.650293  0.634937  1
  C  C5688  1  0.065367  0.984643  0.349707  1
  C  C5689  1  0.636500  0.970720  0.660370  1
  C  C5690  1  0.636500  0.689650  0.029280  1
  C  C5691  1  0.636500  0.339630  0.310350  1
  C  C5692  1  0.303167  0.304053  0.327037  1
  C  C5693  1  0.303167  0.022983  0.695947  1
  C  C5694  1  0.303167  0.672963  0.977017  1
  C  C5695  1  0.969833  0.637387  0.993703  1
  C  C5696  1  0.969833  0.356317  0.362613  1
  C  C5697  1  0.969833  0.006297  0.643683  1
  C  C5698  1  0.363500  0.029280  0.339630  1
  C  C5699  1  0.363500  0.310350  0.970720  1
  C  C5700  1  0.363500  0.660370  0.689650  1
  C  C5701  1  0.696833  0.695947  0.672963  1
  C  C5702  1  0.696833  0.977017  0.304053  1
  C  C5703  1  0.696833  0.327037  0.022983  1
  C  C5704  1  0.030167  0.362613  0.006297  1
  C  C5705  1  0.030167  0.643683  0.637387  1
  C  C5706  1  0.030167  0.993703  0.356317  1
  C  C5707  1  0.545200  0.960600  0.694500  1
  C  C5708  1  0.545200  0.733900  0.039400  1
  C  C5709  1  0.545200  0.305500  0.266100  1
  C  C5710  1  0.211867  0.293933  0.361167  1
  C  C5711  1  0.211867  0.067233  0.706067  1
  C  C5712  1  0.211867  0.638833  0.932767  1
  C  C5713  1  0.878533  0.627267  0.027833  1
  C  C5714  1  0.878533  0.400567  0.372733  1
  C  C5715  1  0.878533  0.972167  0.599433  1
  C  C5716  1  0.454800  0.039400  0.305500  1
  C  C5717  1  0.454800  0.266100  0.960600  1
  C  C5718  1  0.454800  0.694500  0.733900  1
  C  C5719  1  0.788133  0.706067  0.638833  1
  C  C5720  1  0.788133  0.932767  0.293933  1
  C  C5721  1  0.788133  0.361167  0.067233  1
  C  C5722  1  0.121467  0.372733  0.972167  1
  C  C5723  1  0.121467  0.599433  0.627267  1
  C  C5724  1  0.121467  0.027833  0.400567  1
  C  C5725  1  0.542900  0.977100  0.717900  1
  C  C5726  1  0.542900  0.740800  0.022900  1
  C  C5727  1  0.542900  0.282100  0.259200  1
  C  C5728  1  0.209567  0.310433  0.384567  1
  C  C5729  1  0.209567  0.074133  0.689567  1
  C  C5730  1  0.209567  0.615433  0.925867  1
  C  C5731  1  0.876233  0.643767  0.051233  1
  C  C5732  1  0.876233  0.407467  0.356233  1
  C  C5733  1  0.876233  0.948767  0.592533  1
  C  C5734  1  0.457100  0.022900  0.282100  1
  C  C5735  1  0.457100  0.259200  0.977100  1
  C  C5736  1  0.457100  0.717900  0.740800  1
  C  C5737  1  0.790433  0.689567  0.615433  1
  C  C5738  1  0.790433  0.925867  0.310433  1
  C  C5739  1  0.790433  0.384567  0.074133  1
  C  C5740  1  0.123767  0.356233  0.948767  1
  C  C5741  1  0.123767  0.592533  0.643767  1
  C  C5742  1  0.123767  0.051233  0.407467  1
  C  C5743  1  0.512500  0.976800  0.730600  1
  C  C5744  1  0.512500  0.753800  0.023200  1
  C  C5745  1  0.512500  0.269400  0.246200  1
  C  C5746  1  0.179167  0.310133  0.397267  1
  C  C5747  1  0.179167  0.087133  0.689867  1
  C  C5748  1  0.179167  0.602733  0.912867  1
  C  C5749  1  0.845833  0.643467  0.063933  1
  C  C5750  1  0.845833  0.420467  0.356533  1
  C  C5751  1  0.845833  0.936067  0.579533  1
  C  C5752  1  0.487500  0.023200  0.269400  1
  C  C5753  1  0.487500  0.246200  0.976800  1
  C  C5754  1  0.487500  0.730600  0.753800  1
  C  C5755  1  0.820833  0.689867  0.602733  1
  C  C5756  1  0.820833  0.912867  0.310133  1
  C  C5757  1  0.820833  0.397267  0.087133  1
  C  C5758  1  0.154167  0.356533  0.936067  1
  C  C5759  1  0.154167  0.579533  0.643467  1
  C  C5760  1  0.154167  0.063933  0.420467  1
  C  C5761  1  0.483200  0.960630  0.719950  1
  C  C5762  1  0.483200  0.759320  0.039370  1
  C  C5763  1  0.483200  0.280050  0.240680  1
  C  C5764  1  0.149867  0.293963  0.386617  1
  C  C5765  1  0.149867  0.092653  0.706037  1
  C  C5766  1  0.149867  0.613383  0.907347  1
  C  C5767  1  0.816533  0.627297  0.053283  1
  C  C5768  1  0.816533  0.425987  0.372703  1
  C  C5769  1  0.816533  0.946717  0.574013  1
  C  C5770  1  0.516800  0.039370  0.280050  1
  C  C5771  1  0.516800  0.240680  0.960630  1
  C  C5772  1  0.516800  0.719950  0.759320  1
  C  C5773  1  0.850133  0.706037  0.613383  1
  C  C5774  1  0.850133  0.907347  0.293963  1
  C  C5775  1  0.850133  0.386617  0.092653  1
  C  C5776  1  0.183467  0.372703  0.946717  1
  C  C5777  1  0.183467  0.574013  0.627297  1
  C  C5778  1  0.183467  0.053283  0.425987  1
  C  C5779  1  0.452700  0.960920  0.732560  1
  C  C5780  1  0.452700  0.771640  0.039080  1
  C  C5781  1  0.452700  0.267440  0.228360  1
  C  C5782  1  0.119367  0.294253  0.399227  1
  C  C5783  1  0.119367  0.104973  0.705747  1
  C  C5784  1  0.119367  0.600773  0.895027  1
  C  C5785  1  0.786033  0.627587  0.065893  1
  C  C5786  1  0.786033  0.438307  0.372413  1
  C  C5787  1  0.786033  0.934107  0.561693  1
  C  C5788  1  0.547300  0.039080  0.267440  1
  C  C5789  1  0.547300  0.228360  0.960920  1
  C  C5790  1  0.547300  0.732560  0.771640  1
  C  C5791  1  0.880633  0.705747  0.600773  1
  C  C5792  1  0.880633  0.895027  0.294253  1
  C  C5793  1  0.880633  0.399227  0.104973  1
  C  C5794  1  0.213967  0.372413  0.934107  1
  C  C5795  1  0.213967  0.561693  0.627587  1
  C  C5796  1  0.213967  0.065893  0.438307  1
  C  C5797  1  0.426000  0.943850  0.722280  1
  C  C5798  1  0.426000  0.778430  0.056150  1
  C  C5799  1  0.426000  0.277720  0.221570  1
  C  C5800  1  0.092667  0.277183  0.388947  1
  C  C5801  1  0.092667  0.111763  0.722817  1
  C  C5802  1  0.092667  0.611053  0.888237  1
  C  C5803  1  0.759333  0.610517  0.055613  1
  C  C5804  1  0.759333  0.445097  0.389483  1
  C  C5805  1  0.759333  0.944387  0.554903  1
  C  C5806  1  0.574000  0.056150  0.277720  1
  C  C5807  1  0.574000  0.221570  0.943850  1
  C  C5808  1  0.574000  0.722280  0.778430  1
  C  C5809  1  0.907333  0.722817  0.611053  1
  C  C5810  1  0.907333  0.888237  0.277183  1
  C  C5811  1  0.907333  0.388947  0.111763  1
  C  C5812  1  0.240667  0.389483  0.944387  1
  C  C5813  1  0.240667  0.554903  0.610517  1
  C  C5814  1  0.240667  0.055613  0.445097  1
  C  C5815  1  0.429860  0.926490  0.699400  1
  C  C5816  1  0.429860  0.772910  0.073510  1
  C  C5817  1  0.429860  0.300600  0.227090  1
  C  C5818  1  0.096527  0.259823  0.366067  1
  C  C5819  1  0.096527  0.106243  0.740177  1
  C  C5820  1  0.096527  0.633933  0.893757  1
  C  C5821  1  0.763193  0.593157  0.032733  1
  C  C5822  1  0.763193  0.439577  0.406843  1
  C  C5823  1  0.763193  0.967267  0.560423  1
  C  C5824  1  0.570140  0.073510  0.300600  1
  C  C5825  1  0.570140  0.227090  0.926490  1
  C  C5826  1  0.570140  0.699400  0.772910  1
  C  C5827  1  0.903473  0.740177  0.633933  1
  C  C5828  1  0.903473  0.893757  0.259823  1
  C  C5829  1  0.903473  0.366067  0.106243  1
  C  C5830  1  0.236807  0.406843  0.967267  1
  C  C5831  1  0.236807  0.560423  0.593157  1
  C  C5832  1  0.236807  0.032733  0.439577  1
  C  C5833  1  0.460450  0.926200  0.686790  1
  C  C5834  1  0.460450  0.760590  0.073800  1
  C  C5835  1  0.460450  0.313210  0.239410  1
  C  C5836  1  0.127117  0.259533  0.353457  1
  C  C5837  1  0.127117  0.093923  0.740467  1
  C  C5838  1  0.127117  0.646543  0.906077  1
  C  C5839  1  0.793783  0.592867  0.020123  1
  C  C5840  1  0.793783  0.427257  0.407133  1
  C  C5841  1  0.793783  0.979877  0.572743  1
  C  C5842  1  0.539550  0.073800  0.313210  1
  C  C5843  1  0.539550  0.239410  0.926200  1
  C  C5844  1  0.539550  0.686790  0.760590  1
  C  C5845  1  0.872883  0.740467  0.646543  1
  C  C5846  1  0.872883  0.906077  0.259533  1
  C  C5847  1  0.872883  0.353457  0.093923  1
  C  C5848  1  0.206217  0.407133  0.979877  1
  C  C5849  1  0.206217  0.572743  0.592867  1
  C  C5850  1  0.206217  0.020123  0.427257  1
  C  C5851  1  0.487140  0.943270  0.697060  1
  C  C5852  1  0.487140  0.753790  0.056730  1
  C  C5853  1  0.487140  0.302940  0.246210  1
  C  C5854  1  0.153807  0.276603  0.363727  1
  C  C5855  1  0.153807  0.087123  0.723397  1
  C  C5856  1  0.153807  0.636273  0.912877  1
  C  C5857  1  0.820473  0.609937  0.030393  1
  C  C5858  1  0.820473  0.420457  0.390063  1
  C  C5859  1  0.820473  0.969607  0.579543  1
  C  C5860  1  0.512860  0.056730  0.302940  1
  C  C5861  1  0.512860  0.246210  0.943270  1
  C  C5862  1  0.512860  0.697060  0.753790  1
  C  C5863  1  0.846193  0.723397  0.636273  1
  C  C5864  1  0.846193  0.912877  0.276603  1
  C  C5865  1  0.846193  0.363727  0.087123  1
  C  C5866  1  0.179527  0.390063  0.969607  1
  C  C5867  1  0.179527  0.579543  0.609937  1
  C  C5868  1  0.179527  0.030393  0.420457  1
  C  C5869  1  0.517730  0.942970  0.684440  1
  C  C5870  1  0.517730  0.741470  0.057030  1
  C  C5871  1  0.517730  0.315560  0.258530  1
  C  C5872  1  0.184397  0.276303  0.351107  1
  C  C5873  1  0.184397  0.074803  0.723697  1
  C  C5874  1  0.184397  0.648893  0.925197  1
  C  C5875  1  0.851063  0.609637  0.017773  1
  C  C5876  1  0.851063  0.408137  0.390363  1
  C  C5877  1  0.851063  0.982227  0.591863  1
  C  C5878  1  0.482270  0.057030  0.315560  1
  C  C5879  1  0.482270  0.258530  0.942970  1
  C  C5880  1  0.482270  0.684440  0.741470  1
  C  C5881  1  0.815603  0.723697  0.648893  1
  C  C5882  1  0.815603  0.925197  0.276303  1
  C  C5883  1  0.815603  0.351107  0.074803  1
  C  C5884  1  0.148937  0.390363  0.982227  1
  C  C5885  1  0.148937  0.591863  0.609637  1
  C  C5886  1  0.148937  0.017773  0.408137  1
  C  C5887  1  0.521600  0.925610  0.661560  1
  C  C5888  1  0.521600  0.735950  0.074390  1
  C  C5889  1  0.521600  0.338440  0.264050  1
  C  C5890  1  0.188267  0.258943  0.328227  1
  C  C5891  1  0.188267  0.069283  0.741057  1
  C  C5892  1  0.188267  0.671773  0.930717  1
  C  C5893  1  0.854933  0.592277  0.994893  1
  C  C5894  1  0.854933  0.402617  0.407723  1
  C  C5895  1  0.854933  0.005107  0.597383  1
  C  C5896  1  0.478400  0.074390  0.338440  1
  C  C5897  1  0.478400  0.264050  0.925610  1
  C  C5898  1  0.478400  0.661560  0.735950  1
  C  C5899  1  0.811733  0.741057  0.671773  1
  C  C5900  1  0.811733  0.930717  0.258943  1
  C  C5901  1  0.811733  0.328227  0.069283  1
  C  C5902  1  0.145067  0.407723  0.005107  1
  C  C5903  1  0.145067  0.597383  0.592277  1
  C  C5904  1  0.145067  0.994893  0.402617  1
  C  C5905  1  0.494900  0.908550  0.651290  1
  C  C5906  1  0.494900  0.742740  0.091450  1
  C  C5907  1  0.494900  0.348710  0.257260  1
  C  C5908  1  0.161567  0.241883  0.317957  1
  C  C5909  1  0.161567  0.076073  0.758117  1
  C  C5910  1  0.161567  0.682043  0.923927  1
  C  C5911  1  0.828233  0.575217  0.984623  1
  C  C5912  1  0.828233  0.409407  0.424783  1
  C  C5913  1  0.828233  0.015377  0.590593  1
  C  C5914  1  0.505100  0.091450  0.348710  1
  C  C5915  1  0.505100  0.257260  0.908550  1
  C  C5916  1  0.505100  0.651290  0.742740  1
  C  C5917  1  0.838433  0.758117  0.682043  1
  C  C5918  1  0.838433  0.923927  0.241883  1
  C  C5919  1  0.838433  0.317957  0.076073  1
  C  C5920  1  0.171767  0.424783  0.015377  1
  C  C5921  1  0.171767  0.590593  0.575217  1
  C  C5922  1  0.171767  0.984623  0.409407  1
  C  C5923  1  0.464400  0.908840  0.663900  1
  C  C5924  1  0.464400  0.755060  0.091160  1
  C  C5925  1  0.464400  0.336100  0.244940  1
  C  C5926  1  0.131067  0.242173  0.330567  1
  C  C5927  1  0.131067  0.088393  0.757827  1
  C  C5928  1  0.131067  0.669433  0.911607  1
  C  C5929  1  0.797733  0.575507  0.997233  1
  C  C5930  1  0.797733  0.421727  0.424493  1
  C  C5931  1  0.797733  0.002767  0.578273  1
  C  C5932  1  0.535600  0.091160  0.336100  1
  C  C5933  1  0.535600  0.244940  0.908840  1
  C  C5934  1  0.535600  0.663900  0.755060  1
  C  C5935  1  0.868933  0.757827  0.669433  1
  C  C5936  1  0.868933  0.911607  0.242173  1
  C  C5937  1  0.868933  0.330567  0.088393  1
  C  C5938  1  0.202267  0.424493  0.002767  1
  C  C5939  1  0.202267  0.578273  0.575507  1
  C  C5940  1  0.202267  0.997233  0.421727  1
  C  C5941  1  0.438900  0.890500  0.653800  1
  C  C5942  1  0.438900  0.763300  0.109500  1
  C  C5943  1  0.438900  0.346200  0.236700  1
  C  C5944  1  0.105567  0.223833  0.320467  1
  C  C5945  1  0.105567  0.096633  0.776167  1
  C  C5946  1  0.105567  0.679533  0.903367  1
  C  C5947  1  0.772233  0.557167  0.987133  1
  C  C5948  1  0.772233  0.429967  0.442833  1
  C  C5949  1  0.772233  0.012867  0.570033  1
  C  C5950  1  0.561100  0.109500  0.346200  1
  C  C5951  1  0.561100  0.236700  0.890500  1
  C  C5952  1  0.561100  0.653800  0.763300  1
  C  C5953  1  0.894433  0.776167  0.679533  1
  C  C5954  1  0.894433  0.903367  0.223833  1
  C  C5955  1  0.894433  0.320467  0.096633  1
  C  C5956  1  0.227767  0.442833  0.012867  1
  C  C5957  1  0.227767  0.570033  0.557167  1
  C  C5958  1  0.227767  0.987133  0.429967  1
  C  C5959  1  0.408400  0.891900  0.667200  1
  C  C5960  1  0.408400  0.775300  0.108100  1
  C  C5961  1  0.408400  0.332800  0.224700  1
  C  C5962  1  0.075067  0.225233  0.333867  1
  C  C5963  1  0.075067  0.108633  0.774767  1
  C  C5964  1  0.075067  0.666133  0.891367  1
  C  C5965  1  0.741733  0.558567  0.000533  1
  C  C5966  1  0.741733  0.441967  0.441433  1
  C  C5967  1  0.741733  0.999467  0.558033  1
  C  C5968  1  0.591600  0.108100  0.332800  1
  C  C5969  1  0.591600  0.224700  0.891900  1
  C  C5970  1  0.591600  0.667200  0.775300  1
  C  C5971  1  0.924933  0.774767  0.666133  1
  C  C5972  1  0.924933  0.891367  0.225233  1
  C  C5973  1  0.924933  0.333867  0.108633  1
  C  C5974  1  0.258267  0.441433  0.999467  1
  C  C5975  1  0.258267  0.558033  0.558567  1
  C  C5976  1  0.258267  0.000533  0.441967  1
  C  C5977  1  0.400600  0.910600  0.689000  1
  C  C5978  1  0.400600  0.778400  0.089400  1
  C  C5979  1  0.400600  0.311000  0.221600  1
  C  C5980  1  0.067267  0.243933  0.355667  1
  C  C5981  1  0.067267  0.111733  0.756067  1
  C  C5982  1  0.067267  0.644333  0.888267  1
  C  C5983  1  0.733933  0.577267  0.022333  1
  C  C5984  1  0.733933  0.445067  0.422733  1
  C  C5985  1  0.733933  0.977667  0.554933  1
  C  C5986  1  0.599400  0.089400  0.311000  1
  C  C5987  1  0.599400  0.221600  0.910600  1
  C  C5988  1  0.599400  0.689000  0.778400  1
  C  C5989  1  0.932733  0.756067  0.644333  1
  C  C5990  1  0.932733  0.888267  0.243933  1
  C  C5991  1  0.932733  0.355667  0.111733  1
  C  C5992  1  0.266067  0.422733  0.977667  1
  C  C5993  1  0.266067  0.554933  0.577267  1
  C  C5994  1  0.266067  0.022333  0.445067  1
  C  C5995  1  0.364800  0.910900  0.699300  1
  C  C5996  1  0.364800  0.788400  0.089100  1
  C  C5997  1  0.364800  0.300700  0.211600  1
  C  C5998  1  0.031467  0.244233  0.365967  1
  C  C5999  1  0.031467  0.121733  0.755767  1
  C  C6000  1  0.031467  0.634033  0.878267  1
  C  C6001  1  0.698133  0.577567  0.032633  1
  C  C6002  1  0.698133  0.455067  0.422433  1
  C  C6003  1  0.698133  0.967367  0.544933  1
  C  C6004  1  0.635200  0.089100  0.300700  1
  C  C6005  1  0.635200  0.211600  0.910900  1
  C  C6006  1  0.635200  0.699300  0.788400  1
  C  C6007  1  0.968533  0.755767  0.634033  1
  C  C6008  1  0.968533  0.878267  0.244233  1
  C  C6009  1  0.968533  0.365967  0.121733  1
  C  C6010  1  0.301867  0.422433  0.967367  1
  C  C6011  1  0.301867  0.544933  0.577567  1
  C  C6012  1  0.301867  0.032633  0.455067  1
  C  C6013  1  0.352900  0.892500  0.701800  1
  C  C6014  1  0.352900  0.809300  0.107500  1
  C  C6015  1  0.352900  0.298200  0.190700  1
  C  C6016  1  0.019567  0.225833  0.368467  1
  C  C6017  1  0.019567  0.142633  0.774167  1
  C  C6018  1  0.019567  0.631533  0.857367  1
  C  C6019  1  0.686233  0.559167  0.035133  1
  C  C6020  1  0.686233  0.475967  0.440833  1
  C  C6021  1  0.686233  0.964867  0.524033  1
  C  C6022  1  0.647100  0.107500  0.298200  1
  C  C6023  1  0.647100  0.190700  0.892500  1
  C  C6024  1  0.647100  0.701800  0.809300  1
  C  C6025  1  0.980433  0.774167  0.631533  1
  C  C6026  1  0.980433  0.857367  0.225833  1
  C  C6027  1  0.980433  0.368467  0.142633  1
  C  C6028  1  0.313767  0.440833  0.964867  1
  C  C6029  1  0.313767  0.524033  0.559167  1
  C  C6030  1  0.313767  0.035133  0.475967  1
  C  C6031  1  0.318100  0.893000  0.710660  1
  C  C6032  1  0.318100  0.817660  0.107000  1
  C  C6033  1  0.318100  0.289340  0.182340  1
  C  C6034  1  0.984767  0.226333  0.377327  1
  C  C6035  1  0.984767  0.150993  0.773667  1
  C  C6036  1  0.984767  0.622673  0.849007  1
  C  C6037  1  0.651433  0.559667  0.043993  1
  C  C6038  1  0.651433  0.484327  0.440333  1
  C  C6039  1  0.651433  0.956007  0.515673  1
  C  C6040  1  0.681900  0.107000  0.289340  1
  C  C6041  1  0.681900  0.182340  0.893000  1
  C  C6042  1  0.681900  0.710660  0.817660  1
  C  C6043  1  0.015233  0.773667  0.622673  1
  C  C6044  1  0.015233  0.849007  0.226333  1
  C  C6045  1  0.015233  0.377327  0.150993  1
  C  C6046  1  0.348567  0.440333  0.956007  1
  C  C6047  1  0.348567  0.515673  0.559667  1
  C  C6048  1  0.348567  0.043993  0.484327  1
  C  C6049  1  0.295200  0.911900  0.717000  1
  C  C6050  1  0.295200  0.805100  0.088100  1
  C  C6051  1  0.295200  0.283000  0.194900  1
  C  C6052  1  0.961867  0.245233  0.383667  1
  C  C6053  1  0.961867  0.138433  0.754767  1
  C  C6054  1  0.961867  0.616333  0.861567  1
  C  C6055  1  0.628533  0.578567  0.050333  1
  C  C6056  1  0.628533  0.471767  0.421433  1
  C  C6057  1  0.628533  0.949667  0.528233  1
  C  C6058  1  0.704800  0.088100  0.283000  1
  C  C6059  1  0.704800  0.194900  0.911900  1
  C  C6060  1  0.704800  0.717000  0.805100  1
  C  C6061  1  0.038133  0.754767  0.616333  1
  C  C6062  1  0.038133  0.861567  0.245233  1
  C  C6063  1  0.038133  0.383667  0.138433  1
  C  C6064  1  0.371467  0.421433  0.949667  1
  C  C6065  1  0.371467  0.528233  0.578567  1
  C  C6066  1  0.371467  0.050333  0.471767  1
  C  C6067  1  0.307100  0.930300  0.714500  1
  C  C6068  1  0.307100  0.784200  0.069700  1
  C  C6069  1  0.307100  0.285500  0.215800  1
  C  C6070  1  0.973767  0.263633  0.381167  1
  C  C6071  1  0.973767  0.117533  0.736367  1
  C  C6072  1  0.973767  0.618833  0.882467  1
  C  C6073  1  0.640433  0.596967  0.047833  1
  C  C6074  1  0.640433  0.450867  0.403033  1
  C  C6075  1  0.640433  0.952167  0.549133  1
  C  C6076  1  0.692900  0.069700  0.285500  1
  C  C6077  1  0.692900  0.215800  0.930300  1
  C  C6078  1  0.692900  0.714500  0.784200  1
  C  C6079  1  0.026233  0.736367  0.618833  1
  C  C6080  1  0.026233  0.882467  0.263633  1
  C  C6081  1  0.026233  0.381167  0.117533  1
  C  C6082  1  0.359567  0.403033  0.952167  1
  C  C6083  1  0.359567  0.549133  0.596967  1
  C  C6084  1  0.359567  0.047833  0.450867  1
  C  C6085  1  0.341900  0.929800  0.705650  1
  C  C6086  1  0.341900  0.775850  0.070200  1
  C  C6087  1  0.341900  0.294350  0.224150  1
  C  C6088  1  0.008567  0.263133  0.372317  1
  C  C6089  1  0.008567  0.109183  0.736867  1
  C  C6090  1  0.008567  0.627683  0.890817  1
  C  C6091  1  0.675233  0.596467  0.038983  1
  C  C6092  1  0.675233  0.442517  0.403533  1
  C  C6093  1  0.675233  0.961017  0.557483  1
  C  C6094  1  0.658100  0.070200  0.294350  1
  C  C6095  1  0.658100  0.224150  0.929800  1
  C  C6096  1  0.658100  0.705650  0.775850  1
  C  C6097  1  0.991433  0.736867  0.627683  1
  C  C6098  1  0.991433  0.890817  0.263133  1
  C  C6099  1  0.991433  0.372317  0.109183  1
  C  C6100  1  0.324767  0.403533  0.961017  1
  C  C6101  1  0.324767  0.557483  0.596467  1
  C  C6102  1  0.324767  0.038983  0.442517  1
  C  C6103  1  0.317150  0.856150  0.703570  1
  C  C6104  1  0.317150  0.847420  0.143850  1
  C  C6105  1  0.317150  0.296430  0.152580  1
  C  C6106  1  0.983817  0.189483  0.370237  1
  C  C6107  1  0.983817  0.180753  0.810517  1
  C  C6108  1  0.983817  0.629763  0.819247  1
  C  C6109  1  0.650483  0.522817  0.036903  1
  C  C6110  1  0.650483  0.514087  0.477183  1
  C  C6111  1  0.650483  0.963097  0.485913  1
  C  C6112  1  0.682850  0.143850  0.296430  1
  C  C6113  1  0.682850  0.152580  0.856150  1
  C  C6114  1  0.682850  0.703570  0.847420  1
  C  C6115  1  0.016183  0.810517  0.629763  1
  C  C6116  1  0.016183  0.819247  0.189483  1
  C  C6117  1  0.016183  0.370237  0.180753  1
  C  C6118  1  0.349517  0.477183  0.963097  1
  C  C6119  1  0.349517  0.485913  0.522817  1
  C  C6120  1  0.349517  0.036903  0.514087  1
  C  C6121  1  0.306360  0.837120  0.707810  1
  C  C6122  1  0.306360  0.870690  0.162880  1
  C  C6123  1  0.306360  0.292190  0.129310  1
  C  C6124  1  0.973027  0.170453  0.374477  1
  C  C6125  1  0.973027  0.204023  0.829547  1
  C  C6126  1  0.973027  0.625523  0.795977  1
  C  C6127  1  0.639693  0.503787  0.041143  1
  C  C6128  1  0.639693  0.537357  0.496213  1
  C  C6129  1  0.639693  0.958857  0.462643  1
  C  C6130  1  0.693640  0.162880  0.292190  1
  C  C6131  1  0.693640  0.129310  0.837120  1
  C  C6132  1  0.693640  0.707810  0.870690  1
  C  C6133  1  0.026973  0.829547  0.625523  1
  C  C6134  1  0.026973  0.795977  0.170453  1
  C  C6135  1  0.026973  0.374477  0.204023  1
  C  C6136  1  0.360307  0.496213  0.958857  1
  C  C6137  1  0.360307  0.462643  0.503787  1
  C  C6138  1  0.360307  0.041143  0.537357  1
  C  C6139  1  0.318910  0.814960  0.693540  1
  C  C6140  1  0.318910  0.878580  0.185040  1
  C  C6141  1  0.318910  0.306460  0.121420  1
  C  C6142  1  0.985577  0.148293  0.360207  1
  C  C6143  1  0.985577  0.211913  0.851707  1
  C  C6144  1  0.985577  0.639793  0.788087  1
  C  C6145  1  0.652243  0.481627  0.026873  1
  C  C6146  1  0.652243  0.545247  0.518373  1
  C  C6147  1  0.652243  0.973127  0.454753  1
  C  C6148  1  0.681090  0.185040  0.306460  1
  C  C6149  1  0.681090  0.121420  0.814960  1
  C  C6150  1  0.681090  0.693540  0.878580  1
  C  C6151  1  0.014423  0.851707  0.639793  1
  C  C6152  1  0.014423  0.788087  0.148293  1
  C  C6153  1  0.014423  0.360207  0.211913  1
  C  C6154  1  0.347757  0.518373  0.973127  1
  C  C6155  1  0.347757  0.454753  0.481627  1
  C  C6156  1  0.347757  0.026873  0.545247  1
  C  C6157  1  0.310000  0.798020  0.698840  1
  C  C6158  1  0.310000  0.900820  0.201980  1
  C  C6159  1  0.310000  0.301160  0.099180  1
  C  C6160  1  0.976667  0.131353  0.365507  1
  C  C6161  1  0.976667  0.234153  0.868647  1
  C  C6162  1  0.976667  0.634493  0.765847  1
  C  C6163  1  0.643333  0.464687  0.032173  1
  C  C6164  1  0.643333  0.567487  0.535313  1
  C  C6165  1  0.643333  0.967827  0.432513  1
  C  C6166  1  0.690000  0.201980  0.301160  1
  C  C6167  1  0.690000  0.099180  0.798020  1
  C  C6168  1  0.690000  0.698840  0.900820  1
  C  C6169  1  0.023333  0.868647  0.634493  1
  C  C6170  1  0.023333  0.765847  0.131353  1
  C  C6171  1  0.023333  0.365507  0.234153  1
  C  C6172  1  0.356667  0.535313  0.967827  1
  C  C6173  1  0.356667  0.432513  0.464687  1
  C  C6174  1  0.356667  0.032173  0.567487  1
  C  C6175  1  0.288200  0.803750  0.717920  1
  C  C6176  1  0.288200  0.914170  0.196250  1
  C  C6177  1  0.288200  0.282080  0.085830  1
  C  C6178  1  0.954867  0.137083  0.384587  1
  C  C6179  1  0.954867  0.247503  0.862917  1
  C  C6180  1  0.954867  0.615413  0.752497  1
  C  C6181  1  0.621533  0.470417  0.051253  1
  C  C6182  1  0.621533  0.580837  0.529583  1
  C  C6183  1  0.621533  0.948747  0.419163  1
  C  C6184  1  0.711800  0.196250  0.282080  1
  C  C6185  1  0.711800  0.085830  0.803750  1
  C  C6186  1  0.711800  0.717920  0.914170  1
  C  C6187  1  0.045133  0.862917  0.615413  1
  C  C6188  1  0.045133  0.752497  0.137083  1
  C  C6189  1  0.045133  0.384587  0.247503  1
  C  C6190  1  0.378467  0.529583  0.948747  1
  C  C6191  1  0.378467  0.419163  0.470417  1
  C  C6192  1  0.378467  0.051253  0.580837  1
  C  C6193  1  0.275520  0.826190  0.731250  1
  C  C6194  1  0.275520  0.905060  0.173810  1
  C  C6195  1  0.275520  0.268750  0.094940  1
  C  C6196  1  0.942187  0.159523  0.397917  1
  C  C6197  1  0.942187  0.238393  0.840477  1
  C  C6198  1  0.942187  0.602083  0.761607  1
  C  C6199  1  0.608853  0.492857  0.064583  1
  C  C6200  1  0.608853  0.571727  0.507143  1
  C  C6201  1  0.608853  0.935417  0.428273  1
  C  C6202  1  0.724480  0.173810  0.268750  1
  C  C6203  1  0.724480  0.094940  0.826190  1
  C  C6204  1  0.724480  0.731250  0.905060  1
  C  C6205  1  0.057813  0.840477  0.602083  1
  C  C6206  1  0.057813  0.761607  0.159523  1
  C  C6207  1  0.057813  0.397917  0.238393  1
  C  C6208  1  0.391147  0.507143  0.935417  1
  C  C6209  1  0.391147  0.428273  0.492857  1
  C  C6210  1  0.391147  0.064583  0.571727  1
  C  C6211  1  0.640550  0.908830  0.678600  1
  C  C6212  1  0.640550  0.769770  0.091170  1
  C  C6213  1  0.640550  0.321400  0.230230  1
  C  C6214  1  0.307217  0.242163  0.345267  1
  C  C6215  1  0.307217  0.103103  0.757837  1
  C  C6216  1  0.307217  0.654733  0.896897  1
  C  C6217  1  0.973883  0.575497  0.011933  1
  C  C6218  1  0.973883  0.436437  0.424503  1
  C  C6219  1  0.973883  0.988067  0.563563  1
  C  C6220  1  0.359450  0.091170  0.321400  1
  C  C6221  1  0.359450  0.230230  0.908830  1
  C  C6222  1  0.359450  0.678600  0.769770  1
  C  C6223  1  0.692783  0.757837  0.654733  1
  C  C6224  1  0.692783  0.896897  0.242163  1
  C  C6225  1  0.692783  0.345267  0.103103  1
  C  C6226  1  0.026117  0.424503  0.988067  1
  C  C6227  1  0.026117  0.563563  0.575497  1
  C  C6228  1  0.026117  0.011933  0.436437  1
  C  C6229  1  0.613000  0.893350  0.665820  1
  C  C6230  1  0.613000  0.772470  0.106650  1
  C  C6231  1  0.613000  0.334180  0.227530  1
  C  C6232  1  0.279667  0.226683  0.332487  1
  C  C6233  1  0.279667  0.105803  0.773317  1
  C  C6234  1  0.279667  0.667513  0.894197  1
  C  C6235  1  0.946333  0.560017  0.999153  1
  C  C6236  1  0.946333  0.439137  0.439983  1
  C  C6237  1  0.946333  0.000847  0.560863  1
  C  C6238  1  0.387000  0.106650  0.334180  1
  C  C6239  1  0.387000  0.227530  0.893350  1
  C  C6240  1  0.387000  0.665820  0.772470  1
  C  C6241  1  0.720333  0.773317  0.667513  1
  C  C6242  1  0.720333  0.894197  0.226683  1
  C  C6243  1  0.720333  0.332487  0.105803  1
  C  C6244  1  0.053667  0.439983  0.000847  1
  C  C6245  1  0.053667  0.560863  0.560017  1
  C  C6246  1  0.053667  0.999153  0.439137  1
  C  C6247  1  0.608990  0.886430  0.642680  1
  C  C6248  1  0.608990  0.756250  0.113570  1
  C  C6249  1  0.608990  0.357320  0.243750  1
  C  C6250  1  0.275657  0.219763  0.309347  1
  C  C6251  1  0.275657  0.089583  0.780237  1
  C  C6252  1  0.275657  0.690653  0.910417  1
  C  C6253  1  0.942323  0.553097  0.976013  1
  C  C6254  1  0.942323  0.422917  0.446903  1
  C  C6255  1  0.942323  0.023987  0.577083  1
  C  C6256  1  0.391010  0.113570  0.357320  1
  C  C6257  1  0.391010  0.243750  0.886430  1
  C  C6258  1  0.391010  0.642680  0.756250  1
  C  C6259  1  0.724343  0.780237  0.690653  1
  C  C6260  1  0.724343  0.910417  0.219763  1
  C  C6261  1  0.724343  0.309347  0.089583  1
  C  C6262  1  0.057677  0.446903  0.023987  1
  C  C6263  1  0.057677  0.577083  0.553097  1
  C  C6264  1  0.057677  0.976013  0.422917  1
  C  C6265  1  0.632830  0.895060  0.632700  1
  C  C6266  1  0.632830  0.737640  0.104940  1
  C  C6267  1  0.632830  0.367300  0.262360  1
  C  C6268  1  0.299497  0.228393  0.299367  1
  C  C6269  1  0.299497  0.070973  0.771607  1
  C  C6270  1  0.299497  0.700633  0.929027  1
  C  C6271  1  0.966163  0.561727  0.966033  1
  C  C6272  1  0.966163  0.404307  0.438273  1
  C  C6273  1  0.966163  0.033967  0.595693  1
  C  C6274  1  0.367170  0.104940  0.367300  1
  C  C6275  1  0.367170  0.262360  0.895060  1
  C  C6276  1  0.367170  0.632700  0.737640  1
  C  C6277  1  0.700503  0.771607  0.700633  1
  C  C6278  1  0.700503  0.929027  0.228393  1
  C  C6279  1  0.700503  0.299367  0.070973  1
  C  C6280  1  0.033837  0.438273  0.033967  1
  C  C6281  1  0.033837  0.595693  0.561727  1
  C  C6282  1  0.033837  0.966033  0.404307  1
  C  C6283  1  0.660340  0.909890  0.646130  1
  C  C6284  1  0.660340  0.736240  0.090110  1
  C  C6285  1  0.660340  0.353870  0.263760  1
  C  C6286  1  0.327007  0.243223  0.312797  1
  C  C6287  1  0.327007  0.069573  0.756777  1
  C  C6288  1  0.327007  0.687203  0.930427  1
  C  C6289  1  0.993673  0.576557  0.979463  1
  C  C6290  1  0.993673  0.402907  0.423443  1
  C  C6291  1  0.993673  0.020537  0.597093  1
  C  C6292  1  0.339660  0.090110  0.353870  1
  C  C6293  1  0.339660  0.263760  0.909890  1
  C  C6294  1  0.339660  0.646130  0.736240  1
  C  C6295  1  0.672993  0.756777  0.687203  1
  C  C6296  1  0.672993  0.930427  0.243223  1
  C  C6297  1  0.672993  0.312797  0.069573  1
  C  C6298  1  0.006327  0.423443  0.020537  1
  C  C6299  1  0.006327  0.597093  0.576557  1
  C  C6300  1  0.006327  0.979463  0.402907  1
  C  C6301  1  0.685600  0.919200  0.637000  1
  C  C6302  1  0.685600  0.717800  0.080800  1
  C  C6303  1  0.685600  0.363000  0.282200  1
  C  C6304  1  0.352267  0.252533  0.303667  1
  C  C6305  1  0.352267  0.051133  0.747467  1
  C  C6306  1  0.352267  0.696333  0.948867  1
  C  C6307  1  0.018933  0.585867  0.970333  1
  C  C6308  1  0.018933  0.384467  0.414133  1
  C  C6309  1  0.018933  0.029667  0.615533  1
  C  C6310  1  0.314400  0.080800  0.363000  1
  C  C6311  1  0.314400  0.282200  0.919200  1
  C  C6312  1  0.314400  0.637000  0.717800  1
  C  C6313  1  0.647733  0.747467  0.696333  1
  C  C6314  1  0.647733  0.948867  0.252533  1
  C  C6315  1  0.647733  0.303667  0.051133  1
  C  C6316  1  0.981067  0.414133  0.029667  1
  C  C6317  1  0.981067  0.615533  0.585867  1
  C  C6318  1  0.981067  0.970333  0.384467  1
  C  C6319  1  0.739000  0.941600  0.640620  1
  C  C6320  1  0.739000  0.699020  0.058400  1
  C  C6321  1  0.739000  0.359380  0.300980  1
  C  C6322  1  0.405667  0.274933  0.307287  1
  C  C6323  1  0.405667  0.032353  0.725067  1
  C  C6324  1  0.405667  0.692713  0.967647  1
  C  C6325  1  0.072333  0.608267  0.973953  1
  C  C6326  1  0.072333  0.365687  0.391733  1
  C  C6327  1  0.072333  0.026047  0.634313  1
  C  C6328  1  0.261000  0.058400  0.359380  1
  C  C6329  1  0.261000  0.300980  0.941600  1
  C  C6330  1  0.261000  0.640620  0.699020  1
  C  C6331  1  0.594333  0.725067  0.692713  1
  C  C6332  1  0.594333  0.967647  0.274933  1
  C  C6333  1  0.594333  0.307287  0.032353  1
  C  C6334  1  0.927667  0.391733  0.026047  1
  C  C6335  1  0.927667  0.634313  0.608267  1
  C  C6336  1  0.927667  0.973953  0.365687  1
  C  C6337  1  0.775600  0.944430  0.647430  1
  C  C6338  1  0.775600  0.703000  0.055570  1
  C  C6339  1  0.775600  0.352570  0.297000  1
  C  C6340  1  0.442267  0.277763  0.314097  1
  C  C6341  1  0.442267  0.036333  0.722237  1
  C  C6342  1  0.442267  0.685903  0.963667  1
  C  C6343  1  0.108933  0.611097  0.980763  1
  C  C6344  1  0.108933  0.369667  0.388903  1
  C  C6345  1  0.108933  0.019237  0.630333  1
  C  C6346  1  0.224400  0.055570  0.352570  1
  C  C6347  1  0.224400  0.297000  0.944430  1
  C  C6348  1  0.224400  0.647430  0.703000  1
  C  C6349  1  0.557733  0.722237  0.685903  1
  C  C6350  1  0.557733  0.963667  0.277763  1
  C  C6351  1  0.557733  0.314097  0.036333  1
  C  C6352  1  0.891067  0.388903  0.019237  1
  C  C6353  1  0.891067  0.630333  0.611097  1
  C  C6354  1  0.891067  0.980763  0.369667  1
  C  C6355  1  0.799500  0.956070  0.640570  1
  C  C6356  1  0.799500  0.684500  0.043930  1
  C  C6357  1  0.799500  0.359430  0.315500  1
  C  C6358  1  0.466167  0.289403  0.307237  1
  C  C6359  1  0.466167  0.017833  0.710597  1
  C  C6360  1  0.466167  0.692763  0.982167  1
  C  C6361  1  0.132833  0.622737  0.973903  1
  C  C6362  1  0.132833  0.351167  0.377263  1
  C  C6363  1  0.132833  0.026097  0.648833  1
  C  C6364  1  0.200500  0.043930  0.359430  1
  C  C6365  1  0.200500  0.315500  0.956070  1
  C  C6366  1  0.200500  0.640570  0.684500  1
  C  C6367  1  0.533833  0.710597  0.692763  1
  C  C6368  1  0.533833  0.982167  0.289403  1
  C  C6369  1  0.533833  0.307237  0.017833  1
  C  C6370  1  0.867167  0.377263  0.026097  1
  C  C6371  1  0.867167  0.648833  0.622737  1
  C  C6372  1  0.867167  0.973903  0.351167  1
  C  C6373  1  0.786900  0.964890  0.626910  1
  C  C6374  1  0.786900  0.662020  0.035110  1
  C  C6375  1  0.786900  0.373090  0.337980  1
  C  C6376  1  0.453567  0.298223  0.293577  1
  C  C6377  1  0.453567  0.995353  0.701777  1
  C  C6378  1  0.453567  0.706423  0.004647  1
  C  C6379  1  0.120233  0.631557  0.960243  1
  C  C6380  1  0.120233  0.328687  0.368443  1
  C  C6381  1  0.120233  0.039757  0.671313  1
  C  C6382  1  0.213100  0.035110  0.373090  1
  C  C6383  1  0.213100  0.337980  0.964890  1
  C  C6384  1  0.213100  0.626910  0.662020  1
  C  C6385  1  0.546433  0.701777  0.706423  1
  C  C6386  1  0.546433  0.004647  0.298223  1
  C  C6387  1  0.546433  0.293577  0.995353  1
  C  C6388  1  0.879767  0.368443  0.039757  1
  C  C6389  1  0.879767  0.671313  0.631557  1
  C  C6390  1  0.879767  0.960243  0.328687  1
  C  C6391  1  0.750200  0.962060  0.620100  1
  C  C6392  1  0.750200  0.658040  0.037940  1
  C  C6393  1  0.750200  0.379900  0.341960  1
  C  C6394  1  0.416867  0.295393  0.286767  1
  C  C6395  1  0.416867  0.991373  0.704607  1
  C  C6396  1  0.416867  0.713233  0.008627  1
  C  C6397  1  0.083533  0.628727  0.953433  1
  C  C6398  1  0.083533  0.324707  0.371273  1
  C  C6399  1  0.083533  0.046567  0.675293  1
  C  C6400  1  0.249800  0.037940  0.379900  1
  C  C6401  1  0.249800  0.341960  0.962060  1
  C  C6402  1  0.249800  0.620100  0.658040  1
  C  C6403  1  0.583133  0.704607  0.713233  1
  C  C6404  1  0.583133  0.008627  0.295393  1
  C  C6405  1  0.583133  0.286767  0.991373  1
  C  C6406  1  0.916467  0.371273  0.046567  1
  C  C6407  1  0.916467  0.675293  0.628727  1
  C  C6408  1  0.916467  0.953433  0.324707  1
  C  C6409  1  0.726300  0.950420  0.626970  1
  C  C6410  1  0.726300  0.676550  0.049580  1
  C  C6411  1  0.726300  0.373030  0.323450  1
  C  C6412  1  0.392967  0.283753  0.293637  1
  C  C6413  1  0.392967  0.009883  0.716247  1
  C  C6414  1  0.392967  0.706363  0.990117  1
  C  C6415  1  0.059633  0.617087  0.960303  1
  C  C6416  1  0.059633  0.343217  0.382913  1
  C  C6417  1  0.059633  0.039697  0.656783  1
  C  C6418  1  0.273700  0.049580  0.373030  1
  C  C6419  1  0.273700  0.323450  0.950420  1
  C  C6420  1  0.273700  0.626970  0.676550  1
  C  C6421  1  0.607033  0.716247  0.706363  1
  C  C6422  1  0.607033  0.990117  0.283753  1
  C  C6423  1  0.607033  0.293637  0.009883  1
  C  C6424  1  0.940367  0.382913  0.039697  1
  C  C6425  1  0.940367  0.656783  0.617087  1
  C  C6426  1  0.940367  0.960303  0.343217  1
  C  C6427  1  0.839200  0.958700  0.648200  1
  C  C6428  1  0.839200  0.689500  0.041300  1
  C  C6429  1  0.839200  0.351800  0.310500  1
  C  C6430  1  0.505867  0.292033  0.314867  1
  C  C6431  1  0.505867  0.022833  0.707967  1
  C  C6432  1  0.505867  0.685133  0.977167  1
  C  C6433  1  0.172533  0.625367  0.981533  1
  C  C6434  1  0.172533  0.356167  0.374633  1
  C  C6435  1  0.172533  0.018467  0.643833  1
  C  C6436  1  0.160800  0.041300  0.351800  1
  C  C6437  1  0.160800  0.310500  0.958700  1
  C  C6438  1  0.160800  0.648200  0.689500  1
  C  C6439  1  0.494133  0.707967  0.685133  1
  C  C6440  1  0.494133  0.977167  0.292033  1
  C  C6441  1  0.494133  0.314867  0.022833  1
  C  C6442  1  0.827467  0.374633  0.018467  1
  C  C6443  1  0.827467  0.643833  0.625367  1
  C  C6444  1  0.827467  0.981533  0.356167  1
  C  C6445  1  0.862300  0.940000  0.640500  1
  C  C6446  1  0.862300  0.700500  0.060000  1
  C  C6447  1  0.862300  0.359500  0.299500  1
  C  C6448  1  0.528967  0.273333  0.307167  1
  C  C6449  1  0.528967  0.033833  0.726667  1
  C  C6450  1  0.528967  0.692833  0.966167  1
  C  C6451  1  0.195633  0.606667  0.973833  1
  C  C6452  1  0.195633  0.367167  0.393333  1
  C  C6453  1  0.195633  0.026167  0.632833  1
  C  C6454  1  0.137700  0.060000  0.359500  1
  C  C6455  1  0.137700  0.299500  0.940000  1
  C  C6456  1  0.137700  0.640500  0.700500  1
  C  C6457  1  0.471033  0.726667  0.692833  1
  C  C6458  1  0.471033  0.966167  0.273333  1
  C  C6459  1  0.471033  0.307167  0.033833  1
  C  C6460  1  0.804367  0.393333  0.026167  1
  C  C6461  1  0.804367  0.632833  0.606667  1
  C  C6462  1  0.804367  0.973833  0.367167  1
  C  C6463  1  0.896700  0.941800  0.648400  1
  C  C6464  1  0.896700  0.706600  0.058200  1
  C  C6465  1  0.896700  0.351600  0.293400  1
  C  C6466  1  0.563367  0.275133  0.315067  1
  C  C6467  1  0.563367  0.039933  0.724867  1
  C  C6468  1  0.563367  0.684933  0.960067  1
  C  C6469  1  0.230033  0.608467  0.981733  1
  C  C6470  1  0.230033  0.373267  0.391533  1
  C  C6471  1  0.230033  0.018267  0.626733  1
  C  C6472  1  0.103300  0.058200  0.351600  1
  C  C6473  1  0.103300  0.293400  0.941800  1
  C  C6474  1  0.103300  0.648400  0.706600  1
  C  C6475  1  0.436633  0.724867  0.684933  1
  C  C6476  1  0.436633  0.960067  0.275133  1
  C  C6477  1  0.436633  0.315067  0.039933  1
  C  C6478  1  0.769967  0.391533  0.018267  1
  C  C6479  1  0.769967  0.626733  0.608467  1
  C  C6480  1  0.769967  0.981733  0.373267  1
  C  C6481  1  0.912100  0.963920  0.663500  1
  C  C6482  1  0.912100  0.699580  0.036080  1
  C  C6483  1  0.912100  0.336500  0.300420  1
  C  C6484  1  0.578767  0.297253  0.330167  1
  C  C6485  1  0.578767  0.032913  0.702747  1
  C  C6486  1  0.578767  0.669833  0.967087  1
  C  C6487  1  0.245433  0.630587  0.996833  1
  C  C6488  1  0.245433  0.366247  0.369413  1
  C  C6489  1  0.245433  0.003167  0.633753  1
  C  C6490  1  0.087900  0.036080  0.336500  1
  C  C6491  1  0.087900  0.300420  0.963920  1
  C  C6492  1  0.087900  0.663500  0.699580  1
  C  C6493  1  0.421233  0.702747  0.669833  1
  C  C6494  1  0.421233  0.967087  0.297253  1
  C  C6495  1  0.421233  0.330167  0.032913  1
  C  C6496  1  0.754567  0.369413  0.003167  1
  C  C6497  1  0.754567  0.633753  0.630587  1
  C  C6498  1  0.754567  0.996833  0.366247  1
  C  C6499  1  0.947800  0.966030  0.671670  1
  C  C6500  1  0.947800  0.705640  0.033970  1
  C  C6501  1  0.947800  0.328330  0.294360  1
  C  C6502  1  0.614467  0.299363  0.338337  1
  C  C6503  1  0.614467  0.038973  0.700637  1
  C  C6504  1  0.614467  0.661663  0.961027  1
  C  C6505  1  0.281133  0.632697  0.005003  1
  C  C6506  1  0.281133  0.372307  0.367303  1
  C  C6507  1  0.281133  0.994997  0.627693  1
  C  C6508  1  0.052200  0.033970  0.328330  1
  C  C6509  1  0.052200  0.294360  0.966030  1
  C  C6510  1  0.052200  0.671670  0.705640  1
  C  C6511  1  0.385533  0.700637  0.661663  1
  C  C6512  1  0.385533  0.961027  0.299363  1
  C  C6513  1  0.385533  0.338337  0.038973  1
  C  C6514  1  0.718867  0.367303  0.994997  1
  C  C6515  1  0.718867  0.627693  0.632697  1
  C  C6516  1  0.718867  0.005003  0.372307  1
  C  C6517  1  0.961150  0.987530  0.688190  1
  C  C6518  1  0.961150  0.700660  0.012470  1
  C  C6519  1  0.961150  0.311810  0.299340  1
  C  C6520  1  0.627817  0.320863  0.354857  1
  C  C6521  1  0.627817  0.033993  0.679137  1
  C  C6522  1  0.627817  0.645143  0.966007  1
  C  C6523  1  0.294483  0.654197  0.021523  1
  C  C6524  1  0.294483  0.367327  0.345803  1
  C  C6525  1  0.294483  0.978477  0.632673  1
  C  C6526  1  0.038850  0.012470  0.311810  1
  C  C6527  1  0.038850  0.299340  0.987530  1
  C  C6528  1  0.038850  0.688190  0.700660  1
  C  C6529  1  0.372183  0.679137  0.645143  1
  C  C6530  1  0.372183  0.966007  0.320863  1
  C  C6531  1  0.372183  0.354857  0.033993  1
  C  C6532  1  0.705517  0.345803  0.978477  1
  C  C6533  1  0.705517  0.632673  0.654197  1
  C  C6534  1  0.705517  0.021523  0.367327  1
  C  C6535  1  0.938700  0.006910  0.696520  1
  C  C6536  1  0.938700  0.689610  0.993090  1
  C  C6537  1  0.938700  0.303480  0.310390  1
  C  C6538  1  0.605367  0.340243  0.363187  1
  C  C6539  1  0.605367  0.022943  0.659757  1
  C  C6540  1  0.605367  0.636813  0.977057  1
  C  C6541  1  0.272033  0.673577  0.029853  1
  C  C6542  1  0.272033  0.356277  0.326423  1
  C  C6543  1  0.272033  0.970147  0.643723  1
  C  C6544  1  0.061300  0.993090  0.303480  1
  C  C6545  1  0.061300  0.310390  0.006910  1
  C  C6546  1  0.061300  0.696520  0.689610  1
  C  C6547  1  0.394633  0.659757  0.636813  1
  C  C6548  1  0.394633  0.977057  0.340243  1
  C  C6549  1  0.394633  0.363187  0.022943  1
  C  C6550  1  0.727967  0.326423  0.970147  1
  C  C6551  1  0.727967  0.643723  0.673577  1
  C  C6552  1  0.727967  0.029853  0.356277  1
  C  C6553  1  0.902980  0.004800  0.688340  1
  C  C6554  1  0.902980  0.683540  0.995200  1
  C  C6555  1  0.902980  0.311660  0.316460  1
  C  C6556  1  0.569647  0.338133  0.355007  1
  C  C6557  1  0.569647  0.016873  0.661867  1
  C  C6558  1  0.569647  0.644993  0.983127  1
  C  C6559  1  0.236313  0.671467  0.021673  1
  C  C6560  1  0.236313  0.350207  0.328533  1
  C  C6561  1  0.236313  0.978327  0.649793  1
  C  C6562  1  0.097020  0.995200  0.311660  1
  C  C6563  1  0.097020  0.316460  0.004800  1
  C  C6564  1  0.097020  0.688340  0.683540  1
  C  C6565  1  0.430353  0.661867  0.644993  1
  C  C6566  1  0.430353  0.983127  0.338133  1
  C  C6567  1  0.430353  0.355007  0.016873  1
  C  C6568  1  0.763687  0.328533  0.978327  1
  C  C6569  1  0.763687  0.649793  0.671467  1
  C  C6570  1  0.763687  0.021673  0.350207  1
  C  C6571  1  0.889640  0.983300  0.671830  1
  C  C6572  1  0.889640  0.688530  0.016700  1
  C  C6573  1  0.889640  0.328170  0.311470  1
  C  C6574  1  0.556307  0.316633  0.338497  1
  C  C6575  1  0.556307  0.021863  0.683367  1
  C  C6576  1  0.556307  0.661503  0.978137  1
  C  C6577  1  0.222973  0.649967  0.005163  1
  C  C6578  1  0.222973  0.355197  0.350033  1
  C  C6579  1  0.222973  0.994837  0.644803  1
  C  C6580  1  0.110360  0.016700  0.328170  1
  C  C6581  1  0.110360  0.311470  0.983300  1
  C  C6582  1  0.110360  0.671830  0.688530  1
  C  C6583  1  0.443693  0.683367  0.661503  1
  C  C6584  1  0.443693  0.978137  0.316633  1
  C  C6585  1  0.443693  0.338497  0.021863  1
  C  C6586  1  0.777027  0.350033  0.994837  1
  C  C6587  1  0.777027  0.644803  0.649967  1
  C  C6588  1  0.777027  0.005163  0.355197  1
  C  C6589  1  0.853890  0.981190  0.663650  1
  C  C6590  1  0.853890  0.682460  0.018810  1
  C  C6591  1  0.853890  0.336350  0.317540  1
  C  C6592  1  0.520557  0.314523  0.330317  1
  C  C6593  1  0.520557  0.015793  0.685477  1
  C  C6594  1  0.520557  0.669683  0.984207  1
  C  C6595  1  0.187223  0.647857  0.996983  1
  C  C6596  1  0.187223  0.349127  0.352143  1
  C  C6597  1  0.187223  0.003017  0.650873  1
  C  C6598  1  0.146110  0.018810  0.336350  1
  C  C6599  1  0.146110  0.317540  0.981190  1
  C  C6600  1  0.146110  0.663650  0.682460  1
  C  C6601  1  0.479443  0.685477  0.669683  1
  C  C6602  1  0.479443  0.984207  0.314523  1
  C  C6603  1  0.479443  0.330317  0.015793  1
  C  C6604  1  0.812777  0.352143  0.003017  1
  C  C6605  1  0.812777  0.650873  0.647857  1
  C  C6606  1  0.812777  0.996983  0.349127  1
  C  C6607  1  0.831480  0.000570  0.671980  1
  C  C6608  1  0.831480  0.671410  0.999430  1
  C  C6609  1  0.831480  0.328020  0.328590  1
  C  C6610  1  0.498147  0.333903  0.338647  1
  C  C6611  1  0.498147  0.004743  0.666097  1
  C  C6612  1  0.498147  0.661353  0.995257  1
  C  C6613  1  0.164813  0.667237  0.005313  1
  C  C6614  1  0.164813  0.338077  0.332763  1
  C  C6615  1  0.164813  0.994687  0.661923  1
  C  C6616  1  0.168520  0.999430  0.328020  1
  C  C6617  1  0.168520  0.328590  0.000570  1
  C  C6618  1  0.168520  0.671980  0.671410  1
  C  C6619  1  0.501853  0.666097  0.661353  1
  C  C6620  1  0.501853  0.995257  0.333903  1
  C  C6621  1  0.501853  0.338647  0.004743  1
  C  C6622  1  0.835187  0.332763  0.994687  1
  C  C6623  1  0.835187  0.661923  0.667237  1
  C  C6624  1  0.835187  0.005313  0.338077  1
  C  C6625  1  0.844800  0.022070  0.688500  1
  C  C6626  1  0.844800  0.666430  0.977930  1
  C  C6627  1  0.844800  0.311500  0.333570  1
  C  C6628  1  0.511467  0.355403  0.355167  1
  C  C6629  1  0.511467  0.999763  0.644597  1
  C  C6630  1  0.511467  0.644833  0.000237  1
  C  C6631  1  0.178133  0.688737  0.021833  1
  C  C6632  1  0.178133  0.333097  0.311263  1
  C  C6633  1  0.178133  0.978167  0.666903  1
  C  C6634  1  0.155200  0.977930  0.311500  1
  C  C6635  1  0.155200  0.333570  0.022070  1
  C  C6636  1  0.155200  0.688500  0.666430  1
  C  C6637  1  0.488533  0.644597  0.644833  1
  C  C6638  1  0.488533  0.000237  0.355403  1
  C  C6639  1  0.488533  0.355167  0.999763  1
  C  C6640  1  0.821867  0.311263  0.978167  1
  C  C6641  1  0.821867  0.666903  0.688737  1
  C  C6642  1  0.821867  0.021833  0.333097  1
  C  C6643  1  0.880600  0.024180  0.696670  1
  C  C6644  1  0.880600  0.672490  0.975820  1
  C  C6645  1  0.880600  0.303330  0.327510  1
  C  C6646  1  0.547267  0.357513  0.363337  1
  C  C6647  1  0.547267  0.005823  0.642487  1
  C  C6648  1  0.547267  0.636663  0.994177  1
  C  C6649  1  0.213933  0.690847  0.030003  1
  C  C6650  1  0.213933  0.339157  0.309153  1
  C  C6651  1  0.213933  0.969997  0.660843  1
  C  C6652  1  0.119400  0.975820  0.303330  1
  C  C6653  1  0.119400  0.327510  0.024180  1
  C  C6654  1  0.119400  0.696670  0.672490  1
  C  C6655  1  0.452733  0.642487  0.636663  1
  C  C6656  1  0.452733  0.994177  0.357513  1
  C  C6657  1  0.452733  0.363337  0.005823  1
  C  C6658  1  0.786067  0.309153  0.969997  1
  C  C6659  1  0.786067  0.660843  0.690847  1
  C  C6660  1  0.786067  0.030003  0.339157  1
  C  C6661  1  0.893700  0.046400  0.712300  1
  C  C6662  1  0.893700  0.665900  0.953600  1
  C  C6663  1  0.893700  0.287700  0.334100  1
  C  C6664  1  0.560367  0.379733  0.378967  1
  C  C6665  1  0.560367  0.999233  0.620267  1
  C  C6666  1  0.560367  0.621033  0.000767  1
  C  C6667  1  0.227033  0.713067  0.045633  1
  C  C6668  1  0.227033  0.332567  0.286933  1
  C  C6669  1  0.227033  0.954367  0.667433  1
  C  C6670  1  0.106300  0.953600  0.287700  1
  C  C6671  1  0.106300  0.334100  0.046400  1
  C  C6672  1  0.106300  0.712300  0.665900  1
  C  C6673  1  0.439633  0.620267  0.621033  1
  C  C6674  1  0.439633  0.000767  0.379733  1
  C  C6675  1  0.439633  0.378967  0.999233  1
  C  C6676  1  0.772967  0.286933  0.954367  1
  C  C6677  1  0.772967  0.667433  0.713067  1
  C  C6678  1  0.772967  0.045633  0.332567  1
  C  C6679  1  0.929300  0.047900  0.720400  1
  C  C6680  1  0.929300  0.672500  0.952100  1
  C  C6681  1  0.929300  0.279600  0.327500  1
  C  C6682  1  0.595967  0.381233  0.387067  1
  C  C6683  1  0.595967  0.005833  0.618767  1
  C  C6684  1  0.595967  0.612933  0.994167  1
  C  C6685  1  0.262633  0.714567  0.053733  1
  C  C6686  1  0.262633  0.339167  0.285433  1
  C  C6687  1  0.262633  0.946267  0.660833  1
  C  C6688  1  0.070700  0.952100  0.279600  1
  C  C6689  1  0.070700  0.327500  0.047900  1
  C  C6690  1  0.070700  0.720400  0.672500  1
  C  C6691  1  0.404033  0.618767  0.612933  1
  C  C6692  1  0.404033  0.994167  0.381233  1
  C  C6693  1  0.404033  0.387067  0.005833  1
  C  C6694  1  0.737367  0.285433  0.946267  1
  C  C6695  1  0.737367  0.660833  0.714567  1
  C  C6696  1  0.737367  0.053733  0.339167  1
  C  C6697  1  0.952100  0.028900  0.713800  1
  C  C6698  1  0.952100  0.684900  0.971100  1
  C  C6699  1  0.952100  0.286200  0.315100  1
  C  C6700  1  0.618767  0.362233  0.380467  1
  C  C6701  1  0.618767  0.018233  0.637767  1
  C  C6702  1  0.618767  0.619533  0.981767  1
  C  C6703  1  0.285433  0.695567  0.047133  1
  C  C6704  1  0.285433  0.351567  0.304433  1
  C  C6705  1  0.285433  0.952867  0.648433  1
  C  C6706  1  0.047900  0.971100  0.286200  1
  C  C6707  1  0.047900  0.315100  0.028900  1
  C  C6708  1  0.047900  0.713800  0.684900  1
  C  C6709  1  0.381233  0.637767  0.619533  1
  C  C6710  1  0.381233  0.981767  0.362233  1
  C  C6711  1  0.381233  0.380467  0.018233  1
  C  C6712  1  0.714567  0.304433  0.952867  1
  C  C6713  1  0.714567  0.648433  0.695567  1
  C  C6714  1  0.714567  0.047133  0.351567  1
  C  C6715  1  0.988000  0.031100  0.725500  1
  C  C6716  1  0.988000  0.694400  0.968900  1
  C  C6717  1  0.988000  0.274500  0.305600  1
  C  C6718  1  0.654667  0.364433  0.392167  1
  C  C6719  1  0.654667  0.027733  0.635567  1
  C  C6720  1  0.654667  0.607833  0.972267  1
  C  C6721  1  0.321333  0.697767  0.058833  1
  C  C6722  1  0.321333  0.361067  0.302233  1
  C  C6723  1  0.321333  0.941167  0.638933  1
  C  C6724  1  0.012000  0.968900  0.274500  1
  C  C6725  1  0.012000  0.305600  0.031100  1
  C  C6726  1  0.012000  0.725500  0.694400  1
  C  C6727  1  0.345333  0.635567  0.607833  1
  C  C6728  1  0.345333  0.972267  0.364433  1
  C  C6729  1  0.345333  0.392167  0.027733  1
  C  C6730  1  0.678667  0.302233  0.941167  1
  C  C6731  1  0.678667  0.638933  0.697767  1
  C  C6732  1  0.678667  0.058833  0.361067  1
  C  C6733  1  0.994400  0.019340  0.737340  1
  C  C6734  1  0.994400  0.718000  0.980660  1
  C  C6735  1  0.994400  0.262660  0.282000  1
  C  C6736  1  0.661067  0.352673  0.404007  1
  C  C6737  1  0.661067  0.051333  0.647327  1
  C  C6738  1  0.661067  0.595993  0.948667  1
  C  C6739  1  0.327733  0.686007  0.070673  1
  C  C6740  1  0.327733  0.384667  0.313993  1
  C  C6741  1  0.327733  0.929327  0.615333  1
  C  C6742  1  0.005600  0.980660  0.262660  1
  C  C6743  1  0.005600  0.282000  0.019340  1
  C  C6744  1  0.005600  0.737340  0.718000  1
  C  C6745  1  0.338933  0.647327  0.595993  1
  C  C6746  1  0.338933  0.948667  0.352673  1
  C  C6747  1  0.338933  0.404007  0.051333  1
  C  C6748  1  0.672267  0.313993  0.929327  1
  C  C6749  1  0.672267  0.615333  0.686007  1
  C  C6750  1  0.672267  0.070673  0.384667  1
  C  C6751  1  0.025100  0.024700  0.751580  1
  C  C6752  1  0.025100  0.726880  0.975300  1
  C  C6753  1  0.025100  0.248420  0.273120  1
  C  C6754  1  0.691767  0.358033  0.418247  1
  C  C6755  1  0.691767  0.060213  0.641967  1
  C  C6756  1  0.691767  0.581753  0.939787  1
  C  C6757  1  0.358433  0.691367  0.084913  1
  C  C6758  1  0.358433  0.393547  0.308633  1
  C  C6759  1  0.358433  0.915087  0.606453  1
  C  C6760  1  0.974900  0.975300  0.248420  1
  C  C6761  1  0.974900  0.273120  0.024700  1
  C  C6762  1  0.974900  0.751580  0.726880  1
  C  C6763  1  0.308233  0.641967  0.581753  1
  C  C6764  1  0.308233  0.939787  0.358033  1
  C  C6765  1  0.308233  0.418247  0.060213  1
  C  C6766  1  0.641567  0.308633  0.915087  1
  C  C6767  1  0.641567  0.606453  0.691367  1
  C  C6768  1  0.641567  0.084913  0.393547  1
  C  C6769  1  0.049400  0.041700  0.753700  1
  C  C6770  1  0.049400  0.712000  0.958300  1
  C  C6771  1  0.049400  0.246300  0.288000  1
  C  C6772  1  0.716067  0.375033  0.420367  1
  C  C6773  1  0.716067  0.045333  0.624967  1
  C  C6774  1  0.716067  0.579633  0.954667  1
  C  C6775  1  0.382733  0.708367  0.087033  1
  C  C6776  1  0.382733  0.378667  0.291633  1
  C  C6777  1  0.382733  0.912967  0.621333  1
  C  C6778  1  0.950600  0.958300  0.246300  1
  C  C6779  1  0.950600  0.288000  0.041700  1
  C  C6780  1  0.950600  0.753700  0.712000  1
  C  C6781  1  0.283933  0.624967  0.579633  1
  C  C6782  1  0.283933  0.954667  0.375033  1
  C  C6783  1  0.283933  0.420367  0.045333  1
  C  C6784  1  0.617267  0.291633  0.912967  1
  C  C6785  1  0.617267  0.621333  0.708367  1
  C  C6786  1  0.617267  0.087033  0.378667  1
  C  C6787  1  0.043000  0.053450  0.741850  1
  C  C6788  1  0.043000  0.688400  0.946550  1
  C  C6789  1  0.043000  0.258150  0.311600  1
  C  C6790  1  0.709667  0.386783  0.408517  1
  C  C6791  1  0.709667  0.021733  0.613217  1
  C  C6792  1  0.709667  0.591483  0.978267  1
  C  C6793  1  0.376333  0.720117  0.075183  1
  C  C6794  1  0.376333  0.355067  0.279883  1
  C  C6795  1  0.376333  0.924817  0.644933  1
  C  C6796  1  0.957000  0.946550  0.258150  1
  C  C6797  1  0.957000  0.311600  0.053450  1
  C  C6798  1  0.957000  0.741850  0.688400  1
  C  C6799  1  0.290333  0.613217  0.591483  1
  C  C6800  1  0.290333  0.978267  0.386783  1
  C  C6801  1  0.290333  0.408517  0.021733  1
  C  C6802  1  0.623667  0.279883  0.924817  1
  C  C6803  1  0.623667  0.644933  0.720117  1
  C  C6804  1  0.623667  0.075183  0.355067  1
  C  C6805  1  0.012300  0.048100  0.727630  1
  C  C6806  1  0.012300  0.679530  0.951900  1
  C  C6807  1  0.012300  0.272370  0.320470  1
  C  C6808  1  0.678967  0.381433  0.394297  1
  C  C6809  1  0.678967  0.012863  0.618567  1
  C  C6810  1  0.678967  0.605703  0.987137  1
  C  C6811  1  0.345633  0.714767  0.060963  1
  C  C6812  1  0.345633  0.346197  0.285233  1
  C  C6813  1  0.345633  0.939037  0.653803  1
  C  C6814  1  0.987700  0.951900  0.272370  1
  C  C6815  1  0.987700  0.320470  0.048100  1
  C  C6816  1  0.987700  0.727630  0.679530  1
  C  C6817  1  0.321033  0.618567  0.605703  1
  C  C6818  1  0.321033  0.987137  0.381433  1
  C  C6819  1  0.321033  0.394297  0.012863  1
  C  C6820  1  0.654367  0.285233  0.939037  1
  C  C6821  1  0.654367  0.653803  0.714767  1
  C  C6822  1  0.654367  0.060963  0.346197  1
  C  C6823  1  0.067100  0.006600  0.764300  1
  C  C6824  1  0.067100  0.757700  0.993400  1
  C  C6825  1  0.067100  0.235700  0.242300  1
  C  C6826  1  0.733767  0.339933  0.430967  1
  C  C6827  1  0.733767  0.091033  0.660067  1
  C  C6828  1  0.733767  0.569033  0.908967  1
  C  C6829  1  0.400433  0.673267  0.097633  1
  C  C6830  1  0.400433  0.424367  0.326733  1
  C  C6831  1  0.400433  0.902367  0.575633  1
  C  C6832  1  0.932900  0.993400  0.235700  1
  C  C6833  1  0.932900  0.242300  0.006600  1
  C  C6834  1  0.932900  0.764300  0.757700  1
  C  C6835  1  0.266233  0.660067  0.569033  1
  C  C6836  1  0.266233  0.908967  0.339933  1
  C  C6837  1  0.266233  0.430967  0.091033  1
  C  C6838  1  0.599567  0.326733  0.902367  1
  C  C6839  1  0.599567  0.575633  0.673267  1
  C  C6840  1  0.599567  0.097633  0.424367  1
  C  C6841  1  0.075610  0.993720  0.775920  1
  C  C6842  1  0.075610  0.782200  0.006280  1
  C  C6843  1  0.075610  0.224080  0.217800  1
  C  C6844  1  0.742277  0.327053  0.442587  1
  C  C6845  1  0.742277  0.115533  0.672947  1
  C  C6846  1  0.742277  0.557413  0.884467  1
  C  C6847  1  0.408943  0.660387  0.109253  1
  C  C6848  1  0.408943  0.448867  0.339613  1
  C  C6849  1  0.408943  0.890747  0.551133  1
  C  C6850  1  0.924390  0.006280  0.224080  1
  C  C6851  1  0.924390  0.217800  0.993720  1
  C  C6852  1  0.924390  0.775920  0.782200  1
  C  C6853  1  0.257723  0.672947  0.557413  1
  C  C6854  1  0.257723  0.884467  0.327053  1
  C  C6855  1  0.257723  0.442587  0.115533  1
  C  C6856  1  0.591057  0.339613  0.890747  1
  C  C6857  1  0.591057  0.551133  0.660387  1
  C  C6858  1  0.591057  0.109253  0.448867  1
  C  C6859  1  0.112170  0.990680  0.779190  1
  C  C6860  1  0.112170  0.788510  0.009320  1
  C  C6861  1  0.112170  0.220810  0.211490  1
  C  C6862  1  0.778837  0.324013  0.445857  1
  C  C6863  1  0.778837  0.121843  0.675987  1
  C  C6864  1  0.778837  0.554143  0.878157  1
  C  C6865  1  0.445503  0.657347  0.112523  1
  C  C6866  1  0.445503  0.455177  0.342653  1
  C  C6867  1  0.445503  0.887477  0.544823  1
  C  C6868  1  0.887830  0.009320  0.220810  1
  C  C6869  1  0.887830  0.211490  0.990680  1
  C  C6870  1  0.887830  0.779190  0.788510  1
  C  C6871  1  0.221163  0.675987  0.554143  1
  C  C6872  1  0.221163  0.878157  0.324013  1
  C  C6873  1  0.221163  0.445857  0.121843  1
  C  C6874  1  0.554497  0.342653  0.887477  1
  C  C6875  1  0.554497  0.544823  0.657347  1
  C  C6876  1  0.554497  0.112523  0.455177  1
  C  C6877  1  0.120890  0.978500  0.790260  1
  C  C6878  1  0.120890  0.811760  0.021500  1
  C  C6879  1  0.120890  0.209740  0.188240  1
  C  C6880  1  0.787557  0.311833  0.456927  1
  C  C6881  1  0.787557  0.145093  0.688167  1
  C  C6882  1  0.787557  0.543073  0.854907  1
  C  C6883  1  0.454223  0.645167  0.123593  1
  C  C6884  1  0.454223  0.478427  0.354833  1
  C  C6885  1  0.454223  0.876407  0.521573  1
  C  C6886  1  0.879110  0.021500  0.209740  1
  C  C6887  1  0.879110  0.188240  0.978500  1
  C  C6888  1  0.879110  0.790260  0.811760  1
  C  C6889  1  0.212443  0.688167  0.543073  1
  C  C6890  1  0.212443  0.854907  0.311833  1
  C  C6891  1  0.212443  0.456927  0.145093  1
  C  C6892  1  0.545777  0.354833  0.876407  1
  C  C6893  1  0.545777  0.521573  0.645167  1
  C  C6894  1  0.545777  0.123593  0.478427  1
  C  C6895  1  0.092810  0.969340  0.797160  1
  C  C6896  1  0.092810  0.827820  0.030660  1
  C  C6897  1  0.092810  0.202840  0.172180  1
  C  C6898  1  0.759477  0.302673  0.463827  1
  C  C6899  1  0.759477  0.161153  0.697327  1
  C  C6900  1  0.759477  0.536173  0.838847  1
  C  C6901  1  0.426143  0.636007  0.130493  1
  C  C6902  1  0.426143  0.494487  0.363993  1
  C  C6903  1  0.426143  0.869507  0.505513  1
  C  C6904  1  0.907190  0.030660  0.202840  1
  C  C6905  1  0.907190  0.172180  0.969340  1
  C  C6906  1  0.907190  0.797160  0.827820  1
  C  C6907  1  0.240523  0.697327  0.536173  1
  C  C6908  1  0.240523  0.838847  0.302673  1
  C  C6909  1  0.240523  0.463827  0.161153  1
  C  C6910  1  0.573857  0.363993  0.869507  1
  C  C6911  1  0.573857  0.505513  0.636007  1
  C  C6912  1  0.573857  0.130493  0.494487  1
  C  C6913  1  0.056600  0.972400  0.792800  1
  C  C6914  1  0.056600  0.820400  0.027600  1
  C  C6915  1  0.056600  0.207200  0.179600  1
  C  C6916  1  0.723267  0.305733  0.459467  1
  C  C6917  1  0.723267  0.153733  0.694267  1
  C  C6918  1  0.723267  0.540533  0.846267  1
  C  C6919  1  0.389933  0.639067  0.126133  1
  C  C6920  1  0.389933  0.487067  0.360933  1
  C  C6921  1  0.389933  0.873867  0.512933  1
  C  C6922  1  0.943400  0.027600  0.207200  1
  C  C6923  1  0.943400  0.179600  0.972400  1
  C  C6924  1  0.943400  0.792800  0.820400  1
  C  C6925  1  0.276733  0.694267  0.540533  1
  C  C6926  1  0.276733  0.846267  0.305733  1
  C  C6927  1  0.276733  0.459467  0.153733  1
  C  C6928  1  0.610067  0.360933  0.873867  1
  C  C6929  1  0.610067  0.512933  0.639067  1
  C  C6930  1  0.610067  0.126133  0.487067  1
  C  C6931  1  0.667080  0.869420  0.770550  1
  C  C6932  1  0.667080  0.901130  0.130580  1
  C  C6933  1  0.667080  0.229450  0.098870  1
  C  C6934  1  0.333747  0.202753  0.437217  1
  C  C6935  1  0.333747  0.234463  0.797247  1
  C  C6936  1  0.333747  0.562783  0.765537  1
  C  C6937  1  0.000413  0.536087  0.103883  1
  C  C6938  1  0.000413  0.567797  0.463913  1
  C  C6939  1  0.000413  0.896117  0.432203  1
  C  C6940  1  0.332920  0.130580  0.229450  1
  C  C6941  1  0.332920  0.098870  0.869420  1
  C  C6942  1  0.332920  0.770550  0.901130  1
  C  C6943  1  0.666253  0.797247  0.562783  1
  C  C6944  1  0.666253  0.765537  0.202753  1
  C  C6945  1  0.666253  0.437217  0.234463  1
  C  C6946  1  0.999587  0.463913  0.896117  1
  C  C6947  1  0.999587  0.432203  0.536087  1
  C  C6948  1  0.999587  0.103883  0.567797  1
  C  C6949  1  0.701890  0.860290  0.763110  1
  C  C6950  1  0.701890  0.902820  0.139710  1
  C  C6951  1  0.701890  0.236890  0.097180  1
  C  C6952  1  0.368557  0.193623  0.429777  1
  C  C6953  1  0.368557  0.236153  0.806377  1
  C  C6954  1  0.368557  0.570223  0.763847  1
  C  C6955  1  0.035223  0.526957  0.096443  1
  C  C6956  1  0.035223  0.569487  0.473043  1
  C  C6957  1  0.035223  0.903557  0.430513  1
  C  C6958  1  0.298110  0.139710  0.236890  1
  C  C6959  1  0.298110  0.097180  0.860290  1
  C  C6960  1  0.298110  0.763110  0.902820  1
  C  C6961  1  0.631443  0.806377  0.570223  1
  C  C6962  1  0.631443  0.763847  0.193623  1
  C  C6963  1  0.631443  0.429777  0.236153  1
  C  C6964  1  0.964777  0.473043  0.903557  1
  C  C6965  1  0.964777  0.430513  0.526957  1
  C  C6966  1  0.964777  0.096443  0.569487  1
  C  C6967  1  0.711870  0.840180  0.762840  1
  C  C6968  1  0.711870  0.922660  0.159820  1
  C  C6969  1  0.711870  0.237160  0.077340  1
  C  C6970  1  0.378537  0.173513  0.429507  1
  C  C6971  1  0.378537  0.255993  0.826487  1
  C  C6972  1  0.378537  0.570493  0.744007  1
  C  C6973  1  0.045203  0.506847  0.096173  1
  C  C6974  1  0.045203  0.589327  0.493153  1
  C  C6975  1  0.045203  0.903827  0.410673  1
  C  C6976  1  0.288130  0.159820  0.237160  1
  C  C6977  1  0.288130  0.077340  0.840180  1
  C  C6978  1  0.288130  0.762840  0.922660  1
  C  C6979  1  0.621463  0.826487  0.570493  1
  C  C6980  1  0.621463  0.744007  0.173513  1
  C  C6981  1  0.621463  0.429507  0.255993  1
  C  C6982  1  0.954797  0.493153  0.903827  1
  C  C6983  1  0.954797  0.410673  0.506847  1
  C  C6984  1  0.954797  0.096173  0.589327  1
  C  C6985  1  0.686670  0.829520  0.769960  1
  C  C6986  1  0.686670  0.940440  0.170480  1
  C  C6987  1  0.686670  0.230040  0.059560  1
  C  C6988  1  0.353337  0.162853  0.436627  1
  C  C6989  1  0.353337  0.273773  0.837147  1
  C  C6990  1  0.353337  0.563373  0.726227  1
  C  C6991  1  0.020003  0.496187  0.103293  1
  C  C6992  1  0.020003  0.607107  0.503813  1
  C  C6993  1  0.020003  0.896707  0.392893  1
  C  C6994  1  0.313330  0.170480  0.230040  1
  C  C6995  1  0.313330  0.059560  0.829520  1
  C  C6996  1  0.313330  0.769960  0.940440  1
  C  C6997  1  0.646663  0.837147  0.563373  1
  C  C6998  1  0.646663  0.726227  0.162853  1
  C  C6999  1  0.646663  0.436627  0.273773  1
  C  C7000  1  0.979997  0.503813  0.896707  1
  C  C7001  1  0.979997  0.392893  0.496187  1
  C  C7002  1  0.979997  0.103293  0.607107  1
  C  C7003  1  0.652100  0.839080  0.776580  1
  C  C7004  1  0.652100  0.937500  0.160920  1
  C  C7005  1  0.652100  0.223420  0.062500  1
  C  C7006  1  0.318767  0.172413  0.443247  1
  C  C7007  1  0.318767  0.270833  0.827587  1
  C  C7008  1  0.318767  0.556753  0.729167  1
  C  C7009  1  0.985433  0.505747  0.109913  1
  C  C7010  1  0.985433  0.604167  0.494253  1
  C  C7011  1  0.985433  0.890087  0.395833  1
  C  C7012  1  0.347900  0.160920  0.223420  1
  C  C7013  1  0.347900  0.062500  0.839080  1
  C  C7014  1  0.347900  0.776580  0.937500  1
  C  C7015  1  0.681233  0.827587  0.556753  1
  C  C7016  1  0.681233  0.729167  0.172413  1
  C  C7017  1  0.681233  0.443247  0.270833  1
  C  C7018  1  0.014567  0.494253  0.890087  1
  C  C7019  1  0.014567  0.395833  0.505747  1
  C  C7020  1  0.014567  0.109913  0.604167  1
  C  C7021  1  0.623400  0.828100  0.782700  1
  C  C7022  1  0.623400  0.954600  0.171900  1
  C  C7023  1  0.623400  0.217300  0.045400  1
  C  C7024  1  0.290067  0.161433  0.449367  1
  C  C7025  1  0.290067  0.287933  0.838567  1
  C  C7026  1  0.290067  0.550633  0.712067  1
  C  C7027  1  0.956733  0.494767  0.116033  1
  C  C7028  1  0.956733  0.621267  0.505233  1
  C  C7029  1  0.956733  0.883967  0.378733  1
  C  C7030  1  0.376600  0.171900  0.217300  1
  C  C7031  1  0.376600  0.045400  0.828100  1
  C  C7032  1  0.376600  0.782700  0.954600  1
  C  C7033  1  0.709933  0.838567  0.550633  1
  C  C7034  1  0.709933  0.712067  0.161433  1
  C  C7035  1  0.709933  0.449367  0.287933  1
  C  C7036  1  0.043267  0.505233  0.883967  1
  C  C7037  1  0.043267  0.378733  0.494767  1
  C  C7038  1  0.043267  0.116033  0.621267  1
  C  C7039  1  0.563400  0.825940  0.795200  1
  C  C7040  1  0.563400  0.969260  0.174060  1
  C  C7041  1  0.563400  0.204800  0.030740  1
  C  C7042  1  0.230067  0.159273  0.461867  1
  C  C7043  1  0.230067  0.302593  0.840727  1
  C  C7044  1  0.230067  0.538133  0.697407  1
  C  C7045  1  0.896733  0.492607  0.128533  1
  C  C7046  1  0.896733  0.635927  0.507393  1
  C  C7047  1  0.896733  0.871467  0.364073  1
  C  C7048  1  0.436600  0.174060  0.204800  1
  C  C7049  1  0.436600  0.030740  0.825940  1
  C  C7050  1  0.436600  0.795200  0.969260  1
  C  C7051  1  0.769933  0.840727  0.538133  1
  C  C7052  1  0.769933  0.697407  0.159273  1
  C  C7053  1  0.769933  0.461867  0.302593  1
  C  C7054  1  0.103267  0.507393  0.871467  1
  C  C7055  1  0.103267  0.364073  0.492607  1
  C  C7056  1  0.103267  0.128533  0.635927  1
  C  C7057  1  0.527300  0.825430  0.788230  1
  C  C7058  1  0.527300  0.962800  0.174570  1
  C  C7059  1  0.527300  0.211770  0.037200  1
  C  C7060  1  0.193967  0.158763  0.454897  1
  C  C7061  1  0.193967  0.296133  0.841237  1
  C  C7062  1  0.193967  0.545103  0.703867  1
  C  C7063  1  0.860633  0.492097  0.121563  1
  C  C7064  1  0.860633  0.629467  0.507903  1
  C  C7065  1  0.860633  0.878437  0.370533  1
  C  C7066  1  0.472700  0.174570  0.211770  1
  C  C7067  1  0.472700  0.037200  0.825430  1
  C  C7068  1  0.472700  0.788230  0.962800  1
  C  C7069  1  0.806033  0.841237  0.545103  1
  C  C7070  1  0.806033  0.703867  0.158763  1
  C  C7071  1  0.806033  0.454897  0.296133  1
  C  C7072  1  0.139367  0.507903  0.878437  1
  C  C7073  1  0.139367  0.370533  0.492097  1
  C  C7074  1  0.139367  0.121563  0.629467  1
  C  C7075  1  0.500900  0.813000  0.792600  1
  C  C7076  1  0.500900  0.979600  0.187000  1
  C  C7077  1  0.500900  0.207400  0.020400  1
  C  C7078  1  0.167567  0.146333  0.459267  1
  C  C7079  1  0.167567  0.312933  0.853667  1
  C  C7080  1  0.167567  0.540733  0.687067  1
  C  C7081  1  0.834233  0.479667  0.125933  1
  C  C7082  1  0.834233  0.646267  0.520333  1
  C  C7083  1  0.834233  0.874067  0.353733  1
  C  C7084  1  0.499100  0.187000  0.207400  1
  C  C7085  1  0.499100  0.020400  0.813000  1
  C  C7086  1  0.499100  0.792600  0.979600  1
  C  C7087  1  0.832433  0.853667  0.540733  1
  C  C7088  1  0.832433  0.687067  0.146333  1
  C  C7089  1  0.832433  0.459267  0.312933  1
  C  C7090  1  0.165767  0.520333  0.874067  1
  C  C7091  1  0.165767  0.353733  0.479667  1
  C  C7092  1  0.165767  0.125933  0.646267  1
  C  C7093  1  0.510700  0.801090  0.803850  1
  C  C7094  1  0.510700  0.002760  0.198910  1
  C  C7095  1  0.510700  0.196150  0.997240  1
  C  C7096  1  0.177367  0.134423  0.470517  1
  C  C7097  1  0.177367  0.336093  0.865577  1
  C  C7098  1  0.177367  0.529483  0.663907  1
  C  C7099  1  0.844033  0.467757  0.137183  1
  C  C7100  1  0.844033  0.669427  0.532243  1
  C  C7101  1  0.844033  0.862817  0.330573  1
  C  C7102  1  0.489300  0.198910  0.196150  1
  C  C7103  1  0.489300  0.997240  0.801090  1
  C  C7104  1  0.489300  0.803850  0.002760  1
  C  C7105  1  0.822633  0.865577  0.529483  1
  C  C7106  1  0.822633  0.663907  0.134423  1
  C  C7107  1  0.822633  0.470517  0.336093  1
  C  C7108  1  0.155967  0.532243  0.862817  1
  C  C7109  1  0.155967  0.330573  0.467757  1
  C  C7110  1  0.155967  0.137183  0.669427  1
  C  C7111  1  0.546900  0.801590  0.810800  1
  C  C7112  1  0.546900  0.009210  0.198410  1
  C  C7113  1  0.546900  0.189200  0.990790  1
  C  C7114  1  0.213567  0.134923  0.477467  1
  C  C7115  1  0.213567  0.342543  0.865077  1
  C  C7116  1  0.213567  0.522533  0.657457  1
  C  C7117  1  0.880233  0.468257  0.144133  1
  C  C7118  1  0.880233  0.675877  0.531743  1
  C  C7119  1  0.880233  0.855867  0.324123  1
  C  C7120  1  0.453100  0.198410  0.189200  1
  C  C7121  1  0.453100  0.990790  0.801590  1
  C  C7122  1  0.453100  0.810800  0.009210  1
  C  C7123  1  0.786433  0.865077  0.522533  1
  C  C7124  1  0.786433  0.657457  0.134923  1
  C  C7125  1  0.786433  0.477467  0.342543  1
  C  C7126  1  0.119767  0.531743  0.855867  1
  C  C7127  1  0.119767  0.324123  0.468257  1
  C  C7128  1  0.119767  0.144133  0.675877  1
  C  C7129  1  0.573200  0.814000  0.806460  1
  C  C7130  1  0.573200  0.992460  0.186000  1
  C  C7131  1  0.573200  0.193540  0.007540  1
  C  C7132  1  0.239867  0.147333  0.473127  1
  C  C7133  1  0.239867  0.325793  0.852667  1
  C  C7134  1  0.239867  0.526873  0.674207  1
  C  C7135  1  0.906533  0.480667  0.139793  1
  C  C7136  1  0.906533  0.659127  0.519333  1
  C  C7137  1  0.906533  0.860207  0.340873  1
  C  C7138  1  0.426800  0.186000  0.193540  1
  C  C7139  1  0.426800  0.007540  0.814000  1
  C  C7140  1  0.426800  0.806460  0.992460  1
  C  C7141  1  0.760133  0.852667  0.526873  1
  C  C7142  1  0.760133  0.674207  0.147333  1
  C  C7143  1  0.760133  0.473127  0.325793  1
  C  C7144  1  0.093467  0.519333  0.860207  1
  C  C7145  1  0.093467  0.340873  0.480667  1
  C  C7146  1  0.093467  0.139793  0.659127  1
  C  C7147  1  0.461100  0.813400  0.786000  1
  C  C7148  1  0.461100  0.972600  0.186600  1
  C  C7149  1  0.461100  0.214000  0.027400  1
  C  C7150  1  0.127767  0.146733  0.452667  1
  C  C7151  1  0.127767  0.305933  0.853267  1
  C  C7152  1  0.127767  0.547333  0.694067  1
  C  C7153  1  0.794433  0.480067  0.119333  1
  C  C7154  1  0.794433  0.639267  0.519933  1
  C  C7155  1  0.794433  0.880667  0.360733  1
  C  C7156  1  0.538900  0.186600  0.214000  1
  C  C7157  1  0.538900  0.027400  0.813400  1
  C  C7158  1  0.538900  0.786000  0.972600  1
  C  C7159  1  0.872233  0.853267  0.547333  1
  C  C7160  1  0.872233  0.694067  0.146733  1
  C  C7161  1  0.872233  0.452667  0.305933  1
  C  C7162  1  0.205567  0.519933  0.880667  1
  C  C7163  1  0.205567  0.360733  0.480067  1
  C  C7164  1  0.205567  0.119333  0.639267  1
  C  C7165  1  0.448400  0.799500  0.763000  1
  C  C7166  1  0.448400  0.963500  0.200500  1
  C  C7167  1  0.448400  0.237000  0.036500  1
  C  C7168  1  0.115067  0.132833  0.429667  1
  C  C7169  1  0.115067  0.296833  0.867167  1
  C  C7170  1  0.115067  0.570333  0.703167  1
  C  C7171  1  0.781733  0.466167  0.096333  1
  C  C7172  1  0.781733  0.630167  0.533833  1
  C  C7173  1  0.781733  0.903667  0.369833  1
  C  C7174  1  0.551600  0.200500  0.237000  1
  C  C7175  1  0.551600  0.036500  0.799500  1
  C  C7176  1  0.551600  0.763000  0.963500  1
  C  C7177  1  0.884933  0.867167  0.570333  1
  C  C7178  1  0.884933  0.703167  0.132833  1
  C  C7179  1  0.884933  0.429667  0.296833  1
  C  C7180  1  0.218267  0.533833  0.903667  1
  C  C7181  1  0.218267  0.369833  0.466167  1
  C  C7182  1  0.218267  0.096333  0.630167  1
  C  C7183  1  0.412000  0.799400  0.756000  1
  C  C7184  1  0.412000  0.956600  0.200600  1
  C  C7185  1  0.412000  0.244000  0.043400  1
  C  C7186  1  0.078667  0.132733  0.422667  1
  C  C7187  1  0.078667  0.289933  0.867267  1
  C  C7188  1  0.078667  0.577333  0.710067  1
  C  C7189  1  0.745333  0.466067  0.089333  1
  C  C7190  1  0.745333  0.623267  0.533933  1
  C  C7191  1  0.745333  0.910667  0.376733  1
  C  C7192  1  0.588000  0.200600  0.244000  1
  C  C7193  1  0.588000  0.043400  0.799400  1
  C  C7194  1  0.588000  0.756000  0.956600  1
  C  C7195  1  0.921333  0.867267  0.577333  1
  C  C7196  1  0.921333  0.710067  0.132733  1
  C  C7197  1  0.921333  0.422667  0.289933  1
  C  C7198  1  0.254667  0.533933  0.910667  1
  C  C7199  1  0.254667  0.376733  0.466067  1
  C  C7200  1  0.254667  0.089333  0.623267  1
  C  C7201  1  0.387600  0.814200  0.773150  1
  C  C7202  1  0.387600  0.958950  0.185800  1
  C  C7203  1  0.387600  0.226850  0.041050  1
  C  C7204  1  0.054267  0.147533  0.439817  1
  C  C7205  1  0.054267  0.292283  0.852467  1
  C  C7206  1  0.054267  0.560183  0.707717  1
  C  C7207  1  0.720933  0.480867  0.106483  1
  C  C7208  1  0.720933  0.625617  0.519133  1
  C  C7209  1  0.720933  0.893517  0.374383  1
  C  C7210  1  0.612400  0.185800  0.226850  1
  C  C7211  1  0.612400  0.041050  0.814200  1
  C  C7212  1  0.612400  0.773150  0.958950  1
  C  C7213  1  0.945733  0.852467  0.560183  1
  C  C7214  1  0.945733  0.707717  0.147533  1
  C  C7215  1  0.945733  0.439817  0.292283  1
  C  C7216  1  0.279067  0.519133  0.893517  1
  C  C7217  1  0.279067  0.374383  0.480867  1
  C  C7218  1  0.279067  0.106483  0.625617  1
  C  C7219  1  0.351600  0.815360  0.766940  1
  C  C7220  1  0.351600  0.951580  0.184640  1
  C  C7221  1  0.351600  0.233060  0.048420  1
  C  C7222  1  0.018267  0.148693  0.433607  1
  C  C7223  1  0.018267  0.284913  0.851307  1
  C  C7224  1  0.018267  0.566393  0.715087  1
  C  C7225  1  0.684933  0.482027  0.100273  1
  C  C7226  1  0.684933  0.618247  0.517973  1
  C  C7227  1  0.684933  0.899727  0.381753  1
  C  C7228  1  0.648400  0.184640  0.233060  1
  C  C7229  1  0.648400  0.048420  0.815360  1
  C  C7230  1  0.648400  0.766940  0.951580  1
  C  C7231  1  0.981733  0.851307  0.566393  1
  C  C7232  1  0.981733  0.715087  0.148693  1
  C  C7233  1  0.981733  0.433607  0.284913  1
  C  C7234  1  0.315067  0.517973  0.899727  1
  C  C7235  1  0.315067  0.381753  0.482027  1
  C  C7236  1  0.315067  0.100273  0.618247  1
  C  C7237  1  0.327300  0.831300  0.783200  1
  C  C7238  1  0.327300  0.951900  0.168700  1
  C  C7239  1  0.327300  0.216800  0.048100  1
  C  C7240  1  0.993967  0.164633  0.449867  1
  C  C7241  1  0.993967  0.285233  0.835367  1
  C  C7242  1  0.993967  0.550133  0.714767  1
  C  C7243  1  0.660633  0.497967  0.116533  1
  C  C7244  1  0.660633  0.618567  0.502033  1
  C  C7245  1  0.660633  0.883467  0.381433  1
  C  C7246  1  0.672700  0.168700  0.216800  1
  C  C7247  1  0.672700  0.048100  0.831300  1
  C  C7248  1  0.672700  0.783200  0.951900  1
  C  C7249  1  0.006033  0.835367  0.550133  1
  C  C7250  1  0.006033  0.714767  0.164633  1
  C  C7251  1  0.006033  0.449867  0.285233  1
  C  C7252  1  0.339367  0.502033  0.883467  1
  C  C7253  1  0.339367  0.381433  0.497967  1
  C  C7254  1  0.339367  0.116533  0.618567  1
  C  C7255  1  0.339200  0.846060  0.805640  1
  C  C7256  1  0.339200  0.959580  0.153940  1
  C  C7257  1  0.339200  0.194360  0.040420  1
  C  C7258  1  0.005867  0.179393  0.472307  1
  C  C7259  1  0.005867  0.292913  0.820607  1
  C  C7260  1  0.005867  0.527693  0.707087  1
  C  C7261  1  0.672533  0.512727  0.138973  1
  C  C7262  1  0.672533  0.626247  0.487273  1
  C  C7263  1  0.672533  0.861027  0.373753  1
  C  C7264  1  0.660800  0.153940  0.194360  1
  C  C7265  1  0.660800  0.040420  0.846060  1
  C  C7266  1  0.660800  0.805640  0.959580  1
  C  C7267  1  0.994133  0.820607  0.527693  1
  C  C7268  1  0.994133  0.707087  0.179393  1
  C  C7269  1  0.994133  0.472307  0.292913  1
  C  C7270  1  0.327467  0.487273  0.861027  1
  C  C7271  1  0.327467  0.373753  0.512727  1
  C  C7272  1  0.327467  0.138973  0.626247  1
  C  C7273  1  0.375300  0.844910  0.811860  1
  C  C7274  1  0.375300  0.966950  0.155090  1
  C  C7275  1  0.375300  0.188140  0.033050  1
  C  C7276  1  0.041967  0.178243  0.478527  1
  C  C7277  1  0.041967  0.300283  0.821757  1
  C  C7278  1  0.041967  0.521473  0.699717  1
  C  C7279  1  0.708633  0.511577  0.145193  1
  C  C7280  1  0.708633  0.633617  0.488423  1
  C  C7281  1  0.708633  0.854807  0.366383  1
  C  C7282  1  0.624700  0.155090  0.188140  1
  C  C7283  1  0.624700  0.033050  0.844910  1
  C  C7284  1  0.624700  0.811860  0.966950  1
  C  C7285  1  0.958033  0.821757  0.521473  1
  C  C7286  1  0.958033  0.699717  0.178243  1
  C  C7287  1  0.958033  0.478527  0.300283  1
  C  C7288  1  0.291367  0.488423  0.854807  1
  C  C7289  1  0.291367  0.366383  0.511577  1
  C  C7290  1  0.291367  0.145193  0.633617  1
  C  C7291  1  0.399500  0.828980  0.795610  1
  C  C7292  1  0.399500  0.966630  0.171020  1
  C  C7293  1  0.399500  0.204390  0.033370  1
  C  C7294  1  0.066167  0.162313  0.462277  1
  C  C7295  1  0.066167  0.299963  0.837687  1
  C  C7296  1  0.066167  0.537723  0.700037  1
  C  C7297  1  0.732833  0.495647  0.128943  1
  C  C7298  1  0.732833  0.633297  0.504353  1
  C  C7299  1  0.732833  0.871057  0.366703  1
  C  C7300  1  0.600500  0.171020  0.204390  1
  C  C7301  1  0.600500  0.033370  0.828980  1
  C  C7302  1  0.600500  0.795610  0.966630  1
  C  C7303  1  0.933833  0.837687  0.537723  1
  C  C7304  1  0.933833  0.700037  0.162313  1
  C  C7305  1  0.933833  0.462277  0.299963  1
  C  C7306  1  0.267167  0.504353  0.871057  1
  C  C7307  1  0.267167  0.366703  0.495647  1
  C  C7308  1  0.267167  0.128943  0.633297  1
  C  C7309  1  0.435600  0.827830  0.801830  1
  C  C7310  1  0.435600  0.974000  0.172170  1
  C  C7311  1  0.435600  0.198170  0.026000  1
  C  C7312  1  0.102267  0.161163  0.468497  1
  C  C7313  1  0.102267  0.307333  0.838837  1
  C  C7314  1  0.102267  0.531503  0.692667  1
  C  C7315  1  0.768933  0.494497  0.135163  1
  C  C7316  1  0.768933  0.640667  0.505503  1
  C  C7317  1  0.768933  0.864837  0.359333  1
  C  C7318  1  0.564400  0.172170  0.198170  1
  C  C7319  1  0.564400  0.026000  0.827830  1
  C  C7320  1  0.564400  0.801830  0.974000  1
  C  C7321  1  0.897733  0.838837  0.531503  1
  C  C7322  1  0.897733  0.692667  0.161163  1
  C  C7323  1  0.897733  0.468497  0.307333  1
  C  C7324  1  0.231067  0.505503  0.864837  1
  C  C7325  1  0.231067  0.359333  0.494497  1
  C  C7326  1  0.231067  0.135163  0.640667  1
  C  C7327  1  0.447400  0.842600  0.824280  1
  C  C7328  1  0.447400  0.981680  0.157400  1
  C  C7329  1  0.447400  0.175720  0.018320  1
  C  C7330  1  0.114067  0.175933  0.490947  1
  C  C7331  1  0.114067  0.315013  0.824067  1
  C  C7332  1  0.114067  0.509053  0.684987  1
  C  C7333  1  0.780733  0.509267  0.157613  1
  C  C7334  1  0.780733  0.648347  0.490733  1
  C  C7335  1  0.780733  0.842387  0.351653  1
  C  C7336  1  0.552600  0.157400  0.175720  1
  C  C7337  1  0.552600  0.018320  0.842600  1
  C  C7338  1  0.552600  0.824280  0.981680  1
  C  C7339  1  0.885933  0.824067  0.509053  1
  C  C7340  1  0.885933  0.684987  0.175933  1
  C  C7341  1  0.885933  0.490947  0.315013  1
  C  C7342  1  0.219267  0.490733  0.842387  1
  C  C7343  1  0.219267  0.351653  0.509267  1
  C  C7344  1  0.219267  0.157613  0.648347  1
  C  C7345  1  0.423200  0.858530  0.840530  1
  C  C7346  1  0.423200  0.982000  0.141470  1
  C  C7347  1  0.423200  0.159470  0.018000  1
  C  C7348  1  0.089867  0.191863  0.507197  1
  C  C7349  1  0.089867  0.315333  0.808137  1
  C  C7350  1  0.089867  0.492803  0.684667  1
  C  C7351  1  0.756533  0.525197  0.173863  1
  C  C7352  1  0.756533  0.648667  0.474803  1
  C  C7353  1  0.756533  0.826137  0.351333  1
  C  C7354  1  0.576800  0.141470  0.159470  1
  C  C7355  1  0.576800  0.018000  0.858530  1
  C  C7356  1  0.576800  0.840530  0.982000  1
  C  C7357  1  0.910133  0.808137  0.492803  1
  C  C7358  1  0.910133  0.684667  0.191863  1
  C  C7359  1  0.910133  0.507197  0.315333  1
  C  C7360  1  0.243467  0.474803  0.826137  1
  C  C7361  1  0.243467  0.351333  0.525197  1
  C  C7362  1  0.243467  0.173863  0.648667  1
  C  C7363  1  0.387100  0.859680  0.834310  1
  C  C7364  1  0.387100  0.974630  0.140320  1
  C  C7365  1  0.387100  0.165690  0.025370  1
  C  C7366  1  0.053767  0.193013  0.500977  1
  C  C7367  1  0.053767  0.307963  0.806987  1
  C  C7368  1  0.053767  0.499023  0.692037  1
  C  C7369  1  0.720433  0.526347  0.167643  1
  C  C7370  1  0.720433  0.641297  0.473653  1
  C  C7371  1  0.720433  0.832357  0.358703  1
  C  C7372  1  0.612900  0.140320  0.165690  1
  C  C7373  1  0.612900  0.025370  0.859680  1
  C  C7374  1  0.612900  0.834310  0.974630  1
  C  C7375  1  0.946233  0.806987  0.499023  1
  C  C7376  1  0.946233  0.692037  0.193013  1
  C  C7377  1  0.946233  0.500977  0.307963  1
  C  C7378  1  0.279567  0.473653  0.832357  1
  C  C7379  1  0.279567  0.358703  0.526347  1
  C  C7380  1  0.279567  0.167643  0.641297  1
  C  C7381  1  0.365000  0.877600  0.851100  1
  C  C7382  1  0.365000  0.973500  0.122400  1
  C  C7383  1  0.365000  0.148900  0.026500  1
  C  C7384  1  0.031667  0.210933  0.517767  1
  C  C7385  1  0.031667  0.306833  0.789067  1
  C  C7386  1  0.031667  0.482233  0.693167  1
  C  C7387  1  0.698333  0.544267  0.184433  1
  C  C7388  1  0.698333  0.640167  0.455733  1
  C  C7389  1  0.698333  0.815567  0.359833  1
  C  C7390  1  0.635000  0.122400  0.148900  1
  C  C7391  1  0.635000  0.026500  0.877600  1
  C  C7392  1  0.635000  0.851100  0.973500  1
  C  C7393  1  0.968333  0.789067  0.482233  1
  C  C7394  1  0.968333  0.693167  0.210933  1
  C  C7395  1  0.968333  0.517767  0.306833  1
  C  C7396  1  0.301667  0.455733  0.815567  1
  C  C7397  1  0.301667  0.359833  0.544267  1
  C  C7398  1  0.301667  0.184433  0.640167  1
  C  C7399  1  0.330700  0.880300  0.843500  1
  C  C7400  1  0.330700  0.963200  0.119700  1
  C  C7401  1  0.330700  0.156500  0.036800  1
  C  C7402  1  0.997367  0.213633  0.510167  1
  C  C7403  1  0.997367  0.296533  0.786367  1
  C  C7404  1  0.997367  0.489833  0.703467  1
  C  C7405  1  0.664033  0.546967  0.176833  1
  C  C7406  1  0.664033  0.629867  0.453033  1
  C  C7407  1  0.664033  0.823167  0.370133  1
  C  C7408  1  0.669300  0.119700  0.156500  1
  C  C7409  1  0.669300  0.036800  0.880300  1
  C  C7410  1  0.669300  0.843500  0.963200  1
  C  C7411  1  0.002633  0.786367  0.489833  1
  C  C7412  1  0.002633  0.703467  0.213633  1
  C  C7413  1  0.002633  0.510167  0.296533  1
  C  C7414  1  0.335967  0.453033  0.823167  1
  C  C7415  1  0.335967  0.370133  0.546967  1
  C  C7416  1  0.335967  0.176833  0.629867  1
  C  C7417  1  0.316100  0.864500  0.822300  1
  C  C7418  1  0.316100  0.957800  0.135500  1
  C  C7419  1  0.316100  0.177700  0.042200  1
  C  C7420  1  0.982767  0.197833  0.488967  1
  C  C7421  1  0.982767  0.291133  0.802167  1
  C  C7422  1  0.982767  0.511033  0.708867  1
  C  C7423  1  0.649433  0.531167  0.155633  1
  C  C7424  1  0.649433  0.624467  0.468833  1
  C  C7425  1  0.649433  0.844367  0.375533  1
  C  C7426  1  0.683900  0.135500  0.177700  1
  C  C7427  1  0.683900  0.042200  0.864500  1
  C  C7428  1  0.683900  0.822300  0.957800  1
  C  C7429  1  0.017233  0.802167  0.511033  1
  C  C7430  1  0.017233  0.708867  0.197833  1
  C  C7431  1  0.017233  0.488967  0.291133  1
  C  C7432  1  0.350567  0.468833  0.844367  1
  C  C7433  1  0.350567  0.375533  0.531167  1
  C  C7434  1  0.350567  0.155633  0.624467  1
  C  C7435  1  0.281500  0.870300  0.814100  1
  C  C7436  1  0.281500  0.943800  0.129700  1
  C  C7437  1  0.281500  0.185900  0.056200  1
  C  C7438  1  0.948167  0.203633  0.480767  1
  C  C7439  1  0.948167  0.277133  0.796367  1
  C  C7440  1  0.948167  0.519233  0.722867  1
  C  C7441  1  0.614833  0.536967  0.147433  1
  C  C7442  1  0.614833  0.610467  0.463033  1
  C  C7443  1  0.614833  0.852567  0.389533  1
  C  C7444  1  0.718500  0.129700  0.185900  1
  C  C7445  1  0.718500  0.056200  0.870300  1
  C  C7446  1  0.718500  0.814100  0.943800  1
  C  C7447  1  0.051833  0.796367  0.519233  1
  C  C7448  1  0.051833  0.722867  0.203633  1
  C  C7449  1  0.051833  0.480767  0.277133  1
  C  C7450  1  0.385167  0.463033  0.852567  1
  C  C7451  1  0.385167  0.389533  0.536967  1
  C  C7452  1  0.385167  0.147433  0.610467  1
  C  C7453  1  0.271500  0.869100  0.793400  1
  C  C7454  1  0.271500  0.924300  0.130900  1
  C  C7455  1  0.271500  0.206600  0.075700  1
  C  C7456  1  0.938167  0.202433  0.460067  1
  C  C7457  1  0.938167  0.257633  0.797567  1
  C  C7458  1  0.938167  0.539933  0.742367  1
  C  C7459  1  0.604833  0.535767  0.126733  1
  C  C7460  1  0.604833  0.590967  0.464233  1
  C  C7461  1  0.604833  0.873267  0.409033  1
  C  C7462  1  0.728500  0.130900  0.206600  1
  C  C7463  1  0.728500  0.075700  0.869100  1
  C  C7464  1  0.728500  0.793400  0.924300  1
  C  C7465  1  0.061833  0.797567  0.539933  1
  C  C7466  1  0.061833  0.742367  0.202433  1
  C  C7467  1  0.061833  0.460067  0.257633  1
  C  C7468  1  0.395167  0.464233  0.873267  1
  C  C7469  1  0.395167  0.409033  0.535767  1
  C  C7470  1  0.395167  0.126733  0.590967  1
  C  C7471  1  0.238100  0.878400  0.791800  1
  C  C7472  1  0.238100  0.913400  0.121600  1
  C  C7473  1  0.238100  0.208200  0.086600  1
  C  C7474  1  0.904767  0.211733  0.458467  1
  C  C7475  1  0.904767  0.246733  0.788267  1
  C  C7476  1  0.904767  0.541533  0.753267  1
  C  C7477  1  0.571433  0.545067  0.125133  1
  C  C7478  1  0.571433  0.580067  0.454933  1
  C  C7479  1  0.571433  0.874867  0.419933  1
  C  C7480  1  0.761900  0.121600  0.208200  1
  C  C7481  1  0.761900  0.086600  0.878400  1
  C  C7482  1  0.761900  0.791800  0.913400  1
  C  C7483  1  0.095233  0.788267  0.541533  1
  C  C7484  1  0.095233  0.753267  0.211733  1
  C  C7485  1  0.095233  0.458467  0.246733  1
  C  C7486  1  0.428567  0.454933  0.874867  1
  C  C7487  1  0.428567  0.419933  0.545067  1
  C  C7488  1  0.428567  0.125133  0.580067  1
  C  C7489  1  0.214900  0.888900  0.810900  1
  C  C7490  1  0.214900  0.922000  0.111100  1
  C  C7491  1  0.214900  0.189100  0.078000  1
  C  C7492  1  0.881567  0.222233  0.477567  1
  C  C7493  1  0.881567  0.255333  0.777767  1
  C  C7494  1  0.881567  0.522433  0.744667  1
  C  C7495  1  0.548233  0.555567  0.144233  1
  C  C7496  1  0.548233  0.588667  0.444433  1
  C  C7497  1  0.548233  0.855767  0.411333  1
  C  C7498  1  0.785100  0.111100  0.189100  1
  C  C7499  1  0.785100  0.078000  0.888900  1
  C  C7500  1  0.785100  0.810900  0.922000  1
  C  C7501  1  0.118433  0.777767  0.522433  1
  C  C7502  1  0.118433  0.744667  0.222233  1
  C  C7503  1  0.118433  0.477567  0.255333  1
  C  C7504  1  0.451767  0.444433  0.855767  1
  C  C7505  1  0.451767  0.411333  0.555567  1
  C  C7506  1  0.451767  0.144233  0.588667  1
  C  C7507  1  0.225000  0.890000  0.831500  1
  C  C7508  1  0.225000  0.941500  0.110000  1
  C  C7509  1  0.225000  0.168500  0.058500  1
  C  C7510  1  0.891667  0.223333  0.498167  1
  C  C7511  1  0.891667  0.274833  0.776667  1
  C  C7512  1  0.891667  0.501833  0.725167  1
  C  C7513  1  0.558333  0.556667  0.164833  1
  C  C7514  1  0.558333  0.608167  0.443333  1
  C  C7515  1  0.558333  0.835167  0.391833  1
  C  C7516  1  0.775000  0.110000  0.168500  1
  C  C7517  1  0.775000  0.058500  0.890000  1
  C  C7518  1  0.775000  0.831500  0.941500  1
  C  C7519  1  0.108333  0.776667  0.501833  1
  C  C7520  1  0.108333  0.725167  0.223333  1
  C  C7521  1  0.108333  0.498167  0.274833  1
  C  C7522  1  0.441667  0.443333  0.835167  1
  C  C7523  1  0.441667  0.391833  0.556667  1
  C  C7524  1  0.441667  0.164833  0.608167  1
  C  C7525  1  0.258300  0.880700  0.833100  1
  C  C7526  1  0.258300  0.952400  0.119300  1
  C  C7527  1  0.258300  0.166900  0.047600  1
  C  C7528  1  0.924967  0.214033  0.499767  1
  C  C7529  1  0.924967  0.285733  0.785967  1
  C  C7530  1  0.924967  0.500233  0.714267  1
  C  C7531  1  0.591633  0.547367  0.166433  1
  C  C7532  1  0.591633  0.619067  0.452633  1
  C  C7533  1  0.591633  0.833567  0.380933  1
  C  C7534  1  0.741700  0.119300  0.166900  1
  C  C7535  1  0.741700  0.047600  0.880700  1
  C  C7536  1  0.741700  0.833100  0.952400  1
  C  C7537  1  0.075033  0.785967  0.500233  1
  C  C7538  1  0.075033  0.714267  0.214033  1
  C  C7539  1  0.075033  0.499767  0.285733  1
  C  C7540  1  0.408367  0.452633  0.833567  1
  C  C7541  1  0.408367  0.380933  0.547367  1
  C  C7542  1  0.408367  0.166433  0.619067  1
  C  C7543  1  0.193400  0.866440  0.735940  1
  C  C7544  1  0.193400  0.869500  0.133560  1
  C  C7545  1  0.193400  0.264060  0.130500  1
  C  C7546  1  0.860067  0.199773  0.402607  1
  C  C7547  1  0.860067  0.202833  0.800227  1
  C  C7548  1  0.860067  0.597393  0.797167  1
  C  C7549  1  0.526733  0.533107  0.069273  1
  C  C7550  1  0.526733  0.536167  0.466893  1
  C  C7551  1  0.526733  0.930727  0.463833  1
  C  C7552  1  0.806600  0.133560  0.264060  1
  C  C7553  1  0.806600  0.130500  0.866440  1
  C  C7554  1  0.806600  0.735940  0.869500  1
  C  C7555  1  0.139933  0.800227  0.597393  1
  C  C7556  1  0.139933  0.797167  0.199773  1
  C  C7557  1  0.139933  0.402607  0.202833  1
  C  C7558  1  0.473267  0.466893  0.930727  1
  C  C7559  1  0.473267  0.463833  0.533107  1
  C  C7560  1  0.473267  0.069273  0.536167  1
  C  C7561  1  0.160300  0.859500  0.724500  1
  C  C7562  1  0.160300  0.865000  0.140500  1
  C  C7563  1  0.160300  0.275500  0.135000  1
  C  C7564  1  0.826967  0.192833  0.391167  1
  C  C7565  1  0.826967  0.198333  0.807167  1
  C  C7566  1  0.826967  0.608833  0.801667  1
  C  C7567  1  0.493633  0.526167  0.057833  1
  C  C7568  1  0.493633  0.531667  0.473833  1
  C  C7569  1  0.493633  0.942167  0.468333  1
  C  C7570  1  0.839700  0.140500  0.275500  1
  C  C7571  1  0.839700  0.135000  0.859500  1
  C  C7572  1  0.839700  0.724500  0.865000  1
  C  C7573  1  0.173033  0.807167  0.608833  1
  C  C7574  1  0.173033  0.801667  0.192833  1
  C  C7575  1  0.173033  0.391167  0.198333  1
  C  C7576  1  0.506367  0.473833  0.942167  1
  C  C7577  1  0.506367  0.468333  0.526167  1
  C  C7578  1  0.506367  0.057833  0.531667  1
  C  C7579  1  0.155900  0.860100  0.704200  1
  C  C7580  1  0.155900  0.844100  0.139900  1
  C  C7581  1  0.155900  0.295800  0.155900  1
  C  C7582  1  0.822567  0.193433  0.370867  1
  C  C7583  1  0.822567  0.177433  0.806567  1
  C  C7584  1  0.822567  0.629133  0.822567  1
  C  C7585  1  0.489233  0.526767  0.037533  1
  C  C7586  1  0.489233  0.510767  0.473233  1
  C  C7587  1  0.489233  0.962467  0.489233  1
  C  C7588  1  0.844100  0.139900  0.295800  1
  C  C7589  1  0.844100  0.155900  0.860100  1
  C  C7590  1  0.844100  0.704200  0.844100  1
  C  C7591  1  0.177433  0.806567  0.629133  1
  C  C7592  1  0.177433  0.822567  0.193433  1
  C  C7593  1  0.177433  0.370867  0.177433  1
  C  C7594  1  0.510767  0.473233  0.962467  1
  C  C7595  1  0.510767  0.489233  0.526767  1
  C  C7596  1  0.510767  0.037533  0.510767  1
  C  C7597  1  0.185000  0.867100  0.695900  1
  C  C7598  1  0.185000  0.828800  0.132900  1
  C  C7599  1  0.185000  0.304100  0.171200  1
  C  C7600  1  0.851667  0.200433  0.362567  1
  C  C7601  1  0.851667  0.162133  0.799567  1
  C  C7602  1  0.851667  0.637433  0.837867  1
  C  C7603  1  0.518333  0.533767  0.029233  1
  C  C7604  1  0.518333  0.495467  0.466233  1
  C  C7605  1  0.518333  0.970767  0.504533  1
  C  C7606  1  0.815000  0.132900  0.304100  1
  C  C7607  1  0.815000  0.171200  0.867100  1
  C  C7608  1  0.815000  0.695900  0.828800  1
  C  C7609  1  0.148333  0.799567  0.637433  1
  C  C7610  1  0.148333  0.837867  0.200433  1
  C  C7611  1  0.148333  0.362567  0.162133  1
  C  C7612  1  0.481667  0.466233  0.970767  1
  C  C7613  1  0.481667  0.504533  0.533767  1
  C  C7614  1  0.481667  0.029233  0.495467  1
  C  C7615  1  0.218000  0.873200  0.707800  1
  C  C7616  1  0.218000  0.834600  0.126800  1
  C  C7617  1  0.218000  0.292200  0.165400  1
  C  C7618  1  0.884667  0.206533  0.374467  1
  C  C7619  1  0.884667  0.167933  0.793467  1
  C  C7620  1  0.884667  0.625533  0.832067  1
  C  C7621  1  0.551333  0.539867  0.041133  1
  C  C7622  1  0.551333  0.501267  0.460133  1
  C  C7623  1  0.551333  0.958867  0.498733  1
  C  C7624  1  0.782000  0.126800  0.292200  1
  C  C7625  1  0.782000  0.165400  0.873200  1
  C  C7626  1  0.782000  0.707800  0.834600  1
  C  C7627  1  0.115333  0.793467  0.625533  1
  C  C7628  1  0.115333  0.832067  0.206533  1
  C  C7629  1  0.115333  0.374467  0.167933  1
  C  C7630  1  0.448667  0.460133  0.958867  1
  C  C7631  1  0.448667  0.498733  0.539867  1
  C  C7632  1  0.448667  0.041133  0.501267  1
  C  C7633  1  0.198600  0.867400  0.758400  1
  C  C7634  1  0.198600  0.891000  0.132600  1
  C  C7635  1  0.198600  0.241600  0.109000  1
  C  C7636  1  0.865267  0.200733  0.425067  1
  C  C7637  1  0.865267  0.224333  0.799267  1
  C  C7638  1  0.865267  0.574933  0.775667  1
  C  C7639  1  0.531933  0.534067  0.091733  1
  C  C7640  1  0.531933  0.557667  0.465933  1
  C  C7641  1  0.531933  0.908267  0.442333  1
  C  C7642  1  0.801400  0.132600  0.241600  1
  C  C7643  1  0.801400  0.109000  0.867400  1
  C  C7644  1  0.801400  0.758400  0.891000  1
  C  C7645  1  0.134733  0.799267  0.574933  1
  C  C7646  1  0.134733  0.775667  0.200733  1
  C  C7647  1  0.134733  0.425067  0.224333  1
  C  C7648  1  0.468067  0.465933  0.908267  1
  C  C7649  1  0.468067  0.442333  0.534067  1
  C  C7650  1  0.468067  0.091733  0.557667  1
  C  C7651  1  0.908300  0.877800  0.652300  1
  C  C7652  1  0.908300  0.774500  0.122200  1
  C  C7653  1  0.908300  0.347700  0.225500  1
  C  C7654  1  0.574967  0.211133  0.318967  1
  C  C7655  1  0.574967  0.107833  0.788867  1
  C  C7656  1  0.574967  0.681033  0.892167  1
  C  C7657  1  0.241633  0.544467  0.985633  1
  C  C7658  1  0.241633  0.441167  0.455533  1
  C  C7659  1  0.241633  0.014367  0.558833  1
  C  C7660  1  0.091700  0.122200  0.347700  1
  C  C7661  1  0.091700  0.225500  0.877800  1
  C  C7662  1  0.091700  0.652300  0.774500  1
  C  C7663  1  0.425033  0.788867  0.681033  1
  C  C7664  1  0.425033  0.892167  0.211133  1
  C  C7665  1  0.425033  0.318967  0.107833  1
  C  C7666  1  0.758367  0.455533  0.014367  1
  C  C7667  1  0.758367  0.558833  0.544467  1
  C  C7668  1  0.758367  0.985633  0.441167  1
  C  C7669  1  0.915100  0.855200  0.717500  1
  C  C7670  1  0.915100  0.862300  0.144800  1
  C  C7671  1  0.915100  0.282500  0.137700  1
  C  C7672  1  0.581767  0.188533  0.384167  1
  C  C7673  1  0.581767  0.195633  0.811467  1
  C  C7674  1  0.581767  0.615833  0.804367  1
  C  C7675  1  0.248433  0.521867  0.050833  1
  C  C7676  1  0.248433  0.528967  0.478133  1
  C  C7677  1  0.248433  0.949167  0.471033  1
  C  C7678  1  0.084900  0.144800  0.282500  1
  C  C7679  1  0.084900  0.137700  0.855200  1
  C  C7680  1  0.084900  0.717500  0.862300  1
  C  C7681  1  0.418233  0.811467  0.615833  1
  C  C7682  1  0.418233  0.804367  0.188533  1
  C  C7683  1  0.418233  0.384167  0.195633  1
  C  C7684  1  0.751567  0.478133  0.949167  1
  C  C7685  1  0.751567  0.471033  0.521867  1
  C  C7686  1  0.751567  0.050833  0.528967  1
  C  C7687  1  0.816200  0.050500  0.787900  1
  C  C7688  1  0.816200  0.737400  0.949500  1
  C  C7689  1  0.816200  0.212100  0.262600  1
  C  C7690  1  0.482867  0.383833  0.454567  1
  C  C7691  1  0.482867  0.070733  0.616167  1
  C  C7692  1  0.482867  0.545433  0.929267  1
  C  C7693  1  0.149533  0.717167  0.121233  1
  C  C7694  1  0.149533  0.404067  0.282833  1
  C  C7695  1  0.149533  0.878767  0.595933  1
  C  C7696  1  0.183800  0.949500  0.212100  1
  C  C7697  1  0.183800  0.262600  0.050500  1
  C  C7698  1  0.183800  0.787900  0.737400  1
  C  C7699  1  0.517133  0.616167  0.545433  1
  C  C7700  1  0.517133  0.929267  0.383833  1
  C  C7701  1  0.517133  0.454567  0.070733  1
  C  C7702  1  0.850467  0.282833  0.878767  1
  C  C7703  1  0.850467  0.595933  0.717167  1
  C  C7704  1  0.850467  0.121233  0.404067  1
  C  C7705  1  0.928700  0.102000  0.788700  1
  C  C7706  1  0.928700  0.686700  0.898000  1
  C  C7707  1  0.928700  0.211300  0.313300  1
  C  C7708  1  0.595367  0.435333  0.455367  1
  C  C7709  1  0.595367  0.020033  0.564667  1
  C  C7710  1  0.595367  0.544633  0.979967  1
  C  C7711  1  0.262033  0.768667  0.122033  1
  C  C7712  1  0.262033  0.353367  0.231333  1
  C  C7713  1  0.262033  0.877967  0.646633  1
  C  C7714  1  0.071300  0.898000  0.211300  1
  C  C7715  1  0.071300  0.313300  0.102000  1
  C  C7716  1  0.071300  0.788700  0.686700  1
  C  C7717  1  0.404633  0.564667  0.544633  1
  C  C7718  1  0.404633  0.979967  0.435333  1
  C  C7719  1  0.404633  0.455367  0.020033  1
  C  C7720  1  0.737967  0.231333  0.877967  1
  C  C7721  1  0.737967  0.646633  0.768667  1
  C  C7722  1  0.737967  0.122033  0.353367  1
  C  C7723  1  0.376200  0.931200  0.836400  1
  C  C7724  1  0.376200  0.905200  0.068800  1
  C  C7725  1  0.376200  0.163600  0.094800  1
  C  C7726  1  0.042867  0.264533  0.503067  1
  C  C7727  1  0.042867  0.238533  0.735467  1
  C  C7728  1  0.042867  0.496933  0.761467  1
  C  C7729  1  0.709533  0.597867  0.169733  1
  C  C7730  1  0.709533  0.571867  0.402133  1
  C  C7731  1  0.709533  0.830267  0.428133  1
  C  C7732  1  0.623800  0.068800  0.163600  1
  C  C7733  1  0.623800  0.094800  0.931200  1
  C  C7734  1  0.623800  0.836400  0.905200  1
  C  C7735  1  0.957133  0.735467  0.496933  1
  C  C7736  1  0.957133  0.761467  0.264533  1
  C  C7737  1  0.957133  0.503067  0.238533  1
  C  C7738  1  0.290467  0.402133  0.830267  1
  C  C7739  1  0.290467  0.428133  0.597867  1
  C  C7740  1  0.290467  0.169733  0.571867  1
  C  C7741  1  0.495800  0.971800  0.871300  1
  C  C7742  1  0.495800  0.899500  0.028200  1
  C  C7743  1  0.495800  0.128700  0.100500  1
  C  C7744  1  0.162467  0.305133  0.537967  1
  C  C7745  1  0.162467  0.232833  0.694867  1
  C  C7746  1  0.162467  0.462033  0.767167  1
  C  C7747  1  0.829133  0.638467  0.204633  1
  C  C7748  1  0.829133  0.566167  0.361533  1
  C  C7749  1  0.829133  0.795367  0.433833  1
  C  C7750  1  0.504200  0.028200  0.128700  1
  C  C7751  1  0.504200  0.100500  0.971800  1
  C  C7752  1  0.504200  0.871300  0.899500  1
  C  C7753  1  0.837533  0.694867  0.462033  1
  C  C7754  1  0.837533  0.767167  0.305133  1
  C  C7755  1  0.837533  0.537967  0.232833  1
  C  C7756  1  0.170867  0.361533  0.795367  1
  C  C7757  1  0.170867  0.433833  0.638467  1
  C  C7758  1  0.170867  0.204633  0.566167  1
  C  C7759  1  0.545300  0.846700  0.656400  1
  C  C7760  1  0.545300  0.809700  0.153300  1
  C  C7761  1  0.545300  0.343600  0.190300  1
  C  C7762  1  0.211967  0.180033  0.323067  1
  C  C7763  1  0.211967  0.143033  0.819967  1
  C  C7764  1  0.211967  0.676933  0.856967  1
  C  C7765  1  0.878633  0.513367  0.989733  1
  C  C7766  1  0.878633  0.476367  0.486633  1
  C  C7767  1  0.878633  0.010267  0.523633  1
  C  C7768  1  0.454700  0.153300  0.343600  1
  C  C7769  1  0.454700  0.190300  0.846700  1
  C  C7770  1  0.454700  0.656400  0.809700  1
  C  C7771  1  0.788033  0.819967  0.676933  1
  C  C7772  1  0.788033  0.856967  0.180033  1
  C  C7773  1  0.788033  0.323067  0.143033  1
  C  C7774  1  0.121367  0.486633  0.010267  1
  C  C7775  1  0.121367  0.523633  0.513367  1
  C  C7776  1  0.121367  0.989733  0.476367  1
  C  C7777  1  0.537100  0.835000  0.632900  1
  C  C7778  1  0.537100  0.797900  0.165000  1
  C  C7779  1  0.537100  0.367100  0.202100  1
  C  C7780  1  0.203767  0.168333  0.299567  1
  C  C7781  1  0.203767  0.131233  0.831667  1
  C  C7782  1  0.203767  0.700433  0.868767  1
  C  C7783  1  0.870433  0.501667  0.966233  1
  C  C7784  1  0.870433  0.464567  0.498333  1
  C  C7785  1  0.870433  0.033767  0.535433  1
  C  C7786  1  0.462900  0.165000  0.367100  1
  C  C7787  1  0.462900  0.202100  0.835000  1
  C  C7788  1  0.462900  0.632900  0.797900  1
  C  C7789  1  0.796233  0.831667  0.700433  1
  C  C7790  1  0.796233  0.868767  0.168333  1
  C  C7791  1  0.796233  0.299567  0.131233  1
  C  C7792  1  0.129567  0.498333  0.033767  1
  C  C7793  1  0.129567  0.535433  0.501667  1
  C  C7794  1  0.129567  0.966233  0.464567  1
  C  C7795  1  0.563300  0.820600  0.617000  1
  C  C7796  1  0.563300  0.796400  0.179400  1
  C  C7797  1  0.563300  0.383000  0.203600  1
  C  C7798  1  0.229967  0.153933  0.283667  1
  C  C7799  1  0.229967  0.129733  0.846067  1
  C  C7800  1  0.229967  0.716333  0.870267  1
  C  C7801  1  0.896633  0.487267  0.950333  1
  C  C7802  1  0.896633  0.463067  0.512733  1
  C  C7803  1  0.896633  0.049667  0.536933  1
  C  C7804  1  0.436700  0.179400  0.383000  1
  C  C7805  1  0.436700  0.203600  0.820600  1
  C  C7806  1  0.436700  0.617000  0.796400  1
  C  C7807  1  0.770033  0.846067  0.716333  1
  C  C7808  1  0.770033  0.870267  0.153933  1
  C  C7809  1  0.770033  0.283667  0.129733  1
  C  C7810  1  0.103367  0.512733  0.049667  1
  C  C7811  1  0.103367  0.536933  0.487267  1
  C  C7812  1  0.103367  0.950333  0.463067  1
  C  C7813  1  0.597600  0.818000  0.624600  1
  C  C7814  1  0.597600  0.806600  0.182000  1
  C  C7815  1  0.597600  0.375400  0.193400  1
  C  C7816  1  0.264267  0.151333  0.291267  1
  C  C7817  1  0.264267  0.139933  0.848667  1
  C  C7818  1  0.264267  0.708733  0.860067  1
  C  C7819  1  0.930933  0.484667  0.957933  1
  C  C7820  1  0.930933  0.473267  0.515333  1
  C  C7821  1  0.930933  0.042067  0.526733  1
  C  C7822  1  0.402400  0.182000  0.375400  1
  C  C7823  1  0.402400  0.193400  0.818000  1
  C  C7824  1  0.402400  0.624600  0.806600  1
  C  C7825  1  0.735733  0.848667  0.708733  1
  C  C7826  1  0.735733  0.860067  0.151333  1
  C  C7827  1  0.735733  0.291267  0.139933  1
  C  C7828  1  0.069067  0.515333  0.042067  1
  C  C7829  1  0.069067  0.526733  0.484667  1
  C  C7830  1  0.069067  0.957933  0.473267  1
  C  C7831  1  0.605700  0.829700  0.648100  1
  C  C7832  1  0.605700  0.818400  0.170300  1
  C  C7833  1  0.605700  0.351900  0.181600  1
  C  C7834  1  0.272367  0.163033  0.314767  1
  C  C7835  1  0.272367  0.151733  0.836967  1
  C  C7836  1  0.272367  0.685233  0.848267  1
  C  C7837  1  0.939033  0.496367  0.981433  1
  C  C7838  1  0.939033  0.485067  0.503633  1
  C  C7839  1  0.939033  0.018567  0.514933  1
  C  C7840  1  0.394300  0.170300  0.351900  1
  C  C7841  1  0.394300  0.181600  0.829700  1
  C  C7842  1  0.394300  0.648100  0.818400  1
  C  C7843  1  0.727633  0.836967  0.685233  1
  C  C7844  1  0.727633  0.848267  0.163033  1
  C  C7845  1  0.727633  0.314767  0.151733  1
  C  C7846  1  0.060967  0.503633  0.018567  1
  C  C7847  1  0.060967  0.514933  0.496367  1
  C  C7848  1  0.060967  0.981433  0.485067  1
  C  C7849  1  0.579500  0.844100  0.664000  1
  C  C7850  1  0.579500  0.819900  0.155900  1
  C  C7851  1  0.579500  0.336000  0.180100  1
  C  C7852  1  0.246167  0.177433  0.330667  1
  C  C7853  1  0.246167  0.153233  0.822567  1
  C  C7854  1  0.246167  0.669333  0.846767  1
  C  C7855  1  0.912833  0.510767  0.997333  1
  C  C7856  1  0.912833  0.486567  0.489233  1
  C  C7857  1  0.912833  0.002667  0.513433  1
  C  C7858  1  0.420500  0.155900  0.336000  1
  C  C7859  1  0.420500  0.180100  0.844100  1
  C  C7860  1  0.420500  0.664000  0.819900  1
  C  C7861  1  0.753833  0.822567  0.669333  1
  C  C7862  1  0.753833  0.846767  0.177433  1
  C  C7863  1  0.753833  0.330667  0.153233  1
  C  C7864  1  0.087167  0.489233  0.002667  1
  C  C7865  1  0.087167  0.513433  0.510767  1
  C  C7866  1  0.087167  0.997333  0.486567  1
  C  C7867  1  0.087100  0.980000  0.696300  1
  C  C7868  1  0.087100  0.716300  0.020000  1
  C  C7869  1  0.087100  0.303700  0.283700  1
  C  C7870  1  0.753767  0.313333  0.362967  1
  C  C7871  1  0.753767  0.049633  0.686667  1
  C  C7872  1  0.753767  0.637033  0.950367  1
  C  C7873  1  0.420433  0.646667  0.029633  1
  C  C7874  1  0.420433  0.382967  0.353333  1
  C  C7875  1  0.420433  0.970367  0.617033  1
  C  C7876  1  0.912900  0.020000  0.303700  1
  C  C7877  1  0.912900  0.283700  0.980000  1
  C  C7878  1  0.912900  0.696300  0.716300  1
  C  C7879  1  0.246233  0.686667  0.637033  1
  C  C7880  1  0.246233  0.950367  0.313333  1
  C  C7881  1  0.246233  0.362967  0.049633  1
  C  C7882  1  0.579567  0.353333  0.970367  1
  C  C7883  1  0.579567  0.617033  0.646667  1
  C  C7884  1  0.579567  0.029633  0.382967  1
  C  C7885  1  0.111900  0.971700  0.706200  1
  C  C7886  1  0.111900  0.734500  0.028300  1
  C  C7887  1  0.111900  0.293800  0.265500  1
  C  C7888  1  0.778567  0.305033  0.372867  1
  C  C7889  1  0.778567  0.067833  0.694967  1
  C  C7890  1  0.778567  0.627133  0.932167  1
  C  C7891  1  0.445233  0.638367  0.039533  1
  C  C7892  1  0.445233  0.401167  0.361633  1
  C  C7893  1  0.445233  0.960467  0.598833  1
  C  C7894  1  0.888100  0.028300  0.293800  1
  C  C7895  1  0.888100  0.265500  0.971700  1
  C  C7896  1  0.888100  0.706200  0.734500  1
  C  C7897  1  0.221433  0.694967  0.627133  1
  C  C7898  1  0.221433  0.932167  0.305033  1
  C  C7899  1  0.221433  0.372867  0.067833  1
  C  C7900  1  0.554767  0.361633  0.960467  1
  C  C7901  1  0.554767  0.598833  0.638367  1
  C  C7902  1  0.554767  0.039533  0.401167  1
  C  C7903  1  0.138800  0.986300  0.721300  1
  C  C7904  1  0.138800  0.735000  0.013700  1
  C  C7905  1  0.138800  0.278700  0.265000  1
  C  C7906  1  0.805467  0.319633  0.387967  1
  C  C7907  1  0.805467  0.068333  0.680367  1
  C  C7908  1  0.805467  0.612033  0.931667  1
  C  C7909  1  0.472133  0.652967  0.054633  1
  C  C7910  1  0.472133  0.401667  0.347033  1
  C  C7911  1  0.472133  0.945367  0.598333  1
  C  C7912  1  0.861200  0.013700  0.278700  1
  C  C7913  1  0.861200  0.265000  0.986300  1
  C  C7914  1  0.861200  0.721300  0.735000  1
  C  C7915  1  0.194533  0.680367  0.612033  1
  C  C7916  1  0.194533  0.931667  0.319633  1
  C  C7917  1  0.194533  0.387967  0.068333  1
  C  C7918  1  0.527867  0.347033  0.945367  1
  C  C7919  1  0.527867  0.598333  0.652967  1
  C  C7920  1  0.527867  0.054633  0.401667  1
  C  C7921  1  0.140800  0.009100  0.726400  1
  C  C7922  1  0.140800  0.717300  0.990900  1
  C  C7923  1  0.140800  0.273600  0.282700  1
  C  C7924  1  0.807467  0.342433  0.393067  1
  C  C7925  1  0.807467  0.050633  0.657567  1
  C  C7926  1  0.807467  0.606933  0.949367  1
  C  C7927  1  0.474133  0.675767  0.059733  1
  C  C7928  1  0.474133  0.383967  0.324233  1
  C  C7929  1  0.474133  0.940267  0.616033  1
  C  C7930  1  0.859200  0.990900  0.273600  1
  C  C7931  1  0.859200  0.282700  0.009100  1
  C  C7932  1  0.859200  0.726400  0.717300  1
  C  C7933  1  0.192533  0.657567  0.606933  1
  C  C7934  1  0.192533  0.949367  0.342433  1
  C  C7935  1  0.192533  0.393067  0.050633  1
  C  C7936  1  0.525867  0.324233  0.940267  1
  C  C7937  1  0.525867  0.616033  0.675767  1
  C  C7938  1  0.525867  0.059733  0.383967  1
  C  C7939  1  0.116100  0.017400  0.716400  1
  C  C7940  1  0.116100  0.699000  0.982600  1
  C  C7941  1  0.116100  0.283600  0.301000  1
  C  C7942  1  0.782767  0.350733  0.383067  1
  C  C7943  1  0.782767  0.032333  0.649267  1
  C  C7944  1  0.782767  0.616933  0.967667  1
  C  C7945  1  0.449433  0.684067  0.049733  1
  C  C7946  1  0.449433  0.365667  0.315933  1
  C  C7947  1  0.449433  0.950267  0.634333  1
  C  C7948  1  0.883900  0.982600  0.283600  1
  C  C7949  1  0.883900  0.301000  0.017400  1
  C  C7950  1  0.883900  0.716400  0.699000  1
  C  C7951  1  0.217233  0.649267  0.616933  1
  C  C7952  1  0.217233  0.967667  0.350733  1
  C  C7953  1  0.217233  0.383067  0.032333  1
  C  C7954  1  0.550567  0.315933  0.950267  1
  C  C7955  1  0.550567  0.634333  0.684067  1
  C  C7956  1  0.550567  0.049733  0.365667  1
  C  C7957  1  0.089200  0.002900  0.701400  1
  C  C7958  1  0.089200  0.698500  0.997100  1
  C  C7959  1  0.089200  0.298600  0.301500  1
  C  C7960  1  0.755867  0.336233  0.368067  1
  C  C7961  1  0.755867  0.031833  0.663767  1
  C  C7962  1  0.755867  0.631933  0.968167  1
  C  C7963  1  0.422533  0.669567  0.034733  1
  C  C7964  1  0.422533  0.365167  0.330433  1
  C  C7965  1  0.422533  0.965267  0.634833  1
  C  C7966  1  0.910800  0.997100  0.298600  1
  C  C7967  1  0.910800  0.301500  0.002900  1
  C  C7968  1  0.910800  0.701400  0.698500  1
  C  C7969  1  0.244133  0.663767  0.631933  1
  C  C7970  1  0.244133  0.968167  0.336233  1
  C  C7971  1  0.244133  0.368067  0.031833  1
  C  C7972  1  0.577467  0.330433  0.965267  1
  C  C7973  1  0.577467  0.634833  0.669567  1
  C  C7974  1  0.577467  0.034733  0.365167  1
  C  C7975  1  0.790200  0.889600  0.603400  1
  C  C7976  1  0.790200  0.713800  0.110400  1
  C  C7977  1  0.790200  0.396600  0.286200  1
  C  C7978  1  0.456867  0.222933  0.270067  1
  C  C7979  1  0.456867  0.047133  0.777067  1
  C  C7980  1  0.456867  0.729933  0.952867  1
  C  C7981  1  0.123533  0.556267  0.936733  1
  C  C7982  1  0.123533  0.380467  0.443733  1
  C  C7983  1  0.123533  0.063267  0.619533  1
  C  C7984  1  0.209800  0.110400  0.396600  1
  C  C7985  1  0.209800  0.286200  0.889600  1
  C  C7986  1  0.209800  0.603400  0.713800  1
  C  C7987  1  0.543133  0.777067  0.729933  1
  C  C7988  1  0.543133  0.952867  0.222933  1
  C  C7989  1  0.543133  0.270067  0.047133  1
  C  C7990  1  0.876467  0.443733  0.063267  1
  C  C7991  1  0.876467  0.619533  0.556267  1
  C  C7992  1  0.876467  0.936733  0.380467  1
  C  C7993  1  0.767600  0.895300  0.589000  1
  C  C7994  1  0.767600  0.693700  0.104700  1
  C  C7995  1  0.767600  0.411000  0.306300  1
  C  C7996  1  0.434267  0.228633  0.255667  1
  C  C7997  1  0.434267  0.027033  0.771367  1
  C  C7998  1  0.434267  0.744333  0.972967  1
  C  C7999  1  0.100933  0.561967  0.922333  1
  C  C8000  1  0.100933  0.360367  0.438033  1
  C  C8001  1  0.100933  0.077667  0.639633  1
  C  C8002  1  0.232400  0.104700  0.411000  1
  C  C8003  1  0.232400  0.306300  0.895300  1
  C  C8004  1  0.232400  0.589000  0.693700  1
  C  C8005  1  0.565733  0.771367  0.744333  1
  C  C8006  1  0.565733  0.972967  0.228633  1
  C  C8007  1  0.565733  0.255667  0.027033  1
  C  C8008  1  0.899067  0.438033  0.077667  1
  C  C8009  1  0.899067  0.639633  0.561967  1
  C  C8010  1  0.899067  0.922333  0.360367  1
  C  C8011  1  0.623500  0.805600  0.708200  1
  C  C8012  1  0.623500  0.902600  0.194400  1
  C  C8013  1  0.623500  0.291800  0.097400  1
  C  C8014  1  0.290167  0.138933  0.374867  1
  C  C8015  1  0.290167  0.235933  0.861067  1
  C  C8016  1  0.290167  0.625133  0.764067  1
  C  C8017  1  0.956833  0.472267  0.041533  1
  C  C8018  1  0.956833  0.569267  0.527733  1
  C  C8019  1  0.956833  0.958467  0.430733  1
  C  C8020  1  0.376500  0.194400  0.291800  1
  C  C8021  1  0.376500  0.097400  0.805600  1
  C  C8022  1  0.376500  0.708200  0.902600  1
  C  C8023  1  0.709833  0.861067  0.625133  1
  C  C8024  1  0.709833  0.764067  0.138933  1
  C  C8025  1  0.709833  0.374867  0.235933  1
  C  C8026  1  0.043167  0.527733  0.958467  1
  C  C8027  1  0.043167  0.430733  0.472267  1
  C  C8028  1  0.043167  0.041533  0.569267  1
  C  C8029  1  0.633500  0.810800  0.690600  1
  C  C8030  1  0.633500  0.879800  0.189200  1
  C  C8031  1  0.633500  0.309400  0.120200  1
  C  C8032  1  0.300167  0.144133  0.357267  1
  C  C8033  1  0.300167  0.213133  0.855867  1
  C  C8034  1  0.300167  0.642733  0.786867  1
  C  C8035  1  0.966833  0.477467  0.023933  1
  C  C8036  1  0.966833  0.546467  0.522533  1
  C  C8037  1  0.966833  0.976067  0.453533  1
  C  C8038  1  0.366500  0.189200  0.309400  1
  C  C8039  1  0.366500  0.120200  0.810800  1
  C  C8040  1  0.366500  0.690600  0.879800  1
  C  C8041  1  0.699833  0.855867  0.642733  1
  C  C8042  1  0.699833  0.786867  0.144133  1
  C  C8043  1  0.699833  0.357267  0.213133  1
  C  C8044  1  0.033167  0.522533  0.976067  1
  C  C8045  1  0.033167  0.453533  0.477467  1
  C  C8046  1  0.033167  0.023933  0.546467  1
  C  C8047  1  0.528600  0.833500  0.620300  1
  C  C8048  1  0.528600  0.786800  0.166500  1
  C  C8049  1  0.528600  0.379700  0.213200  1
  C  C8050  1  0.195267  0.166833  0.286967  1
  C  C8051  1  0.195267  0.120133  0.833167  1
  C  C8052  1  0.195267  0.713033  0.879867  1
  C  C8053  1  0.861933  0.500167  0.953633  1
  C  C8054  1  0.861933  0.453467  0.499833  1
  C  C8055  1  0.861933  0.046367  0.546533  1
  C  C8056  1  0.471400  0.166500  0.379700  1
  C  C8057  1  0.471400  0.213200  0.833500  1
  C  C8058  1  0.471400  0.620300  0.786800  1
  C  C8059  1  0.804733  0.833167  0.713033  1
  C  C8060  1  0.804733  0.879867  0.166833  1
  C  C8061  1  0.804733  0.286967  0.120133  1
  C  C8062  1  0.138067  0.499833  0.046367  1
  C  C8063  1  0.138067  0.546533  0.500167  1
  C  C8064  1  0.138067  0.953633  0.453467  1
  C  C8065  1  0.525800  0.845500  0.644200  1
  C  C8066  1  0.525800  0.798700  0.154500  1
  C  C8067  1  0.525800  0.355800  0.201300  1
  C  C8068  1  0.192467  0.178833  0.310867  1
  C  C8069  1  0.192467  0.132033  0.821167  1
  C  C8070  1  0.192467  0.689133  0.867967  1
  C  C8071  1  0.859133  0.512167  0.977533  1
  C  C8072  1  0.859133  0.465367  0.487833  1
  C  C8073  1  0.859133  0.022467  0.534633  1
  C  C8074  1  0.474200  0.154500  0.355800  1
  C  C8075  1  0.474200  0.201300  0.845500  1
  C  C8076  1  0.474200  0.644200  0.798700  1
  C  C8077  1  0.807533  0.821167  0.689133  1
  C  C8078  1  0.807533  0.867967  0.178833  1
  C  C8079  1  0.807533  0.310867  0.132033  1
  C  C8080  1  0.140867  0.487833  0.022467  1
  C  C8081  1  0.140867  0.534633  0.512167  1
  C  C8082  1  0.140867  0.977533  0.465367  1
  C  C8083  1  0.555300  0.846000  0.657600  1
  C  C8084  1  0.555300  0.811600  0.154000  1
  C  C8085  1  0.555300  0.342400  0.188400  1
  C  C8086  1  0.221967  0.179333  0.324267  1
  C  C8087  1  0.221967  0.144933  0.820667  1
  C  C8088  1  0.221967  0.675733  0.855067  1
  C  C8089  1  0.888633  0.512667  0.990933  1
  C  C8090  1  0.888633  0.478267  0.487333  1
  C  C8091  1  0.888633  0.009067  0.521733  1
  C  C8092  1  0.444700  0.154000  0.342400  1
  C  C8093  1  0.444700  0.188400  0.846000  1
  C  C8094  1  0.444700  0.657600  0.811600  1
  C  C8095  1  0.778033  0.820667  0.675733  1
  C  C8096  1  0.778033  0.855067  0.179333  1
  C  C8097  1  0.778033  0.324267  0.144933  1
  C  C8098  1  0.111367  0.487333  0.009067  1
  C  C8099  1  0.111367  0.521733  0.512667  1
  C  C8100  1  0.111367  0.990933  0.478267  1
  C  C8101  1  0.587700  0.834500  0.647100  1
  C  C8102  1  0.587700  0.812600  0.165500  1
  C  C8103  1  0.587700  0.352900  0.187400  1
  C  C8104  1  0.254367  0.167833  0.313767  1
  C  C8105  1  0.254367  0.145933  0.832167  1
  C  C8106  1  0.254367  0.686233  0.854067  1
  C  C8107  1  0.921033  0.501167  0.980433  1
  C  C8108  1  0.921033  0.479267  0.498833  1
  C  C8109  1  0.921033  0.019567  0.520733  1
  C  C8110  1  0.412300  0.165500  0.352900  1
  C  C8111  1  0.412300  0.187400  0.834500  1
  C  C8112  1  0.412300  0.647100  0.812600  1
  C  C8113  1  0.745633  0.832167  0.686233  1
  C  C8114  1  0.745633  0.854067  0.167833  1
  C  C8115  1  0.745633  0.313767  0.145933  1
  C  C8116  1  0.078967  0.498833  0.019567  1
  C  C8117  1  0.078967  0.520733  0.501167  1
  C  C8118  1  0.078967  0.980433  0.479267  1
  C  C8119  1  0.590600  0.822500  0.623100  1
  C  C8120  1  0.590600  0.800600  0.177500  1
  C  C8121  1  0.590600  0.376900  0.199400  1
  C  C8122  1  0.257267  0.155833  0.289767  1
  C  C8123  1  0.257267  0.133933  0.844167  1
  C  C8124  1  0.257267  0.710233  0.866067  1
  C  C8125  1  0.923933  0.489167  0.956433  1
  C  C8126  1  0.923933  0.467267  0.510833  1
  C  C8127  1  0.923933  0.043567  0.532733  1
  C  C8128  1  0.409400  0.177500  0.376900  1
  C  C8129  1  0.409400  0.199400  0.822500  1
  C  C8130  1  0.409400  0.623100  0.800600  1
  C  C8131  1  0.742733  0.844167  0.710233  1
  C  C8132  1  0.742733  0.866067  0.155833  1
  C  C8133  1  0.742733  0.289767  0.133933  1
  C  C8134  1  0.076067  0.510833  0.043567  1
  C  C8135  1  0.076067  0.532733  0.489167  1
  C  C8136  1  0.076067  0.956433  0.467267  1
  C  C8137  1  0.561000  0.822000  0.609700  1
  C  C8138  1  0.561000  0.787700  0.178000  1
  C  C8139  1  0.561000  0.390300  0.212300  1
  C  C8140  1  0.227667  0.155333  0.276367  1
  C  C8141  1  0.227667  0.121033  0.844667  1
  C  C8142  1  0.227667  0.723633  0.878967  1
  C  C8143  1  0.894333  0.488667  0.943033  1
  C  C8144  1  0.894333  0.454367  0.511333  1
  C  C8145  1  0.894333  0.056967  0.545633  1
  C  C8146  1  0.439000  0.178000  0.390300  1
  C  C8147  1  0.439000  0.212300  0.822000  1
  C  C8148  1  0.439000  0.609700  0.787700  1
  C  C8149  1  0.772333  0.844667  0.723633  1
  C  C8150  1  0.772333  0.878967  0.155333  1
  C  C8151  1  0.772333  0.276367  0.121033  1
  C  C8152  1  0.105667  0.511333  0.056967  1
  C  C8153  1  0.105667  0.545633  0.488667  1
  C  C8154  1  0.105667  0.943033  0.454367  1
  S  S8155  1  0.895900  0.858550  0.663420  1
  S  S8156  1  0.895900  0.804870  0.141450  1
  S  S8157  1  0.895900  0.336580  0.195130  1
  S  S8158  1  0.562567  0.191883  0.330087  1
  S  S8159  1  0.562567  0.138203  0.808117  1
  S  S8160  1  0.562567  0.669913  0.861797  1
  S  S8161  1  0.229233  0.525217  0.996753  1
  S  S8162  1  0.229233  0.471537  0.474783  1
  S  S8163  1  0.229233  0.003247  0.528463  1
  S  S8164  1  0.104100  0.141450  0.336580  1
  S  S8165  1  0.104100  0.195130  0.858550  1
  S  S8166  1  0.104100  0.663420  0.804870  1
  S  S8167  1  0.437433  0.808117  0.669913  1
  S  S8168  1  0.437433  0.861797  0.191883  1
  S  S8169  1  0.437433  0.330087  0.138203  1
  S  S8170  1  0.770767  0.474783  0.003247  1
  S  S8171  1  0.770767  0.528463  0.525217  1
  S  S8172  1  0.770767  0.996753  0.471537  1
  S  S8173  1  0.928300  0.875310  0.707930  1
  S  S8174  1  0.928300  0.832620  0.124690  1
  S  S8175  1  0.928300  0.292070  0.167380  1
  S  S8176  1  0.594967  0.208643  0.374597  1
  S  S8177  1  0.594967  0.165953  0.791357  1
  S  S8178  1  0.594967  0.625403  0.834047  1
  S  S8179  1  0.261633  0.541977  0.041263  1
  S  S8180  1  0.261633  0.499287  0.458023  1
  S  S8181  1  0.261633  0.958737  0.500713  1
  S  S8182  1  0.071700  0.124690  0.292070  1
  S  S8183  1  0.071700  0.167380  0.875310  1
  S  S8184  1  0.071700  0.707930  0.832620  1
  S  S8185  1  0.405033  0.791357  0.625403  1
  S  S8186  1  0.405033  0.834047  0.208643  1
  S  S8187  1  0.405033  0.374597  0.165953  1
  S  S8188  1  0.738367  0.458023  0.958737  1
  S  S8189  1  0.738367  0.500713  0.541977  1
  S  S8190  1  0.738367  0.041263  0.499287  1
  S  S8191  1  0.852300  0.051200  0.769200  1
  S  S8192  1  0.852300  0.718000  0.948800  1
  S  S8193  1  0.852300  0.230800  0.282000  1
  S  S8194  1  0.518967  0.384533  0.435867  1
  S  S8195  1  0.518967  0.051333  0.615467  1
  S  S8196  1  0.518967  0.564133  0.948667  1
  S  S8197  1  0.185633  0.717867  0.102533  1
  S  S8198  1  0.185633  0.384667  0.282133  1
  S  S8199  1  0.185633  0.897467  0.615333  1
  S  S8200  1  0.147700  0.948800  0.230800  1
  S  S8201  1  0.147700  0.282000  0.051200  1
  S  S8202  1  0.147700  0.769200  0.718000  1
  S  S8203  1  0.481033  0.615467  0.564133  1
  S  S8204  1  0.481033  0.948667  0.384533  1
  S  S8205  1  0.481033  0.435867  0.051333  1
  S  S8206  1  0.814367  0.282133  0.897467  1
  S  S8207  1  0.814367  0.615333  0.717867  1
  S  S8208  1  0.814367  0.102533  0.384667  1
  S  S8209  1  0.890600  0.094100  0.801100  1
  S  S8210  1  0.890600  0.707000  0.905900  1
  S  S8211  1  0.890600  0.198900  0.293000  1
  S  S8212  1  0.557267  0.427433  0.467767  1
  S  S8213  1  0.557267  0.040333  0.572567  1
  S  S8214  1  0.557267  0.532233  0.959667  1
  S  S8215  1  0.223933  0.760767  0.134433  1
  S  S8216  1  0.223933  0.373667  0.239233  1
  S  S8217  1  0.223933  0.865567  0.626333  1
  S  S8218  1  0.109400  0.905900  0.198900  1
  S  S8219  1  0.109400  0.293000  0.094100  1
  S  S8220  1  0.109400  0.801100  0.707000  1
  S  S8221  1  0.442733  0.572567  0.532233  1
  S  S8222  1  0.442733  0.959667  0.427433  1
  S  S8223  1  0.442733  0.467767  0.040333  1
  S  S8224  1  0.776067  0.239233  0.865567  1
  S  S8225  1  0.776067  0.626333  0.760767  1
  S  S8226  1  0.776067  0.134433  0.373667  1
  S  S8227  1  0.396000  0.953900  0.831800  1
  S  S8228  1  0.396000  0.877900  0.046100  1
  S  S8229  1  0.396000  0.168200  0.122100  1
  S  S8230  1  0.062667  0.287233  0.498467  1
  S  S8231  1  0.062667  0.211233  0.712767  1
  S  S8232  1  0.062667  0.501533  0.788767  1
  S  S8233  1  0.729333  0.620567  0.165133  1
  S  S8234  1  0.729333  0.544567  0.379433  1
  S  S8235  1  0.729333  0.834867  0.455433  1
  S  S8236  1  0.604000  0.046100  0.168200  1
  S  S8237  1  0.604000  0.122100  0.953900  1
  S  S8238  1  0.604000  0.831800  0.877900  1
  S  S8239  1  0.937333  0.712767  0.501533  1
  S  S8240  1  0.937333  0.788767  0.287233  1
  S  S8241  1  0.937333  0.498467  0.211233  1
  S  S8242  1  0.270667  0.379433  0.834867  1
  S  S8243  1  0.270667  0.455433  0.620567  1
  S  S8244  1  0.270667  0.165133  0.544567  1
  S  S8245  1  0.457900  0.980800  0.859300  1
  S  S8246  1  0.457900  0.878500  0.019200  1
  S  S8247  1  0.457900  0.140700  0.121500  1
  S  S8248  1  0.124567  0.314133  0.525967  1
  S  S8249  1  0.124567  0.211833  0.685867  1
  S  S8250  1  0.124567  0.474033  0.788167  1
  S  S8251  1  0.791233  0.647467  0.192633  1
  S  S8252  1  0.791233  0.545167  0.352533  1
  S  S8253  1  0.791233  0.807367  0.454833  1
  S  S8254  1  0.542100  0.019200  0.140700  1
  S  S8255  1  0.542100  0.121500  0.980800  1
  S  S8256  1  0.542100  0.859300  0.878500  1
  S  S8257  1  0.875433  0.685867  0.474033  1
  S  S8258  1  0.875433  0.788167  0.314133  1
  S  S8259  1  0.875433  0.525967  0.211833  1
  S  S8260  1  0.208767  0.352533  0.807367  1
  S  S8261  1  0.208767  0.454833  0.647467  1
  S  S8262  1  0.208767  0.192633  0.545167  1
  N  N8263  1  0.970900  0.963900  0.776100  1
  N  N8264  1  0.970900  0.812200  0.036100  1
  N  N8265  1  0.970900  0.223900  0.187800  1
  N  N8266  1  0.637567  0.297233  0.442767  1
  N  N8267  1  0.637567  0.145533  0.702767  1
  N  N8268  1  0.637567  0.557233  0.854467  1
  N  N8269  1  0.304233  0.630567  0.109433  1
  N  N8270  1  0.304233  0.478867  0.369433  1
  N  N8271  1  0.304233  0.890567  0.521133  1
  N  N8272  1  0.029100  0.036100  0.223900  1
  N  N8273  1  0.029100  0.187800  0.963900  1
  N  N8274  1  0.029100  0.776100  0.812200  1
  N  N8275  1  0.362433  0.702767  0.557233  1
  N  N8276  1  0.362433  0.854467  0.297233  1
  N  N8277  1  0.362433  0.442767  0.145533  1
  N  N8278  1  0.695767  0.369433  0.890567  1
  N  N8279  1  0.695767  0.521133  0.630567  1
  N  N8280  1  0.695767  0.109433  0.478867  1
  N  N8281  1  0.600900  0.886400  0.825700  1
  N  N8282  1  0.600900  0.939300  0.113600  1
  N  N8283  1  0.600900  0.174300  0.060700  1
  N  N8284  1  0.267567  0.219733  0.492367  1
  N  N8285  1  0.267567  0.272633  0.780267  1
  N  N8286  1  0.267567  0.507633  0.727367  1
  N  N8287  1  0.934233  0.553067  0.159033  1
  N  N8288  1  0.934233  0.605967  0.446933  1
  N  N8289  1  0.934233  0.840967  0.394033  1
  N  N8290  1  0.399100  0.113600  0.174300  1
  N  N8291  1  0.399100  0.060700  0.886400  1
  N  N8292  1  0.399100  0.825700  0.939300  1
  N  N8293  1  0.732433  0.780267  0.507633  1
  N  N8294  1  0.732433  0.727367  0.219733  1
  N  N8295  1  0.732433  0.492367  0.272633  1
  N  N8296  1  0.065767  0.446933  0.840967  1
  N  N8297  1  0.065767  0.394033  0.553067  1
  N  N8298  1  0.065767  0.159033  0.605967  1
  N  N8299  1  0.936400  0.995000  0.762600  1
  N  N8300  1  0.936400  0.767600  0.005000  1
  N  N8301  1  0.936400  0.237400  0.232400  1
  N  N8302  1  0.603067  0.328333  0.429267  1
  N  N8303  1  0.603067  0.100933  0.671667  1
  N  N8304  1  0.603067  0.570733  0.899067  1
  N  N8305  1  0.269733  0.661667  0.095933  1
  N  N8306  1  0.269733  0.434267  0.338333  1
  N  N8307  1  0.269733  0.904067  0.565733  1
  N  N8308  1  0.063600  0.005000  0.237400  1
  N  N8309  1  0.063600  0.232400  0.995000  1
  N  N8310  1  0.063600  0.762600  0.767600  1
  N  N8311  1  0.396933  0.671667  0.570733  1
  N  N8312  1  0.396933  0.899067  0.328333  1
  N  N8313  1  0.396933  0.429267  0.100933  1
  N  N8314  1  0.730267  0.338333  0.904067  1
  N  N8315  1  0.730267  0.565733  0.661667  1
  N  N8316  1  0.730267  0.095933  0.434267  1
  N  N8317  1  0.593400  0.900290  0.784590  1
  N  N8318  1  0.593400  0.884300  0.099710  1
  N  N8319  1  0.593400  0.215410  0.115700  1
  N  N8320  1  0.260067  0.233623  0.451257  1
  N  N8321  1  0.260067  0.217633  0.766377  1
  N  N8322  1  0.260067  0.548743  0.782367  1
  N  N8323  1  0.926733  0.566957  0.117923  1
  N  N8324  1  0.926733  0.550967  0.433043  1
  N  N8325  1  0.926733  0.882077  0.449033  1
  N  N8326  1  0.406600  0.099710  0.215410  1
  N  N8327  1  0.406600  0.115700  0.900290  1
  N  N8328  1  0.406600  0.784590  0.884300  1
  N  N8329  1  0.739933  0.766377  0.548743  1
  N  N8330  1  0.739933  0.782367  0.233623  1
  N  N8331  1  0.739933  0.451257  0.217633  1
  N  N8332  1  0.073267  0.433043  0.882077  1
  N  N8333  1  0.073267  0.449033  0.566957  1
  N  N8334  1  0.073267  0.117923  0.550967  1
  N  N8335  1  0.697400  0.943530  0.719430  1
  N  N8336  1  0.697400  0.775900  0.056470  1
  N  N8337  1  0.697400  0.280570  0.224100  1
  N  N8338  1  0.364067  0.276863  0.386097  1
  N  N8339  1  0.364067  0.109233  0.723137  1
  N  N8340  1  0.364067  0.613903  0.890767  1
  N  N8341  1  0.030733  0.610197  0.052763  1
  N  N8342  1  0.030733  0.442567  0.389803  1
  N  N8343  1  0.030733  0.947237  0.557433  1
  N  N8344  1  0.302600  0.056470  0.280570  1
  N  N8345  1  0.302600  0.224100  0.943530  1
  N  N8346  1  0.302600  0.719430  0.775900  1
  N  N8347  1  0.635933  0.723137  0.613903  1
  N  N8348  1  0.635933  0.890767  0.276863  1
  N  N8349  1  0.635933  0.386097  0.109233  1
  N  N8350  1  0.969267  0.389803  0.947237  1
  N  N8351  1  0.969267  0.557433  0.610197  1
  N  N8352  1  0.969267  0.052763  0.442567  1
  N  N8353  1  0.677900  0.969800  0.688900  1
  N  N8354  1  0.677900  0.719100  0.030200  1
  N  N8355  1  0.677900  0.311100  0.280900  1
  N  N8356  1  0.344567  0.303133  0.355567  1
  N  N8357  1  0.344567  0.052433  0.696867  1
  N  N8358  1  0.344567  0.644433  0.947567  1
  N  N8359  1  0.011233  0.636467  0.022233  1
  N  N8360  1  0.011233  0.385767  0.363533  1
  N  N8361  1  0.011233  0.977767  0.614233  1
  N  N8362  1  0.322100  0.030200  0.311100  1
  N  N8363  1  0.322100  0.280900  0.969800  1
  N  N8364  1  0.322100  0.688900  0.719100  1
  N  N8365  1  0.655433  0.696867  0.644433  1
  N  N8366  1  0.655433  0.947567  0.303133  1
  N  N8367  1  0.655433  0.355567  0.052433  1
  N  N8368  1  0.988767  0.363533  0.977767  1
  N  N8369  1  0.988767  0.614233  0.636467  1
  N  N8370  1  0.988767  0.022233  0.385767  1
  N  N8371  1  0.713600  0.931130  0.648750  1
  N  N8372  1  0.713600  0.717620  0.068870  1
  N  N8373  1  0.713600  0.351250  0.282380  1
  N  N8374  1  0.380267  0.264463  0.315417  1
  N  N8375  1  0.380267  0.050953  0.735537  1
  N  N8376  1  0.380267  0.684583  0.949047  1
  N  N8377  1  0.046933  0.597797  0.982083  1
  N  N8378  1  0.046933  0.384287  0.402203  1
  N  N8379  1  0.046933  0.017917  0.615713  1
  N  N8380  1  0.286400  0.068870  0.351250  1
  N  N8381  1  0.286400  0.282380  0.931130  1
  N  N8382  1  0.286400  0.648750  0.717620  1
  N  N8383  1  0.619733  0.735537  0.684583  1
  N  N8384  1  0.619733  0.949047  0.264463  1
  N  N8385  1  0.619733  0.315417  0.050953  1
  N  N8386  1  0.953067  0.402203  0.017917  1
  N  N8387  1  0.953067  0.615713  0.597797  1
  N  N8388  1  0.953067  0.982083  0.384287  1
  N  N8389  1  0.034000  0.010000  0.760600  1
  N  N8390  1  0.034000  0.750600  0.990000  1
  N  N8391  1  0.034000  0.239400  0.249400  1
  N  N8392  1  0.700667  0.343333  0.427267  1
  N  N8393  1  0.700667  0.083933  0.656667  1
  N  N8394  1  0.700667  0.572733  0.916067  1
  N  N8395  1  0.367333  0.676667  0.093933  1
  N  N8396  1  0.367333  0.417267  0.323333  1
  N  N8397  1  0.367333  0.906067  0.582733  1
  N  N8398  1  0.966000  0.990000  0.239400  1
  N  N8399  1  0.966000  0.249400  0.010000  1
  N  N8400  1  0.966000  0.760600  0.750600  1
  N  N8401  1  0.299333  0.656667  0.572733  1
  N  N8402  1  0.299333  0.916067  0.343333  1
  N  N8403  1  0.299333  0.427267  0.083933  1
  N  N8404  1  0.632667  0.323333  0.906067  1
  N  N8405  1  0.632667  0.582733  0.676667  1
  N  N8406  1  0.632667  0.093933  0.417267  1
  N  N8407  1  0.591100  0.837200  0.788930  1
  N  N8408  1  0.591100  0.951730  0.162800  1
  N  N8409  1  0.591100  0.211070  0.048270  1
  N  N8410  1  0.257767  0.170533  0.455597  1
  N  N8411  1  0.257767  0.285063  0.829467  1
  N  N8412  1  0.257767  0.544403  0.714937  1
  N  N8413  1  0.924433  0.503867  0.122263  1
  N  N8414  1  0.924433  0.618397  0.496133  1
  N  N8415  1  0.924433  0.877737  0.381603  1
  N  N8416  1  0.408900  0.162800  0.211070  1
  N  N8417  1  0.408900  0.048270  0.837200  1
  N  N8418  1  0.408900  0.788930  0.951730  1
  N  N8419  1  0.742233  0.829467  0.544403  1
  N  N8420  1  0.742233  0.714937  0.170533  1
  N  N8421  1  0.742233  0.455597  0.285063  1
  N  N8422  1  0.075567  0.496133  0.877737  1
  N  N8423  1  0.075567  0.381603  0.503867  1
  N  N8424  1  0.075567  0.122263  0.618397  1
  N  N8425  1  0.002600  0.960630  0.738130  1
  N  N8426  1  0.002600  0.777500  0.039370  1
  N  N8427  1  0.002600  0.261870  0.222500  1
  N  N8428  1  0.669267  0.293963  0.404797  1
  N  N8429  1  0.669267  0.110833  0.706037  1
  N  N8430  1  0.669267  0.595203  0.889167  1
  N  N8431  1  0.335933  0.627297  0.071463  1
  N  N8432  1  0.335933  0.444167  0.372703  1
  N  N8433  1  0.335933  0.928537  0.555833  1
  N  N8434  1  0.997400  0.039370  0.261870  1
  N  N8435  1  0.997400  0.222500  0.960630  1
  N  N8436  1  0.997400  0.738130  0.777500  1
  N  N8437  1  0.330733  0.706037  0.595203  1
  N  N8438  1  0.330733  0.889167  0.293963  1
  N  N8439  1  0.330733  0.404797  0.110833  1
  N  N8440  1  0.664067  0.372703  0.928537  1
  N  N8441  1  0.664067  0.555833  0.627297  1
  N  N8442  1  0.664067  0.071463  0.444167  1
  N  N8443  1  0.535200  0.881650  0.807060  1
  N  N8444  1  0.535200  0.925410  0.118350  1
  N  N8445  1  0.535200  0.192940  0.074590  1
  N  N8446  1  0.201867  0.214983  0.473727  1
  N  N8447  1  0.201867  0.258743  0.785017  1
  N  N8448  1  0.201867  0.526273  0.741257  1
  N  N8449  1  0.868533  0.548317  0.140393  1
  N  N8450  1  0.868533  0.592077  0.451683  1
  N  N8451  1  0.868533  0.859607  0.407923  1
  N  N8452  1  0.464800  0.118350  0.192940  1
  N  N8453  1  0.464800  0.074590  0.881650  1
  N  N8454  1  0.464800  0.807060  0.925410  1
  N  N8455  1  0.798133  0.785017  0.526273  1
  N  N8456  1  0.798133  0.741257  0.214983  1
  N  N8457  1  0.798133  0.473727  0.258743  1
  N  N8458  1  0.131467  0.451683  0.859607  1
  N  N8459  1  0.131467  0.407923  0.548317  1
  N  N8460  1  0.131467  0.140393  0.592077  1
  N  N8461  1  0.980800  0.022750  0.798760  1
  N  N8462  1  0.980800  0.776010  0.977250  1
  N  N8463  1  0.980800  0.201240  0.223990  1
  N  N8464  1  0.647467  0.356083  0.465427  1
  N  N8465  1  0.647467  0.109343  0.643917  1
  N  N8466  1  0.647467  0.534573  0.890657  1
  N  N8467  1  0.314133  0.689417  0.132093  1
  N  N8468  1  0.314133  0.442677  0.310583  1
  N  N8469  1  0.314133  0.867907  0.557323  1
  N  N8470  1  0.019200  0.977250  0.201240  1
  N  N8471  1  0.019200  0.223990  0.022750  1
  N  N8472  1  0.019200  0.798760  0.776010  1
  N  N8473  1  0.352533  0.643917  0.534573  1
  N  N8474  1  0.352533  0.890657  0.356083  1
  N  N8475  1  0.352533  0.465427  0.109343  1
  N  N8476  1  0.685867  0.310583  0.867907  1
  N  N8477  1  0.685867  0.557323  0.689417  1
  N  N8478  1  0.685867  0.132093  0.442677  1
  N  N8479  1  0.564630  0.858940  0.756980  1
  N  N8480  1  0.564630  0.898040  0.141060  1
  N  N8481  1  0.564630  0.243020  0.101960  1
  N  N8482  1  0.231297  0.192273  0.423647  1
  N  N8483  1  0.231297  0.231373  0.807727  1
  N  N8484  1  0.231297  0.576353  0.768627  1
  N  N8485  1  0.897963  0.525607  0.090313  1
  N  N8486  1  0.897963  0.564707  0.474393  1
  N  N8487  1  0.897963  0.909687  0.435293  1
  N  N8488  1  0.435370  0.141060  0.243020  1
  N  N8489  1  0.435370  0.101960  0.858940  1
  N  N8490  1  0.435370  0.756980  0.898040  1
  N  N8491  1  0.768703  0.807727  0.576353  1
  N  N8492  1  0.768703  0.768627  0.192273  1
  N  N8493  1  0.768703  0.423647  0.231373  1
  N  N8494  1  0.102037  0.474393  0.909687  1
  N  N8495  1  0.102037  0.435293  0.525607  1
  N  N8496  1  0.102037  0.090313  0.564707  1
  N  N8497  1  0.744720  0.915370  0.686580  1
  N  N8498  1  0.744720  0.771210  0.084630  1
  N  N8499  1  0.744720  0.313420  0.228790  1
  N  N8500  1  0.411387  0.248703  0.353247  1
  N  N8501  1  0.411387  0.104543  0.751297  1
  N  N8502  1  0.411387  0.646753  0.895457  1
  N  N8503  1  0.078053  0.582037  0.019913  1
  N  N8504  1  0.078053  0.437877  0.417963  1
  N  N8505  1  0.078053  0.980087  0.562123  1
  N  N8506  1  0.255280  0.084630  0.313420  1
  N  N8507  1  0.255280  0.228790  0.915370  1
  N  N8508  1  0.255280  0.686580  0.771210  1
  N  N8509  1  0.588613  0.751297  0.646753  1
  N  N8510  1  0.588613  0.895457  0.248703  1
  N  N8511  1  0.588613  0.353247  0.104543  1
  N  N8512  1  0.921947  0.417963  0.980087  1
  N  N8513  1  0.921947  0.562123  0.582037  1
  N  N8514  1  0.921947  0.019913  0.437877  1
  N  N8515  1  0.258240  0.915500  0.771410  1
  N  N8516  1  0.258240  0.855910  0.084500  1
  N  N8517  1  0.258240  0.228590  0.144090  1
  N  N8518  1  0.924907  0.248833  0.438077  1
  N  N8519  1  0.924907  0.189243  0.751167  1
  N  N8520  1  0.924907  0.561923  0.810757  1
  N  N8521  1  0.591573  0.582167  0.104743  1
  N  N8522  1  0.591573  0.522577  0.417833  1
  N  N8523  1  0.591573  0.895257  0.477423  1
  N  N8524  1  0.741760  0.084500  0.228590  1
  N  N8525  1  0.741760  0.144090  0.915500  1
  N  N8526  1  0.741760  0.771410  0.855910  1
  N  N8527  1  0.075093  0.751167  0.561923  1
  N  N8528  1  0.075093  0.810757  0.248833  1
  N  N8529  1  0.075093  0.438077  0.189243  1
  N  N8530  1  0.408427  0.417833  0.895257  1
  N  N8531  1  0.408427  0.477423  0.582167  1
  N  N8532  1  0.408427  0.104743  0.522577  1
  N  N8533  1  0.324800  0.893980  0.762910  1
  N  N8534  1  0.324800  0.868930  0.106020  1
  N  N8535  1  0.324800  0.237090  0.131070  1
  N  N8536  1  0.991467  0.227313  0.429577  1
  N  N8537  1  0.991467  0.202263  0.772687  1
  N  N8538  1  0.991467  0.570423  0.797737  1
  N  N8539  1  0.658133  0.560647  0.096243  1
  N  N8540  1  0.658133  0.535597  0.439353  1
  N  N8541  1  0.658133  0.903757  0.464403  1
  N  N8542  1  0.675200  0.106020  0.237090  1
  N  N8543  1  0.675200  0.131070  0.893980  1
  N  N8544  1  0.675200  0.762910  0.868930  1
  N  N8545  1  0.008533  0.772687  0.570423  1
  N  N8546  1  0.008533  0.797737  0.227313  1
  N  N8547  1  0.008533  0.429577  0.202263  1
  N  N8548  1  0.341867  0.439353  0.903757  1
  N  N8549  1  0.341867  0.464403  0.560647  1
  N  N8550  1  0.341867  0.096243  0.535597  1
  N  N8551  1  0.749830  0.967580  0.699530  1
  N  N8552  1  0.749830  0.731950  0.032420  1
  N  N8553  1  0.749830  0.300470  0.268050  1
  N  N8554  1  0.416497  0.300913  0.366197  1
  N  N8555  1  0.416497  0.065283  0.699087  1
  N  N8556  1  0.416497  0.633803  0.934717  1
  N  N8557  1  0.083163  0.634247  0.032863  1
  N  N8558  1  0.083163  0.398617  0.365753  1
  N  N8559  1  0.083163  0.967137  0.601383  1
  N  N8560  1  0.250170  0.032420  0.300470  1
  N  N8561  1  0.250170  0.268050  0.967580  1
  N  N8562  1  0.250170  0.699530  0.731950  1
  N  N8563  1  0.583503  0.699087  0.633803  1
  N  N8564  1  0.583503  0.934717  0.300913  1
  N  N8565  1  0.583503  0.366197  0.065283  1
  N  N8566  1  0.916837  0.365753  0.967137  1
  N  N8567  1  0.916837  0.601383  0.634247  1
  N  N8568  1  0.916837  0.032863  0.398617  1
  N  N8569  1  0.284520  0.843070  0.726520  1
  N  N8570  1  0.284520  0.883450  0.156930  1
  N  N8571  1  0.284520  0.273480  0.116550  1
  N  N8572  1  0.951187  0.176403  0.393187  1
  N  N8573  1  0.951187  0.216783  0.823597  1
  N  N8574  1  0.951187  0.606813  0.783217  1
  N  N8575  1  0.617853  0.509737  0.059853  1
  N  N8576  1  0.617853  0.550117  0.490263  1
  N  N8577  1  0.617853  0.940147  0.449883  1
  N  N8578  1  0.715480  0.156930  0.273480  1
  N  N8579  1  0.715480  0.116550  0.843070  1
  N  N8580  1  0.715480  0.726520  0.883450  1
  N  N8581  1  0.048813  0.823597  0.606813  1
  N  N8582  1  0.048813  0.783217  0.176403  1
  N  N8583  1  0.048813  0.393187  0.216783  1
  N  N8584  1  0.382147  0.490263  0.940147  1
  N  N8585  1  0.382147  0.449883  0.509737  1
  N  N8586  1  0.382147  0.059853  0.550117  1
  N  N8587  1  0.306620  0.876580  0.717250  1
  N  N8588  1  0.306620  0.840670  0.123420  1
  N  N8589  1  0.306620  0.282750  0.159330  1
  N  N8590  1  0.973287  0.209913  0.383917  1
  N  N8591  1  0.973287  0.174003  0.790087  1
  N  N8592  1  0.973287  0.616083  0.825997  1
  N  N8593  1  0.639953  0.543247  0.050583  1
  N  N8594  1  0.639953  0.507337  0.456753  1
  N  N8595  1  0.639953  0.949417  0.492663  1
  N  N8596  1  0.693380  0.123420  0.282750  1
  N  N8597  1  0.693380  0.159330  0.876580  1
  N  N8598  1  0.693380  0.717250  0.840670  1
  N  N8599  1  0.026713  0.790087  0.616083  1
  N  N8600  1  0.026713  0.825997  0.209913  1
  N  N8601  1  0.026713  0.383917  0.174003  1
  N  N8602  1  0.360047  0.456753  0.949417  1
  N  N8603  1  0.360047  0.492663  0.543247  1
  N  N8604  1  0.360047  0.050583  0.507337  1
  N  N8605  1  0.664530  0.917130  0.669000  1
  N  N8606  1  0.664530  0.751870  0.082870  1
  N  N8607  1  0.664530  0.331000  0.248130  1
  N  N8608  1  0.331197  0.250463  0.335667  1
  N  N8609  1  0.331197  0.085203  0.749537  1
  N  N8610  1  0.331197  0.664333  0.914797  1
  N  N8611  1  0.997863  0.583797  0.002333  1
  N  N8612  1  0.997863  0.418537  0.416203  1
  N  N8613  1  0.997863  0.997667  0.581463  1
  N  N8614  1  0.335470  0.082870  0.331000  1
  N  N8615  1  0.335470  0.248130  0.917130  1
  N  N8616  1  0.335470  0.669000  0.751870  1
  N  N8617  1  0.668803  0.749537  0.664333  1
  N  N8618  1  0.668803  0.914797  0.250463  1
  N  N8619  1  0.668803  0.335667  0.085203  1
  N  N8620  1  0.002137  0.416203  0.997667  1
  N  N8621  1  0.002137  0.581463  0.583797  1
  N  N8622  1  0.002137  0.002333  0.418537  1
  N  N8623  1  0.047560  0.984640  0.782350  1
  N  N8624  1  0.047560  0.797710  0.015360  1
  N  N8625  1  0.047560  0.217650  0.202290  1
  N  N8626  1  0.714227  0.317973  0.449017  1
  N  N8627  1  0.714227  0.131043  0.682027  1
  N  N8628  1  0.714227  0.550983  0.868957  1
  N  N8629  1  0.380893  0.651307  0.115683  1
  N  N8630  1  0.380893  0.464377  0.348693  1
  N  N8631  1  0.380893  0.884317  0.535623  1
  N  N8632  1  0.952440  0.015360  0.217650  1
  N  N8633  1  0.952440  0.202290  0.984640  1
  N  N8634  1  0.952440  0.782350  0.797710  1
  N  N8635  1  0.285773  0.682027  0.550983  1
  N  N8636  1  0.285773  0.868957  0.317973  1
  N  N8637  1  0.285773  0.449017  0.131043  1
  N  N8638  1  0.619107  0.348693  0.884317  1
  N  N8639  1  0.619107  0.535623  0.651307  1
  N  N8640  1  0.619107  0.115683  0.464377  1
  N  N8641  1  0.641850  0.858980  0.777200  1
  N  N8642  1  0.641850  0.918220  0.141020  1
  N  N8643  1  0.641850  0.222800  0.081780  1
  N  N8644  1  0.308517  0.192313  0.443867  1
  N  N8645  1  0.308517  0.251553  0.807687  1
  N  N8646  1  0.308517  0.556133  0.748447  1
  N  N8647  1  0.975183  0.525647  0.110533  1
  N  N8648  1  0.975183  0.584887  0.474353  1
  N  N8649  1  0.975183  0.889467  0.415113  1
  N  N8650  1  0.358150  0.141020  0.222800  1
  N  N8651  1  0.358150  0.081780  0.858980  1
  N  N8652  1  0.358150  0.777200  0.918220  1
  N  N8653  1  0.691483  0.807687  0.556133  1
  N  N8654  1  0.691483  0.748447  0.192313  1
  N  N8655  1  0.691483  0.443867  0.251553  1
  N  N8656  1  0.024817  0.474353  0.889467  1
  N  N8657  1  0.024817  0.415113  0.525647  1
  N  N8658  1  0.024817  0.110533  0.584887  1
  N  N8659  1  0.222600  0.873100  0.727800  1
  N  N8660  1  0.222600  0.854700  0.126900  1
  N  N8661  1  0.222600  0.272200  0.145300  1
  N  N8662  1  0.889267  0.206433  0.394467  1
  N  N8663  1  0.889267  0.188033  0.793567  1
  N  N8664  1  0.889267  0.605533  0.811967  1
  N  N8665  1  0.555933  0.539767  0.061133  1
  N  N8666  1  0.555933  0.521367  0.460233  1
  N  N8667  1  0.555933  0.938867  0.478633  1
  N  N8668  1  0.777400  0.126900  0.272200  1
  N  N8669  1  0.777400  0.145300  0.873100  1
  N  N8670  1  0.777400  0.727800  0.854700  1
  N  N8671  1  0.110733  0.793567  0.605533  1
  N  N8672  1  0.110733  0.811967  0.206433  1
  N  N8673  1  0.110733  0.394467  0.188033  1
  N  N8674  1  0.444067  0.460233  0.938867  1
  N  N8675  1  0.444067  0.478633  0.539767  1
  N  N8676  1  0.444067  0.061133  0.521367  1
  N  N8677  1  0.228600  0.874600  0.769200  1
  N  N8678  1  0.228600  0.894600  0.125400  1
  N  N8679  1  0.228600  0.230800  0.105400  1
  N  N8680  1  0.895267  0.207933  0.435867  1
  N  N8681  1  0.895267  0.227933  0.792067  1
  N  N8682  1  0.895267  0.564133  0.772067  1
  N  N8683  1  0.561933  0.541267  0.102533  1
  N  N8684  1  0.561933  0.561267  0.458733  1
  N  N8685  1  0.561933  0.897467  0.438733  1
  N  N8686  1  0.771400  0.125400  0.230800  1
  N  N8687  1  0.771400  0.105400  0.874600  1
  N  N8688  1  0.771400  0.769200  0.894600  1
  N  N8689  1  0.104733  0.792067  0.564133  1
  N  N8690  1  0.104733  0.772067  0.207933  1
  N  N8691  1  0.104733  0.435867  0.227933  1
  N  N8692  1  0.438067  0.458733  0.897467  1
  N  N8693  1  0.438067  0.438733  0.541267  1
  N  N8694  1  0.438067  0.102533  0.561267  1
  N  N8695  1  0.895500  0.875000  0.690700  1
  N  N8696  1  0.895500  0.815700  0.125000  1
  N  N8697  1  0.895500  0.309300  0.184300  1
  N  N8698  1  0.562167  0.208333  0.357367  1
  N  N8699  1  0.562167  0.149033  0.791667  1
  N  N8700  1  0.562167  0.642633  0.850967  1
  N  N8701  1  0.228833  0.541667  0.024033  1
  N  N8702  1  0.228833  0.482367  0.458333  1
  N  N8703  1  0.228833  0.975967  0.517633  1
  N  N8704  1  0.104500  0.125000  0.309300  1
  N  N8705  1  0.104500  0.184300  0.875000  1
  N  N8706  1  0.104500  0.690700  0.815700  1
  N  N8707  1  0.437833  0.791667  0.642633  1
  N  N8708  1  0.437833  0.850967  0.208333  1
  N  N8709  1  0.437833  0.357367  0.149033  1
  N  N8710  1  0.771167  0.458333  0.975967  1
  N  N8711  1  0.771167  0.517633  0.541667  1
  N  N8712  1  0.771167  0.024033  0.482367  1
  N  N8713  1  0.885700  0.065900  0.786600  1
  N  N8714  1  0.885700  0.720700  0.934100  1
  N  N8715  1  0.885700  0.213400  0.279300  1
  N  N8716  1  0.552367  0.399233  0.453267  1
  N  N8717  1  0.552367  0.054033  0.600767  1
  N  N8718  1  0.552367  0.546733  0.945967  1
  N  N8719  1  0.219033  0.732567  0.119933  1
  N  N8720  1  0.219033  0.387367  0.267433  1
  N  N8721  1  0.219033  0.880067  0.612633  1
  N  N8722  1  0.114300  0.934100  0.213400  1
  N  N8723  1  0.114300  0.279300  0.065900  1
  N  N8724  1  0.114300  0.786600  0.720700  1
  N  N8725  1  0.447633  0.600767  0.546733  1
  N  N8726  1  0.447633  0.945967  0.399233  1
  N  N8727  1  0.447633  0.453267  0.054033  1
  N  N8728  1  0.780967  0.267433  0.880067  1
  N  N8729  1  0.780967  0.612633  0.732567  1
  N  N8730  1  0.780967  0.119933  0.387367  1
  N  N8731  1  0.438200  0.957000  0.840600  1
  N  N8732  1  0.438200  0.883600  0.043000  1
  N  N8733  1  0.438200  0.159400  0.116400  1
  N  N8734  1  0.104867  0.290333  0.507267  1
  N  N8735  1  0.104867  0.216933  0.709667  1
  N  N8736  1  0.104867  0.492733  0.783067  1
  N  N8737  1  0.771533  0.623667  0.173933  1
  N  N8738  1  0.771533  0.550267  0.376333  1
  N  N8739  1  0.771533  0.826067  0.449733  1
  N  N8740  1  0.561800  0.043000  0.159400  1
  N  N8741  1  0.561800  0.116400  0.957000  1
  N  N8742  1  0.561800  0.840600  0.883600  1
  N  N8743  1  0.895133  0.709667  0.492733  1
  N  N8744  1  0.895133  0.783067  0.290333  1
  N  N8745  1  0.895133  0.507267  0.216933  1
  N  N8746  1  0.228467  0.376333  0.826067  1
  N  N8747  1  0.228467  0.449733  0.623667  1
  N  N8748  1  0.228467  0.173933  0.550267  1
  N  N8749  1  0.807100  0.885600  0.615200  1
  N  N8750  1  0.807100  0.729600  0.114400  1
  N  N8751  1  0.807100  0.384800  0.270400  1
  N  N8752  1  0.473767  0.218933  0.281867  1
  N  N8753  1  0.473767  0.062933  0.781067  1
  N  N8754  1  0.473767  0.718133  0.937067  1
  N  N8755  1  0.140433  0.552267  0.948533  1
  N  N8756  1  0.140433  0.396267  0.447733  1
  N  N8757  1  0.140433  0.051467  0.603733  1
  N  N8758  1  0.192900  0.114400  0.384800  1
  N  N8759  1  0.192900  0.270400  0.885600  1
  N  N8760  1  0.192900  0.615200  0.729600  1
  N  N8761  1  0.526233  0.781067  0.718133  1
  N  N8762  1  0.526233  0.937067  0.218933  1
  N  N8763  1  0.526233  0.281867  0.062933  1
  N  N8764  1  0.859567  0.447733  0.051467  1
  N  N8765  1  0.859567  0.603733  0.552267  1
  N  N8766  1  0.859567  0.948533  0.396267  1
  N  N8767  1  0.618800  0.801100  0.722400  1
  N  N8768  1  0.618800  0.921300  0.198900  1
  N  N8769  1  0.618800  0.277600  0.078700  1
  N  N8770  1  0.285467  0.134433  0.389067  1
  N  N8771  1  0.285467  0.254633  0.865567  1
  N  N8772  1  0.285467  0.610933  0.745367  1
  N  N8773  1  0.952133  0.467767  0.055733  1
  N  N8774  1  0.952133  0.587967  0.532233  1
  N  N8775  1  0.952133  0.944267  0.412033  1
  N  N8776  1  0.381200  0.198900  0.277600  1
  N  N8777  1  0.381200  0.078700  0.801100  1
  N  N8778  1  0.381200  0.722400  0.921300  1
  N  N8779  1  0.714533  0.865567  0.610933  1
  N  N8780  1  0.714533  0.745367  0.134433  1
  N  N8781  1  0.714533  0.389067  0.254633  1
  N  N8782  1  0.047867  0.532233  0.944267  1
  N  N8783  1  0.047867  0.412033  0.467767  1
  N  N8784  1  0.047867  0.055733  0.587967  1
  O  O8785  1  0.925800  0.841600  0.656200  1
  O  O8786  1  0.925800  0.814600  0.158400  1
  O  O8787  1  0.925800  0.343800  0.185400  1
  O  O8788  1  0.592467  0.174933  0.322867  1
  O  O8789  1  0.592467  0.147933  0.825067  1
  O  O8790  1  0.592467  0.677133  0.852067  1
  O  O8791  1  0.259133  0.508267  0.989533  1
  O  O8792  1  0.259133  0.481267  0.491733  1
  O  O8793  1  0.259133  0.010467  0.518733  1
  O  O8794  1  0.074200  0.158400  0.343800  1
  O  O8795  1  0.074200  0.185400  0.841600  1
  O  O8796  1  0.074200  0.656200  0.814600  1
  O  O8797  1  0.407533  0.825067  0.677133  1
  O  O8798  1  0.407533  0.852067  0.174933  1
  O  O8799  1  0.407533  0.322867  0.147933  1
  O  O8800  1  0.740867  0.491733  0.010467  1
  O  O8801  1  0.740867  0.518733  0.508267  1
  O  O8802  1  0.740867  0.989533  0.481267  1
  O  O8803  1  0.860500  0.849900  0.653900  1
  O  O8804  1  0.860500  0.804000  0.150100  1
  O  O8805  1  0.860500  0.346100  0.196000  1
  O  O8806  1  0.527167  0.183233  0.320567  1
  O  O8807  1  0.527167  0.137333  0.816767  1
  O  O8808  1  0.527167  0.679433  0.862667  1
  O  O8809  1  0.193833  0.516567  0.987233  1
  O  O8810  1  0.193833  0.470667  0.483433  1
  O  O8811  1  0.193833  0.012767  0.529333  1
  O  O8812  1  0.139500  0.150100  0.346100  1
  O  O8813  1  0.139500  0.196000  0.849900  1
  O  O8814  1  0.139500  0.653900  0.804000  1
  O  O8815  1  0.472833  0.816767  0.679433  1
  O  O8816  1  0.472833  0.862667  0.183233  1
  O  O8817  1  0.472833  0.320567  0.137333  1
  O  O8818  1  0.806167  0.483433  0.012767  1
  O  O8819  1  0.806167  0.529333  0.516567  1
  O  O8820  1  0.806167  0.987233  0.470667  1
  O  O8821  1  0.962800  0.866700  0.695200  1
  O  O8822  1  0.962800  0.828500  0.133300  1
  O  O8823  1  0.962800  0.304800  0.171500  1
  O  O8824  1  0.629467  0.200033  0.361867  1
  O  O8825  1  0.629467  0.161833  0.799967  1
  O  O8826  1  0.629467  0.638133  0.838167  1
  O  O8827  1  0.296133  0.533367  0.028533  1
  O  O8828  1  0.296133  0.495167  0.466633  1
  O  O8829  1  0.296133  0.971467  0.504833  1
  O  O8830  1  0.037200  0.133300  0.304800  1
  O  O8831  1  0.037200  0.171500  0.866700  1
  O  O8832  1  0.037200  0.695200  0.828500  1
  O  O8833  1  0.370533  0.799967  0.638133  1
  O  O8834  1  0.370533  0.838167  0.200033  1
  O  O8835  1  0.370533  0.361867  0.161833  1
  O  O8836  1  0.703867  0.466633  0.971467  1
  O  O8837  1  0.703867  0.504833  0.533367  1
  O  O8838  1  0.703867  0.028533  0.495167  1
  O  O8839  1  0.927400  0.897700  0.728400  1
  O  O8840  1  0.927400  0.830700  0.102300  1
  O  O8841  1  0.927400  0.271600  0.169300  1
  O  O8842  1  0.594067  0.231033  0.395067  1
  O  O8843  1  0.594067  0.164033  0.768967  1
  O  O8844  1  0.594067  0.604933  0.835967  1
  O  O8845  1  0.260733  0.564367  0.061733  1
  O  O8846  1  0.260733  0.497367  0.435633  1
  O  O8847  1  0.260733  0.938267  0.502633  1
  O  O8848  1  0.072600  0.102300  0.271600  1
  O  O8849  1  0.072600  0.169300  0.897700  1
  O  O8850  1  0.072600  0.728400  0.830700  1
  O  O8851  1  0.405933  0.768967  0.604933  1
  O  O8852  1  0.405933  0.835967  0.231033  1
  O  O8853  1  0.405933  0.395067  0.164033  1
  O  O8854  1  0.739267  0.435633  0.938267  1
  O  O8855  1  0.739267  0.502633  0.564367  1
  O  O8856  1  0.739267  0.061733  0.497367  1
  O  O8857  1  0.835600  0.063900  0.759600  1
  O  O8858  1  0.835600  0.695700  0.936100  1
  O  O8859  1  0.835600  0.240400  0.304300  1
  O  O8860  1  0.502267  0.397233  0.426267  1
  O  O8861  1  0.502267  0.029033  0.602767  1
  O  O8862  1  0.502267  0.573733  0.970967  1
  O  O8863  1  0.168933  0.730567  0.092933  1
  O  O8864  1  0.168933  0.362367  0.269433  1
  O  O8865  1  0.168933  0.907067  0.637633  1
  O  O8866  1  0.164400  0.936100  0.240400  1
  O  O8867  1  0.164400  0.304300  0.063900  1
  O  O8868  1  0.164400  0.759600  0.695700  1
  O  O8869  1  0.497733  0.602767  0.573733  1
  O  O8870  1  0.497733  0.970967  0.397233  1
  O  O8871  1  0.497733  0.426267  0.029033  1
  O  O8872  1  0.831067  0.269433  0.907067  1
  O  O8873  1  0.831067  0.637633  0.730567  1
  O  O8874  1  0.831067  0.092933  0.362367  1
  O  O8875  1  0.859300  0.105900  0.798800  1
  O  O8876  1  0.859300  0.692900  0.894100  1
  O  O8877  1  0.859300  0.201200  0.307100  1
  O  O8878  1  0.525967  0.439233  0.465467  1
  O  O8879  1  0.525967  0.026233  0.560767  1
  O  O8880  1  0.525967  0.534533  0.973767  1
  O  O8881  1  0.192633  0.772567  0.132133  1
  O  O8882  1  0.192633  0.359567  0.227433  1
  O  O8883  1  0.192633  0.867867  0.640433  1
  O  O8884  1  0.140700  0.894100  0.201200  1
  O  O8885  1  0.140700  0.307100  0.105900  1
  O  O8886  1  0.140700  0.798800  0.692900  1
  O  O8887  1  0.474033  0.560767  0.534533  1
  O  O8888  1  0.474033  0.973767  0.439233  1
  O  O8889  1  0.474033  0.465467  0.026233  1
  O  O8890  1  0.807367  0.227433  0.867867  1
  O  O8891  1  0.807367  0.640433  0.772567  1
  O  O8892  1  0.807367  0.132133  0.359567  1
  O  O8893  1  0.904300  0.098900  0.823500  1
  O  O8894  1  0.904300  0.724600  0.901100  1
  O  O8895  1  0.904300  0.176500  0.275400  1
  O  O8896  1  0.570967  0.432233  0.490167  1
  O  O8897  1  0.570967  0.057933  0.567767  1
  O  O8898  1  0.570967  0.509833  0.942067  1
  O  O8899  1  0.237633  0.765567  0.156833  1
  O  O8900  1  0.237633  0.391267  0.234433  1
  O  O8901  1  0.237633  0.843167  0.608733  1
  O  O8902  1  0.095700  0.901100  0.176500  1
  O  O8903  1  0.095700  0.275400  0.098900  1
  O  O8904  1  0.095700  0.823500  0.724600  1
  O  O8905  1  0.429033  0.567767  0.509833  1
  O  O8906  1  0.429033  0.942067  0.432233  1
  O  O8907  1  0.429033  0.490167  0.057933  1
  O  O8908  1  0.762367  0.234433  0.843167  1
  O  O8909  1  0.762367  0.608733  0.765567  1
  O  O8910  1  0.762367  0.156833  0.391267  1
  O  O8911  1  0.861400  0.027300  0.757000  1
  O  O8912  1  0.861400  0.729700  0.972700  1
  O  O8913  1  0.861400  0.243000  0.270300  1
  O  O8914  1  0.528067  0.360633  0.423667  1
  O  O8915  1  0.528067  0.063033  0.639367  1
  O  O8916  1  0.528067  0.576333  0.936967  1
  O  O8917  1  0.194733  0.693967  0.090333  1
  O  O8918  1  0.194733  0.396367  0.306033  1
  O  O8919  1  0.194733  0.909667  0.603633  1
  O  O8920  1  0.138600  0.972700  0.243000  1
  O  O8921  1  0.138600  0.270300  0.027300  1
  O  O8922  1  0.138600  0.757000  0.729700  1
  O  O8923  1  0.471933  0.639367  0.576333  1
  O  O8924  1  0.471933  0.936967  0.360633  1
  O  O8925  1  0.471933  0.423667  0.063033  1
  O  O8926  1  0.805267  0.306033  0.909667  1
  O  O8927  1  0.805267  0.603633  0.693967  1
  O  O8928  1  0.805267  0.090333  0.396367  1
  O  O8929  1  0.389300  0.945000  0.807600  1
  O  O8930  1  0.389300  0.862600  0.055000  1
  O  O8931  1  0.389300  0.192400  0.137400  1
  O  O8932  1  0.055967  0.278333  0.474267  1
  O  O8933  1  0.055967  0.195933  0.721667  1
  O  O8934  1  0.055967  0.525733  0.804067  1
  O  O8935  1  0.722633  0.611667  0.140933  1
  O  O8936  1  0.722633  0.529267  0.388333  1
  O  O8937  1  0.722633  0.859067  0.470733  1
  O  O8938  1  0.610700  0.055000  0.192400  1
  O  O8939  1  0.610700  0.137400  0.945000  1
  O  O8940  1  0.610700  0.807600  0.862600  1
  O  O8941  1  0.944033  0.721667  0.525733  1
  O  O8942  1  0.944033  0.804067  0.278333  1
  O  O8943  1  0.944033  0.474267  0.195933  1
  O  O8944  1  0.277367  0.388333  0.859067  1
  O  O8945  1  0.277367  0.470733  0.611667  1
  O  O8946  1  0.277367  0.140933  0.529267  1
  O  O8947  1  0.374700  0.973900  0.846000  1
  O  O8948  1  0.374700  0.872100  0.026100  1
  O  O8949  1  0.374700  0.154000  0.127900  1
  O  O8950  1  0.041367  0.307233  0.512667  1
  O  O8951  1  0.041367  0.205433  0.692767  1
  O  O8952  1  0.041367  0.487333  0.794567  1
  O  O8953  1  0.708033  0.640567  0.179333  1
  O  O8954  1  0.708033  0.538767  0.359433  1
  O  O8955  1  0.708033  0.820667  0.461233  1
  O  O8956  1  0.625300  0.026100  0.154000  1
  O  O8957  1  0.625300  0.127900  0.973900  1
  O  O8958  1  0.625300  0.846000  0.872100  1
  O  O8959  1  0.958633  0.692767  0.487333  1
  O  O8960  1  0.958633  0.794567  0.307233  1
  O  O8961  1  0.958633  0.512667  0.205433  1
  O  O8962  1  0.291967  0.359433  0.820667  1
  O  O8963  1  0.291967  0.461233  0.640567  1
  O  O8964  1  0.291967  0.179333  0.538767  1
  O  O8965  1  0.437300  0.995500  0.879100  1
  O  O8966  1  0.437300  0.883600  0.004500  1
  O  O8967  1  0.437300  0.120900  0.116400  1
  O  O8968  1  0.103967  0.328833  0.545767  1
  O  O8969  1  0.103967  0.216933  0.671167  1
  O  O8970  1  0.103967  0.454233  0.783067  1
  O  O8971  1  0.770633  0.662167  0.212433  1
  O  O8972  1  0.770633  0.550267  0.337833  1
  O  O8973  1  0.770633  0.787567  0.449733  1
  O  O8974  1  0.562700  0.004500  0.120900  1
  O  O8975  1  0.562700  0.116400  0.995500  1
  O  O8976  1  0.562700  0.879100  0.883600  1
  O  O8977  1  0.896033  0.671167  0.454233  1
  O  O8978  1  0.896033  0.783067  0.328833  1
  O  O8979  1  0.896033  0.545767  0.216933  1
  O  O8980  1  0.229367  0.337833  0.787567  1
  O  O8981  1  0.229367  0.449733  0.662167  1
  O  O8982  1  0.229367  0.212433  0.550267  1
  O  O8983  1  0.482600  0.987900  0.847200  1
  O  O8984  1  0.482600  0.859300  0.012100  1
  O  O8985  1  0.482600  0.152800  0.140700  1
  O  O8986  1  0.149267  0.321233  0.513867  1
  O  O8987  1  0.149267  0.192633  0.678767  1
  O  O8988  1  0.149267  0.486133  0.807367  1
  O  O8989  1  0.815933  0.654567  0.180533  1
  O  O8990  1  0.815933  0.525967  0.345433  1
  O  O8991  1  0.815933  0.819467  0.474033  1
  O  O8992  1  0.517400  0.012100  0.152800  1
  O  O8993  1  0.517400  0.140700  0.987900  1
  O  O8994  1  0.517400  0.847200  0.859300  1
  O  O8995  1  0.850733  0.678767  0.486133  1
  O  O8996  1  0.850733  0.807367  0.321233  1
  O  O8997  1  0.850733  0.513867  0.192633  1
  O  O8998  1  0.184067  0.345433  0.819467  1
  O  O8999  1  0.184067  0.474033  0.654567  1
  O  O9000  1  0.184067  0.180533  0.525967  1
  F  F9001  1  0.881700  0.894200  0.659800  1
  F  F9002  1  0.881700  0.765600  0.105800  1
  F  F9003  1  0.881700  0.340200  0.234400  1
  F  F9004  1  0.548367  0.227533  0.326467  1
  F  F9005  1  0.548367  0.098933  0.772467  1
  F  F9006  1  0.548367  0.673533  0.901067  1
  F  F9007  1  0.215033  0.560867  0.993133  1
  F  F9008  1  0.215033  0.432267  0.439133  1
  F  F9009  1  0.215033  0.006867  0.567733  1
  F  F9010  1  0.118300  0.105800  0.340200  1
  F  F9011  1  0.118300  0.234400  0.894200  1
  F  F9012  1  0.118300  0.659800  0.765600  1
  F  F9013  1  0.451633  0.772467  0.673533  1
  F  F9014  1  0.451633  0.901067  0.227533  1
  F  F9015  1  0.451633  0.326467  0.098933  1
  F  F9016  1  0.784967  0.439133  0.006867  1
  F  F9017  1  0.784967  0.567733  0.560867  1
  F  F9018  1  0.784967  0.993133  0.432267  1
  F  F9019  1  0.910000  0.867300  0.630600  1
  F  F9020  1  0.910000  0.763300  0.132700  1
  F  F9021  1  0.910000  0.369400  0.236700  1
  F  F9022  1  0.576667  0.200633  0.297267  1
  F  F9023  1  0.576667  0.096633  0.799367  1
  F  F9024  1  0.576667  0.702733  0.903367  1
  F  F9025  1  0.243333  0.533967  0.963933  1
  F  F9026  1  0.243333  0.429967  0.466033  1
  F  F9027  1  0.243333  0.036067  0.570033  1
  F  F9028  1  0.090000  0.132700  0.369400  1
  F  F9029  1  0.090000  0.236700  0.867300  1
  F  F9030  1  0.090000  0.630600  0.763300  1
  F  F9031  1  0.423333  0.799367  0.702733  1
  F  F9032  1  0.423333  0.903367  0.200633  1
  F  F9033  1  0.423333  0.297267  0.096633  1
  F  F9034  1  0.756667  0.466033  0.036067  1
  F  F9035  1  0.756667  0.570033  0.533967  1
  F  F9036  1  0.756667  0.963933  0.429967  1
  F  F9037  1  0.938900  0.888800  0.662100  1
  F  F9038  1  0.938900  0.773300  0.111200  1
  F  F9039  1  0.938900  0.337900  0.226700  1
  F  F9040  1  0.605567  0.222133  0.328767  1
  F  F9041  1  0.605567  0.106633  0.777867  1
  F  F9042  1  0.605567  0.671233  0.893367  1
  F  F9043  1  0.272233  0.555467  0.995433  1
  F  F9044  1  0.272233  0.439967  0.444533  1
  F  F9045  1  0.272233  0.004567  0.560033  1
  F  F9046  1  0.061100  0.111200  0.337900  1
  F  F9047  1  0.061100  0.226700  0.888800  1
  F  F9048  1  0.061100  0.662100  0.773300  1
  F  F9049  1  0.394433  0.777867  0.671233  1
  F  F9050  1  0.394433  0.893367  0.222133  1
  F  F9051  1  0.394433  0.328767  0.106633  1
  F  F9052  1  0.727767  0.444533  0.004567  1
  F  F9053  1  0.727767  0.560033  0.555467  1
  F  F9054  1  0.727767  0.995433  0.439967  1
  F  F9055  1  0.910000  0.834100  0.699300  1
  F  F9056  1  0.910000  0.865200  0.165900  1
  F  F9057  1  0.910000  0.300700  0.134800  1
  F  F9058  1  0.576667  0.167433  0.365967  1
  F  F9059  1  0.576667  0.198533  0.832567  1
  F  F9060  1  0.576667  0.634033  0.801467  1
  F  F9061  1  0.243333  0.500767  0.032633  1
  F  F9062  1  0.243333  0.531867  0.499233  1
  F  F9063  1  0.243333  0.967367  0.468133  1
  F  F9064  1  0.090000  0.165900  0.300700  1
  F  F9065  1  0.090000  0.134800  0.834100  1
  F  F9066  1  0.090000  0.699300  0.865200  1
  F  F9067  1  0.423333  0.832567  0.634033  1
  F  F9068  1  0.423333  0.801467  0.167433  1
  F  F9069  1  0.423333  0.365967  0.198533  1
  F  F9070  1  0.756667  0.499233  0.967367  1
  F  F9071  1  0.756667  0.468133  0.500767  1
  F  F9072  1  0.756667  0.032633  0.531867  1
  F  F9073  1  0.938400  0.855400  0.732800  1
  F  F9074  1  0.938400  0.877400  0.144600  1
  F  F9075  1  0.938400  0.267200  0.122600  1
  F  F9076  1  0.605067  0.188733  0.399467  1
  F  F9077  1  0.605067  0.210733  0.811267  1
  F  F9078  1  0.605067  0.600533  0.789267  1
  F  F9079  1  0.271733  0.522067  0.066133  1
  F  F9080  1  0.271733  0.544067  0.477933  1
  F  F9081  1  0.271733  0.933867  0.455933  1
  F  F9082  1  0.061600  0.144600  0.267200  1
  F  F9083  1  0.061600  0.122600  0.855400  1
  F  F9084  1  0.061600  0.732800  0.877400  1
  F  F9085  1  0.394933  0.811267  0.600533  1
  F  F9086  1  0.394933  0.789267  0.188733  1
  F  F9087  1  0.394933  0.399467  0.210733  1
  F  F9088  1  0.728267  0.477933  0.933867  1
  F  F9089  1  0.728267  0.455933  0.522067  1
  F  F9090  1  0.728267  0.066133  0.544067  1
  F  F9091  1  0.882500  0.862100  0.728200  1
  F  F9092  1  0.882500  0.866100  0.137900  1
  F  F9093  1  0.882500  0.271800  0.133900  1
  F  F9094  1  0.549167  0.195433  0.394867  1
  F  F9095  1  0.549167  0.199433  0.804567  1
  F  F9096  1  0.549167  0.605133  0.800567  1
  F  F9097  1  0.215833  0.528767  0.061533  1
  F  F9098  1  0.215833  0.532767  0.471233  1
  F  F9099  1  0.215833  0.938467  0.467233  1
  F  F9100  1  0.117500  0.137900  0.271800  1
  F  F9101  1  0.117500  0.133900  0.862100  1
  F  F9102  1  0.117500  0.728200  0.866100  1
  F  F9103  1  0.450833  0.804567  0.605133  1
  F  F9104  1  0.450833  0.800567  0.195433  1
  F  F9105  1  0.450833  0.394867  0.199433  1
  F  F9106  1  0.784167  0.471233  0.938467  1
  F  F9107  1  0.784167  0.467233  0.528767  1
  F  F9108  1  0.784167  0.061533  0.532767  1
  F  F9109  1  0.829200  0.039000  0.797200  1
  F  F9110  1  0.829200  0.758200  0.961000  1
  F  F9111  1  0.829200  0.202800  0.241800  1
  F  F9112  1  0.495867  0.372333  0.463867  1
  F  F9113  1  0.495867  0.091533  0.627667  1
  F  F9114  1  0.495867  0.536133  0.908467  1
  F  F9115  1  0.162533  0.705667  0.130533  1
  F  F9116  1  0.162533  0.424867  0.294333  1
  F  F9117  1  0.162533  0.869467  0.575133  1
  F  F9118  1  0.170800  0.961000  0.202800  1
  F  F9119  1  0.170800  0.241800  0.039000  1
  F  F9120  1  0.170800  0.797200  0.758200  1
  F  F9121  1  0.504133  0.627667  0.536133  1
  F  F9122  1  0.504133  0.908467  0.372333  1
  F  F9123  1  0.504133  0.463867  0.091533  1
  F  F9124  1  0.837467  0.294333  0.869467  1
  F  F9125  1  0.837467  0.575133  0.705667  1
  F  F9126  1  0.837467  0.130533  0.424867  1
  F  F9127  1  0.812200  0.073100  0.803100  1
  F  F9128  1  0.812200  0.730000  0.926900  1
  F  F9129  1  0.812200  0.196900  0.270000  1
  F  F9130  1  0.478867  0.406433  0.469767  1
  F  F9131  1  0.478867  0.063333  0.593567  1
  F  F9132  1  0.478867  0.530233  0.936667  1
  F  F9133  1  0.145533  0.739767  0.136433  1
  F  F9134  1  0.145533  0.396667  0.260233  1
  F  F9135  1  0.145533  0.863567  0.603333  1
  F  F9136  1  0.187800  0.926900  0.196900  1
  F  F9137  1  0.187800  0.270000  0.073100  1
  F  F9138  1  0.187800  0.803100  0.730000  1
  F  F9139  1  0.521133  0.593567  0.530233  1
  F  F9140  1  0.521133  0.936667  0.406433  1
  F  F9141  1  0.521133  0.469767  0.063333  1
  F  F9142  1  0.854467  0.260233  0.863567  1
  F  F9143  1  0.854467  0.603333  0.739767  1
  F  F9144  1  0.854467  0.136433  0.396667  1
  F  F9145  1  0.919800  0.096600  0.767100  1
  F  F9146  1  0.919800  0.670500  0.903400  1
  F  F9147  1  0.919800  0.232900  0.329500  1
  F  F9148  1  0.586467  0.429933  0.433767  1
  F  F9149  1  0.586467  0.003833  0.570067  1
  F  F9150  1  0.586467  0.566233  0.996167  1
  F  F9151  1  0.253133  0.763267  0.100433  1
  F  F9152  1  0.253133  0.337167  0.236733  1
  F  F9153  1  0.253133  0.899567  0.662833  1
  F  F9154  1  0.080200  0.903400  0.232900  1
  F  F9155  1  0.080200  0.329500  0.096600  1
  F  F9156  1  0.080200  0.767100  0.670500  1
  F  F9157  1  0.413533  0.570067  0.566233  1
  F  F9158  1  0.413533  0.996167  0.429933  1
  F  F9159  1  0.413533  0.433767  0.003833  1
  F  F9160  1  0.746867  0.236733  0.899567  1
  F  F9161  1  0.746867  0.662833  0.763267  1
  F  F9162  1  0.746867  0.100433  0.337167  1
  F  F9163  1  0.955700  0.088700  0.788100  1
  F  F9164  1  0.955700  0.699400  0.911300  1
  F  F9165  1  0.955700  0.211900  0.300600  1
  F  F9166  1  0.622367  0.422033  0.454767  1
  F  F9167  1  0.622367  0.032733  0.577967  1
  F  F9168  1  0.622367  0.545233  0.967267  1
  F  F9169  1  0.289033  0.755367  0.121433  1
  F  F9170  1  0.289033  0.366067  0.244633  1
  F  F9171  1  0.289033  0.878567  0.633933  1
  F  F9172  1  0.044300  0.911300  0.211900  1
  F  F9173  1  0.044300  0.300600  0.088700  1
  F  F9174  1  0.044300  0.788100  0.699400  1
  F  F9175  1  0.377633  0.577967  0.545233  1
  F  F9176  1  0.377633  0.967267  0.422033  1
  F  F9177  1  0.377633  0.454767  0.032733  1
  F  F9178  1  0.710967  0.244633  0.878567  1
  F  F9179  1  0.710967  0.633933  0.755367  1
  F  F9180  1  0.710967  0.121433  0.366067  1
  F  F9181  1  0.936500  0.124100  0.801700  1
  F  F9182  1  0.936500  0.677600  0.875900  1
  F  F9183  1  0.936500  0.198300  0.322400  1
  F  F9184  1  0.603167  0.457433  0.468367  1
  F  F9185  1  0.603167  0.010933  0.542567  1
  F  F9186  1  0.603167  0.531633  0.989067  1
  F  F9187  1  0.269833  0.790767  0.135033  1
  F  F9188  1  0.269833  0.344267  0.209233  1
  F  F9189  1  0.269833  0.864967  0.655733  1
  F  F9190  1  0.063500  0.875900  0.198300  1
  F  F9191  1  0.063500  0.322400  0.124100  1
  F  F9192  1  0.063500  0.801700  0.677600  1
  F  F9193  1  0.396833  0.542567  0.531633  1
  F  F9194  1  0.396833  0.989067  0.457433  1
  F  F9195  1  0.396833  0.468367  0.010933  1
  F  F9196  1  0.730167  0.209233  0.864967  1
  F  F9197  1  0.730167  0.655733  0.790767  1
  F  F9198  1  0.730167  0.135033  0.344267  1
  F  F9199  1  0.786700  0.041900  0.776900  1
  F  F9200  1  0.786700  0.735000  0.958100  1
  F  F9201  1  0.786700  0.223100  0.265000  1
  F  F9202  1  0.453367  0.375233  0.443567  1
  F  F9203  1  0.453367  0.068333  0.624767  1
  F  F9204  1  0.453367  0.556433  0.931667  1
  F  F9205  1  0.120033  0.708567  0.110233  1
  F  F9206  1  0.120033  0.401667  0.291433  1
  F  F9207  1  0.120033  0.889767  0.598333  1
  F  F9208  1  0.213300  0.958100  0.223100  1
  F  F9209  1  0.213300  0.265000  0.041900  1
  F  F9210  1  0.213300  0.776900  0.735000  1
  F  F9211  1  0.546633  0.624767  0.556433  1
  F  F9212  1  0.546633  0.931667  0.375233  1
  F  F9213  1  0.546633  0.443567  0.068333  1
  F  F9214  1  0.879967  0.291433  0.889767  1
  F  F9215  1  0.879967  0.598333  0.708567  1
  F  F9216  1  0.879967  0.110233  0.401667  1
  F  F9217  1  0.387700  0.933100  0.855800  1
  F  F9218  1  0.387700  0.922700  0.066900  1
  F  F9219  1  0.387700  0.144200  0.077300  1
  F  F9220  1  0.054367  0.266433  0.522467  1
  F  F9221  1  0.054367  0.256033  0.733567  1
  F  F9222  1  0.054367  0.477533  0.743967  1
  F  F9223  1  0.721033  0.599767  0.189133  1
  F  F9224  1  0.721033  0.589367  0.400233  1
  F  F9225  1  0.721033  0.810867  0.410633  1
  F  F9226  1  0.612300  0.066900  0.144200  1
  F  F9227  1  0.612300  0.077300  0.933100  1
  F  F9228  1  0.612300  0.855800  0.922700  1
  F  F9229  1  0.945633  0.733567  0.477533  1
  F  F9230  1  0.945633  0.743967  0.266433  1
  F  F9231  1  0.945633  0.522467  0.256033  1
  F  F9232  1  0.278967  0.400233  0.810867  1
  F  F9233  1  0.278967  0.410633  0.599767  1
  F  F9234  1  0.278967  0.189133  0.589367  1
  F  F9235  1  0.387000  0.912700  0.817000  1
  F  F9236  1  0.387000  0.904300  0.087300  1
  F  F9237  1  0.387000  0.183000  0.095700  1
  F  F9238  1  0.053667  0.246033  0.483667  1
  F  F9239  1  0.053667  0.237633  0.753967  1
  F  F9240  1  0.053667  0.516333  0.762367  1
  F  F9241  1  0.720333  0.579367  0.150333  1
  F  F9242  1  0.720333  0.570967  0.420633  1
  F  F9243  1  0.720333  0.849667  0.429033  1
  F  F9244  1  0.613000  0.087300  0.183000  1
  F  F9245  1  0.613000  0.095700  0.912700  1
  F  F9246  1  0.613000  0.817000  0.904300  1
  F  F9247  1  0.946333  0.753967  0.516333  1
  F  F9248  1  0.946333  0.762367  0.246033  1
  F  F9249  1  0.946333  0.483667  0.237633  1
  F  F9250  1  0.279667  0.420633  0.849667  1
  F  F9251  1  0.279667  0.429033  0.579367  1
  F  F9252  1  0.279667  0.150333  0.570967  1
  F  F9253  1  0.340400  0.932000  0.836300  1
  F  F9254  1  0.340400  0.904300  0.068000  1
  F  F9255  1  0.340400  0.163700  0.095700  1
  F  F9256  1  0.007067  0.265333  0.502967  1
  F  F9257  1  0.007067  0.237633  0.734667  1
  F  F9258  1  0.007067  0.497033  0.762367  1
  F  F9259  1  0.673733  0.598667  0.169633  1
  F  F9260  1  0.673733  0.570967  0.401333  1
  F  F9261  1  0.673733  0.830367  0.429033  1
  F  F9262  1  0.659600  0.068000  0.163700  1
  F  F9263  1  0.659600  0.095700  0.932000  1
  F  F9264  1  0.659600  0.836300  0.904300  1
  F  F9265  1  0.992933  0.734667  0.497033  1
  F  F9266  1  0.992933  0.762367  0.265333  1
  F  F9267  1  0.992933  0.502967  0.237633  1
  F  F9268  1  0.326267  0.401333  0.830367  1
  F  F9269  1  0.326267  0.429033  0.598667  1
  F  F9270  1  0.326267  0.169633  0.570967  1
  F  F9271  1  0.509700  0.990900  0.887900  1
  F  F9272  1  0.509700  0.897000  0.009100  1
  F  F9273  1  0.509700  0.112100  0.103000  1
  F  F9274  1  0.176367  0.324233  0.554567  1
  F  F9275  1  0.176367  0.230333  0.675767  1
  F  F9276  1  0.176367  0.445433  0.769667  1
  F  F9277  1  0.843033  0.657567  0.221233  1
  F  F9278  1  0.843033  0.563667  0.342433  1
  F  F9279  1  0.843033  0.778767  0.436333  1
  F  F9280  1  0.490300  0.009100  0.112100  1
  F  F9281  1  0.490300  0.103000  0.990900  1
  F  F9282  1  0.490300  0.887900  0.897000  1
  F  F9283  1  0.823633  0.675767  0.445433  1
  F  F9284  1  0.823633  0.769667  0.324233  1
  F  F9285  1  0.823633  0.554567  0.230333  1
  F  F9286  1  0.156967  0.342433  0.778767  1
  F  F9287  1  0.156967  0.436333  0.657567  1
  F  F9288  1  0.156967  0.221233  0.563667  1
  F  F9289  1  0.516500  0.960100  0.852800  1
  F  F9290  1  0.516500  0.892700  0.039900  1
  F  F9291  1  0.516500  0.147200  0.107300  1
  F  F9292  1  0.183167  0.293433  0.519467  1
  F  F9293  1  0.183167  0.226033  0.706567  1
  F  F9294  1  0.183167  0.480533  0.773967  1
  F  F9295  1  0.849833  0.626767  0.186133  1
  F  F9296  1  0.849833  0.559367  0.373233  1
  F  F9297  1  0.849833  0.813867  0.440633  1
  F  F9298  1  0.483500  0.039900  0.147200  1
  F  F9299  1  0.483500  0.107300  0.960100  1
  F  F9300  1  0.483500  0.852800  0.892700  1
  F  F9301  1  0.816833  0.706567  0.480533  1
  F  F9302  1  0.816833  0.773967  0.293433  1
  F  F9303  1  0.816833  0.519467  0.226033  1
  F  F9304  1  0.150167  0.373233  0.813867  1
  F  F9305  1  0.150167  0.440633  0.626767  1
  F  F9306  1  0.150167  0.186133  0.559367  1
  F  F9307  1  0.484000  0.957300  0.878000  1
  F  F9308  1  0.484000  0.920700  0.042700  1
  F  F9309  1  0.484000  0.122000  0.079300  1
  F  F9310  1  0.150667  0.290633  0.544667  1
  F  F9311  1  0.150667  0.254033  0.709367  1
  F  F9312  1  0.150667  0.455333  0.745967  1
  F  F9313  1  0.817333  0.623967  0.211333  1
  F  F9314  1  0.817333  0.587367  0.376033  1
  F  F9315  1  0.817333  0.788667  0.412633  1
  F  F9316  1  0.516000  0.042700  0.122000  1
  F  F9317  1  0.516000  0.079300  0.957300  1
  F  F9318  1  0.516000  0.878000  0.920700  1
  F  F9319  1  0.849333  0.709367  0.455333  1
  F  F9320  1  0.849333  0.745967  0.290633  1
  F  F9321  1  0.849333  0.544667  0.254033  1
  F  F9322  1  0.182667  0.376033  0.788667  1
  F  F9323  1  0.182667  0.412633  0.623967  1
  F  F9324  1  0.182667  0.211333  0.587367  1
  F  F9325  1  0.674300  0.879450  0.700670  1
  F  F9326  1  0.674300  0.821220  0.120550  1
  F  F9327  1  0.674300  0.299330  0.178780  1
  F  F9328  1  0.340967  0.212783  0.367337  1
  F  F9329  1  0.340967  0.154553  0.787217  1
  F  F9330  1  0.340967  0.632663  0.845447  1
  F  F9331  1  0.007633  0.546117  0.034003  1
  F  F9332  1  0.007633  0.487887  0.453883  1
  F  F9333  1  0.007633  0.965997  0.512113  1
  F  F9334  1  0.325700  0.120550  0.299330  1
  F  F9335  1  0.325700  0.178780  0.879450  1
  F  F9336  1  0.325700  0.700670  0.821220  1
  F  F9337  1  0.659033  0.787217  0.632663  1
  F  F9338  1  0.659033  0.845447  0.212783  1
  F  F9339  1  0.659033  0.367337  0.154553  1
  F  F9340  1  0.992367  0.453883  0.965997  1
  F  F9341  1  0.992367  0.512113  0.546117  1
  F  F9342  1  0.992367  0.034003  0.487887  1
  F  F9343  1  0.675000  0.895720  0.738620  1
  F  F9344  1  0.675000  0.842900  0.104280  1
  F  F9345  1  0.675000  0.261380  0.157100  1
  F  F9346  1  0.341667  0.229053  0.405287  1
  F  F9347  1  0.341667  0.176233  0.770947  1
  F  F9348  1  0.341667  0.594713  0.823767  1
  F  F9349  1  0.008333  0.562387  0.071953  1
  F  F9350  1  0.008333  0.509567  0.437613  1
  F  F9351  1  0.008333  0.928047  0.490433  1
  F  F9352  1  0.325000  0.104280  0.261380  1
  F  F9353  1  0.325000  0.157100  0.895720  1
  F  F9354  1  0.325000  0.738620  0.842900  1
  F  F9355  1  0.658333  0.770947  0.594713  1
  F  F9356  1  0.658333  0.823767  0.229053  1
  F  F9357  1  0.658333  0.405287  0.176233  1
  F  F9358  1  0.991667  0.437613  0.928047  1
  F  F9359  1  0.991667  0.490433  0.562387  1
  F  F9360  1  0.991667  0.071953  0.509567  1
  F  F9361  1  0.645700  0.863050  0.719230  1
  F  F9362  1  0.645700  0.856180  0.136950  1
  F  F9363  1  0.645700  0.280770  0.143820  1
  F  F9364  1  0.312367  0.196383  0.385897  1
  F  F9365  1  0.312367  0.189513  0.803617  1
  F  F9366  1  0.312367  0.614103  0.810487  1
  F  F9367  1  0.979033  0.529717  0.052563  1
  F  F9368  1  0.979033  0.522847  0.470283  1
  F  F9369  1  0.979033  0.947437  0.477153  1
  F  F9370  1  0.354300  0.136950  0.280770  1
  F  F9371  1  0.354300  0.143820  0.863050  1
  F  F9372  1  0.354300  0.719230  0.856180  1
  F  F9373  1  0.687633  0.803617  0.614103  1
  F  F9374  1  0.687633  0.810487  0.196383  1
  F  F9375  1  0.687633  0.385897  0.189513  1
  F  F9376  1  0.020967  0.470283  0.947437  1
  F  F9377  1  0.020967  0.477153  0.529717  1
  F  F9378  1  0.020967  0.052563  0.522847  1
  F  F9379  1  0.622400  0.894250  0.719660  1
  F  F9380  1  0.622400  0.825410  0.105750  1
  F  F9381  1  0.622400  0.280340  0.174590  1
  F  F9382  1  0.289067  0.227583  0.386327  1
  F  F9383  1  0.289067  0.158743  0.772417  1
  F  F9384  1  0.289067  0.613673  0.841257  1
  F  F9385  1  0.955733  0.560917  0.052993  1
  F  F9386  1  0.955733  0.492077  0.439083  1
  F  F9387  1  0.955733  0.947007  0.507923  1
  F  F9388  1  0.377600  0.105750  0.280340  1
  F  F9389  1  0.377600  0.174590  0.894250  1
  F  F9390  1  0.377600  0.719660  0.825410  1
  F  F9391  1  0.710933  0.772417  0.613673  1
  F  F9392  1  0.710933  0.841257  0.227583  1
  F  F9393  1  0.710933  0.386327  0.158743  1
  F  F9394  1  0.044267  0.439083  0.947007  1
  F  F9395  1  0.044267  0.507923  0.560917  1
  F  F9396  1  0.044267  0.052993  0.492077  1
