# generated using pymatgen
data_Fe4H183C285S18N34(O5F8)7
_symmetry_space_group_name_H-M   'P 1'
_cell_length_a   21.76320000
_cell_length_b   29.67940000
_cell_length_c   45.40800000
_cell_angle_alpha   90.00000000
_cell_angle_beta   98.85100000
_cell_angle_gamma   90.00000000
_symmetry_Int_Tables_number   1
_chemical_formula_structural   Fe4H183C285S18N34(O5F8)7
_chemical_formula_sum   'Fe16 H732 C1140 S72 N136 O140 F224'
_cell_volume   28980.61153391
_cell_formula_units_Z   4
loop_
 _symmetry_equiv_pos_site_id
 _symmetry_equiv_pos_as_xyz
  1  'x, y, z'
loop_
 _atom_site_type_symbol
 _atom_site_label
 _atom_site_symmetry_multiplicity
 _atom_site_fract_x
 _atom_site_fract_y
 _atom_site_fract_z
 _atom_site_occupancy
  Fe  Fe1  1  0.251160  0.681640  0.185140  1
  Fe  Fe2  1  0.248840  0.181640  0.314860  1
  Fe  Fe3  1  0.748840  0.318360  0.814860  1
  Fe  Fe4  1  0.751160  0.818360  0.685140  1
  Fe  Fe5  1  0.794900  0.916060  0.014710  1
  Fe  Fe6  1  0.705100  0.416060  0.485290  1
  Fe  Fe7  1  0.205100  0.083940  0.985290  1
  Fe  Fe8  1  0.294900  0.583940  0.514710  1
  Fe  Fe9  1  0.919480  0.388680  0.123710  1
  Fe  Fe10  1  0.580520  0.888680  0.376290  1
  Fe  Fe11  1  0.080520  0.611320  0.876290  1
  Fe  Fe12  1  0.419480  0.111320  0.623710  1
  Fe  Fe13  1  0.974310  0.782130  0.372230  1
  Fe  Fe14  1  0.525690  0.282130  0.127770  1
  Fe  Fe15  1  0.025690  0.217870  0.627770  1
  Fe  Fe16  1  0.474310  0.717870  0.872230  1
  H  H17  1  0.134800  0.626100  0.190700  1
  H  H18  1  0.365200  0.126100  0.309300  1
  H  H19  1  0.865200  0.373900  0.809300  1
  H  H20  1  0.634800  0.873900  0.690700  1
  H  H21  1  0.076200  0.572600  0.159900  1
  H  H22  1  0.423800  0.072600  0.340100  1
  H  H23  1  0.923800  0.427400  0.840100  1
  H  H24  1  0.576200  0.927400  0.659900  1
  H  H25  1  0.101900  0.555700  0.113700  1
  H  H26  1  0.398100  0.055700  0.386300  1
  H  H27  1  0.898100  0.444300  0.886300  1
  H  H28  1  0.601900  0.944300  0.613700  1
  H  H29  1  0.183300  0.593100  0.096600  1
  H  H30  1  0.316700  0.093100  0.403400  1
  H  H31  1  0.816700  0.406900  0.903400  1
  H  H32  1  0.683300  0.906900  0.596600  1
  H  H33  1  0.274700  0.652200  0.109600  1
  H  H34  1  0.225300  0.152200  0.390400  1
  H  H35  1  0.725300  0.347800  0.890400  1
  H  H36  1  0.774700  0.847800  0.609600  1
  H  H37  1  0.294100  0.768000  0.138900  1
  H  H38  1  0.205900  0.268000  0.361100  1
  H  H39  1  0.705900  0.232000  0.861100  1
  H  H40  1  0.794100  0.732000  0.638900  1
  H  H41  1  0.378200  0.809600  0.127100  1
  H  H42  1  0.121800  0.309600  0.372900  1
  H  H43  1  0.621800  0.190400  0.872900  1
  H  H44  1  0.878200  0.690400  0.627100  1
  H  H45  1  0.467600  0.774100  0.116400  1
  H  H46  1  0.032400  0.274100  0.383600  1
  H  H47  1  0.532400  0.225900  0.883600  1
  H  H48  1  0.967600  0.725900  0.616400  1
  H  H49  1  0.398900  0.654300  0.139200  1
  H  H50  1  0.101100  0.154300  0.360800  1
  H  H51  1  0.601100  0.345700  0.860800  1
  H  H52  1  0.898900  0.845700  0.639200  1
  H  H53  1  0.555800  0.742500  0.129100  1
  H  H54  1  0.944200  0.242500  0.370900  1
  H  H55  1  0.444200  0.257500  0.870900  1
  H  H56  1  0.055800  0.757500  0.629100  1
  H  H57  1  0.466300  0.624300  0.115400  1
  H  H58  1  0.033700  0.124300  0.384600  1
  H  H59  1  0.533700  0.375700  0.884600  1
  H  H60  1  0.966300  0.875700  0.615400  1
  H  H61  1  0.819500  0.642100  0.116500  1
  H  H62  1  0.680500  0.142100  0.383500  1
  H  H63  1  0.180500  0.357900  0.883500  1
  H  H64  1  0.319500  0.857900  0.616500  1
  H  H65  1  0.731400  0.522000  0.109200  1
  H  H66  1  0.768600  0.022000  0.390800  1
  H  H67  1  0.268600  0.478000  0.890800  1
  H  H68  1  0.231400  0.978000  0.609200  1
  H  H69  1  0.669500  0.747800  0.122800  1
  H  H70  1  0.830500  0.247800  0.377200  1
  H  H71  1  0.330500  0.252200  0.877200  1
  H  H72  1  0.169500  0.752200  0.622800  1
  H  H73  1  0.759800  0.712800  0.119700  1
  H  H74  1  0.740200  0.212800  0.380300  1
  H  H75  1  0.240200  0.287200  0.880300  1
  H  H76  1  0.259800  0.787200  0.619700  1
  H  H77  1  0.524500  0.553800  0.108900  1
  H  H78  1  0.975500  0.053800  0.391100  1
  H  H79  1  0.475500  0.446200  0.891100  1
  H  H80  1  0.024500  0.946200  0.608900  1
  H  H81  1  0.615500  0.519100  0.104400  1
  H  H82  1  0.884500  0.019100  0.395600  1
  H  H83  1  0.384500  0.480900  0.895600  1
  H  H84  1  0.115500  0.980900  0.604400  1
  H  H85  1  0.889600  0.604100  0.094300  1
  H  H86  1  0.610400  0.104100  0.405700  1
  H  H87  1  0.110400  0.395900  0.905700  1
  H  H88  1  0.389600  0.895900  0.594300  1
  H  H89  1  0.985700  0.569700  0.098300  1
  H  H90  1  0.514300  0.069700  0.401700  1
  H  H91  1  0.014300  0.430300  0.901700  1
  H  H92  1  0.485700  0.930300  0.598300  1
  H  H93  1  0.002500  0.498800  0.119300  1
  H  H94  1  0.497500  0.998800  0.380700  1
  H  H95  1  0.997500  0.501200  0.880700  1
  H  H96  1  0.502500  0.001200  0.619300  1
  H  H97  1  0.824200  0.495900  0.134800  1
  H  H98  1  0.675800  0.995900  0.365200  1
  H  H99  1  0.175800  0.504100  0.865200  1
  H  H100  1  0.324200  0.004100  0.634800  1
  H  H101  1  0.963900  0.474500  0.181900  1
  H  H102  1  0.536100  0.974500  0.318100  1
  H  H103  1  0.036100  0.525500  0.818100  1
  H  H104  1  0.463900  0.025500  0.681900  1
  H  H105  1  0.995300  0.421200  0.227800  1
  H  H106  1  0.504700  0.921200  0.272200  1
  H  H107  1  0.004700  0.578800  0.772200  1
  H  H108  1  0.495300  0.078800  0.727800  1
  H  H109  1  0.002300  0.347000  0.245600  1
  H  H110  1  0.497700  0.847000  0.254400  1
  H  H111  1  0.997700  0.653000  0.754400  1
  H  H112  1  0.502300  0.153000  0.745600  1
  H  H113  1  0.968700  0.288700  0.213300  1
  H  H114  1  0.531300  0.788700  0.286700  1
  H  H115  1  0.031300  0.711300  0.786700  1
  H  H116  1  0.468700  0.211300  0.713300  1
  H  H117  1  0.937600  0.302100  0.162400  1
  H  H118  1  0.562400  0.802100  0.337600  1
  H  H119  1  0.062400  0.697900  0.837600  1
  H  H120  1  0.437600  0.197900  0.662400  1
  H  H121  1  0.153900  0.724100  0.220100  1
  H  H122  1  0.346100  0.224100  0.279900  1
  H  H123  1  0.846100  0.275900  0.779900  1
  H  H124  1  0.653900  0.775900  0.720100  1
  H  H125  1  0.126900  0.714800  0.267100  1
  H  H126  1  0.373100  0.214800  0.232900  1
  H  H127  1  0.873100  0.285200  0.732900  1
  H  H128  1  0.626900  0.785200  0.767100  1
  H  H129  1  0.167000  0.653000  0.296500  1
  H  H130  1  0.333000  0.153000  0.203500  1
  H  H131  1  0.833000  0.347000  0.703500  1
  H  H132  1  0.667000  0.847000  0.796500  1
  H  H133  1  0.238800  0.607800  0.279000  1
  H  H134  1  0.261200  0.107800  0.221000  1
  H  H135  1  0.761200  0.392200  0.721000  1
  H  H136  1  0.738800  0.892200  0.779000  1
  H  H137  1  0.306000  0.589300  0.237100  1
  H  H138  1  0.194000  0.089300  0.262900  1
  H  H139  1  0.694000  0.410700  0.762900  1
  H  H140  1  0.806000  0.910700  0.737100  1
  H  H141  1  0.294100  0.571000  0.158700  1
  H  H142  1  0.205900  0.071000  0.341300  1
  H  H143  1  0.705900  0.429000  0.841300  1
  H  H144  1  0.794100  0.929000  0.658700  1
  H  H145  1  0.376800  0.536900  0.139200  1
  H  H146  1  0.123200  0.036900  0.360800  1
  H  H147  1  0.623200  0.463100  0.860800  1
  H  H148  1  0.876800  0.963100  0.639200  1
  H  H149  1  0.476600  0.544000  0.163400  1
  H  H150  1  0.023400  0.044000  0.336600  1
  H  H151  1  0.523400  0.456000  0.836600  1
  H  H152  1  0.976600  0.956000  0.663400  1
  H  H153  1  0.419900  0.634900  0.220000  1
  H  H154  1  0.080100  0.134900  0.280000  1
  H  H155  1  0.580100  0.365100  0.780000  1
  H  H156  1  0.919900  0.865100  0.720000  1
  H  H157  1  0.565700  0.581500  0.172700  1
  H  H158  1  0.934300  0.081500  0.327300  1
  H  H159  1  0.434300  0.418500  0.827300  1
  H  H160  1  0.065700  0.918500  0.672700  1
  H  H161  1  0.505700  0.614500  0.249200  1
  H  H162  1  0.994300  0.114500  0.250800  1
  H  H163  1  0.494300  0.385500  0.750800  1
  H  H164  1  0.005700  0.885500  0.749200  1
  H  H165  1  0.851400  0.639100  0.231700  1
  H  H166  1  0.648600  0.139100  0.268300  1
  H  H167  1  0.148600  0.360900  0.768300  1
  H  H168  1  0.351400  0.860900  0.731700  1
  H  H169  1  0.786800  0.679800  0.306400  1
  H  H170  1  0.713200  0.179800  0.193600  1
  H  H171  1  0.213200  0.320200  0.693600  1
  H  H172  1  0.286800  0.820200  0.806400  1
  H  H173  1  0.680400  0.585400  0.169100  1
  H  H174  1  0.819600  0.085400  0.330900  1
  H  H175  1  0.319600  0.414600  0.830900  1
  H  H176  1  0.180400  0.914600  0.669100  1
  H  H177  1  0.779200  0.601000  0.190800  1
  H  H178  1  0.720800  0.101000  0.309200  1
  H  H179  1  0.220800  0.399000  0.809200  1
  H  H180  1  0.279200  0.899000  0.690800  1
  H  H181  1  0.579400  0.641900  0.293000  1
  H  H182  1  0.920600  0.141900  0.207000  1
  H  H183  1  0.420600  0.358100  0.707000  1
  H  H184  1  0.079400  0.858100  0.793000  1
  H  H185  1  0.677300  0.665300  0.312500  1
  H  H186  1  0.822700  0.165300  0.187500  1
  H  H187  1  0.322700  0.334700  0.687500  1
  H  H188  1  0.177300  0.834700  0.812500  1
  H  H189  1  0.941800  0.628000  0.267900  1
  H  H190  1  0.558200  0.128000  0.232100  1
  H  H191  1  0.058200  0.372000  0.732100  1
  H  H192  1  0.441800  0.872000  0.767900  1
  H  H193  1  0.038300  0.657200  0.286200  1
  H  H194  1  0.461700  0.157200  0.213800  1
  H  H195  1  0.961700  0.342800  0.713800  1
  H  H196  1  0.538300  0.842800  0.786200  1
  H  H197  1  0.050700  0.724800  0.312100  1
  H  H198  1  0.449300  0.224800  0.187900  1
  H  H199  1  0.949300  0.275200  0.687900  1
  H  H200  1  0.550700  0.775200  0.812100  1
  H  H201  1  0.863100  0.733500  0.305200  1
  H  H202  1  0.636900  0.233500  0.194800  1
  H  H203  1  0.136900  0.266500  0.694800  1
  H  H204  1  0.363100  0.766500  0.805200  1
  H  H205  1  0.972300  0.811600  0.293200  1
  H  H206  1  0.527700  0.311600  0.206800  1
  H  H207  1  0.027700  0.188400  0.706800  1
  H  H208  1  0.472300  0.688400  0.793200  1
  H  H209  1  0.976100  0.900600  0.297500  1
  H  H210  1  0.523900  0.400600  0.202500  1
  H  H211  1  0.023900  0.099400  0.702500  1
  H  H212  1  0.476100  0.599400  0.797500  1
  H  H213  1  0.979700  0.963300  0.328700  1
  H  H214  1  0.520300  0.463300  0.171300  1
  H  H215  1  0.020300  0.036700  0.671300  1
  H  H216  1  0.479700  0.536700  0.828700  1
  H  H217  1  0.984800  0.952500  0.379900  1
  H  H218  1  0.515200  0.452500  0.120100  1
  H  H219  1  0.015200  0.047500  0.620100  1
  H  H220  1  0.484800  0.547500  0.879900  1
  H  H221  1  0.986900  0.879800  0.399300  1
  H  H222  1  0.513100  0.379800  0.100700  1
  H  H223  1  0.013100  0.120200  0.600700  1
  H  H224  1  0.486900  0.620200  0.899300  1
  H  H225  1  0.132000  0.709600  0.142100  1
  H  H226  1  0.368000  0.209600  0.357900  1
  H  H227  1  0.868000  0.290400  0.857900  1
  H  H228  1  0.632000  0.790400  0.642100  1
  H  H229  1  0.084800  0.777900  0.127100  1
  H  H230  1  0.415200  0.277900  0.372900  1
  H  H231  1  0.915200  0.222100  0.872900  1
  H  H232  1  0.584800  0.722100  0.627100  1
  H  H233  1  0.125000  0.844400  0.149100  1
  H  H234  1  0.375000  0.344400  0.350900  1
  H  H235  1  0.875000  0.155600  0.850900  1
  H  H236  1  0.625000  0.655600  0.649100  1
  H  H237  1  0.210100  0.842500  0.185700  1
  H  H238  1  0.289900  0.342500  0.314300  1
  H  H239  1  0.789900  0.157500  0.814300  1
  H  H240  1  0.710100  0.657500  0.685700  1
  H  H241  1  0.304500  0.793300  0.212800  1
  H  H242  1  0.195500  0.293300  0.287200  1
  H  H243  1  0.695500  0.206700  0.787200  1
  H  H244  1  0.804500  0.706700  0.712800  1
  H  H245  1  0.337800  0.695400  0.260600  1
  H  H246  1  0.162200  0.195400  0.239400  1
  H  H247  1  0.662200  0.304600  0.739400  1
  H  H248  1  0.837800  0.804600  0.760600  1
  H  H249  1  0.438100  0.687800  0.287100  1
  H  H250  1  0.061900  0.187800  0.212900  1
  H  H251  1  0.561900  0.312200  0.712900  1
  H  H252  1  0.938100  0.812200  0.787100  1
  H  H253  1  0.522500  0.713600  0.267600  1
  H  H254  1  0.977500  0.213600  0.232400  1
  H  H255  1  0.477500  0.286400  0.732400  1
  H  H256  1  0.022500  0.786400  0.767600  1
  H  H257  1  0.411300  0.751200  0.192300  1
  H  H258  1  0.088700  0.251200  0.307700  1
  H  H259  1  0.588700  0.248800  0.807700  1
  H  H260  1  0.911300  0.748800  0.692300  1
  H  H261  1  0.597900  0.720800  0.239700  1
  H  H262  1  0.902100  0.220800  0.260300  1
  H  H263  1  0.402100  0.279200  0.760300  1
  H  H264  1  0.097900  0.779200  0.739700  1
  H  H265  1  0.476700  0.798200  0.186600  1
  H  H266  1  0.023300  0.298200  0.313400  1
  H  H267  1  0.523300  0.201800  0.813400  1
  H  H268  1  0.976700  0.701800  0.686600  1
  H  H269  1  0.823000  0.794700  0.169900  1
  H  H270  1  0.677000  0.294700  0.330100  1
  H  H271  1  0.177000  0.205300  0.830100  1
  H  H272  1  0.323000  0.705300  0.669900  1
  H  H273  1  0.696100  0.864700  0.113500  1
  H  H274  1  0.803900  0.364700  0.386500  1
  H  H275  1  0.303900  0.135300  0.886500  1
  H  H276  1  0.196100  0.635300  0.613500  1
  H  H277  1  0.713100  0.724600  0.235800  1
  H  H278  1  0.786900  0.224600  0.264200  1
  H  H279  1  0.286900  0.275400  0.764200  1
  H  H280  1  0.213100  0.775400  0.735800  1
  H  H281  1  0.789800  0.752000  0.213000  1
  H  H282  1  0.710200  0.252000  0.287000  1
  H  H283  1  0.210200  0.248000  0.787000  1
  H  H284  1  0.289800  0.748000  0.713000  1
  H  H285  1  0.510500  0.848600  0.149300  1
  H  H286  1  0.989500  0.348600  0.350700  1
  H  H287  1  0.489500  0.151400  0.850700  1
  H  H288  1  0.010500  0.651400  0.649300  1
  H  H289  1  0.588000  0.873200  0.124800  1
  H  H290  1  0.912000  0.373200  0.375200  1
  H  H291  1  0.412000  0.126800  0.875200  1
  H  H292  1  0.088000  0.626800  0.624800  1
  H  H293  1  0.890300  0.850000  0.153200  1
  H  H294  1  0.609700  0.350000  0.346800  1
  H  H295  1  0.109700  0.150000  0.846800  1
  H  H296  1  0.390300  0.650000  0.653200  1
  H  H297  1  0.962300  0.866200  0.122300  1
  H  H298  1  0.537700  0.366200  0.377700  1
  H  H299  1  0.037700  0.133800  0.877700  1
  H  H300  1  0.462300  0.633800  0.622300  1
  H  H301  1  0.933900  0.874000  0.071600  1
  H  H302  1  0.566100  0.374000  0.428400  1
  H  H303  1  0.066100  0.126000  0.928400  1
  H  H304  1  0.433900  0.626000  0.571600  1
  H  H305  1  0.757300  0.843200  0.079900  1
  H  H306  1  0.742700  0.343200  0.420100  1
  H  H307  1  0.242700  0.156800  0.920100  1
  H  H308  1  0.257300  0.656800  0.579900  1
  H  H309  1  0.857100  0.802300  0.032800  1
  H  H310  1  0.642900  0.302300  0.467200  1
  H  H311  1  0.142900  0.197700  0.967200  1
  H  H312  1  0.357100  0.697700  0.532800  1
  H  H313  1  0.844900  0.768400  0.979100  1
  H  H314  1  0.655100  0.268400  0.520900  1
  H  H315  1  0.155100  0.231600  0.020900  1
  H  H316  1  0.344900  0.731600  0.479100  1
  H  H317  1  0.812400  0.779000  0.928300  1
  H  H318  1  0.687600  0.279000  0.571700  1
  H  H319  1  0.187600  0.221000  0.071700  1
  H  H320  1  0.312400  0.721000  0.428300  1
  H  H321  1  0.764800  0.847300  0.911700  1
  H  H322  1  0.735200  0.347300  0.588300  1
  H  H323  1  0.235200  0.152700  0.088300  1
  H  H324  1  0.264800  0.652700  0.411700  1
  H  H325  1  0.761200  0.905600  0.945500  1
  H  H326  1  0.738800  0.405600  0.554500  1
  H  H327  1  0.238800  0.094400  0.054500  1
  H  H328  1  0.261200  0.594400  0.445500  1
  H  H329  1  0.844300  0.995800  0.980800  1
  H  H330  1  0.655700  0.495800  0.519200  1
  H  H331  1  0.155700  0.004200  0.019200  1
  H  H332  1  0.344300  0.504200  0.480800  1
  H  H333  1  0.796000  0.045300  0.943900  1
  H  H334  1  0.704000  0.545300  0.556100  1
  H  H335  1  0.204000  0.954700  0.056100  1
  H  H336  1  0.296000  0.454700  0.443900  1
  H  H337  1  0.689800  0.049900  0.933000  1
  H  H338  1  0.810200  0.549900  0.567000  1
  H  H339  1  0.310200  0.950100  0.067000  1
  H  H340  1  0.189800  0.450100  0.433000  1
  H  H341  1  0.629200  0.002100  0.957200  1
  H  H342  1  0.870800  0.502100  0.542800  1
  H  H343  1  0.370800  0.997900  0.042800  1
  H  H344  1  0.129200  0.497900  0.457200  1
  H  H345  1  0.625200  0.934200  0.992800  1
  H  H346  1  0.874800  0.434200  0.507200  1
  H  H347  1  0.374800  0.065800  0.007200  1
  H  H348  1  0.125200  0.565800  0.492800  1
  H  H349  1  0.616300  0.923400  0.045700  1
  H  H350  1  0.883700  0.423400  0.454300  1
  H  H351  1  0.383700  0.076600  0.954300  1
  H  H352  1  0.116300  0.576600  0.545700  1
  H  H353  1  0.565000  0.872900  0.072300  1
  H  H354  1  0.935000  0.372900  0.427700  1
  H  H355  1  0.435000  0.127100  0.927700  1
  H  H356  1  0.065000  0.627100  0.572300  1
  H  H357  1  0.583500  0.796800  0.070700  1
  H  H358  1  0.916500  0.296800  0.429300  1
  H  H359  1  0.416500  0.203200  0.929300  1
  H  H360  1  0.083500  0.703200  0.570700  1
  H  H361  1  0.712200  0.820400  0.016400  1
  H  H362  1  0.787800  0.320400  0.483600  1
  H  H363  1  0.287800  0.179600  0.983600  1
  H  H364  1  0.212200  0.679600  0.516400  1
  H  H365  1  0.756000  0.760700  0.040300  1
  H  H366  1  0.744000  0.260700  0.459700  1
  H  H367  1  0.244000  0.239300  0.959700  1
  H  H368  1  0.256000  0.739300  0.540300  1
  H  H369  1  0.577200  0.726800  0.041700  1
  H  H370  1  0.922800  0.226800  0.458300  1
  H  H371  1  0.422800  0.273200  0.958300  1
  H  H372  1  0.077200  0.773200  0.541700  1
  H  H373  1  0.828900  0.546800  0.034900  1
  H  H374  1  0.671100  0.046800  0.465100  1
  H  H375  1  0.171100  0.453200  0.965100  1
  H  H376  1  0.328900  0.953200  0.534900  1
  H  H377  1  0.651900  0.511500  0.040200  1
  H  H378  1  0.848100  0.011500  0.459800  1
  H  H379  1  0.348100  0.488500  0.959800  1
  H  H380  1  0.151900  0.988500  0.540200  1
  H  H381  1  0.836300  0.701400  0.036600  1
  H  H382  1  0.663700  0.201400  0.463400  1
  H  H383  1  0.163700  0.298600  0.963400  1
  H  H384  1  0.336300  0.798600  0.536600  1
  H  H385  1  0.861900  0.626400  0.037900  1
  H  H386  1  0.638100  0.126400  0.462100  1
  H  H387  1  0.138100  0.373600  0.962100  1
  H  H388  1  0.361900  0.873600  0.537900  1
  H  H389  1  0.545400  0.645500  0.040900  1
  H  H390  1  0.954600  0.145500  0.459100  1
  H  H391  1  0.454600  0.354500  0.959100  1
  H  H392  1  0.045400  0.854500  0.540900  1
  H  H393  1  0.569800  0.571600  0.037500  1
  H  H394  1  0.930200  0.071600  0.462500  1
  H  H395  1  0.430200  0.428400  0.962500  1
  H  H396  1  0.069800  0.928400  0.537500  1
  H  H397  1  0.687200  0.443100  0.021600  1
  H  H398  1  0.812800  0.943100  0.478400  1
  H  H399  1  0.312800  0.556900  0.978400  1
  H  H400  1  0.187200  0.056900  0.521600  1
  H  H401  1  0.722700  0.370400  0.028700  1
  H  H402  1  0.777300  0.870400  0.471300  1
  H  H403  1  0.277300  0.629600  0.971300  1
  H  H404  1  0.222700  0.129600  0.528700  1
  H  H405  1  0.818800  0.354100  0.056800  1
  H  H406  1  0.681200  0.854100  0.443200  1
  H  H407  1  0.181200  0.645900  0.943200  1
  H  H408  1  0.318800  0.145900  0.556800  1
  H  H409  1  0.848800  0.488400  0.067200  1
  H  H410  1  0.651200  0.988400  0.432800  1
  H  H411  1  0.151200  0.511600  0.932800  1
  H  H412  1  0.348800  0.011600  0.567200  1
  H  H413  1  0.948200  0.435700  0.052300  1
  H  H414  1  0.551800  0.935700  0.447700  1
  H  H415  1  0.051800  0.564300  0.947700  1
  H  H416  1  0.448200  0.064300  0.552300  1
  H  H417  1  0.069100  0.439100  0.062100  1
  H  H418  1  0.430900  0.939100  0.437900  1
  H  H419  1  0.930900  0.560900  0.937900  1
  H  H420  1  0.569100  0.060900  0.562100  1
  H  H421  1  0.161100  0.424100  0.094600  1
  H  H422  1  0.338900  0.924100  0.405400  1
  H  H423  1  0.838900  0.575900  0.905400  1
  H  H424  1  0.661100  0.075900  0.594600  1
  H  H425  1  0.153100  0.395100  0.141300  1
  H  H426  1  0.346900  0.895100  0.358700  1
  H  H427  1  0.846900  0.604900  0.858700  1
  H  H428  1  0.653100  0.104900  0.641300  1
  H  H429  1  0.057400  0.381600  0.155900  1
  H  H430  1  0.442600  0.881600  0.344100  1
  H  H431  1  0.942600  0.618400  0.844100  1
  H  H432  1  0.557400  0.118400  0.655900  1
  H  H433  1  0.906400  0.896700  0.982500  1
  H  H434  1  0.593600  0.396700  0.517500  1
  H  H435  1  0.093600  0.103300  0.017500  1
  H  H436  1  0.406400  0.603300  0.482500  1
  H  H437  1  0.011000  0.915300  0.988300  1
  H  H438  1  0.489000  0.415300  0.511700  1
  H  H439  1  0.989000  0.084700  0.011700  1
  H  H440  1  0.511000  0.584700  0.488300  1
  H  H441  1  0.052300  0.960000  0.029800  1
  H  H442  1  0.447700  0.460000  0.470200  1
  H  H443  1  0.947700  0.040000  0.970200  1
  H  H444  1  0.552300  0.540000  0.529800  1
  H  H445  1  0.985000  0.989000  0.060000  1
  H  H446  1  0.515000  0.489000  0.440000  1
  H  H447  1  0.015000  0.011000  0.940000  1
  H  H448  1  0.485000  0.511000  0.560000  1
  H  H449  1  0.870400  0.992600  0.072100  1
  H  H450  1  0.629600  0.492600  0.427900  1
  H  H451  1  0.129600  0.007400  0.927900  1
  H  H452  1  0.370400  0.507400  0.572100  1
  H  H453  1  0.709900  0.012300  0.034900  1
  H  H454  1  0.790100  0.512300  0.465100  1
  H  H455  1  0.290100  0.987700  0.965100  1
  H  H456  1  0.209900  0.487700  0.534900  1
  H  H457  1  0.641600  0.038700  0.066300  1
  H  H458  1  0.858400  0.538700  0.433700  1
  H  H459  1  0.358400  0.961300  0.933700  1
  H  H460  1  0.141600  0.461300  0.566300  1
  H  H461  1  0.647600  0.012500  0.114200  1
  H  H462  1  0.852400  0.512500  0.385800  1
  H  H463  1  0.352400  0.987500  0.885800  1
  H  H464  1  0.147600  0.487500  0.614200  1
  H  H465  1  0.796900  0.937400  0.103700  1
  H  H466  1  0.703100  0.437400  0.396300  1
  H  H467  1  0.203100  0.062600  0.896300  1
  H  H468  1  0.296900  0.562600  0.603700  1
  H  H469  1  0.641500  0.960700  0.150300  1
  H  H470  1  0.858500  0.460700  0.349700  1
  H  H471  1  0.358500  0.039300  0.849700  1
  H  H472  1  0.141500  0.539300  0.650300  1
  H  H473  1  0.825800  0.952100  0.152500  1
  H  H474  1  0.674200  0.452100  0.347500  1
  H  H475  1  0.174200  0.047900  0.847500  1
  H  H476  1  0.325800  0.547900  0.652500  1
  H  H477  1  0.667000  0.846700  0.276400  1
  H  H478  1  0.833000  0.346700  0.223600  1
  H  H479  1  0.333000  0.153300  0.723600  1
  H  H480  1  0.167000  0.653300  0.776400  1
  H  H481  1  0.853500  0.842600  0.279400  1
  H  H482  1  0.646500  0.342600  0.220600  1
  H  H483  1  0.146500  0.157400  0.720600  1
  H  H484  1  0.353500  0.657400  0.779400  1
  H  H485  1  0.591400  0.929200  0.192400  1
  H  H486  1  0.908600  0.429200  0.307600  1
  H  H487  1  0.408600  0.070800  0.807600  1
  H  H488  1  0.091400  0.570800  0.692400  1
  H  H489  1  0.599600  0.886700  0.233700  1
  H  H490  1  0.900400  0.386700  0.266300  1
  H  H491  1  0.400400  0.113300  0.766300  1
  H  H492  1  0.099600  0.613300  0.733700  1
  H  H493  1  0.893500  0.917400  0.195800  1
  H  H494  1  0.606500  0.417400  0.304200  1
  H  H495  1  0.106500  0.082600  0.804200  1
  H  H496  1  0.393500  0.582600  0.695800  1
  H  H497  1  0.901300  0.878500  0.239300  1
  H  H498  1  0.598700  0.378500  0.260700  1
  H  H499  1  0.098700  0.121500  0.760700  1
  H  H500  1  0.401300  0.621500  0.739300  1
  H  H501  1  0.686300  0.775900  0.300300  1
  H  H502  1  0.813700  0.275900  0.199700  1
  H  H503  1  0.313700  0.224100  0.699700  1
  H  H504  1  0.186300  0.724100  0.800300  1
  H  H505  1  0.702600  0.728800  0.341500  1
  H  H506  1  0.797400  0.228800  0.158500  1
  H  H507  1  0.297400  0.271200  0.658500  1
  H  H508  1  0.202600  0.771200  0.841500  1
  H  H509  1  0.793800  0.734000  0.375400  1
  H  H510  1  0.706200  0.234000  0.124600  1
  H  H511  1  0.206200  0.266000  0.624600  1
  H  H512  1  0.293800  0.766000  0.875400  1
  H  H513  1  0.850700  0.837400  0.328600  1
  H  H514  1  0.649300  0.337400  0.171400  1
  H  H515  1  0.149300  0.162600  0.671400  1
  H  H516  1  0.350700  0.662600  0.828600  1
  H  H517  1  0.837600  0.810200  0.408500  1
  H  H518  1  0.662400  0.310200  0.091500  1
  H  H519  1  0.162400  0.189800  0.591500  1
  H  H520  1  0.337600  0.689800  0.908500  1
  H  H521  1  0.892500  0.822800  0.463000  1
  H  H522  1  0.607500  0.322800  0.037000  1
  H  H523  1  0.107500  0.177200  0.537000  1
  H  H524  1  0.392500  0.677200  0.963000  1
  H  H525  1  0.988900  0.822900  0.495800  1
  H  H526  1  0.511100  0.322900  0.004200  1
  H  H527  1  0.011100  0.177100  0.504200  1
  H  H528  1  0.488900  0.677100  0.995800  1
  H  H529  1  0.081000  0.825100  0.473800  1
  H  H530  1  0.419000  0.325100  0.026200  1
  H  H531  1  0.919000  0.174900  0.526200  1
  H  H532  1  0.581000  0.674900  0.973800  1
  H  H533  1  0.076400  0.782400  0.429400  1
  H  H534  1  0.423600  0.282400  0.070600  1
  H  H535  1  0.923600  0.217600  0.570600  1
  H  H536  1  0.576400  0.717600  0.929400  1
  H  H537  1  0.004800  0.319300  0.098000  1
  H  H538  1  0.495200  0.819300  0.402000  1
  H  H539  1  0.995200  0.680700  0.902000  1
  H  H540  1  0.504800  0.180700  0.598000  1
  H  H541  1  0.990600  0.245800  0.078900  1
  H  H542  1  0.509400  0.745800  0.421100  1
  H  H543  1  0.009400  0.754200  0.921100  1
  H  H544  1  0.490600  0.254200  0.578900  1
  H  H545  1  0.895200  0.209700  0.079500  1
  H  H546  1  0.604800  0.709700  0.420500  1
  H  H547  1  0.104800  0.790300  0.920500  1
  H  H548  1  0.395200  0.290300  0.579500  1
  H  H549  1  0.815900  0.246700  0.097200  1
  H  H550  1  0.684100  0.746700  0.402800  1
  H  H551  1  0.184100  0.753300  0.902800  1
  H  H552  1  0.315900  0.253300  0.597200  1
  H  H553  1  0.776400  0.321200  0.119300  1
  H  H554  1  0.723600  0.821200  0.380700  1
  H  H555  1  0.223600  0.678800  0.880700  1
  H  H556  1  0.276400  0.178800  0.619300  1
  H  H557  1  0.722500  0.396900  0.098400  1
  H  H558  1  0.777500  0.896900  0.401600  1
  H  H559  1  0.277500  0.603100  0.901600  1
  H  H560  1  0.222500  0.103100  0.598400  1
  H  H561  1  0.644800  0.437600  0.116000  1
  H  H562  1  0.855200  0.937600  0.384000  1
  H  H563  1  0.355200  0.562400  0.884000  1
  H  H564  1  0.144800  0.062400  0.616000  1
  H  H565  1  0.663200  0.470600  0.162700  1
  H  H566  1  0.836800  0.970600  0.337300  1
  H  H567  1  0.336800  0.529400  0.837300  1
  H  H568  1  0.163200  0.029400  0.662700  1
  H  H569  1  0.833900  0.413900  0.177400  1
  H  H570  1  0.666100  0.913900  0.322600  1
  H  H571  1  0.166100  0.586100  0.822600  1
  H  H572  1  0.333900  0.086100  0.677400  1
  H  H573  1  0.677300  0.472900  0.214000  1
  H  H574  1  0.822700  0.972900  0.286000  1
  H  H575  1  0.322700  0.527100  0.786000  1
  H  H576  1  0.177300  0.027100  0.714000  1
  H  H577  1  0.858700  0.468700  0.206000  1
  H  H578  1  0.641300  0.968700  0.294000  1
  H  H579  1  0.141300  0.531300  0.794000  1
  H  H580  1  0.358700  0.031300  0.706000  1
  H  H581  1  0.752200  0.584300  0.340600  1
  H  H582  1  0.747800  0.084300  0.159400  1
  H  H583  1  0.247800  0.415700  0.659400  1
  H  H584  1  0.252200  0.915700  0.840600  1
  H  H585  1  0.933400  0.577300  0.331800  1
  H  H586  1  0.566600  0.077300  0.168200  1
  H  H587  1  0.066600  0.422700  0.668200  1
  H  H588  1  0.433400  0.922700  0.831800  1
  H  H589  1  0.645400  0.510300  0.259900  1
  H  H590  1  0.854600  0.010300  0.240100  1
  H  H591  1  0.354600  0.489700  0.740100  1
  H  H592  1  0.145400  0.989700  0.759900  1
  H  H593  1  0.672100  0.547500  0.303900  1
  H  H594  1  0.827900  0.047500  0.196100  1
  H  H595  1  0.327900  0.452500  0.696100  1
  H  H596  1  0.172100  0.952500  0.803900  1
  H  H597  1  0.939400  0.501000  0.243900  1
  H  H598  1  0.560600  0.001000  0.256100  1
  H  H599  1  0.060600  0.499000  0.756100  1
  H  H600  1  0.439400  0.999000  0.743900  1
  H  H601  1  0.965300  0.537300  0.288300  1
  H  H602  1  0.534700  0.037300  0.211700  1
  H  H603  1  0.034700  0.462700  0.711700  1
  H  H604  1  0.465300  0.962700  0.788300  1
  H  H605  1  0.797400  0.606900  0.390900  1
  H  H606  1  0.702600  0.106900  0.109100  1
  H  H607  1  0.202600  0.393100  0.609100  1
  H  H608  1  0.297400  0.893100  0.890900  1
  H  H609  1  0.829300  0.658400  0.427400  1
  H  H610  1  0.670700  0.158400  0.072600  1
  H  H611  1  0.170700  0.341600  0.572600  1
  H  H612  1  0.329300  0.841600  0.927400  1
  H  H613  1  0.905300  0.711100  0.422600  1
  H  H614  1  0.594700  0.211100  0.077400  1
  H  H615  1  0.094700  0.288900  0.577400  1
  H  H616  1  0.405300  0.788900  0.922600  1
  H  H617  1  0.933300  0.650600  0.346000  1
  H  H618  1  0.566700  0.150600  0.154000  1
  H  H619  1  0.066700  0.349400  0.654000  1
  H  H620  1  0.433300  0.849400  0.846000  1
  H  H621  1  0.033700  0.665800  0.382000  1
  H  H622  1  0.466300  0.165800  0.118000  1
  H  H623  1  0.966300  0.334200  0.618000  1
  H  H624  1  0.533700  0.834200  0.882000  1
  H  H625  1  0.150900  0.680500  0.376200  1
  H  H626  1  0.349100  0.180500  0.123800  1
  H  H627  1  0.849100  0.319500  0.623800  1
  H  H628  1  0.650900  0.819500  0.876200  1
  H  H629  1  0.226400  0.734000  0.369800  1
  H  H630  1  0.273600  0.234000  0.130200  1
  H  H631  1  0.773600  0.266000  0.630200  1
  H  H632  1  0.726400  0.766000  0.869800  1
  H  H633  1  0.198400  0.809600  0.363400  1
  H  H634  1  0.301600  0.309600  0.136600  1
  H  H635  1  0.801600  0.190400  0.636600  1
  H  H636  1  0.698400  0.690400  0.863400  1
  H  H637  1  0.095000  0.830900  0.363800  1
  H  H638  1  0.405000  0.330900  0.136200  1
  H  H639  1  0.905000  0.169100  0.636200  1
  H  H640  1  0.595000  0.669100  0.863800  1
  H  H641  1  0.007300  0.545800  0.224200  1
  H  H642  1  0.492700  0.045800  0.275800  1
  H  H643  1  0.992700  0.454200  0.775800  1
  H  H644  1  0.507300  0.954200  0.724200  1
  H  H645  1  0.917100  0.554000  0.189200  1
  H  H646  1  0.582900  0.054000  0.310800  1
  H  H647  1  0.082900  0.446000  0.810800  1
  H  H648  1  0.417100  0.946000  0.689200  1
  H  H649  1  0.891700  0.624300  0.167300  1
  H  H650  1  0.608300  0.124300  0.332700  1
  H  H651  1  0.108300  0.375700  0.832700  1
  H  H652  1  0.391700  0.875700  0.667300  1
  H  H653  1  0.956300  0.686400  0.180400  1
  H  H654  1  0.543700  0.186400  0.319600  1
  H  H655  1  0.043700  0.313600  0.819600  1
  H  H656  1  0.456300  0.813600  0.680400  1
  H  H657  1  0.046500  0.678200  0.215400  1
  H  H658  1  0.453500  0.178200  0.284600  1
  H  H659  1  0.953500  0.321800  0.784600  1
  H  H660  1  0.546500  0.821800  0.715400  1
  H  H661  1  0.072000  0.607900  0.237300  1
  H  H662  1  0.428000  0.107900  0.262700  1
  H  H663  1  0.928000  0.392100  0.762700  1
  H  H664  1  0.572000  0.892100  0.737300  1
  H  H665  1  0.131100  0.674900  0.060400  1
  H  H666  1  0.368900  0.174900  0.439600  1
  H  H667  1  0.868900  0.325100  0.939600  1
  H  H668  1  0.631100  0.825100  0.560400  1
  H  H669  1  0.188400  0.618900  0.040500  1
  H  H670  1  0.311600  0.118900  0.459500  1
  H  H671  1  0.811600  0.381100  0.959500  1
  H  H672  1  0.688400  0.881100  0.540500  1
  H  H673  1  0.293100  0.631200  0.036700  1
  H  H674  1  0.206900  0.131200  0.463300  1
  H  H675  1  0.706900  0.368800  0.963300  1
  H  H676  1  0.793100  0.868800  0.536700  1
  H  H677  1  0.340500  0.699500  0.052900  1
  H  H678  1  0.159500  0.199500  0.447100  1
  H  H679  1  0.659500  0.300500  0.947100  1
  H  H680  1  0.840500  0.800500  0.552900  1
  H  H681  1  0.283300  0.755500  0.072800  1
  H  H682  1  0.216700  0.255500  0.427200  1
  H  H683  1  0.716700  0.244500  0.927200  1
  H  H684  1  0.783300  0.744500  0.572800  1
  H  H685  1  0.178500  0.743200  0.076500  1
  H  H686  1  0.321500  0.243200  0.423500  1
  H  H687  1  0.821500  0.256800  0.923500  1
  H  H688  1  0.678500  0.756800  0.576500  1
  H  H689  1  0.672900  0.124900  0.992100  1
  H  H690  1  0.827100  0.624900  0.507900  1
  H  H691  1  0.327100  0.875100  0.007900  1
  H  H692  1  0.172900  0.375100  0.492100  1
  H  H693  1  0.662500  0.190300  0.019800  1
  H  H694  1  0.837500  0.690300  0.480200  1
  H  H695  1  0.337500  0.809700  0.980200  1
  H  H696  1  0.162500  0.309700  0.519800  1
  H  H697  1  0.596900  0.248400  0.999200  1
  H  H698  1  0.903100  0.748400  0.500800  1
  H  H699  1  0.403100  0.751600  0.000800  1
  H  H700  1  0.096900  0.251600  0.499200  1
  H  H701  1  0.541600  0.241100  0.951000  1
  H  H702  1  0.958400  0.741100  0.549000  1
  H  H703  1  0.458400  0.758900  0.049000  1
  H  H704  1  0.041600  0.258900  0.451000  1
  H  H705  1  0.552000  0.175700  0.923300  1
  H  H706  1  0.948000  0.675700  0.576700  1
  H  H707  1  0.448000  0.824300  0.076700  1
  H  H708  1  0.052000  0.324300  0.423300  1
  H  H709  1  0.617600  0.117600  0.943900  1
  H  H710  1  0.882400  0.617600  0.556100  1
  H  H711  1  0.382400  0.882400  0.056100  1
  H  H712  1  0.117600  0.382400  0.443900  1
  H  H713  1  0.735400  0.151000  0.911300  1
  H  H714  1  0.764600  0.651000  0.588700  1
  H  H715  1  0.264600  0.849000  0.088700  1
  H  H716  1  0.235400  0.349000  0.411300  1
  H  H717  1  0.727500  0.092800  0.876100  1
  H  H718  1  0.772500  0.592800  0.623900  1
  H  H719  1  0.272500  0.907200  0.123900  1
  H  H720  1  0.227500  0.407200  0.376100  1
  H  H721  1  0.816500  0.053300  0.868200  1
  H  H722  1  0.683500  0.553300  0.631800  1
  H  H723  1  0.183500  0.946700  0.131800  1
  H  H724  1  0.316500  0.446700  0.368200  1
  H  H725  1  0.913400  0.071800  0.895400  1
  H  H726  1  0.586600  0.571800  0.604600  1
  H  H727  1  0.086600  0.928200  0.104600  1
  H  H728  1  0.413400  0.428200  0.395400  1
  H  H729  1  0.921200  0.130000  0.930600  1
  H  H730  1  0.578800  0.630000  0.569400  1
  H  H731  1  0.078800  0.870000  0.069400  1
  H  H732  1  0.421200  0.370000  0.430600  1
  H  H733  1  0.832200  0.169600  0.938500  1
  H  H734  1  0.667800  0.669600  0.561500  1
  H  H735  1  0.167800  0.830400  0.061500  1
  H  H736  1  0.332200  0.330400  0.438500  1
  H  H737  1  0.724100  0.746200  0.504300  1
  H  H738  1  0.775900  0.246200  0.995700  1
  H  H739  1  0.275900  0.253800  0.495700  1
  H  H740  1  0.224100  0.753800  0.004300  1
  H  H741  1  0.674200  0.736300  0.475300  1
  H  H742  1  0.825800  0.236300  0.024700  1
  H  H743  1  0.325800  0.263700  0.524700  1
  H  H744  1  0.174200  0.763700  0.975300  1
  H  H745  1  0.682700  0.786400  0.488300  1
  H  H746  1  0.817300  0.286400  0.011700  1
  H  H747  1  0.317300  0.213600  0.511700  1
  H  H748  1  0.182700  0.713600  0.988300  1
  C  C749  1  0.145500  0.618800  0.171700  1
  C  C750  1  0.354500  0.118800  0.328300  1
  C  C751  1  0.854500  0.381200  0.828300  1
  C  C752  1  0.645500  0.881200  0.671700  1
  C  C753  1  0.110400  0.587300  0.153300  1
  C  C754  1  0.389600  0.087300  0.346700  1
  C  C755  1  0.889600  0.412700  0.846700  1
  C  C756  1  0.610400  0.912700  0.653300  1
  C  C757  1  0.125200  0.577700  0.125900  1
  C  C758  1  0.374800  0.077700  0.374100  1
  C  C759  1  0.874800  0.422300  0.874100  1
  C  C760  1  0.625200  0.922300  0.625900  1
  C  C761  1  0.173200  0.599200  0.115900  1
  C  C762  1  0.326800  0.099200  0.384100  1
  C  C763  1  0.826800  0.400800  0.884100  1
  C  C764  1  0.673200  0.900800  0.615900  1
  C  C765  1  0.206800  0.630200  0.134600  1
  C  C766  1  0.293200  0.130200  0.365400  1
  C  C767  1  0.793200  0.369800  0.865400  1
  C  C768  1  0.706800  0.869800  0.634600  1
  C  C769  1  0.260300  0.655400  0.128100  1
  C  C770  1  0.239700  0.155400  0.371900  1
  C  C771  1  0.739700  0.344600  0.871900  1
  C  C772  1  0.760300  0.844600  0.628100  1
  C  C773  1  0.338800  0.707000  0.140900  1
  C  C774  1  0.161200  0.207000  0.359100  1
  C  C775  1  0.661200  0.293000  0.859100  1
  C  C776  1  0.838800  0.793000  0.640900  1
  C  C777  1  0.331900  0.753400  0.136600  1
  C  C778  1  0.168100  0.253400  0.363400  1
  C  C779  1  0.668100  0.246600  0.863400  1
  C  C780  1  0.831900  0.746600  0.636600  1
  C  C781  1  0.381600  0.777700  0.128800  1
  C  C782  1  0.118400  0.277700  0.371200  1
  C  C783  1  0.618400  0.222300  0.871200  1
  C  C784  1  0.881600  0.722300  0.628800  1
  C  C785  1  0.436000  0.756900  0.123400  1
  C  C786  1  0.064000  0.256900  0.376600  1
  C  C787  1  0.564000  0.243100  0.876600  1
  C  C788  1  0.936000  0.743100  0.623400  1
  C  C789  1  0.443800  0.710300  0.128300  1
  C  C790  1  0.056200  0.210300  0.371700  1
  C  C791  1  0.556200  0.289700  0.871700  1
  C  C792  1  0.943800  0.789700  0.628300  1
  C  C793  1  0.394700  0.685900  0.136500  1
  C  C794  1  0.105300  0.185900  0.363500  1
  C  C795  1  0.605300  0.314100  0.863500  1
  C  C796  1  0.894700  0.814100  0.636500  1
  C  C797  1  0.501300  0.688100  0.122700  1
  C  C798  1  0.998700  0.188100  0.377300  1
  C  C799  1  0.498700  0.311900  0.877300  1
  C  C800  1  0.001300  0.811900  0.622700  1
  C  C801  1  0.556200  0.711200  0.124800  1
  C  C802  1  0.943800  0.211200  0.375200  1
  C  C803  1  0.443800  0.288800  0.875200  1
  C  C804  1  0.056200  0.788800  0.624800  1
  C  C805  1  0.612700  0.691800  0.120900  1
  C  C806  1  0.887300  0.191800  0.379100  1
  C  C807  1  0.387300  0.308200  0.879100  1
  C  C808  1  0.112700  0.808200  0.620900  1
  C  C809  1  0.614200  0.644100  0.116200  1
  C  C810  1  0.885800  0.144100  0.383800  1
  C  C811  1  0.385800  0.355900  0.883800  1
  C  C812  1  0.114200  0.855900  0.616200  1
  C  C813  1  0.558800  0.619700  0.114200  1
  C  C814  1  0.941200  0.119700  0.385800  1
  C  C815  1  0.441200  0.380300  0.885800  1
  C  C816  1  0.058800  0.880300  0.614200  1
  C  C817  1  0.503600  0.641400  0.117100  1
  C  C818  1  0.996400  0.141400  0.382900  1
  C  C819  1  0.496400  0.358600  0.882900  1
  C  C820  1  0.003600  0.858600  0.617100  1
  C  C821  1  0.671500  0.622000  0.114100  1
  C  C822  1  0.828500  0.122000  0.385900  1
  C  C823  1  0.328500  0.378000  0.885900  1
  C  C824  1  0.171500  0.878000  0.614100  1
  C  C825  1  0.726800  0.646900  0.116100  1
  C  C826  1  0.773200  0.146900  0.383900  1
  C  C827  1  0.273200  0.353100  0.883900  1
  C  C828  1  0.226800  0.853100  0.616100  1
  C  C829  1  0.782500  0.624900  0.115700  1
  C  C830  1  0.717500  0.124900  0.384300  1
  C  C831  1  0.217500  0.375100  0.884300  1
  C  C832  1  0.282500  0.875100  0.615700  1
  C  C833  1  0.786200  0.577600  0.114100  1
  C  C834  1  0.713800  0.077600  0.385900  1
  C  C835  1  0.213800  0.422400  0.885900  1
  C  C836  1  0.286200  0.922400  0.614100  1
  C  C837  1  0.730200  0.553800  0.111100  1
  C  C838  1  0.769800  0.053800  0.388900  1
  C  C839  1  0.269800  0.446200  0.888900  1
  C  C840  1  0.230200  0.946200  0.611100  1
  C  C841  1  0.672400  0.574500  0.110700  1
  C  C842  1  0.827600  0.074500  0.389300  1
  C  C843  1  0.327600  0.425500  0.889300  1
  C  C844  1  0.172400  0.925500  0.610700  1
  C  C845  1  0.669800  0.715900  0.121200  1
  C  C846  1  0.830200  0.215900  0.378800  1
  C  C847  1  0.330200  0.284100  0.878800  1
  C  C848  1  0.169800  0.784100  0.621200  1
  C  C849  1  0.723100  0.695300  0.119100  1
  C  C850  1  0.776900  0.195300  0.380900  1
  C  C851  1  0.276900  0.304700  0.880900  1
  C  C852  1  0.223100  0.804700  0.619100  1
  C  C853  1  0.561500  0.571200  0.110100  1
  C  C854  1  0.938500  0.071200  0.389900  1
  C  C855  1  0.438500  0.428800  0.889900  1
  C  C856  1  0.061500  0.928800  0.610100  1
  C  C857  1  0.615400  0.550700  0.107900  1
  C  C858  1  0.884600  0.050700  0.392100  1
  C  C859  1  0.384600  0.449300  0.892100  1
  C  C860  1  0.115400  0.949300  0.607900  1
  C  C861  1  0.845700  0.555400  0.114700  1
  C  C862  1  0.654300  0.055400  0.385300  1
  C  C863  1  0.154300  0.444600  0.885300  1
  C  C864  1  0.345700  0.944600  0.614700  1
  C  C865  1  0.895300  0.575400  0.103600  1
  C  C866  1  0.604700  0.075400  0.396400  1
  C  C867  1  0.104700  0.424600  0.896400  1
  C  C868  1  0.395300  0.924600  0.603600  1
  C  C869  1  0.952800  0.554700  0.105800  1
  C  C870  1  0.547200  0.054700  0.394200  1
  C  C871  1  0.047200  0.445300  0.894200  1
  C  C872  1  0.452800  0.945300  0.605800  1
  C  C873  1  0.963200  0.513200  0.118400  1
  C  C874  1  0.536800  0.013200  0.381600  1
  C  C875  1  0.036800  0.486800  0.881600  1
  C  C876  1  0.463200  0.986800  0.618400  1
  C  C877  1  0.914900  0.492700  0.129700  1
  C  C878  1  0.585100  0.992700  0.370300  1
  C  C879  1  0.085100  0.507300  0.870300  1
  C  C880  1  0.414900  0.007300  0.629700  1
  C  C881  1  0.856800  0.511700  0.127600  1
  C  C882  1  0.643200  0.011700  0.372400  1
  C  C883  1  0.143200  0.488300  0.872400  1
  C  C884  1  0.356800  0.988300  0.627600  1
  C  C885  1  0.952300  0.447700  0.171100  1
  C  C886  1  0.547700  0.947700  0.328900  1
  C  C887  1  0.047700  0.552300  0.828900  1
  C  C888  1  0.452300  0.052300  0.671100  1
  C  C889  1  0.962300  0.404300  0.184300  1
  C  C890  1  0.537700  0.904300  0.315700  1
  C  C891  1  0.037700  0.595700  0.815700  1
  C  C892  1  0.462300  0.095700  0.684300  1
  C  C893  1  0.983600  0.396700  0.214700  1
  C  C894  1  0.516400  0.896700  0.285300  1
  C  C895  1  0.016400  0.603300  0.785300  1
  C  C896  1  0.483600  0.103300  0.714700  1
  C  C897  1  0.987100  0.353000  0.225300  1
  C  C898  1  0.512900  0.853000  0.274700  1
  C  C899  1  0.012900  0.647000  0.774700  1
  C  C900  1  0.487100  0.147000  0.725300  1
  C  C901  1  0.968300  0.318600  0.205900  1
  C  C902  1  0.531700  0.818600  0.294100  1
  C  C903  1  0.031700  0.681400  0.794100  1
  C  C904  1  0.468300  0.181400  0.705900  1
  C  C905  1  0.948600  0.326600  0.175600  1
  C  C906  1  0.551400  0.826600  0.324400  1
  C  C907  1  0.051400  0.673400  0.824400  1
  C  C908  1  0.448600  0.173400  0.675600  1
  C  C909  1  0.172400  0.700400  0.232400  1
  C  C910  1  0.327600  0.200400  0.267600  1
  C  C911  1  0.827600  0.299600  0.767600  1
  C  C912  1  0.672400  0.799600  0.732400  1
  C  C913  1  0.155100  0.694500  0.260200  1
  C  C914  1  0.344900  0.194500  0.239800  1
  C  C915  1  0.844900  0.305500  0.739800  1
  C  C916  1  0.655100  0.805500  0.760200  1
  C  C917  1  0.179500  0.658700  0.277700  1
  C  C918  1  0.320500  0.158700  0.222300  1
  C  C919  1  0.820500  0.341300  0.722300  1
  C  C920  1  0.679500  0.841300  0.777700  1
  C  C921  1  0.221200  0.632300  0.267200  1
  C  C922  1  0.278800  0.132300  0.232800  1
  C  C923  1  0.778800  0.367700  0.732800  1
  C  C924  1  0.721200  0.867700  0.767200  1
  C  C925  1  0.239500  0.639400  0.240000  1
  C  C926  1  0.260500  0.139400  0.260000  1
  C  C927  1  0.760500  0.360600  0.760000  1
  C  C928  1  0.739500  0.860600  0.740000  1
  C  C929  1  0.286200  0.614900  0.227300  1
  C  C930  1  0.213800  0.114900  0.272700  1
  C  C931  1  0.713800  0.385100  0.772700  1
  C  C932  1  0.786200  0.885100  0.727300  1
  C  C933  1  0.349500  0.607500  0.190300  1
  C  C934  1  0.150500  0.107500  0.309700  1
  C  C935  1  0.650500  0.392500  0.809700  1
  C  C936  1  0.849500  0.892500  0.690300  1
  C  C937  1  0.336000  0.577100  0.167100  1
  C  C938  1  0.164000  0.077100  0.332900  1
  C  C939  1  0.664000  0.422900  0.832900  1
  C  C940  1  0.836000  0.922900  0.667100  1
  C  C941  1  0.385200  0.555600  0.156400  1
  C  C942  1  0.114800  0.055600  0.343600  1
  C  C943  1  0.614800  0.444400  0.843600  1
  C  C944  1  0.885200  0.944400  0.656400  1
  C  C945  1  0.444500  0.561100  0.170000  1
  C  C946  1  0.055500  0.061100  0.330000  1
  C  C947  1  0.555500  0.438900  0.830000  1
  C  C948  1  0.944500  0.938900  0.670000  1
  C  C949  1  0.459700  0.591400  0.193700  1
  C  C950  1  0.040300  0.091400  0.306300  1
  C  C951  1  0.540300  0.408600  0.806300  1
  C  C952  1  0.959700  0.908600  0.693700  1
  C  C953  1  0.411100  0.614400  0.203900  1
  C  C954  1  0.088900  0.114400  0.296100  1
  C  C955  1  0.588900  0.385600  0.796100  1
  C  C956  1  0.911100  0.885600  0.703900  1
  C  C957  1  0.525100  0.599400  0.207700  1
  C  C958  1  0.974900  0.099400  0.292300  1
  C  C959  1  0.474900  0.400600  0.792300  1
  C  C960  1  0.025100  0.900600  0.707700  1
  C  C961  1  0.574200  0.592900  0.192400  1
  C  C962  1  0.925800  0.092900  0.307600  1
  C  C963  1  0.425800  0.407100  0.807600  1
  C  C964  1  0.074200  0.907100  0.692400  1
  C  C965  1  0.636200  0.602200  0.204600  1
  C  C966  1  0.863800  0.102200  0.295400  1
  C  C967  1  0.363800  0.397800  0.795400  1
  C  C968  1  0.136200  0.897800  0.704600  1
  C  C969  1  0.647400  0.619000  0.234600  1
  C  C970  1  0.852600  0.119000  0.265400  1
  C  C971  1  0.352600  0.381000  0.765400  1
  C  C972  1  0.147400  0.881000  0.734600  1
  C  C973  1  0.598300  0.624100  0.250900  1
  C  C974  1  0.901700  0.124100  0.249100  1
  C  C975  1  0.401700  0.375900  0.749100  1
  C  C976  1  0.098300  0.875900  0.750900  1
  C  C977  1  0.538600  0.613000  0.237700  1
  C  C978  1  0.961400  0.113000  0.262300  1
  C  C979  1  0.461400  0.387000  0.762300  1
  C  C980  1  0.038600  0.887000  0.737700  1
  C  C981  1  0.709800  0.632600  0.246600  1
  C  C982  1  0.790200  0.132600  0.253400  1
  C  C983  1  0.290200  0.367400  0.753400  1
  C  C984  1  0.209800  0.867400  0.746600  1
  C  C985  1  0.759300  0.627400  0.230600  1
  C  C986  1  0.740700  0.127400  0.269400  1
  C  C987  1  0.240700  0.372600  0.769400  1
  C  C988  1  0.259300  0.872600  0.730600  1
  C  C989  1  0.818000  0.642200  0.242800  1
  C  C990  1  0.682000  0.142200  0.257200  1
  C  C991  1  0.182000  0.357800  0.757200  1
  C  C992  1  0.318000  0.857800  0.742800  1
  C  C993  1  0.829300  0.661800  0.271200  1
  C  C994  1  0.670700  0.161800  0.228800  1
  C  C995  1  0.170700  0.338200  0.728800  1
  C  C996  1  0.329300  0.838200  0.771200  1
  C  C997  1  0.779900  0.665800  0.287300  1
  C  C998  1  0.720100  0.165800  0.212700  1
  C  C999  1  0.220100  0.334200  0.712700  1
  C  C1000  1  0.279900  0.834200  0.787300  1
  C  C1001  1  0.720400  0.649800  0.276200  1
  C  C1002  1  0.779600  0.149800  0.223800  1
  C  C1003  1  0.279600  0.350200  0.723800  1
  C  C1004  1  0.220400  0.850200  0.776200  1
  C  C1005  1  0.687500  0.596700  0.188900  1
  C  C1006  1  0.812500  0.096700  0.311100  1
  C  C1007  1  0.312500  0.403300  0.811100  1
  C  C1008  1  0.187500  0.903300  0.688900  1
  C  C1009  1  0.745800  0.607100  0.201500  1
  C  C1010  1  0.754200  0.107100  0.298500  1
  C  C1011  1  0.254200  0.392900  0.798500  1
  C  C1012  1  0.245800  0.892900  0.701500  1
  C  C1013  1  0.611700  0.640400  0.281200  1
  C  C1014  1  0.888300  0.140400  0.218800  1
  C  C1015  1  0.388300  0.359600  0.718800  1
  C  C1016  1  0.111700  0.859600  0.781200  1
  C  C1017  1  0.669800  0.653500  0.292900  1
  C  C1018  1  0.830200  0.153500  0.207100  1
  C  C1019  1  0.330200  0.346500  0.707100  1
  C  C1020  1  0.169800  0.846500  0.792900  1
  C  C1021  1  0.891100  0.678400  0.283100  1
  C  C1022  1  0.608900  0.178400  0.216900  1
  C  C1023  1  0.108900  0.321600  0.716900  1
  C  C1024  1  0.391100  0.821600  0.783100  1
  C  C1025  1  0.944800  0.655700  0.278600  1
  C  C1026  1  0.555200  0.155700  0.221400  1
  C  C1027  1  0.055200  0.344300  0.721400  1
  C  C1028  1  0.444800  0.844300  0.778600  1
  C  C1029  1  0.002400  0.673300  0.289700  1
  C  C1030  1  0.497600  0.173300  0.210300  1
  C  C1031  1  0.997600  0.326700  0.710300  1
  C  C1032  1  0.502400  0.826700  0.789700  1
  C  C1033  1  0.010500  0.712800  0.305500  1
  C  C1034  1  0.489500  0.212800  0.194500  1
  C  C1035  1  0.989500  0.287200  0.694500  1
  C  C1036  1  0.510500  0.787200  0.805500  1
  C  C1037  1  0.957100  0.734300  0.311300  1
  C  C1038  1  0.542900  0.234300  0.188700  1
  C  C1039  1  0.042900  0.265700  0.688700  1
  C  C1040  1  0.457100  0.765700  0.811300  1
  C  C1041  1  0.898700  0.718000  0.300700  1
  C  C1042  1  0.601300  0.218000  0.199300  1
  C  C1043  1  0.101300  0.282000  0.699300  1
  C  C1044  1  0.398700  0.782000  0.800700  1
  C  C1045  1  0.970600  0.812100  0.314000  1
  C  C1046  1  0.529400  0.312100  0.186000  1
  C  C1047  1  0.029400  0.187900  0.686000  1
  C  C1048  1  0.470600  0.687900  0.814000  1
  C  C1049  1  0.976300  0.853100  0.330700  1
  C  C1050  1  0.523700  0.353100  0.169300  1
  C  C1051  1  0.023700  0.146900  0.669300  1
  C  C1052  1  0.476300  0.646900  0.830700  1
  C  C1053  1  0.977300  0.896800  0.318400  1
  C  C1054  1  0.522700  0.396800  0.181600  1
  C  C1055  1  0.022700  0.103200  0.681600  1
  C  C1056  1  0.477300  0.603200  0.818400  1
  C  C1057  1  0.980000  0.933700  0.336800  1
  C  C1058  1  0.520000  0.433700  0.163200  1
  C  C1059  1  0.020000  0.066300  0.663200  1
  C  C1060  1  0.480000  0.566300  0.836800  1
  C  C1061  1  0.983000  0.927300  0.366900  1
  C  C1062  1  0.517000  0.427300  0.133100  1
  C  C1063  1  0.017000  0.072700  0.633100  1
  C  C1064  1  0.483000  0.572700  0.866900  1
  C  C1065  1  0.983400  0.883900  0.378400  1
  C  C1066  1  0.516600  0.383900  0.121600  1
  C  C1067  1  0.016600  0.116100  0.621600  1
  C  C1068  1  0.483400  0.616100  0.878400  1
  C  C1069  1  0.149200  0.736800  0.150700  1
  C  C1070  1  0.350800  0.236800  0.349300  1
  C  C1071  1  0.850800  0.263200  0.849300  1
  C  C1072  1  0.649200  0.763200  0.650700  1
  C  C1073  1  0.120600  0.777300  0.142000  1
  C  C1074  1  0.379400  0.277300  0.358000  1
  C  C1075  1  0.879400  0.222700  0.858000  1
  C  C1076  1  0.620600  0.722700  0.642000  1
  C  C1077  1  0.144300  0.816400  0.155000  1
  C  C1078  1  0.355700  0.316400  0.345000  1
  C  C1079  1  0.855700  0.183600  0.845000  1
  C  C1080  1  0.644300  0.683600  0.655000  1
  C  C1081  1  0.194800  0.815400  0.176100  1
  C  C1082  1  0.305200  0.315400  0.323900  1
  C  C1083  1  0.805200  0.184600  0.823900  1
  C  C1084  1  0.694800  0.684600  0.676100  1
  C  C1085  1  0.224600  0.774800  0.184000  1
  C  C1086  1  0.275400  0.274800  0.316000  1
  C  C1087  1  0.775400  0.225200  0.816000  1
  C  C1088  1  0.724600  0.725200  0.684000  1
  C  C1089  1  0.282700  0.768500  0.203000  1
  C  C1090  1  0.217300  0.268500  0.297000  1
  C  C1091  1  0.717300  0.231500  0.797000  1
  C  C1092  1  0.782700  0.731500  0.703000  1
  C  C1093  1  0.364500  0.723900  0.223500  1
  C  C1094  1  0.135500  0.223900  0.276500  1
  C  C1095  1  0.635500  0.276100  0.776500  1
  C  C1096  1  0.864500  0.776100  0.723500  1
  C  C1097  1  0.372600  0.705300  0.252000  1
  C  C1098  1  0.127400  0.205300  0.248000  1
  C  C1099  1  0.627400  0.294700  0.748000  1
  C  C1100  1  0.872600  0.794700  0.752000  1
  C  C1101  1  0.432200  0.701500  0.267900  1
  C  C1102  1  0.067800  0.201500  0.232100  1
  C  C1103  1  0.567800  0.298500  0.732100  1
  C  C1104  1  0.932200  0.798500  0.767900  1
  C  C1105  1  0.482200  0.717000  0.256300  1
  C  C1106  1  0.017800  0.217000  0.243700  1
  C  C1107  1  0.517800  0.283000  0.743700  1
  C  C1108  1  0.982200  0.783000  0.756300  1
  C  C1109  1  0.476400  0.737700  0.228500  1
  C  C1110  1  0.023600  0.237700  0.271500  1
  C  C1111  1  0.523600  0.262300  0.771500  1
  C  C1112  1  0.976400  0.762300  0.728500  1
  C  C1113  1  0.416600  0.739300  0.211900  1
  C  C1114  1  0.083400  0.239300  0.288100  1
  C  C1115  1  0.583400  0.260700  0.788100  1
  C  C1116  1  0.916600  0.760700  0.711900  1
  C  C1117  1  0.529300  0.757800  0.216700  1
  C  C1118  1  0.970700  0.257800  0.283300  1
  C  C1119  1  0.470700  0.242200  0.783300  1
  C  C1120  1  0.029300  0.742200  0.716700  1
  C  C1121  1  0.590000  0.743300  0.224700  1
  C  C1122  1  0.910000  0.243300  0.275300  1
  C  C1123  1  0.410000  0.256700  0.775300  1
  C  C1124  1  0.090000  0.756700  0.724700  1
  C  C1125  1  0.640400  0.759700  0.212300  1
  C  C1126  1  0.859600  0.259700  0.287700  1
  C  C1127  1  0.359600  0.240300  0.787700  1
  C  C1128  1  0.140400  0.740300  0.712300  1
  C  C1129  1  0.626300  0.791400  0.187600  1
  C  C1130  1  0.873700  0.291400  0.312400  1
  C  C1131  1  0.373700  0.208600  0.812400  1
  C  C1132  1  0.126300  0.708600  0.687600  1
  C  C1133  1  0.565400  0.806100  0.179200  1
  C  C1134  1  0.934600  0.306100  0.320800  1
  C  C1135  1  0.434600  0.193900  0.820800  1
  C  C1136  1  0.065400  0.693900  0.679200  1
  C  C1137  1  0.518200  0.788700  0.193200  1
  C  C1138  1  0.981800  0.288700  0.306800  1
  C  C1139  1  0.481800  0.211300  0.806800  1
  C  C1140  1  0.018200  0.711300  0.693200  1
  C  C1141  1  0.675100  0.806400  0.172400  1
  C  C1142  1  0.824900  0.306400  0.327600  1
  C  C1143  1  0.324900  0.193600  0.827600  1
  C  C1144  1  0.175100  0.693600  0.672400  1
  C  C1145  1  0.736100  0.790900  0.180200  1
  C  C1146  1  0.763900  0.290900  0.319800  1
  C  C1147  1  0.263900  0.209100  0.819800  1
  C  C1148  1  0.236100  0.709100  0.680200  1
  C  C1149  1  0.781300  0.804200  0.163700  1
  C  C1150  1  0.718700  0.304200  0.336300  1
  C  C1151  1  0.218700  0.195800  0.836300  1
  C  C1152  1  0.281300  0.695800  0.663700  1
  C  C1153  1  0.767800  0.831100  0.138200  1
  C  C1154  1  0.732200  0.331100  0.361800  1
  C  C1155  1  0.232200  0.168900  0.861800  1
  C  C1156  1  0.267800  0.668900  0.638200  1
  C  C1157  1  0.706400  0.846200  0.130700  1
  C  C1158  1  0.793600  0.346200  0.369300  1
  C  C1159  1  0.293600  0.153800  0.869300  1
  C  C1160  1  0.206400  0.653800  0.630700  1
  C  C1161  1  0.659800  0.835400  0.147300  1
  C  C1162  1  0.840200  0.335400  0.352700  1
  C  C1163  1  0.340200  0.164600  0.852700  1
  C  C1164  1  0.159800  0.664600  0.647300  1
  C  C1165  1  0.703000  0.745600  0.220100  1
  C  C1166  1  0.797000  0.245600  0.279900  1
  C  C1167  1  0.297000  0.254400  0.779900  1
  C  C1168  1  0.203000  0.754400  0.720100  1
  C  C1169  1  0.748200  0.760900  0.206000  1
  C  C1170  1  0.751800  0.260900  0.294000  1
  C  C1171  1  0.251800  0.239100  0.794000  1
  C  C1172  1  0.248200  0.739100  0.706000  1
  C  C1173  1  0.551700  0.837700  0.154900  1
  C  C1174  1  0.948300  0.337700  0.345100  1
  C  C1175  1  0.448300  0.162300  0.845100  1
  C  C1176  1  0.051700  0.662300  0.654900  1
  C  C1177  1  0.597500  0.851700  0.140300  1
  C  C1178  1  0.902500  0.351700  0.359700  1
  C  C1179  1  0.402500  0.148300  0.859700  1
  C  C1180  1  0.097500  0.648300  0.640300  1
  C  C1181  1  0.814800  0.845000  0.120400  1
  C  C1182  1  0.685200  0.345000  0.379600  1
  C  C1183  1  0.185200  0.155000  0.879600  1
  C  C1184  1  0.314800  0.655000  0.620400  1
  C  C1185  1  0.877300  0.852100  0.132300  1
  C  C1186  1  0.622700  0.352100  0.367700  1
  C  C1187  1  0.122700  0.147900  0.867700  1
  C  C1188  1  0.377300  0.647900  0.632300  1
  C  C1189  1  0.920000  0.862200  0.113800  1
  C  C1190  1  0.580000  0.362200  0.386200  1
  C  C1191  1  0.080000  0.137800  0.886200  1
  C  C1192  1  0.420000  0.637800  0.613800  1
  C  C1193  1  0.903600  0.866700  0.083800  1
  C  C1194  1  0.596400  0.366700  0.416200  1
  C  C1195  1  0.096400  0.133300  0.916200  1
  C  C1196  1  0.403600  0.633300  0.583800  1
  C  C1197  1  0.842400  0.860500  0.071400  1
  C  C1198  1  0.657600  0.360500  0.428600  1
  C  C1199  1  0.157600  0.139500  0.928600  1
  C  C1200  1  0.342400  0.639500  0.571400  1
  C  C1201  1  0.798900  0.848800  0.088900  1
  C  C1202  1  0.701100  0.348800  0.411100  1
  C  C1203  1  0.201100  0.151200  0.911100  1
  C  C1204  1  0.298900  0.651200  0.588900  1
  C  C1205  1  0.837500  0.828500  0.023600  1
  C  C1206  1  0.662500  0.328500  0.476400  1
  C  C1207  1  0.162500  0.171500  0.976400  1
  C  C1208  1  0.337500  0.671500  0.523600  1
  C  C1209  1  0.820100  0.831200  0.992200  1
  C  C1210  1  0.679900  0.331200  0.507800  1
  C  C1211  1  0.179900  0.168800  0.007800  1
  C  C1212  1  0.320100  0.668800  0.492200  1
  C  C1213  1  0.826900  0.796200  0.972000  1
  C  C1214  1  0.673100  0.296200  0.528000  1
  C  C1215  1  0.173100  0.203800  0.028000  1
  C  C1216  1  0.326900  0.703800  0.472000  1
  C  C1217  1  0.807500  0.802400  0.942000  1
  C  C1218  1  0.692500  0.302400  0.558000  1
  C  C1219  1  0.192500  0.197600  0.058000  1
  C  C1220  1  0.307500  0.697600  0.442000  1
  C  C1221  1  0.780600  0.842900  0.932100  1
  C  C1222  1  0.719400  0.342900  0.567900  1
  C  C1223  1  0.219400  0.157100  0.067900  1
  C  C1224  1  0.280600  0.657100  0.432100  1
  C  C1225  1  0.777300  0.877200  0.952600  1
  C  C1226  1  0.722700  0.377200  0.547400  1
  C  C1227  1  0.222700  0.122800  0.047400  1
  C  C1228  1  0.277300  0.622800  0.452600  1
  C  C1229  1  0.800400  0.995500  0.975200  1
  C  C1230  1  0.699600  0.495500  0.524800  1
  C  C1231  1  0.199600  0.004500  0.024800  1
  C  C1232  1  0.300400  0.504500  0.475200  1
  C  C1233  1  0.771100  0.026000  0.953900  1
  C  C1234  1  0.728900  0.526000  0.546100  1
  C  C1235  1  0.228900  0.974000  0.046100  1
  C  C1236  1  0.271100  0.474000  0.453900  1
  C  C1237  1  0.708800  0.028500  0.947100  1
  C  C1238  1  0.791200  0.528500  0.552900  1
  C  C1239  1  0.291200  0.971500  0.052900  1
  C  C1240  1  0.208800  0.471500  0.447100  1
  C  C1241  1  0.673300  0.000100  0.961000  1
  C  C1242  1  0.826700  0.500100  0.539000  1
  C  C1243  1  0.326700  0.999900  0.039000  1
  C  C1244  1  0.173300  0.499900  0.461000  1
  C  C1245  1  0.702000  0.968400  0.980500  1
  C  C1246  1  0.798000  0.468400  0.519500  1
  C  C1247  1  0.298000  0.031600  0.019500  1
  C  C1248  1  0.202000  0.531600  0.480500  1
  C  C1249  1  0.669400  0.935400  0.995700  1
  C  C1250  1  0.830600  0.435400  0.504300  1
  C  C1251  1  0.330600  0.064600  0.004300  1
  C  C1252  1  0.169400  0.564600  0.495700  1
  C  C1253  1  0.671400  0.877400  0.029300  1
  C  C1254  1  0.828600  0.377400  0.470700  1
  C  C1255  1  0.328600  0.122600  0.970700  1
  C  C1256  1  0.171400  0.622600  0.529300  1
  C  C1257  1  0.626000  0.892200  0.045300  1
  C  C1258  1  0.874000  0.392200  0.454700  1
  C  C1259  1  0.374000  0.107800  0.954700  1
  C  C1260  1  0.126000  0.607800  0.545300  1
  C  C1261  1  0.594600  0.862000  0.060800  1
  C  C1262  1  0.905400  0.362000  0.439200  1
  C  C1263  1  0.405400  0.138000  0.939200  1
  C  C1264  1  0.094600  0.638000  0.560800  1
  C  C1265  1  0.605200  0.816900  0.059700  1
  C  C1266  1  0.894800  0.316900  0.440300  1
  C  C1267  1  0.394800  0.183100  0.940300  1
  C  C1268  1  0.105200  0.683100  0.559700  1
  C  C1269  1  0.648400  0.799700  0.042200  1
  C  C1270  1  0.851600  0.299700  0.457800  1
  C  C1271  1  0.351600  0.200300  0.957800  1
  C  C1272  1  0.148400  0.700300  0.542200  1
  C  C1273  1  0.681800  0.831000  0.027600  1
  C  C1274  1  0.818200  0.331000  0.472400  1
  C  C1275  1  0.318200  0.169000  0.972400  1
  C  C1276  1  0.181800  0.669000  0.527600  1
  C  C1277  1  0.664100  0.751100  0.041100  1
  C  C1278  1  0.835900  0.251100  0.458900  1
  C  C1279  1  0.335900  0.248900  0.958900  1
  C  C1280  1  0.164100  0.748900  0.541100  1
  C  C1281  1  0.725000  0.738100  0.040100  1
  C  C1282  1  0.775000  0.238100  0.459900  1
  C  C1283  1  0.275000  0.261900  0.959900  1
  C  C1284  1  0.225000  0.761900  0.540100  1
  C  C1285  1  0.742400  0.692500  0.038800  1
  C  C1286  1  0.757600  0.192500  0.461200  1
  C  C1287  1  0.257600  0.307500  0.961200  1
  C  C1288  1  0.242400  0.807500  0.538800  1
  C  C1289  1  0.694600  0.659700  0.037600  1
  C  C1290  1  0.805400  0.159700  0.462400  1
  C  C1291  1  0.305400  0.340300  0.962400  1
  C  C1292  1  0.194600  0.840300  0.537600  1
  C  C1293  1  0.632800  0.672600  0.039500  1
  C  C1294  1  0.867200  0.172600  0.460500  1
  C  C1295  1  0.367200  0.327400  0.960500  1
  C  C1296  1  0.132800  0.827400  0.539500  1
  C  C1297  1  0.618800  0.718000  0.040900  1
  C  C1298  1  0.881200  0.218000  0.459100  1
  C  C1299  1  0.381200  0.282000  0.959100  1
  C  C1300  1  0.118800  0.782000  0.540900  1
  C  C1301  1  0.711300  0.613100  0.036900  1
  C  C1302  1  0.788700  0.113100  0.463100  1
  C  C1303  1  0.288700  0.386900  0.963100  1
  C  C1304  1  0.211300  0.886900  0.536900  1
  C  C1305  1  0.772800  0.600300  0.036100  1
  C  C1306  1  0.727200  0.100300  0.463900  1
  C  C1307  1  0.227200  0.399700  0.963900  1
  C  C1308  1  0.272800  0.899700  0.536100  1
  C  C1309  1  0.787400  0.555300  0.036500  1
  C  C1310  1  0.712600  0.055300  0.463500  1
  C  C1311  1  0.212600  0.444700  0.963500  1
  C  C1312  1  0.287400  0.944700  0.536500  1
  C  C1313  1  0.744100  0.521200  0.039200  1
  C  C1314  1  0.755900  0.021200  0.460800  1
  C  C1315  1  0.255900  0.478800  0.960800  1
  C  C1316  1  0.244100  0.978800  0.539200  1
  C  C1317  1  0.682400  0.534100  0.039000  1
  C  C1318  1  0.817600  0.034100  0.461000  1
  C  C1319  1  0.317600  0.465900  0.961000  1
  C  C1320  1  0.182400  0.965900  0.539000  1
  C  C1321  1  0.664100  0.579400  0.037100  1
  C  C1322  1  0.835900  0.079400  0.462900  1
  C  C1323  1  0.335900  0.420600  0.962900  1
  C  C1324  1  0.164100  0.920600  0.537100  1
  C  C1325  1  0.805100  0.679200  0.037400  1
  C  C1326  1  0.694900  0.179200  0.462600  1
  C  C1327  1  0.194900  0.320800  0.962600  1
  C  C1328  1  0.305100  0.820800  0.537400  1
  C  C1329  1  0.819700  0.635000  0.037200  1
  C  C1330  1  0.680300  0.135000  0.462800  1
  C  C1331  1  0.180300  0.365000  0.962800  1
  C  C1332  1  0.319700  0.865000  0.537200  1
  C  C1333  1  0.587100  0.637400  0.039600  1
  C  C1334  1  0.912900  0.137400  0.460400  1
  C  C1335  1  0.412900  0.362600  0.960400  1
  C  C1336  1  0.087100  0.862600  0.539600  1
  C  C1337  1  0.601700  0.593600  0.038000  1
  C  C1338  1  0.898300  0.093600  0.462000  1
  C  C1339  1  0.398300  0.406400  0.962000  1
  C  C1340  1  0.101700  0.906400  0.538000  1
  C  C1341  1  0.763000  0.474300  0.043700  1
  C  C1342  1  0.737000  0.974300  0.456300  1
  C  C1343  1  0.237000  0.525700  0.956300  1
  C  C1344  1  0.263000  0.025700  0.543700  1
  C  C1345  1  0.727300  0.438000  0.032600  1
  C  C1346  1  0.772700  0.938000  0.467400  1
  C  C1347  1  0.272700  0.562000  0.967400  1
  C  C1348  1  0.227300  0.062000  0.532600  1
  C  C1349  1  0.748500  0.394400  0.037200  1
  C  C1350  1  0.751500  0.894400  0.462800  1
  C  C1351  1  0.251500  0.605600  0.962800  1
  C  C1352  1  0.248500  0.105600  0.537200  1
  C  C1353  1  0.805200  0.384300  0.053500  1
  C  C1354  1  0.694800  0.884300  0.446500  1
  C  C1355  1  0.194800  0.615700  0.946500  1
  C  C1356  1  0.305200  0.115700  0.553500  1
  C  C1357  1  0.842000  0.420500  0.065000  1
  C  C1358  1  0.658000  0.920500  0.435000  1
  C  C1359  1  0.158000  0.579500  0.935000  1
  C  C1360  1  0.342000  0.079500  0.565000  1
  C  C1361  1  0.822100  0.464300  0.059800  1
  C  C1362  1  0.677900  0.964300  0.440200  1
  C  C1363  1  0.177900  0.535700  0.940200  1
  C  C1364  1  0.322100  0.035700  0.559800  1
  C  C1365  1  0.951100  0.423700  0.071800  1
  C  C1366  1  0.548900  0.923700  0.428200  1
  C  C1367  1  0.048900  0.576300  0.928200  1
  C  C1368  1  0.451100  0.076300  0.571800  1
  C  C1369  1  0.009200  0.417700  0.090300  1
  C  C1370  1  0.490800  0.917700  0.409700  1
  C  C1371  1  0.990800  0.582300  0.909700  1
  C  C1372  1  0.509200  0.082300  0.590300  1
  C  C1373  1  0.067500  0.427000  0.081300  1
  C  C1374  1  0.432500  0.927000  0.418700  1
  C  C1375  1  0.932500  0.573000  0.918700  1
  C  C1376  1  0.567500  0.073000  0.581300  1
  C  C1377  1  0.121600  0.418400  0.100300  1
  C  C1378  1  0.378400  0.918400  0.399700  1
  C  C1379  1  0.878400  0.581600  0.899700  1
  C  C1380  1  0.621600  0.081600  0.600300  1
  C  C1381  1  0.116400  0.401200  0.127700  1
  C  C1382  1  0.383600  0.901200  0.372300  1
  C  C1383  1  0.883600  0.598800  0.872300  1
  C  C1384  1  0.616400  0.098800  0.627700  1
  C  C1385  1  0.059100  0.392400  0.136300  1
  C  C1386  1  0.440900  0.892400  0.363700  1
  C  C1387  1  0.940900  0.607600  0.863700  1
  C  C1388  1  0.559100  0.107600  0.636300  1
  C  C1389  1  0.922700  0.915800  0.998600  1
  C  C1390  1  0.577300  0.415800  0.501400  1
  C  C1391  1  0.077300  0.084200  0.001400  1
  C  C1392  1  0.422700  0.584200  0.498600  1
  C  C1393  1  0.985300  0.926200  0.001900  1
  C  C1394  1  0.514700  0.426200  0.498100  1
  C  C1395  1  0.014700  0.073800  0.998100  1
  C  C1396  1  0.485300  0.573800  0.501900  1
  C  C1397  1  0.009200  0.953000  0.026000  1
  C  C1398  1  0.490800  0.453000  0.474000  1
  C  C1399  1  0.990800  0.047000  0.974000  1
  C  C1400  1  0.509200  0.547000  0.526000  1
  C  C1401  1  0.969800  0.969200  0.044100  1
  C  C1402  1  0.530200  0.469200  0.455900  1
  C  C1403  1  0.030200  0.030800  0.955900  1
  C  C1404  1  0.469800  0.530800  0.544100  1
  C  C1405  1  0.907600  0.957000  0.039400  1
  C  C1406  1  0.592400  0.457000  0.460600  1
  C  C1407  1  0.092400  0.043000  0.960600  1
  C  C1408  1  0.407600  0.543000  0.539400  1
  C  C1409  1  0.860600  0.971900  0.056000  1
  C  C1410  1  0.639400  0.471900  0.444000  1
  C  C1411  1  0.139400  0.028100  0.944000  1
  C  C1412  1  0.360600  0.528100  0.556000  1
  C  C1413  1  0.760800  0.972200  0.066300  1
  C  C1414  1  0.739200  0.472200  0.433700  1
  C  C1415  1  0.239200  0.027800  0.933700  1
  C  C1416  1  0.260800  0.527800  0.566300  1
  C  C1417  1  0.714000  0.002300  0.055000  1
  C  C1418  1  0.786000  0.502300  0.445000  1
  C  C1419  1  0.286000  0.997700  0.945000  1
  C  C1420  1  0.214000  0.497700  0.555000  1
  C  C1421  1  0.673100  0.017700  0.073700  1
  C  C1422  1  0.826900  0.517700  0.426300  1
  C  C1423  1  0.326900  0.982300  0.926300  1
  C  C1424  1  0.173100  0.482300  0.573700  1
  C  C1425  1  0.677700  0.002800  0.102400  1
  C  C1426  1  0.822300  0.502800  0.397600  1
  C  C1427  1  0.322300  0.997200  0.897600  1
  C  C1428  1  0.177700  0.497200  0.602400  1
  C  C1429  1  0.725100  0.973800  0.115100  1
  C  C1430  1  0.774900  0.473800  0.384900  1
  C  C1431  1  0.274900  0.026200  0.884900  1
  C  C1432  1  0.225100  0.526200  0.615100  1
  C  C1433  1  0.765300  0.958200  0.096100  1
  C  C1434  1  0.734700  0.458200  0.403900  1
  C  C1435  1  0.234700  0.041800  0.903900  1
  C  C1436  1  0.265300  0.541800  0.596100  1
  C  C1437  1  0.732000  0.956500  0.145900  1
  C  C1438  1  0.768000  0.456500  0.354100  1
  C  C1439  1  0.268000  0.043500  0.854100  1
  C  C1440  1  0.232000  0.543500  0.645900  1
  C  C1441  1  0.680700  0.949800  0.159700  1
  C  C1442  1  0.819300  0.449800  0.340300  1
  C  C1443  1  0.319300  0.050200  0.840300  1
  C  C1444  1  0.180700  0.550200  0.659700  1
  C  C1445  1  0.684100  0.927400  0.187100  1
  C  C1446  1  0.815900  0.427400  0.312900  1
  C  C1447  1  0.315900  0.072600  0.812900  1
  C  C1448  1  0.184100  0.572600  0.687100  1
  C  C1449  1  0.743800  0.914600  0.201800  1
  C  C1450  1  0.756200  0.414600  0.298200  1
  C  C1451  1  0.256200  0.085400  0.798200  1
  C  C1452  1  0.243800  0.585400  0.701800  1
  C  C1453  1  0.797100  0.923600  0.188300  1
  C  C1454  1  0.702900  0.423600  0.311700  1
  C  C1455  1  0.202900  0.076400  0.811700  1
  C  C1456  1  0.297100  0.576400  0.688300  1
  C  C1457  1  0.789800  0.945000  0.161100  1
  C  C1458  1  0.710200  0.445000  0.338900  1
  C  C1459  1  0.210200  0.055000  0.838900  1
  C  C1460  1  0.289800  0.555000  0.661100  1
  C  C1461  1  0.749000  0.890300  0.229200  1
  C  C1462  1  0.751000  0.390300  0.270800  1
  C  C1463  1  0.251000  0.109700  0.770800  1
  C  C1464  1  0.249000  0.609700  0.729200  1
  C  C1465  1  0.695200  0.878400  0.241400  1
  C  C1466  1  0.804800  0.378400  0.258600  1
  C  C1467  1  0.304800  0.121600  0.758600  1
  C  C1468  1  0.195200  0.621600  0.741400  1
  C  C1469  1  0.702800  0.853900  0.267700  1
  C  C1470  1  0.797200  0.353900  0.232300  1
  C  C1471  1  0.297200  0.146100  0.732300  1
  C  C1472  1  0.202800  0.646100  0.767700  1
  C  C1473  1  0.760900  0.839400  0.281800  1
  C  C1474  1  0.739100  0.339400  0.218200  1
  C  C1475  1  0.239100  0.160600  0.718200  1
  C  C1476  1  0.260900  0.660600  0.781800  1
  C  C1477  1  0.813600  0.851300  0.269600  1
  C  C1478  1  0.686400  0.351300  0.230400  1
  C  C1479  1  0.186400  0.148700  0.730400  1
  C  C1480  1  0.313600  0.648700  0.769600  1
  C  C1481  1  0.808400  0.876000  0.242900  1
  C  C1482  1  0.691600  0.376000  0.257100  1
  C  C1483  1  0.191600  0.124000  0.757100  1
  C  C1484  1  0.308400  0.624000  0.742900  1
  C  C1485  1  0.631000  0.918100  0.201000  1
  C  C1486  1  0.869000  0.418100  0.299000  1
  C  C1487  1  0.369000  0.081900  0.799000  1
  C  C1488  1  0.131000  0.581900  0.701000  1
  C  C1489  1  0.636300  0.894000  0.225800  1
  C  C1490  1  0.863700  0.394000  0.274200  1
  C  C1491  1  0.363700  0.106000  0.774200  1
  C  C1492  1  0.136300  0.606000  0.725800  1
  C  C1493  1  0.856900  0.910100  0.203800  1
  C  C1494  1  0.643100  0.410100  0.296200  1
  C  C1495  1  0.143100  0.089900  0.796200  1
  C  C1496  1  0.356900  0.589900  0.703800  1
  C  C1497  1  0.861300  0.887400  0.229600  1
  C  C1498  1  0.638700  0.387400  0.270400  1
  C  C1499  1  0.138700  0.112600  0.770400  1
  C  C1500  1  0.361300  0.612600  0.729600  1
  C  C1501  1  0.767000  0.811200  0.309400  1
  C  C1502  1  0.733000  0.311200  0.190600  1
  C  C1503  1  0.233000  0.188800  0.690600  1
  C  C1504  1  0.267000  0.688800  0.809400  1
  C  C1505  1  0.723500  0.778800  0.314200  1
  C  C1506  1  0.776500  0.278800  0.185800  1
  C  C1507  1  0.276500  0.221200  0.685800  1
  C  C1508  1  0.223500  0.721200  0.814200  1
  C  C1509  1  0.733100  0.750600  0.338600  1
  C  C1510  1  0.766900  0.250600  0.161400  1
  C  C1511  1  0.266900  0.249400  0.661400  1
  C  C1512  1  0.233100  0.749400  0.838600  1
  C  C1513  1  0.786700  0.754000  0.358900  1
  C  C1514  1  0.713300  0.254000  0.141100  1
  C  C1515  1  0.213300  0.246000  0.641100  1
  C  C1516  1  0.286700  0.746000  0.858900  1
  C  C1517  1  0.830400  0.786600  0.355200  1
  C  C1518  1  0.669600  0.286600  0.144800  1
  C  C1519  1  0.169600  0.213400  0.644800  1
  C  C1520  1  0.330400  0.713400  0.855200  1
  C  C1521  1  0.820600  0.814900  0.330900  1
  C  C1522  1  0.679400  0.314900  0.169100  1
  C  C1523  1  0.179400  0.185100  0.669100  1
  C  C1524  1  0.320600  0.685100  0.830900  1
  C  C1525  1  0.877600  0.803200  0.403900  1
  C  C1526  1  0.622400  0.303200  0.096100  1
  C  C1527  1  0.122400  0.196800  0.596100  1
  C  C1528  1  0.377600  0.696800  0.903900  1
  C  C1529  1  0.932000  0.805600  0.426000  1
  C  C1530  1  0.568000  0.305600  0.074000  1
  C  C1531  1  0.068000  0.194400  0.574000  1
  C  C1532  1  0.432000  0.694400  0.926000  1
  C  C1533  1  0.930600  0.816800  0.455900  1
  C  C1534  1  0.569400  0.316800  0.044100  1
  C  C1535  1  0.069400  0.183200  0.544100  1
  C  C1536  1  0.430600  0.683200  0.955900  1
  C  C1537  1  0.987700  0.818800  0.475000  1
  C  C1538  1  0.512300  0.318800  0.025000  1
  C  C1539  1  0.012300  0.181200  0.525000  1
  C  C1540  1  0.487700  0.681200  0.975000  1
  C  C1541  1  0.042600  0.814800  0.463000  1
  C  C1542  1  0.457400  0.314800  0.037000  1
  C  C1543  1  0.957400  0.185200  0.537000  1
  C  C1544  1  0.542600  0.685200  0.963000  1
  C  C1545  1  0.040100  0.795500  0.435000  1
  C  C1546  1  0.459900  0.295500  0.065000  1
  C  C1547  1  0.959900  0.204500  0.565000  1
  C  C1548  1  0.540100  0.704500  0.935000  1
  C  C1549  1  0.965900  0.304600  0.097600  1
  C  C1550  1  0.534100  0.804600  0.402400  1
  C  C1551  1  0.034100  0.695400  0.902400  1
  C  C1552  1  0.465900  0.195400  0.597600  1
  C  C1553  1  0.957800  0.260800  0.086500  1
  C  C1554  1  0.542200  0.760800  0.413500  1
  C  C1555  1  0.042200  0.739200  0.913500  1
  C  C1556  1  0.457800  0.239200  0.586500  1
  C  C1557  1  0.901200  0.239700  0.086700  1
  C  C1558  1  0.598800  0.739700  0.413300  1
  C  C1559  1  0.098800  0.760300  0.913300  1
  C  C1560  1  0.401200  0.260300  0.586700  1
  C  C1561  1  0.854700  0.261300  0.097000  1
  C  C1562  1  0.645300  0.761300  0.403000  1
  C  C1563  1  0.145300  0.738700  0.903000  1
  C  C1564  1  0.354700  0.238700  0.597000  1
  C  C1565  1  0.863500  0.305300  0.107300  1
  C  C1566  1  0.636500  0.805300  0.392700  1
  C  C1567  1  0.136500  0.694700  0.892700  1
  C  C1568  1  0.363500  0.194700  0.607300  1
  C  C1569  1  0.816700  0.332600  0.118100  1
  C  C1570  1  0.683300  0.832600  0.381900  1
  C  C1571  1  0.183300  0.667400  0.881900  1
  C  C1572  1  0.316700  0.167400  0.618100  1
  C  C1573  1  0.786700  0.400100  0.136500  1
  C  C1574  1  0.713300  0.900100  0.363500  1
  C  C1575  1  0.213300  0.599900  0.863500  1
  C  C1576  1  0.286700  0.099900  0.636500  1
  C  C1577  1  0.729500  0.408600  0.118100  1
  C  C1578  1  0.770500  0.908600  0.381900  1
  C  C1579  1  0.270500  0.591400  0.881900  1
  C  C1580  1  0.229500  0.091400  0.618100  1
  C  C1581  1  0.683800  0.433600  0.128300  1
  C  C1582  1  0.816200  0.933600  0.371700  1
  C  C1583  1  0.316200  0.566400  0.871700  1
  C  C1584  1  0.183800  0.066400  0.628300  1
  C  C1585  1  0.694700  0.452600  0.156200  1
  C  C1586  1  0.805300  0.952600  0.343800  1
  C  C1587  1  0.305300  0.547400  0.843800  1
  C  C1588  1  0.194700  0.047400  0.656200  1
  C  C1589  1  0.750800  0.446100  0.175300  1
  C  C1590  1  0.749200  0.946100  0.324700  1
  C  C1591  1  0.249200  0.553900  0.824700  1
  C  C1592  1  0.250800  0.053900  0.675300  1
  C  C1593  1  0.795700  0.419200  0.164700  1
  C  C1594  1  0.704300  0.919200  0.335300  1
  C  C1595  1  0.204300  0.580800  0.835300  1
  C  C1596  1  0.295700  0.080800  0.664700  1
  C  C1597  1  0.765300  0.469100  0.204600  1
  C  C1598  1  0.734700  0.969100  0.295400  1
  C  C1599  1  0.234700  0.530900  0.795400  1
  C  C1600  1  0.265300  0.030900  0.704600  1
  C  C1601  1  0.719300  0.480500  0.221300  1
  C  C1602  1  0.780700  0.980500  0.278700  1
  C  C1603  1  0.280700  0.519500  0.778700  1
  C  C1604  1  0.219300  0.019500  0.721300  1
  C  C1605  1  0.733400  0.503000  0.248900  1
  C  C1606  1  0.766600  0.003000  0.251100  1
  C  C1607  1  0.266600  0.497000  0.751100  1
  C  C1608  1  0.233400  0.997000  0.748900  1
  C  C1609  1  0.797100  0.512800  0.259800  1
  C  C1610  1  0.702900  0.012800  0.240200  1
  C  C1611  1  0.202900  0.487200  0.740200  1
  C  C1612  1  0.297100  0.987200  0.759800  1
  C  C1613  1  0.843400  0.500400  0.243200  1
  C  C1614  1  0.656600  0.000400  0.256800  1
  C  C1615  1  0.156600  0.499600  0.756800  1
  C  C1616  1  0.343400  0.999600  0.743200  1
  C  C1617  1  0.826800  0.478300  0.216700  1
  C  C1618  1  0.673200  0.978300  0.283300  1
  C  C1619  1  0.173200  0.521700  0.783300  1
  C  C1620  1  0.326800  0.021700  0.716700  1
  C  C1621  1  0.813900  0.537000  0.287200  1
  C  C1622  1  0.686100  0.037000  0.212800  1
  C  C1623  1  0.186100  0.463000  0.712800  1
  C  C1624  1  0.313900  0.963000  0.787200  1
  C  C1625  1  0.767600  0.549800  0.304300  1
  C  C1626  1  0.732400  0.049800  0.195700  1
  C  C1627  1  0.232400  0.450200  0.695700  1
  C  C1628  1  0.267600  0.950200  0.804300  1
  C  C1629  1  0.783700  0.575500  0.329400  1
  C  C1630  1  0.716300  0.075500  0.170600  1
  C  C1631  1  0.216300  0.424500  0.670600  1
  C  C1632  1  0.283700  0.924500  0.829400  1
  C  C1633  1  0.844900  0.589300  0.339100  1
  C  C1634  1  0.655100  0.089300  0.160900  1
  C  C1635  1  0.155100  0.410700  0.660900  1
  C  C1636  1  0.344900  0.910700  0.839100  1
  C  C1637  1  0.891000  0.571800  0.324000  1
  C  C1638  1  0.609000  0.071800  0.176000  1
  C  C1639  1  0.109000  0.428200  0.676000  1
  C  C1640  1  0.391000  0.928200  0.824000  1
  C  C1641  1  0.876800  0.546500  0.297800  1
  C  C1642  1  0.623200  0.046500  0.202200  1
  C  C1643  1  0.123200  0.453500  0.702200  1
  C  C1644  1  0.376800  0.953500  0.797800  1
  C  C1645  1  0.687900  0.516800  0.266600  1
  C  C1646  1  0.812100  0.016800  0.233400  1
  C  C1647  1  0.312100  0.483200  0.733400  1
  C  C1648  1  0.187900  0.983200  0.766600  1
  C  C1649  1  0.703800  0.538900  0.292800  1
  C  C1650  1  0.796200  0.038900  0.207200  1
  C  C1651  1  0.296200  0.461100  0.707200  1
  C  C1652  1  0.203800  0.961100  0.792800  1
  C  C1653  1  0.907600  0.510000  0.254800  1
  C  C1654  1  0.592400  0.010000  0.245200  1
  C  C1655  1  0.092400  0.490000  0.745200  1
  C  C1656  1  0.407600  0.990000  0.754800  1
  C  C1657  1  0.922700  0.531700  0.281000  1
  C  C1658  1  0.577300  0.031700  0.219000  1
  C  C1659  1  0.077300  0.468300  0.719000  1
  C  C1660  1  0.422700  0.968300  0.781000  1
  C  C1661  1  0.860100  0.622300  0.363300  1
  C  C1662  1  0.639900  0.122300  0.136700  1
  C  C1663  1  0.139900  0.377700  0.636700  1
  C  C1664  1  0.360100  0.877700  0.863300  1
  C  C1665  1  0.830800  0.626500  0.388700  1
  C  C1666  1  0.669200  0.126500  0.111300  1
  C  C1667  1  0.169200  0.373500  0.611300  1
  C  C1668  1  0.330800  0.873500  0.888700  1
  C  C1669  1  0.849000  0.657900  0.410100  1
  C  C1670  1  0.651000  0.157900  0.089900  1
  C  C1671  1  0.151000  0.342100  0.589900  1
  C  C1672  1  0.349000  0.842100  0.910100  1
  C  C1673  1  0.894400  0.688700  0.407700  1
  C  C1674  1  0.605600  0.188700  0.092300  1
  C  C1675  1  0.105600  0.311300  0.592300  1
  C  C1676  1  0.394400  0.811300  0.907700  1
  C  C1677  1  0.924000  0.686200  0.383000  1
  C  C1678  1  0.576000  0.186200  0.117000  1
  C  C1679  1  0.076000  0.313800  0.617000  1
  C  C1680  1  0.424000  0.813800  0.883000  1
  C  C1681  1  0.909700  0.653000  0.361800  1
  C  C1682  1  0.590300  0.153000  0.138200  1
  C  C1683  1  0.090300  0.347000  0.638200  1
  C  C1684  1  0.409700  0.847000  0.861800  1
  C  C1685  1  0.028400  0.697400  0.379700  1
  C  C1686  1  0.471600  0.197400  0.120300  1
  C  C1687  1  0.971600  0.302600  0.620300  1
  C  C1688  1  0.528400  0.802600  0.879700  1
  C  C1689  1  0.079200  0.726000  0.375400  1
  C  C1690  1  0.420800  0.226000  0.124600  1
  C  C1691  1  0.920800  0.274000  0.624600  1
  C  C1692  1  0.579200  0.774000  0.875400  1
  C  C1693  1  0.140300  0.711500  0.374200  1
  C  C1694  1  0.359700  0.211500  0.125800  1
  C  C1695  1  0.859700  0.288500  0.625800  1
  C  C1696  1  0.640300  0.788500  0.874200  1
  C  C1697  1  0.184700  0.743000  0.370100  1
  C  C1698  1  0.315300  0.243000  0.129900  1
  C  C1699  1  0.815300  0.257000  0.629900  1
  C  C1700  1  0.684700  0.757000  0.870100  1
  C  C1701  1  0.168200  0.787700  0.366500  1
  C  C1702  1  0.331800  0.287700  0.133500  1
  C  C1703  1  0.831800  0.212300  0.633500  1
  C  C1704  1  0.668200  0.712300  0.866500  1
  C  C1705  1  0.106800  0.800300  0.367200  1
  C  C1706  1  0.393200  0.300300  0.132800  1
  C  C1707  1  0.893200  0.199700  0.632800  1
  C  C1708  1  0.606800  0.699700  0.867200  1
  C  C1709  1  0.996900  0.574400  0.215300  1
  C  C1710  1  0.503100  0.074400  0.284700  1
  C  C1711  1  0.003100  0.425600  0.784700  1
  C  C1712  1  0.496900  0.925600  0.715300  1
  C  C1713  1  0.943400  0.579200  0.194500  1
  C  C1714  1  0.556600  0.079200  0.305500  1
  C  C1715  1  0.056600  0.420800  0.805500  1
  C  C1716  1  0.443400  0.920800  0.694500  1
  C  C1717  1  0.928300  0.621000  0.181500  1
  C  C1718  1  0.571700  0.121000  0.318500  1
  C  C1719  1  0.071700  0.379000  0.818500  1
  C  C1720  1  0.428300  0.879000  0.681500  1
  C  C1721  1  0.966700  0.657800  0.189300  1
  C  C1722  1  0.533300  0.157800  0.310700  1
  C  C1723  1  0.033300  0.342200  0.810700  1
  C  C1724  1  0.466700  0.842200  0.689300  1
  C  C1725  1  0.020200  0.653000  0.210100  1
  C  C1726  1  0.479800  0.153000  0.289900  1
  C  C1727  1  0.979800  0.347000  0.789900  1
  C  C1728  1  0.520200  0.847000  0.710100  1
  C  C1729  1  0.035400  0.611300  0.223100  1
  C  C1730  1  0.464600  0.111300  0.276900  1
  C  C1731  1  0.964600  0.388700  0.776900  1
  C  C1732  1  0.535400  0.888700  0.723100  1
  C  C1733  1  0.173600  0.679900  0.058900  1
  C  C1734  1  0.326400  0.179900  0.441100  1
  C  C1735  1  0.826400  0.320100  0.941100  1
  C  C1736  1  0.673600  0.820100  0.558900  1
  C  C1737  1  0.207600  0.646600  0.047000  1
  C  C1738  1  0.292400  0.146600  0.453000  1
  C  C1739  1  0.792400  0.353400  0.953000  1
  C  C1740  1  0.707600  0.853400  0.547000  1
  C  C1741  1  0.269800  0.653900  0.044800  1
  C  C1742  1  0.230200  0.153900  0.455200  1
  C  C1743  1  0.730200  0.346100  0.955200  1
  C  C1744  1  0.769800  0.846100  0.544800  1
  C  C1745  1  0.298000  0.694500  0.054400  1
  C  C1746  1  0.202000  0.194500  0.445600  1
  C  C1747  1  0.702000  0.305500  0.945600  1
  C  C1748  1  0.798000  0.805500  0.554400  1
  C  C1749  1  0.264000  0.727700  0.066200  1
  C  C1750  1  0.236000  0.227700  0.433800  1
  C  C1751  1  0.736000  0.272300  0.933800  1
  C  C1752  1  0.764000  0.772300  0.566200  1
  C  C1753  1  0.201800  0.720400  0.068400  1
  C  C1754  1  0.298200  0.220400  0.431600  1
  C  C1755  1  0.798200  0.279600  0.931600  1
  C  C1756  1  0.701800  0.779600  0.568400  1
  C  C1757  1  0.646300  0.148500  0.983800  1
  C  C1758  1  0.853700  0.648500  0.516200  1
  C  C1759  1  0.353700  0.851500  0.016200  1
  C  C1760  1  0.146300  0.351500  0.483800  1
  C  C1761  1  0.640100  0.187300  0.000200  1
  C  C1762  1  0.859900  0.687300  0.499800  1
  C  C1763  1  0.359900  0.812700  0.999800  1
  C  C1764  1  0.140100  0.312700  0.500200  1
  C  C1765  1  0.601100  0.221800  0.988000  1
  C  C1766  1  0.898900  0.721800  0.512000  1
  C  C1767  1  0.398900  0.778200  0.012000  1
  C  C1768  1  0.101100  0.278200  0.488000  1
  C  C1769  1  0.568300  0.217500  0.959300  1
  C  C1770  1  0.931700  0.717500  0.540700  1
  C  C1771  1  0.431700  0.782500  0.040700  1
  C  C1772  1  0.068300  0.282500  0.459300  1
  C  C1773  1  0.574400  0.178700  0.942900  1
  C  C1774  1  0.925600  0.678700  0.557100  1
  C  C1775  1  0.425600  0.821300  0.057100  1
  C  C1776  1  0.074400  0.321300  0.442900  1
  C  C1777  1  0.613400  0.144200  0.955100  1
  C  C1778  1  0.886600  0.644200  0.544900  1
  C  C1779  1  0.386600  0.855800  0.044900  1
  C  C1780  1  0.113400  0.355800  0.455100  1
  C  C1781  1  0.771500  0.134900  0.908000  1
  C  C1782  1  0.728500  0.634900  0.592000  1
  C  C1783  1  0.228500  0.865100  0.092000  1
  C  C1784  1  0.271500  0.365100  0.408000  1
  C  C1785  1  0.766800  0.100400  0.887200  1
  C  C1786  1  0.733200  0.600400  0.612800  1
  C  C1787  1  0.233200  0.899600  0.112800  1
  C  C1788  1  0.266800  0.399600  0.387200  1
  C  C1789  1  0.819700  0.076900  0.882500  1
  C  C1790  1  0.680300  0.576900  0.617500  1
  C  C1791  1  0.180300  0.923100  0.117500  1
  C  C1792  1  0.319700  0.423100  0.382500  1
  C  C1793  1  0.877200  0.087900  0.898700  1
  C  C1794  1  0.622800  0.587900  0.601300  1
  C  C1795  1  0.122800  0.912100  0.101300  1
  C  C1796  1  0.377200  0.412100  0.398700  1
  C  C1797  1  0.881900  0.122500  0.919500  1
  C  C1798  1  0.618100  0.622500  0.580500  1
  C  C1799  1  0.118100  0.877500  0.080500  1
  C  C1800  1  0.381900  0.377500  0.419500  1
  C  C1801  1  0.829000  0.146000  0.924200  1
  C  C1802  1  0.671000  0.646000  0.575800  1
  C  C1803  1  0.171000  0.854000  0.075800  1
  C  C1804  1  0.329000  0.354000  0.424200  1
  C  C1805  1  0.752800  0.502800  0.959100  1
  C  C1806  1  0.747200  0.002800  0.540900  1
  C  C1807  1  0.247200  0.497200  0.040900  1
  C  C1808  1  0.252800  0.997200  0.459100  1
  C  C1809  1  0.678300  0.570000  0.855000  1
  C  C1810  1  0.821700  0.070000  0.645000  1
  C  C1811  1  0.321700  0.430000  0.145000  1
  C  C1812  1  0.178300  0.930000  0.355000  1
  C  C1813  1  0.941000  0.725900  0.105400  1
  C  C1814  1  0.559000  0.225900  0.394600  1
  C  C1815  1  0.059000  0.274100  0.894600  1
  C  C1816  1  0.441000  0.774100  0.605400  1
  C  C1817  1  0.045000  0.755500  0.012300  1
  C  C1818  1  0.455000  0.255500  0.487700  1
  C  C1819  1  0.955000  0.244500  0.987700  1
  C  C1820  1  0.545000  0.744500  0.512300  1
  C  C1821  1  0.839700  0.123800  0.013100  1
  C  C1822  1  0.660300  0.623800  0.486900  1
  C  C1823  1  0.160300  0.876200  0.986900  1
  C  C1824  1  0.339700  0.376200  0.513100  1
  C  C1825  1  0.874600  0.096700  0.124100  1
  C  C1826  1  0.625400  0.596700  0.375900  1
  C  C1827  1  0.125400  0.903300  0.875900  1
  C  C1828  1  0.374600  0.403300  0.624100  1
  C  C1829  1  0.195800  0.482600  0.207500  1
  C  C1830  1  0.304200  0.982600  0.292500  1
  C  C1831  1  0.804200  0.517400  0.792500  1
  C  C1832  1  0.695800  0.017400  0.707500  1
  C  C1833  1  0.113500  0.407900  0.298600  1
  C  C1834  1  0.386500  0.907900  0.201400  1
  C  C1835  1  0.886500  0.592100  0.701400  1
  C  C1836  1  0.613500  0.092100  0.798600  1
  C  C1837  1  0.951800  0.768600  0.218600  1
  C  C1838  1  0.548200  0.268600  0.281400  1
  C  C1839  1  0.048200  0.231400  0.781400  1
  C  C1840  1  0.451800  0.731400  0.718600  1
  C  C1841  1  0.156300  0.855600  0.255000  1
  C  C1842  1  0.343700  0.355600  0.245000  1
  C  C1843  1  0.843700  0.144400  0.745000  1
  C  C1844  1  0.656300  0.644400  0.755000  1
  C  C1845  1  0.752700  0.767100  0.465800  1
  C  C1846  1  0.747300  0.267100  0.034200  1
  C  C1847  1  0.247300  0.232900  0.534200  1
  C  C1848  1  0.252700  0.732900  0.965800  1
  C  C1849  1  0.704300  0.758200  0.485100  1
  C  C1850  1  0.795700  0.258200  0.014900  1
  C  C1851  1  0.295700  0.241800  0.514900  1
  C  C1852  1  0.204300  0.741800  0.985100  1
  C  C1853  1  0.807500  0.132600  0.029300  1
  C  C1854  1  0.692500  0.632600  0.470700  1
  C  C1855  1  0.192500  0.867400  0.970700  1
  C  C1856  1  0.307500  0.367400  0.529300  1
  C  C1857  1  0.925200  0.062800  0.130400  1
  C  C1858  1  0.574800  0.562800  0.369600  1
  C  C1859  1  0.074800  0.937200  0.869600  1
  C  C1860  1  0.425200  0.437200  0.630400  1
  C  C1861  1  0.091500  0.498400  0.207000  1
  C  C1862  1  0.408500  0.998400  0.293000  1
  C  C1863  1  0.908500  0.501600  0.793000  1
  C  C1864  1  0.591500  0.001600  0.707000  1
  C  C1865  1  0.097500  0.411200  0.301900  1
  C  C1866  1  0.402500  0.911200  0.198100  1
  C  C1867  1  0.902500  0.588800  0.698100  1
  C  C1868  1  0.597500  0.088800  0.801900  1
  C  C1869  1  0.015200  0.587800  0.208800  1
  C  C1870  1  0.484800  0.087800  0.291200  1
  C  C1871  1  0.984800  0.412200  0.791200  1
  C  C1872  1  0.515200  0.912200  0.708800  1
  C  C1873  1  0.184000  0.523000  0.222000  1
  C  C1874  1  0.316000  0.023000  0.278000  1
  C  C1875  1  0.816000  0.477000  0.778000  1
  C  C1876  1  0.684000  0.977000  0.722000  1
  C  C1877  1  0.987700  0.783700  0.211900  1
  C  C1878  1  0.512300  0.283700  0.288100  1
  C  C1879  1  0.012300  0.216300  0.788100  1
  C  C1880  1  0.487700  0.716300  0.711900  1
  C  C1881  1  0.166800  0.873100  0.271600  1
  C  C1882  1  0.333200  0.373100  0.228400  1
  C  C1883  1  0.833200  0.126900  0.728400  1
  C  C1884  1  0.666800  0.626900  0.771600  1
  C  C1885  1  0.053500  0.564200  0.027700  1
  C  C1886  1  0.446500  0.064200  0.472300  1
  C  C1887  1  0.946500  0.435800  0.972300  1
  C  C1888  1  0.553500  0.935800  0.527700  1
  S  S1889  1  0.746000  0.498400  0.918570  1
  S  S1890  1  0.754000  0.998400  0.581430  1
  S  S1891  1  0.254000  0.501600  0.081430  1
  S  S1892  1  0.246000  0.001600  0.418570  1
  S  S1893  1  0.661800  0.563900  0.893050  1
  S  S1894  1  0.838200  0.063900  0.606950  1
  S  S1895  1  0.338200  0.436100  0.106950  1
  S  S1896  1  0.161800  0.936100  0.393050  1
  S  S1897  1  0.997200  0.705200  0.082280  1
  S  S1898  1  0.502800  0.205200  0.417720  1
  S  S1899  1  0.002800  0.294800  0.917720  1
  S  S1900  1  0.497200  0.794800  0.582280  1
  S  S1901  1  0.992000  0.772100  0.037980  1
  S  S1902  1  0.508000  0.272100  0.462020  1
  S  S1903  1  0.008000  0.227900  0.962020  1
  S  S1904  1  0.492000  0.727900  0.537980  1
  S  S1905  1  0.804500  0.119200  0.047180  1
  S  S1906  1  0.695500  0.619200  0.452820  1
  S  S1907  1  0.195500  0.880800  0.952820  1
  S  S1908  1  0.304500  0.380800  0.547180  1
  S  S1909  1  0.905400  0.093100  0.088760  1
  S  S1910  1  0.594600  0.593100  0.411240  1
  S  S1911  1  0.094600  0.906900  0.911240  1
  S  S1912  1  0.405400  0.406900  0.588760  1
  S  S1913  1  0.146300  0.489800  0.236400  1
  S  S1914  1  0.353700  0.989800  0.263600  1
  S  S1915  1  0.853700  0.510200  0.763600  1
  S  S1916  1  0.646300  0.010200  0.736400  1
  S  S1917  1  0.159200  0.406300  0.267800  1
  S  S1918  1  0.340800  0.906300  0.232200  1
  S  S1919  1  0.840800  0.593700  0.732200  1
  S  S1920  1  0.659200  0.093700  0.767800  1
  S  S1921  1  0.025100  0.794000  0.211300  1
  S  S1922  1  0.474900  0.294000  0.288700  1
  S  S1923  1  0.974900  0.206000  0.788700  1
  S  S1924  1  0.525100  0.706000  0.711300  1
  S  S1925  1  0.087400  0.829300  0.266500  1
  S  S1926  1  0.412600  0.329300  0.233500  1
  S  S1927  1  0.912600  0.170700  0.733500  1
  S  S1928  1  0.587400  0.670700  0.766500  1
  S  S1929  1  0.874500  0.101000  0.048400  1
  S  S1930  1  0.625500  0.601000  0.451600  1
  S  S1931  1  0.125500  0.899000  0.951600  1
  S  S1932  1  0.374500  0.399000  0.548400  1
  S  S1933  1  0.864400  0.099900  0.111500  1
  S  S1934  1  0.635600  0.599900  0.388500  1
  S  S1935  1  0.135600  0.900100  0.888500  1
  S  S1936  1  0.364400  0.400100  0.611500  1
  S  S1937  1  0.143900  0.451000  0.217500  1
  S  S1938  1  0.356100  0.951000  0.282500  1
  S  S1939  1  0.856100  0.549000  0.782500  1
  S  S1940  1  0.643900  0.049000  0.717500  1
  S  S1941  1  0.153600  0.401800  0.276200  1
  S  S1942  1  0.346400  0.901800  0.223800  1
  S  S1943  1  0.846400  0.598200  0.723800  1
  S  S1944  1  0.653600  0.098200  0.776200  1
  S  S1945  1  0.060700  0.544600  0.230100  1
  S  S1946  1  0.439300  0.044600  0.269900  1
  S  S1947  1  0.939300  0.455400  0.769900  1
  S  S1948  1  0.560700  0.955400  0.730100  1
  S  S1949  1  0.141200  0.815900  0.260200  1
  S  S1950  1  0.358800  0.315900  0.239800  1
  S  S1951  1  0.858800  0.184100  0.739800  1
  S  S1952  1  0.641200  0.684100  0.760200  1
  S  S1953  1  0.028200  0.836800  0.222600  1
  S  S1954  1  0.471800  0.336800  0.277400  1
  S  S1955  1  0.971800  0.163200  0.777400  1
  S  S1956  1  0.528200  0.663200  0.722600  1
  S  S1957  1  0.980100  0.537200  0.013960  1
  S  S1958  1  0.519900  0.037200  0.486040  1
  S  S1959  1  0.019900  0.462800  0.986040  1
  S  S1960  1  0.480100  0.962800  0.513960  1
  N  N1961  1  0.194400  0.638500  0.162300  1
  N  N1962  1  0.305600  0.138500  0.337700  1
  N  N1963  1  0.805600  0.361500  0.837700  1
  N  N1964  1  0.694400  0.861500  0.662300  1
  N  N1965  1  0.287400  0.682100  0.148100  1
  N  N1966  1  0.212600  0.182100  0.351900  1
  N  N1967  1  0.712600  0.317900  0.851900  1
  N  N1968  1  0.787400  0.817900  0.648100  1
  N  N1969  1  0.926500  0.448400  0.143600  1
  N  N1970  1  0.573500  0.948400  0.356400  1
  N  N1971  1  0.073500  0.551600  0.856400  1
  N  N1972  1  0.426500  0.051600  0.643600  1
  N  N1973  1  0.945200  0.369600  0.164900  1
  N  N1974  1  0.554800  0.869600  0.335100  1
  N  N1975  1  0.054800  0.630400  0.835100  1
  N  N1976  1  0.445200  0.130400  0.664900  1
  N  N1977  1  0.214300  0.674000  0.222100  1
  N  N1978  1  0.285700  0.174000  0.277900  1
  N  N1979  1  0.785700  0.326000  0.777900  1
  N  N1980  1  0.714300  0.826000  0.722100  1
  N  N1981  1  0.300200  0.628700  0.202600  1
  N  N1982  1  0.199800  0.128700  0.297400  1
  N  N1983  1  0.699800  0.371300  0.797400  1
  N  N1984  1  0.800200  0.871300  0.702600  1
  N  N1985  1  0.962900  0.775800  0.328600  1
  N  N1986  1  0.537100  0.275800  0.171400  1
  N  N1987  1  0.037100  0.224200  0.671400  1
  N  N1988  1  0.462900  0.724200  0.828600  1
  N  N1989  1  0.979000  0.847600  0.360400  1
  N  N1990  1  0.521000  0.347600  0.139600  1
  N  N1991  1  0.021000  0.152400  0.639600  1
  N  N1992  1  0.479000  0.652400  0.860400  1
  N  N1993  1  0.201000  0.735400  0.171100  1
  N  N1994  1  0.299000  0.235400  0.328900  1
  N  N1995  1  0.799000  0.264600  0.828900  1
  N  N1996  1  0.701000  0.764600  0.671100  1
  N  N1997  1  0.305000  0.728300  0.206400  1
  N  N1998  1  0.195000  0.228300  0.293600  1
  N  N1999  1  0.695000  0.271700  0.793600  1
  N  N2000  1  0.805000  0.771700  0.706400  1
  N  N2001  1  0.826000  0.862400  0.039110  1
  N  N2002  1  0.674000  0.362400  0.460890  1
  N  N2003  1  0.174000  0.137600  0.960890  1
  N  N2004  1  0.326000  0.637600  0.539110  1
  N  N2005  1  0.796100  0.871900  0.982200  1
  N  N2006  1  0.703900  0.371900  0.517800  1
  N  N2007  1  0.203900  0.128100  0.017800  1
  N  N2008  1  0.296100  0.628100  0.482200  1
  N  N2009  1  0.764800  0.965700  0.987700  1
  N  N2010  1  0.735200  0.465700  0.512300  1
  N  N2011  1  0.235200  0.034300  0.012300  1
  N  N2012  1  0.264800  0.534300  0.487700  1
  N  N2013  1  0.702400  0.907900  0.013300  1
  N  N2014  1  0.797600  0.407900  0.486700  1
  N  N2015  1  0.297600  0.092100  0.986700  1
  N  N2016  1  0.202400  0.592100  0.513300  1
  N  N2017  1  0.902100  0.411800  0.083000  1
  N  N2018  1  0.597900  0.911800  0.417000  1
  N  N2019  1  0.097900  0.588200  0.917000  1
  N  N2020  1  0.402100  0.088200  0.583000  1
  N  N2021  1  0.006000  0.399000  0.117500  1
  N  N2022  1  0.494000  0.899000  0.382500  1
  N  N2023  1  0.994000  0.601000  0.882500  1
  N  N2024  1  0.506000  0.101000  0.617500  1
  N  N2025  1  0.883700  0.930700  0.016200  1
  N  N2026  1  0.616300  0.430700  0.483800  1
  N  N2027  1  0.116300  0.069300  0.983800  1
  N  N2028  1  0.383700  0.569300  0.516200  1
  N  N2029  1  0.804900  0.957000  0.048900  1
  N  N2030  1  0.695100  0.457000  0.451100  1
  N  N2031  1  0.195100  0.043000  0.951100  1
  N  N2032  1  0.304900  0.543000  0.548900  1
  N  N2033  1  0.885700  0.791100  0.377100  1
  N  N2034  1  0.614300  0.291100  0.122900  1
  N  N2035  1  0.114300  0.208900  0.622900  1
  N  N2036  1  0.385700  0.708900  0.877100  1
  N  N2037  1  0.985700  0.795200  0.415600  1
  N  N2038  1  0.514300  0.295200  0.084400  1
  N  N2039  1  0.014300  0.204800  0.584400  1
  N  N2040  1  0.485700  0.704800  0.915600  1
  N  N2041  1  0.918800  0.326200  0.107800  1
  N  N2042  1  0.581200  0.826200  0.392200  1
  N  N2043  1  0.081200  0.673800  0.892200  1
  N  N2044  1  0.418800  0.173800  0.607800  1
  N  N2045  1  0.832300  0.373000  0.125900  1
  N  N2046  1  0.667700  0.873000  0.374100  1
  N  N2047  1  0.167700  0.627000  0.874100  1
  N  N2048  1  0.332300  0.127000  0.625900  1
  N  N2049  1  0.976100  0.715900  0.380300  1
  N  N2050  1  0.523900  0.215900  0.119700  1
  N  N2051  1  0.023900  0.284100  0.619700  1
  N  N2052  1  0.476100  0.784100  0.880300  1
  N  N2053  1  0.063700  0.770300  0.372800  1
  N  N2054  1  0.436300  0.270300  0.127200  1
  N  N2055  1  0.936300  0.229700  0.627200  1
  N  N2056  1  0.563700  0.729700  0.872800  1
  N  N2057  1  0.728800  0.551000  0.910600  1
  N  N2058  1  0.771200  0.051000  0.589400  1
  N  N2059  1  0.271200  0.449000  0.089400  1
  N  N2060  1  0.228800  0.949000  0.410600  1
  N  N2061  1  0.020700  0.751100  0.069300  1
  N  N2062  1  0.479300  0.251100  0.430700  1
  N  N2063  1  0.979300  0.248900  0.930700  1
  N  N2064  1  0.520700  0.748900  0.569300  1
  N  N2065  1  0.845200  0.079200  0.064900  1
  N  N2066  1  0.654800  0.579200  0.435100  1
  N  N2067  1  0.154800  0.920800  0.935100  1
  N  N2068  1  0.345200  0.420800  0.564900  1
  N  N2069  1  0.181600  0.458200  0.263400  1
  N  N2070  1  0.318400  0.958200  0.236600  1
  N  N2071  1  0.818400  0.541800  0.736600  1
  N  N2072  1  0.681600  0.041800  0.763400  1
  N  N2073  1  0.071300  0.790200  0.241600  1
  N  N2074  1  0.428700  0.290200  0.258400  1
  N  N2075  1  0.928700  0.209800  0.758400  1
  N  N2076  1  0.571300  0.709800  0.741600  1
  N  N2077  1  0.780400  0.779500  0.448500  1
  N  N2078  1  0.719600  0.279500  0.051500  1
  N  N2079  1  0.219600  0.220500  0.551500  1
  N  N2080  1  0.280400  0.720500  0.948500  1
  N  N2081  1  0.845400  0.081700  0.077300  1
  N  N2082  1  0.654600  0.581700  0.422700  1
  N  N2083  1  0.154600  0.918300  0.922700  1
  N  N2084  1  0.345400  0.418300  0.577300  1
  N  N2085  1  0.144000  0.444400  0.253200  1
  N  N2086  1  0.356000  0.944400  0.246800  1
  N  N2087  1  0.856000  0.555600  0.746800  1
  N  N2088  1  0.644000  0.055600  0.753200  1
  N  N2089  1  0.101100  0.821300  0.227300  1
  N  N2090  1  0.398900  0.321300  0.272700  1
  N  N2091  1  0.898900  0.178700  0.772700  1
  N  N2092  1  0.601100  0.678700  0.727300  1
  N  N2093  1  0.000200  0.482700  0.012400  1
  N  N2094  1  0.499800  0.982700  0.487600  1
  N  N2095  1  0.999800  0.517300  0.987600  1
  N  N2096  1  0.500200  0.017300  0.512400  1
  O  O2097  1  0.809300  0.494100  0.912800  1
  O  O2098  1  0.690700  0.994100  0.587200  1
  O  O2099  1  0.190700  0.505900  0.087200  1
  O  O2100  1  0.309300  0.005900  0.412800  1
  O  O2101  1  0.703500  0.462500  0.911100  1
  O  O2102  1  0.796500  0.962500  0.588900  1
  O  O2103  1  0.296500  0.537500  0.088900  1
  O  O2104  1  0.203500  0.037500  0.411100  1
  O  O2105  1  0.616100  0.528300  0.890600  1
  O  O2106  1  0.883900  0.028300  0.609400  1
  O  O2107  1  0.383900  0.471700  0.109400  1
  O  O2108  1  0.116100  0.971700  0.390600  1
  O  O2109  1  0.642400  0.606200  0.901600  1
  O  O2110  1  0.857600  0.106200  0.598400  1
  O  O2111  1  0.357600  0.393800  0.098400  1
  O  O2112  1  0.142400  0.893800  0.401600  1
  O  O2113  1  0.961900  0.673000  0.064000  1
  O  O2114  1  0.538100  0.173000  0.436000  1
  O  O2115  1  0.038100  0.327000  0.936000  1
  O  O2116  1  0.461900  0.827000  0.564000  1
  O  O2117  1  0.048400  0.688700  0.103800  1
  O  O2118  1  0.451600  0.188700  0.396200  1
  O  O2119  1  0.951600  0.311300  0.896200  1
  O  O2120  1  0.548400  0.811300  0.603800  1
  O  O2121  1  0.996000  0.820300  0.038200  1
  O  O2122  1  0.504000  0.320300  0.461800  1
  O  O2123  1  0.004000  0.179700  0.961800  1
  O  O2124  1  0.496000  0.679700  0.538200  1
  O  O2125  1  0.933300  0.751800  0.024400  1
  O  O2126  1  0.566700  0.251800  0.475600  1
  O  O2127  1  0.066700  0.248200  0.975600  1
  O  O2128  1  0.433300  0.748200  0.524400  1
  O  O2129  1  0.808800  0.163100  0.060500  1
  O  O2130  1  0.691200  0.663100  0.439500  1
  O  O2131  1  0.191200  0.836900  0.939500  1
  O  O2132  1  0.308800  0.336900  0.560500  1
  O  O2133  1  0.742900  0.100300  0.038600  1
  O  O2134  1  0.757100  0.600300  0.461400  1
  O  O2135  1  0.257100  0.899700  0.961400  1
  O  O2136  1  0.242900  0.399700  0.538600  1
  O  O2137  1  0.937800  0.134500  0.085800  1
  O  O2138  1  0.562200  0.634500  0.414200  1
  O  O2139  1  0.062200  0.865500  0.914200  1
  O  O2140  1  0.437800  0.365500  0.585800  1
  O  O2141  1  0.942000  0.052300  0.092300  1
  O  O2142  1  0.558000  0.552300  0.407700  1
  O  O2143  1  0.058000  0.947700  0.907700  1
  O  O2144  1  0.442000  0.447700  0.592300  1
  O  O2145  1  0.162300  0.534400  0.246700  1
  O  O2146  1  0.337700  0.034400  0.253300  1
  O  O2147  1  0.837700  0.465600  0.753300  1
  O  O2148  1  0.662300  0.965600  0.746700  1
  O  O2149  1  0.083800  0.479000  0.224400  1
  O  O2150  1  0.416200  0.979000  0.275600  1
  O  O2151  1  0.916200  0.521000  0.775600  1
  O  O2152  1  0.583800  0.021000  0.724400  1
  O  O2153  1  0.213400  0.381900  0.280200  1
  O  O2154  1  0.286600  0.881900  0.219800  1
  O  O2155  1  0.786600  0.618100  0.719800  1
  O  O2156  1  0.713400  0.118100  0.780200  1
  O  O2157  1  0.120200  0.391000  0.241200  1
  O  O2158  1  0.379800  0.891000  0.258800  1
  O  O2159  1  0.879800  0.609000  0.758800  1
  O  O2160  1  0.620200  0.109000  0.741200  1
  O  O2161  1  0.102000  0.813600  0.291800  1
  O  O2162  1  0.398000  0.313600  0.208200  1
  O  O2163  1  0.898000  0.186400  0.708200  1
  O  O2164  1  0.602000  0.686400  0.791800  1
  O  O2165  1  0.042200  0.863500  0.265200  1
  O  O2166  1  0.457800  0.363500  0.234800  1
  O  O2167  1  0.957800  0.136500  0.734800  1
  O  O2168  1  0.542200  0.636500  0.765200  1
  O  O2169  1  0.006600  0.836200  0.197400  1
  O  O2170  1  0.493400  0.336200  0.302600  1
  O  O2171  1  0.993400  0.163800  0.802600  1
  O  O2172  1  0.506600  0.663800  0.697400  1
  O  O2173  1  0.048100  0.759900  0.192700  1
  O  O2174  1  0.451900  0.259900  0.307300  1
  O  O2175  1  0.951900  0.240100  0.807300  1
  O  O2176  1  0.548100  0.740100  0.692700  1
  O  O2177  1  0.923200  0.133200  0.055300  1
  O  O2178  1  0.576800  0.633200  0.444700  1
  O  O2179  1  0.076800  0.866800  0.944700  1
  O  O2180  1  0.423200  0.366800  0.555300  1
  O  O2181  1  0.882800  0.063300  0.029800  1
  O  O2182  1  0.617200  0.563300  0.470200  1
  O  O2183  1  0.117200  0.936700  0.970200  1
  O  O2184  1  0.382800  0.436700  0.529800  1
  O  O2185  1  0.891400  0.143700  0.111600  1
  O  O2186  1  0.608600  0.643700  0.388400  1
  O  O2187  1  0.108600  0.856300  0.888400  1
  O  O2188  1  0.391400  0.356300  0.611600  1
  O  O2189  1  0.810400  0.090300  0.124800  1
  O  O2190  1  0.689600  0.590300  0.375200  1
  O  O2191  1  0.189600  0.909700  0.875200  1
  O  O2192  1  0.310400  0.409700  0.624800  1
  O  O2193  1  0.213800  0.404700  0.293600  1
  O  O2194  1  0.286200  0.904700  0.206400  1
  O  O2195  1  0.786200  0.595300  0.706400  1
  O  O2196  1  0.713800  0.095300  0.793600  1
  O  O2197  1  0.123000  0.411500  0.201500  1
  O  O2198  1  0.377000  0.911500  0.298500  1
  O  O2199  1  0.877000  0.588500  0.798500  1
  O  O2200  1  0.623000  0.088500  0.701500  1
  O  O2201  1  0.203500  0.469600  0.214500  1
  O  O2202  1  0.296500  0.969600  0.285500  1
  O  O2203  1  0.796500  0.530400  0.785500  1
  O  O2204  1  0.703500  0.030400  0.714500  1
  O  O2205  1  0.132000  0.361000  0.261100  1
  O  O2206  1  0.368000  0.861000  0.238900  1
  O  O2207  1  0.868000  0.639000  0.738900  1
  O  O2208  1  0.632000  0.139000  0.761100  1
  O  O2209  1  0.934400  0.579000  0.004100  1
  O  O2210  1  0.565600  0.079000  0.495900  1
  O  O2211  1  0.065600  0.421000  0.995900  1
  O  O2212  1  0.434400  0.921000  0.504100  1
  O  O2213  1  0.018100  0.864600  0.196400  1
  O  O2214  1  0.481900  0.364600  0.303600  1
  O  O2215  1  0.981900  0.135400  0.803600  1
  O  O2216  1  0.518100  0.635400  0.696400  1
  O  O2217  1  0.005300  0.851400  0.248700  1
  O  O2218  1  0.494700  0.351400  0.251300  1
  O  O2219  1  0.994700  0.148600  0.751300  1
  O  O2220  1  0.505300  0.648600  0.748700  1
  O  O2221  1  0.196900  0.794300  0.254000  1
  O  O2222  1  0.303100  0.294300  0.246000  1
  O  O2223  1  0.803100  0.205700  0.746000  1
  O  O2224  1  0.696900  0.705700  0.754000  1
  O  O2225  1  0.118200  0.797100  0.286100  1
  O  O2226  1  0.381800  0.297100  0.213900  1
  O  O2227  1  0.881800  0.202900  0.713900  1
  O  O2228  1  0.618200  0.702900  0.786100  1
  O  O2229  1  0.949900  0.529200  0.038800  1
  O  O2230  1  0.550100  0.029200  0.461200  1
  O  O2231  1  0.050100  0.470800  0.961200  1
  O  O2232  1  0.449900  0.970800  0.538800  1
  O  O2233  1  0.958500  0.552000  0.984600  1
  O  O2234  1  0.541500  0.052000  0.515400  1
  O  O2235  1  0.041500  0.448000  0.015400  1
  O  O2236  1  0.458500  0.948000  0.484600  1
  F  F2237  1  0.696900  0.513500  0.966700  1
  F  F2238  1  0.803100  0.013500  0.533300  1
  F  F2239  1  0.303100  0.486500  0.033300  1
  F  F2240  1  0.196900  0.986500  0.466700  1
  F  F2241  1  0.794000  0.535900  0.967800  1
  F  F2242  1  0.706000  0.035900  0.532200  1
  F  F2243  1  0.206000  0.464100  0.032200  1
  F  F2244  1  0.294000  0.964100  0.467800  1
  F  F2245  1  0.775300  0.464700  0.970600  1
  F  F2246  1  0.724700  0.964700  0.529400  1
  F  F2247  1  0.224700  0.535300  0.029400  1
  F  F2248  1  0.275300  0.035300  0.470600  1
  F  F2249  1  0.703600  0.532300  0.845300  1
  F  F2250  1  0.796400  0.032300  0.654700  1
  F  F2251  1  0.296400  0.467700  0.154700  1
  F  F2252  1  0.203600  0.967700  0.345300  1
  F  F2253  1  0.720600  0.602100  0.854700  1
  F  F2254  1  0.779400  0.102100  0.645300  1
  F  F2255  1  0.279400  0.397900  0.145300  1
  F  F2256  1  0.220600  0.897900  0.354700  1
  F  F2257  1  0.628100  0.581600  0.837600  1
  F  F2258  1  0.871900  0.081600  0.662400  1
  F  F2259  1  0.371900  0.418400  0.162400  1
  F  F2260  1  0.128100  0.918400  0.337600  1
  F  F2261  1  0.917100  0.694300  0.118500  1
  F  F2262  1  0.582900  0.194300  0.381500  1
  F  F2263  1  0.082900  0.305700  0.881500  1
  F  F2264  1  0.417100  0.805700  0.618500  1
  F  F2265  1  0.897100  0.748400  0.088500  1
  F  F2266  1  0.602900  0.248400  0.411500  1
  F  F2267  1  0.102900  0.251600  0.911500  1
  F  F2268  1  0.397100  0.751600  0.588500  1
  F  F2269  1  0.967500  0.755700  0.125500  1
  F  F2270  1  0.532500  0.255700  0.374500  1
  F  F2271  1  0.032500  0.244300  0.874500  1
  F  F2272  1  0.467500  0.744300  0.625500  1
  F  F2273  1  0.052600  0.711600  0.011600  1
  F  F2274  1  0.447400  0.211600  0.488400  1
  F  F2275  1  0.947400  0.288400  0.988400  1
  F  F2276  1  0.552600  0.788400  0.511600  1
  F  F2277  1  0.099600  0.774100  0.022500  1
  F  F2278  1  0.400400  0.274100  0.477500  1
  F  F2279  1  0.900400  0.225900  0.977500  1
  F  F2280  1  0.599600  0.725900  0.522500  1
  F  F2281  1  0.024600  0.773100  0.986200  1
  F  F2282  1  0.475400  0.273100  0.513800  1
  F  F2283  1  0.975400  0.226900  0.013800  1
  F  F2284  1  0.524600  0.726900  0.486200  1
  F  F2285  1  0.894200  0.144000  0.019600  1
  F  F2286  1  0.605800  0.644000  0.480400  1
  F  F2287  1  0.105800  0.856000  0.980400  1
  F  F2288  1  0.394200  0.356000  0.519600  1
  F  F2289  1  0.801400  0.144000  0.992200  1
  F  F2290  1  0.698600  0.644000  0.507800  1
  F  F2291  1  0.198600  0.856000  0.007800  1
  F  F2292  1  0.301400  0.356000  0.492200  1
  F  F2293  1  0.850700  0.084000  0.002300  1
  F  F2294  1  0.649300  0.584000  0.497700  1
  F  F2295  1  0.149300  0.916000  0.997700  1
  F  F2296  1  0.350700  0.416000  0.502300  1
  F  F2297  1  0.836600  0.132000  0.123300  1
  F  F2298  1  0.663400  0.632000  0.376700  1
  F  F2299  1  0.163400  0.868000  0.876700  1
  F  F2300  1  0.336600  0.368000  0.623300  1
  F  F2301  1  0.921900  0.102100  0.146000  1
  F  F2302  1  0.578100  0.602100  0.354000  1
  F  F2303  1  0.078100  0.897900  0.854000  1
  F  F2304  1  0.421900  0.397900  0.646000  1
  F  F2305  1  0.846100  0.057700  0.128900  1
  F  F2306  1  0.653900  0.557700  0.371100  1
  F  F2307  1  0.153900  0.942300  0.871100  1
  F  F2308  1  0.346100  0.442300  0.628900  1
  F  F2309  1  0.184600  0.510500  0.185700  1
  F  F2310  1  0.315400  0.010500  0.314300  1
  F  F2311  1  0.815400  0.489500  0.814300  1
  F  F2312  1  0.684600  0.989500  0.685700  1
  F  F2313  1  0.255100  0.489600  0.220500  1
  F  F2314  1  0.244900  0.989600  0.279500  1
  F  F2315  1  0.744900  0.510400  0.779500  1
  F  F2316  1  0.755100  0.010400  0.720500  1
  F  F2317  1  0.196200  0.441500  0.196800  1
  F  F2318  1  0.303800  0.941500  0.303200  1
  F  F2319  1  0.803800  0.558500  0.803200  1
  F  F2320  1  0.696200  0.058500  0.696800  1
  F  F2321  1  0.055700  0.421700  0.290500  1
  F  F2322  1  0.444300  0.921700  0.209500  1
  F  F2323  1  0.944300  0.578300  0.709500  1
  F  F2324  1  0.555700  0.078300  0.790500  1
  F  F2325  1  0.139100  0.436100  0.320300  1
  F  F2326  1  0.360900  0.936100  0.179700  1
  F  F2327  1  0.860900  0.563900  0.679700  1
  F  F2328  1  0.639100  0.063900  0.820300  1
  F  F2329  1  0.117300  0.369400  0.314100  1
  F  F2330  1  0.382700  0.869400  0.185900  1
  F  F2331  1  0.882700  0.630600  0.685900  1
  F  F2332  1  0.617300  0.130600  0.814100  1
  F  F2333  1  0.917500  0.756800  0.194000  1
  F  F2334  1  0.582500  0.256800  0.306000  1
  F  F2335  1  0.082500  0.243200  0.806000  1
  F  F2336  1  0.417500  0.743200  0.694000  1
  F  F2337  1  0.961900  0.730000  0.233100  1
  F  F2338  1  0.538100  0.230000  0.266900  1
  F  F2339  1  0.038100  0.270000  0.766900  1
  F  F2340  1  0.461900  0.770000  0.733100  1
  F  F2341  1  0.929900  0.794200  0.237900  1
  F  F2342  1  0.570100  0.294200  0.262100  1
  F  F2343  1  0.070100  0.205800  0.762100  1
  F  F2344  1  0.429900  0.705800  0.737900  1
  F  F2345  1  0.199200  0.824500  0.254500  1
  F  F2346  1  0.300800  0.324500  0.245500  1
  F  F2347  1  0.800800  0.175500  0.745500  1
  F  F2348  1  0.699200  0.675500  0.754500  1
  F  F2349  1  0.177200  0.888300  0.274400  1
  F  F2350  1  0.322800  0.388300  0.225600  1
  F  F2351  1  0.822800  0.111700  0.725600  1
  F  F2352  1  0.677200  0.611700  0.774400  1
  F  F2353  1  0.143100  0.875100  0.229200  1
  F  F2354  1  0.356900  0.375100  0.270800  1
  F  F2355  1  0.856900  0.124900  0.770800  1
  F  F2356  1  0.643100  0.624900  0.729200  1
  F  F2357  1  0.818400  0.152000  0.004400  1
  F  F2358  1  0.681600  0.652000  0.495600  1
  F  F2359  1  0.181600  0.848000  0.995600  1
  F  F2360  1  0.318400  0.348000  0.504400  1
  F  F2361  1  0.911100  0.019400  0.130200  1
  F  F2362  1  0.588900  0.519400  0.369800  1
  F  F2363  1  0.088900  0.980600  0.869800  1
  F  F2364  1  0.411100  0.480600  0.630200  1
  F  F2365  1  0.974200  0.063700  0.116700  1
  F  F2366  1  0.525800  0.563700  0.383300  1
  F  F2367  1  0.025800  0.936300  0.883300  1
  F  F2368  1  0.474200  0.436300  0.616700  1
  F  F2369  1  0.939600  0.071400  0.159400  1
  F  F2370  1  0.560400  0.571400  0.340600  1
  F  F2371  1  0.060400  0.928600  0.840600  1
  F  F2372  1  0.439600  0.428600  0.659400  1
  F  F2373  1  0.790400  0.165000  0.047300  1
  F  F2374  1  0.709600  0.665000  0.452700  1
  F  F2375  1  0.209600  0.835000  0.952700  1
  F  F2376  1  0.290400  0.335000  0.547300  1
  F  F2377  1  0.758400  0.104600  0.023100  1
  F  F2378  1  0.741600  0.604600  0.476900  1
  F  F2379  1  0.241600  0.895400  0.976900  1
  F  F2380  1  0.258400  0.395400  0.523100  1
  F  F2381  1  0.079000  0.494000  0.178000  1
  F  F2382  1  0.421000  0.994000  0.322000  1
  F  F2383  1  0.921000  0.506000  0.822000  1
  F  F2384  1  0.579000  0.006000  0.678000  1
  F  F2385  1  0.084000  0.454800  0.301400  1
  F  F2386  1  0.416000  0.954800  0.198600  1
  F  F2387  1  0.916000  0.545200  0.698600  1
  F  F2388  1  0.584000  0.045200  0.801400  1
  F  F2389  1  0.044600  0.498400  0.222600  1
  F  F2390  1  0.455400  0.998400  0.277400  1
  F  F2391  1  0.955400  0.501600  0.777400  1
  F  F2392  1  0.544600  0.001600  0.722600  1
  F  F2393  1  0.125000  0.536800  0.213800  1
  F  F2394  1  0.375000  0.036800  0.286200  1
  F  F2395  1  0.875000  0.463200  0.786200  1
  F  F2396  1  0.625000  0.963200  0.713800  1
  F  F2397  1  0.045100  0.389100  0.293500  1
  F  F2398  1  0.454900  0.889100  0.206500  1
  F  F2399  1  0.954900  0.610900  0.706500  1
  F  F2400  1  0.545100  0.110900  0.793500  1
  F  F2401  1  0.121800  0.396400  0.328000  1
  F  F2402  1  0.378200  0.896400  0.172000  1
  F  F2403  1  0.878200  0.603600  0.672000  1
  F  F2404  1  0.621800  0.103600  0.828000  1
  F  F2405  1  0.039300  0.626600  0.209100  1
  F  F2406  1  0.460700  0.126600  0.290900  1
  F  F2407  1  0.960700  0.373400  0.790900  1
  F  F2408  1  0.539300  0.873400  0.709100  1
  F  F2409  1  0.957800  0.586700  0.213800  1
  F  F2410  1  0.542200  0.086700  0.286200  1
  F  F2411  1  0.042200  0.413300  0.786200  1
  F  F2412  1  0.457800  0.913300  0.713800  1
  F  F2413  1  0.997000  0.572500  0.180200  1
  F  F2414  1  0.503000  0.072500  0.319800  1
  F  F2415  1  0.003000  0.427500  0.819800  1
  F  F2416  1  0.497000  0.927500  0.680200  1
  F  F2417  1  0.061100  0.602300  0.009000  1
  F  F2418  1  0.438900  0.102300  0.491000  1
  F  F2419  1  0.938900  0.397700  0.991000  1
  F  F2420  1  0.561100  0.897700  0.509000  1
  F  F2421  1  0.096000  0.545200  0.033400  1
  F  F2422  1  0.404000  0.045200  0.466600  1
  F  F2423  1  0.904000  0.454800  0.966600  1
  F  F2424  1  0.596000  0.954800  0.533400  1
  F  F2425  1  0.928900  0.792100  0.202400  1
  F  F2426  1  0.571100  0.292100  0.297600  1
  F  F2427  1  0.071100  0.207900  0.797600  1
  F  F2428  1  0.428900  0.707900  0.702400  1
  F  F2429  1  0.009600  0.764500  0.189100  1
  F  F2430  1  0.490400  0.264500  0.310900  1
  F  F2431  1  0.990400  0.235500  0.810900  1
  F  F2432  1  0.509600  0.735500  0.689100  1
  F  F2433  1  0.996100  0.756500  0.235300  1
  F  F2434  1  0.503900  0.256500  0.264700  1
  F  F2435  1  0.003900  0.243500  0.764700  1
  F  F2436  1  0.496100  0.743500  0.735300  1
  F  F2437  1  0.205000  0.867400  0.296500  1
  F  F2438  1  0.295000  0.367400  0.203500  1
  F  F2439  1  0.795000  0.132600  0.703500  1
  F  F2440  1  0.705000  0.632600  0.796500  1
  F  F2441  1  0.192200  0.891900  0.249600  1
  F  F2442  1  0.307800  0.391900  0.250400  1
  F  F2443  1  0.807800  0.108100  0.750400  1
  F  F2444  1  0.692200  0.608100  0.749600  1
  F  F2445  1  0.117800  0.897700  0.275300  1
  F  F2446  1  0.382200  0.397700  0.224700  1
  F  F2447  1  0.882200  0.102300  0.724700  1
  F  F2448  1  0.617800  0.602300  0.775300  1
  F  F2449  1  0.077400  0.544700  0.053800  1
  F  F2450  1  0.422600  0.044700  0.446200  1
  F  F2451  1  0.922600  0.455300  0.946200  1
  F  F2452  1  0.577400  0.955300  0.553800  1
  F  F2453  1  0.040900  0.601400  0.040600  1
  F  F2454  1  0.459100  0.101400  0.459400  1
  F  F2455  1  0.959100  0.398600  0.959400  1
  F  F2456  1  0.540900  0.898600  0.540600  1
  F  F2457  1  0.090300  0.563800  0.008300  1
  F  F2458  1  0.409700  0.063800  0.491700  1
  F  F2459  1  0.909700  0.436200  0.991700  1
  F  F2460  1  0.590300  0.936200  0.508300  1
