
#######################################################################
#
#                 Cambridge Crystallographic Data Centre
#                                CCDC 
#
#######################################################################
#
# If this CIF has been generated from an entry in the Cambridge 
# Structural Database, then it will include bibliographic, chemical, 
# crystal, experimental, refinement or atomic coordinate data resulting 
# from the CCDC's data processing and validation procedures.
#
#######################################################################

data_SUWGEY
_chemical_formula_moiety         
'C240 H156 Fe4 N24 8+,8(C2 F6 N1 O4 S2 1-),3(C6 H6),C2 H3 N1'
_chemical_name_systematic        
"hexakis(\m~2~-N,N'-(pyrene-2,7-diyldi-3,1-phenylene)bis(1-(pyridin-2-yl)methanimine))-tetra-iron octakis(bis((trifluoromethyl)sulfonyl)azanide) benzene acetonitrile solvate"
_symmetry_cell_setting           monoclinic
_symmetry_space_group_name_H-M   'P 21/n'
_symmetry_Int_Tables_number      14
_space_group_name_Hall           '-P 2yn'
loop_
_symmetry_equiv_pos_site_id
_symmetry_equiv_pos_as_xyz
1 x,y,z
2 1/2-x,1/2+y,1/2-z
3 -x,-y,-z
4 1/2+x,1/2-y,1/2+z
_cell_length_a                   21.7632(11)
_cell_length_b                   29.6794(14)
_cell_length_c                   45.408(2)
_cell_angle_alpha                90
_cell_angle_beta                 98.8510(10)
_cell_angle_gamma                90
_cell_volume                     28980.6
_exptl_crystal_colour            purple
_exptl_crystal_description       block
_cell_formula_units_Z            4
_exptl_crystal_recrystallization_method 
'Re-crystallisation from solvent: acetonitrile, benzene'
loop_
_atom_site_label
_atom_site_type_symbol
_atom_site_fract_x
_atom_site_fract_y
_atom_site_fract_z
Fe1 Fe 0.25116(9) 0.68164(7) 0.18514(5)
Fe2 Fe 0.79490(9) 0.91606(7) 0.01471(4)
Fe3 Fe 0.91948(9) 0.38868(7) 0.12371(4)
Fe4 Fe 0.97431(9) 0.78213(8) 0.37223(4)
N1 N 0.1944(5) 0.6385(4) 0.1623(3)
N2 N 0.2874(4) 0.6821(3) 0.1481(2)
N3 N 0.9265(4) 0.4484(3) 0.1436(2)
N4 N 0.9452(4) 0.3696(3) 0.1649(2)
C1 C 0.1455(6) 0.6188(5) 0.1717(3)
H1 H 0.1348 0.6261 0.1907
C2 C 0.1104(6) 0.5873(5) 0.1533(3)
H2 H 0.0762 0.5726 0.1599
C3 C 0.1252(6) 0.5777(5) 0.1259(3)
H3 H 0.1019 0.5557 0.1137
C4 C 0.1732(6) 0.5992(5) 0.1159(3)
H4 H 0.1833 0.5931 0.0966
C5 C 0.2068(5) 0.6302(4) 0.1346(3)
C6 C 0.2603(5) 0.6554(4) 0.1281(3)
H5 H 0.2747 0.6522 0.1096
C7 C 0.3388(5) 0.7070(4) 0.1409(3)
C8 C 0.3319(5) 0.7534(4) 0.1366(3)
H6 H 0.2941 0.7680 0.1389
C9 C 0.3816(5) 0.7777(4) 0.1288(3)
H7 H 0.3782 0.8096 0.1271
C10 C 0.4360(5) 0.7569(4) 0.1234(3)
H8 H 0.4676 0.7741 0.1164
C11 C 0.4438(5) 0.7103(4) 0.1283(3)
C12 C 0.3947(5) 0.6859(4) 0.1365(3)
H9 H 0.3989 0.6543 0.1392
C13 C 0.5013(4) 0.6881(3) 0.1227(3)
C14 C 0.5562(4) 0.7112(4) 0.1248(2)
H10 H 0.5558 0.7425 0.1291
C15 C 0.6127(4) 0.6918(3) 0.1209(2)
C16 C 0.6142(4) 0.6441(3) 0.1162(2)
C17 C 0.5588(4) 0.6197(3) 0.1142(3)
C18 C 0.5036(5) 0.6414(3) 0.1171(3)
H11 H 0.4663 0.6243 0.1154
C19 C 0.6715(4) 0.6220(3) 0.1141(2)
C20 C 0.7268(4) 0.6469(3) 0.1161(2)
C21 C 0.7825(5) 0.6249(3) 0.1157(2)
H12 H 0.8195 0.6421 0.1165
C22 C 0.7862(4) 0.5776(3) 0.1141(2)
C23 C 0.7302(4) 0.5538(4) 0.1111(2)
H13 H 0.7314 0.5220 0.1092
C24 C 0.6724(4) 0.5745(3) 0.1107(2)
C25 C 0.6698(4) 0.7159(4) 0.1212(2)
H14 H 0.6695 0.7478 0.1228
C26 C 0.7231(5) 0.6953(3) 0.1191(2)
H15 H 0.7598 0.7128 0.1197
C27 C 0.5615(5) 0.5712(3) 0.1101(2)
H16 H 0.5245 0.5538 0.1089
C28 C 0.6154(4) 0.5507(4) 0.1079(2)
H17 H 0.6155 0.5191 0.1044
C29 C 0.8457(4) 0.5554(3) 0.1147(2)
C30 C 0.8953(4) 0.5754(4) 0.1036(2)
H18 H 0.8896 0.6041 0.0943
C31 C 0.9528(5) 0.5547(4) 0.1058(3)
H19 H 0.9857 0.5697 0.0983
C32 C 0.9632(5) 0.5132(4) 0.1184(2)
H20 H 1.0025 0.4988 0.1193
C33 C 0.9149(4) 0.4927(3) 0.1297(2)
C34 C 0.8568(4) 0.5117(3) 0.1276(2)
H21 H 0.8242 0.4959 0.1348
C35 C 0.9523(5) 0.4477(4) 0.1711(2)
H22 H 0.9639 0.4745 0.1819
C36 C 0.9623(5) 0.4043(4) 0.1843(2)
C37 C 0.9836(6) 0.3967(4) 0.2147(2)
H23 H 0.9953 0.4212 0.2278
C38 C 0.9871(6) 0.3530(4) 0.2253(3)
H24 H 1.0023 0.3470 0.2456
C39 C 0.9683(6) 0.3186(4) 0.2059(3)
H25 H 0.9687 0.2887 0.2133
C40 C 0.9486(6) 0.3266(4) 0.1756(3)
H26 H 0.9376 0.3021 0.1624
N5 N 0.2143(5) 0.6740(4) 0.2221(3)
N6 N 0.3002(4) 0.6287(3) 0.2026(2)
N7 N 0.9629(4) 0.7758(3) 0.3286(2)
N8 N 0.9790(5) 0.8476(3) 0.3604(2)
C41 C 0.1724(6) 0.7004(5) 0.2324(3)
H27 H 0.1539 0.7241 0.2201
C42 C 0.1551(6) 0.6945(5) 0.2602(3)
H28 H 0.1269 0.7148 0.2671
C43 C 0.1795(6) 0.6587(5) 0.2777(3)
H29 H 0.1670 0.6530 0.2965
C44 C 0.2212(6) 0.6323(5) 0.2672(3)
H30 H 0.2388 0.6078 0.2790
C45 C 0.2395(6) 0.6394(4) 0.2400(3)
C46 C 0.2862(5) 0.6149(4) 0.2273(3)
H31 H 0.3060 0.5893 0.2371
C47 C 0.3495(5) 0.6075(4) 0.1903(3)
C48 C 0.3360(5) 0.5771(4) 0.1671(3)
H32 H 0.2941 0.5710 0.1587
C49 C 0.3852(5) 0.5556(4) 0.1564(3)
H33 H 0.3768 0.5369 0.1392
C50 C 0.4445(5) 0.5611(4) 0.1700(3)
H34 H 0.4766 0.5440 0.1634
C51 C 0.4597(4) 0.5914(4) 0.1937(3)
C52 C 0.4111(4) 0.6144(4) 0.2039(3)
H35 H 0.4199 0.6349 0.2200
C53 C 0.5251(4) 0.5994(4) 0.2077(2)
C54 C 0.5742(4) 0.5929(4) 0.1924(2)
H36 H 0.5657 0.5815 0.1727
C55 C 0.6362(4) 0.6022(4) 0.2046(2)
C56 C 0.6474(4) 0.6190(4) 0.2346(2)
C57 C 0.5983(4) 0.6241(4) 0.2509(2)
C58 C 0.5386(5) 0.6130(4) 0.2377(2)
H37 H 0.5057 0.6145 0.2492
C59 C 0.7098(4) 0.6326(4) 0.2466(2)
C60 C 0.7593(4) 0.6274(4) 0.2306(2)
C61 C 0.8180(5) 0.6422(4) 0.2428(2)
H38 H 0.8514 0.6391 0.2317
C62 C 0.8293(4) 0.6618(4) 0.2712(2)
C63 C 0.7799(4) 0.6658(4) 0.2873(2)
H39 H 0.7868 0.6798 0.3064
C64 C 0.7204(4) 0.6498(4) 0.2762(2)
C65 C 0.6875(4) 0.5967(4) 0.1889(2)
H40 H 0.6804 0.5854 0.1691
C66 C 0.7458(5) 0.6071(4) 0.2015(2)
H41 H 0.7792 0.6010 0.1908
C67 C 0.6117(5) 0.6404(4) 0.2812(2)
H42 H 0.5794 0.6419 0.2930
C68 C 0.6698(5) 0.6535(4) 0.2929(2)
H43 H 0.6773 0.6653 0.3125
C69 C 0.8911(4) 0.6784(3) 0.2831(2)
C70 C 0.9448(4) 0.6557(4) 0.2786(2)
H44 H 0.9418 0.6280 0.2679
C71 C 1.0024(5) 0.6733(4) 0.2897(2)
H45 H 1.0383 0.6572 0.2862
C72 C 1.0105(5) 0.7128(4) 0.3055(2)
H46 H 1.0507 0.7248 0.3121
C73 C 0.9571(4) 0.7343(3) 0.3113(2)
C74 C 0.8987(4) 0.7180(3) 0.3007(2)
H47 H 0.8631 0.7335 0.3052
C75 C 0.9706(5) 0.8121(4) 0.3140(3)
H48 H 0.9723 0.8116 0.2932
C76 C 0.9763(6) 0.8531(4) 0.3307(3)
C77 C 0.9773(6) 0.8968(4) 0.3184(3)
H49 H 0.9761 0.9006 0.2975
C78 C 0.9800(6) 0.9337(4) 0.3368(3)
H50 H 0.9797 0.9633 0.3287
C79 C 0.9830(6) 0.9273(5) 0.3669(3)
H51 H 0.9848 0.9525 0.3799
C80 C 0.9834(6) 0.8839(4) 0.3784(3)
H52 H 0.9869 0.8798 0.3993
N9 N 0.2010(4) 0.7354(3) 0.1711(2)
N10 N 0.3050(4) 0.7283(3) 0.2064(2)
N11 N 0.8260(4) 0.8624(3) 0.03911(19)
N12 N 0.7961(5) 0.8719(4) -0.0178(2)
C81 C 0.1492(6) 0.7368(4) 0.1507(3)
H53 H 0.1320 0.7096 0.1421
C82 C 0.1206(6) 0.7773(4) 0.1420(3)
H54 H 0.0848 0.7779 0.1271
C83 C 0.1443(6) 0.8164(4) 0.1550(3)
H55 H 0.1250 0.8444 0.1491
C84 C 0.1948(6) 0.8154(4) 0.1761(3)
H56 H 0.2101 0.8425 0.1857
C85 C 0.2246(5) 0.7748(4) 0.1840(3)
C86 C 0.2827(5) 0.7685(4) 0.2030(3)
H57 H 0.3045 0.7933 0.2128
C87 C 0.3645(5) 0.7239(4) 0.2235(2)
C88 C 0.3726(5) 0.7053(4) 0.2520(2)
H58 H 0.3378 0.6954 0.2606
C89 C 0.4322(5) 0.7015(4) 0.2679(3)
H59 H 0.4381 0.6878 0.2871
C90 C 0.4822(5) 0.7170(4) 0.2563(2)
H60 H 0.5225 0.7136 0.2676
C91 C 0.4764(5) 0.7377(4) 0.2285(2)
C92 C 0.4166(4) 0.7393(4) 0.2119(3)
H61 H 0.4113 0.7512 0.1923
C93 C 0.5293(4) 0.7578(4) 0.2167(2)
C94 C 0.5900(4) 0.7433(4) 0.2247(2)
H62 H 0.5979 0.7208 0.2397
C95 C 0.6404(4) 0.7597(4) 0.2123(2)
C96 C 0.6263(4) 0.7914(4) 0.1876(2)
C97 C 0.5654(5) 0.8061(4) 0.1792(2)
C98 C 0.5182(5) 0.7887(4) 0.1932(2)
H63 H 0.4767 0.7982 0.1866
C99 C 0.6751(4) 0.8064(4) 0.1724(2)
C100 C 0.7361(5) 0.7909(4) 0.1802(2)
C101 C 0.7813(5) 0.8042(4) 0.1637(2)
H64 H 0.8230 0.7947 0.1699
C102 C 0.7678(4) 0.8311(4) 0.1382(2)
C103 C 0.7064(4) 0.8462(4) 0.1307(2)
H65 H 0.6961 0.8647 0.1135
C104 C 0.6598(4) 0.8354(4) 0.1473(2)
C105 C 0.7030(4) 0.7456(4) 0.2201(2)
H66 H 0.7131 0.7246 0.2358
C106 C 0.7482(5) 0.7609(4) 0.2060(2)
H67 H 0.7898 0.7520 0.2130
C107 C 0.5517(5) 0.8377(4) 0.1549(2)
H68 H 0.5105 0.8486 0.1493
C108 C 0.5975(4) 0.8517(4) 0.1403(2)
H69 H 0.5880 0.8732 0.1248
C109 C 0.8148(4) 0.8450(4) 0.1204(2)
C110 C 0.8773(5) 0.8521(4) 0.1323(3)
H70 H 0.8903 0.8500 0.1532
C111 C 0.9200(5) 0.8622(4) 0.1138(2)
H71 H 0.9623 0.8662 0.1223
C112 C 0.9036(5) 0.8667(4) 0.0838(2)
H72 H 0.9339 0.8740 0.0716
C113 C 0.8424(5) 0.8605(4) 0.0714(2)
C114 C 0.7989(5) 0.8488(4) 0.0889(2)
H73 H 0.7573 0.8432 0.0799
C115 C 0.8375(6) 0.8285(4) 0.0236(2)
H74 H 0.8571 0.8023 0.0328
C116 C 0.8201(6) 0.8312(4) -0.0078(2)
C117 C 0.8269(7) 0.7962(4) -0.0280(3)
H75 H 0.8449 0.7684 -0.0209
C118 C 0.8075(7) 0.8024(5) -0.0580(3)
H76 H 0.8124 0.7790 -0.0717
C119 C 0.7806(7) 0.8429(5) -0.0679(3)
H77 H 0.7648 0.8473 -0.0883
C120 C 0.7773(7) 0.8772(5) -0.0474(3)
H78 H 0.7612 0.9056 -0.0545
N13 N 0.7648(5) 0.9657(4) -0.0123(2)
N14 N 0.7024(5) 0.9079(3) 0.0133(2)
N15 N 0.9021(4) 0.4118(3) 0.0830(2)
N16 N 1.0060(5) 0.3990(4) 0.1175(2)
C121 C 0.8004(6) 0.9955(5) -0.0248(3)
H79 H 0.8443 0.9958 -0.0192
C122 C 0.7711(7) 1.0260(5) -0.0461(3)
H80 H 0.7960 1.0453 -0.0561
C123 C 0.7088(7) 1.0285(5) -0.0529(3)
H81 H 0.6898 1.0499 -0.0670
C124 C 0.6733(6) 1.0001(5) -0.0390(3)
H82 H 0.6292 1.0021 -0.0428
C125 C 0.7020(6) 0.9684(4) -0.0195(3)
C126 C 0.6694(6) 0.9354(4) -0.0043(3)
H83 H 0.6252 0.9342 -0.0072
C127 C 0.6714(5) 0.8774(4) 0.0293(2)
C128 C 0.6260(5) 0.8922(4) 0.0453(2)
H84 H 0.6163 0.9234 0.0457
C129 C 0.5946(5) 0.8620(4) 0.0608(3)
H85 H 0.5650 0.8729 0.0723
C130 C 0.6052(5) 0.8169(4) 0.0597(3)
H86 H 0.5835 0.7968 0.0707
C131 C 0.6484(5) 0.7997(3) 0.0422(2)
C132 C 0.6818(5) 0.8310(3) 0.0276(2)
H87 H 0.7122 0.8204 0.0164
C133 C 0.6641(5) 0.7511(3) 0.0411(2)
C134 C 0.7250(5) 0.7381(3) 0.0401(2)
H88 H 0.7560 0.7607 0.0403
C135 C 0.7424(4) 0.6925(3) 0.0388(3)
C136 C 0.6946(4) 0.6597(3) 0.0376(2)
C137 C 0.6328(4) 0.6726(3) 0.0395(2)
C138 C 0.6188(5) 0.7180(3) 0.0409(2)
H89 H 0.5772 0.7268 0.0417
C139 C 0.7113(4) 0.6131(3) 0.0369(2)
C140 C 0.7728(5) 0.6003(3) 0.0361(3)
C141 C 0.7874(5) 0.5553(3) 0.0365(2)
H90 H 0.8289 0.5468 0.0349
C142 C 0.7441(5) 0.5212(3) 0.0392(2)
C143 C 0.6824(5) 0.5341(4) 0.0390(2)
H91 H 0.6519 0.5115 0.0402
C144 C 0.6641(4) 0.5794(3) 0.0371(2)
C145 C 0.8051(5) 0.6792(4) 0.0374(3)
H92 H 0.8363 0.7014 0.0366
C146 C 0.8197(5) 0.6350(4) 0.0372(3)
H93 H 0.8619 0.6264 0.0379
C147 C 0.5871(5) 0.6374(4) 0.0396(2)
H94 H 0.5454 0.6455 0.0409
C148 C 0.6017(5) 0.5936(4) 0.0380(2)
H95 H 0.5698 0.5716 0.0375
C149 C 0.7630(5) 0.4743(3) 0.0437(2)
C150 C 0.7273(6) 0.4380(4) 0.0326(3)
H96 H 0.6872 0.4431 0.0216
C151 C 0.7485(6) 0.3944(4) 0.0372(3)
H97 H 0.7227 0.3704 0.0287
C152 C 0.8052(5) 0.3843(4) 0.0535(2)
H98 H 0.8188 0.3541 0.0568
C153 C 0.8420(5) 0.4205(4) 0.0650(3)
C154 C 0.8221(5) 0.4643(4) 0.0598(2)
H99 H 0.8488 0.4884 0.0672
C155 C 0.9511(5) 0.4237(4) 0.0718(3)
H100 H 0.9482 0.4357 0.0523
C156 C 1.0092(5) 0.4177(5) 0.0903(3)
C157 C 1.0675(5) 0.4270(5) 0.0813(3)
H101 H 1.0691 0.4391 0.0621
C158 C 1.1216(6) 0.4184(5) 0.1003(3)
H102 H 1.1611 0.4241 0.0946
C159 C 1.1164(6) 0.4012(5) 0.1277(3)
H103 H 1.1531 0.3951 0.1413
C160 C 1.0591(5) 0.3924(5) 0.1363(3)
H104 H 1.0574 0.3816 0.1559
N17 N 0.8837(4) 0.9307(3) 0.0162(2)
N18 N 0.8049(4) 0.9570(3) 0.0489(2)
N19 N 0.8857(4) 0.7911(4) 0.3771(2)
N20 N 0.9857(5) 0.7952(5) 0.4156(2)
C161 C 0.9227(5) 0.9158(4) -0.0014(3)
H105 H 0.9064 0.8967 -0.0175
C162 C 0.9853(6) 0.9262(5) 0.0019(3)
H106 H 1.0110 0.9153 -0.0117
C163 C 1.0092(6) 0.9530(4) 0.0260(3)
H107 H 1.0523 0.9600 0.0298
C164 C 0.9698(5) 0.9692(4) 0.0441(3)
H108 H 0.9850 0.9890 0.0600
C165 C 0.9076(5) 0.9570(4) 0.0394(3)
C166 C 0.8606(5) 0.9719(4) 0.0560(3)
H109 H 0.8704 0.9926 0.0721
C167 C 0.7608(5) 0.9722(4) 0.0663(2)
C168 C 0.7140(5) 1.0023(4) 0.0550(3)
H110 H 0.7099 1.0123 0.0349
C169 C 0.6731(5) 1.0177(4) 0.0737(2)
H111 H 0.6416 1.0387 0.0663
C170 C 0.6777(5) 1.0028(4) 0.1024(2)
H112 H 0.6476 1.0125 0.1142
C171 C 0.7251(5) 0.9738(4) 0.1151(2)
C172 C 0.7653(5) 0.9582(4) 0.0961(2)
H113 H 0.7969 0.9374 0.1037
C173 C 0.7320(5) 0.9565(4) 0.1459(2)
C174 C 0.6807(5) 0.9498(4) 0.1597(2)
H114 H 0.6415 0.9607 0.1503
C175 C 0.6841(5) 0.9274(4) 0.1871(2)
C176 C 0.7438(4) 0.9146(4) 0.2018(2)
C177 C 0.7971(5) 0.9236(4) 0.1883(2)
C178 C 0.7898(5) 0.9450(4) 0.1611(2)
H115 H 0.8258 0.9521 0.1525
C179 C 0.7490(4) 0.8903(4) 0.2292(2)
C180 C 0.6952(5) 0.8784(4) 0.2414(2)
C181 C 0.7028(5) 0.8539(4) 0.2677(2)
H116 H 0.6670 0.8467 0.2764
C182 C 0.7609(5) 0.8394(4) 0.2818(2)
C183 C 0.8136(5) 0.8513(4) 0.2696(2)
H117 H 0.8535 0.8426 0.2794
C184 C 0.8084(5) 0.8760(4) 0.2429(2)
C185 C 0.6310(5) 0.9181(4) 0.2010(2)
H118 H 0.5914 0.9292 0.1924
C186 C 0.6363(5) 0.8940(4) 0.2258(2)
H119 H 0.5996 0.8867 0.2337
C187 C 0.8569(5) 0.9101(4) 0.2038(2)
H120 H 0.8935 0.9174 0.1958
C188 C 0.8613(5) 0.8874(4) 0.2296(2)
H121 H 0.9013 0.8785 0.2393
C189 C 0.7670(5) 0.8112(4) 0.3094(2)
C190 C 0.7235(5) 0.7788(4) 0.3142(2)
H122 H 0.6863 0.7759 0.3003
C191 C 0.7331(5) 0.7506(4) 0.3386(2)
H123 H 0.7026 0.7288 0.3415
C192 C 0.7867(5) 0.7540(4) 0.3589(2)
H124 H 0.7938 0.7340 0.3754
C193 C 0.8304(5) 0.7866(4) 0.3552(2)
C194 C 0.8206(5) 0.8149(4) 0.3309(2)
H125 H 0.8507 0.8374 0.3286
C195 C 0.8776(6) 0.8032(5) 0.4039(2)
H126 H 0.8376 0.8102 0.4085
C196 C 0.9320(6) 0.8056(6) 0.4260(3)
C197 C 0.9306(6) 0.8168(6) 0.4559(3)
H127 H 0.8925 0.8228 0.4630
C198 C 0.9877(6) 0.8188(6) 0.4750(3)
H128 H 0.9889 0.8229 0.4958
C199 C 1.0426(7) 0.8148(6) 0.4630(3)
H129 H 1.0810 0.8251 0.4738
C200 C 1.0401(6) 0.7955(6) 0.4350(3)
H130 H 1.0764 0.7824 0.4294
N21 N 0.9188(5) 0.3262(3) 0.1078(2)
N22 N 0.8323(4) 0.3730(3) 0.1259(2)
N23 N 0.9761(4) 0.7159(3) 0.3803(2)
N24 N 1.0637(4) 0.7703(4) 0.3728(2)
C201 C 0.9659(6) 0.3046(4) 0.0976(3)
H131 H 1.0048 0.3193 0.0980
C202 C 0.9578(6) 0.2608(4) 0.0865(3)
H132 H 0.9906 0.2458 0.0789
C203 C 0.9012(6) 0.2397(4) 0.0867(3)
H133 H 0.8952 0.2097 0.0795
C204 C 0.8547(6) 0.2613(4) 0.0970(3)
H134 H 0.8159 0.2467 0.0972
C205 C 0.8635(5) 0.3053(4) 0.1073(3)
C206 C 0.8167(5) 0.3326(4) 0.1181(3)
H135 H 0.7764 0.3212 0.1193
C207 C 0.7867(5) 0.4001(4) 0.1365(2)
C208 C 0.7295(5) 0.4086(4) 0.1181(2)
H136 H 0.7225 0.3969 0.0984
C209 C 0.6838(5) 0.4336(4) 0.1283(2)
H137 H 0.6448 0.4376 0.1160
C210 C 0.6947(5) 0.4526(4) 0.1562(2)
H138 H 0.6632 0.4706 0.1627
C211 C 0.7508(5) 0.4461(4) 0.1753(2)
C212 C 0.7957(5) 0.4192(4) 0.1647(2)
H139 H 0.8339 0.4139 0.1774
C213 C 0.7653(5) 0.4691(4) 0.2046(2)
C214 C 0.7193(5) 0.4805(4) 0.2213(2)
H140 H 0.6773 0.4729 0.2140
C215 C 0.7334(4) 0.5030(4) 0.2489(2)
C216 C 0.7971(4) 0.5128(4) 0.2598(2)
C217 C 0.8434(4) 0.5004(4) 0.2432(2)
C218 C 0.8268(5) 0.4783(4) 0.2167(2)
H141 H 0.8587 0.4687 0.2060
C219 C 0.8139(4) 0.5370(4) 0.2872(2)
C220 C 0.7676(5) 0.5498(4) 0.3043(2)
C221 C 0.7837(5) 0.5755(4) 0.3294(2)
H142 H 0.7522 0.5843 0.3406
C222 C 0.8449(5) 0.5893(4) 0.3391(2)
C223 C 0.8910(5) 0.5718(4) 0.3240(2)
H143 H 0.9334 0.5773 0.3318
C224 C 0.8768(5) 0.5465(4) 0.2978(2)
C225 C 0.6879(5) 0.5168(4) 0.2666(2)
H144 H 0.6454 0.5103 0.2599
C226 C 0.7038(5) 0.5389(4) 0.2928(2)
H145 H 0.6721 0.5475 0.3039
C227 C 0.9076(5) 0.5100(4) 0.2548(2)
H146 H 0.9394 0.5010 0.2439
C228 C 0.9227(5) 0.5317(4) 0.2810(2)
H147 H 0.9653 0.5373 0.2883
C229 C 0.8601(5) 0.6223(4) 0.3633(2)
C230 C 0.8308(6) 0.6265(4) 0.3887(2)
H148 H 0.7974 0.6069 0.3909
C231 C 0.8490(6) 0.6579(4) 0.4101(3)
H149 H 0.8293 0.6584 0.4274
C232 C 0.8944(5) 0.6887(4) 0.4077(2)
H150 H 0.9053 0.7111 0.4226
C233 C 0.9240(5) 0.6862(4) 0.3830(2)
C234 C 0.9097(5) 0.6530(4) 0.3618(2)
H151 H 0.9333 0.6506 0.3460
C235 C 1.0284(5) 0.6974(4) 0.3797(3)
H152 H 1.0337 0.6658 0.3820
C236 C 1.0792(5) 0.7260(4) 0.3754(3)
C237 C 1.1403(5) 0.7115(5) 0.3742(3)
H153 H 1.1509 0.6805 0.3762
C238 C 1.1847(6) 0.7430(5) 0.3701(3)
H154 H 1.2264 0.7340 0.3698
C239 C 1.1682(5) 0.7877(5) 0.3665(3)
H155 H 1.1984 0.8096 0.3634
C240 C 1.1068(5) 0.8003(5) 0.3672(3)
H156 H 1.0950 0.8309 0.3638
C241 C -0.0031(9) 0.5744(5) 0.2153(4)
H157 H 0.0073 0.5458 0.2242
C242 C -0.0566(9) 0.5792(5) 0.1945(4)
H158 H -0.0829 0.5540 0.1892
C243 C -0.0717(8) 0.6210(7) 0.1815(4)
H159 H -0.1083 0.6243 0.1673
C244 C -0.0333(9) 0.6578(5) 0.1893(4)
H160 H -0.0437 0.6864 0.1804
C245 C 0.0202(9) 0.6530(6) 0.2101(4)
H161 H 0.0465 0.6782 0.2154
C246 C 0.0354(8) 0.6113(7) 0.2231(4)
H162 H 0.0720 0.6079 0.2373
C247 C 0.1736(6) 0.6799(6) 0.0589(4)
H163 H 0.1311 0.6749 0.0604
C248 C 0.2076(9) 0.6466(5) 0.0470(3)
H164 H 0.1884 0.6189 0.0405
C249 C 0.2698(8) 0.6539(5) 0.0448(3)
H165 H 0.2931 0.6312 0.0367
C250 C 0.2980(6) 0.6945(7) 0.0544(4)
H166 H 0.3405 0.6995 0.0529
C251 C 0.2640(9) 0.7277(5) 0.0662(3)
H167 H 0.2833 0.7555 0.0728
C252 C 0.2018(8) 0.7204(5) 0.0684(3)
H168 H 0.1785 0.7432 0.0765
C253 C 0.6463(11) 1.1485(8) -0.0162(6)
H169 H 0.6729 1.1249 -0.0079
C254 C 0.6401(12) 1.1873(10) 0.0002(5)
H170 H 0.6625 1.1903 0.0198
C255 C 0.6011(13) 1.2218(8) -0.0120(6)
H171 H 0.5969 1.2484 -0.0008
C256 C 0.5683(11) 1.2175(8) -0.0407(6)
H172 H 0.5416 1.2411 -0.0490
C257 C 0.5744(12) 1.1787(10) -0.0571(5)
H173 H 0.5520 1.1757 -0.0767
C258 C 0.6134(13) 1.1442(8) -0.0449(6)
H174 H 0.6176 1.1176 -0.0561
C259 C 0.7715(8) 1.1349(6) -0.0920(4)
H175 H 0.7354 1.1510 -0.0887
C260 C 0.7668(7) 1.1004(7) -0.1128(4)
H176 H 0.7275 1.0928 -0.1239
C261 C 0.8197(10) 1.0769(5) -0.1175(4)
H177 H 0.8165 1.0533 -0.1318
C262 C 0.8772(8) 1.0879(6) -0.1013(4)
H178 H 0.9134 1.0718 -0.1046
C263 C 0.8819(7) 1.1225(7) -0.0805(4)
H179 H 0.9212 1.1300 -0.0694
C264 C 0.8290(10) 1.1460(5) -0.0758(3)
H180 H 0.8322 1.1696 -0.0615
S1 S 0.7460(3) 0.49840(19) -0.08143(11)
S2 S 0.6618(3) 0.5639(2) -0.10695(13)
N25 N 0.7288(6) 0.5510(4) -0.0894(4)
O1 O 0.8093(5) 0.4941(4) -0.0872(3)
O2 O 0.7035(5) 0.4625(4) -0.0889(3)
O3 O 0.6161(6) 0.5283(4) -0.1094(3)
O4 O 0.6424(6) 0.6062(4) -0.0984(3)
F1 F 0.6969(6) 0.5135(5) -0.0333(3)
F2 F 0.7940(8) 0.5359(6) -0.0322(4)
F3 F 0.7753(7) 0.4647(6) -0.0294(3)
F4 F 0.7036(6) 0.5323(4) -0.1547(3)
F5 F 0.7206(6) 0.6021(5) -0.1453(3)
F6 F 0.6281(6) 0.5816(5) -0.1624(3)
C265 C 0.7528(9) 0.5028(7) -0.0409(2)
C266 C 0.6783(9) 0.5700(6) -0.1450(3)
S3 S -0.0028(3) 0.70520(18) 0.08228(12)
S4 S -0.0080(3) 0.7721(2) 0.03798(14)
N26 N 0.0207(7) 0.7511(4) 0.0693(3)
O5 O -0.0381(5) 0.6730(4) 0.0640(3)
O6 O 0.0484(6) 0.6887(4) 0.1038(3)
O7 O -0.0040(7) 0.8203(4) 0.0382(3)
O8 O -0.0667(5) 0.7518(5) 0.0244(3)
F7 F -0.0829(6) 0.6943(5) 0.1185(3)
F8 F -0.1029(6) 0.7484(4) 0.0885(3)
F9 F -0.0325(6) 0.7557(4) 0.1255(3)
F10 F 0.0526(7) 0.7116(5) 0.0116(3)
F11 F 0.0996(6) 0.7741(6) 0.0225(3)
F12 F 0.0246(7) 0.7731(6) -0.0138(3)
C267 C -0.0590(7) 0.7259(6) 0.1054(4)
C268 C 0.0450(8) 0.7555(7) 0.0123(4)
S5 S 0.8045(4) 1.1192(3) 0.04718(17)
S6 S 0.9054(4) 1.0931(3) 0.08876(16)
N27 N 0.8452(7) 1.0792(5) 0.0649(4)
O9 O 0.8088(9) 1.1631(5) 0.0605(4)
O10 O 0.7429(6) 1.1003(6) 0.0386(4)
O11 O 0.9378(8) 1.1345(5) 0.0858(4)
O12 O 0.9420(8) 1.0523(5) 0.0923(4)
F13 F 0.8942(8) 1.1440(6) 0.0196(4)
F14 F 0.8014(9) 1.1440(7) -0.0078(4)
F15 F 0.8507(9) 1.0840(7) 0.0023(5)
F16 F 0.8366(7) 1.1320(5) 0.1233(3)
F17 F 0.9219(8) 1.1021(6) 0.1460(4)
F18 F 0.8461(8) 1.0577(6) 0.1289(4)
C269 C 0.8397(9) 1.1238(8) 0.0131(3)
C270 C 0.8746(10) 1.0967(7) 0.1241(3)
S7 S 0.1463(6) 0.4898(4) 0.2364(3)
S8 S 0.1592(7) 0.4063(4) 0.2678(3)
N28 N 0.1816(11) 0.4582(6) 0.2634(5)
O13 O 0.1623(12) 0.5344(6) 0.2467(6)
O14 O 0.0838(9) 0.4790(9) 0.2244(6)
O15 O 0.2134(9) 0.3819(8) 0.2802(5)
O16 O 0.1202(11) 0.3910(9) 0.2412(5)
F19 F 0.1846(13) 0.5105(9) 0.1857(6)
F20 F 0.2551(11) 0.4896(9) 0.2205(6)
F21 F 0.1962(11) 0.4415(7) 0.1968(5)
F22 F 0.0557(10) 0.4217(10) 0.2905(5)
F23 F 0.1391(11) 0.4361(8) 0.3203(5)
F24 F 0.1173(11) 0.3694(8) 0.3141(5)
C271 C 0.1958(11) 0.4826(9) 0.2075(5)
C272 C 0.1135(11) 0.4079(9) 0.2986(4)
S9 S 1.0251(4) 0.7940(3) 0.2113(2)
S10 S 1.0874(4) 0.8293(3) 0.2665(2)
O17 O 1.1020(12) 0.8136(8) 0.2918(6)
O18 O 1.0422(9) 0.8635(6) 0.2652(5)
O19 O 1.0066(10) 0.8362(6) 0.1974(5)
O20 O 1.0481(10) 0.7599(6) 0.1927(4)
N29 N 1.0713(9) 0.7902(6) 0.2416(3)
C273 C 0.9518(8) 0.7686(8) 0.2186(5)
C274 C 1.1563(8) 0.8556(7) 0.2550(5)
F25 F 0.9175(8) 0.7568(7) 0.1940(4)
F26 F 0.9619(10) 0.7300(7) 0.2331(4)
F27 F 0.9299(9) 0.7942(7) 0.2379(5)
F28 F 1.1992(8) 0.8245(7) 0.2545(4)
F29 F 1.1772(11) 0.8883(8) 0.2744(5)
F30 F 1.1431(10) 0.8751(7) 0.2292(4)
N30 N 0.7804(8) 0.7795(6) 0.4485(4)
C275 C 0.7527(11) 0.7671(8) 0.4658(6)
C276 C 0.7043(10) 0.7582(8) 0.4851(5)
H181 H 0.7241 0.7462 0.5043
H182 H 0.6742 0.7363 0.4753
H183 H 0.6827 0.7864 0.4883
loop_
_geom_bond_atom_site_label_1
_geom_bond_atom_site_label_2
_geom_bond_site_symmetry_1
_geom_bond_site_symmetry_2
Fe1 N1 1_555 1_555
Fe2 N11 1_555 1_555
Fe3 N3 1_555 1_555
Fe4 N7 1_555 1_555
N1 C1 1_555 1_555
N2 Fe1 1_555 1_555
N3 C33 1_555 1_555
N4 Fe3 1_555 1_555
C1 H1 1_555 1_555
C2 C1 1_555 1_555
H2 C2 1_555 1_555
C3 C2 1_555 1_555
H3 C3 1_555 1_555
C4 C3 1_555 1_555
H4 C4 1_555 1_555
C5 N1 1_555 1_555
C6 N2 1_555 1_555
H5 C6 1_555 1_555
C7 N2 1_555 1_555
C8 C7 1_555 1_555
H6 C8 1_555 1_555
C9 C8 1_555 1_555
H7 C9 1_555 1_555
C10 C9 1_555 1_555
H8 C10 1_555 1_555
C11 C10 1_555 1_555
C12 C7 1_555 1_555
H9 C12 1_555 1_555
C13 C11 1_555 1_555
C14 C13 1_555 1_555
H10 C14 1_555 1_555
C15 C14 1_555 1_555
C16 C15 1_555 1_555
C17 C16 1_555 1_555
C18 C13 1_555 1_555
H11 C18 1_555 1_555
C19 C16 1_555 1_555
C20 C19 1_555 1_555
C21 C20 1_555 1_555
H12 C21 1_555 1_555
C22 C21 1_555 1_555
C23 C22 1_555 1_555
H13 C23 1_555 1_555
C24 C19 1_555 1_555
C25 C15 1_555 1_555
H14 C25 1_555 1_555
C26 C20 1_555 1_555
H15 C26 1_555 1_555
C27 C17 1_555 1_555
H16 C27 1_555 1_555
C28 C24 1_555 1_555
H17 C28 1_555 1_555
C29 C22 1_555 1_555
C30 C29 1_555 1_555
H18 C30 1_555 1_555
C31 C30 1_555 1_555
H19 C31 1_555 1_555
C32 C31 1_555 1_555
H20 C32 1_555 1_555
C33 C32 1_555 1_555
C34 C29 1_555 1_555
H21 C34 1_555 1_555
C35 N3 1_555 1_555
H22 C35 1_555 1_555
C36 N4 1_555 1_555
C37 C36 1_555 1_555
H23 C37 1_555 1_555
C38 C37 1_555 1_555
H24 C38 1_555 1_555
C39 C38 1_555 1_555
H25 C39 1_555 1_555
C40 N4 1_555 1_555
H26 C40 1_555 1_555
N5 Fe1 1_555 1_555
N6 Fe1 1_555 1_555
N7 C73 1_555 1_555
N8 Fe4 1_555 1_555
C41 N5 1_555 1_555
H27 C41 1_555 1_555
C42 C41 1_555 1_555
H28 C42 1_555 1_555
C43 C42 1_555 1_555
H29 C43 1_555 1_555
C44 C43 1_555 1_555
H30 C44 1_555 1_555
C45 N5 1_555 1_555
C46 N6 1_555 1_555
H31 C46 1_555 1_555
C47 N6 1_555 1_555
C48 C47 1_555 1_555
H32 C48 1_555 1_555
C49 C48 1_555 1_555
H33 C49 1_555 1_555
C50 C49 1_555 1_555
H34 C50 1_555 1_555
C51 C50 1_555 1_555
C52 C47 1_555 1_555
H35 C52 1_555 1_555
C53 C51 1_555 1_555
C54 C53 1_555 1_555
H36 C54 1_555 1_555
C55 C54 1_555 1_555
C56 C55 1_555 1_555
C57 C56 1_555 1_555
C58 C53 1_555 1_555
H37 C58 1_555 1_555
C59 C56 1_555 1_555
C60 C59 1_555 1_555
C61 C60 1_555 1_555
H38 C61 1_555 1_555
C62 C61 1_555 1_555
C63 C62 1_555 1_555
H39 C63 1_555 1_555
C64 C59 1_555 1_555
C65 C55 1_555 1_555
H40 C65 1_555 1_555
C66 C60 1_555 1_555
H41 C66 1_555 1_555
C67 C57 1_555 1_555
H42 C67 1_555 1_555
C68 C64 1_555 1_555
H43 C68 1_555 1_555
C69 C62 1_555 1_555
C70 C69 1_555 1_555
H44 C70 1_555 1_555
C71 C70 1_555 1_555
H45 C71 1_555 1_555
C72 C71 1_555 1_555
H46 C72 1_555 1_555
C73 C72 1_555 1_555
C74 C69 1_555 1_555
H47 C74 1_555 1_555
C75 N7 1_555 1_555
H48 C75 1_555 1_555
C76 N8 1_555 1_555
C77 C76 1_555 1_555
H49 C77 1_555 1_555
C78 C77 1_555 1_555
H50 C78 1_555 1_555
C79 C78 1_555 1_555
H51 C79 1_555 1_555
C80 N8 1_555 1_555
H52 C80 1_555 1_555
N9 Fe1 1_555 1_555
N10 Fe1 1_555 1_555
N11 C113 1_555 1_555
N12 Fe2 1_555 1_555
C81 N9 1_555 1_555
H53 C81 1_555 1_555
C82 C81 1_555 1_555
H54 C82 1_555 1_555
C83 C82 1_555 1_555
H55 C83 1_555 1_555
C84 C83 1_555 1_555
H56 C84 1_555 1_555
C85 N9 1_555 1_555
C86 N10 1_555 1_555
H57 C86 1_555 1_555
C87 N10 1_555 1_555
C88 C87 1_555 1_555
H58 C88 1_555 1_555
C89 C88 1_555 1_555
H59 C89 1_555 1_555
C90 C89 1_555 1_555
H60 C90 1_555 1_555
C91 C90 1_555 1_555
C92 C87 1_555 1_555
H61 C92 1_555 1_555
C93 C91 1_555 1_555
C94 C93 1_555 1_555
H62 C94 1_555 1_555
C95 C94 1_555 1_555
C96 C95 1_555 1_555
C97 C96 1_555 1_555
C98 C93 1_555 1_555
H63 C98 1_555 1_555
C99 C96 1_555 1_555
C100 C99 1_555 1_555
C101 C100 1_555 1_555
H64 C101 1_555 1_555
C102 C101 1_555 1_555
C103 C102 1_555 1_555
H65 C103 1_555 1_555
C104 C99 1_555 1_555
C105 C95 1_555 1_555
H66 C105 1_555 1_555
C106 C100 1_555 1_555
H67 C106 1_555 1_555
C107 C97 1_555 1_555
H68 C107 1_555 1_555
C108 C104 1_555 1_555
H69 C108 1_555 1_555
C109 C102 1_555 1_555
C110 C109 1_555 1_555
H70 C110 1_555 1_555
C111 C110 1_555 1_555
H71 C111 1_555 1_555
C112 C111 1_555 1_555
H72 C112 1_555 1_555
C113 C112 1_555 1_555
C114 C109 1_555 1_555
H73 C114 1_555 1_555
C115 N11 1_555 1_555
H74 C115 1_555 1_555
C116 N12 1_555 1_555
C117 C116 1_555 1_555
H75 C117 1_555 1_555
C118 C117 1_555 1_555
H76 C118 1_555 1_555
C119 C118 1_555 1_555
H77 C119 1_555 1_555
C120 N12 1_555 1_555
H78 C120 1_555 1_555
N13 Fe2 1_555 1_555
N14 Fe2 1_555 1_555
N15 Fe3 1_555 1_555
N16 Fe3 1_555 1_555
C121 N13 1_555 1_555
H79 C121 1_555 1_555
C122 C121 1_555 1_555
H80 C122 1_555 1_555
C123 C122 1_555 1_555
H81 C123 1_555 1_555
C124 C123 1_555 1_555
H82 C124 1_555 1_555
C125 N13 1_555 1_555
C126 N14 1_555 1_555
H83 C126 1_555 1_555
C127 N14 1_555 1_555
C128 C127 1_555 1_555
H84 C128 1_555 1_555
C129 C128 1_555 1_555
H85 C129 1_555 1_555
C130 C129 1_555 1_555
H86 C130 1_555 1_555
C131 C130 1_555 1_555
C132 C127 1_555 1_555
H87 C132 1_555 1_555
C133 C131 1_555 1_555
C134 C133 1_555 1_555
H88 C134 1_555 1_555
C135 C134 1_555 1_555
C136 C135 1_555 1_555
C137 C136 1_555 1_555
C138 C133 1_555 1_555
H89 C138 1_555 1_555
C139 C136 1_555 1_555
C140 C139 1_555 1_555
C141 C140 1_555 1_555
H90 C141 1_555 1_555
C142 C141 1_555 1_555
C143 C142 1_555 1_555
H91 C143 1_555 1_555
C144 C139 1_555 1_555
C145 C135 1_555 1_555
H92 C145 1_555 1_555
C146 C140 1_555 1_555
H93 C146 1_555 1_555
C147 C137 1_555 1_555
H94 C147 1_555 1_555
C148 C144 1_555 1_555
H95 C148 1_555 1_555
C149 C142 1_555 1_555
C150 C149 1_555 1_555
H96 C150 1_555 1_555
C151 C150 1_555 1_555
H97 C151 1_555 1_555
C152 C151 1_555 1_555
H98 C152 1_555 1_555
C153 N15 1_555 1_555
C154 C149 1_555 1_555
H99 C154 1_555 1_555
C155 N15 1_555 1_555
H100 C155 1_555 1_555
C156 N16 1_555 1_555
C157 C156 1_555 1_555
H101 C157 1_555 1_555
C158 C157 1_555 1_555
H102 C158 1_555 1_555
C159 C158 1_555 1_555
H103 C159 1_555 1_555
C160 N16 1_555 1_555
H104 C160 1_555 1_555
N17 Fe2 1_555 1_555
N18 Fe2 1_555 1_555
N19 Fe4 1_555 1_555
N20 Fe4 1_555 1_555
C161 N17 1_555 1_555
H105 C161 1_555 1_555
C162 C161 1_555 1_555
H106 C162 1_555 1_555
C163 C162 1_555 1_555
H107 C163 1_555 1_555
C164 C163 1_555 1_555
H108 C164 1_555 1_555
C165 N17 1_555 1_555
C166 N18 1_555 1_555
H109 C166 1_555 1_555
C167 N18 1_555 1_555
C168 C167 1_555 1_555
H110 C168 1_555 1_555
C169 C168 1_555 1_555
H111 C169 1_555 1_555
C170 C169 1_555 1_555
H112 C170 1_555 1_555
C171 C170 1_555 1_555
C172 C167 1_555 1_555
H113 C172 1_555 1_555
C173 C171 1_555 1_555
C174 C173 1_555 1_555
H114 C174 1_555 1_555
C175 C174 1_555 1_555
C176 C175 1_555 1_555
C177 C176 1_555 1_555
C178 C173 1_555 1_555
H115 C178 1_555 1_555
C179 C176 1_555 1_555
C180 C179 1_555 1_555
C181 C180 1_555 1_555
H116 C181 1_555 1_555
C182 C181 1_555 1_555
C183 C182 1_555 1_555
H117 C183 1_555 1_555
C184 C179 1_555 1_555
C185 C175 1_555 1_555
H118 C185 1_555 1_555
C186 C180 1_555 1_555
H119 C186 1_555 1_555
C187 C177 1_555 1_555
H120 C187 1_555 1_555
C188 C184 1_555 1_555
H121 C188 1_555 1_555
C189 C182 1_555 1_555
C190 C189 1_555 1_555
H122 C190 1_555 1_555
C191 C190 1_555 1_555
H123 C191 1_555 1_555
C192 C191 1_555 1_555
H124 C192 1_555 1_555
C193 N19 1_555 1_555
C194 C189 1_555 1_555
H125 C194 1_555 1_555
C195 N19 1_555 1_555
H126 C195 1_555 1_555
C196 N20 1_555 1_555
C197 C196 1_555 1_555
H127 C197 1_555 1_555
C198 C197 1_555 1_555
H128 C198 1_555 1_555
C199 C198 1_555 1_555
H129 C199 1_555 1_555
C200 N20 1_555 1_555
H130 C200 1_555 1_555
N21 Fe3 1_555 1_555
N22 Fe3 1_555 1_555
N23 Fe4 1_555 1_555
N24 Fe4 1_555 1_555
C201 N21 1_555 1_555
H131 C201 1_555 1_555
C202 C201 1_555 1_555
H132 C202 1_555 1_555
C203 C202 1_555 1_555
H133 C203 1_555 1_555
C204 C203 1_555 1_555
H134 C204 1_555 1_555
C205 N21 1_555 1_555
C206 N22 1_555 1_555
H135 C206 1_555 1_555
C207 N22 1_555 1_555
C208 C207 1_555 1_555
H136 C208 1_555 1_555
C209 C208 1_555 1_555
H137 C209 1_555 1_555
C210 C209 1_555 1_555
H138 C210 1_555 1_555
C211 C210 1_555 1_555
C212 C207 1_555 1_555
H139 C212 1_555 1_555
C213 C211 1_555 1_555
C214 C213 1_555 1_555
H140 C214 1_555 1_555
C215 C214 1_555 1_555
C216 C215 1_555 1_555
C217 C216 1_555 1_555
C218 C213 1_555 1_555
H141 C218 1_555 1_555
C219 C216 1_555 1_555
C220 C219 1_555 1_555
C221 C220 1_555 1_555
H142 C221 1_555 1_555
C222 C221 1_555 1_555
C223 C222 1_555 1_555
H143 C223 1_555 1_555
C224 C219 1_555 1_555
C225 C215 1_555 1_555
H144 C225 1_555 1_555
C226 C220 1_555 1_555
H145 C226 1_555 1_555
C227 C217 1_555 1_555
H146 C227 1_555 1_555
C228 C224 1_555 1_555
H147 C228 1_555 1_555
C229 C222 1_555 1_555
C230 C229 1_555 1_555
H148 C230 1_555 1_555
C231 C230 1_555 1_555
H149 C231 1_555 1_555
C232 C231 1_555 1_555
H150 C232 1_555 1_555
C233 N23 1_555 1_555
C234 C229 1_555 1_555
H151 C234 1_555 1_555
C235 N23 1_555 1_555
H152 C235 1_555 1_555
C236 N24 1_555 1_555
C237 C236 1_555 1_555
H153 C237 1_555 1_555
C238 C237 1_555 1_555
H154 C238 1_555 1_555
C239 C238 1_555 1_555
H155 C239 1_555 1_555
C240 N24 1_555 1_555
H156 C240 1_555 1_555
C241 H157 1_555 1_555
C242 C241 1_555 1_555
H158 C242 1_555 1_555
C243 C242 1_555 1_555
H159 C243 1_555 1_555
C244 C243 1_555 1_555
H160 C244 1_555 1_555
C245 C244 1_555 1_555
H161 C245 1_555 1_555
C246 C241 1_555 1_555
H162 C246 1_555 1_555
C247 H163 1_555 1_555
C248 C247 1_555 1_555
H164 C248 1_555 1_555
C249 C248 1_555 1_555
H165 C249 1_555 1_555
C250 C249 1_555 1_555
H166 C250 1_555 1_555
C251 C250 1_555 1_555
H167 C251 1_555 1_555
C252 C247 1_555 1_555
H168 C252 1_555 1_555
C253 H169 1_555 1_555
C254 C253 1_555 1_555
H170 C254 1_555 1_555
C255 C254 1_555 1_555
H171 C255 1_555 1_555
C256 C255 1_555 1_555
H172 C256 1_555 1_555
C257 C256 1_555 1_555
H173 C257 1_555 1_555
C258 C253 1_555 1_555
H174 C258 1_555 1_555
C259 H175 1_555 1_555
C260 C259 1_555 1_555
H176 C260 1_555 1_555
C261 C260 1_555 1_555
H177 C261 1_555 1_555
C262 C261 1_555 1_555
H178 C262 1_555 1_555
C263 C262 1_555 1_555
H179 C263 1_555 1_555
C264 C259 1_555 1_555
H180 C264 1_555 1_555
S1 N25 1_555 1_555
S2 N25 1_555 1_555
O1 S1 1_555 1_555
O2 S1 1_555 1_555
O3 S2 1_555 1_555
O4 S2 1_555 1_555
F1 C265 1_555 1_555
F2 C265 1_555 1_555
F3 C265 1_555 1_555
F4 C266 1_555 1_555
F5 C266 1_555 1_555
F6 C266 1_555 1_555
C265 S1 1_555 1_555
C266 S2 1_555 1_555
S3 N26 1_555 1_555
S4 N26 1_555 1_555
O5 S3 1_555 1_555
O6 S3 1_555 1_555
O7 S4 1_555 1_555
O8 S4 1_555 1_555
F7 C267 1_555 1_555
F8 C267 1_555 1_555
F9 C267 1_555 1_555
F10 C268 1_555 1_555
F11 C268 1_555 1_555
F12 C268 1_555 1_555
C267 S3 1_555 1_555
C268 S4 1_555 1_555
S5 N27 1_555 1_555
S6 N27 1_555 1_555
O9 S5 1_555 1_555
O10 S5 1_555 1_555
O11 S6 1_555 1_555
O12 S6 1_555 1_555
F13 C269 1_555 1_555
F14 C269 1_555 1_555
F15 C269 1_555 1_555
F16 C270 1_555 1_555
F17 C270 1_555 1_555
F18 C270 1_555 1_555
C269 S5 1_555 1_555
C270 S6 1_555 1_555
S7 N28 1_555 1_555
S8 N28 1_555 1_555
O13 S7 1_555 1_555
O14 S7 1_555 1_555
O15 S8 1_555 1_555
O16 S8 1_555 1_555
F19 C271 1_555 1_555
F20 C271 1_555 1_555
F21 C271 1_555 1_555
F22 C272 1_555 1_555
F23 C272 1_555 1_555
F24 C272 1_555 1_555
C271 S7 1_555 1_555
C272 S8 1_555 1_555
S9 O19 1_555 1_555
S10 O17 1_555 1_555
O18 S10 1_555 1_555
O20 S9 1_555 1_555
N29 S9 1_555 1_555
C273 S9 1_555 1_555
C274 S10 1_555 1_555
F25 C273 1_555 1_555
F26 C273 1_555 1_555
F27 C273 1_555 1_555
F28 C274 1_555 1_555
F29 C274 1_555 1_555
F30 C274 1_555 1_555
N30 C275 1_555 1_555
C275 C276 1_555 1_555
C276 H181 1_555 1_555
H182 C276 1_555 1_555
H183 C276 1_555 1_555
C4 C5 1_555 1_555
C5 C6 1_555 1_555
C11 C12 1_555 1_555
C17 C18 1_555 1_555
C23 C24 1_555 1_555
C25 C26 1_555 1_555
C27 C28 1_555 1_555
C33 C34 1_555 1_555
C35 C36 1_555 1_555
C39 C40 1_555 1_555
C44 C45 1_555 1_555
C45 C46 1_555 1_555
C51 C52 1_555 1_555
C57 C58 1_555 1_555
C63 C64 1_555 1_555
C65 C66 1_555 1_555
C67 C68 1_555 1_555
C73 C74 1_555 1_555
C75 C76 1_555 1_555
C79 C80 1_555 1_555
C84 C85 1_555 1_555
C85 C86 1_555 1_555
C91 C92 1_555 1_555
C97 C98 1_555 1_555
C103 C104 1_555 1_555
C105 C106 1_555 1_555
C107 C108 1_555 1_555
C113 C114 1_555 1_555
C115 C116 1_555 1_555
C119 C120 1_555 1_555
C124 C125 1_555 1_555
C125 C126 1_555 1_555
C131 C132 1_555 1_555
C137 C138 1_555 1_555
C143 C144 1_555 1_555
C145 C146 1_555 1_555
C147 C148 1_555 1_555
C152 C153 1_555 1_555
C153 C154 1_555 1_555
C155 C156 1_555 1_555
C159 C160 1_555 1_555
C164 C165 1_555 1_555
C165 C166 1_555 1_555
C171 C172 1_555 1_555
C177 C178 1_555 1_555
C183 C184 1_555 1_555
C185 C186 1_555 1_555
C187 C188 1_555 1_555
C192 C193 1_555 1_555
C193 C194 1_555 1_555
C195 C196 1_555 1_555
C199 C200 1_555 1_555
C204 C205 1_555 1_555
C205 C206 1_555 1_555
C211 C212 1_555 1_555
C217 C218 1_555 1_555
C223 C224 1_555 1_555
C225 C226 1_555 1_555
C227 C228 1_555 1_555
C232 C233 1_555 1_555
C233 C234 1_555 1_555
C235 C236 1_555 1_555
C239 C240 1_555 1_555
C245 C246 1_555 1_555
C251 C252 1_555 1_555
C257 C258 1_555 1_555
C263 C264 1_555 1_555
S10 N29 1_555 1_555

#END
