# generated using pymatgen
data_Co16P14.5H648C1029.2S5.2N154.6O106.4F102.6
_symmetry_space_group_name_H-M   'P 1'
_cell_length_a   27.16320000
_cell_length_b   29.61060000
_cell_length_c   44.31700000
_cell_angle_alpha   90.00000000
_cell_angle_beta   90.00000000
_cell_angle_gamma   91.10100000
_symmetry_Int_Tables_number   1
_chemical_formula_structural
Co16P14.5H648C1029.2S5.2N154.6O106.4F102.6
_chemical_formula_sum
'Co16 P14.5 H648 C1029.2 S5.2 N154.6 O106.4 F102.6'
_cell_volume   35638.40872041
_cell_formula_units_Z   1
loop_
 _symmetry_equiv_pos_site_id
 _symmetry_equiv_pos_as_xyz
  1  'x, y, z'
loop_
 _atom_site_type_symbol
 _atom_site_label
 _atom_site_symmetry_multiplicity
 _atom_site_fract_x
 _atom_site_fract_y
 _atom_site_fract_z
 _atom_site_occupancy
  Co  Co1  1  0.416790  0.534200  0.403320  1.0
  Co  Co2  1  0.583210  0.465800  0.903320  1.0
  Co  Co3  1  0.938500  0.462440  0.760300  1.0
  Co  Co4  1  0.061500  0.537560  0.260300  1.0
  Co  Co5  1  0.998030  0.942340  0.451690  1.0
  Co  Co6  1  0.001970  0.057660  0.951690  1.0
  Co  Co7  1  0.584790  0.088290  0.740380  1.0
  Co  Co8  1  0.415210  0.911710  0.240380  1.0
  Co  Co9  1  0.480120  0.953230  0.500610  1.0
  Co  Co10  1  0.519880  0.046770  0.000610  1.0
  Co  Co11  1  0.066680  0.015650  0.207230  1.0
  Co  Co12  1  0.933320  0.984350  0.707230  1.0
  Co  Co13  1  0.443590  0.414180  0.150550  1.0
  Co  Co14  1  0.556410  0.585820  0.650550  1.0
  Co  Co15  1  0.918800  0.535570  0.505250  1.0
  Co  Co16  1  0.081200  0.464430  0.005250  1.0
  P  P17  1  0.375000  0.822850  0.428890  1.0
  P  P18  1  0.625000  0.177150  0.928890  1.0
  P  P19  1  0.531500  0.669400  0.466540  1.0
  P  P20  1  0.468500  0.330600  0.966540  1.0
  P  P21  1  0.830200  0.278700  0.410000  1.0
  P  P22  1  0.169800  0.721300  0.910000  1.0
  P  P23  1  0.134300  0.742900  0.188800  1.0
  P  P24  1  0.865700  0.257100  0.688800  1.0
  P  P25  1  0.427700  0.436600  0.612000  1.0
  P  P26  1  0.572300  0.563400  0.112000  1.0
  P  P27  1  0.011900  0.662400  0.425600  0.5
  P  P28  1  0.988100  0.337600  0.925600  0.5
  P  P29  1  0.225200  0.970300  0.293600  0.5
  P  P30  1  0.774800  0.029700  0.793600  0.5
  P  P31  1  0.243700  0.609000  0.350200  0.5
  P  P32  1  0.756300  0.391000  0.850200  0.5
  P  P33  1  0.694700  0.873200  0.434600  0.75
  P  P34  1  0.305300  0.126800  0.934600  0.75
  H  H35  1  0.385500  0.590000  0.343400  1.0
  H  H36  1  0.614500  0.410000  0.843400  1.0
  H  H37  1  0.369200  0.573200  0.293100  1.0
  H  H38  1  0.630800  0.426800  0.793100  1.0
  H  H39  1  0.377500  0.499100  0.275600  1.0
  H  H40  1  0.622500  0.500900  0.775600  1.0
  H  H41  1  0.401700  0.442800  0.309500  1.0
  H  H42  1  0.598300  0.557200  0.809500  1.0
  H  H43  1  0.422400  0.421300  0.363400  1.0
  H  H44  1  0.577600  0.578700  0.863400  1.0
  H  H45  1  0.511100  0.449700  0.425300  1.0
  H  H46  1  0.488900  0.550300  0.925300  1.0
  H  H47  1  0.526400  0.395600  0.462400  1.0
  H  H48  1  0.473600  0.604400  0.962400  1.0
  H  H49  1  0.388700  0.343200  0.451100  1.0
  H  H50  1  0.611300  0.656800  0.951100  1.0
  H  H51  1  0.373400  0.397300  0.413900  1.0
  H  H52  1  0.626600  0.602700  0.913900  1.0
  H  H53  1  0.518200  0.208300  0.474600  1.0
  H  H54  1  0.481800  0.791700  0.974600  1.0
  H  H55  1  0.530800  0.156400  0.513600  1.0
  H  H56  1  0.469200  0.843600  0.013600  1.0
  H  H57  1  0.429600  0.349500  0.570600  1.0
  H  H58  1  0.570400  0.650500  0.070600  1.0
  H  H59  1  0.442100  0.297600  0.609500  1.0
  H  H60  1  0.557900  0.702400  0.109500  1.0
  H  H61  1  0.591700  0.178500  0.626200  1.0
  H  H62  1  0.408300  0.821500  0.126200  1.0
  H  H63  1  0.620100  0.133500  0.665700  1.0
  H  H64  1  0.379900  0.866500  0.165700  1.0
  H  H65  1  0.487400  0.068700  0.669400  1.0
  H  H66  1  0.512600  0.931300  0.169400  1.0
  H  H67  1  0.459000  0.113800  0.629900  1.0
  H  H68  1  0.541000  0.886200  0.129900  1.0
  H  H69  1  0.584000  0.017100  0.670700  1.0
  H  H70  1  0.416000  0.982900  0.170700  1.0
  H  H71  1  0.612300  0.938000  0.691400  1.0
  H  H72  1  0.387700  0.062000  0.191400  1.0
  H  H73  1  0.644200  0.898700  0.732900  1.0
  H  H74  1  0.355800  0.101300  0.232900  1.0
  H  H75  1  0.653100  0.936300  0.779200  1.0
  H  H76  1  0.346900  0.063700  0.279200  1.0
  H  H77  1  0.630000  0.011100  0.783500  1.0
  H  H78  1  0.370000  0.988900  0.283500  1.0
  H  H79  1  0.451600  0.637500  0.397800  1.0
  H  H80  1  0.548400  0.362500  0.897800  1.0
  H  H81  1  0.420000  0.707700  0.409400  1.0
  H  H82  1  0.580000  0.292300  0.909400  1.0
  H  H83  1  0.337800  0.713300  0.424800  1.0
  H  H84  1  0.662200  0.286700  0.924800  1.0
  H  H85  1  0.288900  0.647300  0.428600  1.0
  H  H86  1  0.711100  0.352700  0.928600  1.0
  H  H87  1  0.287000  0.563200  0.422100  1.0
  H  H88  1  0.713000  0.436800  0.922100  1.0
  H  H89  1  0.304500  0.468500  0.374900  1.0
  H  H90  1  0.695500  0.531500  0.874900  1.0
  H  H91  1  0.265400  0.398200  0.382000  1.0
  H  H92  1  0.734600  0.601800  0.882000  1.0
  H  H93  1  0.275300  0.414600  0.472600  1.0
  H  H94  1  0.724700  0.585400  0.972600  1.0
  H  H95  1  0.314400  0.484800  0.465500  1.0
  H  H96  1  0.685600  0.515200  0.965500  1.0
  H  H97  1  0.320400  0.243000  0.408400  1.0
  H  H98  1  0.679600  0.757000  0.908400  1.0
  H  H99  1  0.291200  0.168800  0.414600  1.0
  H  H100  1  0.708800  0.831200  0.914600  1.0
  H  H101  1  0.119200  0.317500  0.466100  1.0
  H  H102  1  0.880800  0.682500  0.966100  1.0
  H  H103  1  0.089900  0.243200  0.472300  1.0
  H  H104  1  0.910100  0.756800  0.972300  1.0
  H  H105  1  0.168500  0.066200  0.486300  1.0
  H  H106  1  0.831500  0.933800  0.986300  1.0
  H  H107  1  0.134100  0.993100  0.485600  1.0
  H  H108  1  0.865900  0.006900  0.985600  1.0
  H  H109  1  0.069700  0.019400  0.405200  1.0
  H  H110  1  0.930300  0.980600  0.905200  1.0
  H  H111  1  0.104000  0.092500  0.405900  1.0
  H  H112  1  0.896000  0.907500  0.905900  1.0
  H  H113  1  0.136000  0.924900  0.444000  1.0
  H  H114  1  0.864000  0.075100  0.944000  1.0
  H  H115  1  0.138400  0.839700  0.437900  1.0
  H  H116  1  0.861600  0.160300  0.937900  1.0
  H  H117  1  0.096300  0.769900  0.442000  1.0
  H  H118  1  0.903700  0.230100  0.942000  1.0
  H  H119  1  0.011200  0.769000  0.450700  1.0
  H  H120  1  0.988800  0.231000  0.950700  1.0
  H  H121  1  0.969800  0.836600  0.454800  1.0
  H  H122  1  0.030200  0.163400  0.954800  1.0
  H  H123  1  0.497700  0.563500  0.353900  1.0
  H  H124  1  0.502300  0.436500  0.853900  1.0
  H  H125  1  0.582300  0.576200  0.352600  1.0
  H  H126  1  0.417700  0.423800  0.852600  1.0
  H  H127  1  0.628100  0.572700  0.397300  1.0
  H  H128  1  0.371900  0.427300  0.897300  1.0
  H  H129  1  0.587300  0.555900  0.442800  1.0
  H  H130  1  0.412700  0.444100  0.942800  1.0
  H  H131  1  0.504400  0.541800  0.470900  1.0
  H  H132  1  0.495600  0.458200  0.970900  1.0
  H  H133  1  0.434500  0.465400  0.485000  1.0
  H  H134  1  0.565500  0.534600  0.985000  1.0
  H  H135  1  0.385000  0.457100  0.527900  1.0
  H  H136  1  0.615000  0.542900  0.027900  1.0
  H  H137  1  0.337400  0.585000  0.517200  1.0
  H  H138  1  0.662600  0.415000  0.017200  1.0
  H  H139  1  0.386900  0.593300  0.474300  1.0
  H  H140  1  0.613100  0.406700  0.974300  1.0
  H  H141  1  0.213600  0.425400  0.558900  1.0
  H  H142  1  0.786400  0.574600  0.058900  1.0
  H  H143  1  0.155600  0.421300  0.597900  1.0
  H  H144  1  0.844400  0.578700  0.097900  1.0
  H  H145  1  0.327200  0.588800  0.628000  1.0
  H  H146  1  0.672800  0.411200  0.128000  1.0
  H  H147  1  0.269200  0.584700  0.667000  1.0
  H  H148  1  0.730800  0.415300  0.167000  1.0
  H  H149  1  0.141700  0.435600  0.710700  1.0
  H  H150  1  0.858300  0.564400  0.210700  1.0
  H  H151  1  0.085000  0.428400  0.750200  1.0
  H  H152  1  0.915000  0.571600  0.250200  1.0
  H  H153  1  0.027900  0.549400  0.728000  1.0
  H  H154  1  0.972100  0.450600  0.228000  1.0
  H  H155  1  0.084500  0.556500  0.688400  1.0
  H  H156  1  0.915500  0.443500  0.188400  1.0
  H  H157  1  0.066100  0.468800  0.798400  1.0
  H  H158  1  0.933900  0.531200  0.298400  1.0
  H  H159  1  0.041300  0.461300  0.853400  1.0
  H  H160  1  0.958700  0.538700  0.353400  1.0
  H  H161  1  0.981000  0.435300  0.887600  1.0
  H  H162  1  0.019000  0.564700  0.387600  1.0
  H  H163  1  0.900500  0.421900  0.870300  1.0
  H  H164  1  0.099500  0.578100  0.370300  1.0
  H  H165  1  0.881700  0.433700  0.819800  1.0
  H  H166  1  0.118300  0.566300  0.319800  1.0
  H  H167  1  0.821900  0.490400  0.763400  1.0
  H  H168  1  0.178100  0.509600  0.263400  1.0
  H  H169  1  0.746600  0.452500  0.758300  1.0
  H  H170  1  0.253400  0.547500  0.258300  1.0
  H  H171  1  0.744500  0.374700  0.748600  1.0
  H  H172  1  0.255500  0.625300  0.248600  1.0
  H  H173  1  0.819000  0.336200  0.744500  1.0
  H  H174  1  0.181000  0.663800  0.244500  1.0
  H  H175  1  0.907700  0.335400  0.753600  1.0
  H  H176  1  0.092300  0.664600  0.253600  1.0
  H  H177  1  0.989600  0.349900  0.711600  1.0
  H  H178  1  0.010400  0.650100  0.211600  1.0
  H  H179  1  0.067300  0.317200  0.708700  1.0
  H  H180  1  0.932700  0.682800  0.208700  1.0
  H  H181  1  0.087600  0.339400  0.798100  1.0
  H  H182  1  0.912400  0.660600  0.298100  1.0
  H  H183  1  0.010000  0.372000  0.801000  1.0
  H  H184  1  0.990000  0.628000  0.301000  1.0
  H  H185  1  0.257600  0.383400  0.753400  1.0
  H  H186  1  0.742400  0.616600  0.253400  1.0
  H  H187  1  0.337800  0.356500  0.749300  1.0
  H  H188  1  0.662200  0.643500  0.249300  1.0
  H  H189  1  0.170700  0.180000  0.738600  1.0
  H  H190  1  0.829300  0.820000  0.238600  1.0
  H  H191  1  0.250900  0.153000  0.734500  1.0
  H  H192  1  0.749100  0.847000  0.234500  1.0
  H  H193  1  0.432600  0.205400  0.783400  1.0
  H  H194  1  0.567400  0.794600  0.283400  1.0
  H  H195  1  0.511300  0.174900  0.781300  1.0
  H  H196  1  0.488700  0.825100  0.281300  1.0
  H  H197  1  0.508600  0.182300  0.690000  1.0
  H  H198  1  0.491400  0.817700  0.190000  1.0
  H  H199  1  0.429900  0.212900  0.692100  1.0
  H  H200  1  0.570100  0.787100  0.192100  1.0
  H  H201  1  0.598400  0.216300  0.725000  1.0
  H  H202  1  0.401600  0.783700  0.225000  1.0
  H  H203  1  0.691100  0.223600  0.716300  1.0
  H  H204  1  0.308900  0.776400  0.216300  1.0
  H  H205  1  0.769000  0.190400  0.718200  1.0
  H  H206  1  0.231000  0.809600  0.218200  1.0
  H  H207  1  0.774000  0.112900  0.728000  1.0
  H  H208  1  0.226000  0.887100  0.228000  1.0
  H  H209  1  0.702400  0.070000  0.735300  1.0
  H  H210  1  0.297600  0.930000  0.235300  1.0
  H  H211  1  0.897100  0.903000  0.421900  1.0
  H  H212  1  0.102900  0.097000  0.921900  1.0
  H  H213  1  0.816800  0.888300  0.437700  1.0
  H  H214  1  0.183200  0.111700  0.937700  1.0
  H  H215  1  0.796500  0.895100  0.488900  1.0
  H  H216  1  0.203500  0.104900  0.988900  1.0
  H  H217  1  0.858100  0.917300  0.523400  1.0
  H  H218  1  0.141900  0.082700  0.023400  1.0
  H  H219  1  0.948200  0.939100  0.531800  1.0
  H  H220  1  0.051800  0.060900  0.031800  1.0
  H  H221  1  0.004800  0.019500  0.534700  1.0
  H  H222  1  0.995200  0.980500  0.034700  1.0
  H  H223  1  0.069800  0.039800  0.566900  1.0
  H  H224  1  0.930200  0.960200  0.066900  1.0
  H  H225  1  0.141100  0.926000  0.543500  1.0
  H  H226  1  0.858900  0.074000  0.043500  1.0
  H  H227  1  0.076100  0.905700  0.511300  1.0
  H  H228  1  0.923900  0.094300  0.011300  1.0
  H  H229  1  0.285400  0.041100  0.555500  1.0
  H  H230  1  0.714600  0.958900  0.055500  1.0
  H  H231  1  0.352700  0.049300  0.588200  1.0
  H  H232  1  0.647300  0.950700  0.088200  1.0
  H  H233  1  0.150800  0.968800  0.666300  1.0
  H  H234  1  0.849200  0.031200  0.166300  1.0
  H  H235  1  0.218100  0.977000  0.699000  1.0
  H  H236  1  0.781900  0.023000  0.199000  1.0
  H  H237  1  0.366700  0.089600  0.710700  1.0
  H  H238  1  0.633300  0.910400  0.210700  1.0
  H  H239  1  0.431800  0.108500  0.743200  1.0
  H  H240  1  0.568200  0.891500  0.243200  1.0
  H  H241  1  0.498700  0.991700  0.721600  1.0
  H  H242  1  0.501300  0.008300  0.221600  1.0
  H  H243  1  0.433600  0.972800  0.689100  1.0
  H  H244  1  0.566400  0.027200  0.189100  1.0
  H  H245  1  0.472800  0.065600  0.790000  1.0
  H  H246  1  0.527200  0.934400  0.290000  1.0
  H  H247  1  0.505200  0.095000  0.841400  1.0
  H  H248  1  0.494800  0.905000  0.341400  1.0
  H  H249  1  0.573600  0.116300  0.871000  1.0
  H  H250  1  0.426400  0.883700  0.371000  1.0
  H  H251  1  0.650700  0.125300  0.847900  1.0
  H  H252  1  0.349300  0.874700  0.347900  1.0
  H  H253  1  0.658400  0.113800  0.796300  1.0
  H  H254  1  0.341600  0.886200  0.296300  1.0
  H  H255  1  0.013000  0.889000  0.387700  1.0
  H  H256  1  0.987000  0.111000  0.887700  1.0
  H  H257  1  0.993800  0.902100  0.337400  1.0
  H  H258  1  0.006200  0.097900  0.837400  1.0
  H  H259  1  0.952200  0.967600  0.323900  1.0
  H  H260  1  0.047800  0.032400  0.823900  1.0
  H  H261  1  0.931000  0.019400  0.361700  1.0
  H  H262  1  0.069000  0.980600  0.861700  1.0
  H  H263  1  0.946800  0.048600  0.414800  1.0
  H  H264  1  0.053200  0.951400  0.914800  1.0
  H  H265  1  0.894900  0.027600  0.482800  1.0
  H  H266  1  0.105100  0.972400  0.982800  1.0
  H  H267  1  0.891200  0.084300  0.519500  1.0
  H  H268  1  0.108800  0.915700  0.019500  1.0
  H  H269  1  0.030800  0.124100  0.499000  1.0
  H  H270  1  0.969200  0.875900  0.999000  1.0
  H  H271  1  0.034500  0.067400  0.462300  1.0
  H  H272  1  0.965500  0.932600  0.962300  1.0
  H  H273  1  0.909300  0.267700  0.513000  1.0
  H  H274  1  0.090700  0.732300  0.013000  1.0
  H  H275  1  0.912700  0.331500  0.544200  1.0
  H  H276  1  0.087300  0.668500  0.044200  1.0
  H  H277  1  0.019500  0.152100  0.615600  1.0
  H  H278  1  0.980500  0.847900  0.115600  1.0
  H  H279  1  0.022900  0.215900  0.646800  1.0
  H  H280  1  0.977100  0.784100  0.146800  1.0
  H  H281  1  0.888300  0.359000  0.655400  1.0
  H  H282  1  0.111700  0.641000  0.155400  1.0
  H  H283  1  0.875800  0.416600  0.690600  1.0
  H  H284  1  0.124200  0.583400  0.190600  1.0
  H  H285  1  0.018400  0.457200  0.681700  1.0
  H  H286  1  0.981600  0.542800  0.181700  1.0
  H  H287  1  0.031000  0.399500  0.646600  1.0
  H  H288  1  0.969000  0.600500  0.146600  1.0
  H  H289  1  0.924500  0.521300  0.684000  1.0
  H  H290  1  0.075500  0.478700  0.184000  1.0
  H  H291  1  0.914700  0.601000  0.700500  1.0
  H  H292  1  0.085300  0.399000  0.200500  1.0
  H  H293  1  0.894700  0.650700  0.739800  1.0
  H  H294  1  0.105300  0.349300  0.239800  1.0
  H  H295  1  0.892300  0.623500  0.789400  1.0
  H  H296  1  0.107700  0.376500  0.289400  1.0
  H  H297  1  0.910200  0.548500  0.799200  1.0
  H  H298  1  0.089800  0.451500  0.299200  1.0
  H  H299  1  0.436900  0.852400  0.500800  1.0
  H  H300  1  0.563100  0.147600  0.000800  1.0
  H  H301  1  0.469000  0.781000  0.493900  1.0
  H  H302  1  0.531000  0.219000  0.993900  1.0
  H  H303  1  0.554100  0.772800  0.488100  1.0
  H  H304  1  0.445900  0.227200  0.988100  1.0
  H  H305  1  0.605700  0.837400  0.489800  1.0
  H  H306  1  0.394300  0.162600  0.989800  1.0
  H  H307  1  0.615900  0.920000  0.497700  1.0
  H  H308  1  0.384100  0.080000  0.997700  1.0
  H  H309  1  0.572500  0.022900  0.539000  1.0
  H  H310  1  0.427500  0.977100  0.039000  1.0
  H  H311  1  0.617100  0.091100  0.535100  1.0
  H  H312  1  0.382900  0.908900  0.035100  1.0
  H  H313  1  0.657000  0.058600  0.449800  1.0
  H  H314  1  0.343000  0.941400  0.949800  1.0
  H  H315  1  0.612500  0.990400  0.453700  1.0
  H  H316  1  0.387500  0.009600  0.953700  1.0
  H  H317  1  0.596100  0.234500  0.457300  1.0
  H  H318  1  0.403900  0.765500  0.957300  1.0
  H  H319  1  0.627800  0.308500  0.458800  1.0
  H  H320  1  0.372200  0.691500  0.958800  1.0
  H  H321  1  0.800100  0.161600  0.512200  1.0
  H  H322  1  0.199900  0.838400  0.012200  1.0
  H  H323  1  0.831800  0.235600  0.513700  1.0
  H  H324  1  0.168200  0.764400  0.013700  1.0
  H  H325  1  0.774700  0.396600  0.535100  1.0
  H  H326  1  0.225300  0.603400  0.035100  1.0
  H  H327  1  0.808200  0.469800  0.538200  1.0
  H  H328  1  0.191800  0.530200  0.038200  1.0
  H  H329  1  0.823900  0.472700  0.447200  1.0
  H  H330  1  0.176100  0.527300  0.947200  1.0
  H  H331  1  0.790400  0.399400  0.444100  1.0
  H  H332  1  0.209600  0.600600  0.944100  1.0
  H  H333  1  0.782400  0.553400  0.485400  1.0
  H  H334  1  0.217600  0.446600  0.985400  1.0
  H  H335  1  0.784400  0.638200  0.472900  1.0
  H  H336  1  0.215600  0.361800  0.972900  1.0
  H  H337  1  0.832200  0.704400  0.465900  1.0
  H  H338  1  0.167800  0.295600  0.965900  1.0
  H  H339  1  0.915600  0.704500  0.479200  1.0
  H  H340  1  0.084400  0.295500  0.979200  1.0
  H  H341  1  0.950000  0.639400  0.498700  1.0
  H  H342  1  0.050000  0.360600  0.998700  1.0
  H  H343  1  0.383400  0.934600  0.542400  1.0
  H  H344  1  0.616600  0.065400  0.042400  1.0
  H  H345  1  0.298800  0.929400  0.535000  1.0
  H  H346  1  0.701200  0.070600  0.035000  1.0
  H  H347  1  0.266500  0.935400  0.486100  1.0
  H  H348  1  0.733500  0.064600  0.986100  1.0
  H  H349  1  0.320800  0.946000  0.445300  1.0
  H  H350  1  0.679200  0.054000  0.945300  1.0
  H  H351  1  0.409600  0.946000  0.427300  1.0
  H  H352  1  0.590400  0.054000  0.927300  1.0
  H  H353  1  0.485200  0.019400  0.415600  1.0
  H  H354  1  0.514800  0.980600  0.915600  1.0
  H  H355  1  0.550300  0.027500  0.381400  1.0
  H  H356  1  0.449700  0.972500  0.881400  1.0
  H  H357  1  0.595400  0.901600  0.402000  1.0
  H  H358  1  0.404600  0.098400  0.902000  1.0
  H  H359  1  0.530300  0.893400  0.436300  1.0
  H  H360  1  0.469700  0.106600  0.936300  1.0
  H  H361  1  0.633000  0.909400  0.287900  1.0
  H  H362  1  0.367000  0.090600  0.787900  1.0
  H  H363  1  0.703600  0.909900  0.257600  1.0
  H  H364  1  0.296400  0.090100  0.757600  1.0
  H  H365  1  0.746100  0.035600  0.385600  1.0
  H  H366  1  0.253900  0.964400  0.885600  1.0
  H  H367  1  0.816700  0.036100  0.355400  1.0
  H  H368  1  0.183300  0.963900  0.855400  1.0
  H  H369  1  0.905300  0.917100  0.267400  1.0
  H  H370  1  0.094700  0.082900  0.767400  1.0
  H  H371  1  0.972300  0.924600  0.234500  1.0
  H  H372  1  0.027700  0.075400  0.734500  1.0
  H  H373  1  0.920500  0.044300  0.205100  1.0
  H  H374  1  0.079500  0.955700  0.705100  1.0
  H  H375  1  0.853400  0.036800  0.238000  1.0
  H  H376  1  0.146600  0.963200  0.738000  1.0
  H  H377  1  0.957300  0.968600  0.161400  1.0
  H  H378  1  0.042700  0.031400  0.661400  1.0
  H  H379  1  0.996000  0.962400  0.110200  1.0
  H  H380  1  0.004000  0.037600  0.610200  1.0
  H  H381  1  0.065400  0.973800  0.079300  1.0
  H  H382  1  0.934600  0.026200  0.579300  1.0
  H  H383  1  0.136700  0.006900  0.100100  1.0
  H  H384  1  0.863300  0.993100  0.600100  1.0
  H  H385  1  0.138100  0.027300  0.150700  1.0
  H  H386  1  0.861900  0.972700  0.650700  1.0
  H  H387  1  0.388200  0.389600  0.088600  1.0
  H  H388  1  0.611800  0.610400  0.588600  1.0
  H  H389  1  0.409400  0.384000  0.037900  1.0
  H  H390  1  0.590600  0.616000  0.537900  1.0
  H  H391  1  0.489600  0.403100  0.022400  1.0
  H  H392  1  0.510400  0.596900  0.522400  1.0
  H  H393  1  0.547500  0.427100  0.058700  1.0
  H  H394  1  0.452500  0.572900  0.558700  1.0
  H  H395  1  0.568400  0.420300  0.116500  1.0
  H  H396  1  0.431600  0.579700  0.616500  1.0
  H  H397  1  0.536900  0.496600  0.181400  1.0
  H  H398  1  0.463100  0.503400  0.681400  1.0
  H  H399  1  0.592500  0.504500  0.221400  1.0
  H  H400  1  0.407500  0.495500  0.721400  1.0
  H  H401  1  0.646700  0.381000  0.202800  1.0
  H  H402  1  0.353300  0.619000  0.702800  1.0
  H  H403  1  0.591100  0.373100  0.162700  1.0
  H  H404  1  0.408900  0.626900  0.662700  1.0
  H  H405  1  0.650600  0.393000  0.322200  1.0
  H  H406  1  0.349400  0.607000  0.822200  1.0
  H  H407  1  0.707200  0.403300  0.361500  1.0
  H  H408  1  0.292800  0.596700  0.861500  1.0
  H  H409  1  0.779800  0.528500  0.238100  1.0
  H  H410  1  0.220200  0.471500  0.738100  1.0
  H  H411  1  0.836400  0.538800  0.277400  1.0
  H  H412  1  0.163600  0.461200  0.777400  1.0
  H  H413  1  0.830600  0.558500  0.389100  1.0
  H  H414  1  0.169400  0.441500  0.889100  1.0
  H  H415  1  0.879400  0.579800  0.430400  1.0
  H  H416  1  0.120600  0.420200  0.930400  1.0
  H  H417  1  0.944700  0.457900  0.428500  1.0
  H  H418  1  0.055300  0.542100  0.928500  1.0
  H  H419  1  0.895900  0.436700  0.387200  1.0
  H  H420  1  0.104100  0.563300  0.887200  1.0
  H  H421  1  0.008700  0.531900  0.440100  1.0
  H  H422  1  0.991300  0.468100  0.940100  1.0
  H  H423  1  0.081800  0.574100  0.462800  1.0
  H  H424  1  0.918200  0.425900  0.962800  1.0
  H  H425  1  0.121100  0.602400  0.506300  1.0
  H  H426  1  0.878900  0.397600  0.006300  1.0
  H  H427  1  0.078400  0.601000  0.552300  1.0
  H  H428  1  0.921600  0.399000  0.052300  1.0
  H  H429  1  0.998700  0.571300  0.554300  1.0
  H  H430  1  0.001300  0.428700  0.054300  1.0
  H  H431  1  0.881900  0.596800  0.562400  1.0
  H  H432  1  0.118100  0.403200  0.062400  1.0
  H  H433  1  0.864100  0.583700  0.612900  1.0
  H  H434  1  0.135900  0.416300  0.112900  1.0
  H  H435  1  0.873200  0.511300  0.633200  1.0
  H  H436  1  0.126800  0.488700  0.133200  1.0
  H  H437  1  0.900900  0.453100  0.601800  1.0
  H  H438  1  0.099100  0.546900  0.101800  1.0
  H  H439  1  0.931800  0.428400  0.551000  1.0
  H  H440  1  0.068200  0.571600  0.051000  1.0
  H  H441  1  0.015800  0.455600  0.483900  1.0
  H  H442  1  0.984200  0.544400  0.983900  1.0
  H  H443  1  0.033400  0.396300  0.451000  1.0
  H  H444  1  0.966600  0.603700  0.951000  1.0
  H  H445  1  0.901400  0.337100  0.470400  1.0
  H  H446  1  0.098600  0.662900  0.970400  1.0
  H  H447  1  0.883800  0.396400  0.503400  1.0
  H  H448  1  0.116200  0.603600  0.003400  1.0
  H  H449  1  0.950400  0.330600  0.348000  1.0
  H  H450  1  0.049600  0.669400  0.848000  1.0
  H  H451  1  0.954300  0.270000  0.314300  1.0
  H  H452  1  0.045700  0.730000  0.814300  1.0
  H  H453  1  0.009300  0.198200  0.457600  1.0
  H  H454  1  0.990700  0.801800  0.957600  1.0
  H  H455  1  0.013200  0.137600  0.423900  1.0
  H  H456  1  0.986800  0.862400  0.923900  1.0
  H  H457  1  0.077900  0.136400  0.307600  1.0
  H  H458  1  0.922100  0.863600  0.807600  1.0
  H  H459  1  0.103800  0.080400  0.274300  1.0
  H  H460  1  0.896200  0.919600  0.774300  1.0
  H  H461  1  0.970000  0.018100  0.280600  1.0
  H  H462  1  0.030000  0.981900  0.780600  1.0
  H  H463  1  0.944100  0.074200  0.313900  1.0
  H  H464  1  0.055900  0.925800  0.813900  1.0
  H  H465  1  0.060900  0.961200  0.285900  1.0
  H  H466  1  0.939100  0.038800  0.785900  1.0
  H  H467  1  0.093800  0.886500  0.275100  1.0
  H  H468  1  0.906200  0.113500  0.775100  1.0
  H  H469  1  0.124600  0.833900  0.240500  1.0
  H  H470  1  0.875400  0.166100  0.740500  1.0
  H  H471  1  0.134600  0.855100  0.189900  1.0
  H  H472  1  0.865400  0.144900  0.689900  1.0
  H  H473  1  0.114600  0.927600  0.174700  1.0
  H  H474  1  0.885400  0.072400  0.674700  1.0
  H  H475  1  0.184600  0.996000  0.218800  1.0
  H  H476  1  0.815400  0.004000  0.718800  1.0
  H  H477  1  0.255100  0.038600  0.229700  1.0
  H  H478  1  0.744900  0.961400  0.729700  1.0
  H  H479  1  0.252200  0.117600  0.229200  1.0
  H  H480  1  0.747800  0.882400  0.729200  1.0
  H  H481  1  0.177400  0.152500  0.217800  1.0
  H  H482  1  0.822600  0.847500  0.717800  1.0
  H  H483  1  0.084400  0.143600  0.205800  1.0
  H  H484  1  0.915600  0.856400  0.705800  1.0
  H  H485  1  0.992200  0.085200  0.157400  1.0
  H  H486  1  0.007800  0.914800  0.657400  1.0
  H  H487  1  0.915200  0.118300  0.151800  1.0
  H  H488  1  0.084800  0.881700  0.651800  1.0
  H  H489  1  0.925500  0.168600  0.236700  1.0
  H  H490  1  0.074500  0.831400  0.736700  1.0
  H  H491  1  0.002500  0.135500  0.242200  1.0
  H  H492  1  0.997500  0.864500  0.742200  1.0
  H  H493  1  0.837200  0.288400  0.161000  1.0
  H  H494  1  0.162800  0.711600  0.661000  1.0
  H  H495  1  0.759200  0.318400  0.153200  1.0
  H  H496  1  0.240800  0.681600  0.653200  1.0
  H  H497  1  0.736300  0.102800  0.209400  1.0
  H  H498  1  0.263700  0.897200  0.709400  1.0
  H  H499  1  0.658300  0.132800  0.201600  1.0
  H  H500  1  0.341700  0.867200  0.701600  1.0
  H  H501  1  0.587600  0.281300  0.121600  1.0
  H  H502  1  0.412400  0.718700  0.621600  1.0
  H  H503  1  0.511700  0.316100  0.115000  1.0
  H  H504  1  0.488300  0.683900  0.615000  1.0
  H  H505  1  0.487000  0.308900  0.205100  1.0
  H  H506  1  0.513000  0.691100  0.705100  1.0
  H  H507  1  0.562900  0.274100  0.211700  1.0
  H  H508  1  0.437100  0.725900  0.711700  1.0
  H  H509  1  0.405300  0.290100  0.156100  1.0
  H  H510  1  0.594700  0.709900  0.656100  1.0
  H  H511  1  0.332700  0.452400  0.146500  1.0
  H  H512  1  0.667300  0.547600  0.646500  1.0
  H  H513  1  0.254000  0.420900  0.150500  1.0
  H  H514  1  0.746000  0.579100  0.650500  1.0
  H  H515  1  0.243600  0.342400  0.154400  1.0
  H  H516  1  0.756400  0.657600  0.654400  1.0
  H  H517  1  0.313500  0.296900  0.154700  1.0
  H  H518  1  0.686500  0.703100  0.654700  1.0
  H  H519  1  0.502400  0.900900  0.563900  1.0
  H  H520  1  0.497600  0.099100  0.063900  1.0
  H  H521  1  0.502300  0.919900  0.614700  1.0
  H  H522  1  0.497700  0.080100  0.114700  1.0
  H  H523  1  0.485500  0.994000  0.629400  1.0
  H  H524  1  0.514500  0.006000  0.129400  1.0
  H  H525  1  0.468400  0.048000  0.592100  1.0
  H  H526  1  0.531600  0.952000  0.092100  1.0
  H  H527  1  0.462800  0.068700  0.538300  1.0
  H  H528  1  0.537200  0.931300  0.038300  1.0
  H  H529  1  0.387800  0.042600  0.473700  1.0
  H  H530  1  0.612200  0.957400  0.973700  1.0
  H  H531  1  0.380800  0.094000  0.434000  1.0
  H  H532  1  0.619200  0.906000  0.934000  1.0
  H  H533  1  0.525000  0.128800  0.443100  1.0
  H  H534  1  0.475000  0.871200  0.943100  1.0
  H  H535  1  0.532000  0.077400  0.482900  1.0
  H  H536  1  0.468000  0.922600  0.982900  1.0
  H  H537  1  0.407600  0.274200  0.415700  1.0
  H  H538  1  0.592400  0.725800  0.915700  1.0
  H  H539  1  0.412800  0.328800  0.377600  1.0
  H  H540  1  0.587200  0.671200  0.877600  1.0
  H  H541  1  0.500000  0.127100  0.325300  1.0
  H  H542  1  0.500000  0.872900  0.825300  1.0
  H  H543  1  0.505200  0.181700  0.287200  1.0
  H  H544  1  0.494800  0.818300  0.787200  1.0
  H  H545  1  0.388500  0.318000  0.255400  1.0
  H  H546  1  0.611500  0.682000  0.755400  1.0
  H  H547  1  0.380900  0.371300  0.216700  1.0
  H  H548  1  0.619100  0.628700  0.716700  1.0
  H  H549  1  0.517700  0.420600  0.235500  1.0
  H  H550  1  0.482300  0.579400  0.735500  1.0
  H  H551  1  0.525300  0.367300  0.274100  1.0
  H  H552  1  0.474700  0.632700  0.774100  1.0
  H  H553  1  0.435500  0.480500  0.222300  1.0
  H  H554  1  0.564500  0.519500  0.722300  1.0
  H  H555  1  0.418200  0.497500  0.104900  1.0
  H  H556  1  0.581800  0.502500  0.604900  1.0
  H  H557  1  0.406800  0.574400  0.111400  1.0
  H  H558  1  0.593200  0.425600  0.611400  1.0
  H  H559  1  0.405200  0.605000  0.160200  1.0
  H  H560  1  0.594800  0.395000  0.660200  1.0
  H  H561  1  0.415800  0.557000  0.201800  1.0
  H  H562  1  0.584200  0.443000  0.701800  1.0
  H  H563  1  0.269600  0.139800  0.850200  1.0
  H  H564  1  0.730400  0.860200  0.350200  1.0
  H  H565  1  0.220700  0.095700  0.882600  1.0
  H  H566  1  0.779300  0.904300  0.382600  1.0
  H  H567  1  0.137700  0.081900  0.871300  1.0
  H  H568  1  0.862300  0.918100  0.371300  1.0
  H  H569  1  0.103500  0.112200  0.827400  1.0
  H  H570  1  0.896500  0.887800  0.327400  1.0
  H  H571  1  0.152400  0.156300  0.795000  1.0
  H  H572  1  0.847600  0.843700  0.295000  1.0
  H  H573  1  0.235500  0.170100  0.806300  1.0
  H  H574  1  0.764500  0.829900  0.306300  1.0
  H  H575  1  0.757500  0.270800  0.254100  1.0
  H  H576  1  0.242500  0.729200  0.754100  1.0
  H  H577  1  0.736300  0.196500  0.267500  1.0
  H  H578  1  0.263700  0.803500  0.767500  1.0
  H  H579  1  0.653500  0.175300  0.273500  1.0
  H  H580  1  0.346500  0.824700  0.773500  1.0
  H  H581  1  0.591900  0.228300  0.266100  1.0
  H  H582  1  0.408100  0.771700  0.766100  1.0
  H  H583  1  0.613100  0.302600  0.252800  1.0
  H  H584  1  0.386900  0.697400  0.752800  1.0
  H  H585  1  0.695900  0.323900  0.246800  1.0
  H  H586  1  0.304100  0.676100  0.746800  1.0
  H  H587  1  0.377500  0.656700  0.572500  1.0
  H  H588  1  0.622500  0.343300  0.072500  1.0
  H  H589  1  0.412300  0.646200  0.524700  1.0
  H  H590  1  0.587700  0.353800  0.024700  1.0
  H  H591  1  0.403300  0.701100  0.487300  1.0
  H  H592  1  0.596700  0.298900  0.987300  1.0
  H  H593  1  0.359500  0.766600  0.497600  1.0
  H  H594  1  0.640500  0.233400  0.997600  1.0
  H  H595  1  0.324700  0.777200  0.545300  1.0
  H  H596  1  0.675300  0.222800  0.045300  1.0
  H  H597  1  0.333700  0.722300  0.582800  1.0
  H  H598  1  0.666300  0.277700  0.082800  1.0
  H  H599  1  0.560400  0.118800  0.234400  1.0
  H  H600  1  0.439600  0.881200  0.734400  1.0
  H  H601  1  0.484400  0.099200  0.256100  1.0
  H  H602  1  0.515600  0.900800  0.756100  1.0
  H  H603  1  0.480100  0.044700  0.294300  1.0
  H  H604  1  0.519900  0.955300  0.794300  1.0
  H  H605  1  0.551900  0.009800  0.310900  1.0
  H  H606  1  0.448100  0.990200  0.810900  1.0
  H  H607  1  0.627900  0.029400  0.289200  1.0
  H  H608  1  0.372100  0.970600  0.789200  1.0
  H  H609  1  0.632100  0.083900  0.251000  1.0
  H  H610  1  0.367900  0.916100  0.751000  1.0
  H  H611  1  0.777100  0.386000  0.256200  1.0
  H  H612  1  0.222900  0.614000  0.756200  1.0
  H  H613  1  0.851100  0.426700  0.250200  1.0
  H  H614  1  0.148900  0.573300  0.750200  1.0
  H  H615  1  0.908700  0.429500  0.289400  1.0
  H  H616  1  0.091300  0.570500  0.789400  1.0
  H  H617  1  0.892200  0.391700  0.334800  1.0
  H  H618  1  0.107800  0.608300  0.834800  1.0
  H  H619  1  0.818200  0.351000  0.340800  1.0
  H  H620  1  0.181800  0.649000  0.840800  1.0
  H  H621  1  0.760600  0.348100  0.301600  1.0
  H  H622  1  0.239400  0.651900  0.801600  1.0
  H  H623  1  0.102600  0.278100  0.668900  1.0
  H  H624  1  0.897400  0.721900  0.168900  1.0
  H  H625  1  0.162100  0.334500  0.678600  1.0
  H  H626  1  0.837900  0.665500  0.178600  1.0
  H  H627  1  0.245800  0.318500  0.674200  1.0
  H  H628  1  0.754200  0.681500  0.174200  1.0
  H  H629  1  0.270000  0.246000  0.660200  1.0
  H  H630  1  0.730000  0.754000  0.160200  1.0
  H  H631  1  0.210600  0.189600  0.650600  1.0
  H  H632  1  0.789400  0.810400  0.150600  1.0
  H  H633  1  0.126900  0.205700  0.654900  1.0
  H  H634  1  0.873100  0.794300  0.154900  1.0
  H  H635  1  0.611500  0.082000  0.354200  1.0
  H  H636  1  0.388500  0.918000  0.854200  1.0
  H  H637  1  0.602700  0.104600  0.404400  1.0
  H  H638  1  0.397300  0.895400  0.904400  1.0
  H  H639  1  0.586900  0.180200  0.415700  1.0
  H  H640  1  0.413100  0.819800  0.915700  1.0
  H  H641  1  0.580000  0.233100  0.376800  1.0
  H  H642  1  0.420000  0.766900  0.876800  1.0
  H  H643  1  0.588900  0.210400  0.326600  1.0
  H  H644  1  0.411100  0.789600  0.826600  1.0
  H  H645  1  0.604700  0.134900  0.315200  1.0
  H  H646  1  0.395300  0.865100  0.815200  1.0
  H  H647  1  0.713300  0.113200  0.338100  1.0
  H  H648  1  0.286700  0.886800  0.838100  1.0
  H  H649  1  0.704200  0.081000  0.290200  1.0
  H  H650  1  0.295800  0.919000  0.790200  1.0
  H  H651  1  0.771900  0.077500  0.257700  1.0
  H  H652  1  0.228100  0.922500  0.757700  1.0
  H  H653  1  0.848700  0.106200  0.273100  1.0
  H  H654  1  0.151300  0.893800  0.773100  1.0
  H  H655  1  0.857800  0.138400  0.321000  1.0
  H  H656  1  0.142200  0.861600  0.821000  1.0
  H  H657  1  0.790200  0.141900  0.353600  1.0
  H  H658  1  0.209800  0.858100  0.853600  1.0
  H  H659  1  0.069300  0.008000  0.355900  1.0
  H  H660  1  0.930700  0.992000  0.855900  1.0
  H  H661  1  0.095300  0.003800  0.323600  1.0
  H  H662  1  0.904700  0.996200  0.823600  1.0
  H  H663  1  0.125400  0.024500  0.351600  1.0
  H  H664  1  0.874600  0.975500  0.851600  1.0
  H  H665  1  0.987800  0.673800  0.626300  1.0
  H  H666  1  0.012200  0.326200  0.126300  1.0
  H  H667  1  0.042000  0.668900  0.639900  1.0
  H  H668  1  0.958000  0.331100  0.139900  1.0
  H  H669  1  0.995700  0.671600  0.662100  1.0
  H  H670  1  0.004300  0.328400  0.162100  1.0
  H  H671  1  0.440300  0.364700  0.667700  1.0
  H  H672  1  0.559700  0.635300  0.167700  1.0
  H  H673  1  0.472800  0.320600  0.672000  1.0
  H  H674  1  0.527200  0.679400  0.172000  1.0
  H  H675  1  0.445600  0.342200  0.700400  1.0
  H  H676  1  0.554400  0.657800  0.200400  1.0
  H  H677  1  0.674300  0.568800  0.154400  1.0
  H  H678  1  0.325700  0.431200  0.654400  1.0
  H  H679  1  0.656200  0.602400  0.180300  1.0
  H  H680  1  0.343800  0.397600  0.680300  1.0
  H  H681  1  0.665900  0.550500  0.188000  1.0
  H  H682  1  0.334100  0.449500  0.688000  1.0
  C  C683  1  0.388100  0.559700  0.336600  1.0
  C  C684  1  0.611900  0.440300  0.836600  1.0
  C  C685  1  0.378800  0.550000  0.306500  1.0
  C  C686  1  0.621200  0.450000  0.806500  1.0
  C  C687  1  0.383600  0.506200  0.296140  1.0
  C  C688  1  0.616400  0.493800  0.796140  1.0
  C  C689  1  0.397400  0.472900  0.316200  1.0
  C  C690  1  0.602600  0.527100  0.816200  1.0
  C  C691  1  0.404800  0.484400  0.346000  1.0
  C  C692  1  0.595200  0.515600  0.846000  1.0
  C  C693  1  0.419900  0.452300  0.368700  1.0
  C  C694  1  0.580100  0.547700  0.868700  1.0
  C  C695  1  0.440800  0.428600  0.416100  1.0
  C  C696  1  0.559200  0.571400  0.916100  1.0
  C  C697  1  0.486300  0.428100  0.430500  1.0
  C  C698  1  0.513700  0.571900  0.930500  1.0
  C  C699  1  0.495300  0.395900  0.452600  1.0
  C  C700  1  0.504700  0.604100  0.952600  1.0
  C  C701  1  0.459000  0.364300  0.460200  1.0
  C  C702  1  0.541000  0.635700  0.960200  1.0
  C  C703  1  0.413600  0.364800  0.445800  1.0
  C  C704  1  0.586400  0.635200  0.945800  1.0
  C  C705  1  0.404500  0.397000  0.423800  1.0
  C  C706  1  0.595500  0.603000  0.923800  1.0
  C  C707  1  0.447600  0.344000  0.513000  1.0
  C  C708  1  0.552400  0.656000  0.013000  1.0
  C  C709  1  0.486900  0.290800  0.475600  1.0
  C  C710  1  0.513100  0.709200  0.975600  1.0
  C  C711  1  0.489300  0.257500  0.501060  1.0
  C  C712  1  0.510700  0.742500  0.001060  1.0
  C  C713  1  0.509500  0.215800  0.494750  1.0
  C  C714  1  0.490500  0.784200  0.994750  1.0
  C  C715  1  0.517000  0.184900  0.517900  1.0
  C  C716  1  0.483000  0.815100  0.017900  1.0
  C  C717  1  0.504200  0.195800  0.547330  1.0
  C  C718  1  0.495800  0.804200  0.047330  1.0
  C  C719  1  0.483900  0.237500  0.553640  1.0
  C  C720  1  0.516100  0.762500  0.053640  1.0
  C  C721  1  0.476500  0.268400  0.530510  1.0
  C  C722  1  0.523500  0.731600  0.030510  1.0
  C  C723  1  0.456200  0.310100  0.536820  1.0
  C  C724  1  0.543800  0.689900  0.036820  1.0
  C  C725  1  0.443400  0.321000  0.566300  1.0
  C  C726  1  0.556600  0.679000  0.066300  1.0
  C  C727  1  0.450900  0.290100  0.589400  1.0
  C  C728  1  0.549100  0.709900  0.089400  1.0
  C  C729  1  0.471100  0.248400  0.583090  1.0
  C  C730  1  0.528900  0.751600  0.083090  1.0
  C  C731  1  0.482000  0.217500  0.608500  1.0
  C  C732  1  0.518000  0.782500  0.108500  1.0
  C  C733  1  0.514200  0.161400  0.572000  1.0
  C  C734  1  0.485800  0.838600  0.072000  1.0
  C  C735  1  0.522700  0.150400  0.624400  1.0
  C  C736  1  0.477300  0.849600  0.124400  1.0
  C  C737  1  0.570500  0.156200  0.635000  1.0
  C  C738  1  0.429500  0.843800  0.135000  1.0
  C  C739  1  0.587400  0.129500  0.658500  1.0
  C  C740  1  0.412600  0.870500  0.158500  1.0
  C  C741  1  0.556400  0.096900  0.671300  1.0
  C  C742  1  0.443600  0.903100  0.171300  1.0
  C  C743  1  0.508600  0.091000  0.660700  1.0
  C  C744  1  0.491400  0.909000  0.160700  1.0
  C  C745  1  0.491700  0.117800  0.637200  1.0
  C  C746  1  0.508300  0.882200  0.137200  1.0
  C  C747  1  0.587400  0.028800  0.690600  1.0
  C  C748  1  0.412600  0.971200  0.190600  1.0
  C  C749  1  0.605600  0.997500  0.713800  1.0
  C  C750  1  0.394400  0.002500  0.213800  1.0
  C  C751  1  0.617000  0.952700  0.710300  1.0
  C  C752  1  0.383000  0.047300  0.210300  1.0
  C  C753  1  0.635300  0.929500  0.734800  1.0
  C  C754  1  0.364700  0.070500  0.234800  1.0
  C  C755  1  0.640400  0.951700  0.762100  1.0
  C  C756  1  0.359600  0.048300  0.262100  1.0
  C  C757  1  0.627000  0.996400  0.764500  1.0
  C  C758  1  0.373000  0.003600  0.264500  1.0
  C  C759  1  0.418500  0.639300  0.404550  1.0
  C  C760  1  0.581500  0.360700  0.904550  1.0
  C  C761  1  0.399700  0.681400  0.411200  1.0
  C  C762  1  0.600300  0.318600  0.911200  1.0
  C  C763  1  0.351200  0.684700  0.420310  1.0
  C  C764  1  0.648800  0.315300  0.920310  1.0
  C  C765  1  0.322500  0.645800  0.422800  1.0
  C  C766  1  0.677500  0.354200  0.922800  1.0
  C  C767  1  0.343700  0.604800  0.416750  1.0
  C  C768  1  0.656300  0.395200  0.916750  1.0
  C  C769  1  0.321400  0.562900  0.418200  1.0
  C  C770  1  0.678600  0.437100  0.918200  1.0
  C  C771  1  0.313100  0.483300  0.419500  1.0
  C  C772  1  0.686900  0.516700  0.919500  1.0
  C  C773  1  0.298500  0.457600  0.394700  1.0
  C  C774  1  0.701500  0.542400  0.894700  1.0
  C  C775  1  0.275300  0.415800  0.399000  1.0
  C  C776  1  0.724700  0.584200  0.899000  1.0
  C  C777  1  0.266600  0.399800  0.428000  1.0
  C  C778  1  0.733400  0.600200  0.928000  1.0
  C  C779  1  0.281200  0.425500  0.452800  1.0
  C  C780  1  0.718800  0.574500  0.952800  1.0
  C  C781  1  0.304400  0.467300  0.448600  1.0
  C  C782  1  0.695600  0.532700  0.948600  1.0
  C  C783  1  0.202300  0.347900  0.443600  1.0
  C  C784  1  0.797700  0.652100  0.943600  1.0
  C  C785  1  0.280200  0.319600  0.422500  1.0
  C  C786  1  0.719800  0.680400  0.922500  1.0
  C  C787  1  0.260000  0.273400  0.425900  1.0
  C  C788  1  0.740000  0.726600  0.925900  1.0
  C  C789  1  0.288800  0.237400  0.417000  1.0
  C  C790  1  0.711200  0.762600  0.917000  1.0
  C  C791  1  0.271500  0.193300  0.420700  1.0
  C  C792  1  0.728500  0.806700  0.920700  1.0
  C  C793  1  0.225300  0.185100  0.433300  1.0
  C  C794  1  0.774700  0.814900  0.933300  1.0
  C  C795  1  0.196500  0.221060  0.442180  1.0
  C  C796  1  0.803500  0.778940  0.942180  1.0
  C  C797  1  0.213800  0.265170  0.438480  1.0
  C  C798  1  0.786200  0.734830  0.938480  1.0
  C  C799  1  0.185000  0.301100  0.447400  1.0
  C  C800  1  0.815000  0.698900  0.947400  1.0
  C  C801  1  0.138900  0.292900  0.460000  1.0
  C  C802  1  0.861100  0.707100  0.960000  1.0
  C  C803  1  0.121500  0.248800  0.463700  1.0
  C  C804  1  0.878500  0.751200  0.963700  1.0
  C  C805  1  0.150300  0.212900  0.454800  1.0
  C  C806  1  0.849700  0.787100  0.954800  1.0
  C  C807  1  0.130200  0.167600  0.456700  1.0
  C  C808  1  0.869800  0.832400  0.956700  1.0
  C  C809  1  0.207500  0.137200  0.435600  1.0
  C  C810  1  0.792500  0.862800  0.935600  1.0
  C  C811  1  0.139500  0.086200  0.446200  1.0
  C  C812  1  0.860500  0.913800  0.946200  1.0
  C  C813  1  0.148400  0.056700  0.469900  1.0
  C  C814  1  0.851600  0.943300  0.969900  1.0
  C  C815  1  0.128000  0.013300  0.469500  1.0
  C  C816  1  0.872000  0.986700  0.969500  1.0
  C  C817  1  0.098700  0.999400  0.445400  1.0
  C  C818  1  0.901300  0.000600  0.945400  1.0
  C  C819  1  0.089700  0.028900  0.421700  1.0
  C  C820  1  0.910300  0.971100  0.921700  1.0
  C  C821  1  0.110100  0.072300  0.422100  1.0
  C  C822  1  0.889900  0.927700  0.922100  1.0
  C  C823  1  0.101100  0.922000  0.444800  1.0
  C  C824  1  0.898900  0.078000  0.944800  1.0
  C  C825  1  0.077900  0.877500  0.445620  1.0
  C  C826  1  0.922100  0.122500  0.945620  1.0
  C  C827  1  0.104000  0.838440  0.441900  1.0
  C  C828  1  0.896000  0.161560  0.941900  1.0
  C  C829  1  0.079100  0.797400  0.444000  1.0
  C  C830  1  0.920900  0.202600  0.944000  1.0
  C  C831  1  0.028900  0.796900  0.449100  1.0
  C  C832  1  0.971100  0.203100  0.949100  1.0
  C  C833  1  0.004400  0.837300  0.451800  1.0
  C  C834  1  0.995600  0.162700  0.951800  1.0
  C  C835  1  0.516000  0.561300  0.372000  1.0
  C  C836  1  0.484000  0.438700  0.872000  1.0
  C  C837  1  0.566500  0.569300  0.371200  1.0
  C  C838  1  0.433500  0.430700  0.871200  1.0
  C  C839  1  0.593600  0.567200  0.397600  1.0
  C  C840  1  0.406400  0.432800  0.897600  1.0
  C  C841  1  0.569600  0.556900  0.424300  1.0
  C  C842  1  0.430400  0.443100  0.924300  1.0
  C  C843  1  0.519600  0.548000  0.423600  1.0
  C  C844  1  0.480400  0.452000  0.923600  1.0
  C  C845  1  0.489400  0.541400  0.451600  1.0
  C  C846  1  0.510600  0.458600  0.951600  1.0
  C  C847  1  0.415400  0.530100  0.475600  1.0
  C  C848  1  0.584600  0.469900  0.975600  1.0
  C  C849  1  0.414800  0.489700  0.491600  1.0
  C  C850  1  0.585200  0.510300  0.991600  1.0
  C  C851  1  0.385400  0.484800  0.517100  1.0
  C  C852  1  0.614600  0.515200  0.017100  1.0
  C  C853  1  0.356500  0.520300  0.526600  1.0
  C  C854  1  0.643500  0.479700  0.026600  1.0
  C  C855  1  0.357100  0.560700  0.510700  1.0
  C  C856  1  0.642900  0.439300  0.010700  1.0
  C  C857  1  0.386500  0.565600  0.485200  1.0
  C  C858  1  0.613500  0.434400  0.985200  1.0
  C  C859  1  0.331100  0.543700  0.577000  1.0
  C  C860  1  0.668900  0.456300  0.077000  1.0
  C  C861  1  0.286000  0.483300  0.550200  1.0
  C  C862  1  0.714000  0.516700  0.050200  1.0
  C  C863  1  0.254700  0.477000  0.576910  1.0
  C  C864  1  0.745300  0.523000  0.076910  1.0
  C  C865  1  0.216300  0.445400  0.575600  1.0
  C  C866  1  0.783700  0.554600  0.075600  1.0
  C  C867  1  0.181900  0.443000  0.598800  1.0
  C  C868  1  0.818100  0.557000  0.098800  1.0
  C  C869  1  0.185800  0.472200  0.623200  1.0
  C  C870  1  0.814200  0.527800  0.123200  1.0
  C  C871  1  0.224200  0.503900  0.624520  1.0
  C  C872  1  0.775800  0.496100  0.124520  1.0
  C  C873  1  0.258700  0.506300  0.601360  1.0
  C  C874  1  0.741300  0.493700  0.101360  1.0
  C  C875  1  0.297000  0.537900  0.602700  1.0
  C  C876  1  0.703000  0.462100  0.102700  1.0
  C  C877  1  0.301000  0.567200  0.627100  1.0
  C  C878  1  0.699000  0.432800  0.127100  1.0
  C  C879  1  0.266500  0.564800  0.650300  1.0
  C  C880  1  0.733500  0.435200  0.150300  1.0
  C  C881  1  0.228100  0.533100  0.648970  1.0
  C  C882  1  0.771900  0.466900  0.148970  1.0
  C  C883  1  0.192100  0.532600  0.674600  1.0
  C  C884  1  0.807900  0.467400  0.174600  1.0
  C  C885  1  0.150300  0.467700  0.648200  1.0
  C  C886  1  0.849700  0.532300  0.148200  1.0
  C  C887  1  0.118400  0.496700  0.695800  1.0
  C  C888  1  0.881600  0.503300  0.195800  1.0
  C  C889  1  0.118600  0.458700  0.714200  1.0
  C  C890  1  0.881400  0.541300  0.214200  1.0
  C  C891  1  0.084900  0.454400  0.737700  1.0
  C  C892  1  0.915100  0.545600  0.237700  1.0
  C  C893  1  0.051200  0.488200  0.742800  1.0
  C  C894  1  0.948800  0.511800  0.242800  1.0
  C  C895  1  0.051000  0.526300  0.724500  1.0
  C  C896  1  0.949000  0.473700  0.224500  1.0
  C  C897  1  0.084600  0.530500  0.701000  1.0
  C  C898  1  0.915400  0.469500  0.201000  1.0
  C  C899  1  0.032200  0.472500  0.794100  1.0
  C  C900  1  0.967800  0.527500  0.294100  1.0
  C  C901  1  0.994600  0.464300  0.817500  1.0
  C  C902  1  0.005400  0.535700  0.317500  1.0
  C  C903  1  0.008200  0.456200  0.847000  1.0
  C  C904  1  0.991800  0.543800  0.347000  1.0
  C  C905  1  0.972800  0.440500  0.867000  1.0
  C  C906  1  0.027200  0.559500  0.367000  1.0
  C  C907  1  0.925300  0.432500  0.856760  1.0
  C  C908  1  0.074700  0.567500  0.356760  1.0
  C  C909  1  0.914200  0.440000  0.826690  1.0
  C  C910  1  0.085800  0.560000  0.326690  1.0
  C  C911  1  0.821400  0.458700  0.760000  1.0
  C  C912  1  0.178600  0.541300  0.260000  1.0
  C  C913  1  0.776400  0.436400  0.756700  1.0
  C  C914  1  0.223600  0.563600  0.256700  1.0
  C  C915  1  0.775100  0.390400  0.751000  1.0
  C  C916  1  0.224900  0.609600  0.251000  1.0
  C  C917  1  0.818900  0.367600  0.748900  1.0
  C  C918  1  0.181100  0.632400  0.248900  1.0
  C  C919  1  0.862400  0.391400  0.753200  1.0
  C  C920  1  0.137600  0.608600  0.253200  1.0
  C  C921  1  0.907900  0.367500  0.754500  1.0
  C  C922  1  0.092100  0.632500  0.254500  1.0
  C  C923  1  0.992500  0.364000  0.756600  1.0
  C  C924  1  0.007500  0.636000  0.256600  1.0
  C  C925  1  0.009500  0.347700  0.729100  1.0
  C  C926  1  0.990500  0.652300  0.229100  1.0
  C  C927  1  0.055600  0.328300  0.727400  1.0
  C  C928  1  0.944400  0.671700  0.227400  1.0
  C  C929  1  0.084700  0.325200  0.753100  1.0
  C  C930  1  0.915300  0.674800  0.253100  1.0
  C  C931  1  0.067700  0.341500  0.780500  1.0
  C  C932  1  0.932300  0.658500  0.280500  1.0
  C  C933  1  0.021600  0.360900  0.782300  1.0
  C  C934  1  0.978400  0.639100  0.282300  1.0
  C  C935  1  0.139900  0.261800  0.747800  1.0
  C  C936  1  0.860100  0.738200  0.247800  1.0
  C  C937  1  0.172700  0.341000  0.750000  1.0
  C  C938  1  0.827300  0.659000  0.250000  1.0
  C  C939  1  0.222800  0.322100  0.749200  1.0
  C  C940  1  0.777200  0.677900  0.249200  1.0
  C  C941  1  0.262800  0.352000  0.750700  1.0
  C  C942  1  0.737200  0.648000  0.250700  1.0
  C  C943  1  0.310400  0.336000  0.748200  1.0
  C  C944  1  0.689600  0.664000  0.248200  1.0
  C  C945  1  0.318000  0.290100  0.744200  1.0
  C  C946  1  0.682000  0.709900  0.244200  1.0
  C  C947  1  0.278000  0.260200  0.742720  1.0
  C  C948  1  0.722000  0.739800  0.242720  1.0
  C  C949  1  0.230400  0.276200  0.745180  1.0
  C  C950  1  0.769600  0.723800  0.245180  1.0
  C  C951  1  0.190400  0.246300  0.743700  1.0
  C  C952  1  0.809600  0.753700  0.243700  1.0
  C  C953  1  0.198100  0.200400  0.739700  1.0
  C  C954  1  0.801900  0.799600  0.239700  1.0
  C  C955  1  0.245700  0.184400  0.737200  1.0
  C  C956  1  0.754300  0.815600  0.237200  1.0
  C  C957  1  0.285700  0.214300  0.738700  1.0
  C  C958  1  0.714300  0.785700  0.238700  1.0
  C  C959  1  0.336500  0.196600  0.739200  1.0
  C  C960  1  0.663500  0.803400  0.239200  1.0
  C  C961  1  0.368600  0.274600  0.742300  1.0
  C  C962  1  0.631400  0.725400  0.242300  1.0
  C  C963  1  0.423800  0.212000  0.737900  1.0
  C  C964  1  0.576200  0.788000  0.237900  1.0
  C  C965  1  0.448000  0.200700  0.764400  1.0
  C  C966  1  0.552000  0.799300  0.264400  1.0
  C  C967  1  0.494800  0.182600  0.763200  1.0
  C  C968  1  0.505200  0.817400  0.263200  1.0
  C  C969  1  0.517400  0.175700  0.735500  1.0
  C  C970  1  0.482600  0.824300  0.235500  1.0
  C  C971  1  0.493200  0.187000  0.709000  1.0
  C  C972  1  0.506800  0.813000  0.209000  1.0
  C  C973  1  0.446400  0.205200  0.710200  1.0
  C  C974  1  0.553600  0.794800  0.210200  1.0
  C  C975  1  0.603100  0.184900  0.728200  1.0
  C  C976  1  0.396900  0.815100  0.228200  1.0
  C  C977  1  0.653000  0.165700  0.726300  1.0
  C  C978  1  0.347000  0.834300  0.226300  1.0
  C  C979  1  0.694100  0.192400  0.720600  1.0
  C  C980  1  0.305900  0.807600  0.220600  1.0
  C  C981  1  0.739900  0.172700  0.721500  1.0
  C  C982  1  0.260100  0.827300  0.221500  1.0
  C  C983  1  0.742800  0.126900  0.727300  1.0
  C  C984  1  0.257200  0.873100  0.227300  1.0
  C  C985  1  0.700100  0.101600  0.731900  1.0
  C  C986  1  0.299900  0.898400  0.231900  1.0
  C  C987  1  0.889000  0.906600  0.442600  1.0
  C  C988  1  0.111000  0.093400  0.942600  1.0
  C  C989  1  0.841200  0.897400  0.452000  1.0
  C  C990  1  0.158800  0.102600  0.952000  1.0
  C  C991  1  0.829100  0.901500  0.482200  1.0
  C  C992  1  0.170900  0.098500  0.982200  1.0
  C  C993  1  0.865200  0.914900  0.502400  1.0
  C  C994  1  0.134800  0.085100  0.002400  1.0
  C  C995  1  0.911800  0.924800  0.491700  1.0
  C  C996  1  0.088200  0.075200  0.991700  1.0
  C  C997  1  0.952800  0.937700  0.510600  1.0
  C  C998  1  0.047200  0.062300  0.010600  1.0
  C  C999  1  0.034300  0.960700  0.519900  1.0
  C  C1000  1  0.965700  0.039300  0.019900  1.0
  C  C1001  1  0.032500  0.000500  0.536500  1.0
  C  C1002  1  0.967500  0.999500  0.036500  1.0
  C  C1003  1  0.071100  0.012600  0.555600  1.0
  C  C1004  1  0.928900  0.987400  0.055600  1.0
  C  C1005  1  0.111500  0.984800  0.558200  1.0
  C  C1006  1  0.888500  0.015200  0.058200  1.0
  C  C1007  1  0.113400  0.945000  0.541700  1.0
  C  C1008  1  0.886600  0.055000  0.041700  1.0
  C  C1009  1  0.074800  0.932900  0.522500  1.0
  C  C1010  1  0.925200  0.067100  0.022500  1.0
  C  C1011  1  0.142800  0.983000  0.608800  1.0
  C  C1012  1  0.857200  0.017000  0.108800  1.0
  C  C1013  1  0.198900  0.006500  0.566600  1.0
  C  C1014  1  0.801100  0.993500  0.066600  1.0
  C  C1015  1  0.236900  0.017700  0.587210  1.0
  C  C1016  1  0.763100  0.982300  0.087210  1.0
  C  C1017  1  0.281900  0.033600  0.576280  1.0
  C  C1018  1  0.718100  0.966400  0.076280  1.0
  C  C1019  1  0.321900  0.038400  0.595680  1.0
  C  C1020  1  0.678100  0.961600  0.095680  1.0
  C  C1021  1  0.316800  0.027400  0.626020  1.0
  C  C1022  1  0.683200  0.972600  0.126020  1.0
  C  C1023  1  0.271700  0.011500  0.636950  1.0
  C  C1024  1  0.728300  0.988500  0.136950  1.0
  C  C1025  1  0.231800  0.006600  0.617550  1.0
  C  C1026  1  0.768200  0.993400  0.117550  1.0
  C  C1027  1  0.186700  0.990700  0.628480  1.0
  C  C1028  1  0.813300  0.009300  0.128480  1.0
  C  C1029  1  0.181600  0.979700  0.658820  1.0
  C  C1030  1  0.818400  0.020300  0.158820  1.0
  C  C1031  1  0.221600  0.984500  0.678220  1.0
  C  C1032  1  0.778400  0.015500  0.178220  1.0
  C  C1033  1  0.266600  0.000400  0.667290  1.0
  C  C1034  1  0.733400  0.999600  0.167290  1.0
  C  C1035  1  0.308900  0.001100  0.688500  1.0
  C  C1036  1  0.691100  0.998900  0.188500  1.0
  C  C1037  1  0.359600  0.032500  0.645800  1.0
  C  C1038  1  0.640400  0.967500  0.145800  1.0
  C  C1039  1  0.394000  0.029500  0.696900  1.0
  C  C1040  1  0.606000  0.970500  0.196900  1.0
  C  C1041  1  0.393500  0.069800  0.712900  1.0
  C  C1042  1  0.606500  0.930200  0.212900  1.0
  C  C1043  1  0.432200  0.081000  0.732200  1.0
  C  C1044  1  0.567800  0.919000  0.232200  1.0
  C  C1045  1  0.471400  0.051900  0.735500  1.0
  C  C1046  1  0.528600  0.948100  0.235500  1.0
  C  C1047  1  0.471900  0.011600  0.719400  1.0
  C  C1048  1  0.528100  0.988400  0.219400  1.0
  C  C1049  1  0.433200  0.000400  0.700100  1.0
  C  C1050  1  0.566800  0.999600  0.200100  1.0
  C  C1051  1  0.504600  0.072000  0.781900  1.0
  C  C1052  1  0.495400  0.928000  0.281900  1.0
  C  C1053  1  0.544100  0.090200  0.802300  1.0
  C  C1054  1  0.455900  0.909800  0.302300  1.0
  C  C1055  1  0.537000  0.098300  0.832620  1.0
  C  C1056  1  0.463000  0.901700  0.332620  1.0
  C  C1057  1  0.577200  0.111200  0.849990  1.0
  C  C1058  1  0.422800  0.888800  0.349990  1.0
  C  C1059  1  0.622700  0.116600  0.836290  1.0
  C  C1060  1  0.377300  0.883400  0.336290  1.0
  C  C1061  1  0.627200  0.109300  0.805540  1.0
  C  C1062  1  0.372800  0.890700  0.305540  1.0
  C  C1063  1  0.996900  0.916000  0.382360  1.0
  C  C1064  1  0.003100  0.084000  0.882360  1.0
  C  C1065  1  0.985100  0.923500  0.352360  1.0
  C  C1066  1  0.014900  0.076500  0.852360  1.0
  C  C1067  1  0.960600  0.962200  0.344330  1.0
  C  C1068  1  0.039400  0.037800  0.844330  1.0
  C  C1069  1  0.948500  0.992900  0.366520  1.0
  C  C1070  1  0.051500  0.007100  0.866520  1.0
  C  C1071  1  0.962400  0.984300  0.395840  1.0
  C  C1072  1  0.037600  0.015700  0.895840  1.0
  C  C1073  1  0.958500  0.019400  0.419500  1.0
  C  C1074  1  0.041500  0.980600  0.919500  1.0
  C  C1075  1  0.965100  0.042100  0.469100  1.0
  C  C1076  1  0.034900  0.957900  0.969100  1.0
  C  C1077  1  0.922500  0.047200  0.486100  1.0
  C  C1078  1  0.077500  0.952800  0.986100  1.0
  C  C1079  1  0.920300  0.080800  0.507900  1.0
  C  C1080  1  0.079700  0.919200  0.007900  1.0
  C  C1081  1  0.960700  0.109500  0.512700  1.0
  C  C1082  1  0.039300  0.890500  0.012700  1.0
  C  C1083  1  0.003300  0.104500  0.495700  1.0
  C  C1084  1  0.996700  0.895500  0.995700  1.0
  C  C1085  1  0.005400  0.070800  0.473900  1.0
  C  C1086  1  0.994600  0.929200  0.973900  1.0
  C  C1087  1  0.981800  0.140900  0.561400  1.0
  C  C1088  1  0.018200  0.859100  0.061400  1.0
  C  C1089  1  0.937100  0.185300  0.522800  1.0
  C  C1090  1  0.062900  0.814700  0.022800  1.0
  C  C1091  1  0.943600  0.225500  0.542290  1.0
  C  C1092  1  0.056400  0.774500  0.042290  1.0
  C  C1093  1  0.924000  0.265900  0.532430  1.0
  C  C1094  1  0.076000  0.734100  0.032430  1.0
  C  C1095  1  0.926100  0.303800  0.550950  1.0
  C  C1096  1  0.073900  0.696200  0.050950  1.0
  C  C1097  1  0.947600  0.301200  0.579330  1.0
  C  C1098  1  0.052400  0.698800  0.079330  1.0
  C  C1099  1  0.967100  0.260700  0.589190  1.0
  C  C1100  1  0.032900  0.739300  0.089190  1.0
  C  C1101  1  0.965100  0.222900  0.570670  1.0
  C  C1102  1  0.034900  0.777100  0.070670  1.0
  C  C1103  1  0.984600  0.182400  0.580530  1.0
  C  C1104  1  0.015400  0.817600  0.080530  1.0
  C  C1105  1  0.006200  0.179800  0.608900  1.0
  C  C1106  1  0.993800  0.820200  0.108900  1.0
  C  C1107  1  0.008200  0.217700  0.627430  1.0
  C  C1108  1  0.991800  0.782300  0.127430  1.0
  C  C1109  1  0.988700  0.258100  0.617570  1.0
  C  C1110  1  0.011300  0.741900  0.117570  1.0
  C  C1111  1  0.988700  0.298100  0.638400  1.0
  C  C1112  1  0.011300  0.701900  0.138400  1.0
  C  C1113  1  0.946800  0.341200  0.599000  1.0
  C  C1114  1  0.053200  0.658800  0.099000  1.0
  C  C1115  1  0.960800  0.373800  0.647700  1.0
  C  C1116  1  0.039200  0.626200  0.147700  1.0
  C  C1117  1  0.914700  0.378900  0.660800  1.0
  C  C1118  1  0.085300  0.621100  0.160800  1.0
  C  C1119  1  0.907300  0.413100  0.681600  1.0
  C  C1120  1  0.092700  0.586900  0.181600  1.0
  C  C1121  1  0.945900  0.442300  0.689400  1.0
  C  C1122  1  0.054100  0.557700  0.189400  1.0
  C  C1123  1  0.992000  0.437200  0.676400  1.0
  C  C1124  1  0.008000  0.562800  0.176400  1.0
  C  C1125  1  0.999500  0.403000  0.655500  1.0
  C  C1126  1  0.000500  0.597000  0.155500  1.0
  C  C1127  1  0.928200  0.513800  0.704700  1.0
  C  C1128  1  0.071800  0.486200  0.204700  1.0
  C  C1129  1  0.921200  0.546100  0.727700  1.0
  C  C1130  1  0.078800  0.453900  0.227700  1.0
  C  C1131  1  0.912800  0.590600  0.720800  1.0
  C  C1132  1  0.087200  0.409400  0.220800  1.0
  C  C1133  1  0.901500  0.620000  0.744000  1.0
  C  C1134  1  0.098500  0.380000  0.244000  1.0
  C  C1135  1  0.900200  0.603900  0.773300  1.0
  C  C1136  1  0.099800  0.396100  0.273300  1.0
  C  C1137  1  0.910400  0.559000  0.778900  1.0
  C  C1138  1  0.089600  0.441000  0.278900  1.0
  C  C1139  1  0.471500  0.849300  0.499000  1.0
  C  C1140  1  0.528500  0.150700  0.999000  1.0
  C  C1141  1  0.490500  0.806700  0.494600  1.0
  C  C1142  1  0.509500  0.193300  0.994600  1.0
  C  C1143  1  0.540700  0.801800  0.491220  1.0
  C  C1144  1  0.459300  0.198200  0.991220  1.0
  C  C1145  1  0.571100  0.839700  0.492500  1.0
  C  C1146  1  0.428900  0.160300  0.992500  1.0
  C  C1147  1  0.550300  0.881100  0.497800  1.0
  C  C1148  1  0.449700  0.118900  0.997800  1.0
  C  C1149  1  0.581100  0.921800  0.498000  1.0
  C  C1150  1  0.418900  0.078200  0.998000  1.0
  C  C1151  1  0.588300  0.000300  0.496700  1.0
  C  C1152  1  0.411700  0.999700  0.996700  1.0
  C  C1153  1  0.589700  0.030200  0.520890  1.0
  C  C1154  1  0.410300  0.969800  0.020890  1.0
  C  C1155  1  0.616200  0.070700  0.518590  1.0
  C  C1156  1  0.383800  0.929300  0.018590  1.0
  C  C1157  1  0.641300  0.081300  0.492100  1.0
  C  C1158  1  0.358700  0.918700  0.992100  1.0
  C  C1159  1  0.639900  0.051400  0.467930  1.0
  C  C1160  1  0.360100  0.948600  0.967930  1.0
  C  C1161  1  0.613400  0.010900  0.470200  1.0
  C  C1162  1  0.386600  0.989100  0.970200  1.0
  C  C1163  1  0.712000  0.131000  0.496600  1.0
  C  C1164  1  0.288000  0.869000  0.996600  1.0
  C  C1165  1  0.635600  0.158700  0.475900  1.0
  C  C1166  1  0.364400  0.841300  0.975900  1.0
  C  C1167  1  0.657100  0.204700  0.474400  1.0
  C  C1168  1  0.342900  0.795300  0.974400  1.0
  C  C1169  1  0.628500  0.240300  0.464600  1.0
  C  C1170  1  0.371500  0.759700  0.964600  1.0
  C  C1171  1  0.647400  0.284200  0.465500  1.0
  C  C1172  1  0.352600  0.715800  0.965500  1.0
  C  C1173  1  0.694800  0.292630  0.476200  1.0
  C  C1174  1  0.305200  0.707370  0.976200  1.0
  C  C1175  1  0.723400  0.257060  0.485950  1.0
  C  C1176  1  0.276600  0.742940  0.985950  1.0
  C  C1177  1  0.704600  0.213100  0.485090  1.0
  C  C1178  1  0.295400  0.786900  0.985090  1.0
  C  C1179  1  0.733100  0.177500  0.494900  1.0
  C  C1180  1  0.266900  0.822500  0.994900  1.0
  C  C1181  1  0.780600  0.185900  0.505500  1.0
  C  C1182  1  0.219400  0.814100  0.005500  1.0
  C  C1183  1  0.799400  0.229900  0.506400  1.0
  C  C1184  1  0.200600  0.770100  0.006400  1.0
  C  C1185  1  0.770800  0.265500  0.496600  1.0
  C  C1186  1  0.229200  0.734500  0.996600  1.0
  C  C1187  1  0.791700  0.310800  0.497000  1.0
  C  C1188  1  0.208300  0.689200  0.997000  1.0
  C  C1189  1  0.714400  0.339200  0.473900  1.0
  C  C1190  1  0.285600  0.660800  0.973900  1.0
  C  C1191  1  0.779400  0.391100  0.489300  1.0
  C  C1192  1  0.220600  0.608900  0.989300  1.0
  C  C1193  1  0.784700  0.412000  0.517200  1.0
  C  C1194  1  0.215300  0.588000  0.017200  1.0
  C  C1195  1  0.804600  0.455500  0.519100  1.0
  C  C1196  1  0.195400  0.544500  0.019100  1.0
  C  C1197  1  0.819200  0.478100  0.493000  1.0
  C  C1198  1  0.180800  0.521900  0.993000  1.0
  C  C1199  1  0.813900  0.457200  0.465100  1.0
  C  C1200  1  0.186100  0.542800  0.965100  1.0
  C  C1201  1  0.794000  0.413700  0.463200  1.0
  C  C1202  1  0.206000  0.586300  0.963200  1.0
  C  C1203  1  0.816400  0.556800  0.490100  1.0
  C  C1204  1  0.183600  0.443200  0.990100  1.0
  C  C1205  1  0.840000  0.602200  0.491200  1.0
  C  C1206  1  0.160000  0.397800  0.991200  1.0
  C  C1207  1  0.818200  0.639300  0.478500  1.0
  C  C1208  1  0.181800  0.360700  0.978500  1.0
  C  C1209  1  0.846400  0.678100  0.474100  1.0
  C  C1210  1  0.153600  0.321900  0.974100  1.0
  C  C1211  1  0.895700  0.678100  0.481900  1.0
  C  C1212  1  0.104300  0.321900  0.981900  1.0
  C  C1213  1  0.916000  0.639300  0.493800  1.0
  C  C1214  1  0.084000  0.360700  0.993800  1.0
  C  C1215  1  0.370700  0.936300  0.522500  1.0
  C  C1216  1  0.629300  0.063700  0.022500  1.0
  C  C1217  1  0.320200  0.933600  0.518200  1.0
  C  C1218  1  0.679800  0.066400  0.018200  1.0
  C  C1219  1  0.301100  0.937000  0.489400  1.0
  C  C1220  1  0.698900  0.063000  0.989400  1.0
  C  C1221  1  0.333000  0.942900  0.465300  1.0
  C  C1222  1  0.667000  0.057100  0.965300  1.0
  C  C1223  1  0.382900  0.944000  0.470900  1.0
  C  C1224  1  0.617100  0.056000  0.970900  1.0
  C  C1225  1  0.419800  0.947900  0.447800  1.0
  C  C1226  1  0.580200  0.052100  0.947800  1.0
  C  C1227  1  0.501600  0.955700  0.429200  1.0
  C  C1228  1  0.498400  0.044300  0.929200  1.0
  C  C1229  1  0.507600  0.995500  0.412900  1.0
  C  C1230  1  0.492400  0.004500  0.912900  1.0
  C  C1231  1  0.546300  0.000300  0.392500  1.0
  C  C1232  1  0.453700  0.999700  0.892500  1.0
  C  C1233  1  0.579000  0.965300  0.388500  1.0
  C  C1234  1  0.421000  0.034700  0.888500  1.0
  C  C1235  1  0.573100  0.925500  0.404800  1.0
  C  C1236  1  0.426900  0.074500  0.904800  1.0
  C  C1237  1  0.534400  0.920700  0.425200  1.0
  C  C1238  1  0.465600  0.079300  0.925200  1.0
  C  C1239  1  0.660800  0.995700  0.377400  1.0
  C  C1240  1  0.339200  0.004300  0.877400  1.0
  C  C1241  1  0.617600  0.949500  0.338900  1.0
  C  C1242  1  0.382400  0.050500  0.838900  1.0
  C  C1243  1  0.661800  0.948900  0.321390  1.0
  C  C1244  1  0.338200  0.051100  0.821390  1.0
  C  C1245  1  0.661700  0.925500  0.294180  1.0
  C  C1246  1  0.338300  0.074500  0.794180  1.0
  C  C1247  1  0.703600  0.925800  0.276200  1.0
  C  C1248  1  0.296400  0.074200  0.776200  1.0
  C  C1249  1  0.745700  0.949500  0.285430  1.0
  C  C1250  1  0.254300  0.050500  0.785430  1.0
  C  C1251  1  0.745800  0.972870  0.312630  1.0
  C  C1252  1  0.254200  0.027130  0.812630  1.0
  C  C1253  1  0.703900  0.972570  0.330610  1.0
  C  C1254  1  0.296100  0.027430  0.830610  1.0
  C  C1255  1  0.704000  0.995900  0.357820  1.0
  C  C1256  1  0.296000  0.004100  0.857820  1.0
  C  C1257  1  0.746000  0.019600  0.367040  1.0
  C  C1258  1  0.254000  0.980400  0.867040  1.0
  C  C1259  1  0.787900  0.019900  0.349060  1.0
  C  C1260  1  0.212100  0.980100  0.849060  1.0
  C  C1261  1  0.787800  0.996500  0.321860  1.0
  C  C1262  1  0.212200  0.003500  0.821860  1.0
  C  C1263  1  0.834600  0.996200  0.304500  1.0
  C  C1264  1  0.165400  0.003800  0.804500  1.0
  C  C1265  1  0.789900  0.949200  0.265700  1.0
  C  C1266  1  0.210100  0.050800  0.765700  1.0
  C  C1267  1  0.873100  0.976200  0.255780  1.0
  C  C1268  1  0.126900  0.023800  0.755780  1.0
  C  C1269  1  0.908400  0.942900  0.254700  1.0
  C  C1270  1  0.091600  0.057100  0.754700  1.0
  C  C1271  1  0.948200  0.947400  0.235200  1.0
  C  C1272  1  0.051800  0.052600  0.735200  1.0
  C  C1273  1  0.952700  0.985100  0.216700  1.0
  C  C1274  1  0.047300  0.014900  0.716700  1.0
  C  C1275  1  0.917400  0.018500  0.217800  1.0
  C  C1276  1  0.082600  0.981500  0.717800  1.0
  C  C1277  1  0.877600  0.014000  0.237300  1.0
  C  C1278  1  0.122400  0.986000  0.737300  1.0
  C  C1279  1  0.987600  0.981400  0.168400  1.0
  C  C1280  1  0.012400  0.018600  0.668400  1.0
  C  C1281  1  0.027300  0.990600  0.147600  1.0
  C  C1282  1  0.972700  0.009400  0.647600  1.0
  C  C1283  1  0.025100  0.976300  0.118000  1.0
  C  C1284  1  0.974900  0.023700  0.618000  1.0
  C  C1285  1  0.066100  0.982700  0.099880  1.0
  C  C1286  1  0.933900  0.017300  0.599880  1.0
  C  C1287  1  0.108200  0.002100  0.112200  1.0
  C  C1288  1  0.891800  0.997900  0.612200  1.0
  C  C1289  1  0.108700  0.014600  0.142300  1.0
  C  C1290  1  0.891300  0.985400  0.642300  1.0
  C  C1291  1  0.421000  0.396700  0.082600  1.0
  C  C1292  1  0.579000  0.603300  0.582600  1.0
  C  C1293  1  0.433400  0.393700  0.052300  1.0
  C  C1294  1  0.566600  0.606300  0.552300  1.0
  C  C1295  1  0.480700  0.404900  0.043100  1.0
  C  C1296  1  0.519300  0.595100  0.543100  1.0
  C  C1297  1  0.515000  0.418600  0.064500  1.0
  C  C1298  1  0.485000  0.581400  0.564500  1.0
  C  C1299  1  0.500900  0.419700  0.094400  1.0
  C  C1300  1  0.499100  0.580300  0.594400  1.0
  C  C1301  1  0.534000  0.422900  0.120000  1.0
  C  C1302  1  0.466000  0.577100  0.620000  1.0
  C  C1303  1  0.558800  0.434100  0.168300  1.0
  C  C1304  1  0.441200  0.565900  0.668300  1.0
  C  C1305  1  0.559200  0.473200  0.185700  1.0
  C  C1306  1  0.440800  0.526800  0.685700  1.0
  C  C1307  1  0.592200  0.477800  0.209500  1.0
  C  C1308  1  0.407800  0.522200  0.709500  1.0
  C  C1309  1  0.624800  0.443500  0.215900  1.0
  C  C1310  1  0.375200  0.556500  0.715900  1.0
  C  C1311  1  0.624400  0.404500  0.198400  1.0
  C  C1312  1  0.375600  0.595500  0.698400  1.0
  C  C1313  1  0.591400  0.399800  0.174600  1.0
  C  C1314  1  0.408600  0.600200  0.674600  1.0
  C  C1315  1  0.700500  0.478400  0.235100  1.0
  C  C1316  1  0.299500  0.521600  0.735100  1.0
  C  C1317  1  0.651500  0.425900  0.267300  1.0
  C  C1318  1  0.348500  0.574100  0.767300  1.0
  C  C1319  1  0.685800  0.434500  0.292100  1.0
  C  C1320  1  0.314200  0.565500  0.792100  1.0
  C  C1321  1  0.678500  0.412300  0.319400  1.0
  C  C1322  1  0.321500  0.587700  0.819400  1.0
  C  C1323  1  0.712200  0.418400  0.342800  1.0
  C  C1324  1  0.287800  0.581600  0.842800  1.0
  C  C1325  1  0.753100  0.446800  0.338800  1.0
  C  C1326  1  0.246900  0.553200  0.838800  1.0
  C  C1327  1  0.760300  0.469000  0.311470  1.0
  C  C1328  1  0.239700  0.531000  0.811470  1.0
  C  C1329  1  0.726700  0.462800  0.288130  1.0
  C  C1330  1  0.273300  0.537200  0.788130  1.0
  C  C1331  1  0.733900  0.485000  0.260800  1.0
  C  C1332  1  0.266100  0.515000  0.760800  1.0
  C  C1333  1  0.774800  0.513400  0.256800  1.0
  C  C1334  1  0.225200  0.486600  0.756800  1.0
  C  C1335  1  0.808500  0.519500  0.280200  1.0
  C  C1336  1  0.191500  0.480500  0.780200  1.0
  C  C1337  1  0.801200  0.497300  0.307500  1.0
  C  C1338  1  0.198800  0.502700  0.807500  1.0
  C  C1339  1  0.837300  0.504400  0.331500  1.0
  C  C1340  1  0.162700  0.495600  0.831500  1.0
  C  C1341  1  0.784800  0.456300  0.365900  1.0
  C  C1342  1  0.215200  0.543700  0.865900  1.0
  C  C1343  1  0.858700  0.495600  0.384200  1.0
  C  C1344  1  0.141300  0.504400  0.884200  1.0
  C  C1345  1  0.853800  0.538100  0.397100  1.0
  C  C1346  1  0.146200  0.461900  0.897100  1.0
  C  C1347  1  0.882800  0.550700  0.421600  1.0
  C  C1348  1  0.117200  0.449300  0.921600  1.0
  C  C1349  1  0.916700  0.520800  0.433300  1.0
  C  C1350  1  0.083300  0.479200  0.933300  1.0
  C  C1351  1  0.921600  0.478300  0.420500  1.0
  C  C1352  1  0.078400  0.521700  0.920500  1.0
  C  C1353  1  0.892600  0.465700  0.395900  1.0
  C  C1354  1  0.107400  0.534300  0.895900  1.0
  C  C1355  1  0.991200  0.539200  0.458000  1.0
  C  C1356  1  0.008800  0.460800  0.958000  1.0
  C  C1357  1  0.017000  0.558900  0.483900  1.0
  C  C1358  1  0.983000  0.441100  0.983900  1.0
  C  C1359  1  0.065000  0.574500  0.481600  1.0
  C  C1360  1  0.935000  0.425500  0.981600  1.0
  C  C1361  1  0.088300  0.590800  0.507300  1.0
  C  C1362  1  0.911700  0.409200  0.007300  1.0
  C  C1363  1  0.063100  0.589800  0.534400  1.0
  C  C1364  1  0.936900  0.410200  0.034400  1.0
  C  C1365  1  0.015400  0.572500  0.535470  1.0
  C  C1366  1  0.984600  0.427500  0.035470  1.0
  C  C1367  1  0.886500  0.567500  0.570500  1.0
  C  C1368  1  0.113500  0.432500  0.070500  1.0
  C  C1369  1  0.875400  0.559800  0.600600  1.0
  C  C1370  1  0.124600  0.440200  0.100600  1.0
  C  C1371  1  0.880900  0.517100  0.612600  1.0
  C  C1372  1  0.119100  0.482900  0.112600  1.0
  C  C1373  1  0.897600  0.482800  0.594300  1.0
  C  C1374  1  0.102400  0.517200  0.094300  1.0
  C  C1375  1  0.909400  0.492900  0.564700  1.0
  C  C1376  1  0.090600  0.507100  0.064700  1.0
  C  C1377  1  0.927300  0.458300  0.544000  1.0
  C  C1378  1  0.072700  0.541700  0.044000  1.0
  C  C1379  1  0.948100  0.431500  0.496800  1.0
  C  C1380  1  0.051900  0.568500  0.996800  1.0
  C  C1381  1  0.992500  0.431500  0.481200  1.0
  C  C1382  1  0.007500  0.568500  0.981200  1.0
  C  C1383  1  0.003000  0.396300  0.461600  1.0
  C  C1384  1  0.997000  0.603700  0.961600  1.0
  C  C1385  1  0.969100  0.361100  0.457600  1.0
  C  C1386  1  0.030900  0.638900  0.957600  1.0
  C  C1387  1  0.924600  0.361100  0.473200  1.0
  C  C1388  1  0.075400  0.638900  0.973200  1.0
  C  C1389  1  0.914100  0.396300  0.492700  1.0
  C  C1390  1  0.085900  0.603700  0.992700  1.0
  C  C1391  1  0.989900  0.282700  0.448900  1.0
  C  C1392  1  0.010100  0.717300  0.948900  1.0
  C  C1393  1  0.963800  0.334900  0.405400  1.0
  C  C1394  1  0.036200  0.665100  0.905400  1.0
  C  C1395  1  0.968500  0.294700  0.385590  1.0
  C  C1396  1  0.031500  0.705300  0.885590  1.0
  C  C1397  1  0.958700  0.301400  0.355100  1.0
  C  C1398  1  0.041300  0.698600  0.855100  1.0
  C  C1399  1  0.961000  0.265400  0.335100  1.0
  C  C1400  1  0.039000  0.734600  0.835100  1.0
  C  C1401  1  0.973200  0.222800  0.345480  1.0
  C  C1402  1  0.026800  0.777200  0.845480  1.0
  C  C1403  1  0.983000  0.216100  0.375930  1.0
  C  C1404  1  0.017000  0.783900  0.875930  1.0
  C  C1405  1  0.980600  0.252100  0.395980  1.0
  C  C1406  1  0.019400  0.747900  0.895980  1.0
  C  C1407  1  0.990400  0.245400  0.426430  1.0
  C  C1408  1  0.009600  0.754600  0.926430  1.0
  C  C1409  1  0.002600  0.202800  0.436810  1.0
  C  C1410  1  0.997400  0.797200  0.936810  1.0
  C  C1411  1  0.004900  0.166800  0.416760  1.0
  C  C1412  1  0.995100  0.833200  0.916760  1.0
  C  C1413  1  0.995100  0.173400  0.386320  1.0
  C  C1414  1  0.004900  0.826600  0.886320  1.0
  C  C1415  1  0.001900  0.134800  0.367000  1.0
  C  C1416  1  0.998100  0.865200  0.867000  1.0
  C  C1417  1  0.980400  0.185700  0.323300  1.0
  C  C1418  1  0.019600  0.814300  0.823300  1.0
  C  C1419  1  0.008500  0.110600  0.313900  1.0
  C  C1420  1  0.991500  0.889400  0.813900  1.0
  C  C1421  1  0.056000  0.112400  0.302100  1.0
  C  C1422  1  0.944000  0.887600  0.802100  1.0
  C  C1423  1  0.071300  0.079100  0.282300  1.0
  C  C1424  1  0.928700  0.920900  0.782300  1.0
  C  C1425  1  0.039300  0.044000  0.274300  1.0
  C  C1426  1  0.960700  0.956000  0.774300  1.0
  C  C1427  1  0.991900  0.042100  0.286100  1.0
  C  C1428  1  0.008100  0.957900  0.786100  1.0
  C  C1429  1  0.976500  0.075400  0.305900  1.0
  C  C1430  1  0.023500  0.924600  0.805900  1.0
  C  C1431  1  0.065800  0.968900  0.265300  1.0
  C  C1432  1  0.934200  0.031100  0.765300  1.0
  C  C1433  1  0.084500  0.936100  0.243900  1.0
  C  C1434  1  0.915500  0.063900  0.743900  1.0
  C  C1435  1  0.097500  0.894100  0.254300  1.0
  C  C1436  1  0.902500  0.105900  0.754300  1.0
  C  C1437  1  0.116100  0.863300  0.234100  1.0
  C  C1438  1  0.883900  0.136700  0.734100  1.0
  C  C1439  1  0.122000  0.875900  0.204200  1.0
  C  C1440  1  0.878000  0.124100  0.704200  1.0
  C  C1441  1  0.109600  0.919000  0.195190  1.0
  C  C1442  1  0.890400  0.081000  0.695190  1.0
  C  C1443  1  0.182900  0.028000  0.219000  1.0
  C  C1444  1  0.817100  0.972000  0.719000  1.0
  C  C1445  1  0.225100  0.053300  0.225300  1.0
  C  C1446  1  0.774900  0.946700  0.725300  1.0
  C  C1447  1  0.223500  0.099900  0.225000  1.0
  C  C1448  1  0.776500  0.900100  0.725000  1.0
  C  C1449  1  0.179300  0.120500  0.218600  1.0
  C  C1450  1  0.820700  0.879500  0.718600  1.0
  C  C1451  1  0.138200  0.093600  0.213400  1.0
  C  C1452  1  0.861800  0.906400  0.713400  1.0
  C  C1453  1  0.088400  0.111900  0.207400  1.0
  C  C1454  1  0.911600  0.888100  0.707400  1.0
  C  C1455  1  0.004600  0.107200  0.200300  1.0
  C  C1456  1  0.995400  0.892800  0.700300  1.0
  C  C1457  1  0.978600  0.102100  0.173500  1.0
  C  C1458  1  0.021400  0.897900  0.673500  1.0
  C  C1459  1  0.932900  0.121800  0.170200  1.0
  C  C1460  1  0.067100  0.878200  0.670200  1.0
  C  C1461  1  0.913100  0.146600  0.193700  1.0
  C  C1462  1  0.086900  0.853400  0.693700  1.0
  C  C1463  1  0.939000  0.151700  0.220600  1.0
  C  C1464  1  0.061000  0.848300  0.720600  1.0
  C  C1465  1  0.984800  0.132000  0.223900  1.0
  C  C1466  1  0.015200  0.868000  0.723900  1.0
  C  C1467  1  0.825800  0.137200  0.197900  1.0
  C  C1468  1  0.174200  0.862800  0.697900  1.0
  C  C1469  1  0.863300  0.209400  0.179500  1.0
  C  C1470  1  0.136700  0.790600  0.679500  1.0
  C  C1471  1  0.812900  0.227300  0.176900  1.0
  C  C1472  1  0.187100  0.772700  0.676900  1.0
  C  C1473  1  0.808500  0.270800  0.165600  1.0
  C  C1474  1  0.191500  0.729200  0.665600  1.0
  C  C1475  1  0.762200  0.288700  0.160900  1.0
  C  C1476  1  0.237800  0.711300  0.660900  1.0
  C  C1477  1  0.720200  0.263000  0.167600  1.0
  C  C1478  1  0.279800  0.737000  0.667600  1.0
  C  C1479  1  0.724600  0.219500  0.178970  1.0
  C  C1480  1  0.275400  0.780500  0.678970  1.0
  C  C1481  1  0.770900  0.201700  0.183620  1.0
  C  C1482  1  0.229100  0.798300  0.683620  1.0
  C  C1483  1  0.775300  0.158200  0.195000  1.0
  C  C1484  1  0.224700  0.841800  0.695000  1.0
  C  C1485  1  0.733300  0.132500  0.201700  1.0
  C  C1486  1  0.266700  0.867500  0.701700  1.0
  C  C1487  1  0.687000  0.150400  0.197000  1.0
  C  C1488  1  0.313000  0.849600  0.697000  1.0
  C  C1489  1  0.682600  0.193900  0.185700  1.0
  C  C1490  1  0.317400  0.806100  0.685700  1.0
  C  C1491  1  0.633100  0.211400  0.181400  1.0
  C  C1492  1  0.366900  0.788600  0.681400  1.0
  C  C1493  1  0.671700  0.284400  0.164900  1.0
  C  C1494  1  0.328300  0.715600  0.664900  1.0
  C  C1495  1  0.582400  0.274500  0.167300  1.0
  C  C1496  1  0.417600  0.725500  0.667300  1.0
  C  C1497  1  0.567200  0.286900  0.138600  1.0
  C  C1498  1  0.432800  0.713100  0.638600  1.0
  C  C1499  1  0.522100  0.307500  0.134650  1.0
  C  C1500  1  0.477900  0.692500  0.634650  1.0
  C  C1501  1  0.492200  0.315700  0.159400  1.0
  C  C1502  1  0.507800  0.684300  0.659400  1.0
  C  C1503  1  0.507400  0.303300  0.188200  1.0
  C  C1504  1  0.492600  0.696700  0.688200  1.0
  C  C1505  1  0.552500  0.282600  0.192090  1.0
  C  C1506  1  0.447500  0.717400  0.692090  1.0
  C  C1507  1  0.407900  0.322100  0.154650  1.0
  C  C1508  1  0.592100  0.677900  0.654650  1.0
  C  C1509  1  0.328900  0.420600  0.148670  1.0
  C  C1510  1  0.671100  0.579400  0.648670  1.0
  C  C1511  1  0.281800  0.402000  0.150700  1.0
  C  C1512  1  0.718200  0.598000  0.650700  1.0
  C  C1513  1  0.275600  0.355600  0.153100  1.0
  C  C1514  1  0.724400  0.644400  0.653100  1.0
  C  C1515  1  0.316800  0.328800  0.153600  1.0
  C  C1516  1  0.683200  0.671200  0.653600  1.0
  C  C1517  1  0.362700  0.349400  0.152340  1.0
  C  C1518  1  0.637300  0.650600  0.652340  1.0
  C  C1519  1  0.494700  0.930800  0.569620  1.0
  C  C1520  1  0.505300  0.069200  0.069620  1.0
  C  C1521  1  0.495200  0.942100  0.599960  1.0
  C  C1522  1  0.504800  0.057900  0.099960  1.0
  C  C1523  1  0.485200  0.985900  0.608650  1.0
  C  C1524  1  0.514800  0.014100  0.108650  1.0
  C  C1525  1  0.474700  0.017500  0.586740  1.0
  C  C1526  1  0.525300  0.982500  0.086740  1.0
  C  C1527  1  0.473400  0.004000  0.556980  1.0
  C  C1528  1  0.526600  0.996000  0.056980  1.0
  C  C1529  1  0.466200  0.037600  0.533500  1.0
  C  C1530  1  0.533800  0.962400  0.033500  1.0
  C  C1531  1  0.460500  0.055100  0.482100  1.0
  C  C1532  1  0.539500  0.944900  0.982100  1.0
  C  C1533  1  0.415600  0.060100  0.467500  1.0
  C  C1534  1  0.584400  0.939900  0.967500  1.0
  C  C1535  1  0.411500  0.090600  0.443900  1.0
  C  C1536  1  0.588500  0.909400  0.943900  1.0
  C  C1537  1  0.452200  0.116300  0.434800  1.0
  C  C1538  1  0.547800  0.883700  0.934800  1.0
  C  C1539  1  0.497200  0.111300  0.449300  1.0
  C  C1540  1  0.502800  0.888700  0.949300  1.0
  C  C1541  1  0.501300  0.080800  0.473000  1.0
  C  C1542  1  0.498700  0.919200  0.973000  1.0
  C  C1543  1  0.464500  0.131400  0.382300  1.0
  C  C1544  1  0.535500  0.868600  0.882300  1.0
  C  C1545  1  0.430600  0.189100  0.415700  1.0
  C  C1546  1  0.569400  0.810900  0.915700  1.0
  C  C1547  1  0.436100  0.222900  0.390900  1.0
  C  C1548  1  0.563900  0.777100  0.890900  1.0
  C  C1549  1  0.420400  0.266500  0.396430  1.0
  C  C1550  1  0.579600  0.733500  0.896430  1.0
  C  C1551  1  0.423500  0.299000  0.373800  1.0
  C  C1552  1  0.576500  0.701000  0.873800  1.0
  C  C1553  1  0.442300  0.287800  0.345700  1.0
  C  C1554  1  0.557700  0.712200  0.845700  1.0
  C  C1555  1  0.458000  0.244200  0.340130  1.0
  C  C1556  1  0.542000  0.755800  0.840130  1.0
  C  C1557  1  0.454900  0.211700  0.362740  1.0
  C  C1558  1  0.545100  0.788300  0.862740  1.0
  C  C1559  1  0.470500  0.168100  0.357200  1.0
  C  C1560  1  0.529500  0.831900  0.857200  1.0
  C  C1561  1  0.489300  0.156900  0.329100  1.0
  C  C1562  1  0.510700  0.843100  0.829100  1.0
  C  C1563  1  0.492400  0.189300  0.306450  1.0
  C  C1564  1  0.507600  0.810700  0.806450  1.0
  C  C1565  1  0.476700  0.233000  0.311980  1.0
  C  C1566  1  0.523300  0.767000  0.811980  1.0
  C  C1567  1  0.480200  0.264400  0.286800  1.0
  C  C1568  1  0.519800  0.735600  0.786800  1.0
  C  C1569  1  0.442600  0.320800  0.321900  1.0
  C  C1570  1  0.557400  0.679200  0.821900  1.0
  C  C1571  1  0.457600  0.337700  0.268400  1.0
  C  C1572  1  0.542400  0.662300  0.768400  1.0
  C  C1573  1  0.414700  0.338800  0.251300  1.0
  C  C1574  1  0.585300  0.661200  0.751300  1.0
  C  C1575  1  0.410200  0.370500  0.228400  1.0
  C  C1576  1  0.589800  0.629500  0.728400  1.0
  C  C1577  1  0.448500  0.400900  0.222500  1.0
  C  C1578  1  0.551500  0.599100  0.722500  1.0
  C  C1579  1  0.491400  0.399800  0.239500  1.0
  C  C1580  1  0.508600  0.600200  0.739500  1.0
  C  C1581  1  0.496000  0.368100  0.262500  1.0
  C  C1582  1  0.504000  0.631900  0.762500  1.0
  C  C1583  1  0.436000  0.469500  0.202100  1.0
  C  C1584  1  0.564000  0.530500  0.702100  1.0
  C  C1585  1  0.418500  0.509700  0.124700  1.0
  C  C1586  1  0.581500  0.490300  0.624700  1.0
  C  C1587  1  0.411200  0.555500  0.128500  1.0
  C  C1588  1  0.588800  0.444500  0.628500  1.0
  C  C1589  1  0.410300  0.573700  0.157300  1.0
  C  C1590  1  0.589700  0.426300  0.657300  1.0
  C  C1591  1  0.417000  0.545500  0.181800  1.0
  C  C1592  1  0.583000  0.454500  0.681800  1.0
  C  C1593  1  0.425500  0.500400  0.176600  1.0
  C  C1594  1  0.574500  0.499600  0.676600  1.0
  C  C1595  1  0.235900  0.134200  0.845600  1.0
  C  C1596  1  0.764100  0.865800  0.345600  1.0
  C  C1597  1  0.206900  0.108000  0.864800  1.0
  C  C1598  1  0.793100  0.892000  0.364800  1.0
  C  C1599  1  0.157500  0.099800  0.858100  1.0
  C  C1600  1  0.842500  0.900200  0.358100  1.0
  C  C1601  1  0.137200  0.117800  0.832000  1.0
  C  C1602  1  0.862800  0.882200  0.332000  1.0
  C  C1603  1  0.166300  0.144000  0.812800  1.0
  C  C1604  1  0.833700  0.856000  0.312800  1.0
  C  C1605  1  0.215600  0.152200  0.819500  1.0
  C  C1606  1  0.784400  0.847800  0.319500  1.0
  C  C1607  1  0.723900  0.262200  0.256600  1.0
  C  C1608  1  0.276100  0.737800  0.756600  1.0
  C  C1609  1  0.711300  0.218100  0.264500  1.0
  C  C1610  1  0.288700  0.781900  0.764500  1.0
  C  C1611  1  0.662100  0.205400  0.268100  1.0
  C  C1612  1  0.337900  0.794600  0.768100  1.0
  C  C1613  1  0.625500  0.237000  0.263700  1.0
  C  C1614  1  0.374500  0.763000  0.763700  1.0
  C  C1615  1  0.638100  0.281100  0.255800  1.0
  C  C1616  1  0.361900  0.718900  0.755800  1.0
  C  C1617  1  0.687300  0.293700  0.252200  1.0
  C  C1618  1  0.312700  0.706300  0.752200  1.0
  C  C1619  1  0.373800  0.679100  0.557300  1.0
  C  C1620  1  0.626200  0.320900  0.057300  1.0
  C  C1621  1  0.394500  0.672800  0.528900  1.0
  C  C1622  1  0.605500  0.327200  0.028900  1.0
  C  C1623  1  0.389200  0.705400  0.506700  1.0
  C  C1624  1  0.610800  0.294600  0.006700  1.0
  C  C1625  1  0.363200  0.744300  0.512800  1.0
  C  C1626  1  0.636800  0.255700  0.012800  1.0
  C  C1627  1  0.342500  0.750600  0.541100  1.0
  C  C1628  1  0.657500  0.249400  0.041100  1.0
  C  C1629  1  0.347800  0.718000  0.563400  1.0
  C  C1630  1  0.652200  0.282000  0.063400  1.0
  C  C1631  1  0.558700  0.096700  0.249900  1.0
  C  C1632  1  0.441300  0.903300  0.749900  1.0
  C  C1633  1  0.513500  0.085000  0.262800  1.0
  C  C1634  1  0.486500  0.915000  0.762800  1.0
  C  C1635  1  0.511000  0.052700  0.285500  1.0
  C  C1636  1  0.489000  0.947300  0.785500  1.0
  C  C1637  1  0.553600  0.032000  0.295300  1.0
  C  C1638  1  0.446400  0.968000  0.795300  1.0
  C  C1639  1  0.598700  0.043600  0.282500  1.0
  C  C1640  1  0.401300  0.956400  0.782500  1.0
  C  C1641  1  0.601300  0.076000  0.259800  1.0
  C  C1642  1  0.398700  0.924000  0.759800  1.0
  C  C1643  1  0.800400  0.387100  0.272200  1.0
  C  C1644  1  0.199600  0.612900  0.772200  1.0
  C  C1645  1  0.844400  0.411300  0.268600  1.0
  C  C1646  1  0.155600  0.588700  0.768600  1.0
  C  C1647  1  0.878600  0.413000  0.291900  1.0
  C  C1648  1  0.121400  0.587000  0.791900  1.0
  C  C1649  1  0.868800  0.390500  0.318800  1.0
  C  C1650  1  0.131200  0.609500  0.818800  1.0
  C  C1651  1  0.824900  0.366300  0.322400  1.0
  C  C1652  1  0.175100  0.633700  0.822400  1.0
  C  C1653  1  0.790700  0.364700  0.299100  1.0
  C  C1654  1  0.209300  0.635300  0.799100  1.0
  C  C1655  1  0.136600  0.271600  0.667200  1.0
  C  C1656  1  0.863400  0.728400  0.167200  1.0
  C  C1657  1  0.171900  0.305100  0.672900  1.0
  C  C1658  1  0.828100  0.694900  0.172900  1.0
  C  C1659  1  0.221600  0.295600  0.670300  1.0
  C  C1660  1  0.778400  0.704400  0.170300  1.0
  C  C1661  1  0.236000  0.252500  0.662000  1.0
  C  C1662  1  0.764000  0.747500  0.162000  1.0
  C  C1663  1  0.200700  0.219000  0.656300  1.0
  C  C1664  1  0.799300  0.781000  0.156300  1.0
  C  C1665  1  0.151000  0.228600  0.658800  1.0
  C  C1666  1  0.849000  0.771400  0.158800  1.0
  C  C1667  1  0.605100  0.112700  0.358800  1.0
  C  C1668  1  0.394900  0.887300  0.858800  1.0
  C  C1669  1  0.599900  0.126100  0.388600  1.0
  C  C1670  1  0.400100  0.873900  0.888600  1.0
  C  C1671  1  0.590500  0.171000  0.395300  1.0
  C  C1672  1  0.409500  0.829000  0.895300  1.0
  C  C1673  1  0.586400  0.202400  0.372200  1.0
  C  C1674  1  0.413600  0.797600  0.872200  1.0
  C  C1675  1  0.591700  0.189000  0.342400  1.0
  C  C1676  1  0.408300  0.811000  0.842400  1.0
  C  C1677  1  0.601100  0.144100  0.335600  1.0
  C  C1678  1  0.398900  0.855900  0.835600  1.0
  C  C1679  1  0.740800  0.111800  0.324900  1.0
  C  C1680  1  0.259200  0.888200  0.824900  1.0
  C  C1681  1  0.735400  0.092600  0.296500  1.0
  C  C1682  1  0.264600  0.907400  0.796500  1.0
  C  C1683  1  0.775600  0.090500  0.277100  1.0
  C  C1684  1  0.224400  0.909500  0.777100  1.0
  C  C1685  1  0.821200  0.107600  0.286300  1.0
  C  C1686  1  0.178800  0.892400  0.786300  1.0
  C  C1687  1  0.826600  0.126700  0.314800  1.0
  C  C1688  1  0.173400  0.873300  0.814800  1.0
  C  C1689  1  0.786400  0.128800  0.334100  1.0
  C  C1690  1  0.213600  0.871200  0.834100  1.0
  C  C1691  1  0.117100  0.956300  0.353400  1.0
  C  C1692  1  0.882900  0.043700  0.853400  1.0
  C  C1693  1  0.100400  0.002000  0.345400  1.0
  C  C1694  1  0.899600  0.998000  0.845400  1.0
  C  C1695  1  0.002000  0.610800  0.641500  1.0
  C  C1696  1  0.998000  0.389200  0.141500  1.0
  C  C1697  1  0.007000  0.660500  0.642600  1.0
  C  C1698  1  0.993000  0.339500  0.142600  1.0
  C  C1699  1  0.399900  0.307700  0.672700  1.0
  C  C1700  1  0.600100  0.692300  0.172700  1.0
  C  C1701  1  0.443200  0.336200  0.678700  1.0
  C  C1702  1  0.556800  0.663800  0.178700  1.0
  C  C1703  1  0.726800  0.587500  0.182900  1.0
  C  C1704  1  0.273200  0.412500  0.682900  1.0
  C  C1705  1  0.676900  0.576500  0.175800  1.0
  C  C1706  1  0.323100  0.423500  0.675800  1.0
  C  C1707  1  0.110000  0.326300  0.365400  0.6
  C  C1708  1  0.890000  0.673700  0.865400  0.6
  C  C1709  1  0.182200  0.171400  0.341800  0.6
  C  C1710  1  0.817800  0.828600  0.841800  0.6
  C  C1711  1  0.179200  0.821300  0.586300  0.7
  C  C1712  1  0.820800  0.178700  0.086300  0.7
  C  C1713  1  0.342800  0.897900  0.614500  0.7
  C  C1714  1  0.657200  0.102100  0.114500  0.7
  S  S1715  1  0.132600  0.202600  0.362600  0.6
  S  S1716  1  0.867400  0.797400  0.862600  0.6
  S  S1717  1  0.166100  0.295200  0.357900  0.6
  S  S1718  1  0.833900  0.704800  0.857900  0.6
  S  S1719  1  0.213600  0.868400  0.602500  0.7
  S  S1720  1  0.786400  0.131600  0.102500  0.7
  S  S1721  1  0.314500  0.845500  0.600000  0.7
  S  S1722  1  0.685500  0.154500  0.100000  0.7
  N  N1723  1  0.260600  0.849900  0.618200  0.7
  N  N1724  1  0.739400  0.150100  0.118200  0.7
  N  N1725  1  0.429900  0.464400  0.395700  1.0
  N  N1726  1  0.570100  0.535600  0.895700  1.0
  N  N1727  1  0.576000  0.069400  0.694400  1.0
  N  N1728  1  0.424000  0.930600  0.194400  1.0
  N  N1729  1  0.466200  0.332100  0.484400  1.0
  N  N1730  1  0.533800  0.667900  0.984400  1.0
  N  N1731  1  0.504500  0.178300  0.601000  1.0
  N  N1732  1  0.495500  0.821700  0.101000  1.0
  N  N1733  1  0.338800  0.524500  0.415100  1.0
  N  N1734  1  0.661200  0.475500  0.915100  1.0
  N  N1735  1  0.075200  0.956800  0.445200  1.0
  N  N1736  1  0.924800  0.043200  0.945200  1.0
  N  N1737  1  0.250100  0.354000  0.431500  1.0
  N  N1738  1  0.749900  0.646000  0.931500  1.0
  N  N1739  1  0.158600  0.131900  0.445300  1.0
  N  N1740  1  0.841400  0.868100  0.945300  1.0
  N  N1741  1  0.443300  0.535300  0.448700  1.0
  N  N1742  1  0.556700  0.464700  0.948700  1.0
  N  N1743  1  0.017000  0.485600  0.766200  1.0
  N  N1744  1  0.983000  0.514400  0.266200  1.0
  N  N1745  1  0.325000  0.514700  0.552000  1.0
  N  N1746  1  0.675000  0.485300  0.052000  1.0
  N  N1747  1  0.154400  0.500000  0.671500  1.0
  N  N1748  1  0.845600  0.500000  0.171500  1.0
  N  N1749  1  0.948300  0.389300  0.756700  1.0
  N  N1750  1  0.051700  0.610700  0.256700  1.0
  N  N1751  1  0.565500  0.158100  0.734200  1.0
  N  N1752  1  0.434500  0.841900  0.234200  1.0
  N  N1753  1  0.134100  0.308800  0.750500  1.0
  N  N1754  1  0.865900  0.691200  0.250500  1.0
  N  N1755  1  0.376000  0.229100  0.739000  1.0
  N  N1756  1  0.624000  0.770900  0.239000  1.0
  N  N1757  1  0.996700  0.947500  0.499400  1.0
  N  N1758  1  0.003300  0.052500  0.999400  1.0
  N  N1759  1  0.512400  0.064900  0.753800  1.0
  N  N1760  1  0.487600  0.935100  0.253800  1.0
  N  N1761  1  0.153000  0.993800  0.578900  1.0
  N  N1762  1  0.847000  0.006200  0.078900  1.0
  N  N1763  1  0.354000  0.020700  0.676200  1.0
  N  N1764  1  0.646000  0.979300  0.176200  1.0
  N  N1765  1  0.971000  0.009700  0.446100  1.0
  N  N1766  1  0.029000  0.990300  0.946100  1.0
  N  N1767  1  0.939800  0.474400  0.713000  1.0
  N  N1768  1  0.060200  0.525600  0.213000  1.0
  N  N1769  1  0.957400  0.146200  0.534100  1.0
  N  N1770  1  0.042600  0.853800  0.034100  1.0
  N  N1771  1  0.966600  0.337100  0.627000  1.0
  N  N1772  1  0.033400  0.662900  0.127000  1.0
  N  N1773  1  0.559800  0.960600  0.498500  1.0
  N  N1774  1  0.440200  0.039400  0.998500  1.0
  N  N1775  1  0.842300  0.522000  0.495500  1.0
  N  N1776  1  0.157700  0.478000  0.995500  1.0
  N  N1777  1  0.761600  0.345900  0.487800  1.0
  N  N1778  1  0.238400  0.654100  0.987800  1.0
  N  N1779  1  0.664100  0.126400  0.488500  1.0
  N  N1780  1  0.335900  0.873600  0.988500  1.0
  N  N1781  1  0.467200  0.953800  0.453600  1.0
  N  N1782  1  0.532800  0.046200  0.953600  1.0
  N  N1783  1  0.993800  0.990700  0.196200  1.0
  N  N1784  1  0.006200  0.009300  0.696200  1.0
  N  N1785  1  0.830700  0.973100  0.276700  1.0
  N  N1786  1  0.169300  0.026900  0.776700  1.0
  N  N1787  1  0.619400  0.969900  0.367100  1.0
  N  N1788  1  0.380600  0.030100  0.867100  1.0
  N  N1789  1  0.519900  0.429000  0.146300  1.0
  N  N1790  1  0.480100  0.571000  0.646300  1.0
  N  N1791  1  0.945500  0.532100  0.459600  1.0
  N  N1792  1  0.054500  0.467900  0.959600  1.0
  N  N1793  1  0.826400  0.484300  0.359800  1.0
  N  N1794  1  0.173600  0.515700  0.859800  1.0
  N  N1795  1  0.661600  0.448800  0.240000  1.0
  N  N1796  1  0.338400  0.551200  0.740000  1.0
  N  N1797  1  0.937100  0.468500  0.515500  1.0
  N  N1798  1  0.062900  0.531500  0.015500  1.0
  N  N1799  1  0.056200  0.008500  0.255600  1.0
  N  N1800  1  0.943800  0.991500  0.755600  1.0
  N  N1801  1  0.994200  0.143600  0.336000  1.0
  N  N1802  1  0.005800  0.856400  0.836000  1.0
  N  N1803  1  0.975700  0.326500  0.436000  1.0
  N  N1804  1  0.024300  0.673500  0.936000  1.0
  N  N1805  1  0.051400  0.085400  0.204300  1.0
  N  N1806  1  0.948600  0.914600  0.704300  1.0
  N  N1807  1  0.630900  0.254900  0.169700  1.0
  N  N1808  1  0.369100  0.745100  0.669700  1.0
  N  N1809  1  0.865600  0.165500  0.190000  1.0
  N  N1810  1  0.134400  0.834500  0.690000  1.0
  N  N1811  1  0.464700  0.023400  0.506000  1.0
  N  N1812  1  0.535300  0.976600  0.006000  1.0
  N  N1813  1  0.459700  0.306100  0.293100  1.0
  N  N1814  1  0.540300  0.693900  0.793100  1.0
  N  N1815  1  0.450000  0.147000  0.410100  1.0
  N  N1816  1  0.550000  0.853000  0.910100  1.0
  N  N1817  1  0.400800  0.527400  0.356600  1.0
  N  N1818  1  0.599200  0.472600  0.856600  1.0
  N  N1819  1  0.609900  0.019900  0.740600  1.0
  N  N1820  1  0.390100  0.980100  0.240600  1.0
  N  N1821  1  0.391200  0.600800  0.407400  1.0
  N  N1822  1  0.608800  0.399200  0.907400  1.0
  N  N1823  1  0.028400  0.877800  0.450300  1.0
  N  N1824  1  0.971600  0.122200  0.950300  1.0
  N  N1825  1  0.492200  0.550380  0.397900  1.0
  N  N1826  1  0.507800  0.449620  0.897900  1.0
  N  N1827  1  0.948200  0.456100  0.806880  1.0
  N  N1828  1  0.051800  0.543900  0.306880  1.0
  N  N1829  1  0.864600  0.436700  0.758480  1.0
  N  N1830  1  0.135400  0.563300  0.258480  1.0
  N  N1831  1  0.655000  0.120500  0.731630  1.0
  N  N1832  1  0.345000  0.879500  0.231630  1.0
  N  N1833  1  0.924600  0.920600  0.462100  1.0
  N  N1834  1  0.075400  0.079400  0.962100  1.0
  N  N1835  1  0.588400  0.095800  0.788300  1.0
  N  N1836  1  0.411600  0.904200  0.288300  1.0
  N  N1837  1  0.986100  0.946100  0.404290  1.0
  N  N1838  1  0.013900  0.053900  0.904290  1.0
  N  N1839  1  0.920700  0.529700  0.756400  1.0
  N  N1840  1  0.079300  0.470300  0.256400  1.0
  N  N1841  1  0.500900  0.886700  0.500860  1.0
  N  N1842  1  0.499100  0.113300  0.000860  1.0
  N  N1843  1  0.888600  0.601300  0.498700  1.0
  N  N1844  1  0.111400  0.398700  0.998700  1.0
  N  N1845  1  0.402500  0.941220  0.499100  1.0
  N  N1846  1  0.597500  0.058780  0.999100  1.0
  N  N1847  1  0.068500  0.009400  0.160220  1.0
  N  N1848  1  0.931500  0.990600  0.660220  1.0
  N  N1849  1  0.454300  0.409300  0.103800  1.0
  N  N1850  1  0.545700  0.590700  0.603800  1.0
  N  N1851  1  0.991800  0.557200  0.510430  1.0
  N  N1852  1  0.008200  0.442800  0.010430  1.0
  N  N1853  1  0.903800  0.534600  0.552350  1.0
  N  N1854  1  0.096200  0.465400  0.052350  1.0
  N  N1855  1  0.090600  0.949300  0.214680  1.0
  N  N1856  1  0.909400  0.050700  0.714680  1.0
  N  N1857  1  0.139200  0.047600  0.213300  1.0
  N  N1858  1  0.860800  0.952400  0.713300  1.0
  N  N1859  1  0.369600  0.394900  0.149640  1.0
  N  N1860  1  0.630400  0.605100  0.649640  1.0
  N  N1861  1  0.449800  0.341500  0.154610  1.0
  N  N1862  1  0.550200  0.658500  0.654610  1.0
  N  N1863  1  0.483700  0.961200  0.547910  1.0
  N  N1864  1  0.516300  0.038800  0.047910  1.0
  N  N1865  1  0.426000  0.481800  0.148500  1.0
  N  N1866  1  0.574000  0.518200  0.648500  1.0
  N  N1867  1  0.445500  0.428500  0.197000  1.0
  N  N1868  1  0.554500  0.571500  0.697000  1.0
  N  N1869  1  0.124000  0.932500  0.374100  1.0
  N  N1870  1  0.876000  0.067500  0.874100  1.0
  N  N1871  1  0.983700  0.576400  0.649800  1.0
  N  N1872  1  0.016300  0.423600  0.149800  1.0
  N  N1873  1  0.363400  0.287500  0.670000  1.0
  N  N1874  1  0.636600  0.712500  0.170000  1.0
  N  N1875  1  0.769000  0.589000  0.186400  1.0
  N  N1876  1  0.231000  0.411000  0.686400  1.0
  N  N1877  1  0.160500  0.247300  0.374700  0.6
  N  N1878  1  0.839500  0.752700  0.874700  0.6
  O  O1879  1  0.499800  0.285300  0.450000  1.0
  O  O1880  1  0.500200  0.714700  0.950000  1.0
  O  O1881  1  0.432200  0.382300  0.516400  1.0
  O  O1882  1  0.567800  0.617700  0.016400  1.0
  O  O1883  1  0.473200  0.226100  0.635600  1.0
  O  O1884  1  0.526800  0.773900  0.135600  1.0
  O  O1885  1  0.529000  0.125400  0.565500  1.0
  O  O1886  1  0.471000  0.874600  0.065500  1.0
  O  O1887  1  0.318800  0.326800  0.411100  1.0
  O  O1888  1  0.681200  0.673200  0.911100  1.0
  O  O1889  1  0.177100  0.381100  0.448500  1.0
  O  O1890  1  0.822900  0.618900  0.948500  1.0
  O  O1891  1  0.091000  0.157700  0.467600  1.0
  O  O1892  1  0.909000  0.842300  0.967600  1.0
  O  O1893  1  0.229400  0.106100  0.425000  1.0
  O  O1894  1  0.770600  0.893900  0.925000  1.0
  O  O1895  1  0.281100  0.459500  0.527400  1.0
  O  O1896  1  0.718900  0.540500  0.027400  1.0
  O  O1897  1  0.367500  0.568000  0.577300  1.0
  O  O1898  1  0.632500  0.432000  0.077300  1.0
  O  O1899  1  0.193500  0.558100  0.696100  1.0
  O  O1900  1  0.806500  0.441900  0.196100  1.0
  O  O1901  1  0.112500  0.442900  0.649200  1.0
  O  O1902  1  0.887500  0.557100  0.149200  1.0
  O  O1903  1  0.406200  0.297900  0.744200  1.0
  O  O1904  1  0.593800  0.702100  0.244200  1.0
  O  O1905  1  0.345300  0.157100  0.736200  1.0
  O  O1906  1  0.654700  0.842900  0.236200  1.0
  O  O1907  1  0.102300  0.236600  0.746200  1.0
  O  O1908  1  0.897700  0.763400  0.246200  1.0
  O  O1909  1  0.164100  0.381600  0.753300  1.0
  O  O1910  1  0.835900  0.618400  0.253300  1.0
  O  O1911  1  0.399100  0.050300  0.639300  1.0
  O  O1912  1  0.600900  0.949700  0.139300  1.0
  O  O1913  1  0.306800  0.992100  0.714200  1.0
  O  O1914  1  0.693200  0.007900  0.214200  1.0
  O  O1915  1  0.199200  0.016300  0.539200  1.0
  O  O1916  1  0.800800  0.983700  0.039200  1.0
  O  O1917  1  0.101800  0.972200  0.618200  1.0
  O  O1918  1  0.898200  0.027800  0.118200  1.0
  O  O1919  1  0.997600  0.104700  0.569000  1.0
  O  O1920  1  0.002400  0.895300  0.069000  1.0
  O  O1921  1  0.919000  0.188300  0.498000  1.0
  O  O1922  1  0.081000  0.811700  0.998000  1.0
  O  O1923  1  0.009600  0.296800  0.662500  1.0
  O  O1924  1  0.990400  0.703200  0.162500  1.0
  O  O1925  1  0.934200  0.378800  0.591300  1.0
  O  O1926  1  0.065800  0.621200  0.091300  1.0
  O  O1927  1  0.690300  0.370400  0.466900  1.0
  O  O1928  1  0.309700  0.629600  0.966900  1.0
  O  O1929  1  0.830600  0.320400  0.507400  1.0
  O  O1930  1  0.169400  0.679600  0.007400  1.0
  O  O1931  1  0.594100  0.150500  0.467500  1.0
  O  O1932  1  0.405900  0.849500  0.967500  1.0
  O  O1933  1  0.735800  0.099700  0.505000  1.0
  O  O1934  1  0.264200  0.900300  0.005000  1.0
  O  O1935  1  0.871700  0.015700  0.310700  1.0
  O  O1936  1  0.128300  0.984300  0.810700  1.0
  O  O1937  1  0.791600  0.928300  0.241400  1.0
  O  O1938  1  0.208400  0.071700  0.741400  1.0
  O  O1939  1  0.579200  0.926400  0.332800  1.0
  O  O1940  1  0.420800  0.073600  0.832800  1.0
  O  O1941  1  0.659600  0.013000  0.402000  1.0
  O  O1942  1  0.340400  0.987000  0.902000  1.0
  O  O1943  1  0.705100  0.496900  0.210800  1.0
  O  O1944  1  0.294900  0.503100  0.710800  1.0
  O  O1945  1  0.872200  0.528900  0.329100  1.0
  O  O1946  1  0.127800  0.471100  0.829100  1.0
  O  O1947  1  0.614700  0.401800  0.269500  1.0
  O  O1948  1  0.385300  0.598200  0.769500  1.0
  O  O1949  1  0.779800  0.438600  0.391000  1.0
  O  O1950  1  0.220200  0.561400  0.891000  1.0
  O  O1951  1  0.953900  0.371700  0.396900  1.0
  O  O1952  1  0.046100  0.628300  0.896900  1.0
  O  O1953  1  0.973800  0.189400  0.296700  1.0
  O  O1954  1  0.026200  0.810600  0.796700  1.0
  O  O1955  1  0.014000  0.097600  0.374800  1.0
  O  O1956  1  0.986000  0.902400  0.874800  1.0
  O  O1957  1  0.998900  0.279100  0.475300  1.0
  O  O1958  1  0.001100  0.720900  0.975300  1.0
  O  O1959  1  0.901500  0.229100  0.173100  1.0
  O  O1960  1  0.098500  0.770900  0.673100  1.0
  O  O1961  1  0.830900  0.100600  0.208900  1.0
  O  O1962  1  0.169100  0.899400  0.708900  1.0
  O  O1963  1  0.665900  0.321900  0.154600  1.0
  O  O1964  1  0.334100  0.678100  0.654600  1.0
  O  O1965  1  0.594700  0.190200  0.186400  1.0
  O  O1966  1  0.405300  0.809800  0.686400  1.0
  O  O1967  1  0.429300  0.359500  0.326100  1.0
  O  O1968  1  0.570700  0.640500  0.826100  1.0
  O  O1969  1  0.494600  0.257000  0.262400  1.0
  O  O1970  1  0.505400  0.743000  0.762400  1.0
  O  O1971  1  0.483500  0.096000  0.378300  1.0
  O  O1972  1  0.516500  0.904000  0.878300  1.0
  O  O1973  1  0.415900  0.198200  0.439500  1.0
  O  O1974  1  0.584100  0.801800  0.939500  1.0
  O  O1975  1  0.221000  0.900000  0.579500  0.7
  O  O1976  1  0.779000  0.100000  0.079500  0.7
  O  O1977  1  0.178600  0.879500  0.626900  0.7
  O  O1978  1  0.821400  0.120500  0.126900  0.7
  O  O1979  1  0.339900  0.811100  0.615700  0.7
  O  O1980  1  0.660100  0.188900  0.115700  0.7
  O  O1981  1  0.305700  0.844600  0.569400  0.7
  O  O1982  1  0.694300  0.155400  0.069400  0.7
  O  O1983  1  0.202500  0.319100  0.373700  0.6
  O  O1984  1  0.797500  0.680900  0.873700  0.6
  O  O1985  1  0.096200  0.207600  0.340600  0.6
  O  O1986  1  0.903800  0.792400  0.840600  0.6
  O  O1987  1  0.123500  0.175500  0.387500  0.6
  O  O1988  1  0.876500  0.824500  0.887500  0.6
  O  O1989  1  0.169100  0.295000  0.326000  0.6
  O  O1990  1  0.830900  0.705000  0.826000  0.6
  F  F1991  1  0.353600  0.865400  0.412800  1.0
  F  F1992  1  0.646400  0.134600  0.912800  1.0
  F  F1993  1  0.425600  0.851000  0.427000  1.0
  F  F1994  1  0.574400  0.149000  0.927000  1.0
  F  F1995  1  0.382700  0.804500  0.395700  1.0
  F  F1996  1  0.617300  0.195500  0.895700  1.0
  F  F1997  1  0.403500  0.782000  0.441600  1.0
  F  F1998  1  0.596500  0.218000  0.941600  1.0
  F  F1999  1  0.324900  0.794200  0.431200  1.0
  F  F2000  1  0.675100  0.205800  0.931200  1.0
  F  F2001  1  0.366900  0.841000  0.461200  1.0
  F  F2002  1  0.633100  0.159000  0.961200  1.0
  F  F2003  1  0.496800  0.707800  0.457700  1.0
  F  F2004  1  0.503200  0.292200  0.957700  1.0
  F  F2005  1  0.575500  0.700400  0.462300  1.0
  F  F2006  1  0.424500  0.299600  0.962300  1.0
  F  F2007  1  0.567000  0.632300  0.475000  1.0
  F  F2008  1  0.433000  0.367700  0.975000  1.0
  F  F2009  1  0.532000  0.654400  0.432400  1.0
  F  F2010  1  0.468000  0.345600  0.932400  1.0
  F  F2011  1  0.529800  0.683900  0.501300  1.0
  F  F2012  1  0.470200  0.316100  0.001300  1.0
  F  F2013  1  0.484600  0.636200  0.472400  1.0
  F  F2014  1  0.515400  0.363800  0.972400  1.0
  F  F2015  1  0.862500  0.238600  0.394800  1.0
  F  F2016  1  0.137500  0.761400  0.894800  1.0
  F  F2017  1  0.864700  0.275500  0.437500  1.0
  F  F2018  1  0.135300  0.724500  0.937500  1.0
  F  F2019  1  0.797000  0.235500  0.422600  1.0
  F  F2020  1  0.203000  0.764500  0.922600  1.0
  F  F2021  1  0.784600  0.285200  0.386100  1.0
  F  F2022  1  0.215400  0.714800  0.886100  1.0
  F  F2023  1  0.851700  0.322000  0.397000  1.0
  F  F2024  1  0.148300  0.678000  0.897000  1.0
  F  F2025  1  0.803800  0.315000  0.427700  1.0
  F  F2026  1  0.196200  0.685000  0.927700  1.0
  F  F2027  1  0.092300  0.784400  0.187100  1.0
  F  F2028  1  0.907700  0.215600  0.687100  1.0
  F  F2029  1  0.179000  0.711700  0.188300  1.0
  F  F2030  1  0.821000  0.288300  0.688300  1.0
  F  F2031  1  0.174900  0.776400  0.182000  1.0
  F  F2032  1  0.825100  0.223600  0.682000  1.0
  F  F2033  1  0.146500  0.758900  0.223200  1.0
  F  F2034  1  0.853500  0.241100  0.723200  1.0
  F  F2035  1  0.096500  0.707400  0.201300  1.0
  F  F2036  1  0.903500  0.292600  0.701300  1.0
  F  F2037  1  0.127800  0.725600  0.156400  1.0
  F  F2038  1  0.872200  0.274400  0.656400  1.0
  F  F2039  1  0.473700  0.407800  0.604500  1.0
  F  F2040  1  0.526300  0.592200  0.104500  1.0
  F  F2041  1  0.402600  0.392300  0.623700  1.0
  F  F2042  1  0.597400  0.607700  0.123700  1.0
  F  F2043  1  0.454000  0.435900  0.644500  1.0
  F  F2044  1  0.546000  0.564100  0.144500  1.0
  F  F2045  1  0.384300  0.469800  0.621100  1.0
  F  F2046  1  0.615700  0.530200  0.121100  1.0
  F  F2047  1  0.395200  0.432200  0.583000  1.0
  F  F2048  1  0.604800  0.567800  0.083000  1.0
  F  F2049  1  0.459900  0.481300  0.606400  1.0
  F  F2050  1  0.540100  0.518700  0.106400  1.0
  F  F2051  1  0.971400  0.698700  0.428700  0.5
  F  F2052  1  0.028600  0.301300  0.928700  0.5
  F  F2053  1  0.974800  0.622900  0.429100  0.5
  F  F2054  1  0.025200  0.377100  0.929100  0.5
  F  F2055  1  0.051400  0.623800  0.425000  0.5
  F  F2056  1  0.948600  0.376200  0.925000  0.5
  F  F2057  1  0.009200  0.664400  0.390400  0.5
  F  F2058  1  0.990800  0.335600  0.890400  0.5
  F  F2059  1  0.053900  0.696100  0.428000  0.5
  F  F2060  1  0.946100  0.303900  0.928000  0.5
  F  F2061  1  0.012100  0.658500  0.461400  0.5
  F  F2062  1  0.987900  0.341500  0.961400  0.5
  F  F2063  1  0.178100  0.994400  0.288200  0.5
  F  F2064  1  0.821900  0.005600  0.788200  0.5
  F  F2065  1  0.198900  0.925500  0.291000  0.5
  F  F2066  1  0.801100  0.074500  0.791000  0.5
  F  F2067  1  0.245100  0.971800  0.255200  0.5
  F  F2068  1  0.754900  0.028200  0.755200  0.5
  F  F2069  1  0.222200  0.985800  0.327100  0.5
  F  F2070  1  0.777800  0.014200  0.827100  0.5
  F  F2071  1  0.273400  0.944600  0.296800  0.5
  F  F2072  1  0.726600  0.055400  0.796800  0.5
  F  F2073  1  0.258800  0.013400  0.292500  0.5
  F  F2074  1  0.741200  0.986600  0.792500  0.5
  F  F2075  1  0.226000  0.637500  0.379900  0.5
  F  F2076  1  0.774000  0.362500  0.879900  0.5
  F  F2077  1  0.297000  0.630800  0.353800  0.5
  F  F2078  1  0.703000  0.369200  0.853800  0.5
  F  F2079  1  0.268100  0.564000  0.366000  0.5
  F  F2080  1  0.731900  0.436000  0.866000  0.5
  F  F2081  1  0.230900  0.659400  0.336700  0.5
  F  F2082  1  0.769100  0.340600  0.836700  0.5
  F  F2083  1  0.195200  0.593300  0.331500  0.5
  F  F2084  1  0.804800  0.406700  0.831500  0.5
  F  F2085  1  0.272700  0.596800  0.318100  0.5
  F  F2086  1  0.727300  0.403200  0.818100  0.5
  F  F2087  1  0.218500  0.166100  0.360900  0.6
  F  F2088  1  0.781500  0.833900  0.860900  0.6
  F  F2089  1  0.193500  0.194100  0.319500  0.6
  F  F2090  1  0.806500  0.805900  0.819500  0.6
  F  F2091  1  0.167200  0.130400  0.336500  0.6
  F  F2092  1  0.832800  0.869600  0.836500  0.6
  F  F2093  1  0.102900  0.327900  0.393600  0.6
  F  F2094  1  0.897100  0.672100  0.893600  0.6
  F  F2095  1  0.115800  0.367000  0.352600  0.6
  F  F2096  1  0.884200  0.633000  0.852600  0.6
  F  F2097  1  0.070800  0.307600  0.351800  0.6
  F  F2098  1  0.929200  0.692400  0.851800  0.6
  F  F2099  1  0.686900  0.884900  0.399400  0.75
  F  F2100  1  0.313100  0.115100  0.899400  0.75
  F  F2101  1  0.656800  0.909600  0.443700  0.75
  F  F2102  1  0.343200  0.090400  0.943700  0.75
  F  F2103  1  0.662400  0.832300  0.428600  0.75
  F  F2104  1  0.337600  0.167700  0.928600  0.75
  F  F2105  1  0.705500  0.865500  0.468600  0.75
  F  F2106  1  0.294500  0.134500  0.968600  0.75
  F  F2107  1  0.729900  0.837200  0.420300  0.75
  F  F2108  1  0.270100  0.162800  0.920300  0.75
  F  F2109  1  0.732800  0.913100  0.434600  0.75
  F  F2110  1  0.267200  0.086900  0.934600  0.75
  F  F2111  1  0.343400  0.907100  0.642100  0.7
  F  F2112  1  0.656600  0.092900  0.142100  0.7
  F  F2113  1  0.172100  0.790900  0.605900  0.7
  F  F2114  1  0.827900  0.209100  0.105900  0.7
  F  F2115  1  0.141000  0.834600  0.572100  0.7
  F  F2116  1  0.859000  0.165400  0.072100  0.7
  F  F2117  1  0.328000  0.931200  0.598400  0.7
  F  F2118  1  0.672000  0.068800  0.098400  0.7
  F  F2119  1  0.390800  0.896700  0.605600  0.7
  F  F2120  1  0.609200  0.103300  0.105600  0.7
  F  F2121  1  0.208200  0.801100  0.568000  0.7
  F  F2122  1  0.791800  0.198900  0.068000  0.7
