
#######################################################################
#
#                 Cambridge Crystallographic Data Centre
#                                CCDC 
#
#######################################################################
#
# If this CIF has been generated from an entry in the Cambridge 
# Structural Database, then it will include bibliographic, chemical, 
# crystal, experimental, refinement or atomic coordinate data resulting 
# from the CCDC's data processing and validation procedures.
#
#######################################################################

data_SUWGIC
_chemical_formula_moiety         
'C240 H156 N24 Zn4 8+,7(C2 F6 N1 O4 S2 1-),2(C6 H6),2(C2 H3 N1),B1 F4 1-'
_chemical_name_systematic        
"hexakis(\m-N,N'-(pyrene-1,6-diyldi-3,1-phenylene)bis(1-(pyridin-2-yl)methanimine))-tetra-zinc heptakis(bis((trifluoromethyl)sulfonyl)azanide) tetrafluoroborate acetonitrile benzene solvate"
_symmetry_cell_setting           rhombohedral
_symmetry_space_group_name_H-M   'R -3'
_symmetry_Int_Tables_number      148
_space_group_name_Hall           '-R 3'
loop_
_symmetry_equiv_pos_site_id
_symmetry_equiv_pos_as_xyz
1 x,y,z
2 -y,x-y,z
3 -x+y,-x,z
4 2/3+x,1/3+y,1/3+z
5 2/3-y,1/3+x-y,1/3+z
6 2/3-x+y,1/3-x,1/3+z
7 1/3+x,2/3+y,2/3+z
8 1/3-y,2/3+x-y,2/3+z
9 1/3-x+y,2/3-x,2/3+z
10 -x,-y,-z
11 y,-x+y,-z
12 x-y,x,-z
13 1/3-x,2/3-y,2/3-z
14 1/3+y,2/3-x+y,2/3-z
15 1/3+x-y,2/3+x,2/3-z
16 2/3-x,1/3-y,1/3-z
17 2/3+y,1/3-x+y,1/3-z
18 2/3+x-y,1/3+x,1/3-z
_cell_length_a                   66.845(4)
_cell_length_b                   66.845(4)
_cell_length_c                   36.369(3)
_cell_angle_alpha                90
_cell_angle_beta                 90
_cell_angle_gamma                120
_cell_volume                     140734
_exptl_crystal_colour            yellow
_exptl_crystal_description       block
_cell_formula_units_Z            18
_exptl_crystal_recrystallization_method 
'Re-crystallisation from solvent: acetonitrile, benzene'
loop_
_atom_site_label
_atom_site_type_symbol
_atom_site_fract_x
_atom_site_fract_y
_atom_site_fract_z
Zn1 Zn 0.00963(4) 0.77997(4) 0.00460(6)
Zn2 Zn 0.05942(3) 0.74556(3) 0.29098(5)
Zn3 Zn 0.12935(3) 0.91921(3) 0.41306(5)
Zn4 Zn 0.12001(7) 0.86584(5) 0.72847(9)
N1 N 0.0361(3) 0.8122(3) 0.0291(4)
N2 N 0.1136(2) 0.9393(2) 0.3991(3)
N3 N 0.0050(2) 0.7676(2) 0.0636(3)
N4 N 0.09971(17) 0.8843(2) 0.4066(3)
N5 N 0.05647(19) 0.7759(2) 0.3026(3)
N6 N 0.0302(2) 0.7191(2) 0.3221(4)
N7 N 0.06887(18) 0.71762(18) 0.2864(3)
N8 N -0.0100(2) 0.7506(2) -0.0340(4)
N9 N 0.1628(2) 0.95173(19) 0.4089(3)
N10 N 0.03937(19) 0.7775(2) -0.0026(3)
C1 C 0.04102(19) 0.75997(19) -0.0182(3)
H1 H 0.0275 0.7470 -0.0276
C2 C 0.0619(3) 0.7603(2) -0.0208(3)
H2 H 0.0625 0.7476 -0.0313
C3 C 0.08186(19) 0.7793(3) -0.0080(4)
H3 H 0.0963 0.7798 -0.0097
C4 C 0.0805(2) 0.7975(2) 0.0074(4)
H4 H 0.0941 0.8109 0.0158
C5 C 0.0592(3) 0.7959(2) 0.0102(3)
C6 C 0.0560(3) 0.8142(3) 0.0263(5)
H5 H 0.0691 0.8279 0.0348
C7 C 0.0342(3) 0.8290(2) 0.0501(4)
C8 C 0.0164(2) 0.8326(2) 0.0389(3)
H6 H 0.0061 0.8232 0.0201
C9 C 0.0137(2) 0.8499(3) 0.0552(4)
H7 H 0.0015 0.8524 0.0476
C10 C 0.0288(3) 0.8636(2) 0.0827(4)
H8 H 0.0269 0.8754 0.0939
C11 C 0.0466(2) 0.8600(2) 0.0939(3)
C12 C 0.0494(2) 0.8427(3) 0.0775(4)
H9 H 0.0615 0.8402 0.0852
C13 C 0.0633(3) 0.8755(3) 0.1228(4)
C14 C 0.0865(3) 0.8854(3) 0.1123(5)
H10 H 0.0905 0.8821 0.0890
C15 C 0.1037(3) 0.9003(3) 0.1368(4)
H11 H 0.1194 0.9067 0.1298
C16 C 0.09849(17) 0.90625(19) 0.1714(3)
C17 C 0.11543(16) 0.92262(18) 0.1943(4)
H12 H 0.1311 0.9304 0.1867
C18 C 0.1094(2) 0.92762(16) 0.2282(3)
H13 H 0.1210 0.9388 0.2438
C19 C 0.0864(2) 0.91624(17) 0.2393(2)
C20 C 0.06946(17) 0.89986(14) 0.2164(2)
C21 C 0.07551(16) 0.89487(13) 0.1825(2)
C22 C 0.05857(19) 0.87849(17) 0.1596(2)
C23 C 0.03559(18) 0.86711(17) 0.1707(3)
H14 H 0.0240 0.8559 0.1551
C24 C 0.02954(16) 0.87211(19) 0.2046(4)
H15 H 0.0138 0.8643 0.2122
C25 C 0.04648(18) 0.8885(2) 0.2275(3)
C26 C 0.0413(4) 0.8919(3) 0.2637(5)
H16 H 0.0260 0.8831 0.2730
C27 C 0.0589(4) 0.9084(3) 0.2854(6)
H17 H 0.0551 0.9106 0.3096
C28 C 0.0819(3) 0.9220(3) 0.2741(4)
C29 C 0.0985(2) 0.9394(2) 0.3013(4)
C30 C 0.1117(3) 0.9627(3) 0.2920(3)
H18 H 0.1111 0.9676 0.2678
C31 C 0.1258(2) 0.97863(17) 0.3183(4)
H19 H 0.1349 0.9945 0.3120
C32 C 0.1267(2) 0.9714(2) 0.3538(4)
H20 H 0.1364 0.9823 0.3717
C33 C 0.1135(3) 0.9481(3) 0.3630(3)
C34 C 0.0994(2) 0.93216(17) 0.3367(4)
H21 H 0.0904 0.9163 0.3430
C35 C 0.1097(3) 0.9490(3) 0.4254(3)
H22 H 0.1063 0.9610 0.4216
N11 N 0.11835(11) 0.92541(14) 0.4648(2)
C36 C 0.11056(14) 0.94069(12) 0.4621(2)
C37 C 0.10289(16) 0.94776(15) 0.4919(2)
H23 H 0.0981 0.9589 0.4891
C38 C 0.10229(12) 0.93832(16) 0.5260(2)
H24 H 0.0967 0.9426 0.5469
C39 C 0.10989(14) 0.92257(14) 0.5293(2)
H25 H 0.1095 0.9159 0.5525
C40 C 0.11803(15) 0.91664(15) 0.4985(2)
H26 H 0.1236 0.9061 0.5012
N12 N -0.02275(15) 0.77601(18) 0.0192(2)
C41 C -0.03666(16) 0.77903(17) -0.0045(2)
H27 H -0.0313 0.7842 -0.0288
C42 C -0.05843(17) 0.77479(18) 0.0056(2)
H28 H -0.0677 0.7774 -0.0114
C43 C -0.06663(14) 0.7667(2) 0.0406(2)
H29 H -0.0816 0.7637 0.0478
C44 C -0.05282(14) 0.76318(16) 0.0649(2)
H30 H -0.0582 0.7573 0.0889
C45 C -0.03106(15) 0.76831(15) 0.0536(2)
C46 C -0.0128(2) 0.7680(3) 0.0758(4)
H31 H -0.0143 0.7681 0.1018
C47 C 0.02256(14) 0.76965(18) 0.0880(3)
C48 C 0.03334(17) 0.75680(15) 0.0816(2)
H32 H 0.0278 0.7454 0.0627
C49 C 0.05226(17) 0.76057(16) 0.1027(3)
H33 H 0.0596 0.7518 0.0982
C50 C 0.06038(14) 0.77719(17) 0.1302(2)
H34 H 0.0733 0.7798 0.1447
C51 C 0.04960(17) 0.79004(15) 0.1367(2)
C52 C 0.03069(17) 0.78627(17) 0.1156(3)
H35 H 0.0233 0.7951 0.1200
C53 C 0.0581(2) 0.8086(2) 0.1640(4)
C54 C 0.0799(2) 0.8280(2) 0.1592(4)
H36 H 0.0889 0.8288 0.1384
C55 C 0.0889(2) 0.8462(2) 0.1845(4)
H37 H 0.1034 0.8596 0.1799
C56 C 0.07661(11) 0.84487(12) 0.2164(2)
C57 C 0.08592(11) 0.86277(11) 0.2418(2)
H38 H 0.1005 0.8761 0.2373
C58 C 0.07387(13) 0.86119(12) 0.2739(2)
H39 H 0.0802 0.8734 0.2913
C59 C 0.05252(13) 0.84171(13) 0.28044(18)
C60 C 0.04321(10) 0.82381(10) 0.25498(15)
C61 C 0.05525(10) 0.82539(10) 0.22294(15)
C62 C 0.04595(13) 0.80749(13) 0.19748(18)
C63 C 0.02459(14) 0.78800(12) 0.2040(2)
H40 H 0.0182 0.7758 0.1866
C64 C 0.01254(12) 0.78642(11) 0.2361(2)
H41 H -0.0021 0.7731 0.2406
C65 C 0.02185(11) 0.80432(13) 0.2615(2)
C66 C 0.0080(2) 0.8024(3) 0.2921(4)
H42 H -0.0073 0.7899 0.2950
C67 C 0.0182(2) 0.8199(2) 0.3171(4)
H43 H 0.0098 0.8184 0.3390
C68 C 0.0402(2) 0.8398(2) 0.3137(4)
C69 C 0.04950(18) 0.85754(16) 0.3440(2)
C70 C 0.07069(17) 0.86381(17) 0.3601(3)
H44 H 0.0798 0.8577 0.3508
C71 C 0.07851(14) 0.87901(18) 0.3896(3)
C72 C 0.06512(18) 0.88794(16) 0.4031(2)
H45 H 0.0705 0.8983 0.4234
C73 C 0.04393(17) 0.88168(18) 0.3870(3)
H46 H 0.0348 0.8878 0.3963
C74 C 0.03611(14) 0.86648(18) 0.3575(3)
H47 H 0.0216 0.8622 0.3465
C75 C 0.1040(2) 0.8684(3) 0.4148(4)
H48 H 0.0931 0.8527 0.4098
N13 N 0.14106(14) 0.89804(11) 0.43537(16)
C76 C 0.12672(10) 0.87479(12) 0.43265(14)
C77 C 0.13186(11) 0.85887(11) 0.44731(12)
H49 H 0.1211 0.8428 0.4456
C78 C 0.15294(13) 0.86680(12) 0.46455(13)
H50 H 0.1571 0.8562 0.4744
C79 C 0.16788(11) 0.89035(13) 0.46727(15)
H51 H 0.1825 0.8961 0.4789
C80 C 0.16147(12) 0.90553(11) 0.45292(15)
H52 H 0.1717 0.9217 0.4555
N14 N 0.08463(11) 0.77121(11) 0.25528(16)
C81 C 0.09803(12) 0.76894(12) 0.22956(16)
H53 H 0.0965 0.7542 0.2258
C82 C 0.11383(11) 0.78747(13) 0.20865(15)
H54 H 0.1233 0.7854 0.1912
C83 C 0.11581(12) 0.80893(12) 0.21328(12)
H55 H 0.1265 0.8217 0.1990
C84 C 0.10196(12) 0.81145(11) 0.23895(13)
H56 H 0.1027 0.8259 0.2422
C85 C 0.08702(9) 0.79254(12) 0.25967(15)
C86 C 0.0711(2) 0.7938(3) 0.2856(3)
H57 H 0.0716 0.8081 0.2897
C87 C 0.04121(16) 0.77654(18) 0.3295(3)
C88 C 0.05043(12) 0.79255(16) 0.3579(3)
H58 H 0.0665 0.8035 0.3584
C89 C 0.03615(18) 0.79255(16) 0.3857(3)
C90 C 0.01265(16) 0.77655(18) 0.3851(3)
H59 H 0.0029 0.7765 0.4041
C91 C 0.00343(12) 0.76055(16) 0.3567(3)
H60 H -0.0126 0.7496 0.3563
C92 C 0.01771(17) 0.76054(16) 0.3289(3)
H61 H 0.0114 0.7496 0.3095
C93 C 0.0443(2) 0.8083(2) 0.4181(4)
C94 C 0.0352(3) 0.8231(2) 0.4235(4)
H62 H 0.0237 0.8223 0.4075
C95 C 0.0433(2) 0.8388(3) 0.4521(4)
H63 H 0.0368 0.8485 0.4553
C96 C 0.06003(13) 0.84104(14) 0.4762(2)
C97 C 0.06728(16) 0.85689(12) 0.5049(3)
H64 H 0.0610 0.8668 0.5075
C98 C 0.08366(16) 0.85818(12) 0.5298(2)
H65 H 0.0886 0.8690 0.5494
C99 C 0.09278(13) 0.84362(13) 0.52602(18)
C100 C 0.08553(10) 0.82777(10) 0.49734(16)
C101 C 0.06916(10) 0.82648(10) 0.47243(16)
C102 C 0.06191(13) 0.81063(13) 0.44375(18)
C103 C 0.07103(15) 0.79607(12) 0.4400(2)
H66 H 0.0661 0.7852 0.4204
C104 C 0.08741(15) 0.79736(12) 0.4649(3)
H67 H 0.0936 0.7874 0.4623
C105 C 0.09466(13) 0.81321(13) 0.4936(2)
C106 C 0.1124(3) 0.8151(3) 0.5185(4)
H68 H 0.1187 0.8052 0.5158
C107 C 0.1203(3) 0.8315(2) 0.5464(4)
H69 H 0.1318 0.8328 0.5631
C108 C 0.1109(2) 0.8461(3) 0.5496(4)
C109 C 0.1207(2) 0.8633(2) 0.5808(3)
C110 C 0.10875(18) 0.85987(19) 0.6137(4)
H70 H 0.0940 0.8465 0.6168
C111 C 0.1183(2) 0.8760(3) 0.6418(3)
C112 C 0.1399(2) 0.8956(2) 0.6372(3)
H71 H 0.1464 0.9066 0.6564
C113 C 0.15184(18) 0.89906(18) 0.6043(4)
H72 H 0.1666 0.9124 0.6012
C114 C 0.1423(2) 0.8829(2) 0.5762(3)
H73 H 0.1504 0.8853 0.5538
N15 N 0.0845(2) 0.85591(16) 0.74176(18)
N16 N 0.10602(19) 0.86893(18) 0.6752(2)
C115 C 0.08436(19) 0.86049(14) 0.67572(18)
H74 H 0.0762 0.8591 0.6535
C116 C 0.0732(2) 0.84823(17) 0.77414(18)
H75 H 0.0819 0.8504 0.7960
C117 C 0.0493(2) 0.83736(19) 0.77640(19)
H76 H 0.0418 0.8318 0.7994
C118 C 0.0365(2) 0.8346(2) 0.7450(2)
H77 H 0.0201 0.8273 0.7462
C119 C 0.0479(2) 0.84274(18) 0.71183(19)
H78 H 0.0395 0.8414 0.6900
C120 C 0.0716(2) 0.85282(15) 0.71114(18)
N17 N 0.03242(12) 0.73195(13) 0.25017(18)
C121 C 0.03286(13) 0.73982(12) 0.21567(17)
H79 H 0.0468 0.7524 0.2066
C122 C 0.01352(14) 0.73011(13) 0.19322(18)
H80 H 0.0142 0.7362 0.1694
C123 C -0.00683(12) 0.71148(14) 0.20573(19)
H81 H -0.0202 0.7046 0.1906
C124 C -0.00745(13) 0.70297(13) 0.24064(19)
H82 H -0.0211 0.6900 0.2496
C125 C 0.01215(13) 0.71376(11) 0.26209(18)
C126 C 0.0135(3) 0.7072(3) 0.3000(3)
H83 H 0.0011 0.6931 0.3089
C127 C 0.03078(15) 0.7109(2) 0.3579(2)
C128 C 0.03473(15) 0.72560(14) 0.3876(3)
H84 H 0.0358 0.7401 0.3837
C129 C 0.03718(15) 0.71899(18) 0.4227(3)
C130 C 0.03568(16) 0.6977(2) 0.4283(2)
H85 H 0.0373 0.6932 0.4524
C131 C 0.03173(15) 0.68304(14) 0.3987(3)
H86 H 0.0307 0.6685 0.4025
C132 C 0.02928(15) 0.68965(18) 0.3635(3)
H87 H 0.0266 0.6796 0.3433
C133 C 0.0394(3) 0.7339(3) 0.4548(4)
C134 C 0.0229(3) 0.7408(2) 0.4571(4)
H88 H 0.0116 0.7368 0.4383
C135 C 0.0232(2) 0.7538(2) 0.4875(4)
H89 H 0.0124 0.7591 0.4887
C136 C 0.03937(11) 0.75932(13) 0.5168(2)
C137 C 0.03908(14) 0.77164(13) 0.5473(3)
H90 H 0.0272 0.7754 0.5500
C138 C 0.05615(17) 0.77843(13) 0.5740(2)
H91 H 0.0560 0.7869 0.5949
C139 C 0.07351(15) 0.77291(13) 0.57014(18)
C140 C 0.07380(10) 0.76059(10) 0.53955(17)
C141 C 0.05673(10) 0.75379(9) 0.51286(17)
C142 C 0.05703(14) 0.74147(13) 0.48227(18)
C143 C 0.07439(16) 0.73595(13) 0.4784(2)
H92 H 0.0746 0.7275 0.4575
C144 C 0.09145(14) 0.74274(14) 0.5051(3)
H93 H 0.1033 0.7390 0.5024
C145 C 0.09116(12) 0.75506(14) 0.5356(2)
C146 C 0.1095(3) 0.7633(3) 0.5611(4)
H94 H 0.1221 0.7608 0.5577
C147 C 0.1081(3) 0.7753(3) 0.5916(4)
H95 H 0.1208 0.7818 0.6081
C148 C 0.0894(3) 0.7784(3) 0.5994(4)
C149 C 0.0891(2) 0.7884(2) 0.6352(3)
C150 C 0.1075(2) 0.8093(2) 0.6471(4)
H96 H 0.1204 0.8179 0.6315
C151 C 0.1070(2) 0.81766(18) 0.6819(4)
C152 C 0.0881(3) 0.8051(2) 0.7048(3)
H97 H 0.0877 0.8108 0.7285
C153 C 0.0697(2) 0.7842(2) 0.6929(4)
H98 H 0.0568 0.7756 0.7085
C154 C 0.0702(2) 0.77585(18) 0.6581(4)
H99 H 0.0577 0.7616 0.6499
N18 N 0.15693(17) 0.88345(14) 0.71548(17)
N19 N 0.12342(17) 0.84067(15) 0.69338(16)
C155 C 0.14385(16) 0.84742(12) 0.68285(15)
H100 H 0.1470 0.8376 0.6681
C156 C 0.16288(16) 0.87069(13) 0.69364(16)
C157 C 0.18504(15) 0.87858(15) 0.68109(18)
H101 H 0.1886 0.8689 0.6666
C158 C 0.20198(16) 0.90082(17) 0.6900(2)
H102 H 0.2173 0.9068 0.6812
C159 C 0.19625(18) 0.91417(15) 0.7118(2)
H103 H 0.2076 0.9295 0.7181
C160 C 0.17381(19) 0.90506(14) 0.72448(18)
H104 H 0.1701 0.9142 0.7399
N20 N 0.08287(11) 0.75187(13) 0.33547(15)
C161 C 0.09117(12) 0.76977(12) 0.35945(15)
H105 H 0.0862 0.7808 0.3573
C162 C 0.10665(9) 0.77247(11) 0.38700(14)
H106 H 0.1125 0.7854 0.4031
C163 C 0.11357(11) 0.75625(12) 0.39101(16)
H107 H 0.1241 0.7579 0.4099
C164 C 0.10494(13) 0.73764(13) 0.36717(17)
H108 H 0.1091 0.7261 0.3697
C165 C 0.09011(11) 0.73624(12) 0.33966(15)
C166 C 0.0808(2) 0.7178(3) 0.3144(4)
H109 H 0.0834 0.7052 0.3181
C167 C 0.05840(14) 0.69902(14) 0.2610(3)
C168 C 0.05557(15) 0.70300(12) 0.2244(3)
H110 H 0.0616 0.7184 0.2157
C169 C 0.04393(16) 0.68450(18) 0.2005(2)
C170 C 0.03511(14) 0.66202(14) 0.2131(2)
H111 H 0.0272 0.6494 0.1968
C171 C 0.03794(15) 0.65804(12) 0.2498(3)
H112 H 0.0319 0.6427 0.2584
C172 C 0.04958(16) 0.67655(17) 0.2737(2)
H113 H 0.0515 0.6738 0.2988
C173 C 0.0413(3) 0.6895(2) 0.1608(4)
C174 C 0.0600(3) 0.7005(2) 0.1377(4)
H114 H 0.0747 0.7038 0.1464
C175 C 0.0582(2) 0.7066(3) 0.1033(4)
H115 H 0.0717 0.7158 0.0891
C176 C 0.03608(11) 0.69958(13) 0.0879(2)
C177 C 0.03397(15) 0.70564(13) 0.0522(2)
H116 H 0.0472 0.7132 0.0369
C178 C 0.01247(17) 0.70066(14) 0.03885(18)
H117 H 0.0110 0.7048 0.0144
C179 C -0.00691(14) 0.68961(15) 0.0613(2)
C180 C -0.00480(10) 0.68354(10) 0.09702(18)
C181 C 0.01670(10) 0.68853(9) 0.11036(18)
C182 C 0.01881(14) 0.68246(14) 0.14611(19)
C183 C -0.00057(17) 0.67141(14) 0.16852(18)
H118 H 0.0009 0.6673 0.1930
C184 C -0.02207(14) 0.66643(14) 0.1552(2)
H119 H -0.0353 0.6589 0.1705
C185 C -0.02418(11) 0.67249(14) 0.1194(2)
C186 C -0.0464(3) 0.6659(3) 0.1063(5)
H120 H -0.0597 0.6573 0.1211
C187 C -0.0479(3) 0.6725(3) 0.0707(5)
H121 H -0.0628 0.6684 0.0614
C188 C -0.0289(3) 0.6849(3) 0.0479(4)
C189 C -0.0311(2) 0.6944(2) 0.0120(3)
C190 C -0.01934(18) 0.7180(2) 0.0056(3)
H122 H -0.0077 0.7282 0.0222
C191 C -0.0247(2) 0.72688(16) -0.0251(4)
C192 C -0.0417(2) 0.7120(2) -0.0494(3)
H123 H -0.0453 0.7181 -0.0704
C193 C -0.05345(19) 0.6884(2) -0.0430(3)
H124 H -0.0651 0.6782 -0.0596
C194 C -0.0481(2) 0.67953(16) -0.0123(4)
H125 H -0.0561 0.6634 -0.0079
C195 C -0.0066(3) 0.7577(2) -0.0671(5)
H126 H -0.0126 0.7468 -0.0866
N21 N 0.01536(12) 0.79771(14) -0.04756(17)
C196 C 0.00628(14) 0.78220(15) -0.07561(19)
C197 C 0.00932(13) 0.78851(16) -0.11217(18)
H127 H 0.0032 0.7771 -0.1310
C198 C 0.02150(14) 0.81176(17) -0.12089(17)
H128 H 0.0236 0.8166 -0.1458
C199 C 0.03066(16) 0.82782(15) -0.09281(17)
H129 H 0.0390 0.8439 -0.0983
C200 C 0.02760(12) 0.82040(14) -0.05660(17)
H130 H 0.0343 0.8316 -0.0375
N22 N 0.14102(12) 0.91822(14) 0.35815(16)
C201 C 0.13058(12) 0.90113(12) 0.33292(15)
H131 H 0.1166 0.8876 0.3393
C202 C 0.13971(11) 0.90282(11) 0.29811(16)
H132 H 0.1322 0.8904 0.2812
C203 C 0.15982(11) 0.92266(14) 0.28813(17)
H133 H 0.1662 0.9241 0.2643
C204 C 0.17048(13) 0.94044(13) 0.31333(17)
H134 H 0.1841 0.9544 0.3070
C205 C 0.16092(13) 0.93750(12) 0.34790(17)
C206 C 0.1719(3) 0.9546(3) 0.3766(4)
H135 H 0.1862 0.9681 0.3717
C207 C 0.17406(17) 0.96926(17) 0.4366(3)
C208 C 0.17457(18) 0.96280(13) 0.4727(3)
H136 H 0.1664 0.9469 0.4794
C209 C 0.1870(2) 0.9796(2) 0.4991(2)
C210 C 0.19891(18) 1.00276(17) 0.4893(3)
H137 H 0.2074 1.0142 0.5073
C211 C 0.19841(18) 1.00921(13) 0.4531(3)
H138 H 0.2066 1.0251 0.4464
C212 C 0.1860(2) 0.99246(19) 0.4268(2)
H139 H 0.1856 0.9969 0.4020
C213 C 0.1866(3) 0.9726(3) 0.5389(4)
C214 C 0.2005(3) 0.9635(3) 0.5516(5)
H140 H 0.2103 0.9619 0.5344
C215 C 0.2006(3) 0.9566(3) 0.5880(5)
H141 H 0.2102 0.9507 0.5956
C216 C 0.18580(15) 0.95895(15) 0.6124(3)
C217 C 0.18464(18) 0.95158(15) 0.6484(4)
H142 H 0.1947 0.9463 0.6566
C218 C 0.1687(2) 0.95190(15) 0.6727(3)
H143 H 0.1679 0.9469 0.6973
C219 C 0.15394(18) 0.95958(16) 0.6608(2)
C220 C 0.15509(13) 0.96695(12) 0.6247(2)
C221 C 0.17102(13) 0.96663(11) 0.6005(2)
C222 C 0.17217(18) 0.97400(15) 0.5644(2)
C223 C 0.1574(2) 0.98168(15) 0.5526(3)
H144 H 0.1582 0.9867 0.5279
C224 C 0.14147(19) 0.98200(16) 0.5768(4)
H145 H 0.1314 0.9872 0.5687
C225 C 0.14032(16) 0.97463(16) 0.6129(3)
C226 C 0.1224(3) 0.9735(3) 0.6350(5)
H146 H 0.1128 0.9793 0.6270
C227 C 0.1197(3) 0.9632(4) 0.6693(5)
H147 H 0.1064 0.9597 0.6833
C228 C 0.1355(3) 0.9578(4) 0.6839(5)
C229 C 0.1297(3) 0.9438(4) 0.7185(4)
C230 C 0.1309(3) 0.9243(4) 0.7285(6)
H148 H 0.1380 0.9184 0.7126
C231 C 0.1216(4) 0.9134(3) 0.7619(7)
C232 C 0.1111(3) 0.9220(4) 0.7851(4)
H149 H 0.1048 0.9146 0.8079
C233 C 0.1100(3) 0.9415(4) 0.7750(5)
H150 H 0.1029 0.9474 0.7909
C234 C 0.1193(3) 0.9524(3) 0.7417(6)
H151 H 0.1185 0.9657 0.7348
N23 N 0.1269(2) 0.8547(2) 0.7774(4)
N24 N 0.1254(3) 0.8946(3) 0.7714(6)
C235 C 0.13356(18) 0.8695(2) 0.8066(4)
C236 C 0.1405(3) 0.8650(3) 0.8397(4)
H152 H 0.1456 0.8759 0.8591
C237 C 0.1399(3) 0.8441(4) 0.8441(5)
H153 H 0.1443 0.8404 0.8669
C238 C 0.1329(3) 0.8288(3) 0.8150(6)
H154 H 0.1323 0.8144 0.8176
C239 C 0.1268(3) 0.8346(2) 0.7820(5)
H155 H 0.1223 0.8241 0.7619
C240 C 0.1326(3) 0.8910(2) 0.8014(5)
H156 H 0.1374 0.9021 0.8207
S1 S 0.14145(12) 0.80487(12) 0.1041(2)
S2 S 0.12469(14) 0.83262(13) 0.0717(2)
C241 C 0.1222(3) 0.7745(2) 0.0917(5)
C242 C 0.1448(3) 0.8623(2) 0.0849(6)
F1 F 0.1058(2) 0.7656(2) 0.1183(3)
F2 F 0.1327(3) 0.7633(3) 0.0900(4)
F3 F 0.1112(2) 0.7733(2) 0.0611(4)
F4 F 0.1659(3) 0.8652(2) 0.0900(4)
F5 F 0.1446(3) 0.8774(3) 0.0616(5)
F6 F 0.1379(3) 0.8661(3) 0.1175(4)
N25 N 0.1250(3) 0.8157(3) 0.1045(4)
O1 O 0.1584(2) 0.8146(2) 0.0742(4)
O2 O 0.1501(2) 0.8040(2) 0.1395(3)
O3 O 0.1333(3) 0.8285(3) 0.0372(4)
O4 O 0.1023(2) 0.8307(3) 0.0726(4)
S3 S -0.0512(3) 0.7180(3) 0.1477(4)
S4 S -0.0941(3) 0.7070(3) 0.1094(5)
C243 C -0.0505(5) 0.7374(4) 0.1838(6)
C244 C -0.1020(5) 0.6867(4) 0.0713(7)
F7 F -0.0390(5) 0.7582(4) 0.1708(8)
F8 F -0.0731(5) 0.7300(5) 0.1878(9)
F9 F -0.0966(6) 0.6705(5) 0.0802(9)
N26 N -0.0659(3) 0.7207(5) 0.1143(7)
O5 O -0.0639(5) 0.6957(4) 0.1644(8)
F10 F -0.0887(5) 0.6994(5) 0.0443(7)
F11 F -0.1241(5) 0.6776(6) 0.0635(9)
O6 O -0.1059(6) 0.6929(6) 0.1407(7)
O7 O -0.0989(6) 0.7246(5) 0.0957(9)
O8 O -0.0273(4) 0.7297(5) 0.1386(8)
F12 F -0.0419(4) 0.7350(4) 0.2133(6)
S5 S 0.0461(2) 0.8779(2) 0.6040(4)
S6 S 0.0192(3) 0.8785(2) 0.5421(4)
C245 C 0.0688(4) 0.9052(3) 0.6238(7)
C246 C 0.0282(5) 0.8995(4) 0.5042(6)
N27 N 0.0430(4) 0.8836(5) 0.5618(5)
O9 O 0.0550(5) 0.8626(4) 0.6107(8)
O10 O 0.0261(4) 0.8721(5) 0.6253(8)
O11 O 0.0045(5) 0.8836(6) 0.5627(8)
O12 O 0.0121(5) 0.8593(4) 0.5174(7)
F13 F 0.0669(4) 0.9227(4) 0.6123(7)
F14 F 0.0873(4) 0.9043(5) 0.6130(8)
F15 F 0.0680(5) 0.9043(4) 0.6596(6)
F16 F 0.0091(5) 0.8970(5) 0.4903(8)
F17 F 0.0399(5) 0.8927(5) 0.4835(7)
F18 F 0.0427(5) 0.9207(4) 0.5160(9)
B1 B 0.1143(5) 0.8359(5) 0.3429(8)
F19 F 0.12055(18) 0.82122(19) 0.3257(3)
F20 F 0.10428(18) 0.84290(18) 0.3250(3)
F21 F 0.13695(19) 0.85618(18) 0.3543(3)
F22 F 0.10575(15) 0.82541(15) 0.3776(3)
C247 C 0.1533(4) 0.8097(5) 0.4547(7)
H157 H 0.1435 0.8107 0.4726
C248 C 0.1650(5) 0.7979(5) 0.4629(6)
H158 H 0.1633 0.7910 0.4863
C249 C 0.1794(4) 0.7964(5) 0.4367(7)
H159 H 0.1874 0.7884 0.4422
C250 C 0.1820(4) 0.8066(5) 0.4024(7)
H160 H 0.1918 0.8056 0.3845
C251 C 0.1703(5) 0.8184(4) 0.3943(6)
H161 H 0.1721 0.8254 0.3709
C252 C 0.1559(4) 0.8199(5) 0.4205(8)
H162 H 0.1479 0.8279 0.4149
C259 C 0.0200(3) 0.7163(3) -0.0871(4)
H169 H 0.0299 0.7159 -0.0688
C260 C 0.0283(2) 0.7345(3) -0.1119(5)
H170 H 0.0439 0.7466 -0.1105
C261 C 0.0137(3) 0.7350(3) -0.1388(4)
H171 H 0.0194 0.7475 -0.1557
C262 C -0.0091(3) 0.7173(3) -0.1408(4)
H172 H -0.0190 0.7176 -0.1592
C263 C -0.0174(2) 0.6990(3) -0.1161(5)
H173 H -0.0330 0.6869 -0.1175
C264 C -0.0029(3) 0.6985(3) -0.0892(4)
H174 H -0.0085 0.6860 -0.0723
N28 N 0.1144(2) 0.7296(2) 0.1929(4)
C265 C 0.1104(3) 0.7138(3) 0.2098(4)
C266 C 0.1047(3) 0.6937(3) 0.2324(4)
H175 H 0.1104 0.6987 0.2575
H176 H 0.1120 0.6854 0.2220
H177 H 0.0879 0.6836 0.2329
N29 N 0.1989(2) 0.9213(3) 0.3812(4)
C267 C 0.1944(3) 0.9026(3) 0.3765(4)
C268 C 0.1892(3) 0.8798(3) 0.3665(4)
H178 H 0.1825 0.8762 0.3417
H179 H 0.1781 0.8686 0.3840
H180 H 0.2034 0.8789 0.3668
loop_
_geom_bond_atom_site_label_1
_geom_bond_atom_site_label_2
_geom_bond_site_symmetry_1
_geom_bond_site_symmetry_2
Zn1 N1 1_555 1_555
Zn2 N5 1_555 1_555
Zn3 N2 1_555 1_555
Zn4 N15 1_555 1_555
N1 C6 1_555 1_555
N2 C33 1_555 1_555
N3 Zn1 1_555 1_555
N4 Zn3 1_555 1_555
N5 C86 1_555 1_555
N6 Zn2 1_555 1_555
N7 Zn2 1_555 1_555
N8 Zn1 1_555 1_555
N9 Zn3 1_555 1_555
N10 Zn1 1_555 1_555
C1 N10 1_555 1_555
H1 C1 1_555 1_555
C2 C1 1_555 1_555
H2 C2 1_555 1_555
C3 C2 1_555 1_555
H3 C3 1_555 1_555
C4 C3 1_555 1_555
H4 C4 1_555 1_555
C5 N10 1_555 1_555
C6 C5 1_555 1_555
H5 C6 1_555 1_555
C7 N1 1_555 1_555
C8 C7 1_555 1_555
H6 C8 1_555 1_555
C9 C8 1_555 1_555
H7 C9 1_555 1_555
C10 C9 1_555 1_555
H8 C10 1_555 1_555
C11 C10 1_555 1_555
C12 C7 1_555 1_555
H9 C12 1_555 1_555
C13 C11 1_555 1_555
C14 C13 1_555 1_555
H10 C14 1_555 1_555
C15 C14 1_555 1_555
H11 C15 1_555 1_555
C16 C15 1_555 1_555
C17 C16 1_555 1_555
H12 C17 1_555 1_555
C18 C17 1_555 1_555
H13 C18 1_555 1_555
C19 C18 1_555 1_555
C20 C19 1_555 1_555
C21 C16 1_555 1_555
C22 C13 1_555 1_555
C23 C22 1_555 1_555
H14 C23 1_555 1_555
C24 C23 1_555 1_555
H15 C24 1_555 1_555
C25 C20 1_555 1_555
C26 C25 1_555 1_555
H16 C26 1_555 1_555
C27 C26 1_555 1_555
H17 C27 1_555 1_555
C28 C19 1_555 1_555
C29 C28 1_555 1_555
C30 C29 1_555 1_555
H18 C30 1_555 1_555
C31 C30 1_555 1_555
H19 C31 1_555 1_555
C32 C31 1_555 1_555
H20 C32 1_555 1_555
C33 C32 1_555 1_555
C34 C29 1_555 1_555
H21 C34 1_555 1_555
C35 N2 1_555 1_555
H22 C35 1_555 1_555
N11 Zn3 1_555 1_555
C36 C35 1_555 1_555
C37 C36 1_555 1_555
H23 C37 1_555 1_555
C38 C37 1_555 1_555
H24 C38 1_555 1_555
C39 C38 1_555 1_555
H25 C39 1_555 1_555
C40 N11 1_555 1_555
H26 C40 1_555 1_555
N12 Zn1 1_555 1_555
C41 N12 1_555 1_555
H27 C41 1_555 1_555
C42 C41 1_555 1_555
H28 C42 1_555 1_555
C43 C42 1_555 1_555
H29 C43 1_555 1_555
C44 C43 1_555 1_555
H30 C44 1_555 1_555
C45 N12 1_555 1_555
C46 N3 1_555 1_555
H31 C46 1_555 1_555
C47 N3 1_555 1_555
C48 C47 1_555 1_555
H32 C48 1_555 1_555
C49 C48 1_555 1_555
H33 C49 1_555 1_555
C50 C49 1_555 1_555
H34 C50 1_555 1_555
C51 C50 1_555 1_555
C52 C47 1_555 1_555
H35 C52 1_555 1_555
C53 C51 1_555 1_555
C54 C53 1_555 1_555
H36 C54 1_555 1_555
C55 C54 1_555 1_555
H37 C55 1_555 1_555
C56 C55 1_555 1_555
C57 C56 1_555 1_555
H38 C57 1_555 1_555
C58 C57 1_555 1_555
H39 C58 1_555 1_555
C59 C58 1_555 1_555
C60 C59 1_555 1_555
C61 C56 1_555 1_555
C62 C53 1_555 1_555
C63 C62 1_555 1_555
H40 C63 1_555 1_555
C64 C63 1_555 1_555
H41 C64 1_555 1_555
C65 C60 1_555 1_555
C66 C65 1_555 1_555
H42 C66 1_555 1_555
C67 C66 1_555 1_555
H43 C67 1_555 1_555
C68 C59 1_555 1_555
C69 C68 1_555 1_555
C70 C69 1_555 1_555
H44 C70 1_555 1_555
C71 N4 1_555 1_555
C72 C71 1_555 1_555
H45 C72 1_555 1_555
C73 C72 1_555 1_555
H46 C73 1_555 1_555
C74 C69 1_555 1_555
H47 C74 1_555 1_555
C75 N4 1_555 1_555
H48 C75 1_555 1_555
N13 Zn3 1_555 1_555
C76 C75 1_555 1_555
C77 C76 1_555 1_555
H49 C77 1_555 1_555
C78 C77 1_555 1_555
H50 C78 1_555 1_555
C79 C78 1_555 1_555
H51 C79 1_555 1_555
C80 N13 1_555 1_555
H52 C80 1_555 1_555
N14 Zn2 1_555 1_555
C81 N14 1_555 1_555
H53 C81 1_555 1_555
C82 C81 1_555 1_555
H54 C82 1_555 1_555
C83 C82 1_555 1_555
H55 C83 1_555 1_555
C84 C83 1_555 1_555
H56 C84 1_555 1_555
C85 N14 1_555 1_555
C86 C85 1_555 1_555
H57 C86 1_555 1_555
C87 N5 1_555 1_555
C88 C87 1_555 1_555
H58 C88 1_555 1_555
C89 C88 1_555 1_555
C90 C89 1_555 1_555
H59 C90 1_555 1_555
C91 C90 1_555 1_555
H60 C91 1_555 1_555
C92 C87 1_555 1_555
H61 C92 1_555 1_555
C93 C89 1_555 1_555
C94 C93 1_555 1_555
H62 C94 1_555 1_555
C95 C94 1_555 1_555
H63 C95 1_555 1_555
C96 C95 1_555 1_555
C97 C96 1_555 1_555
H64 C97 1_555 1_555
C98 C97 1_555 1_555
H65 C98 1_555 1_555
C99 C98 1_555 1_555
C100 C99 1_555 1_555
C101 C96 1_555 1_555
C102 C93 1_555 1_555
C103 C102 1_555 1_555
H66 C103 1_555 1_555
C104 C103 1_555 1_555
H67 C104 1_555 1_555
C105 C100 1_555 1_555
C106 C105 1_555 1_555
H68 C106 1_555 1_555
C107 C106 1_555 1_555
H69 C107 1_555 1_555
C108 C99 1_555 1_555
C109 C108 1_555 1_555
C110 C109 1_555 1_555
H70 C110 1_555 1_555
C111 C110 1_555 1_555
C112 C111 1_555 1_555
H71 C112 1_555 1_555
C113 C112 1_555 1_555
H72 C113 1_555 1_555
C114 C109 1_555 1_555
H73 C114 1_555 1_555
N15 C116 1_555 1_555
N16 Zn4 1_555 1_555
C115 N16 1_555 1_555
H74 C115 1_555 1_555
C116 H75 1_555 1_555
C117 C116 1_555 1_555
H76 C117 1_555 1_555
C118 C117 1_555 1_555
H77 C118 1_555 1_555
C119 C118 1_555 1_555
H78 C119 1_555 1_555
C120 N15 1_555 1_555
N17 Zn2 1_555 1_555
C121 N17 1_555 1_555
H79 C121 1_555 1_555
C122 C121 1_555 1_555
H80 C122 1_555 1_555
C123 C122 1_555 1_555
H81 C123 1_555 1_555
C124 C123 1_555 1_555
H82 C124 1_555 1_555
C125 N17 1_555 1_555
C126 N6 1_555 1_555
H83 C126 1_555 1_555
C127 N6 1_555 1_555
C128 C127 1_555 1_555
H84 C128 1_555 1_555
C129 C128 1_555 1_555
C130 C129 1_555 1_555
H85 C130 1_555 1_555
C131 C130 1_555 1_555
H86 C131 1_555 1_555
C132 C127 1_555 1_555
H87 C132 1_555 1_555
C133 C129 1_555 1_555
C134 C133 1_555 1_555
H88 C134 1_555 1_555
C135 C134 1_555 1_555
H89 C135 1_555 1_555
C136 C135 1_555 1_555
C137 C136 1_555 1_555
H90 C137 1_555 1_555
C138 C137 1_555 1_555
H91 C138 1_555 1_555
C139 C138 1_555 1_555
C140 C139 1_555 1_555
C141 C136 1_555 1_555
C142 C133 1_555 1_555
C143 C142 1_555 1_555
H92 C143 1_555 1_555
C144 C143 1_555 1_555
H93 C144 1_555 1_555
C145 C140 1_555 1_555
C146 C145 1_555 1_555
H94 C146 1_555 1_555
C147 C146 1_555 1_555
H95 C147 1_555 1_555
C148 C139 1_555 1_555
C149 C148 1_555 1_555
C150 C149 1_555 1_555
H96 C150 1_555 1_555
C151 C150 1_555 1_555
C152 C151 1_555 1_555
H97 C152 1_555 1_555
C153 C152 1_555 1_555
H98 C153 1_555 1_555
C154 C149 1_555 1_555
H99 C154 1_555 1_555
N18 Zn4 1_555 1_555
N19 Zn4 1_555 1_555
C155 N19 1_555 1_555
H100 C155 1_555 1_555
C156 N18 1_555 1_555
C157 C156 1_555 1_555
H101 C157 1_555 1_555
C158 C157 1_555 1_555
H102 C158 1_555 1_555
C159 C158 1_555 1_555
H103 C159 1_555 1_555
C160 N18 1_555 1_555
H104 C160 1_555 1_555
N20 Zn2 1_555 1_555
C161 N20 1_555 1_555
H105 C161 1_555 1_555
C162 C161 1_555 1_555
H106 C162 1_555 1_555
C163 C162 1_555 1_555
H107 C163 1_555 1_555
C164 C163 1_555 1_555
H108 C164 1_555 1_555
C165 N20 1_555 1_555
C166 N7 1_555 1_555
H109 C166 1_555 1_555
C167 N7 1_555 1_555
C168 C167 1_555 1_555
H110 C168 1_555 1_555
C169 C168 1_555 1_555
C170 C169 1_555 1_555
H111 C170 1_555 1_555
C171 C170 1_555 1_555
H112 C171 1_555 1_555
C172 C167 1_555 1_555
H113 C172 1_555 1_555
C173 C169 1_555 1_555
C174 C173 1_555 1_555
H114 C174 1_555 1_555
C175 C174 1_555 1_555
H115 C175 1_555 1_555
C176 C175 1_555 1_555
C177 C176 1_555 1_555
H116 C177 1_555 1_555
C178 C177 1_555 1_555
H117 C178 1_555 1_555
C179 C178 1_555 1_555
C180 C179 1_555 1_555
C181 C176 1_555 1_555
C182 C173 1_555 1_555
C183 C182 1_555 1_555
H118 C183 1_555 1_555
C184 C183 1_555 1_555
H119 C184 1_555 1_555
C185 C180 1_555 1_555
C186 C185 1_555 1_555
H120 C186 1_555 1_555
C187 C186 1_555 1_555
H121 C187 1_555 1_555
C188 C179 1_555 1_555
C189 C188 1_555 1_555
C190 C189 1_555 1_555
H122 C190 1_555 1_555
C191 N8 1_555 1_555
C192 C191 1_555 1_555
H123 C192 1_555 1_555
C193 C192 1_555 1_555
H124 C193 1_555 1_555
C194 C189 1_555 1_555
H125 C194 1_555 1_555
C195 N8 1_555 1_555
H126 C195 1_555 1_555
N21 Zn1 1_555 1_555
C196 C195 1_555 1_555
C197 C196 1_555 1_555
H127 C197 1_555 1_555
C198 C197 1_555 1_555
H128 C198 1_555 1_555
C199 C198 1_555 1_555
H129 C199 1_555 1_555
C200 N21 1_555 1_555
H130 C200 1_555 1_555
N22 Zn3 1_555 1_555
C201 N22 1_555 1_555
H131 C201 1_555 1_555
C202 C201 1_555 1_555
H132 C202 1_555 1_555
C203 C202 1_555 1_555
H133 C203 1_555 1_555
C204 C203 1_555 1_555
H134 C204 1_555 1_555
C205 N22 1_555 1_555
C206 N9 1_555 1_555
H135 C206 1_555 1_555
C207 N9 1_555 1_555
C208 C207 1_555 1_555
H136 C208 1_555 1_555
C209 C208 1_555 1_555
C210 C209 1_555 1_555
H137 C210 1_555 1_555
C211 C210 1_555 1_555
H138 C211 1_555 1_555
C212 C207 1_555 1_555
H139 C212 1_555 1_555
C213 C209 1_555 1_555
C214 C213 1_555 1_555
H140 C214 1_555 1_555
C215 C214 1_555 1_555
H141 C215 1_555 1_555
C216 C215 1_555 1_555
C217 C216 1_555 1_555
H142 C217 1_555 1_555
C218 C217 1_555 1_555
H143 C218 1_555 1_555
C219 C218 1_555 1_555
C220 C219 1_555 1_555
C221 C216 1_555 1_555
C222 C213 1_555 1_555
C223 C222 1_555 1_555
H144 C223 1_555 1_555
C224 C223 1_555 1_555
H145 C224 1_555 1_555
C225 C220 1_555 1_555
C226 C225 1_555 1_555
H146 C226 1_555 1_555
C227 C226 1_555 1_555
H147 C227 1_555 1_555
C228 C219 1_555 1_555
C229 C228 1_555 1_555
C230 C229 1_555 1_555
H148 C230 1_555 1_555
C231 C230 1_555 1_555
C232 C231 1_555 1_555
H149 C232 1_555 1_555
C233 C232 1_555 1_555
H150 C233 1_555 1_555
C234 C229 1_555 1_555
H151 C234 1_555 1_555
N23 Zn4 1_555 1_555
N24 Zn4 1_555 1_555
C235 N23 1_555 1_555
C236 C235 1_555 1_555
H152 C236 1_555 1_555
C237 C236 1_555 1_555
H153 C237 1_555 1_555
C238 C237 1_555 1_555
H154 C238 1_555 1_555
C239 N23 1_555 1_555
H155 C239 1_555 1_555
C240 N24 1_555 1_555
H156 C240 1_555 1_555
S1 C241 1_555 1_555
S2 C242 1_555 1_555
C241 F1 1_555 1_555
C242 F4 1_555 1_555
F2 C241 1_555 1_555
F3 C241 1_555 1_555
F5 C242 1_555 1_555
F6 C242 1_555 1_555
N25 S1 1_555 1_555
O1 S1 1_555 1_555
O2 S1 1_555 1_555
O3 S2 1_555 1_555
O4 S2 1_555 1_555
S3 C243 1_555 1_555
S4 C244 1_555 1_555
C243 F7 1_555 1_555
C244 F9 1_555 1_555
F8 C243 1_555 1_555
N26 S3 1_555 1_555
O5 S3 1_555 1_555
F10 C244 1_555 1_555
F11 C244 1_555 1_555
O6 S4 1_555 1_555
O7 S4 1_555 1_555
O8 S3 1_555 1_555
F12 C243 1_555 1_555
S5 C245 1_555 1_555
S6 C246 1_555 1_555
C245 F13 1_555 1_555
C246 F16 1_555 1_555
N27 S5 1_555 1_555
O9 S5 1_555 1_555
O10 S5 1_555 1_555
O11 S6 1_555 1_555
O12 S6 1_555 1_555
F14 C245 1_555 1_555
F15 C245 1_555 1_555
F17 C246 1_555 1_555
F18 C246 1_555 1_555
B1 F19 1_555 1_555
F20 B1 1_555 1_555
F21 B1 1_555 1_555
F22 B1 1_555 1_555
C247 H157 1_555 1_555
C248 C247 1_555 1_555
H158 C248 1_555 1_555
C249 C248 1_555 1_555
H159 C249 1_555 1_555
C250 C249 1_555 1_555
H160 C250 1_555 1_555
C251 C250 1_555 1_555
H161 C251 1_555 1_555
C252 C247 1_555 1_555
H162 C252 1_555 1_555
C259 H169 1_555 1_555
C260 C259 1_555 1_555
H170 C260 1_555 1_555
C261 C260 1_555 1_555
H171 C261 1_555 1_555
C262 C261 1_555 1_555
H172 C262 1_555 1_555
C263 C262 1_555 1_555
H173 C263 1_555 1_555
C264 C259 1_555 1_555
H174 C264 1_555 1_555
N28 C265 1_555 1_555
C265 C266 1_555 1_555
C266 H175 1_555 1_555
H176 C266 1_555 1_555
H177 C266 1_555 1_555
N29 C267 1_555 1_555
C267 C268 1_555 1_555
C268 H178 1_555 1_555
H179 C268 1_555 1_555
H180 C268 1_555 1_555
C4 C5 1_555 1_555
C11 C12 1_555 1_555
C20 C21 1_555 1_555
C21 C22 1_555 1_555
C24 C25 1_555 1_555
C27 C28 1_555 1_555
C33 C34 1_555 1_555
N11 C36 1_555 1_555
C39 C40 1_555 1_555
C44 C45 1_555 1_555
C45 C46 1_555 1_555
C51 C52 1_555 1_555
C60 C61 1_555 1_555
C61 C62 1_555 1_555
C64 C65 1_555 1_555
C67 C68 1_555 1_555
C70 C71 1_555 1_555
C73 C74 1_555 1_555
N13 C76 1_555 1_555
C79 C80 1_555 1_555
C84 C85 1_555 1_555
C91 C92 1_555 1_555
C100 C101 1_555 1_555
C101 C102 1_555 1_555
C104 C105 1_555 1_555
C107 C108 1_555 1_555
C111 N16 1_555 1_555
C113 C114 1_555 1_555
C115 C120 1_555 1_555
C119 C120 1_555 1_555
C124 C125 1_555 1_555
C125 C126 1_555 1_555
C131 C132 1_555 1_555
C140 C141 1_555 1_555
C141 C142 1_555 1_555
C144 C145 1_555 1_555
C147 C148 1_555 1_555
C151 N19 1_555 1_555
C153 C154 1_555 1_555
C155 C156 1_555 1_555
C159 C160 1_555 1_555
C164 C165 1_555 1_555
C165 C166 1_555 1_555
C171 C172 1_555 1_555
C180 C181 1_555 1_555
C181 C182 1_555 1_555
C184 C185 1_555 1_555
C187 C188 1_555 1_555
C190 C191 1_555 1_555
C193 C194 1_555 1_555
N21 C196 1_555 1_555
C199 C200 1_555 1_555
C204 C205 1_555 1_555
C205 C206 1_555 1_555
C211 C212 1_555 1_555
C220 C221 1_555 1_555
C221 C222 1_555 1_555
C224 C225 1_555 1_555
C227 C228 1_555 1_555
C231 N24 1_555 1_555
C233 C234 1_555 1_555
C235 C240 1_555 1_555
C238 C239 1_555 1_555
S2 N25 1_555 1_555
S4 N26 1_555 1_555
S6 N27 1_555 1_555
C251 C252 1_555 1_555
C263 C264 1_555 1_555

#END
