
#######################################################################
#
#                 Cambridge Crystallographic Data Centre
#                                CCDC 
#
#######################################################################
#
# If this CIF has been generated from an entry in the Cambridge 
# Structural Database, then it will include bibliographic, chemical, 
# crystal, experimental, refinement or atomic coordinate data resulting 
# from the CCDC's data processing and validation procedures.
#
#######################################################################

data_SUWHEZ
_chemical_formula_moiety         
'C88 H64 Co2 N12 4+,2(C6 H6),4(F6 Sb1 1-),4(C2 H3 N1)'
_chemical_name_systematic        
"bis(\m-N,N'-(pyrene-2,7-diyldi-3,1-phenylene)bis(1-(pyridin-2-yl)methanimine))-tetrakis(acetonitrile)-di-cobalt tetrakis(hexafluoroantimonate) acetonitrile benzene solvate"
_symmetry_cell_setting           monoclinic
_symmetry_space_group_name_H-M   'P 21/n'
_symmetry_Int_Tables_number      14
_space_group_name_Hall           '-P 2yn'
loop_
_symmetry_equiv_pos_site_id
_symmetry_equiv_pos_as_xyz
1 x,y,z
2 1/2-x,1/2+y,1/2-z
3 -x,-y,-z
4 1/2+x,1/2-y,1/2+z
_cell_length_a                   10.2268(9)
_cell_length_b                   28.417(3)
_cell_length_c                   18.6761(17)
_cell_angle_alpha                90
_cell_angle_beta                 101.443(4)
_cell_angle_gamma                90
_cell_volume                     5319.67
_exptl_crystal_colour            orange
_exptl_crystal_description       block
_cell_formula_units_Z            2
loop_
_atom_site_label
_atom_site_type_symbol
_atom_site_fract_x
_atom_site_fract_y
_atom_site_fract_z
Co1 Co 0.94269(8) 0.82617(3) -0.01991(4)
N1 N 1.0329(4) 0.82198(14) 0.0907(2)
N2 N 0.8401(4) 0.76648(13) 0.0179(2)
N3 N 0.9163(4) 0.22184(13) 0.0538(2)
N4 N 1.1336(4) 0.18109(14) 0.1326(2)
C1 C 1.1261(6) 0.85040(19) 0.1272(3)
H1 H 1.1537 0.8767 0.1025
C2 C 1.1848(6) 0.8433(2) 0.2002(3)
H2 H 1.2506 0.8646 0.2246
C3 C 1.1471(6) 0.8059(2) 0.2360(3)
H3 H 1.1869 0.8003 0.2858
C4 C 1.0491(6) 0.77535(19) 0.1993(3)
H4 H 1.0203 0.7491 0.2235
C5 C 0.9950(5) 0.78444(17) 0.1263(3)
C6 C 0.8882(5) 0.75567(17) 0.0844(3)
H5 H 0.8549 0.7292 0.1063
C7 C 0.7332(5) 0.73870(17) -0.0227(3)
C8 C 0.6273(5) 0.76172(18) -0.0681(3)
H6 H 0.6274 0.7950 -0.0722
C9 C 0.5227(5) 0.73589(18) -0.1070(3)
H7 H 0.4493 0.7515 -0.1366
C10 C 0.5245(5) 0.68744(17) -0.1028(3)
H8 H 0.4528 0.6700 -0.1306
C11 C 0.6295(5) 0.66362(17) -0.0587(3)
C12 C 0.7344(5) 0.68990(17) -0.0175(3)
H9 H 0.8059 0.6744 0.0139
C13 C 0.6324(5) 0.61147(17) -0.0542(3)
C14 C 0.5931(5) 0.58425(17) -0.1172(3)
H10 H 0.5634 0.5995 -0.1628
C15 C 0.5967(5) 0.53524(17) -0.1145(3)
C16 C 0.6391(4) 0.51250(16) -0.0461(3)
C17 C 0.6775(4) 0.54005(16) 0.0184(3)
C18 C 0.6737(5) 0.58897(16) 0.0128(3)
H11 H 0.6998 0.6074 0.0557
C19 C 0.6428(4) 0.46251(16) -0.0422(2)
C20 C 0.6873(5) 0.43992(16) 0.0265(2)
C21 C 0.6941(5) 0.39113(16) 0.0284(3)
H12 H 0.7267 0.3759 0.0736
C22 C 0.6543(5) 0.36379(16) -0.0345(3)
C23 C 0.6056(5) 0.38626(17) -0.1008(3)
H13 H 0.5745 0.3679 -0.1432
C24 C 0.6015(5) 0.43536(16) -0.1059(3)
C25 C 0.7173(5) 0.51615(17) 0.0869(3)
H14 H 0.7406 0.5340 0.1305
C26 C 0.7222(5) 0.46889(17) 0.0906(3)
H15 H 0.7494 0.4542 0.1369
C27 C 0.5587(5) 0.50640(17) -0.1788(3)
H16 H 0.5323 0.5211 -0.2251
C28 C 0.5599(5) 0.45911(17) -0.1747(3)
H17 H 0.5328 0.4411 -0.2179
C29 C 0.6669(5) 0.31184(17) -0.0308(3)
C30 C 0.5671(5) 0.28226(17) -0.0679(3)
H18 H 0.4876 0.2956 -0.0954
C31 C 0.5822(5) 0.23382(18) -0.0654(3)
H19 H 0.5129 0.2142 -0.0906
C32 C 0.6978(5) 0.21387(18) -0.0263(3)
H20 H 0.7091 0.1807 -0.0255
C33 C 0.7977(5) 0.24280(17) 0.0120(3)
C34 C 0.7833(5) 0.29125(16) 0.0091(3)
H21 H 0.8529 0.3107 0.0344
C35 C 0.9531(5) 0.23531(17) 0.1196(3)
H22 H 0.9052 0.2594 0.1387
C36 C 1.0704(5) 0.21339(17) 0.1662(3)
C37 C 1.1052(6) 0.2231(2) 0.2391(3)
H23 H 1.0586 0.2463 0.2608
C38 C 1.2103(6) 0.1981(2) 0.2810(3)
H24 H 1.2379 0.2042 0.3318
C39 C 1.2726(6) 0.1650(2) 0.2476(3)
H25 H 1.3437 0.1471 0.2751
C40 C 1.2323(6) 0.1574(2) 0.1738(3)
H26 H 1.2774 0.1342 0.1513
C41 C 0.6868(7) 0.8871(2) 0.0047(3)
C42 C 0.5624(8) 0.9099(3) 0.0097(4)
H27 H 0.4964 0.9039 -0.0350
H28 H 0.5770 0.9438 0.0160
H29 H 0.5297 0.8973 0.0518
C43 C 1.0975(6) 0.9158(2) -0.0669(3)
C44 C 1.1560(7) 0.9553(2) -0.0995(4)
H30 H 1.1414 0.9510 -0.1526
H31 H 1.2520 0.9568 -0.0794
H32 H 1.1138 0.9847 -0.0885
N5 N 0.7813(5) 0.86915(16) -0.0020(3)
N6 N 1.0519(5) 0.88538(15) -0.0428(3)
Co1B Co 1.05731(8) 0.17383(3) 0.01991(4)
N1B N 0.9671(4) 0.17802(14) -0.0907(2)
N2B N 1.1599(4) 0.23352(13) -0.0179(2)
N3B N 1.0837(4) 0.77816(13) -0.0538(2)
N4B N 0.8664(4) 0.81891(14) -0.1326(2)
C1B C 0.8739(6) 0.14960(19) -0.1272(3)
H1B H 0.8463 0.1233 -0.1025
C2B C 0.8152(6) 0.1567(2) -0.2002(3)
H2B H 0.7494 0.1354 -0.2246
C3B C 0.8529(6) 0.1941(2) -0.2360(3)
H3B H 0.8131 0.1997 -0.2858
C4B C 0.9509(6) 0.22465(19) -0.1993(3)
H4B H 0.9797 0.2509 -0.2235
C5B C 1.0050(5) 0.21556(17) -0.1263(3)
C6B C 1.1118(5) 0.24433(17) -0.0844(3)
H5B H 1.1451 0.2708 -0.1063
C7B C 1.2668(5) 0.26130(17) 0.0227(3)
C8B C 1.3727(5) 0.23828(18) 0.0681(3)
H6B H 1.3726 0.2050 0.0722
C9B C 1.4773(5) 0.26411(18) 0.1070(3)
H7B H 1.5507 0.2485 0.1366
C10B C 1.4755(5) 0.31256(17) 0.1028(3)
H8B H 1.5472 0.3300 0.1306
C11B C 1.3705(5) 0.33638(17) 0.0587(3)
C12B C 1.2656(5) 0.31010(17) 0.0175(3)
H9B H 1.1941 0.3256 -0.0139
C13B C 1.3676(5) 0.38853(17) 0.0542(3)
C14B C 1.4069(5) 0.41575(17) 0.1172(3)
H10B H 1.4366 0.4005 0.1628
C15B C 1.4033(5) 0.46476(17) 0.1145(3)
C16B C 1.3609(4) 0.48750(16) 0.0461(3)
C17B C 1.3225(4) 0.45995(16) -0.0184(3)
C18B C 1.3263(5) 0.41103(16) -0.0128(3)
H11B H 1.3002 0.3926 -0.0557
C19B C 1.3572(4) 0.53749(16) 0.0422(2)
C20B C 1.3127(5) 0.56008(16) -0.0265(2)
C21B C 1.3059(5) 0.60887(16) -0.0284(3)
H12B H 1.2733 0.6241 -0.0736
C22B C 1.3457(5) 0.63621(16) 0.0345(3)
C23B C 1.3944(5) 0.61374(17) 0.1008(3)
H13B H 1.4255 0.6321 0.1432
C24B C 1.3985(5) 0.56464(16) 0.1059(3)
C25B C 1.2827(5) 0.48385(17) -0.0869(3)
H14B H 1.2594 0.4660 -0.1305
C26B C 1.2778(5) 0.53111(17) -0.0906(3)
H15B H 1.2506 0.5458 -0.1369
C27B C 1.4413(5) 0.49360(17) 0.1788(3)
H16B H 1.4677 0.4789 0.2251
C28B C 1.4401(5) 0.54089(17) 0.1747(3)
H17B H 1.4672 0.5589 0.2179
C29B C 1.3331(5) 0.68816(17) 0.0308(3)
C30B C 1.4329(5) 0.71774(17) 0.0679(3)
H18B H 1.5124 0.7044 0.0954
C31B C 1.4178(5) 0.76618(18) 0.0654(3)
H19B H 1.4871 0.7858 0.0906
C32B C 1.3022(5) 0.78613(18) 0.0263(3)
H20B H 1.2909 0.8193 0.0255
C33B C 1.2023(5) 0.75720(17) -0.0120(3)
C34B C 1.2167(5) 0.70875(16) -0.0091(3)
H21B H 1.1471 0.6893 -0.0344
C35B C 1.0469(5) 0.76469(17) -0.1196(3)
H22B H 1.0948 0.7406 -0.1387
C36B C 0.9296(5) 0.78661(17) -0.1662(3)
C37B C 0.8948(6) 0.7769(2) -0.2391(3)
H23B H 0.9414 0.7537 -0.2608
C38B C 0.7897(6) 0.8019(2) -0.2810(3)
H24B H 0.7621 0.7958 -0.3318
C39B C 0.7274(6) 0.8350(2) -0.2476(3)
H25B H 0.6563 0.8529 -0.2751
C40B C 0.7677(6) 0.8426(2) -0.1738(3)
H26B H 0.7226 0.8658 -0.1513
C41B C 1.3132(7) 0.1129(2) -0.0047(3)
C42B C 1.4376(8) 0.0901(3) -0.0097(4)
H27B H 1.5036 0.0961 0.0350
H28B H 1.4230 0.0562 -0.0160
H29B H 1.4703 0.1027 -0.0518
C43B C 0.9025(6) 0.0842(2) 0.0669(3)
C44B C 0.8440(7) 0.0447(2) 0.0995(4)
H30B H 0.8586 0.0490 0.1526
H31B H 0.7480 0.0432 0.0794
H32B H 0.8862 0.0153 0.0885
N5B N 1.2187(5) 0.13085(16) 0.0020(3)
N6B N 0.9481(5) 0.11462(15) 0.0428(3)
C45 C 0.6707(5) 0.3769(3) 0.2960(3)
H33 H 0.5842 0.3685 0.3031
C46 C 0.7549(7) 0.34257(19) 0.2773(3)
H34 H 0.7260 0.3108 0.2717
C47 C 0.8814(6) 0.3548(2) 0.2669(3)
H35 H 0.9389 0.3313 0.2541
C48 C 0.9237(5) 0.4013(3) 0.2751(3)
H36 H 1.0101 0.4097 0.2679
C49 C 0.8395(7) 0.43562(18) 0.2937(3)
H37 H 0.8684 0.4674 0.2993
C50 C 0.7130(6) 0.4234(2) 0.3042(3)
H38 H 0.6554 0.4468 0.3169
C51 C 0.0385(7) 0.5986(3) 0.1079(4)
C52 C 0.0629(8) 0.5556(3) 0.1466(7)
H39 H 0.1533 0.5559 0.1764
H40 H 0.0545 0.5294 0.1118
H41 H -0.0020 0.5517 0.1783
N7 N 0.0200(7) 0.6336(3) 0.0791(4)
C53 C 0.0686(6) 0.3773(3) 0.1213(3)
C54 C 0.0604(6) 0.4258(2) 0.0987(4)
H42 H 0.1163 0.4308 0.0624
H43 H 0.0916 0.4460 0.1411
H44 H -0.0324 0.4336 0.0771
N8 N 0.0738(6) 0.3390(2) 0.1394(3)
Sb1 Sb 0.24716(7) 0.49433(2) 0.36478(3)
F1 F 0.3108(7) 0.51910(18) 0.4566(3)
F2 F 0.4081(5) 0.46506(17) 0.3658(3)
F3 F 0.3095(7) 0.54664(16) 0.3232(3)
F4 F 0.1822(6) 0.46840(19) 0.2720(3)
F5 F 0.1876(5) 0.44048(14) 0.4080(3)
F6 F 0.0803(7) 0.5233(2) 0.3635(4)
Sb3 Sb 0.22251(5) 0.34750(4) 0.73310(4)
F7 F 0.0526(4) 0.32846(18) 0.7386(3)
F8 F 0.1839(5) 0.40994(15) 0.7488(3)
F9 F 0.1703(6) 0.3554(2) 0.6328(2)
F10 F 0.3963(4) 0.36462(15) 0.7267(2)
F11 F 0.2779(5) 0.33867(19) 0.8327(2)
F12 F 0.2634(4) 0.28503(14) 0.7194(3)
loop_
_geom_bond_atom_site_label_1
_geom_bond_atom_site_label_2
_geom_bond_site_symmetry_1
_geom_bond_site_symmetry_2
Co1 N1 1_555 1_555
N1 C1 1_555 1_555
N2 Co1 1_555 1_555
N3 C33 1_555 1_555
N4 C36 1_555 1_555
C1 H1 1_555 1_555
C2 C1 1_555 1_555
H2 C2 1_555 1_555
C3 C2 1_555 1_555
H3 C3 1_555 1_555
C4 C3 1_555 1_555
H4 C4 1_555 1_555
C5 N1 1_555 1_555
C6 N2 1_555 1_555
H5 C6 1_555 1_555
C7 N2 1_555 1_555
C8 C7 1_555 1_555
H6 C8 1_555 1_555
C9 C8 1_555 1_555
H7 C9 1_555 1_555
C10 C9 1_555 1_555
H8 C10 1_555 1_555
C11 C10 1_555 1_555
C12 C7 1_555 1_555
H9 C12 1_555 1_555
C13 C11 1_555 1_555
C14 C13 1_555 1_555
H10 C14 1_555 1_555
C15 C14 1_555 1_555
C16 C15 1_555 1_555
C17 C16 1_555 1_555
C18 C13 1_555 1_555
H11 C18 1_555 1_555
C19 C16 1_555 1_555
C20 C19 1_555 1_555
C21 C20 1_555 1_555
H12 C21 1_555 1_555
C22 C21 1_555 1_555
C23 C22 1_555 1_555
H13 C23 1_555 1_555
C24 C19 1_555 1_555
C25 C17 1_555 1_555
H14 C25 1_555 1_555
C26 C20 1_555 1_555
H15 C26 1_555 1_555
C27 C15 1_555 1_555
H16 C27 1_555 1_555
C28 C24 1_555 1_555
H17 C28 1_555 1_555
C29 C22 1_555 1_555
C30 C29 1_555 1_555
H18 C30 1_555 1_555
C31 C30 1_555 1_555
H19 C31 1_555 1_555
C32 C31 1_555 1_555
H20 C32 1_555 1_555
C33 C32 1_555 1_555
C34 C29 1_555 1_555
H21 C34 1_555 1_555
C35 N3 1_555 1_555
H22 C35 1_555 1_555
C36 C35 1_555 1_555
C37 C36 1_555 1_555
H23 C37 1_555 1_555
C38 C37 1_555 1_555
H24 C38 1_555 1_555
C39 C38 1_555 1_555
H25 C39 1_555 1_555
C40 N4 1_555 1_555
H26 C40 1_555 1_555
C41 C42 1_555 1_555
C42 H27 1_555 1_555
H28 C42 1_555 1_555
H29 C42 1_555 1_555
C43 C44 1_555 1_555
C44 H30 1_555 1_555
H31 C44 1_555 1_555
H32 C44 1_555 1_555
N5 Co1 1_555 1_555
N6 Co1 1_555 1_555
C45 H33 1_555 1_555
C46 C45 1_555 1_555
H34 C46 1_555 1_555
C47 C46 1_555 1_555
H35 C47 1_555 1_555
C48 C47 1_555 1_555
H36 C48 1_555 1_555
C49 C48 1_555 1_555
H37 C49 1_555 1_555
C50 C45 1_555 1_555
H38 C50 1_555 1_555
C51 C52 1_555 1_555
C52 H39 1_555 1_555
H40 C52 1_555 1_555
H41 C52 1_555 1_555
N7 C51 1_555 1_555
C53 C54 1_555 1_555
C54 H42 1_555 1_555
H43 C54 1_555 1_555
H44 C54 1_555 1_555
N8 C53 1_555 1_555
Sb1 F1 1_555 1_555
F2 Sb1 1_555 1_555
F3 Sb1 1_555 1_555
F4 Sb1 1_555 1_555
F5 Sb1 1_555 1_555
F6 Sb1 1_555 1_555
Sb3 F7 1_555 1_555
F8 Sb3 1_555 1_555
F9 Sb3 1_555 1_555
F10 Sb3 1_555 1_555
F11 Sb3 1_555 1_555
F12 Sb3 1_555 1_555
Co1B N3 1_555 1_555
N1B Co1B 1_555 1_555
N2B Co1B 1_555 1_555
N3B Co1 1_555 1_555
N4B Co1 1_555 1_555
C1B N1B 1_555 1_555
H1B C1B 1_555 1_555
C2B C1B 1_555 1_555
H2B C2B 1_555 1_555
C3B C2B 1_555 1_555
H3B C3B 1_555 1_555
C4B C3B 1_555 1_555
H4B C4B 1_555 1_555
C5B N1B 1_555 1_555
C6B N2B 1_555 1_555
H5B C6B 1_555 1_555
C7B N2B 1_555 1_555
C8B C7B 1_555 1_555
H6B C8B 1_555 1_555
C9B C8B 1_555 1_555
H7B C9B 1_555 1_555
C10B C9B 1_555 1_555
H8B C10B 1_555 1_555
C11B C10B 1_555 1_555
C12B C7B 1_555 1_555
H9B C12B 1_555 1_555
C13B C11B 1_555 1_555
C14B C13B 1_555 1_555
H10B C14B 1_555 1_555
C15B C14B 1_555 1_555
C16B C15B 1_555 1_555
C17B C16B 1_555 1_555
C18B C13B 1_555 1_555
H11B C18B 1_555 1_555
C19B C16B 1_555 1_555
C20B C19B 1_555 1_555
C21B C20B 1_555 1_555
H12B C21B 1_555 1_555
C22B C21B 1_555 1_555
C23B C22B 1_555 1_555
H13B C23B 1_555 1_555
C24B C19B 1_555 1_555
C25B C17B 1_555 1_555
H14B C25B 1_555 1_555
C26B C20B 1_555 1_555
H15B C26B 1_555 1_555
C27B C15B 1_555 1_555
H16B C27B 1_555 1_555
C28B C24B 1_555 1_555
H17B C28B 1_555 1_555
C29B C22B 1_555 1_555
C30B C29B 1_555 1_555
H18B C30B 1_555 1_555
C31B C30B 1_555 1_555
H19B C31B 1_555 1_555
C32B C31B 1_555 1_555
H20B C32B 1_555 1_555
C33B N3B 1_555 1_555
C34B C29B 1_555 1_555
H21B C34B 1_555 1_555
C35B N3B 1_555 1_555
H22B C35B 1_555 1_555
C36B N4B 1_555 1_555
C37B C36B 1_555 1_555
H23B C37B 1_555 1_555
C38B C37B 1_555 1_555
H24B C38B 1_555 1_555
C39B C38B 1_555 1_555
H25B C39B 1_555 1_555
C40B N4B 1_555 1_555
H26B C40B 1_555 1_555
C41B C42B 1_555 1_555
C42B H27B 1_555 1_555
H28B C42B 1_555 1_555
H29B C42B 1_555 1_555
C43B C44B 1_555 1_555
C44B H30B 1_555 1_555
H31B C44B 1_555 1_555
H32B C44B 1_555 1_555
N5B Co1B 1_555 1_555
N6B Co1B 1_555 1_555
N4 Co1B 1_555 1_555
C4 C5 1_555 1_555
C5 C6 1_555 1_555
C11 C12 1_555 1_555
C17 C18 1_555 1_555
C23 C24 1_555 1_555
C25 C26 1_555 1_555
C27 C28 1_555 1_555
C33 C34 1_555 1_555
C39 C40 1_555 1_555
C41 N5 1_555 1_555
C43 N6 1_555 1_555
C49 C50 1_555 1_555
C4B C5B 1_555 1_555
C5B C6B 1_555 1_555
C11B C12B 1_555 1_555
C17B C18B 1_555 1_555
C23B C24B 1_555 1_555
C25B C26B 1_555 1_555
C27B C28B 1_555 1_555
C32B C33B 1_555 1_555
C33B C34B 1_555 1_555
C35B C36B 1_555 1_555
C39B C40B 1_555 1_555
C41B N5B 1_555 1_555
C43B N6B 1_555 1_555

#END
