
#######################################################################
#
#                 Cambridge Crystallographic Data Centre
#                                CCDC 
#
#######################################################################
#
# If this CIF has been generated from an entry in the Cambridge 
# Structural Database, then it will include bibliographic, chemical, 
# crystal, experimental, refinement or atomic coordinate data resulting 
# from the CCDC's data processing and validation procedures.
#
#######################################################################

data_SUWHAV
_chemical_formula_moiety         
'C236 H148 N28 O8 Zn4 8+,4(C2 F6 N1 O4 S2 1-),7(C2 H3 N1),4(B1 F4 1-)'
_chemical_name_systematic        
"bis(\m-2,7-bis(4-((pyridin-2-ylmethylene)amino)phenyl)benzo[lmn][3,8]phenanthroline-1,3,6,8(2H,7H)-tetrone)-tetrakis(\m-N,N'-(pyrene-2,7-diyldi-3,1-phenylene)bis(1-(pyridin-2-yl)methanimine))-tetra-zinc tetrakis(bis((trifluoromethyl)sulfonyl)azanide) tetrakis(tetrafluoroborate) acetonitrile solvate"
_symmetry_cell_setting           monoclinic
_symmetry_space_group_name_H-M   'P 21/c'
_symmetry_Int_Tables_number      14
_space_group_name_Hall           '-P 2ybc'
loop_
_symmetry_equiv_pos_site_id
_symmetry_equiv_pos_as_xyz
1 x,y,z
2 -x,1/2+y,1/2-z
3 -x,-y,-z
4 x,1/2-y,1/2+z
_cell_length_a                   14.8197(7)
_cell_length_b                   47.047(2)
_cell_length_c                   20.2550(9)
_cell_angle_alpha                90
_cell_angle_beta                 104.428(2)
_cell_angle_gamma                90
_cell_volume                     13676.8
_exptl_crystal_colour            pink
_exptl_crystal_description       block
_cell_formula_units_Z            2
_exptl_crystal_recrystallization_method 
'Re-crystallisation from solvent: acetonitrile, benzene'
loop_
_atom_site_label
_atom_site_type_symbol
_atom_site_fract_x
_atom_site_fract_y
_atom_site_fract_z
Zn1 Zn 0.48996(8) 0.12780(2) 0.45629(6)
Zn2 Zn 0.97206(7) 0.48301(2) 0.74374(5)
N1 N 0.3573(6) 0.11838(15) 0.4764(4)
N2 N 0.5111(6) 0.14082(14) 0.5611(4)
N3 N 0.8592(4) 0.46147(13) 0.7706(3)
N4 N 1.0153(5) 0.48225(13) 0.8536(3)
C1 C 0.2811(7) 0.1077(2) 0.4343(6)
H1 H 0.2851 0.1016 0.3904
C2 C 0.1969(9) 0.1052(3) 0.4510(7)
H2 H 0.1437 0.0975 0.4200
C3 C 0.1933(10) 0.1143(4) 0.5143(8)
H3 H 0.1364 0.1130 0.5277
C4 C 0.2704(9) 0.1251(3) 0.5587(7)
H4 H 0.2676 0.1314 0.6028
C5 C 0.3537(7) 0.1270(2) 0.5383(5)
C6 C 0.4397(7) 0.1384(2) 0.5823(5)
H5 H 0.4411 0.1439 0.6277
C7 C 0.5949(6) 0.15251(17) 0.6039(4)
C8 C 0.5996(7) 0.18147(16) 0.6177(4)
H6 H 0.5460 0.1929 0.6009
C9 C 0.6808(6) 0.19404(16) 0.6556(4)
C10 C 0.7590(7) 0.17655(17) 0.6790(4)
H7 H 0.8157 0.1845 0.7050
C11 C 0.7542(7) 0.14769(17) 0.6646(4)
H8 H 0.8080 0.1362 0.6802
C12 C 0.6726(7) 0.13552(18) 0.6280(4)
H9 H 0.6695 0.1157 0.6193
C13 C 0.6844(6) 0.22529(16) 0.6685(4)
C14 C 0.6024(6) 0.24075(16) 0.6610(4)
H10 H 0.5446 0.2310 0.6534
C15 C 0.6039(6) 0.27038(16) 0.6646(4)
C16 C 0.6903(5) 0.28513(15) 0.6783(4)
C17 C 0.7738(6) 0.26941(16) 0.6910(4)
C18 C 0.7685(6) 0.23947(17) 0.6844(4)
H11 H 0.8246 0.2288 0.6912
C19 C 0.6914(5) 0.31504(15) 0.6777(4)
C20 C 0.6074(5) 0.33057(16) 0.6618(4)
C21 C 0.6118(6) 0.36031(16) 0.6597(4)
H12 H 0.5555 0.3709 0.6465
C22 C 0.6960(5) 0.37477(15) 0.6763(4)
C23 C 0.7779(6) 0.35914(16) 0.6922(4)
H13 H 0.8359 0.3689 0.7025
C24 C 0.7771(5) 0.32930(16) 0.6935(4)
C25 C 0.5203(6) 0.28672(17) 0.6532(5)
H14 H 0.4624 0.2772 0.6477
C26 C 0.5213(6) 0.31553(17) 0.6500(5)
H15 H 0.4642 0.3257 0.6398
C27 C 0.8597(6) 0.28470(17) 0.7072(5)
H16 H 0.9166 0.2744 0.7169
C28 C 0.8624(6) 0.31299(17) 0.7093(4)
H17 H 0.9207 0.3225 0.7212
C29 C 0.7002(5) 0.40656(16) 0.6766(4)
C30 C 0.7706(5) 0.41962(15) 0.7243(4)
H18 H 0.8122 0.4085 0.7577
C31 C 0.7811(5) 0.44888(16) 0.7236(4)
C32 C 0.7197(5) 0.46540(17) 0.6776(4)
H19 H 0.7273 0.4854 0.6772
C33 C 0.6463(6) 0.45232(17) 0.6317(5)
H20 H 0.6025 0.4637 0.6005
C34 C 0.6357(6) 0.42346(16) 0.6302(4)
H21 H 0.5852 0.4149 0.5981
C35 C 0.8745(6) 0.45616(16) 0.8341(4)
H22 H 0.8303 0.4455 0.8507
C36 C 0.9582(6) 0.46610(17) 0.8808(4)
C37 C 0.9796(7) 0.4594(2) 0.9484(4)
H23 H 0.9386 0.4480 0.9666
C38 C 1.0621(7) 0.4694(2) 0.9904(5)
H24 H 1.0786 0.4650 1.0376
C39 C 1.1196(7) 0.4858(2) 0.9625(5)
H25 H 1.1766 0.4930 0.9899
C40 C 1.0926(6) 0.49164(19) 0.8936(4)
H26 H 1.1323 0.5031 0.8743
N5 N 0.4469(5) 0.12155(14) 0.3489(4)
N6 N 0.4367(5) 0.17110(14) 0.4151(4)
N7 N 0.9182(4) 0.48336(13) 0.6307(3)
N8 N 0.9109(5) 0.52371(13) 0.7245(3)
C41 C 0.4537(7) 0.0977(2) 0.3159(5)
H27 H 0.4737 0.0809 0.3414
C42 C 0.4326(7) 0.0963(2) 0.2450(5)
H28 H 0.4421 0.0793 0.2225
C43 C 0.3974(8) 0.1203(2) 0.2082(5)
H29 H 0.3781 0.1197 0.1599
C44 C 0.3906(7) 0.1449(2) 0.2420(5)
H30 H 0.3686 0.1617 0.2173
C45 C 0.4162(7) 0.14513(19) 0.3126(4)
C46 C 0.4099(7) 0.17079(19) 0.3518(5)
H31 H 0.3849 0.1876 0.3284
C47 C 0.4251(6) 0.19721(16) 0.4491(4)
C48 C 0.4857(6) 0.21997(16) 0.4501(4)
H32 H 0.5378 0.2181 0.4310
C49 C 0.4688(6) 0.24549(16) 0.4797(5)
C50 C 0.3920(6) 0.24790(19) 0.5077(5)
H33 H 0.3793 0.2656 0.5263
C51 C 0.3339(7) 0.2247(2) 0.5087(6)
H34 H 0.2830 0.2263 0.5292
C52 C 0.3510(7) 0.19949(19) 0.4797(5)
H35 H 0.3121 0.1835 0.4806
C53 C 0.5313(6) 0.27058(16) 0.4824(4)
C54 C 0.6275(5) 0.26698(16) 0.5006(4)
H36 H 0.6522 0.2483 0.5080
C55 C 0.6885(5) 0.28982(15) 0.5084(4)
C56 C 0.6507(5) 0.31827(14) 0.4957(4)
C57 C 0.5537(5) 0.32172(15) 0.4758(4)
C58 C 0.4951(6) 0.29789(16) 0.4695(5)
H37 H 0.4295 0.3005 0.4562
C59 C 0.7119(5) 0.34151(14) 0.5049(4)
C60 C 0.8093(5) 0.33760(15) 0.5261(4)
C61 C 0.8673(6) 0.36169(15) 0.5358(4)
H38 H 0.9329 0.3592 0.5484
C62 C 0.8313(5) 0.38908(15) 0.5274(4)
C63 C 0.7357(5) 0.39253(16) 0.5065(4)
H39 H 0.7106 0.4112 0.4998
C64 C 0.6757(5) 0.36946(15) 0.4949(4)
C65 C 0.7875(5) 0.28714(16) 0.5291(4)
H40 H 0.8133 0.2686 0.5375
C66 C 0.8462(6) 0.30927(16) 0.5373(4)
H41 H 0.9117 0.3063 0.5504
C67 C 0.5189(6) 0.35026(16) 0.4650(5)
H42 H 0.4535 0.3533 0.4517
C68 C 0.5765(5) 0.37272(16) 0.4731(4)
H43 H 0.5509 0.3913 0.4643
C69 C 0.8954(5) 0.41430(15) 0.5406(4)
C70 C 0.8745(5) 0.43753(16) 0.5764(4)
H44 H 0.8210 0.4372 0.5942
C71 C 0.9323(5) 0.46115(16) 0.5858(4)
C72 C 1.0089(6) 0.46190(18) 0.5597(4)
H45 H 1.0466 0.4785 0.5650
C73 C 1.0319(6) 0.43864(17) 0.5255(4)
H46 H 1.0861 0.4390 0.5085
C74 C 0.9757(5) 0.41505(17) 0.5165(4)
H47 H 0.9918 0.3990 0.4935
C75 C 0.8972(6) 0.50867(16) 0.6108(4)
H48 H 0.8867 0.5130 0.5637
C76 C 0.8888(6) 0.53087(16) 0.6577(4)
C77 C 0.8665(8) 0.55823(19) 0.6374(5)
H49 H 0.8549 0.5633 0.5906
C78 C 0.8612(8) 0.5785(2) 0.6861(5)
H50 H 0.8464 0.5977 0.6729
C79 C 0.8771(7) 0.57081(19) 0.7526(5)
H51 H 0.8701 0.5841 0.7864
C80 C 0.9038(6) 0.54293(17) 0.7699(4)
H52 H 0.9175 0.5376 0.8165
N9 N 0.8960(4) 0.50087(13) 0.2754(3)
N10 N 0.9498(4) 0.55510(13) 0.2621(3)
N11 N 0.7381(5) 0.24197(13) 0.3714(3)
N12 N 0.8220(5) 0.38715(13) 0.3314(3)
N13 N 0.5557(5) 0.08738(13) 0.4837(3)
N14 N 0.6340(5) 0.13515(14) 0.4502(3)
C81 C 0.5179(7) 0.06408(17) 0.5010(4)
H53 H 0.4527 0.0637 0.4969
C82 C 0.5704(7) 0.04018(18) 0.5249(5)
H54 H 0.5409 0.0236 0.5363
C83 C 0.6628(8) 0.0403(2) 0.5320(6)
H55 H 0.6992 0.0240 0.5488
C84 C 0.7046(8) 0.06464(19) 0.5146(5)
H56 H 0.7700 0.0653 0.5193
C85 C 0.6496(7) 0.08766(17) 0.4903(4)
C86 C 0.6872(7) 0.11366(17) 0.4693(5)
H57 H 0.7514 0.1147 0.4698
C87 C 0.6710(6) 0.16098(17) 0.4299(4)
C88 C 0.7226(6) 0.17923(16) 0.4783(4)
H58 H 0.7408 0.1738 0.5249
C89 C 0.7475(6) 0.20540(16) 0.4581(4)
H59 H 0.7835 0.2180 0.4909
C90 C 0.7203(6) 0.21347(16) 0.3903(4)
C91 C 0.6699(6) 0.19483(18) 0.3419(4)
H60 H 0.6519 0.2002 0.2953
C92 C 0.6459(7) 0.16815(18) 0.3619(4)
H61 H 0.6127 0.1551 0.3290
C93 C 0.6790(6) 0.29025(16) 0.3382(4)
C94 C 0.6058(6) 0.30860(17) 0.3179(4)
H62 H 0.5437 0.3017 0.3073
C95 C 0.6231(6) 0.33785(17) 0.3129(4)
H63 H 0.5723 0.3506 0.2989
C96 C 0.7111(6) 0.34790(16) 0.3277(4)
C97 C 0.7881(6) 0.32928(16) 0.3471(4)
C98 C 0.7718(6) 0.29984(16) 0.3528(4)
C99 C 0.8492(6) 0.28111(16) 0.3721(4)
C100 C 0.9366(6) 0.29122(18) 0.3846(5)
H64 H 0.9876 0.2785 0.3975
C101 C 0.9537(6) 0.32052(18) 0.3789(5)
H65 H 1.0158 0.3274 0.3880
C102 C 0.8803(6) 0.33886(16) 0.3602(4)
C103 C 0.6594(7) 0.25926(17) 0.3464(4)
C104 C 0.8303(7) 0.25054(19) 0.3810(5)
C105 C 0.7290(6) 0.37875(17) 0.3206(4)
C106 C 0.9002(6) 0.36982(17) 0.3521(4)
C107 C 0.8385(6) 0.41679(16) 0.3172(4)
C108 C 0.8298(5) 0.43774(16) 0.3626(4)
H66 H 0.8118 0.4331 0.4031
C109 C 0.8475(5) 0.46566(16) 0.3487(4)
H67 H 0.8420 0.4802 0.3799
C110 C 0.8729(5) 0.47236(16) 0.2900(4)
C111 C 0.8809(6) 0.45154(17) 0.2442(4)
H68 H 0.8982 0.4562 0.2034
C112 C 0.8634(6) 0.42357(17) 0.2589(4)
H69 H 0.8688 0.4089 0.2278
C113 C 0.8422(6) 0.52111(16) 0.2853(4)
H70 H 0.7860 0.5167 0.2978
C114 C 0.8673(5) 0.55087(15) 0.2772(4)
C115 C 0.8091(7) 0.57271(18) 0.2834(5)
H71 H 0.7510 0.5690 0.2935
C116 C 0.8365(7) 0.6005(2) 0.2746(6)
H72 H 0.7977 0.6162 0.2789
C117 C 0.9186(7) 0.60464(19) 0.2600(6)
H73 H 0.9387 0.6234 0.2538
C118 C 0.9744(6) 0.58183(17) 0.2540(5)
H74 H 1.0326 0.5853 0.2438
O1 O 0.8939(5) 0.23351(13) 0.3981(4)
O2 O 0.5811(4) 0.24989(12) 0.3329(3)
O3 O 0.9778(4) 0.37921(12) 0.3628(3)
O4 O 0.6664(4) 0.39602(12) 0.3060(3)
Zn1B Zn 1.51004(8) 0.87220(2) 0.54371(6)
Zn2B Zn 1.02794(7) 0.51699(2) 0.25626(5)
N1B N 1.6427(6) 0.88162(15) 0.5236(4)
N2B N 1.4889(6) 0.85918(14) 0.4389(4)
N3B N 1.1408(4) 0.53853(13) 0.2294(3)
N4B N 0.9847(5) 0.51775(13) 0.1464(3)
C1B C 1.7189(7) 0.8923(2) 0.5657(6)
H1B H 1.7149 0.8984 0.6096
C2B C 1.8031(9) 0.8948(3) 0.5490(7)
H2B H 1.8563 0.9025 0.5800
C3B C 1.8067(10) 0.8857(4) 0.4857(8)
H3B H 1.8636 0.8870 0.4723
C4B C 1.7296(9) 0.8749(3) 0.4413(7)
H4B H 1.7324 0.8686 0.3972
C5B C 1.6463(7) 0.8730(2) 0.4617(5)
C6B C 1.5603(7) 0.8616(2) 0.4177(5)
H5B H 1.5589 0.8561 0.3723
C7B C 1.4051(6) 0.84749(17) 0.3961(4)
C8B C 1.4004(7) 0.81853(16) 0.3823(4)
H6B H 1.4540 0.8071 0.3991
C9B C 1.3192(6) 0.80596(16) 0.3444(4)
C10B C 1.2410(7) 0.82345(17) 0.3210(4)
H7B H 1.1843 0.8155 0.2950
C11B C 1.2458(7) 0.85231(17) 0.3354(4)
H8B H 1.1920 0.8638 0.3198
C12B C 1.3274(7) 0.86448(18) 0.3720(4)
H9B H 1.3305 0.8843 0.3807
C13B C 1.3156(6) 0.77471(16) 0.3315(4)
C14B C 1.3976(6) 0.75925(16) 0.3390(4)
H10B H 1.4554 0.7690 0.3466
C15B C 1.3961(6) 0.72962(16) 0.3354(4)
C16B C 1.3097(5) 0.71487(15) 0.3217(4)
C17B C 1.2262(6) 0.73059(16) 0.3090(4)
C18B C 1.2315(6) 0.76053(17) 0.3156(4)
H11B H 1.1754 0.7712 0.3088
C19B C 1.3086(5) 0.68496(15) 0.3223(4)
C20B C 1.3926(5) 0.66943(16) 0.3382(4)
C21B C 1.3882(6) 0.63969(16) 0.3403(4)
H12B H 1.4445 0.6291 0.3535
C22B C 1.3040(5) 0.62523(15) 0.3237(4)
C23B C 1.2221(6) 0.64086(16) 0.3078(4)
H13B H 1.1641 0.6311 0.2975
C24B C 1.2229(5) 0.67070(16) 0.3065(4)
C25B C 1.4797(6) 0.71328(17) 0.3468(5)
H14B H 1.5376 0.7228 0.3523
C26B C 1.4787(6) 0.68447(17) 0.3500(5)
H15B H 1.5358 0.6743 0.3602
C27B C 1.1403(6) 0.71530(17) 0.2928(5)
H16B H 1.0834 0.7256 0.2831
C28B C 1.1376(6) 0.68701(17) 0.2907(4)
H17B H 1.0793 0.6775 0.2788
C29B C 1.2998(5) 0.59344(16) 0.3234(4)
C30B C 1.2294(5) 0.58038(15) 0.2757(4)
H18B H 1.1878 0.5915 0.2423
C31B C 1.2189(5) 0.55112(16) 0.2764(4)
C32B C 1.2803(5) 0.53460(17) 0.3224(4)
H19B H 1.2727 0.5146 0.3228
C33B C 1.3537(6) 0.54768(17) 0.3683(5)
H20B H 1.3975 0.5363 0.3995
C34B C 1.3643(6) 0.57654(16) 0.3698(4)
H21B H 1.4148 0.5851 0.4019
C35B C 1.1255(6) 0.54384(16) 0.1659(4)
H22B H 1.1697 0.5545 0.1493
C36B C 1.0418(6) 0.53390(17) 0.1192(4)
C37B C 1.0204(7) 0.5406(2) 0.0516(4)
H23B H 1.0614 0.5520 0.0334
C38B C 0.9379(7) 0.5306(2) 0.0096(5)
H24B H 0.9214 0.5350 -0.0376
C39B C 0.8804(7) 0.5142(2) 0.0375(5)
H25B H 0.8234 0.5070 0.0101
C40B C 0.9074(6) 0.50836(19) 0.1064(4)
H26B H 0.8677 0.4969 0.1257
N5B N 1.5531(5) 0.87845(14) 0.6511(4)
N6B N 1.5633(5) 0.82890(14) 0.5849(4)
N7B N 1.0818(4) 0.51664(13) 0.3693(3)
N8B N 1.0891(5) 0.47629(13) 0.2755(3)
C41B C 1.5463(7) 0.9023(2) 0.6841(5)
H27B H 1.5263 0.9191 0.6586
C42B C 1.5674(7) 0.9037(2) 0.7550(5)
H28B H 1.5579 0.9207 0.7775
C43B C 1.6026(8) 0.8797(2) 0.7918(5)
H29B H 1.6219 0.8803 0.8401
C44B C 1.6094(7) 0.8551(2) 0.7580(5)
H30B H 1.6314 0.8383 0.7827
C45B C 1.5838(7) 0.85487(19) 0.6874(4)
C46B C 1.5901(7) 0.82921(19) 0.6482(5)
H31B H 1.6151 0.8124 0.6716
C47B C 1.5749(6) 0.80279(16) 0.5509(4)
C48B C 1.5143(6) 0.78003(16) 0.5499(4)
H32B H 1.4622 0.7819 0.5690
C49B C 1.5312(6) 0.75451(16) 0.5203(5)
C50B C 1.6080(6) 0.75210(19) 0.4923(5)
H33B H 1.6207 0.7344 0.4737
C51B C 1.6661(7) 0.7753(2) 0.4913(6)
H34B H 1.7170 0.7737 0.4708
C52B C 1.6490(7) 0.80051(19) 0.5203(5)
H35B H 1.6879 0.8165 0.5194
C53B C 1.4687(6) 0.72942(16) 0.5176(4)
C54B C 1.3725(5) 0.73302(16) 0.4994(4)
H36B H 1.3478 0.7517 0.4920
C55B C 1.3115(5) 0.71018(15) 0.4916(4)
C56B C 1.3493(5) 0.68173(14) 0.5043(4)
C57B C 1.4463(5) 0.67828(15) 0.5242(4)
C58B C 1.5049(6) 0.70211(16) 0.5305(5)
H37B H 1.5705 0.6995 0.5438
C59B C 1.2881(5) 0.65849(14) 0.4951(4)
C60B C 1.1907(5) 0.66240(15) 0.4739(4)
C61B C 1.1327(6) 0.63831(15) 0.4642(4)
H38B H 1.0671 0.6408 0.4516
C62B C 1.1687(5) 0.61092(15) 0.4726(4)
C63B C 1.2643(5) 0.60747(16) 0.4935(4)
H39B H 1.2894 0.5888 0.5002
C64B C 1.3243(5) 0.63054(15) 0.5051(4)
C65B C 1.2125(5) 0.71286(16) 0.4709(4)
H40B H 1.1867 0.7314 0.4625
C66B C 1.1538(6) 0.69073(16) 0.4627(4)
H41B H 1.0883 0.6937 0.4496
C67B C 1.4811(6) 0.64974(16) 0.5350(5)
H42B H 1.5465 0.6467 0.5483
C68B C 1.4235(5) 0.62728(16) 0.5269(4)
H43B H 1.4491 0.6087 0.5357
C69B C 1.1046(5) 0.58570(15) 0.4594(4)
C70B C 1.1255(5) 0.56247(16) 0.4236(4)
H44B H 1.1790 0.5628 0.4058
C71B C 1.0677(5) 0.53885(16) 0.4142(4)
C72B C 0.9911(6) 0.53810(18) 0.4403(4)
H45B H 0.9534 0.5215 0.4350
C73B C 0.9681(6) 0.56136(17) 0.4745(4)
H46B H 0.9139 0.5610 0.4915
C74B C 1.0243(5) 0.58495(17) 0.4835(4)
H47B H 1.0082 0.6010 0.5065
C75B C 1.1028(6) 0.49133(16) 0.3892(4)
H48B H 1.1133 0.4870 0.4363
C76B C 1.1112(6) 0.46913(16) 0.3423(4)
C77B C 1.1335(8) 0.44177(19) 0.3626(5)
H49B H 1.1451 0.4367 0.4094
C78B C 1.1388(8) 0.4215(2) 0.3139(5)
H50B H 1.1536 0.4023 0.3271
C79B C 1.1229(7) 0.42919(19) 0.2474(5)
H51B H 1.1299 0.4159 0.2136
C80B C 1.0962(6) 0.45707(17) 0.2301(4)
H52B H 1.0825 0.4624 0.1835
N9B N 1.1040(4) 0.49913(13) 0.7246(3)
N10B N 1.0502(4) 0.44490(13) 0.7379(3)
N11B N 1.2619(5) 0.75803(13) 0.6286(3)
N12B N 1.1780(5) 0.61285(13) 0.6686(3)
N13B N 1.4443(5) 0.91262(13) 0.5163(3)
N14B N 1.3660(5) 0.86485(14) 0.5498(3)
C81B C 1.4821(7) 0.93592(17) 0.4990(4)
H53B H 1.5473 0.9363 0.5031
C82B C 1.4296(7) 0.95982(18) 0.4751(5)
H54B H 1.4591 0.9764 0.4637
C83B C 1.3372(8) 0.9597(2) 0.4680(6)
H55B H 1.3008 0.9760 0.4512
C84B C 1.2954(8) 0.93536(19) 0.4854(5)
H56B H 1.2300 0.9347 0.4807
C85B C 1.3504(7) 0.91234(17) 0.5097(4)
C86B C 1.3128(7) 0.88634(17) 0.5307(5)
H57B H 1.2486 0.8853 0.5302
C87B C 1.3290(6) 0.83902(17) 0.5701(4)
C88B C 1.2774(6) 0.82077(16) 0.5217(4)
H58B H 1.2592 0.8262 0.4751
C89B C 1.2525(6) 0.79460(16) 0.5419(4)
H59B H 1.2165 0.7820 0.5091
C90B C 1.2797(6) 0.78653(16) 0.6097(4)
C91B C 1.3301(6) 0.80517(18) 0.6581(4)
H60B H 1.3481 0.7998 0.7047
C92B C 1.3541(7) 0.83185(18) 0.6381(4)
H61B H 1.3873 0.8449 0.6710
C93B C 1.3210(6) 0.70975(16) 0.6618(4)
C94B C 1.3942(6) 0.69140(17) 0.6821(4)
H62B H 1.4563 0.6983 0.6927
C95B C 1.3769(6) 0.66215(17) 0.6871(4)
H63B H 1.4277 0.6494 0.7011
C96B C 1.2889(6) 0.65210(16) 0.6723(4)
C97B C 1.2119(6) 0.67072(16) 0.6529(4)
C98B C 1.2282(6) 0.70016(16) 0.6472(4)
C99B C 1.1508(6) 0.71889(16) 0.6279(4)
C100B C 1.0634(6) 0.70878(18) 0.6154(5)
H64B H 1.0124 0.7215 0.6025
C101B C 1.0463(6) 0.67948(18) 0.6211(5)
H65B H 0.9842 0.6726 0.6120
C102B C 1.1197(6) 0.66114(16) 0.6398(4)
C103B C 1.3406(7) 0.74074(17) 0.6536(4)
C104B C 1.1697(7) 0.74946(19) 0.6190(5)
C105B C 1.2710(6) 0.62125(17) 0.6794(4)
C106B C 1.0998(6) 0.63018(17) 0.6479(4)
C107B C 1.1615(6) 0.58321(16) 0.6828(4)
C108B C 1.1702(5) 0.56226(16) 0.6374(4)
H66B H 1.1882 0.5669 0.5969
C109B C 1.1525(5) 0.53434(16) 0.6513(4)
H67B H 1.1580 0.5198 0.6201
C110B C 1.1271(5) 0.52764(16) 0.7100(4)
C111B C 1.1191(6) 0.54846(17) 0.7558(4)
H68B H 1.1018 0.5438 0.7966
C112B C 1.1366(6) 0.57643(17) 0.7411(4)
H69B H 1.1312 0.5911 0.7722
C113B C 1.1578(6) 0.47889(16) 0.7147(4)
H70B H 1.2140 0.4833 0.7022
C114B C 1.1327(5) 0.44913(15) 0.7228(4)
C115B C 1.1909(7) 0.42729(18) 0.7166(5)
H71B H 1.2490 0.4310 0.7065
C116B C 1.1635(7) 0.3995(2) 0.7254(6)
H72B H 1.2023 0.3838 0.7211
C117B C 1.0814(7) 0.39536(19) 0.7400(6)
H73B H 1.0613 0.3766 0.7462
C118B C 1.0256(6) 0.41817(17) 0.7460(5)
H74B H 0.9674 0.4147 0.7562
O1B O 1.1061(5) 0.76649(13) 0.6019(4)
O2B O 1.4189(4) 0.75011(12) 0.6671(3)
O3B O 1.0222(4) 0.62079(12) 0.6372(3)
O4B O 1.3336(4) 0.60398(12) 0.6940(3)
N15 N 0.5001(9) 0.4193(3) 0.1574(6)
C119 C 0.5546(9) 0.4353(3) 0.1867(6)
C120 C 0.6144(9) 0.4555(3) 0.2236(7)
H75 H 0.6746 0.4545 0.2118
H76 H 0.6234 0.4519 0.2724
H77 H 0.5875 0.4745 0.2125
N16 N 0.9381(10) 0.1150(3) 0.3571(6)
C121 C 0.9352(8) 0.1358(3) 0.3810(6)
C122 C 0.9358(14) 0.1614(3) 0.4171(10)
H78 H 0.9144 0.1578 0.4583
H79 H 0.8942 0.1751 0.3882
H80 H 0.9992 0.1691 0.4298
N17 N 0.6547(11) 0.0621(4) 0.3434(8)
C123 C 0.6077(13) 0.0423(5) 0.3123(11)
C124 C 0.5555(15) 0.0224(5) 0.2735(12)
H81 H 0.5053 0.0165 0.2943
H82 H 0.5944 0.0059 0.2699
H83 H 0.5285 0.0301 0.2279
B1 B -0.0462(8) 0.0915(3) 0.5836(5)
F1 F -0.0640(5) 0.06261(15) 0.5915(3)
F2 F -0.0680(13) 0.1058(2) 0.6354(7)
F3 F 0.0486(7) 0.0906(4) 0.5913(6)
F4 F -0.0919(14) 0.1007(5) 0.5213(5)
B2 B 0.6608(8) 0.5280(2) 0.1206(6)
F8 F 0.7145(4) 0.50665(12) 0.1553(3)
F9 F 0.5682(6) 0.5198(2) 0.1161(5)
F10 F 0.6729(8) 0.5289(4) 0.0559(4)
F11 F 0.6736(9) 0.55302(19) 0.1517(6)
S1 S 0.7013(5) 0.53342(17) 0.4334(4)
S2 S 0.6573(5) 0.58351(18) 0.4820(3)
N18 N 0.7182(12) 0.5573(4) 0.4897(9)
O5 O 0.7846(11) 0.5191(6) 0.4434(13)
O6 O 0.6529(11) 0.5419(4) 0.3637(8)
O7 O 0.5845(12) 0.5896(4) 0.4266(9)
O8 O 0.6386(13) 0.5908(5) 0.5544(9)
C125 C 0.6300(15) 0.5073(5) 0.4574(12)
C126 C 0.7477(14) 0.6117(5) 0.4756(12)
F15 F 0.6189(12) 0.4861(5) 0.4126(10)
F16 F 0.5491(10) 0.5159(4) 0.4543(8)
F17 F 0.6652(11) 0.4976(4) 0.5195(8)
F18 F 0.8245(9) 0.6119(3) 0.5276(7)
F19 F 0.7130(10) 0.6382(3) 0.4673(8)
F20 F 0.7786(9) 0.6063(3) 0.4199(7)
S5 S 0.2207(9) 0.2884(3) 0.6387(8)
S6 S 0.1267(11) 0.2373(4) 0.6332(8)
O13 O 0.2485(17) 0.2875(5) 0.7214(11)
O14 O 0.2898(17) 0.3000(6) 0.6081(13)
O15 O 0.076(2) 0.2415(7) 0.6811(16)
O16 O 0.178(2) 0.2087(6) 0.6371(18)
C129 C 0.129(2) 0.3165(7) 0.6216(19)
C130 C 0.034(2) 0.2319(9) 0.5580(18)
N20 N 0.181(2) 0.2616(6) 0.6056(16)
F27 F 0.0704(15) 0.3085(5) 0.6564(11)
F28 F 0.0995(15) 0.3190(5) 0.5555(11)
F29 F 0.1723(17) 0.3401(5) 0.6462(12)
F30 F 0.075(2) 0.2235(6) 0.5082(15)
F31 F -0.010(2) 0.2552(6) 0.5425(15)
F32 F -0.021(2) 0.2128(7) 0.5691(18)
N23 N 1.2288(13) 0.4910(4) 1.1318(9)
C135 C 1.2687(18) 0.4754(6) 1.1254(13)
C136 C 1.276(2) 0.4462(7) 1.0986(18)
H84 H 1.2728 0.4322 1.1337
H85 H 1.3361 0.4442 1.0865
H86 H 1.2253 0.4430 1.0581
F5? F -0.122(2) 0.1029(7) 0.603(2)
F6? F 0.0348(19) 0.1065(8) 0.6078(17)
F7? F -0.073(4) 0.0963(14) 0.5144(10)
F12? F 0.639(3) 0.5258(14) 0.0505(9)
F13? F 0.7349(17) 0.5463(6) 0.1215(17)
F14? F 0.595(2) 0.5399(8) 0.1464(18)
S3? S 0.6633(5) 0.52110(19) 0.4052(4)
S4? S 0.6138(4) 0.55354(16) 0.5112(3)
N19? N 0.6066(12) 0.5456(4) 0.4302(8)
O9? O 0.6506(11) 0.5220(4) 0.3336(8)
O10? O 0.7584(13) 0.5198(6) 0.4463(14)
O11? O 0.6764(9) 0.5378(3) 0.5620(7)
O12? O 0.5268(8) 0.5578(3) 0.5257(6)
C127? C 0.595(2) 0.4899(6) 0.4208(16)
C128? C 0.667(2) 0.5900(6) 0.5021(16)
F21? F 0.5194(10) 0.4878(3) 0.3855(8)
F22? F 0.6519(11) 0.4673(4) 0.4050(9)
F23? F 0.6106(12) 0.4859(4) 0.4842(9)
F24? F 0.6015(11) 0.6028(4) 0.4569(8)
F25? F 0.7438(9) 0.5831(4) 0.4837(7)
F26? F 0.6852(11) 0.5996(4) 0.5644(8)
S7? S 0.1590(11) 0.3185(3) 0.7270(8)
S8? S 0.1911(12) 0.3003(4) 0.5983(9)
O17? O 0.060(2) 0.3274(7) 0.6994(19)
O18? O 0.211(2) 0.3363(6) 0.7789(15)
O19? O 0.199(3) 0.3303(7) 0.576(2)
O20? O 0.099(2) 0.2892(8) 0.5581(17)
N21? N 0.151(3) 0.2936(8) 0.6691(16)
C131? C 0.153(3) 0.2936(8) 0.7956(19)
C132? C 0.270(3) 0.2758(10) 0.591(3)
F33? F 0.142(2) 0.3160(7) 0.8381(14)
F34? F 0.097(3) 0.2777(9) 0.819(2)
F35? F 0.231(2) 0.2784(6) 0.8125(15)
F36? F 0.255(3) 0.2569(8) 0.637(2)
S9? S 0.008(3) 0.2285(8) 0.611(2)
S10? S 0.099(2) 0.2715(7) 0.7034(18)
O21? O -0.064(5) 0.2423(17) 0.566(4)
O22? O 0.009(6) 0.2192(16) 0.682(3)
O23? O 0.123(5) 0.2625(15) 0.767(3)
O24? O 0.004(3) 0.2857(15) 0.687(4)
N22? N 0.083(5) 0.2546(13) 0.631(3)
C133? C 0.024(4) 0.1925(10) 0.583(3)
C134? C 0.144(4) 0.3086(10) 0.709(3)
F37? F -0.026(6) 0.1917(17) 0.519(3)
F38? F -0.023(4) 0.1730(12) 0.609(3)
F39? F 0.114(4) 0.1861(16) 0.590(4)
F40? F 0.226(3) 0.3108(12) 0.693(3)
F41? F 0.082(4) 0.3247(13) 0.664(3)
F42? F 0.159(4) 0.3141(11) 0.776(2)
F43? F 0.100(3) 0.2945(10) 0.830(2)
F44? F 0.163(3) 0.3436(10) 0.548(2)
F45? F 0.155(3) 0.3126(10) 0.633(2)
F46? F 0.086(3) 0.2093(10) 0.568(2)
F47? F 0.1764(17) 0.3347(6) 0.8338(13)
F48? F 0.216(3) 0.2812(8) 0.666(2)
F49? F 0.124(3) 0.2818(11) 0.872(3)
F50? F -0.046(3) 0.2000(9) 0.603(2)
loop_
_geom_bond_atom_site_label_1
_geom_bond_atom_site_label_2
_geom_bond_site_symmetry_1
_geom_bond_site_symmetry_2
Zn1 N1 1_555 1_555
Zn2 N3 1_555 1_555
N1 C1 1_555 1_555
N2 Zn1 1_555 1_555
N3 C31 1_555 1_555
N4 Zn2 1_555 1_555
C1 H1 1_555 1_555
C2 C1 1_555 1_555
H2 C2 1_555 1_555
C3 C2 1_555 1_555
H3 C3 1_555 1_555
C4 C3 1_555 1_555
H4 C4 1_555 1_555
C5 N1 1_555 1_555
C6 N2 1_555 1_555
H5 C6 1_555 1_555
C7 N2 1_555 1_555
C8 C7 1_555 1_555
H6 C8 1_555 1_555
C9 C8 1_555 1_555
C10 C9 1_555 1_555
H7 C10 1_555 1_555
C11 C10 1_555 1_555
H8 C11 1_555 1_555
C12 C7 1_555 1_555
H9 C12 1_555 1_555
C13 C9 1_555 1_555
C14 C13 1_555 1_555
H10 C14 1_555 1_555
C15 C14 1_555 1_555
C16 C15 1_555 1_555
C17 C16 1_555 1_555
C18 C13 1_555 1_555
H11 C18 1_555 1_555
C19 C16 1_555 1_555
C20 C19 1_555 1_555
C21 C20 1_555 1_555
H12 C21 1_555 1_555
C22 C21 1_555 1_555
C23 C22 1_555 1_555
H13 C23 1_555 1_555
C24 C19 1_555 1_555
C25 C15 1_555 1_555
H14 C25 1_555 1_555
C26 C20 1_555 1_555
H15 C26 1_555 1_555
C27 C17 1_555 1_555
H16 C27 1_555 1_555
C28 C24 1_555 1_555
H17 C28 1_555 1_555
C29 C22 1_555 1_555
C30 C29 1_555 1_555
H18 C30 1_555 1_555
C31 C30 1_555 1_555
C32 C31 1_555 1_555
H19 C32 1_555 1_555
C33 C32 1_555 1_555
H20 C33 1_555 1_555
C34 C29 1_555 1_555
H21 C34 1_555 1_555
C35 N3 1_555 1_555
H22 C35 1_555 1_555
C36 N4 1_555 1_555
C37 C36 1_555 1_555
H23 C37 1_555 1_555
C38 C37 1_555 1_555
H24 C38 1_555 1_555
C39 C38 1_555 1_555
H25 C39 1_555 1_555
C40 N4 1_555 1_555
H26 C40 1_555 1_555
N5 Zn1 1_555 1_555
N6 Zn1 1_555 1_555
N7 Zn2 1_555 1_555
N8 Zn2 1_555 1_555
C41 N5 1_555 1_555
H27 C41 1_555 1_555
C42 C41 1_555 1_555
H28 C42 1_555 1_555
C43 C42 1_555 1_555
H29 C43 1_555 1_555
C44 C43 1_555 1_555
H30 C44 1_555 1_555
C45 N5 1_555 1_555
C46 N6 1_555 1_555
H31 C46 1_555 1_555
C47 N6 1_555 1_555
C48 C47 1_555 1_555
H32 C48 1_555 1_555
C49 C48 1_555 1_555
C50 C49 1_555 1_555
H33 C50 1_555 1_555
C51 C50 1_555 1_555
H34 C51 1_555 1_555
C52 C47 1_555 1_555
H35 C52 1_555 1_555
C53 C49 1_555 1_555
C54 C53 1_555 1_555
H36 C54 1_555 1_555
C55 C54 1_555 1_555
C56 C55 1_555 1_555
C57 C56 1_555 1_555
C58 C53 1_555 1_555
H37 C58 1_555 1_555
C59 C56 1_555 1_555
C60 C59 1_555 1_555
C61 C60 1_555 1_555
H38 C61 1_555 1_555
C62 C61 1_555 1_555
C63 C62 1_555 1_555
H39 C63 1_555 1_555
C64 C59 1_555 1_555
C65 C55 1_555 1_555
H40 C65 1_555 1_555
C66 C60 1_555 1_555
H41 C66 1_555 1_555
C67 C57 1_555 1_555
H42 C67 1_555 1_555
C68 C64 1_555 1_555
H43 C68 1_555 1_555
C69 C62 1_555 1_555
C70 C69 1_555 1_555
H44 C70 1_555 1_555
C71 N7 1_555 1_555
C72 C71 1_555 1_555
H45 C72 1_555 1_555
C73 C72 1_555 1_555
H46 C73 1_555 1_555
C74 C69 1_555 1_555
H47 C74 1_555 1_555
C75 N7 1_555 1_555
H48 C75 1_555 1_555
C76 N8 1_555 1_555
C77 C76 1_555 1_555
H49 C77 1_555 1_555
C78 C77 1_555 1_555
H50 C78 1_555 1_555
C79 C78 1_555 1_555
H51 C79 1_555 1_555
C80 N8 1_555 1_555
H52 C80 1_555 1_555
N9 C110 1_555 1_555
N10 C114 1_555 1_555
N11 C90 1_555 1_555
N12 C105 1_555 1_555
N13 Zn1 1_555 1_555
N14 Zn1 1_555 1_555
C81 N13 1_555 1_555
H53 C81 1_555 1_555
C82 C81 1_555 1_555
H54 C82 1_555 1_555
C83 C82 1_555 1_555
H55 C83 1_555 1_555
C84 C83 1_555 1_555
H56 C84 1_555 1_555
C85 N13 1_555 1_555
C86 N14 1_555 1_555
H57 C86 1_555 1_555
C87 N14 1_555 1_555
C88 C87 1_555 1_555
H58 C88 1_555 1_555
C89 C88 1_555 1_555
H59 C89 1_555 1_555
C90 C89 1_555 1_555
C91 C90 1_555 1_555
H60 C91 1_555 1_555
C92 C87 1_555 1_555
H61 C92 1_555 1_555
C93 C94 1_555 1_555
C94 H62 1_555 1_555
C95 C94 1_555 1_555
H63 C95 1_555 1_555
C96 C95 1_555 1_555
C97 C96 1_555 1_555
C98 C93 1_555 1_555
C99 C98 1_555 1_555
C100 C99 1_555 1_555
H64 C100 1_555 1_555
C101 C100 1_555 1_555
H65 C101 1_555 1_555
C102 C97 1_555 1_555
C103 N11 1_555 1_555
C104 N11 1_555 1_555
C105 C96 1_555 1_555
C106 N12 1_555 1_555
C107 N12 1_555 1_555
C108 C107 1_555 1_555
H66 C108 1_555 1_555
C109 C108 1_555 1_555
H67 C109 1_555 1_555
C110 C109 1_555 1_555
C111 C110 1_555 1_555
H68 C111 1_555 1_555
C112 C107 1_555 1_555
H69 C112 1_555 1_555
C113 N9 1_555 1_555
H70 C113 1_555 1_555
C114 C113 1_555 1_555
C115 C114 1_555 1_555
H71 C115 1_555 1_555
C116 C115 1_555 1_555
H72 C116 1_555 1_555
C117 C116 1_555 1_555
H73 C117 1_555 1_555
C118 N10 1_555 1_555
H74 C118 1_555 1_555
O1 C104 1_555 1_555
O2 C103 1_555 1_555
O3 C106 1_555 1_555
O4 C105 1_555 1_555
N15 C119 1_555 1_555
C119 C120 1_555 1_555
C120 H75 1_555 1_555
H76 C120 1_555 1_555
H77 C120 1_555 1_555
N16 C121 1_555 1_555
C121 C122 1_555 1_555
C122 H78 1_555 1_555
H79 C122 1_555 1_555
H80 C122 1_555 1_555
N17 C123 1_555 1_555
C123 C124 1_555 1_555
C124 H81 1_555 1_555
H82 C124 1_555 1_555
H83 C124 1_555 1_555
B1 F1 1_555 1_555
F2 B1 1_555 1_555
F3 B1 1_555 1_555
F4 B1 1_555 1_555
B2 F8 1_555 1_555
F9 B2 1_555 1_555
F10 B2 1_555 1_555
F11 B2 1_555 1_555
S1 N18 1_555 1_555
S2 N18 1_555 1_555
O5 S1 1_555 1_555
O6 S1 1_555 1_555
O7 S2 1_555 1_555
O8 S2 1_555 1_555
C125 S1 1_555 1_555
C126 S2 1_555 1_555
F15 C125 1_555 1_555
F16 C125 1_555 1_555
F17 C125 1_555 1_555
F18 C126 1_555 1_555
F19 C126 1_555 1_555
F20 C126 1_555 1_555
S5 O13 1_555 1_555
S6 O15 1_555 1_555
O14 S5 1_555 1_555
O16 S6 1_555 1_555
C129 S5 1_555 1_555
C130 S6 1_555 1_555
N20 S5 1_555 1_555
F27 C129 1_555 1_555
F28 C129 1_555 1_555
F29 C129 1_555 1_555
F30 C130 1_555 1_555
F31 C130 1_555 1_555
F32 C130 1_555 1_555
N23 C135 1_555 1_555
C135 C136 1_555 1_555
C136 H84 1_555 1_555
H85 C136 1_555 1_555
H86 C136 1_555 1_555
Zn1B N1B 1_555 1_555
Zn2B N9 1_555 1_555
N1B C1B 1_555 1_555
N2B Zn1B 1_555 1_555
N3B Zn2B 1_555 1_555
N4B Zn2B 1_555 1_555
C1B H1B 1_555 1_555
C2B C1B 1_555 1_555
H2B C2B 1_555 1_555
C3B C2B 1_555 1_555
H3B C3B 1_555 1_555
C4B C3B 1_555 1_555
H4B C4B 1_555 1_555
C5B N1B 1_555 1_555
C6B N2B 1_555 1_555
H5B C6B 1_555 1_555
C7B N2B 1_555 1_555
C8B C7B 1_555 1_555
H6B C8B 1_555 1_555
C9B C8B 1_555 1_555
C10B C9B 1_555 1_555
H7B C10B 1_555 1_555
C11B C10B 1_555 1_555
H8B C11B 1_555 1_555
C12B C7B 1_555 1_555
H9B C12B 1_555 1_555
C13B C9B 1_555 1_555
C14B C13B 1_555 1_555
H10B C14B 1_555 1_555
C15B C14B 1_555 1_555
C16B C15B 1_555 1_555
C17B C16B 1_555 1_555
C18B C13B 1_555 1_555
H11B C18B 1_555 1_555
C19B C16B 1_555 1_555
C20B C19B 1_555 1_555
C21B C20B 1_555 1_555
H12B C21B 1_555 1_555
C22B C21B 1_555 1_555
C23B C22B 1_555 1_555
H13B C23B 1_555 1_555
C24B C19B 1_555 1_555
C25B C15B 1_555 1_555
H14B C25B 1_555 1_555
C26B C20B 1_555 1_555
H15B C26B 1_555 1_555
C27B C17B 1_555 1_555
H16B C27B 1_555 1_555
C28B C24B 1_555 1_555
H17B C28B 1_555 1_555
C29B C22B 1_555 1_555
C30B C29B 1_555 1_555
H18B C30B 1_555 1_555
C31B N3B 1_555 1_555
C32B C31B 1_555 1_555
H19B C32B 1_555 1_555
C33B C32B 1_555 1_555
H20B C33B 1_555 1_555
C34B C29B 1_555 1_555
H21B C34B 1_555 1_555
C35B N3B 1_555 1_555
H22B C35B 1_555 1_555
C36B N4B 1_555 1_555
C37B C36B 1_555 1_555
H23B C37B 1_555 1_555
C38B C37B 1_555 1_555
H24B C38B 1_555 1_555
C39B C38B 1_555 1_555
H25B C39B 1_555 1_555
C40B N4B 1_555 1_555
H26B C40B 1_555 1_555
N5B Zn1B 1_555 1_555
N6B Zn1B 1_555 1_555
N7B Zn2B 1_555 1_555
N8B Zn2B 1_555 1_555
C41B N5B 1_555 1_555
H27B C41B 1_555 1_555
C42B C41B 1_555 1_555
H28B C42B 1_555 1_555
C43B C42B 1_555 1_555
H29B C43B 1_555 1_555
C44B C43B 1_555 1_555
H30B C44B 1_555 1_555
C45B N5B 1_555 1_555
C46B N6B 1_555 1_555
H31B C46B 1_555 1_555
C47B N6B 1_555 1_555
C48B C47B 1_555 1_555
H32B C48B 1_555 1_555
C49B C48B 1_555 1_555
C50B C49B 1_555 1_555
H33B C50B 1_555 1_555
C51B C50B 1_555 1_555
H34B C51B 1_555 1_555
C52B C47B 1_555 1_555
H35B C52B 1_555 1_555
C53B C49B 1_555 1_555
C54B C53B 1_555 1_555
H36B C54B 1_555 1_555
C55B C54B 1_555 1_555
C56B C55B 1_555 1_555
C57B C56B 1_555 1_555
C58B C53B 1_555 1_555
H37B C58B 1_555 1_555
C59B C56B 1_555 1_555
C60B C59B 1_555 1_555
C61B C60B 1_555 1_555
H38B C61B 1_555 1_555
C62B C61B 1_555 1_555
C63B C62B 1_555 1_555
H39B C63B 1_555 1_555
C64B C59B 1_555 1_555
C65B C55B 1_555 1_555
H40B C65B 1_555 1_555
C66B C60B 1_555 1_555
H41B C66B 1_555 1_555
C67B C57B 1_555 1_555
H42B C67B 1_555 1_555
C68B C64B 1_555 1_555
H43B C68B 1_555 1_555
C69B C62B 1_555 1_555
C70B C69B 1_555 1_555
H44B C70B 1_555 1_555
C71B N7B 1_555 1_555
C72B C71B 1_555 1_555
H45B C72B 1_555 1_555
C73B C72B 1_555 1_555
H46B C73B 1_555 1_555
C74B C69B 1_555 1_555
H47B C74B 1_555 1_555
C75B N7B 1_555 1_555
H48B C75B 1_555 1_555
C76B N8B 1_555 1_555
C77B C76B 1_555 1_555
H49B C77B 1_555 1_555
C78B C77B 1_555 1_555
H50B C78B 1_555 1_555
C79B C78B 1_555 1_555
H51B C79B 1_555 1_555
C80B N8B 1_555 1_555
H52B C80B 1_555 1_555
N9B Zn2 1_555 1_555
N10B Zn2 1_555 1_555
N11B C90B 1_555 1_555
N12B C105B 1_555 1_555
N13B Zn1B 1_555 1_555
N14B Zn1B 1_555 1_555
C81B N13B 1_555 1_555
H53B C81B 1_555 1_555
C82B C81B 1_555 1_555
H54B C82B 1_555 1_555
C83B C82B 1_555 1_555
H55B C83B 1_555 1_555
C84B C83B 1_555 1_555
H56B C84B 1_555 1_555
C85B N13B 1_555 1_555
C86B N14B 1_555 1_555
H57B C86B 1_555 1_555
C87B N14B 1_555 1_555
C88B C87B 1_555 1_555
H58B C88B 1_555 1_555
C89B C88B 1_555 1_555
H59B C89B 1_555 1_555
C90B C89B 1_555 1_555
C91B C90B 1_555 1_555
H60B C91B 1_555 1_555
C92B C87B 1_555 1_555
H61B C92B 1_555 1_555
C93B C94B 1_555 1_555
C94B H62B 1_555 1_555
C95B C94B 1_555 1_555
H63B C95B 1_555 1_555
C96B C95B 1_555 1_555
C97B C96B 1_555 1_555
C98B C93B 1_555 1_555
C99B C98B 1_555 1_555
C100B C99B 1_555 1_555
H64B C100B 1_555 1_555
C101B C100B 1_555 1_555
H65B C101B 1_555 1_555
C102B C97B 1_555 1_555
C103B N11B 1_555 1_555
C104B N11B 1_555 1_555
C105B C96B 1_555 1_555
C106B N12B 1_555 1_555
C107B N12B 1_555 1_555
C108B C107B 1_555 1_555
H66B C108B 1_555 1_555
C109B C108B 1_555 1_555
H67B C109B 1_555 1_555
C110B N9B 1_555 1_555
C111B C110B 1_555 1_555
H68B C111B 1_555 1_555
C112B C107B 1_555 1_555
H69B C112B 1_555 1_555
C113B N9B 1_555 1_555
H70B C113B 1_555 1_555
C114B N10B 1_555 1_555
C115B C114B 1_555 1_555
H71B C115B 1_555 1_555
C116B C115B 1_555 1_555
H72B C116B 1_555 1_555
C117B C116B 1_555 1_555
H73B C117B 1_555 1_555
C118B N10B 1_555 1_555
H74B C118B 1_555 1_555
O1B C104B 1_555 1_555
O2B C103B 1_555 1_555
O3B C106B 1_555 1_555
O4B C105B 1_555 1_555
C4 C5 1_555 1_555
C5 C6 1_555 1_555
C11 C12 1_555 1_555
C17 C18 1_555 1_555
C23 C24 1_555 1_555
C25 C26 1_555 1_555
C27 C28 1_555 1_555
C33 C34 1_555 1_555
C35 C36 1_555 1_555
C39 C40 1_555 1_555
C44 C45 1_555 1_555
C45 C46 1_555 1_555
C51 C52 1_555 1_555
C57 C58 1_555 1_555
C63 C64 1_555 1_555
C65 C66 1_555 1_555
C67 C68 1_555 1_555
C70 C71 1_555 1_555
C73 C74 1_555 1_555
C75 C76 1_555 1_555
C79 C80 1_555 1_555
N10 Zn2B 1_555 1_555
C84 C85 1_555 1_555
C85 C86 1_555 1_555
C91 C92 1_555 1_555
C93 C103 1_555 1_555
C97 C98 1_555 1_555
C99 C104 1_555 1_555
C101 C102 1_555 1_555
C102 C106 1_555 1_555
C111 C112 1_555 1_555
C117 C118 1_555 1_555
S6 N20 1_555 1_555
C4B C5B 1_555 1_555
C5B C6B 1_555 1_555
C11B C12B 1_555 1_555
C17B C18B 1_555 1_555
C23B C24B 1_555 1_555
C25B C26B 1_555 1_555
C27B C28B 1_555 1_555
C30B C31B 1_555 1_555
C33B C34B 1_555 1_555
C35B C36B 1_555 1_555
C39B C40B 1_555 1_555
C44B C45B 1_555 1_555
C45B C46B 1_555 1_555
C51B C52B 1_555 1_555
C57B C58B 1_555 1_555
C63B C64B 1_555 1_555
C65B C66B 1_555 1_555
C67B C68B 1_555 1_555
C70B C71B 1_555 1_555
C73B C74B 1_555 1_555
C75B C76B 1_555 1_555
C79B C80B 1_555 1_555
C84B C85B 1_555 1_555
C85B C86B 1_555 1_555
C91B C92B 1_555 1_555
C93B C103B 1_555 1_555
C97B C98B 1_555 1_555
C99B C104B 1_555 1_555
C101B C102B 1_555 1_555
C102B C106B 1_555 1_555
C109B C110B 1_555 1_555
C111B C112B 1_555 1_555
C113B C114B 1_555 1_555
C117B C118B 1_555 1_555

#END
