# generated using pymatgen
data_Zn2B2H86C136S10N23(O12F25)2
_symmetry_space_group_name_H-M   'P 1'
_cell_length_a   14.81970000
_cell_length_b   20.25500000
_cell_length_c   47.04700000
_cell_angle_alpha   90.00000000
_cell_angle_beta   90.00000000
_cell_angle_gamma   104.42800000
_symmetry_Int_Tables_number   1
_chemical_formula_structural   Zn2B2H86C136S10N23(O12F25)2
_chemical_formula_sum   'Zn8 B8 H344 C544 S40 N92 O96 F200'
_cell_volume   13676.84614182
_cell_formula_units_Z   4
loop_
 _symmetry_equiv_pos_site_id
 _symmetry_equiv_pos_as_xyz
  1  'x, y, z'
loop_
 _atom_site_type_symbol
 _atom_site_label
 _atom_site_symmetry_multiplicity
 _atom_site_fract_x
 _atom_site_fract_y
 _atom_site_fract_z
 _atom_site_occupancy
  Zn  Zn1  1  0.510040  0.543710  0.872200  1.0
  Zn  Zn2  1  0.489960  0.956290  0.372200  1.0
  Zn  Zn3  1  0.489960  0.456290  0.127800  1.0
  Zn  Zn4  1  0.510040  0.043710  0.627800  1.0
  Zn  Zn5  1  0.027940  0.256260  0.516990  1.0
  Zn  Zn6  1  0.972060  0.243740  0.016990  1.0
  Zn  Zn7  1  0.972060  0.743740  0.483010  1.0
  Zn  Zn8  1  0.027940  0.756260  0.983010  1.0
  B  B9  1  0.046200  0.416400  0.908500  1
  B  B10  1  0.953800  0.083600  0.408500  1
  B  B11  1  0.953800  0.583600  0.091500  1
  B  B12  1  0.046200  0.916400  0.591500  1
  B  B13  1  0.339200  0.879400  0.472000  1
  B  B14  1  0.660800  0.620600  0.972000  1
  B  B15  1  0.660800  0.120600  0.528000  1
  B  B16  1  0.339200  0.379400  0.028000  1
  H  H17  1  0.325400  0.788200  0.545500  1
  H  H18  1  0.674600  0.711800  0.045500  1
  H  H19  1  0.674600  0.211800  0.454500  1
  H  H20  1  0.325400  0.288200  0.954500  1
  H  H21  1  0.376600  0.727600  0.548100  1
  H  H22  1  0.623400  0.772400  0.048100  1
  H  H23  1  0.623400  0.272400  0.451900  1
  H  H24  1  0.376600  0.227600  0.951900  1
  H  H25  1  0.412500  0.787500  0.525500  1
  H  H26  1  0.587500  0.712500  0.025500  1
  H  H27  1  0.587500  0.212500  0.474500  1
  H  H28  1  0.412500  0.287500  0.974500  1
  H  H29  1  0.085600  0.541700  0.842200  1
  H  H30  1  0.914400  0.958300  0.342200  1
  H  H31  1  0.914400  0.458300  0.157800  1
  H  H32  1  0.085600  0.041700  0.657800  1
  H  H33  1  0.105800  0.611800  0.824900  1
  H  H34  1  0.894200  0.888200  0.324900  1
  H  H35  1  0.894200  0.388200  0.175100  1
  H  H36  1  0.105800  0.111800  0.675100  1
  H  H37  1  0.000800  0.570200  0.830900  1
  H  H38  1  0.999200  0.929800  0.330900  1
  H  H39  1  0.999200  0.429800  0.169100  1
  H  H40  1  0.000800  0.070200  0.669100  1
  H  H41  1  0.494700  0.705700  0.983500  1
  H  H42  1  0.505300  0.794300  0.483500  1
  H  H43  1  0.505300  0.294300  0.016500  1
  H  H44  1  0.494700  0.205700  0.516500  1
  H  H45  1  0.405600  0.730100  0.994100  1
  H  H46  1  0.594400  0.769900  0.494100  1
  H  H47  1  0.594400  0.269900  0.005900  1
  H  H48  1  0.405600  0.230100  0.505900  1
  H  H49  1  0.471500  0.772100  0.969900  1
  H  H50  1  0.528500  0.727900  0.469900  1
  H  H51  1  0.528500  0.227900  0.030100  1
  H  H52  1  0.471500  0.272100  0.530100  1
  H  H53  1  0.727200  0.866300  0.567800  1
  H  H54  1  0.272800  0.633700  0.067800  1
  H  H55  1  0.272800  0.133700  0.432200  1
  H  H56  1  0.727200  0.366300  0.932200  1
  H  H57  1  0.663900  0.913500  0.555800  1
  H  H58  1  0.336100  0.586500  0.055800  1
  H  H59  1  0.336100  0.086500  0.444200  1
  H  H60  1  0.663900  0.413500  0.944200  1
  H  H61  1  0.774700  0.941900  0.557000  1
  H  H62  1  0.225300  0.558100  0.057000  1
  H  H63  1  0.225300  0.058100  0.443000  1
  H  H64  1  0.774700  0.441900  0.943000  1
  H  H65  1  0.714900  0.609600  0.898400  1.0
  H  H66  1  0.285100  0.890400  0.398400  1.0
  H  H67  1  0.285100  0.390400  0.101600  1.0
  H  H68  1  0.714900  0.109600  0.601600  1.0
  H  H69  1  0.856300  0.580000  0.902500  1.0
  H  H70  1  0.143700  0.920000  0.402500  1.0
  H  H71  1  0.143700  0.420000  0.097500  1.0
  H  H72  1  0.856300  0.080000  0.597500  1.0
  H  H73  1  0.863600  0.472300  0.887000  1.0
  H  H74  1  0.136400  0.027700  0.387000  1.0
  H  H75  1  0.136400  0.527700  0.113000  1.0
  H  H76  1  0.863600  0.972300  0.613000  1.0
  H  H77  1  0.732400  0.397200  0.868600  1.0
  H  H78  1  0.267600  0.102800  0.368600  1.0
  H  H79  1  0.267600  0.602800  0.131400  1.0
  H  H80  1  0.732400  0.897200  0.631400  1.0
  H  H81  1  0.558900  0.372300  0.856100  1.0
  H  H82  1  0.441100  0.127700  0.356100  1.0
  H  H83  1  0.441100  0.627700  0.143900  1.0
  H  H84  1  0.558900  0.872300  0.643900  1.0
  H  H85  1  0.454000  0.399100  0.807100  1.0
  H  H86  1  0.546000  0.100900  0.307100  1.0
  H  H87  1  0.546000  0.600900  0.192900  1.0
  H  H88  1  0.454000  0.899100  0.692900  1.0
  H  H89  1  0.184300  0.295000  0.815500  1.0
  H  H90  1  0.815700  0.205000  0.315500  1.0
  H  H91  1  0.815700  0.705000  0.184500  1.0
  H  H92  1  0.184300  0.795000  0.684500  1.0
  H  H93  1  0.192000  0.319800  0.863800  1.0
  H  H94  1  0.808000  0.180200  0.363800  1.0
  H  H95  1  0.808000  0.680200  0.136200  1.0
  H  H96  1  0.192000  0.819800  0.636200  1.0
  H  H97  1  0.330500  0.380700  0.884300  1.0
  H  H98  1  0.669500  0.119300  0.384300  1.0
  H  H99  1  0.669500  0.619300  0.115700  1.0
  H  H100  1  0.330500  0.880700  0.615700  1.0
  H  H101  1  0.455400  0.346600  0.769000  1.0
  H  H102  1  0.544600  0.153400  0.269000  1.0
  H  H103  1  0.544600  0.653400  0.231000  1.0
  H  H104  1  0.455400  0.846600  0.731000  1.0
  H  H105  1  0.175400  0.308800  0.771200  1.0
  H  H106  1  0.824600  0.191200  0.271200  1.0
  H  H107  1  0.824600  0.691200  0.228800  1.0
  H  H108  1  0.175400  0.808800  0.728800  1.0
  H  H109  1  0.444500  0.353500  0.629100  1.0
  H  H110  1  0.555500  0.146500  0.129100  1.0
  H  H111  1  0.555500  0.646500  0.370900  1.0
  H  H112  1  0.444500  0.853500  0.870900  1.0
  H  H113  1  0.164100  0.297500  0.631100  1.0
  H  H114  1  0.835900  0.202500  0.131100  1.0
  H  H115  1  0.835900  0.702500  0.368900  1.0
  H  H116  1  0.164100  0.797500  0.868900  1.0
  H  H117  1  0.537600  0.352300  0.722800  1.0
  H  H118  1  0.462400  0.147700  0.222800  1.0
  H  H119  1  0.462400  0.647700  0.277200  1.0
  H  H120  1  0.537600  0.852300  0.777200  1.0
  H  H121  1  0.535800  0.360200  0.674300  1.0
  H  H122  1  0.464200  0.139800  0.174300  1.0
  H  H123  1  0.464200  0.639800  0.325700  1.0
  H  H124  1  0.535800  0.860200  0.825700  1.0
  H  H125  1  0.083400  0.283100  0.725600  1.0
  H  H126  1  0.916600  0.216900  0.225600  1.0
  H  H127  1  0.916600  0.716900  0.274400  1.0
  H  H128  1  0.083400  0.783100  0.774400  1.0
  H  H129  1  0.079300  0.278800  0.677500  1.0
  H  H130  1  0.920700  0.221200  0.177500  1.0
  H  H131  1  0.920700  0.721200  0.322500  1.0
  H  H132  1  0.079300  0.778800  0.822500  1.0
  H  H133  1  0.187800  0.242300  0.591500  1.0
  H  H134  1  0.812200  0.257700  0.091500  1.0
  H  H135  1  0.812200  0.757700  0.408500  1.0
  H  H136  1  0.187800  0.742300  0.908500  1.0
  H  H137  1  0.272700  0.322800  0.514600  1.0
  H  H138  1  0.727300  0.177200  0.014600  1.0
  H  H139  1  0.727300  0.677200  0.485400  1.0
  H  H140  1  0.272700  0.822800  0.985400  1.0
  H  H141  1  0.397500  0.399500  0.536300  1.0
  H  H142  1  0.602500  0.100500  0.036300  1.0
  H  H143  1  0.602500  0.600500  0.463700  1.0
  H  H144  1  0.397500  0.899500  0.963700  1.0
  H  H145  1  0.414800  0.401900  0.585100  1.0
  H  H146  1  0.585200  0.098100  0.085100  1.0
  H  H147  1  0.585200  0.598100  0.414900  1.0
  H  H148  1  0.414800  0.901900  0.914900  1.0
  H  H149  1  0.169700  0.149300  0.554500  1.0
  H  H150  1  0.830300  0.350700  0.054500  1.0
  H  H151  1  0.830300  0.850700  0.445500  1.0
  H  H152  1  0.169700  0.649300  0.945500  1.0
  H  H153  1  0.061400  0.033400  0.552000  1.0
  H  H154  1  0.938600  0.466600  0.052000  1.0
  H  H155  1  0.938600  0.966600  0.448000  1.0
  H  H156  1  0.061400  0.533400  0.948000  1.0
  H  H157  1  0.921400  0.962400  0.535000  1.0
  H  H158  1  0.078600  0.537600  0.035000  1.0
  H  H159  1  0.078600  0.037600  0.465000  1.0
  H  H160  1  0.921400  0.462400  0.965000  1.0
  H  H161  1  0.823400  0.010100  0.507000  1.0
  H  H162  1  0.176600  0.489900  0.007000  1.0
  H  H163  1  0.176600  0.989900  0.493000  1.0
  H  H164  1  0.823400  0.510100  0.993000  1.0
  H  H165  1  0.867700  0.125700  0.496900  1.0
  H  H166  1  0.132300  0.374300  0.996900  1.0
  H  H167  1  0.132300  0.874300  0.503100  1.0
  H  H168  1  0.867700  0.625700  0.003100  1.0
  H  H169  1  0.526300  0.658600  0.919100  1.0
  H  H170  1  0.473700  0.841400  0.419100  1.0
  H  H171  1  0.473700  0.341400  0.080900  1.0
  H  H172  1  0.526300  0.158600  0.580900  1.0
  H  H173  1  0.557900  0.777500  0.920700  1.0
  H  H174  1  0.442100  0.722500  0.420700  1.0
  H  H175  1  0.442100  0.222500  0.079300  1.0
  H  H176  1  0.557900  0.277500  0.579300  1.0
  H  H177  1  0.621900  0.840100  0.880300  1.0
  H  H178  1  0.378100  0.659900  0.380300  1.0
  H  H179  1  0.378100  0.159900  0.119700  1.0
  H  H180  1  0.621900  0.340100  0.619700  1.0
  H  H181  1  0.631400  0.782700  0.838300  1.0
  H  H182  1  0.368600  0.717300  0.338300  1.0
  H  H183  1  0.368600  0.217300  0.161700  1.0
  H  H184  1  0.631400  0.282700  0.661700  1.0
  H  H185  1  0.615100  0.671600  0.812400  1.0
  H  H186  1  0.384900  0.828400  0.312400  1.0
  H  H187  1  0.384900  0.328400  0.187600  1.0
  H  H188  1  0.615100  0.171600  0.687600  1.0
  H  H189  1  0.462200  0.569000  0.781900  1.0
  H  H190  1  0.537800  0.931000  0.281900  1.0
  H  H191  1  0.537800  0.431000  0.218100  1.0
  H  H192  1  0.462200  0.069000  0.718100  1.0
  H  H193  1  0.620700  0.473700  0.734400  1.0
  H  H194  1  0.379300  0.026300  0.234400  1.0
  H  H195  1  0.379300  0.526300  0.265600  1.0
  H  H196  1  0.620700  0.973700  0.765600  1.0
  H  H197  1  0.717000  0.470800  0.773700  1.0
  H  H198  1  0.283000  0.029200  0.273700  1.0
  H  H199  1  0.283000  0.529200  0.226300  1.0
  H  H200  1  0.717000  0.970800  0.726300  1.0
  H  H201  1  0.687900  0.519400  0.816500  1.0
  H  H202  1  0.312100  0.980600  0.316500  1.0
  H  H203  1  0.312100  0.480600  0.183500  1.0
  H  H204  1  0.687900  0.019400  0.683500  1.0
  H  H205  1  0.347800  0.492000  0.751700  1.0
  H  H206  1  0.652200  0.008000  0.251700  1.0
  H  H207  1  0.652200  0.508000  0.248300  1.0
  H  H208  1  0.347800  0.992000  0.748300  1.0
  H  H209  1  0.570500  0.543800  0.699500  1.0
  H  H210  1  0.429500  0.956200  0.199500  1.0
  H  H211  1  0.429500  0.456200  0.300500  1.0
  H  H212  1  0.570500  0.043800  0.800500  1.0
  H  H213  1  0.067100  0.451600  0.640800  1.0
  H  H214  1  0.932900  0.048400  0.140800  1.0
  H  H215  1  0.932900  0.548400  0.359200  1.0
  H  H216  1  0.067100  0.951600  0.859200  1.0
  H  H217  1  0.289400  0.500200  0.588800  1.0
  H  H218  1  0.710600  0.999800  0.088800  1.0
  H  H219  1  0.710600  0.499800  0.411200  1.0
  H  H220  1  0.289400  0.000200  0.911200  1.0
  H  H221  1  0.186700  0.462500  0.731400  1.0
  H  H222  1  0.813300  0.037500  0.231400  1.0
  H  H223  1  0.813300  0.537500  0.268600  1.0
  H  H224  1  0.186700  0.962500  0.768600  1.0
  H  H225  1  0.088300  0.449600  0.693700  1.0
  H  H226  1  0.911700  0.050400  0.193700  1.0
  H  H227  1  0.911700  0.550400  0.306300  1.0
  H  H228  1  0.088300  0.949600  0.806300  1.0
  H  H229  1  0.546500  0.548300  0.646700  1.0
  H  H230  1  0.453500  0.951700  0.146700  1.0
  H  H231  1  0.453500  0.451700  0.353300  1.0
  H  H232  1  0.546500  0.048300  0.853300  1.0
  H  H233  1  0.449100  0.535700  0.608700  1.0
  H  H234  1  0.550900  0.964300  0.108700  1.0
  H  H235  1  0.550900  0.464300  0.391300  1.0
  H  H236  1  0.449100  0.035700  0.891300  1.0
  H  H237  1  0.179000  0.405800  0.562800  1.0
  H  H238  1  0.821000  0.094200  0.062800  1.0
  H  H239  1  0.821000  0.594200  0.437200  1.0
  H  H240  1  0.179000  0.905800  0.937200  1.0
  H  H241  1  0.953400  0.435000  0.521500  1.0
  H  H242  1  0.046600  0.065000  0.021500  1.0
  H  H243  1  0.046600  0.565000  0.478500  1.0
  H  H244  1  0.953400  0.935000  0.978500  1.0
  H  H245  1  0.913900  0.491500  0.561000  1.0
  H  H246  1  0.086100  0.008500  0.061000  1.0
  H  H247  1  0.086100  0.508500  0.439000  1.0
  H  H248  1  0.913900  0.991500  0.939000  1.0
  H  H249  1  0.008200  0.506500  0.601000  1.0
  H  H250  1  0.991800  0.993500  0.101000  1.0
  H  H251  1  0.991800  0.493500  0.399000  1.0
  H  H252  1  0.008200  0.006500  0.899000  1.0
  H  H253  1  0.113300  0.436300  0.487000  1.0
  H  H254  1  0.886700  0.063700  0.987000  1.0
  H  H255  1  0.886700  0.563700  0.513000  1.0
  H  H256  1  0.113300  0.936300  0.013000  1.0
  H  H257  1  0.145100  0.409400  0.436700  1.0
  H  H258  1  0.854900  0.090600  0.936700  1.0
  H  H259  1  0.854900  0.590600  0.563300  1.0
  H  H260  1  0.145100  0.909400  0.063300  1.0
  H  H261  1  0.153600  0.327100  0.402300  1.0
  H  H262  1  0.846400  0.172900  0.902300  1.0
  H  H263  1  0.846400  0.672900  0.597700  1.0
  H  H264  1  0.153600  0.827100  0.097700  1.0
  H  H265  1  0.129900  0.213600  0.415900  1.0
  H  H266  1  0.870100  0.286400  0.915900  1.0
  H  H267  1  0.870100  0.786400  0.584100  1.0
  H  H268  1  0.129900  0.713600  0.084100  1.0
  H  H269  1  0.082500  0.183500  0.462400  1.0
  H  H270  1  0.917500  0.316500  0.962400  1.0
  H  H271  1  0.917500  0.816500  0.537600  1.0
  H  H272  1  0.082500  0.683500  0.037600  1.0
  H  H273  1  0.547300  0.503100  0.936300  1.0
  H  H274  1  0.452700  0.996900  0.436300  1.0
  H  H275  1  0.452700  0.496900  0.063700  1.0
  H  H276  1  0.547300  0.003100  0.563700  1.0
  H  H277  1  0.459100  0.463700  0.976400  1.0
  H  H278  1  0.540900  0.036300  0.476400  1.0
  H  H279  1  0.540900  0.536300  0.023600  1.0
  H  H280  1  0.459100  0.963700  0.523600  1.0
  H  H281  1  0.300800  0.451200  0.976000  1.0
  H  H282  1  0.699200  0.048800  0.476000  1.0
  H  H283  1  0.699200  0.548800  0.024000  1.0
  H  H284  1  0.300800  0.951200  0.524000  1.0
  H  H285  1  0.230000  0.480700  0.934700  1.0
  H  H286  1  0.770000  0.019300  0.434700  1.0
  H  H287  1  0.770000  0.519300  0.065300  1.0
  H  H288  1  0.230000  0.980700  0.565300  1.0
  H  H289  1  0.248600  0.530200  0.885300  1.0
  H  H290  1  0.751400  0.969800  0.385300  1.0
  H  H291  1  0.751400  0.469800  0.114700  1.0
  H  H292  1  0.248600  0.030200  0.614700  1.0
  H  H293  1  0.259200  0.475100  0.826200  1.0
  H  H294  1  0.740800  0.024900  0.326200  1.0
  H  H295  1  0.740800  0.524900  0.173800  1.0
  H  H296  1  0.259200  0.975100  0.673800  1.0
  H  H297  1  0.216500  0.509100  0.782000  1.0
  H  H298  1  0.783500  0.990900  0.282000  1.0
  H  H299  1  0.783500  0.490900  0.218000  1.0
  H  H300  1  0.216500  0.009100  0.718000  1.0
  H  H301  1  0.348100  0.704700  0.799800  1.0
  H  H302  1  0.651900  0.795300  0.299800  1.0
  H  H303  1  0.651900  0.295300  0.200200  1.0
  H  H304  1  0.348100  0.204700  0.700200  1.0
  H  H305  1  0.387300  0.671000  0.844900  1.0
  H  H306  1  0.612700  0.829000  0.344900  1.0
  H  H307  1  0.612700  0.329000  0.155100  1.0
  H  H308  1  0.387300  0.171000  0.655100  1.0
  H  H309  1  0.456300  0.692700  0.698300  1.0
  H  H310  1  0.543700  0.807300  0.198300  1.0
  H  H311  1  0.543700  0.307300  0.301700  1.0
  H  H312  1  0.456300  0.192700  0.801700  1.0
  H  H313  1  0.427700  0.701100  0.649400  1.0
  H  H314  1  0.572300  0.798900  0.149400  1.0
  H  H315  1  0.572300  0.298900  0.350600  1.0
  H  H316  1  0.427700  0.201100  0.850600  1.0
  H  H317  1  0.012400  0.602500  0.721500  1.0
  H  H318  1  0.987600  0.897500  0.221500  1.0
  H  H319  1  0.987600  0.397500  0.278500  1.0
  H  H320  1  0.012400  0.102500  0.778500  1.0
  H  H321  1  0.984200  0.612000  0.672600  1.0
  H  H322  1  0.015800  0.888000  0.172600  1.0
  H  H323  1  0.015800  0.388000  0.327400  1.0
  H  H324  1  0.984200  0.112000  0.827400  1.0
  H  H325  1  0.188200  0.596900  0.566900  1.0
  H  H326  1  0.811800  0.903100  0.066900  1.0
  H  H327  1  0.811800  0.403100  0.433100  1.0
  H  H328  1  0.188200  0.096900  0.933100  1.0
  H  H329  1  0.158000  0.620100  0.519800  1.0
  H  H330  1  0.842000  0.879900  0.019800  1.0
  H  H331  1  0.842000  0.379900  0.480200  1.0
  H  H332  1  0.158000  0.120100  0.980200  1.0
  H  H333  1  0.101800  0.796600  0.543800  1.0
  H  H334  1  0.898200  0.703400  0.043800  1.0
  H  H335  1  0.898200  0.203400  0.456200  1.0
  H  H336  1  0.101800  0.296600  0.956200  1.0
  H  H337  1  0.131200  0.772200  0.591100  1.0
  H  H338  1  0.868800  0.727800  0.091100  1.0
  H  H339  1  0.868800  0.227800  0.408900  1.0
  H  H340  1  0.131200  0.272200  0.908900  1.0
  H  H341  1  0.214000  0.702200  0.483300  1.0
  H  H342  1  0.786000  0.797800  0.983300  1.0
  H  H343  1  0.786000  0.297800  0.516700  1.0
  H  H344  1  0.214000  0.202200  0.016700  1.0
  H  H345  1  0.249000  0.706500  0.431000  1.0
  H  H346  1  0.751000  0.793500  0.931000  1.0
  H  H347  1  0.751000  0.293500  0.569000  1.0
  H  H348  1  0.249000  0.206500  0.069000  1.0
  H  H349  1  0.202300  0.721100  0.383800  1.0
  H  H350  1  0.797700  0.778900  0.883800  1.0
  H  H351  1  0.797700  0.278900  0.616200  1.0
  H  H352  1  0.202300  0.221100  0.116200  1.0
  H  H353  1  0.061300  0.746200  0.376600  1.0
  H  H354  1  0.938700  0.753800  0.876600  1.0
  H  H355  1  0.938700  0.253800  0.623400  1.0
  H  H356  1  0.061300  0.246200  0.123400  1.0
  H  H357  1  0.967400  0.756200  0.414700  1.0
  H  H358  1  0.032600  0.743800  0.914700  1.0
  H  H359  1  0.032600  0.243800  0.585300  1.0
  H  H360  1  0.967400  0.256200  0.085300  1.0
  C  C361  1  0.445400  0.813300  0.564700  1
  C  C362  1  0.554600  0.686700  0.064700  1
  C  C363  1  0.554600  0.186700  0.435300  1
  C  C364  1  0.445400  0.313300  0.935300  1
  C  C365  1  0.385600  0.776400  0.544500  1
  C  C366  1  0.614400  0.723600  0.044500  1
  C  C367  1  0.614400  0.223600  0.455500  1
  C  C368  1  0.385600  0.276400  0.955500  1
  C  C369  1  0.064800  0.619000  0.864200  1
  C  C370  1  0.935200  0.881000  0.364200  1
  C  C371  1  0.935200  0.381000  0.135800  1
  C  C372  1  0.064800  0.119000  0.635800  1
  C  C373  1  0.064200  0.582900  0.838600  1
  C  C374  1  0.935800  0.917100  0.338600  1
  C  C375  1  0.935800  0.417100  0.161400  1
  C  C376  1  0.064200  0.082900  0.661400  1
  C  C377  1  0.392300  0.687700  0.957700  1
  C  C378  1  0.607700  0.812300  0.457700  1
  C  C379  1  0.607700  0.312300  0.042300  1
  C  C380  1  0.392300  0.187700  0.542300  1
  C  C381  1  0.444500  0.726500  0.977600  1
  C  C382  1  0.555500  0.773500  0.477600  1
  C  C383  1  0.555500  0.273500  0.022400  1
  C  C384  1  0.444500  0.226500  0.522400  1
  C  C385  1  0.370000  0.542600  0.492700  1
  C  C386  1  0.630000  0.957400  0.992700  1
  C  C387  1  0.630000  0.457400  0.507300  1
  C  C388  1  0.370000  0.042600  0.007300  1
  C  C389  1  0.252300  0.524400  0.388300  1
  C  C390  1  0.747700  0.975600  0.888300  1
  C  C391  1  0.747700  0.475600  0.611700  1
  C  C392  1  0.252300  0.024400  0.111700  1
  C  C393  1  0.871000  0.378400  0.683500  1
  C  C394  1  0.129000  0.121600  0.183500  1
  C  C395  1  0.129000  0.621600  0.316500  1
  C  C396  1  0.871000  0.878400  0.816500  1
  C  C397  1  0.966000  0.442000  0.768100  1
  C  C398  1  0.034000  0.058000  0.268100  1
  C  C399  1  0.034000  0.558000  0.231900  1
  C  C400  1  0.966000  0.942000  0.731900  1
  C  C401  1  0.731300  0.874600  0.524600  1
  C  C402  1  0.268700  0.625400  0.024600  1
  C  C403  1  0.268700  0.125400  0.475400  1
  C  C404  1  0.731300  0.374600  0.975400  1
  C  C405  1  0.724000  0.901400  0.553800  1
  C  C406  1  0.276000  0.598600  0.053800  1
  C  C407  1  0.276000  0.098600  0.446200  1
  C  C408  1  0.724000  0.401400  0.946200  1
  C  C409  1  0.405000  0.579200  0.510100  1
  C  C410  1  0.595000  0.920800  0.010100  1
  C  C411  1  0.595000  0.420800  0.489900  1
  C  C412  1  0.405000  0.079200  0.989900  1
  C  C413  1  0.333000  0.497900  0.410000  1
  C  C414  1  0.667000  0.002100  0.910000  1
  C  C415  1  0.667000  0.502100  0.590000  1
  C  C416  1  0.333000  0.997900  0.090000  1
  C  C417  1  0.847000  0.204400  0.706400  1
  C  C418  1  0.153000  0.295600  0.206400  1
  C  C419  1  0.153000  0.795600  0.293600  1
  C  C420  1  0.847000  0.704400  0.793600  1
  C  C421  1  0.730000  0.409000  0.724200  1
  C  C422  1  0.270000  0.091000  0.224200  1
  C  C423  1  0.270000  0.591000  0.275800  1
  C  C424  1  0.730000  0.909000  0.775800  1
  C  C425  1  0.976000  0.417000  0.807500  1
  C  C426  1  0.024000  0.083000  0.307500  1
  C  C427  1  0.024000  0.583000  0.192500  1
  C  C428  1  0.976000  0.917000  0.692500  1
  C  C429  1  0.856000  0.291000  0.691400  1
  C  C430  1  0.144000  0.209000  0.191400  1
  C  C431  1  0.144000  0.709000  0.308600  1
  C  C432  1  0.856000  0.791000  0.808600  1
  C  C433  1  0.718900  0.565700  0.892300  1.0
  C  C434  1  0.281100  0.934300  0.392300  1.0
  C  C435  1  0.281100  0.434300  0.107700  1.0
  C  C436  1  0.718900  0.065700  0.607700  1.0
  C  C437  1  0.803100  0.549000  0.894800  1.0
  C  C438  1  0.196900  0.951000  0.394800  1.0
  C  C439  1  0.196900  0.451000  0.105200  1.0
  C  C440  1  0.803100  0.049000  0.605200  1.0
  C  C441  1  0.806700  0.485700  0.885700  1.0
  C  C442  1  0.193300  0.014300  0.385700  1.0
  C  C443  1  0.193300  0.514300  0.114300  1.0
  C  C444  1  0.806700  0.985700  0.614300  1.0
  C  C445  1  0.729600  0.441300  0.874900  1.0
  C  C446  1  0.270400  0.058700  0.374900  1.0
  C  C447  1  0.270400  0.558700  0.125100  1.0
  C  C448  1  0.729600  0.941300  0.625100  1.0
  C  C449  1  0.646300  0.461700  0.873000  1.0
  C  C450  1  0.353700  0.038300  0.373000  1.0
  C  C451  1  0.353700  0.538300  0.127000  1.0
  C  C452  1  0.646300  0.961700  0.627000  1.0
  C  C453  1  0.560300  0.417700  0.861600  1.0
  C  C454  1  0.439700  0.082300  0.361600  1.0
  C  C455  1  0.439700  0.582300  0.138400  1.0
  C  C456  1  0.560300  0.917700  0.638400  1.0
  C  C457  1  0.405100  0.396100  0.847490  1.0
  C  C458  1  0.594900  0.103900  0.347490  1.0
  C  C459  1  0.594900  0.603900  0.152510  1.0
  C  C460  1  0.405100  0.896100  0.652510  1.0
  C  C461  1  0.400400  0.382300  0.818530  1.0
  C  C462  1  0.599600  0.117700  0.318530  1.0
  C  C463  1  0.599600  0.617700  0.181470  1.0
  C  C464  1  0.400400  0.882300  0.681470  1.0
  C  C465  1  0.319200  0.344400  0.805960  1.0
  C  C466  1  0.680800  0.155600  0.305960  1.0
  C  C467  1  0.680800  0.655600  0.194040  1.0
  C  C468  1  0.319200  0.844400  0.694040  1.0
  C  C469  1  0.241000  0.321000  0.823450  1.0
  C  C470  1  0.759000  0.179000  0.323450  1.0
  C  C471  1  0.759000  0.679000  0.176550  1.0
  C  C472  1  0.241000  0.821000  0.676550  1.0
  C  C473  1  0.245800  0.335400  0.852310  1.0
  C  C474  1  0.754200  0.164600  0.352310  1.0
  C  C475  1  0.754200  0.664600  0.147690  1.0
  C  C476  1  0.245800  0.835400  0.647690  1.0
  C  C477  1  0.327400  0.372000  0.864480  1.0
  C  C478  1  0.672600  0.128000  0.364480  1.0
  C  C479  1  0.672600  0.628000  0.135520  1.0
  C  C480  1  0.327400  0.872000  0.635520  1.0
  C  C481  1  0.315600  0.331500  0.774710  1.0
  C  C482  1  0.684400  0.168500  0.274710  1.0
  C  C483  1  0.684400  0.668500  0.225290  1.0
  C  C484  1  0.315600  0.831500  0.725290  1.0
  C  C485  1  0.397600  0.339000  0.759250  1.0
  C  C486  1  0.602400  0.161000  0.259250  1.0
  C  C487  1  0.602400  0.661000  0.240750  1.0
  C  C488  1  0.397600  0.839000  0.740750  1.0
  C  C489  1  0.396100  0.335400  0.729620  1.0
  C  C490  1  0.603900  0.164600  0.229620  1.0
  C  C491  1  0.603900  0.664600  0.270380  1.0
  C  C492  1  0.396100  0.835400  0.770380  1.0
  C  C493  1  0.309700  0.321700  0.714870  1.0
  C  C494  1  0.690300  0.178300  0.214870  1.0
  C  C495  1  0.690300  0.678300  0.285130  1.0
  C  C496  1  0.309700  0.821700  0.785130  1.0
  C  C497  1  0.226200  0.309000  0.730590  1.0
  C  C498  1  0.773800  0.191000  0.230590  1.0
  C  C499  1  0.773800  0.691000  0.269410  1.0
  C  C500  1  0.226200  0.809000  0.769410  1.0
  C  C501  1  0.231500  0.315600  0.760530  1.0
  C  C502  1  0.768500  0.184400  0.260530  1.0
  C  C503  1  0.768500  0.684400  0.239470  1.0
  C  C504  1  0.231500  0.815600  0.739470  1.0
  C  C505  1  0.308600  0.322300  0.684960  1.0
  C  C506  1  0.691400  0.177700  0.184960  1.0
  C  C507  1  0.691400  0.677700  0.315040  1.0
  C  C508  1  0.308600  0.822300  0.815040  1.0
  C  C509  1  0.392600  0.338200  0.669430  1.0
  C  C510  1  0.607400  0.161800  0.169430  1.0
  C  C511  1  0.607400  0.661800  0.330570  1.0
  C  C512  1  0.392600  0.838200  0.830570  1.0
  C  C513  1  0.388200  0.340300  0.639690  1.0
  C  C514  1  0.611800  0.159700  0.139690  1.0
  C  C515  1  0.611800  0.659700  0.360310  1.0
  C  C516  1  0.388200  0.840300  0.860310  1.0
  C  C517  1  0.304000  0.323700  0.625230  1.0
  C  C518  1  0.696000  0.176300  0.125230  1.0
  C  C519  1  0.696000  0.676300  0.374770  1.0
  C  C520  1  0.304000  0.823700  0.874770  1.0
  C  C521  1  0.222100  0.307800  0.640860  1.0
  C  C522  1  0.777900  0.192200  0.140860  1.0
  C  C523  1  0.777900  0.692200  0.359140  1.0
  C  C524  1  0.222100  0.807800  0.859140  1.0
  C  C525  1  0.222900  0.306500  0.670700  1.0
  C  C526  1  0.777100  0.193500  0.170700  1.0
  C  C527  1  0.777100  0.693500  0.329300  1.0
  C  C528  1  0.222900  0.806500  0.829300  1.0
  C  C529  1  0.479700  0.346800  0.713280  1.0
  C  C530  1  0.520300  0.153200  0.213280  1.0
  C  C531  1  0.520300  0.653200  0.286720  1.0
  C  C532  1  0.479700  0.846800  0.786720  1.0
  C  C533  1  0.478700  0.350000  0.684470  1.0
  C  C534  1  0.521300  0.150000  0.184470  1.0
  C  C535  1  0.521300  0.650000  0.315530  1.0
  C  C536  1  0.478700  0.850000  0.815530  1.0
  C  C537  1  0.140300  0.292800  0.715300  1.0
  C  C538  1  0.859700  0.207200  0.215300  1.0
  C  C539  1  0.859700  0.707200  0.284700  1.0
  C  C540  1  0.140300  0.792800  0.784700  1.0
  C  C541  1  0.137600  0.290700  0.687010  1.0
  C  C542  1  0.862400  0.209300  0.187010  1.0
  C  C543  1  0.862400  0.709300  0.312990  1.0
  C  C544  1  0.137600  0.790700  0.812990  1.0
  C  C545  1  0.299800  0.323400  0.593440  1.0
  C  C546  1  0.700200  0.176600  0.093440  1.0
  C  C547  1  0.700200  0.676600  0.406560  1.0
  C  C548  1  0.299800  0.823400  0.906560  1.0
  C  C549  1  0.229400  0.275700  0.580380  1.0
  C  C550  1  0.770600  0.224300  0.080380  1.0
  C  C551  1  0.770600  0.724300  0.419620  1.0
  C  C552  1  0.229400  0.775700  0.919620  1.0
  C  C553  1  0.218900  0.276400  0.551120  1.0
  C  C554  1  0.781100  0.223600  0.051120  1.0
  C  C555  1  0.781100  0.723600  0.448880  1.0
  C  C556  1  0.218900  0.776400  0.948880  1.0
  C  C557  1  0.280300  0.322400  0.534600  1.0
  C  C558  1  0.719700  0.177600  0.034600  1.0
  C  C559  1  0.719700  0.677600  0.465400  1.0
  C  C560  1  0.280300  0.822400  0.965400  1.0
  C  C561  1  0.353700  0.368300  0.547680  1.0
  C  C562  1  0.646300  0.131700  0.047680  1.0
  C  C563  1  0.646300  0.631700  0.452320  1.0
  C  C564  1  0.353700  0.868300  0.952320  1.0
  C  C565  1  0.364300  0.369800  0.576540  1.0
  C  C566  1  0.635700  0.130200  0.076540  1.0
  C  C567  1  0.635700  0.630200  0.423460  1.0
  C  C568  1  0.364300  0.869800  0.923460  1.0
  C  C569  1  0.125500  0.165900  0.543840  1.0
  C  C570  1  0.874500  0.334100  0.043840  1.0
  C  C571  1  0.874500  0.834100  0.456160  1.0
  C  C572  1  0.125500  0.665900  0.956160  1.0
  C  C573  1  0.041800  0.119200  0.533900  1.0
  C  C574  1  0.958200  0.380800  0.033900  1.0
  C  C575  1  0.958200  0.880800  0.466100  1.0
  C  C576  1  0.041800  0.619200  0.966100  1.0
  C  C577  1  0.020400  0.051600  0.540600  1.0
  C  C578  1  0.979600  0.448400  0.040600  1.0
  C  C579  1  0.979600  0.948400  0.459400  1.0
  C  C580  1  0.020400  0.551600  0.959400  1.0
  C  C581  1  0.937900  0.009600  0.530600  1.0
  C  C582  1  0.062100  0.490400  0.030600  1.0
  C  C583  1  0.062100  0.990400  0.469400  1.0
  C  C584  1  0.937900  0.509600  0.969400  1.0
  C  C585  1  0.880400  0.037500  0.514200  1.0
  C  C586  1  0.119600  0.462500  0.014200  1.0
  C  C587  1  0.119600  0.962500  0.485800  1.0
  C  C588  1  0.880400  0.537500  0.985800  1.0
  C  C589  1  0.907400  0.106400  0.508360  1.0
  C  C590  1  0.092600  0.393600  0.008360  1.0
  C  C591  1  0.092600  0.893600  0.491640  1.0
  C  C592  1  0.907400  0.606400  0.991640  1.0
  C  C593  1  0.546300  0.684100  0.902300  1.0
  C  C594  1  0.453700  0.815900  0.402300  1.0
  C  C595  1  0.453700  0.315900  0.097700  1.0
  C  C596  1  0.546300  0.184100  0.597700  1.0
  C  C597  1  0.567400  0.755000  0.903700  1.0
  C  C598  1  0.432600  0.745000  0.403700  1.0
  C  C599  1  0.432600  0.245000  0.096300  1.0
  C  C600  1  0.567400  0.255000  0.596300  1.0
  C  C601  1  0.602600  0.791800  0.879700  1.0
  C  C602  1  0.397400  0.708200  0.379700  1.0
  C  C603  1  0.397400  0.208200  0.120300  1.0
  C  C604  1  0.602600  0.291800  0.620300  1.0
  C  C605  1  0.609400  0.758000  0.855100  1.0
  C  C606  1  0.390600  0.742000  0.355100  1.0
  C  C607  1  0.390600  0.242000  0.144900  1.0
  C  C608  1  0.609400  0.258000  0.644900  1.0
  C  C609  1  0.583800  0.687400  0.854870  1.0
  C  C610  1  0.416200  0.812600  0.354870  1.0
  C  C611  1  0.416200  0.312600  0.145130  1.0
  C  C612  1  0.583800  0.187400  0.645130  1.0
  C  C613  1  0.590100  0.648200  0.829210  1.0
  C  C614  1  0.409900  0.851800  0.329210  1.0
  C  C615  1  0.409900  0.351800  0.170790  1.0
  C  C616  1  0.590100  0.148200  0.670790  1.0
  C  C617  1  0.574900  0.550900  0.802790  1.0
  C  C618  1  0.425100  0.949100  0.302790  1.0
  C  C619  1  0.425100  0.449100  0.197210  1.0
  C  C620  1  0.574900  0.050900  0.697210  1.0
  C  C621  1  0.514300  0.549900  0.780030  1.0
  C  C622  1  0.485700  0.950100  0.280030  1.0
  C  C623  1  0.485700  0.450100  0.219970  1.0
  C  C624  1  0.514300  0.049900  0.719970  1.0
  C  C625  1  0.531200  0.520300  0.754510  1.0
  C  C626  1  0.468800  0.979700  0.254510  1.0
  C  C627  1  0.468800  0.479700  0.245490  1.0
  C  C628  1  0.531200  0.020300  0.745490  1.0
  C  C629  1  0.608000  0.492300  0.752100  1.0
  C  C630  1  0.392000  0.007700  0.252100  1.0
  C  C631  1  0.392000  0.507700  0.247900  1.0
  C  C632  1  0.608000  0.992300  0.747900  1.0
  C  C633  1  0.666100  0.491300  0.775300  1.0
  C  C634  1  0.333900  0.008700  0.275300  1.0
  C  C635  1  0.333900  0.508700  0.224700  1.0
  C  C636  1  0.666100  0.991300  0.724700  1.0
  C  C637  1  0.649000  0.520300  0.800510  1.0
  C  C638  1  0.351000  0.979700  0.300510  1.0
  C  C639  1  0.351000  0.479700  0.199490  1.0
  C  C640  1  0.649000  0.020300  0.699490  1.0
  C  C641  1  0.468700  0.517600  0.729420  1.0
  C  C642  1  0.531300  0.982400  0.229420  1.0
  C  C643  1  0.531300  0.482400  0.270580  1.0
  C  C644  1  0.468700  0.017600  0.770580  1.0
  C  C645  1  0.372500  0.499400  0.733020  1.0
  C  C646  1  0.627500  0.000600  0.233020  1.0
  C  C647  1  0.627500  0.500600  0.266980  1.0
  C  C648  1  0.372500  0.999400  0.766980  1.0
  C  C649  1  0.311500  0.491600  0.710180  1.0
  C  C650  1  0.688500  0.008400  0.210180  1.0
  C  C651  1  0.688500  0.508400  0.289820  1.0
  C  C652  1  0.311500  0.991600  0.789820  1.0
  C  C653  1  0.349300  0.504300  0.681730  1.0
  C  C654  1  0.650700  0.995700  0.181730  1.0
  C  C655  1  0.650700  0.495700  0.318270  1.0
  C  C656  1  0.349300  0.004300  0.818270  1.0
  C  C657  1  0.446300  0.524200  0.678280  1.0
  C  C658  1  0.553700  0.975800  0.178280  1.0
  C  C659  1  0.553700  0.475800  0.321720  1.0
  C  C660  1  0.446300  0.024200  0.821720  1.0
  C  C661  1  0.504900  0.530500  0.702110  1.0
  C  C662  1  0.495100  0.969500  0.202110  1.0
  C  C663  1  0.495100  0.469500  0.297890  1.0
  C  C664  1  0.504900  0.030500  0.797890  1.0
  C  C665  1  0.288100  0.495100  0.658490  1.0
  C  C666  1  0.711900  0.004900  0.158490  1.0
  C  C667  1  0.711900  0.504900  0.341510  1.0
  C  C668  1  0.288100  0.995100  0.841510  1.0
  C  C669  1  0.190700  0.473900  0.662400  1.0
  C  C670  1  0.809300  0.026100  0.162400  1.0
  C  C671  1  0.809300  0.526100  0.337600  1.0
  C  C672  1  0.190700  0.973900  0.837600  1.0
  C  C673  1  0.132700  0.464200  0.638310  1.0
  C  C674  1  0.867300  0.035800  0.138310  1.0
  C  C675  1  0.867300  0.535800  0.361690  1.0
  C  C676  1  0.132700  0.964200  0.861690  1.0
  C  C677  1  0.168700  0.472600  0.610920  1.0
  C  C678  1  0.831300  0.027400  0.110920  1.0
  C  C679  1  0.831300  0.527400  0.389080  1.0
  C  C680  1  0.168700  0.972600  0.889080  1.0
  C  C681  1  0.264300  0.493500  0.607470  1.0
  C  C682  1  0.735700  0.006500  0.107470  1.0
  C  C683  1  0.735700  0.506500  0.392530  1.0
  C  C684  1  0.264300  0.993500  0.892530  1.0
  C  C685  1  0.324300  0.505100  0.630540  1.0
  C  C686  1  0.675700  0.994900  0.130540  1.0
  C  C687  1  0.675700  0.494900  0.369460  1.0
  C  C688  1  0.324300  0.005100  0.869460  1.0
  C  C689  1  0.212500  0.470900  0.712860  1.0
  C  C690  1  0.787500  0.029100  0.212860  1.0
  C  C691  1  0.787500  0.529100  0.287140  1.0
  C  C692  1  0.212500  0.970900  0.787140  1.0
  C  C693  1  0.153800  0.462700  0.690730  1.0
  C  C694  1  0.846200  0.037300  0.190730  1.0
  C  C695  1  0.846200  0.537300  0.309270  1.0
  C  C696  1  0.153800  0.962700  0.809270  1.0
  C  C697  1  0.481100  0.535000  0.649740  1.0
  C  C698  1  0.518900  0.965000  0.149740  1.0
  C  C699  1  0.518900  0.465000  0.350260  1.0
  C  C700  1  0.481100  0.035000  0.850260  1.0
  C  C701  1  0.423500  0.526900  0.627280  1.0
  C  C702  1  0.576500  0.973100  0.127280  1.0
  C  C703  1  0.576500  0.473100  0.372720  1.0
  C  C704  1  0.423500  0.026900  0.872720  1.0
  C  C705  1  0.104600  0.459400  0.585700  1.0
  C  C706  1  0.895400  0.040600  0.085700  1.0
  C  C707  1  0.895400  0.540600  0.414300  1.0
  C  C708  1  0.104600  0.959400  0.914300  1.0
  C  C709  1  0.125500  0.423600  0.562470  1.0
  C  C710  1  0.874500  0.076400  0.062470  1.0
  C  C711  1  0.874500  0.576400  0.437530  1.0
  C  C712  1  0.125500  0.923600  0.937530  1.0
  C  C713  1  0.067700  0.414200  0.538850  1.0
  C  C714  1  0.932300  0.085800  0.038850  1.0
  C  C715  1  0.932300  0.585800  0.461150  1.0
  C  C716  1  0.067700  0.914200  0.961150  1.0
  C  C717  1  0.991100  0.440300  0.538100  1.0
  C  C718  1  0.008900  0.059700  0.038100  1.0
  C  C719  1  0.008900  0.559700  0.461900  1.0
  C  C720  1  0.991100  0.940300  0.961900  1.0
  C  C721  1  0.968100  0.474500  0.561360  1.0
  C  C722  1  0.031900  0.025500  0.061360  1.0
  C  C723  1  0.031900  0.525500  0.438640  1.0
  C  C724  1  0.968100  0.974500  0.938640  1.0
  C  C725  1  0.024300  0.483500  0.584950  1.0
  C  C726  1  0.975700  0.016500  0.084950  1.0
  C  C727  1  0.975700  0.516500  0.415050  1.0
  C  C728  1  0.024300  0.983500  0.915050  1.0
  C  C729  1  0.102800  0.389200  0.491330  1.0
  C  C730  1  0.897200  0.110800  0.991330  1.0
  C  C731  1  0.897200  0.610800  0.508670  1.0
  C  C732  1  0.102800  0.889200  0.008670  1.0
  C  C733  1  0.111200  0.342300  0.469130  1.0
  C  C734  1  0.888800  0.157700  0.969130  1.0
  C  C735  1  0.888800  0.657700  0.530870  1.0
  C  C736  1  0.111200  0.842300  0.030870  1.0
  C  C737  1  0.133500  0.362600  0.441770  1.0
  C  C738  1  0.866500  0.137400  0.941770  1.0
  C  C739  1  0.866500  0.637400  0.558230  1.0
  C  C740  1  0.133500  0.862600  0.058230  1.0
  C  C741  1  0.138800  0.313900  0.421500  1.0
  C  C742  1  0.861200  0.186100  0.921500  1.0
  C  C743  1  0.861200  0.686100  0.578500  1.0
  C  C744  1  0.138800  0.813900  0.078500  1.0
  C  C745  1  0.122900  0.247400  0.429190  1.0
  C  C746  1  0.877100  0.252600  0.929190  1.0
  C  C747  1  0.877100  0.752600  0.570810  1.0
  C  C748  1  0.122900  0.747400  0.070810  1.0
  C  C749  1  0.096200  0.230100  0.457070  1.0
  C  C750  1  0.903800  0.269900  0.957070  1.0
  C  C751  1  0.903800  0.769900  0.542930  1.0
  C  C752  1  0.096200  0.730100  0.042930  1.0
  C  C753  1  0.482100  0.499000  0.935920  1.0
  C  C754  1  0.517900  0.001000  0.435920  1.0
  C  C755  1  0.517900  0.501000  0.064080  1.0
  C  C756  1  0.482100  0.999000  0.564080  1.0
  C  C757  1  0.429600  0.475100  0.959820  1.0
  C  C758  1  0.570400  0.024900  0.459820  1.0
  C  C759  1  0.570400  0.524900  0.040180  1.0
  C  C760  1  0.429600  0.975100  0.540180  1.0
  C  C761  1  0.337200  0.468000  0.959700  1.0
  C  C762  1  0.662800  0.032000  0.459700  1.0
  C  C763  1  0.662800  0.532000  0.040300  1.0
  C  C764  1  0.337200  0.968000  0.540300  1.0
  C  C765  1  0.295400  0.485400  0.935360  1.0
  C  C766  1  0.704600  0.014600  0.435360  1.0
  C  C767  1  0.704600  0.514600  0.064640  1.0
  C  C768  1  0.295400  0.985400  0.564640  1.0
  C  C769  1  0.350400  0.509700  0.912340  1.0
  C  C770  1  0.649600  0.990300  0.412340  1.0
  C  C771  1  0.649600  0.490300  0.087660  1.0
  C  C772  1  0.350400  0.009700  0.587660  1.0
  C  C773  1  0.312800  0.530700  0.886340  1.0
  C  C774  1  0.687200  0.969300  0.386340  1.0
  C  C775  1  0.687200  0.469300  0.113660  1.0
  C  C776  1  0.312800  0.030700  0.613660  1.0
  C  C777  1  0.329000  0.570100  0.839020  1.0
  C  C778  1  0.671000  0.929900  0.339020  1.0
  C  C779  1  0.671000  0.429900  0.160980  1.0
  C  C780  1  0.329000  0.070100  0.660980  1.0
  C  C781  1  0.277400  0.521700  0.820770  1.0
  C  C782  1  0.722600  0.978300  0.320770  1.0
  C  C783  1  0.722600  0.478300  0.179230  1.0
  C  C784  1  0.277400  0.021700  0.679230  1.0
  C  C785  1  0.252500  0.541900  0.794600  1.0
  C  C786  1  0.747500  0.958100  0.294600  1.0
  C  C787  1  0.747500  0.458100  0.205400  1.0
  C  C788  1  0.252500  0.041900  0.705400  1.0
  C  C789  1  0.279700  0.609700  0.786530  1.0
  C  C790  1  0.720300  0.890300  0.286530  1.0
  C  C791  1  0.720300  0.390300  0.213470  1.0
  C  C792  1  0.279700  0.109700  0.713470  1.0
  C  C793  1  0.330100  0.658100  0.805170  1.0
  C  C794  1  0.669900  0.841900  0.305170  1.0
  C  C795  1  0.669900  0.341900  0.194830  1.0
  C  C796  1  0.330100  0.158100  0.694830  1.0
  C  C797  1  0.354100  0.638100  0.831850  1.0
  C  C798  1  0.645900  0.861900  0.331850  1.0
  C  C799  1  0.645900  0.361900  0.168150  1.0
  C  C800  1  0.354100  0.138100  0.668150  1.0
  C  C801  1  0.321000  0.661800  0.709750  1.0
  C  C802  1  0.679000  0.838200  0.209750  1.0
  C  C803  1  0.679000  0.338200  0.290250  1.0
  C  C804  1  0.321000  0.161800  0.790250  1.0
  C  C805  1  0.394200  0.682100  0.691400  1.0
  C  C806  1  0.605800  0.817900  0.191400  1.0
  C  C807  1  0.605800  0.317900  0.308600  1.0
  C  C808  1  0.394200  0.182100  0.808600  1.0
  C  C809  1  0.376900  0.687100  0.662150  1.0
  C  C810  1  0.623100  0.812900  0.162150  1.0
  C  C811  1  0.623100  0.312900  0.337850  1.0
  C  C812  1  0.376900  0.187100  0.837850  1.0
  C  C813  1  0.288900  0.672300  0.652100  1.0
  C  C814  1  0.711100  0.827700  0.152100  1.0
  C  C815  1  0.711100  0.327700  0.347900  1.0
  C  C816  1  0.288900  0.172300  0.847900  1.0
  C  C817  1  0.211900  0.652900  0.670720  1.0
  C  C818  1  0.788100  0.847100  0.170720  1.0
  C  C819  1  0.788100  0.347100  0.329280  1.0
  C  C820  1  0.211900  0.152900  0.829280  1.0
  C  C821  1  0.228200  0.647200  0.700160  1.0
  C  C822  1  0.771800  0.852800  0.200160  1.0
  C  C823  1  0.771800  0.352800  0.299840  1.0
  C  C824  1  0.228200  0.147200  0.799840  1.0
  C  C825  1  0.150800  0.627900  0.718890  1.0
  C  C826  1  0.849200  0.872100  0.218890  1.0
  C  C827  1  0.849200  0.372100  0.281110  1.0
  C  C828  1  0.150800  0.127900  0.781110  1.0
  C  C829  1  0.063400  0.615400  0.708780  1.0
  C  C830  1  0.936600  0.884600  0.208780  1.0
  C  C831  1  0.936600  0.384600  0.291220  1.0
  C  C832  1  0.063400  0.115400  0.791220  1.0
  C  C833  1  0.046300  0.621100  0.679480  1.0
  C  C834  1  0.953700  0.878900  0.179480  1.0
  C  C835  1  0.953700  0.378900  0.320520  1.0
  C  C836  1  0.046300  0.121100  0.820520  1.0
  C  C837  1  0.119700  0.639800  0.661140  1.0
  C  C838  1  0.880300  0.860200  0.161140  1.0
  C  C839  1  0.880300  0.360200  0.338860  1.0
  C  C840  1  0.119700  0.139800  0.838860  1.0
  C  C841  1  0.340600  0.653600  0.740740  1.0
  C  C842  1  0.659400  0.846400  0.240740  1.0
  C  C843  1  0.659400  0.346400  0.259260  1.0
  C  C844  1  0.340600  0.153600  0.759260  1.0
  C  C845  1  0.169700  0.619000  0.749460  1.0
  C  C846  1  0.830300  0.881000  0.249460  1.0
  C  C847  1  0.830300  0.381000  0.250540  1.0
  C  C848  1  0.169700  0.119000  0.750540  1.0
  C  C849  1  0.271000  0.679400  0.621250  1.0
  C  C850  1  0.729000  0.820600  0.121250  1.0
  C  C851  1  0.729000  0.320600  0.378750  1.0
  C  C852  1  0.271000  0.179400  0.878750  1.0
  C  C853  1  0.099800  0.647900  0.630180  1.0
  C  C854  1  0.900200  0.852100  0.130180  1.0
  C  C855  1  0.900200  0.352100  0.369820  1.0
  C  C856  1  0.099800  0.147900  0.869820  1.0
  C  C857  1  0.161500  0.682800  0.583210  1.0
  C  C858  1  0.838500  0.817200  0.083210  1.0
  C  C859  1  0.838500  0.317200  0.416790  1.0
  C  C860  1  0.161500  0.182800  0.916790  1.0
  C  C861  1  0.170200  0.637400  0.562260  1.0
  C  C862  1  0.829800  0.862600  0.062260  1.0
  C  C863  1  0.829800  0.362600  0.437740  1.0
  C  C864  1  0.170200  0.137400  0.937740  1.0
  C  C865  1  0.152500  0.651300  0.534340  1.0
  C  C866  1  0.847500  0.848700  0.034340  1.0
  C  C867  1  0.847500  0.348700  0.465660  1.0
  C  C868  1  0.152500  0.151300  0.965660  1.0
  C  C869  1  0.127100  0.710000  0.527640  1.0
  C  C870  1  0.872900  0.790000  0.027640  1.0
  C  C871  1  0.872900  0.290000  0.472360  1.0
  C  C872  1  0.127100  0.210000  0.972360  1.0
  C  C873  1  0.119100  0.755800  0.548460  1.0
  C  C874  1  0.880900  0.744200  0.048460  1.0
  C  C875  1  0.880900  0.244200  0.451540  1.0
  C  C876  1  0.119100  0.255800  0.951540  1.0
  C  C877  1  0.136600  0.741100  0.576430  1.0
  C  C878  1  0.863400  0.758900  0.076430  1.0
  C  C879  1  0.863400  0.258900  0.423570  1.0
  C  C880  1  0.136600  0.241100  0.923570  1.0
  C  C881  1  0.157800  0.714700  0.478890  1.0
  C  C882  1  0.842200  0.785300  0.978890  1.0
  C  C883  1  0.842200  0.285300  0.521110  1.0
  C  C884  1  0.157800  0.214700  0.021110  1.0
  C  C885  1  0.132700  0.722800  0.449130  1.0
  C  C886  1  0.867300  0.777200  0.949130  1.0
  C  C887  1  0.867300  0.277200  0.550870  1.0
  C  C888  1  0.132700  0.222800  0.050870  1.0
  C  C889  1  0.190900  0.716600  0.427290  1.0
  C  C890  1  0.809100  0.783400  0.927290  1.0
  C  C891  1  0.809100  0.283400  0.572710  1.0
  C  C892  1  0.190900  0.216600  0.072710  1.0
  C  C893  1  0.163500  0.725400  0.399500  1.0
  C  C894  1  0.836500  0.774600  0.899500  1.0
  C  C895  1  0.836500  0.274600  0.600500  1.0
  C  C896  1  0.163500  0.225400  0.100500  1.0
  C  C897  1  0.081400  0.740000  0.395360  1.0
  C  C898  1  0.918600  0.760000  0.895360  1.0
  C  C899  1  0.918600  0.260000  0.604640  1.0
  C  C900  1  0.081400  0.240000  0.104640  1.0
  C  C901  1  0.025600  0.746000  0.418170  1.0
  C  C902  1  0.974400  0.754000  0.918170  1.0
  C  C903  1  0.974400  0.254000  0.581830  1.0
  C  C904  1  0.025600  0.246000  0.081830  1.0
  S  S905  1  0.298700  0.566600  0.466580  1
  S  S906  1  0.701300  0.933400  0.966580  1
  S  S907  1  0.701300  0.433400  0.533420  1
  S  S908  1  0.298700  0.066600  0.033420  1
  S  S909  1  0.342700  0.518000  0.416490  1
  S  S910  1  0.657300  0.982000  0.916490  1
  S  S911  1  0.657300  0.482000  0.583510  1
  S  S912  1  0.342700  0.018000  0.083510  1
  S  S913  1  0.779300  0.361300  0.711600  1
  S  S914  1  0.220700  0.138700  0.211600  1
  S  S915  1  0.220700  0.638700  0.288400  1
  S  S916  1  0.779300  0.861300  0.788400  1
  S  S917  1  0.873300  0.366800  0.762700  1
  S  S918  1  0.126700  0.133200  0.262700  1
  S  S919  1  0.126700  0.633200  0.237300  1
  S  S920  1  0.873300  0.866800  0.737300  1
  S  S921  1  0.336700  0.594800  0.478900  1
  S  S922  1  0.663300  0.905200  0.978900  1
  S  S923  1  0.663300  0.405200  0.521100  1
  S  S924  1  0.336700  0.094800  0.021100  1
  S  S925  1  0.386200  0.488800  0.446460  1
  S  S926  1  0.613800  0.011200  0.946460  1
  S  S927  1  0.613800  0.511200  0.553540  1
  S  S928  1  0.386200  0.988800  0.053540  1
  S  S929  1  0.841000  0.273000  0.681500  1
  S  S930  1  0.159000  0.227000  0.181500  1
  S  S931  1  0.159000  0.727000  0.318500  1
  S  S932  1  0.841000  0.773000  0.818500  1
  S  S933  1  0.808900  0.401700  0.699700  1
  S  S934  1  0.191100  0.098300  0.199700  1
  S  S935  1  0.191100  0.598300  0.300300  1
  S  S936  1  0.808900  0.901700  0.800300  1
  S  S937  1  0.992000  0.389000  0.771500  1
  S  S938  1  0.008000  0.111000  0.271500  1
  S  S939  1  0.008000  0.611000  0.228500  1
  S  S940  1  0.992000  0.889000  0.728500  1
  S  S941  1  0.901000  0.296600  0.728500  1
  S  S942  1  0.099000  0.203400  0.228500  1
  S  S943  1  0.099000  0.703400  0.271500  1
  S  S944  1  0.901000  0.796600  0.771500  1
  N  N945  1  0.499900  0.842600  0.580700  1
  N  N946  1  0.500100  0.657400  0.080700  1
  N  N947  1  0.500100  0.157400  0.419300  1
  N  N948  1  0.499900  0.342600  0.919300  1
  N  N949  1  0.061900  0.642900  0.885000  1
  N  N950  1  0.938100  0.857100  0.385000  1
  N  N951  1  0.938100  0.357100  0.115000  1
  N  N952  1  0.061900  0.142900  0.615000  1
  N  N953  1  0.345300  0.656600  0.937900  1
  N  N954  1  0.654700  0.843400  0.437900  1
  N  N955  1  0.654700  0.343400  0.062100  1
  N  N956  1  0.345300  0.156600  0.562100  1
  N  N957  1  0.281800  0.510300  0.442700  1
  N  N958  1  0.718200  0.989700  0.942700  1
  N  N959  1  0.718200  0.489700  0.557300  1
  N  N960  1  0.281800  0.010300  0.057300  1
  N  N961  1  0.819000  0.394400  0.738400  1
  N  N962  1  0.181000  0.105600  0.238400  1
  N  N963  1  0.181000  0.605600  0.261600  1
  N  N964  1  0.819000  0.894400  0.761600  1
  N  N965  1  0.771200  0.868200  0.509000  1
  N  N966  1  0.228800  0.631800  0.009000  1
  N  N967  1  0.228800  0.131800  0.491000  1
  N  N968  1  0.771200  0.368200  0.991000  1
  N  N969  1  0.393400  0.569800  0.454400  1
  N  N970  1  0.606600  0.930200  0.954400  1
  N  N971  1  0.606600  0.430200  0.545600  1
  N  N972  1  0.393400  0.069800  0.045600  1
  N  N973  1  0.849000  0.330900  0.706400  1
  N  N974  1  0.151000  0.169100  0.206400  1
  N  N975  1  0.151000  0.669100  0.293600  1
  N  N976  1  0.849000  0.830900  0.793600  1
  N  N977  1  0.917000  0.369000  0.745400  1
  N  N978  1  0.083000  0.131000  0.245400  1
  N  N979  1  0.083000  0.631000  0.254600  1
  N  N980  1  0.917000  0.869000  0.754600  1
  N  N981  1  0.642700  0.523600  0.881620  1.0
  N  N982  1  0.357300  0.976400  0.381620  1.0
  N  N983  1  0.357300  0.476400  0.118380  1.0
  N  N984  1  0.642700  0.023600  0.618380  1.0
  N  N985  1  0.488900  0.438900  0.859180  1.0
  N  N986  1  0.511100  0.061100  0.359180  1.0
  N  N987  1  0.511100  0.561100  0.140820  1.0
  N  N988  1  0.488900  0.938900  0.640820  1.0
  N  N989  1  0.140800  0.229400  0.538530  1.0
  N  N990  1  0.859200  0.270600  0.038530  1.0
  N  N991  1  0.859200  0.770600  0.461470  1.0
  N  N992  1  0.140800  0.729400  0.961470  1.0
  N  N993  1  0.984700  0.146400  0.517750  1.0
  N  N994  1  0.015300  0.353600  0.017750  1.0
  N  N995  1  0.015300  0.853600  0.482250  1.0
  N  N996  1  0.984700  0.646400  0.982250  1.0
  N  N997  1  0.553100  0.651100  0.878450  1.0
  N  N998  1  0.446900  0.848900  0.378450  1.0
  N  N999  1  0.446900  0.348900  0.121550  1.0
  N  N1000  1  0.553100  0.151100  0.621550  1.0
  N  N1001  1  0.563300  0.584900  0.828900  1.0
  N  N1002  1  0.436700  0.915100  0.328900  1.0
  N  N1003  1  0.436700  0.415100  0.171100  1.0
  N  N1004  1  0.563300  0.084900  0.671100  1.0
  N  N1005  1  0.081800  0.369300  0.516640  1.0
  N  N1006  1  0.918200  0.130700  0.016640  1.0
  N  N1007  1  0.918200  0.630700  0.483360  1.0
  N  N1008  1  0.081800  0.869300  0.983360  1.0
  N  N1009  1  0.089100  0.275500  0.476290  1.0
  N  N1010  1  0.910900  0.224500  0.976290  1.0
  N  N1011  1  0.910900  0.724500  0.523710  1.0
  N  N1012  1  0.089100  0.775500  0.023710  1.0
  N  N1013  1  0.104000  0.724600  0.499130  1.0
  N  N1014  1  0.896000  0.775400  0.999130  1.0
  N  N1015  1  0.896000  0.275400  0.500870  1.0
  N  N1016  1  0.104000  0.224600  0.000870  1.0
  N  N1017  1  0.050200  0.737900  0.444900  1.0
  N  N1018  1  0.949800  0.762100  0.944900  1.0
  N  N1019  1  0.949800  0.262100  0.555100  1.0
  N  N1020  1  0.050200  0.237900  0.055100  1.0
  N  N1021  1  0.261900  0.628600  0.758030  1.0
  N  N1022  1  0.738100  0.871400  0.258030  1.0
  N  N1023  1  0.738100  0.371400  0.241970  1.0
  N  N1024  1  0.261900  0.128600  0.741970  1.0
  N  N1025  1  0.178000  0.668600  0.612850  1.0
  N  N1026  1  0.822000  0.831400  0.112850  1.0
  N  N1027  1  0.822000  0.331400  0.387150  1.0
  N  N1028  1  0.178000  0.168600  0.887150  1.0
  N  N1029  1  0.444300  0.516300  0.912620  1.0
  N  N1030  1  0.555700  0.983700  0.412620  1.0
  N  N1031  1  0.555700  0.483700  0.087380  1.0
  N  N1032  1  0.444300  0.016300  0.587380  1.0
  N  N1033  1  0.366000  0.549800  0.864850  1.0
  N  N1034  1  0.634000  0.950200  0.364850  1.0
  N  N1035  1  0.634000  0.450200  0.135150  1.0
  N  N1036  1  0.366000  0.049800  0.635150  1.0
  O  O1037  1  0.215400  0.556600  0.480900  1
  O  O1038  1  0.784600  0.943400  0.980900  1
  O  O1039  1  0.784600  0.443400  0.519100  1
  O  O1040  1  0.215400  0.056600  0.019100  1
  O  O1041  1  0.347100  0.636300  0.458100  1
  O  O1042  1  0.652900  0.863700  0.958100  1
  O  O1043  1  0.652900  0.363700  0.541900  1
  O  O1044  1  0.347100  0.136300  0.041900  1
  O  O1045  1  0.415500  0.573400  0.410400  1
  O  O1046  1  0.584500  0.926600  0.910400  1
  O  O1047  1  0.584500  0.426600  0.589600  1
  O  O1048  1  0.415500  0.073400  0.089600  1
  O  O1049  1  0.361400  0.445600  0.409200  1
  O  O1050  1  0.638600  0.054400  0.909200  1
  O  O1051  1  0.638600  0.554400  0.590800  1
  O  O1052  1  0.361400  0.945600  0.090800  1
  O  O1053  1  0.751500  0.278600  0.712500  1
  O  O1054  1  0.248500  0.221400  0.212500  1
  O  O1055  1  0.248500  0.721400  0.287500  1
  O  O1056  1  0.751500  0.778600  0.787500  1
  O  O1057  1  0.710200  0.391900  0.700000  1
  O  O1058  1  0.289800  0.108100  0.200000  1
  O  O1059  1  0.289800  0.608100  0.300000  1
  O  O1060  1  0.710200  0.891900  0.800000  1
  O  O1061  1  0.924000  0.318900  0.758500  1
  O  O1062  1  0.076000  0.181100  0.258500  1
  O  O1063  1  0.076000  0.681100  0.241500  1
  O  O1064  1  0.924000  0.818900  0.741500  1
  O  O1065  1  0.822000  0.362900  0.791300  1
  O  O1066  1  0.178000  0.137100  0.291300  1
  O  O1067  1  0.178000  0.637100  0.208700  1
  O  O1068  1  0.822000  0.862900  0.708700  1
  O  O1069  1  0.349400  0.666400  0.478000  1
  O  O1070  1  0.650600  0.833600  0.978000  1
  O  O1071  1  0.650600  0.333600  0.522000  1
  O  O1072  1  0.349400  0.166400  0.022000  1
  O  O1073  1  0.241600  0.553700  0.480200  1
  O  O1074  1  0.758400  0.946300  0.980200  1
  O  O1075  1  0.758400  0.446300  0.519800  1
  O  O1076  1  0.241600  0.053700  0.019800  1
  O  O1077  1  0.323600  0.438000  0.462200  1
  O  O1078  1  0.676400  0.062000  0.962200  1
  O  O1079  1  0.676400  0.562000  0.537800  1
  O  O1080  1  0.323600  0.938000  0.037800  1
  O  O1081  1  0.473200  0.474300  0.442200  1
  O  O1082  1  0.526800  0.025700  0.942200  1
  O  O1083  1  0.526800  0.525700  0.557800  1
  O  O1084  1  0.473200  0.974300  0.057800  1
  O  O1085  1  0.940000  0.300600  0.672600  1
  O  O1086  1  0.060000  0.199400  0.172600  1
  O  O1087  1  0.060000  0.699400  0.327400  1
  O  O1088  1  0.940000  0.800600  0.827400  1
  O  O1089  1  0.789000  0.221100  0.663700  1
  O  O1090  1  0.211000  0.278900  0.163700  1
  O  O1091  1  0.211000  0.778900  0.336300  1
  O  O1092  1  0.789000  0.721100  0.836300  1
  O  O1093  1  0.801000  0.424000  0.669700  1
  O  O1094  1  0.199000  0.076000  0.169700  1
  O  O1095  1  0.199000  0.576000  0.330300  1
  O  O1096  1  0.801000  0.924000  0.830300  1
  O  O1097  1  0.901000  0.441900  0.710800  1
  O  O1098  1  0.099000  0.058100  0.210800  1
  O  O1099  1  0.099000  0.558100  0.289200  1
  O  O1100  1  0.901000  0.941900  0.789200  1
  O  O1101  1  0.064000  0.434000  0.757700  1
  O  O1102  1  0.936000  0.066000  0.257700  1
  O  O1103  1  0.936000  0.566000  0.242300  1
  O  O1104  1  0.064000  0.934000  0.742300  1
  O  O1105  1  0.991000  0.318000  0.780800  1
  O  O1106  1  0.009000  0.182000  0.280800  1
  O  O1107  1  0.009000  0.682000  0.219200  1
  O  O1108  1  0.991000  0.818000  0.719200  1
  O  O1109  1  0.877000  0.233000  0.737500  1
  O  O1110  1  0.123000  0.267000  0.237500  1
  O  O1111  1  0.123000  0.767000  0.262500  1
  O  O1112  1  0.877000  0.733000  0.762500  1
  O  O1113  1  0.996000  0.313000  0.714300  1
  O  O1114  1  0.004000  0.187000  0.214300  1
  O  O1115  1  0.004000  0.687000  0.285700  1
  O  O1116  1  0.996000  0.813000  0.785700  1
  O  O1117  1  0.106100  0.601900  0.766490  1.0
  O  O1118  1  0.893900  0.898100  0.266490  1.0
  O  O1119  1  0.893900  0.398100  0.233510  1.0
  O  O1120  1  0.106100  0.101900  0.733510  1.0
  O  O1121  1  0.418900  0.667100  0.750110  1.0
  O  O1122  1  0.581100  0.832900  0.250110  1.0
  O  O1123  1  0.581100  0.332900  0.249890  1.0
  O  O1124  1  0.418900  0.167100  0.749890  1.0
  O  O1125  1  0.022200  0.637200  0.620790  1.0
  O  O1126  1  0.977800  0.862800  0.120790  1.0
  O  O1127  1  0.977800  0.362800  0.379210  1.0
  O  O1128  1  0.022200  0.137200  0.879210  1.0
  O  O1129  1  0.333600  0.694000  0.603980  1.0
  O  O1130  1  0.666400  0.806000  0.103980  1.0
  O  O1131  1  0.666400  0.306000  0.396020  1.0
  O  O1132  1  0.333600  0.194000  0.896020  1.0
  F  F1133  1  0.064000  0.408500  0.937390  1
  F  F1134  1  0.936000  0.091500  0.437390  1
  F  F1135  1  0.936000  0.591500  0.062610  1
  F  F1136  1  0.064000  0.908500  0.562610  1
  F  F1137  1  0.068000  0.364600  0.894200  1
  F  F1138  1  0.932000  0.135400  0.394200  1
  F  F1139  1  0.932000  0.635400  0.105800  1
  F  F1140  1  0.068000  0.864600  0.605800  1
  F  F1141  1  0.951400  0.408700  0.909400  1
  F  F1142  1  0.048600  0.091300  0.409400  1
  F  F1143  1  0.048600  0.591300  0.090600  1
  F  F1144  1  0.951400  0.908700  0.590600  1
  F  F1145  1  0.091900  0.478700  0.899300  1
  F  F1146  1  0.908100  0.021300  0.399300  1
  F  F1147  1  0.908100  0.521300  0.100700  1
  F  F1148  1  0.091900  0.978700  0.600700  1
  F  F1149  1  0.285500  0.844700  0.493350  1
  F  F1150  1  0.714500  0.655300  0.993350  1
  F  F1151  1  0.714500  0.155300  0.506650  1
  F  F1152  1  0.285500  0.344700  0.006650  1
  F  F1153  1  0.431800  0.883900  0.480200  1
  F  F1154  1  0.568200  0.616100  0.980200  1
  F  F1155  1  0.568200  0.116100  0.519800  1
  F  F1156  1  0.431800  0.383900  0.019800  1
  F  F1157  1  0.327100  0.944100  0.471100  1
  F  F1158  1  0.672900  0.555900  0.971100  1
  F  F1159  1  0.672900  0.055900  0.528900  1
  F  F1160  1  0.327100  0.444100  0.028900  1
  F  F1161  1  0.326400  0.848300  0.446980  1
  F  F1162  1  0.673600  0.651700  0.946980  1
  F  F1163  1  0.673600  0.151700  0.553020  1
  F  F1164  1  0.326400  0.348300  0.053020  1
  F  F1165  1  0.381100  0.587400  0.513900  1
  F  F1166  1  0.618900  0.912600  0.013900  1
  F  F1167  1  0.618900  0.412600  0.486100  1
  F  F1168  1  0.381100  0.087400  0.986100  1
  F  F1169  1  0.450900  0.545700  0.484100  1
  F  F1170  1  0.549100  0.954300  0.984100  1
  F  F1171  1  0.549100  0.454300  0.515900  1
  F  F1172  1  0.450900  0.045700  0.015900  1
  F  F1173  1  0.334800  0.480500  0.502400  1
  F  F1174  1  0.665200  0.019500  0.002400  1
  F  F1175  1  0.665200  0.519500  0.497600  1
  F  F1176  1  0.334800  0.980500  0.997600  1
  F  F1177  1  0.175500  0.472400  0.388100  1
  F  F1178  1  0.824500  0.027600  0.888100  1
  F  F1179  1  0.824500  0.527600  0.611900  1
  F  F1180  1  0.175500  0.972400  0.111900  1
  F  F1181  1  0.287000  0.532700  0.361800  1
  F  F1182  1  0.713000  0.967300  0.861800  1
  F  F1183  1  0.713000  0.467300  0.638200  1
  F  F1184  1  0.287000  0.032700  0.138200  1
  F  F1185  1  0.221400  0.580100  0.393700  1
  F  F1186  1  0.778600  0.919900  0.893700  1
  F  F1187  1  0.778600  0.419900  0.606300  1
  F  F1188  1  0.221400  0.080100  0.106300  1
  F  F1189  1  0.929600  0.343600  0.691500  1
  F  F1190  1  0.070400  0.156400  0.191500  1
  F  F1191  1  0.070400  0.656400  0.308500  1
  F  F1192  1  0.929600  0.843600  0.808500  1
  F  F1193  1  0.900500  0.444500  0.681000  1
  F  F1194  1  0.099500  0.055500  0.181000  1
  F  F1195  1  0.099500  0.555500  0.319000  1
  F  F1196  1  0.900500  0.944500  0.819000  1
  F  F1197  1  0.827700  0.353800  0.659900  1
  F  F1198  1  0.172300  0.146200  0.159900  1
  F  F1199  1  0.172300  0.646200  0.340100  1
  F  F1200  1  0.827700  0.853800  0.840100  1
  F  F1201  1  0.925000  0.491800  0.776500  1
  F  F1202  1  0.075000  0.008200  0.276500  1
  F  F1203  1  0.075000  0.508200  0.223500  1
  F  F1204  1  0.925000  0.991800  0.723500  1
  F  F1205  1  0.010000  0.457500  0.744800  1
  F  F1206  1  0.990000  0.042500  0.244800  1
  F  F1207  1  0.990000  0.542500  0.255200  1
  F  F1208  1  0.010000  0.957500  0.755200  1
  F  F1209  1  0.021000  0.430900  0.787200  1
  F  F1210  1  0.979000  0.069100  0.287200  1
  F  F1211  1  0.979000  0.569100  0.212800  1
  F  F1212  1  0.021000  0.930900  0.712800  1
  F  F1213  1  0.122000  0.397000  0.897100  1
  F  F1214  1  0.878000  0.103000  0.397100  1
  F  F1215  1  0.878000  0.603000  0.102900  1
  F  F1216  1  0.122000  0.897000  0.602900  1
  F  F1217  1  0.965200  0.392200  0.893500  1
  F  F1218  1  0.034800  0.107800  0.393500  1
  F  F1219  1  0.034800  0.607800  0.106500  1
  F  F1220  1  0.965200  0.892200  0.606500  1
  F  F1221  1  0.073000  0.485600  0.903700  1
  F  F1222  1  0.927000  0.014400  0.403700  1
  F  F1223  1  0.927000  0.514400  0.096300  1
  F  F1224  1  0.073000  0.985600  0.596300  1
  F  F1225  1  0.361000  0.949500  0.474200  1
  F  F1226  1  0.639000  0.550500  0.974200  1
  F  F1227  1  0.639000  0.050500  0.525800  1
  F  F1228  1  0.361000  0.449500  0.025800  1
  F  F1229  1  0.265100  0.878500  0.453700  1
  F  F1230  1  0.734900  0.621500  0.953700  1
  F  F1231  1  0.734900  0.121500  0.546300  1
  F  F1232  1  0.265100  0.378500  0.046300  1
  F  F1233  1  0.405000  0.853600  0.460100  1
  F  F1234  1  0.595000  0.646400  0.960100  1
  F  F1235  1  0.595000  0.146400  0.539900  1
  F  F1236  1  0.405000  0.353600  0.039900  1
  F  F1237  1  0.480600  0.614500  0.512200  1
  F  F1238  1  0.519400  0.885500  0.012200  1
  F  F1239  1  0.519400  0.385500  0.487800  1
  F  F1240  1  0.480600  0.114500  0.987800  1
  F  F1241  1  0.348100  0.595000  0.532700  1
  F  F1242  1  0.651900  0.905000  0.032700  1
  F  F1243  1  0.651900  0.405000  0.467300  1
  F  F1244  1  0.348100  0.095000  0.967300  1
  F  F1245  1  0.389400  0.515800  0.514100  1
  F  F1246  1  0.610600  0.984200  0.014100  1
  F  F1247  1  0.610600  0.484200  0.485900  1
  F  F1248  1  0.389400  0.015800  0.985900  1
  F  F1249  1  0.398500  0.543100  0.397200  1
  F  F1250  1  0.601500  0.956900  0.897200  1
  F  F1251  1  0.601500  0.456900  0.602800  1
  F  F1252  1  0.398500  0.043100  0.102800  1
  F  F1253  1  0.256200  0.516300  0.416900  1
  F  F1254  1  0.743800  0.983700  0.916900  1
  F  F1255  1  0.743800  0.483700  0.583100  1
  F  F1256  1  0.256200  0.016300  0.083100  1
  F  F1257  1  0.314800  0.435600  0.400400  1
  F  F1258  1  0.685200  0.064400  0.900400  1
  F  F1259  1  0.685200  0.564400  0.599600  1
  F  F1260  1  0.314800  0.935600  0.099600  1
  F  F1261  1  0.858000  0.161900  0.684000  1
  F  F1262  1  0.142000  0.338100  0.184000  1
  F  F1263  1  0.142000  0.838100  0.316000  1
  F  F1264  1  0.858000  0.661900  0.816000  1
  F  F1265  1  0.903000  0.181000  0.722300  1
  F  F1266  1  0.097000  0.319000  0.222300  1
  F  F1267  1  0.097000  0.819000  0.277700  1
  F  F1268  1  0.903000  0.681000  0.777700  1
  F  F1269  1  0.769000  0.187500  0.721600  1
  F  F1270  1  0.231000  0.312500  0.221600  1
  F  F1271  1  0.231000  0.812500  0.278400  1
  F  F1272  1  0.769000  0.687500  0.778400  1
  F  F1273  1  0.745000  0.363000  0.743100  1
  F  F1274  1  0.255000  0.137000  0.243100  1
  F  F1275  1  0.255000  0.637000  0.256900  1
  F  F1276  1  0.745000  0.863000  0.756900  1
  F  F1277  1  0.026000  0.481000  0.808300  1
  F  F1278  1  0.974000  0.019000  0.308300  1
  F  F1279  1  0.974000  0.519000  0.191700  1
  F  F1280  1  0.026000  0.981000  0.691700  1
  F  F1281  1  0.023000  0.391000  0.827000  1
  F  F1282  1  0.977000  0.109000  0.327000  1
  F  F1283  1  0.977000  0.609000  0.173000  1
  F  F1284  1  0.023000  0.891000  0.673000  1
  F  F1285  1  0.886000  0.410000  0.813900  1
  F  F1286  1  0.114000  0.090000  0.313900  1
  F  F1287  1  0.114000  0.590000  0.186100  1
  F  F1288  1  0.886000  0.910000  0.686100  1
  F  F1289  1  0.774000  0.307000  0.689200  1
  F  F1290  1  0.226000  0.193000  0.189200  1
  F  F1291  1  0.226000  0.693000  0.310800  1
  F  F1292  1  0.774000  0.807000  0.810800  1
  F  F1293  1  0.918000  0.336000  0.675300  1
  F  F1294  1  0.082000  0.164000  0.175300  1
  F  F1295  1  0.082000  0.664000  0.324700  1
  F  F1296  1  0.918000  0.836000  0.824700  1
  F  F1297  1  0.841000  0.224000  0.685900  1
  F  F1298  1  0.159000  0.276000  0.185900  1
  F  F1299  1  0.159000  0.776000  0.314100  1
  F  F1300  1  0.841000  0.724000  0.814100  1
  F  F1301  1  0.900000  0.170000  0.705500  1
  F  F1302  1  0.100000  0.330000  0.205500  1
  F  F1303  1  0.100000  0.830000  0.294500  1
  F  F1304  1  0.900000  0.670000  0.794500  1
  F  F1305  1  0.837000  0.452000  0.656400  1
  F  F1306  1  0.163000  0.048000  0.156400  1
  F  F1307  1  0.163000  0.548000  0.343600  1
  F  F1308  1  0.837000  0.952000  0.843600  1
  F  F1309  1  0.845000  0.367000  0.687400  1
  F  F1310  1  0.155000  0.133000  0.187400  1
  F  F1311  1  0.155000  0.633000  0.312600  1
  F  F1312  1  0.845000  0.867000  0.812600  1
  F  F1313  1  0.914000  0.432000  0.790700  1
  F  F1314  1  0.086000  0.068000  0.290700  1
  F  F1315  1  0.086000  0.568000  0.209300  1
  F  F1316  1  0.914000  0.932000  0.709300  1
  F  F1317  1  0.823600  0.166200  0.665300  1
  F  F1318  1  0.176400  0.333800  0.165300  1
  F  F1319  1  0.176400  0.833800  0.334700  1
  F  F1320  1  0.823600  0.666200  0.834700  1
  F  F1321  1  0.784000  0.334000  0.718800  1
  F  F1322  1  0.216000  0.166000  0.218800  1
  F  F1323  1  0.216000  0.666000  0.281200  1
  F  F1324  1  0.784000  0.834000  0.781200  1
  F  F1325  1  0.876000  0.128000  0.718200  1
  F  F1326  1  0.124000  0.372000  0.218200  1
  F  F1327  1  0.124000  0.872000  0.281800  1
  F  F1328  1  0.876000  0.628000  0.781800  1
  F  F1329  1  0.046000  0.397000  0.800000  1
  F  F1330  1  0.954000  0.103000  0.300000  1
  F  F1331  1  0.954000  0.603000  0.200000  1
  F  F1332  1  0.046000  0.897000  0.700000  1
