
#######################################################################
#
#                 Cambridge Crystallographic Data Centre
#                                CCDC 
#
#######################################################################
#
# If this CIF has been generated from an entry in the Cambridge 
# Structural Database, then it will include bibliographic, chemical, 
# crystal, experimental, refinement or atomic coordinate data resulting 
# from the CCDC's data processing and validation procedures.
#
#######################################################################

data_TADXON
_chemical_formula_moiety         
'C102 H100 N4 O2 P4 Pd2 Si4 4+,4(C3 H6 O1),4(C1 F3 O3 S1 1-)'
_chemical_name_systematic        
"bis(\m~2~-1,3-bis(3-Pyridyl)-1,3-dimethyl-1,3-diphenyldisiloxane)-bis(1,3-bis(diphenylphosphino)propane-P,P')-di-palladium(ii) tetrakis(trifluoromethanesulfonate) acetone solvate"
_symmetry_cell_setting           monoclinic
_symmetry_space_group_name_H-M   'P 21/c'
_symmetry_Int_Tables_number      14
_space_group_name_Hall           '-P 2ybc'
loop_
_symmetry_equiv_pos_site_id
_symmetry_equiv_pos_as_xyz
1 x,y,z
2 -x,1/2+y,1/2-z
3 -x,-y,-z
4 x,1/2-y,1/2+z
_cell_length_a                   15.854(3)
_cell_length_b                   28.110(6)
_cell_length_c                   15.731(3)
_cell_angle_alpha                90
_cell_angle_beta                 106.87(3)
_cell_angle_gamma                90
_cell_volume                     6708.92
_exptl_crystal_colour            colorless
_exptl_crystal_description       block
_cell_formula_units_Z            2
loop_
_atom_site_label
_atom_site_type_symbol
_atom_site_fract_x
_atom_site_fract_y
_atom_site_fract_z
O1 O 0.7308(8) 0.2677(5) 0.3255(10)
C1 C 0.8411(14) 0.2199(8) 0.4273(14)
C56 C 0.8013(11) 0.2656(6) 0.3875(12)
C58 C 0.8526(11) 0.3081(6) 0.4257(13)
H54 H 0.8226 0.3366 0.3957
H55 H 0.9115 0.3060 0.4175
H56 H 0.8579 0.3099 0.4892
H57 H 0.8035 0.1939 0.3976
H58 H 0.8463 0.2203 0.4903
H59 H 0.8996 0.2170 0.4184
C2 C 0.7398(7) 0.3817(4) 0.1792(8)
O9 O 0.8003(5) 0.4063(3) 0.2171(8)
C57 C 0.6658(10) 0.3707(7) 0.2146(11)
H51 H 0.6747 0.3868 0.2717
H52 H 0.6628 0.3363 0.2229
H53 H 0.6107 0.3818 0.1727
C59 C 0.7315(18) 0.3611(8) 0.0939(14)
H60 H 0.7833 0.3694 0.0748
H61 H 0.6783 0.3733 0.0507
H62 H 0.7275 0.3264 0.0978
O2 O 0.1499(5) 0.2847(4) 0.3120(6)
F1 F -0.0388(8) 0.3004(4) 0.2311(12)
F2 F -0.0048(9) 0.2450(3) 0.1654(5)
C3 C -0.0121(10) 0.2601(5) 0.2395(12)
F6 F -0.0583(7) 0.2219(5) 0.2564(9)
S2 S 0.0895(2) 0.25344(8) 0.33121(19)
O7 O 0.1306(7) 0.2050(3) 0.3325(7)
O8 O 0.0702(7) 0.2708(7) 0.4036(9)
Pd1 Pd 0.28098(3) 0.404595(15) 0.30339(3)
P1 P 0.33603(11) 0.42082(6) 0.44974(9)
P2 P 0.41513(11) 0.37857(6) 0.29874(10)
Si1 Si 0.15258(14) 0.45339(6) -0.07230(11)
Si2 Si -0.02209(12) 0.44219(6) -0.23357(11)
O3 O 0.0590(3) 0.43916(17) -0.1433(3)
N1 N 0.2238(3) 0.38509(18) 0.1702(3)
N2 N -0.1536(3) 0.57038(17) -0.2965(3)
C4 C 0.4471(5) 0.4449(2) 0.4827(4)
H1 H 0.4467 0.4756 0.4518
H2 H 0.4642 0.4515 0.5472
C5 C 0.5173(5) 0.4129(3) 0.4633(4)
H3 H 0.5764 0.4249 0.4964
H4 H 0.5112 0.3804 0.4849
C6 C 0.5105(5) 0.4107(2) 0.3652(4)
H5 H 0.5644 0.3953 0.3583
H6 H 0.5086 0.4436 0.3421
C7 C 0.3383(5) 0.3684(2) 0.5167(4)
C8 C 0.4063(6) 0.3611(3) 0.5954(5)
H7 H 0.4540 0.3829 0.6133
C9 C 0.4025(7) 0.3213(3) 0.6468(6)
H8 H 0.4480 0.3162 0.7006
C10 C 0.3358(7) 0.2900(3) 0.6222(5)
H9 H 0.3351 0.2632 0.6588
C11 C 0.2678(7) 0.2960(3) 0.5443(6)
H10 H 0.2205 0.2739 0.5276
C12 C 0.2704(5) 0.3353(2) 0.4912(5)
H11 H 0.2252 0.3396 0.4368
C13 C 0.2772(4) 0.4660(2) 0.4924(4)
C14 C 0.2425(5) 0.4557(3) 0.5616(4)
H12 H 0.2422 0.4239 0.5821
C15 C 0.2085(6) 0.4923(3) 0.6004(5)
H13 H 0.1842 0.4855 0.6477
C16 C 0.2094(6) 0.5388(3) 0.5708(6)
H14 H 0.1877 0.5638 0.5993
C17 C 0.2413(6) 0.5488(3) 0.5012(6)
H15 H 0.2401 0.5805 0.4798
C18 C 0.2754(5) 0.5127(3) 0.4618(5)
H16 H 0.2978 0.5196 0.4133
C19 C 0.4339(4) 0.3163(2) 0.3293(4)
C20 C 0.5153(5) 0.2947(3) 0.3391(5)
H17 H 0.5633 0.3131 0.3325
C21 C 0.5271(5) 0.2469(3) 0.3581(5)
H18 H 0.5830 0.2328 0.3646
C22 C 0.4591(6) 0.2195(3) 0.3678(5)
H19 H 0.4677 0.1866 0.3810
C23 C 0.3782(6) 0.2400(3) 0.3582(5)
H20 H 0.3308 0.2210 0.3644
C24 C 0.3646(5) 0.2890(2) 0.3394(4)
H21 H 0.3088 0.3030 0.3336
C25 C 0.4254(4) 0.3832(2) 0.1880(4)
C26 C 0.4141(6) 0.3441(3) 0.1337(5)
H22 H 0.4017 0.3139 0.1545
C27 C 0.4210(7) 0.3490(3) 0.0488(5)
H23 H 0.4153 0.3217 0.0118
C28 C 0.4358(6) 0.3923(3) 0.0173(5)
H24 H 0.4392 0.3953 -0.0418
C29 C 0.4458(5) 0.4315(3) 0.0709(5)
H25 H 0.4576 0.4616 0.0492
C30 C 0.4389(5) 0.4279(2) 0.1555(4)
H26 H 0.4433 0.4554 0.1916
C31 C 0.2136(4) 0.4169(2) 0.1046(4)
H27 H 0.2395 0.4475 0.1189
C32 C 0.1673(5) 0.4076(2) 0.0175(4)
C33 C 0.1307(5) 0.3621(2) -0.0009(4)
H28 H 0.0987 0.3539 -0.0601
C34 C 0.1404(5) 0.3290(2) 0.0661(4)
H29 H 0.1161 0.2980 0.0537
C35 C 0.1859(5) 0.3419(2) 0.1507(4)
H30 H 0.1912 0.3197 0.1974
C36 C 0.1503(7) 0.5141(3) -0.0256(6)
H31 H 0.1441 0.5378 -0.0727
H32 H 0.2053 0.5198 0.0216
H33 H 0.1003 0.5167 -0.0010
C37 C 0.2405(5) 0.4468(3) -0.1280(4)
C38 C 0.2974(6) 0.4835(3) -0.1313(6)
H34 H 0.2946 0.5130 -0.1027
C39 C 0.3606(6) 0.4758(4) -0.1790(6)
H35 H 0.4005 0.5006 -0.1820
C40 C 0.3645(6) 0.4330(4) -0.2206(6)
H36 H 0.4067 0.4283 -0.2521
C41 C 0.3085(7) 0.3978(4) -0.2165(6)
H37 H 0.3109 0.3686 -0.2459
C42 C 0.2473(5) 0.4037(3) -0.1699(5)
H38 H 0.2094 0.3781 -0.1663
C43 C -0.1161(6) 0.4106(3) -0.2136(6)
H39 H -0.1006 0.3771 -0.2006
H40 H -0.1670 0.4128 -0.2666
H41 H -0.1308 0.4251 -0.1631
C44 C 0.0092(5) 0.4171(2) -0.3293(4)
C45 C -0.0083(6) 0.4406(3) -0.4097(5)
H42 H -0.0357 0.4710 -0.4163
C46 C 0.0139(7) 0.4204(3) -0.4810(6)
H43 H 0.0023 0.4373 -0.5355
C47 C 0.0524(6) 0.3762(3) -0.4732(6)
H44 H 0.0661 0.3624 -0.5226
C48 C 0.0709(7) 0.3521(3) -0.3944(6)
H45 H 0.0985 0.3218 -0.3885
C49 C 0.0487(6) 0.3725(3) -0.3225(5)
H46 H 0.0609 0.3556 -0.2680
C50 C -0.0488(5) 0.5071(2) -0.2582(4)
C51 C -0.1329(4) 0.5247(2) -0.2752(4)
H47 H -0.1785 0.5036 -0.2716
C52 C -0.0903(5) 0.6010(2) -0.3012(4)
H48 H -0.1051 0.6334 -0.3155
C53 C -0.0046(5) 0.5864(2) -0.2855(4)
H49 H 0.0397 0.6083 -0.2893
C54 C 0.0163(5) 0.5389(2) -0.2641(4)
H50 H 0.0754 0.5282 -0.2534
Pd1B Pd -0.28098(3) 0.595405(15) -0.30339(3)
P1B P -0.33603(11) 0.57918(6) -0.44974(9)
P2B P -0.41513(11) 0.62143(6) -0.29874(10)
Si1B Si -0.15258(14) 0.54661(6) 0.07230(11)
Si2B Si 0.02209(12) 0.55781(6) 0.23357(11)
O3B O -0.0590(3) 0.56084(17) 0.1433(3)
N1B N -0.2238(3) 0.61491(18) -0.1702(3)
N2B N 0.1536(3) 0.42962(17) 0.2965(3)
C4B C -0.4471(5) 0.5551(2) -0.4827(4)
H1B H -0.4467 0.5244 -0.4518
H2B H -0.4642 0.5485 -0.5472
C5B C -0.5173(5) 0.5871(3) -0.4633(4)
H3B H -0.5764 0.5751 -0.4964
H4B H -0.5112 0.6196 -0.4849
C6B C -0.5105(5) 0.5893(2) -0.3652(4)
H5B H -0.5644 0.6047 -0.3583
H6B H -0.5086 0.5564 -0.3421
C7B C -0.3383(5) 0.6316(2) -0.5167(4)
C8B C -0.4063(6) 0.6389(3) -0.5954(5)
H7B H -0.4540 0.6171 -0.6133
C9B C -0.4025(7) 0.6787(3) -0.6468(6)
H8B H -0.4480 0.6838 -0.7006
C10B C -0.3358(7) 0.7100(3) -0.6222(5)
H9B H -0.3351 0.7368 -0.6588
C11B C -0.2678(7) 0.7040(3) -0.5443(6)
H10B H -0.2205 0.7261 -0.5276
C12B C -0.2704(5) 0.6647(2) -0.4912(5)
H11B H -0.2252 0.6604 -0.4368
C13B C -0.2772(4) 0.5340(2) -0.4924(4)
C14B C -0.2425(5) 0.5443(3) -0.5616(4)
H12B H -0.2422 0.5761 -0.5821
C15B C -0.2085(6) 0.5077(3) -0.6004(5)
H13B H -0.1842 0.5145 -0.6477
C16B C -0.2094(6) 0.4612(3) -0.5708(6)
H14B H -0.1877 0.4362 -0.5993
C17B C -0.2413(6) 0.4512(3) -0.5012(6)
H15B H -0.2401 0.4195 -0.4798
C18B C -0.2754(5) 0.4873(3) -0.4618(5)
H16B H -0.2978 0.4804 -0.4133
C19B C -0.4339(4) 0.6837(2) -0.3293(4)
C20B C -0.5153(5) 0.7053(3) -0.3391(5)
H17B H -0.5633 0.6869 -0.3325
C21B C -0.5271(5) 0.7531(3) -0.3581(5)
H18B H -0.5830 0.7672 -0.3646
C22B C -0.4591(6) 0.7805(3) -0.3678(5)
H19B H -0.4677 0.8134 -0.3810
C23B C -0.3782(6) 0.7600(3) -0.3582(5)
H20B H -0.3308 0.7790 -0.3644
C24B C -0.3646(5) 0.7110(2) -0.3394(4)
H21B H -0.3088 0.6970 -0.3336
C25B C -0.4254(4) 0.6168(2) -0.1880(4)
C26B C -0.4141(6) 0.6559(3) -0.1337(5)
H22B H -0.4017 0.6861 -0.1545
C27B C -0.4210(7) 0.6510(3) -0.0488(5)
H23B H -0.4153 0.6783 -0.0118
C28B C -0.4358(6) 0.6077(3) -0.0173(5)
H24B H -0.4392 0.6047 0.0418
C29B C -0.4458(5) 0.5685(3) -0.0709(5)
H25B H -0.4576 0.5384 -0.0492
C30B C -0.4389(5) 0.5721(2) -0.1555(4)
H26B H -0.4433 0.5446 -0.1916
C31B C -0.2136(4) 0.5831(2) -0.1046(4)
H27B H -0.2395 0.5525 -0.1189
C32B C -0.1673(5) 0.5924(2) -0.0175(4)
C33B C -0.1307(5) 0.6379(2) 0.0009(4)
H28B H -0.0987 0.6461 0.0601
C34B C -0.1404(5) 0.6710(2) -0.0661(4)
H29B H -0.1161 0.7020 -0.0537
C35B C -0.1859(5) 0.6581(2) -0.1507(4)
H30B H -0.1912 0.6803 -0.1974
C36B C -0.1503(7) 0.4859(3) 0.0256(6)
H31B H -0.1441 0.4622 0.0727
H32B H -0.2053 0.4802 -0.0216
H33B H -0.1003 0.4833 0.0010
C37B C -0.2405(5) 0.5532(3) 0.1280(4)
C38B C -0.2974(6) 0.5165(3) 0.1313(6)
H34B H -0.2946 0.4870 0.1027
C39B C -0.3606(6) 0.5242(4) 0.1790(6)
H35B H -0.4005 0.4994 0.1820
C40B C -0.3645(6) 0.5670(4) 0.2206(6)
H36B H -0.4067 0.5717 0.2521
C41B C -0.3085(7) 0.6022(4) 0.2165(6)
H37B H -0.3109 0.6314 0.2459
C42B C -0.2473(5) 0.5963(3) 0.1699(5)
H38B H -0.2094 0.6219 0.1663
C43B C 0.1161(6) 0.5894(3) 0.2136(6)
H39B H 0.1006 0.6229 0.2006
H40B H 0.1670 0.5872 0.2666
H41B H 0.1308 0.5749 0.1631
C44B C -0.0092(5) 0.5829(2) 0.3293(4)
C45B C 0.0083(6) 0.5594(3) 0.4097(5)
H42B H 0.0357 0.5290 0.4163
C46B C -0.0139(7) 0.5796(3) 0.4810(6)
H43B H -0.0023 0.5627 0.5355
C47B C -0.0524(6) 0.6238(3) 0.4732(6)
H44B H -0.0661 0.6376 0.5226
C48B C -0.0709(7) 0.6479(3) 0.3944(6)
H45B H -0.0985 0.6782 0.3885
C49B C -0.0487(6) 0.6275(3) 0.3225(5)
H46B H -0.0609 0.6444 0.2680
C50B C 0.0488(5) 0.4929(2) 0.2582(4)
C51B C 0.1329(4) 0.4753(2) 0.2752(4)
H47B H 0.1785 0.4964 0.2716
C52B C 0.0903(5) 0.3990(2) 0.3012(4)
H48B H 0.1051 0.3666 0.3155
C53B C 0.0046(5) 0.4136(2) 0.2855(4)
H49B H -0.0397 0.3917 0.2893
C54B C -0.0163(5) 0.4611(2) 0.2641(4)
H50B H -0.0754 0.4718 0.2534
F3 F 0.4317(4) 0.61659(19) 0.1855(4)
F4 F 0.3954(4) 0.5538(2) 0.1074(3)
F5 F 0.2953(4) 0.5985(2) 0.1330(4)
S1 S 0.38087(12) 0.54592(6) 0.26700(10)
O4 O 0.4696(3) 0.52855(18) 0.2941(3)
O5 O 0.3146(4) 0.50942(19) 0.2350(4)
O6 O 0.3611(4) 0.5800(2) 0.3263(4)
C55 C 0.3754(5) 0.5807(3) 0.1678(5)
loop_
_geom_bond_atom_site_label_1
_geom_bond_atom_site_label_2
_geom_bond_site_symmetry_1
_geom_bond_site_symmetry_2
O1 C56 1_555 1_555
C1 C56 1_555 1_555
C2 O9 1_555 1_555
O2 S2 1_555 1_555
F1 C3 1_555 1_555
F2 C3 1_555 1_555
C3 F6 1_555 1_555
Pd1 P1 1_555 1_555
P1 C4 1_555 1_555
P2 Pd1 1_555 1_555
F3 C55 1_555 1_555
F4 C55 1_555 1_555
F5 C55 1_555 1_555
Si1 O3 1_555 1_555
Si2 O3 1_555 1_555
S1 O4 1_555 1_555
S2 C3 1_555 1_555
O5 S1 1_555 1_555
O6 S1 1_555 1_555
O7 S2 1_555 1_555
O8 S2 1_555 1_555
N1 Pd1 1_555 1_555
N2 C51 1_555 1_555
C4 H1 1_555 1_555
H2 C4 1_555 1_555
C5 C4 1_555 1_555
H3 C5 1_555 1_555
H4 C5 1_555 1_555
C6 P2 1_555 1_555
H5 C6 1_555 1_555
H6 C6 1_555 1_555
C7 P1 1_555 1_555
C8 C7 1_555 1_555
H7 C8 1_555 1_555
C9 C8 1_555 1_555
H8 C9 1_555 1_555
C10 C9 1_555 1_555
H9 C10 1_555 1_555
C11 C10 1_555 1_555
H10 C11 1_555 1_555
C12 C7 1_555 1_555
H11 C12 1_555 1_555
C13 P1 1_555 1_555
C14 C13 1_555 1_555
H12 C14 1_555 1_555
C15 C14 1_555 1_555
H13 C15 1_555 1_555
C16 C15 1_555 1_555
H14 C16 1_555 1_555
C17 C16 1_555 1_555
H15 C17 1_555 1_555
C18 C13 1_555 1_555
H16 C18 1_555 1_555
C19 P2 1_555 1_555
C20 C19 1_555 1_555
H17 C20 1_555 1_555
C21 C20 1_555 1_555
H18 C21 1_555 1_555
C22 C21 1_555 1_555
H19 C22 1_555 1_555
C23 C22 1_555 1_555
H20 C23 1_555 1_555
C24 C19 1_555 1_555
H21 C24 1_555 1_555
C25 P2 1_555 1_555
C26 C25 1_555 1_555
H22 C26 1_555 1_555
C27 C26 1_555 1_555
H23 C27 1_555 1_555
C28 C27 1_555 1_555
H24 C28 1_555 1_555
C29 C28 1_555 1_555
H25 C29 1_555 1_555
C30 C25 1_555 1_555
H26 C30 1_555 1_555
C31 N1 1_555 1_555
H27 C31 1_555 1_555
C32 Si1 1_555 1_555
C33 C32 1_555 1_555
H28 C33 1_555 1_555
C34 C33 1_555 1_555
H29 C34 1_555 1_555
C35 N1 1_555 1_555
H30 C35 1_555 1_555
C36 Si1 1_555 1_555
H31 C36 1_555 1_555
H32 C36 1_555 1_555
H33 C36 1_555 1_555
C37 Si1 1_555 1_555
C38 C37 1_555 1_555
H34 C38 1_555 1_555
C39 C38 1_555 1_555
H35 C39 1_555 1_555
C40 C39 1_555 1_555
H36 C40 1_555 1_555
C41 C40 1_555 1_555
H37 C41 1_555 1_555
C42 C37 1_555 1_555
H38 C42 1_555 1_555
C43 Si2 1_555 1_555
H39 C43 1_555 1_555
H40 C43 1_555 1_555
H41 C43 1_555 1_555
C44 Si2 1_555 1_555
C45 C44 1_555 1_555
H42 C45 1_555 1_555
C46 C45 1_555 1_555
H43 C46 1_555 1_555
C47 C46 1_555 1_555
H44 C47 1_555 1_555
C48 C47 1_555 1_555
H45 C48 1_555 1_555
C49 C44 1_555 1_555
H46 C49 1_555 1_555
C50 Si2 1_555 1_555
C51 C50 1_555 1_555
H47 C51 1_555 1_555
C52 N2 1_555 1_555
H48 C52 1_555 1_555
C53 C52 1_555 1_555
H49 C53 1_555 1_555
C54 C50 1_555 1_555
H50 C54 1_555 1_555
C55 S1 1_555 1_555
C56 C58 1_555 1_555
C57 C2 1_555 1_555
H51 C57 1_555 1_555
H52 C57 1_555 1_555
H53 C57 1_555 1_555
C58 H54 1_555 1_555
H55 C58 1_555 1_555
H56 C58 1_555 1_555
H57 C1 1_555 1_555
H58 C1 1_555 1_555
H59 C1 1_555 1_555
C59 C2 1_555 1_555
H60 C59 1_555 1_555
H61 C59 1_555 1_555
H62 C59 1_555 1_555
Pd1B N2 1_555 1_555
P1B Pd1B 1_555 1_555
P2B Pd1B 1_555 1_555
Si1B O3B 1_555 1_555
Si2B O3B 1_555 1_555
N1B Pd1B 1_555 1_555
N2B Pd1 1_555 1_555
C4B P1B 1_555 1_555
H1B C4B 1_555 1_555
H2B C4B 1_555 1_555
C5B C4B 1_555 1_555
H3B C5B 1_555 1_555
H4B C5B 1_555 1_555
C6B P2B 1_555 1_555
H5B C6B 1_555 1_555
H6B C6B 1_555 1_555
C7B P1B 1_555 1_555
C8B C7B 1_555 1_555
H7B C8B 1_555 1_555
C9B C8B 1_555 1_555
H8B C9B 1_555 1_555
C10B C9B 1_555 1_555
H9B C10B 1_555 1_555
C11B C10B 1_555 1_555
H10B C11B 1_555 1_555
C12B C7B 1_555 1_555
H11B C12B 1_555 1_555
C13B P1B 1_555 1_555
C14B C13B 1_555 1_555
H12B C14B 1_555 1_555
C15B C14B 1_555 1_555
H13B C15B 1_555 1_555
C16B C15B 1_555 1_555
H14B C16B 1_555 1_555
C17B C16B 1_555 1_555
H15B C17B 1_555 1_555
C18B C13B 1_555 1_555
H16B C18B 1_555 1_555
C19B P2B 1_555 1_555
C20B C19B 1_555 1_555
H17B C20B 1_555 1_555
C21B C20B 1_555 1_555
H18B C21B 1_555 1_555
C22B C21B 1_555 1_555
H19B C22B 1_555 1_555
C23B C22B 1_555 1_555
H20B C23B 1_555 1_555
C24B C19B 1_555 1_555
H21B C24B 1_555 1_555
C25B P2B 1_555 1_555
C26B C25B 1_555 1_555
H22B C26B 1_555 1_555
C27B C26B 1_555 1_555
H23B C27B 1_555 1_555
C28B C27B 1_555 1_555
H24B C28B 1_555 1_555
C29B C28B 1_555 1_555
H25B C29B 1_555 1_555
C30B C25B 1_555 1_555
H26B C30B 1_555 1_555
C31B N1B 1_555 1_555
H27B C31B 1_555 1_555
C32B Si1B 1_555 1_555
C33B C32B 1_555 1_555
H28B C33B 1_555 1_555
C34B C33B 1_555 1_555
H29B C34B 1_555 1_555
C35B N1B 1_555 1_555
H30B C35B 1_555 1_555
C36B Si1B 1_555 1_555
H31B C36B 1_555 1_555
H32B C36B 1_555 1_555
H33B C36B 1_555 1_555
C37B Si1B 1_555 1_555
C38B C37B 1_555 1_555
H34B C38B 1_555 1_555
C39B C38B 1_555 1_555
H35B C39B 1_555 1_555
C40B C39B 1_555 1_555
H36B C40B 1_555 1_555
C41B C40B 1_555 1_555
H37B C41B 1_555 1_555
C42B C37B 1_555 1_555
H38B C42B 1_555 1_555
C43B Si2B 1_555 1_555
H39B C43B 1_555 1_555
H40B C43B 1_555 1_555
H41B C43B 1_555 1_555
C44B Si2B 1_555 1_555
C45B C44B 1_555 1_555
H42B C45B 1_555 1_555
C46B C45B 1_555 1_555
H43B C46B 1_555 1_555
C47B C46B 1_555 1_555
H44B C47B 1_555 1_555
C48B C47B 1_555 1_555
H45B C48B 1_555 1_555
C49B C44B 1_555 1_555
H46B C49B 1_555 1_555
C50B Si2B 1_555 1_555
C51B N2B 1_555 1_555
H47B C51B 1_555 1_555
C52B N2B 1_555 1_555
H48B C52B 1_555 1_555
C53B C52B 1_555 1_555
H49B C53B 1_555 1_555
C54B C50B 1_555 1_555
H50B C54B 1_555 1_555
C5 C6 1_555 1_555
C11 C12 1_555 1_555
C17 C18 1_555 1_555
C23 C24 1_555 1_555
C29 C30 1_555 1_555
C31 C32 1_555 1_555
C34 C35 1_555 1_555
C41 C42 1_555 1_555
C48 C49 1_555 1_555
C53 C54 1_555 1_555
C5B C6B 1_555 1_555
C11B C12B 1_555 1_555
C17B C18B 1_555 1_555
C23B C24B 1_555 1_555
C29B C30B 1_555 1_555
C31B C32B 1_555 1_555
C34B C35B 1_555 1_555
C41B C42B 1_555 1_555
C48B C49B 1_555 1_555
C50B C51B 1_555 1_555
C53B C54B 1_555 1_555

#END
