
#######################################################################
#
#                 Cambridge Crystallographic Data Centre
#                                CCDC 
#
#######################################################################
#
# If this CIF has been generated from an entry in the Cambridge 
# Structural Database, then it will include bibliographic, chemical, 
# crystal, experimental, refinement or atomic coordinate data resulting 
# from the CCDC's data processing and validation procedures.
#
#######################################################################

data_TANPUU
_chemical_formula_moiety         
'2(H3 O1 1+),2(C6 H16 N2 2+),C84 H36 In6 N12 O48 6-,5(C3 H7 N1 O1),5(C2 H6 O1)'
_chemical_name_systematic        
"bis(Oxonium) bis(cis-cyclohexane-1,2-diammonium) hexakis(\m~2~-pyridine-2,5-dicarboxylato-N,O,O',O'')-hexakis(\m~2~-pyridine-2,5-dicarboxylato-N,O,O')-hexa-indium(iii) ethanol clathrate N,N-dimethylformamide ethanol solvate"
_symmetry_cell_setting           triclinic
_symmetry_space_group_name_H-M   'P -1'
_symmetry_Int_Tables_number      2
_space_group_name_Hall           '-P 1'
loop_
_symmetry_equiv_pos_site_id
_symmetry_equiv_pos_as_xyz
1 x,y,z
2 -x,-y,-z
_cell_length_a                   14.4111(13)
_cell_length_b                   16.0466(14)
_cell_length_c                   16.7388(15)
_cell_angle_alpha                114.216(2)
_cell_angle_beta                 95.441(2)
_cell_angle_gamma                91.595(2)
_cell_volume                     3504.81
_exptl_crystal_colour            colorless
_exptl_crystal_description       polyhedra
_cell_formula_units_Z            1
loop_
_atom_site_label
_atom_site_type_symbol
_atom_site_fract_x
_atom_site_fract_y
_atom_site_fract_z
O1 O 0.8349(16) 0.9944(17) -0.158(2)
N3 N 0.7050(11) 0.9696(11) -0.1030(10)
C7 C 0.7773(14) 1.0204(12) -0.1045(16)
H17 H 0.7859 1.0818 -0.0610
C8 C 0.6872(14) 0.8759(11) -0.1676(14)
H18 H 0.7110 0.8697 -0.2226
H19 H 0.6198 0.8593 -0.1788
H20 H 0.7188 0.8352 -0.1452
C9 C 0.6386(16) 1.0070(18) -0.0391(14)
H21 H 0.6447 0.9796 0.0036
H22 H 0.5749 0.9930 -0.0698
H23 H 0.6514 1.0735 -0.0082
O2 O 0.7929(12) 0.1200(13) 0.6889(11)
N4 N 0.7030(8) 0.0891(6) 0.5606(9)
C10 C 0.7749(8) 0.0773(9) 0.6083(11)
H24 H 0.8160 0.0325 0.5785
C11 C 0.6371(10) 0.1554(10) 0.6016(11)
H25 H 0.6599 0.1909 0.6640
H26 H 0.5763 0.1235 0.5966
H27 H 0.6302 0.1968 0.5720
C12 C 0.6852(15) 0.0333(10) 0.4660(9)
H28 H 0.7100 -0.0267 0.4522
H29 H 0.7159 0.0639 0.4344
H30 H 0.6177 0.0251 0.4477
O3 O 0.0231(7) 0.0799(5) 0.6086(6)
H31 H 0.0520 0.0902 0.5658
H32 H 0.0298 0.0237 0.6156
H33 H 0.0022 0.1241 0.6521
O4 O 0.491(2) 0.458(3) 0.5552(17)
H34 H 0.4755 0.4039 0.5514
C13 C 0.4705(14) 0.4578(19) 0.4709(15)
C14 C 0.4443(17) 0.5158(16) 0.5616(16)
H35 H 0.4224 0.5014 0.4736
H36 H 0.4444 0.3960 0.4283
H37 H 0.4611 0.5183 0.6206
H38 H 0.3962 0.5586 0.5640
H39 H 0.4201 0.4535 0.5212
O4A O 0.509(2) 0.542(3) 0.4448(17)
H34A H 0.5245 0.5961 0.4486
C13A C 0.5295(14) 0.5422(19) 0.5291(15)
C14A C 0.5557(17) 0.4842(16) 0.4384(16)
H35A H 0.5776 0.4986 0.5264
H36A H 0.5556 0.6040 0.5717
H37A H 0.5389 0.4817 0.3794
H38A H 0.6038 0.4414 0.4360
H39A H 0.5799 0.5465 0.4788
O5 O 0.730(2) 0.547(2) 1.137(2)
H40 H 0.7640 0.5768 1.1017
C15 C 0.658(3) 0.485(3) 1.076(2)
C16 C 0.590(3) 0.450(4) 1.120(4)
H41 H 0.6868 0.4328 1.0325
H42 H 0.6237 0.5163 1.0429
H43 H 0.5413 0.4093 1.0759
H44 H 0.5624 0.5024 1.1633
H45 H 0.6238 0.4171 1.1503
O6 O 0.702(2) 0.185(2) 0.8520(18)
H46 H 0.7270 0.1781 0.7893
C17 C 0.749(3) 0.267(3) 0.918(2)
C18 C 0.694(3) 0.309(3) 0.996(2)
H47 H 0.7597 0.3112 0.8925
H48 H 0.8106 0.2523 0.9387
H49 H 0.7296 0.3639 1.0403
H50 H 0.6826 0.2649 1.0208
H51 H 0.6341 0.3261 0.9758
In1 In 0.75948(5) 0.49797(4) 0.79533(4)
In2 In 0.69012(5) 0.19250(4) 0.25486(4)
In3 In 0.76255(6) 0.75043(5) 0.43366(6)
O7 O 0.8812(5) 0.4410(5) 0.8332(4)
O8 O 0.9857(7) 0.3367(7) 0.8025(5)
O9 O 0.6987(5) 0.2971(5) 0.4067(4)
O10 O 0.7835(5) 0.1782(5) 0.3631(4)
N5 N 0.8039(5) 0.3762(5) 0.6672(5)
C19 C 0.8796(7) 0.3365(7) 0.6852(6)
C20 C 0.9165(8) 0.2654(7) 0.6204(6)
H52 H 0.9695 0.2382 0.6348
C21 C 0.8757(7) 0.2338(8) 0.5341(7)
H53 H 0.8983 0.1833 0.4884
C22 C 0.8009(7) 0.2781(6) 0.5167(6)
C23 C 0.7664(7) 0.3476(6) 0.5849(6)
H54 H 0.7135 0.3760 0.5722
C24 C 0.9188(8) 0.3734(8) 0.7812(7)
C25 C 0.7571(7) 0.2509(7) 0.4234(6)
O11 O 0.8036(6) 0.5729(5) 0.9378(5)
O12 O 0.7804(9) 0.6827(8) 1.0681(6)
O13 O 0.5630(6) 0.3151(5) 0.2769(6)
O14 O 0.5944(5) 0.2029(5) 0.1532(6)
N6 N 0.6592(6) 0.6142(5) 0.8560(5)
C26 C 0.6793(8) 0.6662(7) 0.9439(7)
C27 C 0.6277(9) 0.7378(8) 0.9888(7)
H55 H 0.6433 0.7724 1.0504
C28 C 0.5535(9) 0.7595(7) 0.9449(8)
H56 H 0.5177 0.8092 0.9754
C29 C 0.5326(7) 0.7083(7) 0.8570(7)
C30 C 0.5853(7) 0.6367(7) 0.8125(6)
H57 H 0.5702 0.6024 0.7507
C31 C 0.7593(11) 0.6359(9) 0.9872(7)
C32 C 0.5473(7) 0.2685(8) 0.1964(9)
O15 O 0.8100(5) 0.1464(4) 0.1803(5)
O16 O 0.9329(6) 0.1788(5) 0.1243(7)
O17 O 0.7229(5) 0.5938(5) 0.3887(5)
O18 O 0.8506(6) 0.6422(4) 0.3541(6)
N7 N 0.7773(6) 0.3226(5) 0.2598(5)
C33 C 0.8508(8) 0.3020(7) 0.2125(7)
C34 C 0.9083(9) 0.3680(7) 0.2071(8)
H58 H 0.9592 0.3519 0.1728
C35 C 0.8914(9) 0.4570(8) 0.2516(8)
H59 H 0.9307 0.5040 0.2487
C36 C 0.8173(7) 0.4797(6) 0.3011(7)
C37 C 0.7622(7) 0.4093(7) 0.3030(7)
H60 H 0.7110 0.4240 0.3370
C38 C 0.8672(8) 0.1998(7) 0.1683(7)
C39 C 0.7952(9) 0.5766(6) 0.3508(7)
O19 O 0.6738(5) 0.0431(4) 0.1800(4)
O20 O 0.5740(5) -0.0801(4) 0.1265(5)
O21 O 0.6045(6) 0.7177(6) 0.5108(5)
O22 O 0.6800(6) 0.8463(6) 0.5229(6)
N8 N 0.5624(5) 0.1355(5) 0.3013(5)
C40 C 0.5387(7) 0.0458(6) 0.2529(6)
C41 C 0.4665(8) -0.0005(7) 0.2684(8)
H61 H 0.4529 -0.0644 0.2344
C42 C 0.4141(9) 0.0483(8) 0.3348(9)
H62 H 0.3623 0.0187 0.3464
C43 C 0.4375(8) 0.1403(7) 0.3841(7)
C44 C 0.5115(7) 0.1802(6) 0.3636(6)
H63 H 0.5266 0.2440 0.3967
C45 C 0.6007(7) -0.0032(6) 0.1796(6)
C46 C 0.6188(9) 0.8017(10) 0.5445(8)
O23 O 0.8854(5) 0.8480(5) 0.4997(5)
O24 O 0.9916(5) 0.9162(5) 0.6181(6)
O25 O 0.7146(7) 0.5538(5) 0.6588(7)
O26 O 0.8339(7) 0.5934(6) 0.7633(7)
N9 N 0.8216(6) 0.7300(5) 0.5592(7)
C47 C 0.8919(8) 0.7932(7) 0.6108(8)
C48 C 0.9281(11) 0.7977(8) 0.6899(10)
H64 H 0.9766 0.8434 0.7237
C49 C 0.8966(10) 0.7375(9) 0.7231(10)
H65 H 0.9207 0.7414 0.7794
C50 C 0.8249(9) 0.6686(7) 0.6669(9)
C51 C 0.7894(9) 0.6711(8) 0.5886(9)
H66 H 0.7391 0.6282 0.5539
C52 C 0.9256(8) 0.8578(6) 0.5739(9)
C53 C 0.7871(10) 0.6002(8) 0.6975(11)
O27 O 0.7919(6) 0.8256(5) 0.3522(6)
O28 O 0.7401(6) 0.8785(6) 0.2551(6)
O29 O 0.6122(5) 0.4297(5) 0.7097(5)
O30 O 0.6701(6) 0.4024(5) 0.8219(5)
N10 N 0.6336(7) 0.7249(5) 0.3262(6)
C54 C 0.6390(8) 0.7744(6) 0.2780(8)
C55 C 0.5684(10) 0.7738(8) 0.2177(8)
H67 H 0.5747 0.8095 0.1849
C56 C 0.4873(8) 0.7199(7) 0.2056(8)
H68 H 0.4365 0.7190 0.1647
C57 C 0.4803(8) 0.6679(7) 0.2525(7)
C58 C 0.5562(8) 0.6731(6) 0.3135(7)
H69 H 0.5518 0.6380 0.3471
C59 C 0.7306(10) 0.8319(8) 0.2965(8)
C60 C 0.6044(9) 0.3920(7) 0.7599(8)
In1A In 0.24052(5) 0.50203(4) 0.20467(4)
In2A In 0.30988(5) 0.80750(4) 0.74514(4)
In3A In 0.23745(6) 0.24957(5) 0.56634(6)
O7A O 0.1188(5) 0.5590(5) 0.1668(4)
O8A O 0.0143(7) 0.6633(7) 0.1975(5)
O9A O 0.3013(5) 0.7029(5) 0.5933(4)
O10A O 0.2165(5) 0.8218(5) 0.6369(4)
N5A N 0.1961(5) 0.6238(5) 0.3328(5)
C19A C 0.1204(7) 0.6635(7) 0.3148(6)
C20A C 0.0835(8) 0.7346(7) 0.3796(6)
H52A H 0.0305 0.7618 0.3652
C21A C 0.1243(7) 0.7662(8) 0.4659(7)
H53A H 0.1017 0.8167 0.5116
C22A C 0.1991(7) 0.7219(6) 0.4833(6)
C23A C 0.2336(7) 0.6524(6) 0.4151(6)
H54A H 0.2865 0.6240 0.4278
C24A C 0.0812(8) 0.6266(8) 0.2188(7)
C25A C 0.2429(7) 0.7491(7) 0.5766(6)
O11A O 0.1964(6) 0.4271(5) 0.0622(5)
O12A O 0.2196(9) 0.3173(8) -0.0681(6)
O13A O 0.4370(6) 0.6849(5) 0.7231(6)
O14A O 0.4056(5) 0.7971(5) 0.8468(6)
N6A N 0.3408(6) 0.3858(5) 0.1440(5)
C26A C 0.3207(8) 0.3338(7) 0.0561(7)
C27A C 0.3723(9) 0.2622(8) 0.0112(7)
H55A H 0.3567 0.2276 -0.0504
C28A C 0.4465(9) 0.2405(7) 0.0551(8)
H56A H 0.4823 0.1908 0.0246
C29A C 0.4674(7) 0.2917(7) 0.1430(7)
C30A C 0.4147(7) 0.3633(7) 0.1875(6)
H57A H 0.4298 0.3976 0.2493
C31A C 0.2407(11) 0.3641(9) 0.0128(7)
C32A C 0.4527(7) 0.7315(8) 0.8036(9)
O15A O 0.1900(5) 0.8536(4) 0.8197(5)
O16A O 0.0671(6) 0.8212(5) 0.8757(7)
O17A O 0.2771(5) 0.4062(5) 0.6113(5)
O18A O 0.1494(6) 0.3578(4) 0.6459(6)
N7A N 0.2227(6) 0.6774(5) 0.7402(5)
C33A C 0.1492(8) 0.6980(7) 0.7875(7)
C34A C 0.0917(9) 0.6320(7) 0.7929(8)
H58A H 0.0408 0.6481 0.8272
C35A C 0.1086(9) 0.5430(8) 0.7484(8)
H59A H 0.0693 0.4960 0.7513
C36A C 0.1827(7) 0.5203(6) 0.6989(7)
C37A C 0.2378(7) 0.5907(7) 0.6970(7)
H60A H 0.2890 0.5760 0.6630
C38A C 0.1328(8) 0.8002(7) 0.8317(7)
C39A C 0.2048(9) 0.4234(6) 0.6492(7)
O19A O 0.3262(5) 0.9569(4) 0.8200(4)
O20A O 0.4260(5) 1.0801(4) 0.8735(5)
O21A O 0.3955(6) 0.2823(6) 0.4892(5)
O22A O 0.3200(6) 0.1537(6) 0.4771(6)
N8A N 0.4376(5) 0.8645(5) 0.6987(5)
C40A C 0.4613(7) 0.9542(6) 0.7471(6)
C41A C 0.5335(8) 1.0005(7) 0.7316(8)
H61A H 0.5471 1.0644 0.7656
C42A C 0.5859(9) 0.9517(8) 0.6652(9)
H62A H 0.6377 0.9813 0.6536
C43A C 0.5625(8) 0.8597(7) 0.6159(7)
C44A C 0.4885(7) 0.8198(6) 0.6364(6)
H63A H 0.4734 0.7560 0.6033
C45A C 0.3993(7) 1.0032(6) 0.8204(6)
C46A C 0.3812(9) 0.1983(10) 0.4555(8)
O23A O 0.1146(5) 0.1520(5) 0.5003(5)
O24A O 0.0084(5) 0.0838(5) 0.3819(6)
O25A O 0.2854(7) 0.4462(5) 0.3412(7)
O26A O 0.1661(7) 0.4066(6) 0.2367(7)
N9A N 0.1784(6) 0.2700(5) 0.4408(7)
C47A C 0.1081(8) 0.2068(7) 0.3892(8)
C48A C 0.0719(11) 0.2023(8) 0.3101(10)
H64A H 0.0234 0.1566 0.2763
C49A C 0.1034(10) 0.2625(9) 0.2769(10)
H65A H 0.0793 0.2586 0.2206
C50A C 0.1751(9) 0.3314(7) 0.3331(9)
C51A C 0.2106(9) 0.3289(8) 0.4114(9)
H66A H 0.2609 0.3718 0.4461
C52A C 0.0744(8) 0.1422(6) 0.4261(9)
C53A C 0.2129(10) 0.3998(8) 0.3025(11)
O27A O 0.2081(6) 0.1744(5) 0.6478(6)
O28A O 0.2599(6) 0.1215(6) 0.7449(6)
O29A O 0.3878(5) 0.5703(5) 0.2903(5)
O30A O 0.3299(6) 0.5976(5) 0.1781(5)
N10A N 0.3664(7) 0.2751(5) 0.6738(6)
C54A C 0.3610(8) 0.2256(6) 0.7220(8)
C55A C 0.4316(10) 0.2262(8) 0.7823(8)
H67A H 0.4253 0.1905 0.8151
C56A C 0.5127(8) 0.2801(7) 0.7944(8)
H68A H 0.5635 0.2810 0.8353
C57A C 0.5197(8) 0.3321(7) 0.7475(7)
C58A C 0.4438(8) 0.3269(6) 0.6865(7)
H69A H 0.4482 0.3620 0.6529
C59A C 0.2694(10) 0.1681(8) 0.7035(8)
C60A C 0.3956(9) 0.6080(7) 0.2401(8)
N1 N 0.8668(7) 0.9970(6) 0.2326(7)
H1 H 0.8319 1.0362 0.2179
H2 H 0.9085 1.0297 0.2807
H3 H 0.8287 0.9589 0.2451
N2 N 0.9263(11) 0.8145(9) 0.2078(9)
H4 H 0.8863 0.7722 0.1634
H5 H 0.8934 0.8501 0.2518
H6 H 0.9685 0.7853 0.2292
C1 C 0.9174(11) 0.9428(7) 0.1585(7)
H7 H 0.9599 0.9856 0.1464
C2 C 0.9755(9) 0.8720(9) 0.1741(8)
H8 H 1.0262 0.9083 0.2222
C3 C 1.0250(12) 0.8216(15) 0.0938(12)
H9 H 1.0648 0.7769 0.1041
H10 H 1.0656 0.8656 0.0828
C4 C 0.9522(19) 0.7714(14) 0.0132(14)
H11 H 0.9126 0.7263 0.0237
H12 H 0.9843 0.7378 -0.0394
C5 C 0.8900(17) 0.8421(17) -0.0035(9)
H13 H 0.9289 0.8839 -0.0189
H14 H 0.8412 0.8095 -0.0536
C6 C 0.8438(11) 0.8979(13) 0.0800(11)
H15 H 0.8079 0.9455 0.0706
H16 H 0.7997 0.8569 0.0917
loop_
_geom_bond_atom_site_label_1
_geom_bond_atom_site_label_2
_geom_bond_site_symmetry_1
_geom_bond_site_symmetry_2
N1 H1 1_555 1_555
H2 N1 1_555 1_555
H3 N1 1_555 1_555
N2 H4 1_555 1_555
H5 N2 1_555 1_555
H6 N2 1_555 1_555
C1 N1 1_555 1_555
H7 C1 1_555 1_555
C2 N2 1_555 1_555
H8 C2 1_555 1_555
C3 C2 1_555 1_555
H9 C3 1_555 1_555
H10 C3 1_555 1_555
C4 C3 1_555 1_555
H11 C4 1_555 1_555
H12 C4 1_555 1_555
C5 C4 1_555 1_555
H13 C5 1_555 1_555
H14 C5 1_555 1_555
C6 C1 1_555 1_555
H15 C6 1_555 1_555
H16 C6 1_555 1_555
O1 C7 1_555 1_555
N3 C7 1_555 1_555
C7 H17 1_555 1_555
C8 N3 1_555 1_555
H18 C8 1_555 1_555
H19 C8 1_555 1_555
H20 C8 1_555 1_555
C9 N3 1_555 1_555
H21 C9 1_555 1_555
H22 C9 1_555 1_555
H23 C9 1_555 1_555
O2 C10 1_555 1_555
N4 C10 1_555 1_555
C10 H24 1_555 1_555
C11 N4 1_555 1_555
H25 C11 1_555 1_555
H26 C11 1_555 1_555
H27 C11 1_555 1_555
C12 N4 1_555 1_555
H28 C12 1_555 1_555
H29 C12 1_555 1_555
H30 C12 1_555 1_555
O3 H31 1_555 1_555
H32 O3 1_555 1_555
H33 O3 1_555 1_555
O4 H34 1_555 1_555
C13 O4 1_555 1_555
C14 O4 1_555 1_555
H35 C13 1_555 1_555
H36 C13 1_555 1_555
H37 O4 1_555 1_555
H38 C14 1_555 1_555
H39 O4 1_555 1_555
O5 H40 1_555 1_555
C15 O5 1_555 1_555
C16 C15 1_555 1_555
H41 C15 1_555 1_555
H42 C15 1_555 1_555
H43 C16 1_555 1_555
H44 C16 1_555 1_555
H45 C16 1_555 1_555
O6 H46 1_555 1_555
C17 O6 1_555 1_555
C18 C17 1_555 1_555
H47 C17 1_555 1_555
H48 C17 1_555 1_555
H49 C18 1_555 1_555
H50 C18 1_555 1_555
H51 C18 1_555 1_555
In1 O7 1_555 1_555
In2 O9 1_555 1_555
In3 O17 1_555 1_555
O7 C24 1_555 1_555
O8 C24 1_555 1_555
O9 C25 1_555 1_555
O10 In2 1_555 1_555
N5 In1 1_555 1_555
C19 N5 1_555 1_555
C20 C19 1_555 1_555
H52 C20 1_555 1_555
C21 C20 1_555 1_555
H53 C21 1_555 1_555
C22 C21 1_555 1_555
C23 N5 1_555 1_555
H54 C23 1_555 1_555
C24 C19 1_555 1_555
C25 O10 1_555 1_555
O11 In1 1_555 1_555
O12 C31 1_555 1_555
O13 C32 1_555 1_555
O14 In2 1_555 1_555
N6 In1 1_555 1_555
C26 N6 1_555 1_555
C27 C26 1_555 1_555
H55 C27 1_555 1_555
C28 C27 1_555 1_555
H56 C28 1_555 1_555
C29 C28 1_555 1_555
C30 N6 1_555 1_555
H57 C30 1_555 1_555
C31 O11 1_555 1_555
C32 O14 1_555 1_555
O15 In2 1_555 1_555
O16 C38 1_555 1_555
O17 C39 1_555 1_555
O18 In3 1_555 1_555
N7 In2 1_555 1_555
C33 N7 1_555 1_555
C34 C33 1_555 1_555
H58 C34 1_555 1_555
C35 C34 1_555 1_555
H59 C35 1_555 1_555
C36 C35 1_555 1_555
C37 N7 1_555 1_555
H60 C37 1_555 1_555
C38 O15 1_555 1_555
C39 O18 1_555 1_555
O19 In2 1_555 1_555
O20 C45 1_555 1_555
O21 C46 1_555 1_555
O22 In3 1_555 1_555
N8 In2 1_555 1_555
C40 N8 1_555 1_555
C41 C40 1_555 1_555
H61 C41 1_555 1_555
C42 C41 1_555 1_555
H62 C42 1_555 1_555
C43 C42 1_555 1_555
C44 N8 1_555 1_555
H63 C44 1_555 1_555
C45 O19 1_555 1_555
C46 O22 1_555 1_555
O23 In3 1_555 1_555
O24 C52 1_555 1_555
O25 C53 1_555 1_555
O26 In1 1_555 1_555
N9 In3 1_555 1_555
C47 N9 1_555 1_555
C48 C47 1_555 1_555
H64 C48 1_555 1_555
C49 C48 1_555 1_555
H65 C49 1_555 1_555
C50 C49 1_555 1_555
C51 N9 1_555 1_555
H66 C51 1_555 1_555
C52 O23 1_555 1_555
C53 O26 1_555 1_555
O27 In3 1_555 1_555
O28 C59 1_555 1_555
O29 In1 1_555 1_555
O30 In1 1_555 1_555
N10 In3 1_555 1_555
C54 N10 1_555 1_555
C55 C54 1_555 1_555
H67 C55 1_555 1_555
C56 C55 1_555 1_555
H68 C56 1_555 1_555
C57 C56 1_555 1_555
C58 N10 1_555 1_555
H69 C58 1_555 1_555
C59 O27 1_555 1_555
C60 O29 1_555 1_555
O4A C13 1_555 1_555
H34A O4A 1_555 1_555
C13A O4 1_555 1_555
C14A C13 1_555 1_555
H35A C13A 1_555 1_555
H36A C13A 1_555 1_555
H37A O4A 1_555 1_555
H38A C14A 1_555 1_555
H39A O4A 1_555 1_555
In1A O7A 1_555 1_555
In2A O9A 1_555 1_555
In3A O17A 1_555 1_555
O7A C24A 1_555 1_555
O8A C24A 1_555 1_555
O9A C25A 1_555 1_555
O10A In2A 1_555 1_555
N5A In1A 1_555 1_555
C19A N5A 1_555 1_555
C20A C19A 1_555 1_555
H52A C20A 1_555 1_555
C21A C20A 1_555 1_555
H53A C21A 1_555 1_555
C22A C21A 1_555 1_555
C23A N5A 1_555 1_555
H54A C23A 1_555 1_555
C24A C19A 1_555 1_555
C25A O10A 1_555 1_555
O11A In1A 1_555 1_555
O12A C31A 1_555 1_555
O13A C32A 1_555 1_555
O14A In2A 1_555 1_555
N6A In1A 1_555 1_555
C26A N6A 1_555 1_555
C27A C26A 1_555 1_555
H55A C27A 1_555 1_555
C28A C27A 1_555 1_555
H56A C28A 1_555 1_555
C29A C32 1_555 1_555
C30A N6A 1_555 1_555
H57A C30A 1_555 1_555
C31A O11A 1_555 1_555
C32A C29 1_555 1_555
O15A In2A 1_555 1_555
O16A C38A 1_555 1_555
O17A C39A 1_555 1_555
O18A In3A 1_555 1_555
N7A In2A 1_555 1_555
C33A N7A 1_555 1_555
C34A C33A 1_555 1_555
H58A C34A 1_555 1_555
C35A C34A 1_555 1_555
H59A C35A 1_555 1_555
C36A C35A 1_555 1_555
C37A N7A 1_555 1_555
H60A C37A 1_555 1_555
C38A O15A 1_555 1_555
C39A O18A 1_555 1_555
O19A In2A 1_555 1_555
O20A C45A 1_555 1_555
O21A C46A 1_555 1_555
O22A In3A 1_555 1_555
N8A In2A 1_555 1_555
C40A N8A 1_555 1_555
C41A C40A 1_555 1_555
H61A C41A 1_555 1_555
C42A C41A 1_555 1_555
H62A C42A 1_555 1_555
C43A C46 1_555 1_555
C44A N8A 1_555 1_555
H63A C44A 1_555 1_555
C45A O19A 1_555 1_555
C46A C43 1_555 1_555
O23A In3A 1_555 1_555
O24A C52A 1_555 1_555
O25A C53A 1_555 1_555
O26A In1A 1_555 1_555
N9A In3A 1_555 1_555
C47A N9A 1_555 1_555
C48A C47A 1_555 1_555
H64A C48A 1_555 1_555
C49A C48A 1_555 1_555
H65A C49A 1_555 1_555
C50A C49A 1_555 1_555
C51A N9A 1_555 1_555
H66A C51A 1_555 1_555
C52A O23A 1_555 1_555
C53A O26A 1_555 1_555
O27A In3A 1_555 1_555
O28A C59A 1_555 1_555
O29A In1A 1_555 1_555
O30A In1A 1_555 1_555
N10A In3A 1_555 1_555
C54A N10A 1_555 1_555
C55A C54A 1_555 1_555
H67A C55A 1_555 1_555
C56A C55A 1_555 1_555
H68A C56A 1_555 1_555
C57A C60 1_555 1_555
C58A N10A 1_555 1_555
H69A C58A 1_555 1_555
C59A O27A 1_555 1_555
C60A C57 1_555 1_555
C1 C2 1_555 1_555
C5 C6 1_555 1_555
C13 C14 1_555 1_555
C13 H39 1_555 1_555
C13 C13A 1_555 1_555
C14 H37 1_555 1_555
C14 H39 1_555 1_555
C14 C13A 1_555 1_555
C22 C23 1_555 1_555
C22 C25 1_555 1_555
C26 C31 1_555 1_555
C29 C30 1_555 1_555
C33 C38 1_555 1_555
C36 C37 1_555 1_555
C36 C39 1_555 1_555
C40 C45 1_555 1_555
C43 C44 1_555 1_555
C47 C52 1_555 1_555
C50 C51 1_555 1_555
C50 C53 1_555 1_555
O30 C60 1_555 1_555
C54 C59 1_555 1_555
C57 C58 1_555 1_555
O4A C13A 1_555 1_555
O4A C14A 1_555 1_555
C13A C14A 1_555 1_555
C13A H39A 1_555 1_555
C14A H37A 1_555 1_555
C14A H39A 1_555 1_555
C22A C23A 1_555 1_555
C22A C25A 1_555 1_555
O14A C32A 1_555 1_555
C26A C31A 1_555 1_555
C28A C29A 1_555 1_555
C29A C30A 1_555 1_555
C33A C38A 1_555 1_555
C36A C37A 1_555 1_555
C36A C39A 1_555 1_555
O22A C46A 1_555 1_555
C40A C45A 1_555 1_555
C42A C43A 1_555 1_555
C43A C44A 1_555 1_555
C47A C52A 1_555 1_555
C50A C51A 1_555 1_555
C50A C53A 1_555 1_555
O29A C60A 1_555 1_555
O30A C60A 1_555 1_555
C54A C59A 1_555 1_555
C56A C57A 1_555 1_555
C57A C58A 1_555 1_555

#END
