
#######################################################################
#
#                 Cambridge Crystallographic Data Centre
#                                CCDC 
#
#######################################################################
#
# If this CIF has been generated from an entry in the Cambridge 
# Structural Database, then it will include bibliographic, chemical, 
# crystal, experimental, refinement or atomic coordinate data resulting 
# from the CCDC's data processing and validation procedures.
#
#######################################################################

data_TAQDEW
_chemical_formula_moiety         
'C336 H264 Co8 N72 16+,16(Cl1 O4 1-),3(C2 H3 N1),2(H2 O1)'
_chemical_name_systematic        
'dodecakis(\m~2~-1,5-bis(3-(2-Pyridyl)-1-pyrazolylmethyl)naphthalene)-octa-cobalt(ii) hexadecakis(perchlorate) acetonitrile solvate dihydrate'
_symmetry_cell_setting           rhombohedral
_symmetry_space_group_name_H-M   'R -3'
_symmetry_Int_Tables_number      148
_space_group_name_Hall           '-R 3'
loop_
_symmetry_equiv_pos_site_id
_symmetry_equiv_pos_as_xyz
1 x,y,z
2 -y,x-y,z
3 -x+y,-x,z
4 2/3+x,1/3+y,1/3+z
5 2/3-y,1/3+x-y,1/3+z
6 2/3-x+y,1/3-x,1/3+z
7 1/3+x,2/3+y,2/3+z
8 1/3-y,2/3+x-y,2/3+z
9 1/3-x+y,2/3-x,2/3+z
10 -x,-y,-z
11 y,-x+y,-z
12 x-y,x,-z
13 1/3-x,2/3-y,2/3-z
14 1/3+y,2/3-x+y,2/3-z
15 1/3+x-y,2/3+x,2/3-z
16 2/3-x,1/3-y,1/3-z
17 2/3+y,1/3-x+y,1/3-z
18 2/3+x-y,1/3+x,1/3-z
_cell_length_a                   28.8897(14)
_cell_length_b                   28.8897(14)
_cell_length_c                   53.152(6)
_cell_angle_alpha                90
_cell_angle_beta                 90
_cell_angle_gamma                120
_cell_volume                     38418.1
_exptl_crystal_colour            'pale yellow'
_exptl_crystal_description       block
_cell_formula_units_Z            3
loop_
_atom_site_label
_atom_site_type_symbol
_atom_site_fract_x
_atom_site_fract_y
_atom_site_fract_z
Co1 Co 0.69276(2) 0.94083(2) 0.225762(10)
Co2 Co 0.3333 0.6667 0.340210(15)
N1 N 0.73908(11) 0.91762(12) 0.20295(6)
C1 C 0.74021(13) 0.87416(15) 0.21092(8)
C2 C 0.76869(16) 0.85430(18) 0.19815(9)
H1 H 0.7692 0.8243 0.2041
C3 C 0.79554(19) 0.8791(2) 0.17694(10)
H2 H 0.8142 0.8659 0.1681
C4 C 0.79518(18) 0.9240(2) 0.16848(9)
H3 H 0.8138 0.9418 0.1541
C5 C 0.76615(16) 0.94194(18) 0.18218(8)
H4 H 0.7656 0.9722 0.1766
N2 N 0.66160(12) 0.84185(13) 0.26541(6)
N3 N 0.68256(10) 0.87041(11) 0.24470(6)
C6 C 0.71096(13) 0.85021(14) 0.23359(8)
C7 C 0.70731(16) 0.80800(17) 0.24812(10)
H5 H 0.7234 0.7876 0.2449
C8 C 0.67547(17) 0.80328(19) 0.26776(10)
H6 H 0.6649 0.7782 0.2806
C9 C 0.62491(14) 0.84862(17) 0.28142(8)
H7 H 0.6357 0.8862 0.2820
H8 H 0.6273 0.8375 0.2984
N4 N 0.27236(12) 0.66933(12) 0.36280(5)
C10 C 0.26000(14) 0.70738(14) 0.35597(6)
C11 C 0.22410(17) 0.71583(17) 0.36924(8)
H9 H 0.2167 0.7424 0.3643
C12 C 0.1991(2) 0.6843(2) 0.39005(9)
H10 H 0.1744 0.6891 0.3992
C13 C 0.2111(2) 0.6465(2) 0.39678(9)
H11 H 0.1952 0.6255 0.4109
C14 C 0.24709(18) 0.63875(19) 0.38277(8)
H12 H 0.2539 0.6116 0.3873
N5 N 0.33824(10) 0.75906(10) 0.30164(5)
N6 N 0.32040(10) 0.72575(10) 0.32154(5)
C15 C 0.28752(13) 0.73793(13) 0.33378(6)
C16 C 0.28478(14) 0.77927(13) 0.32158(7)
H13 H 0.2647 0.7949 0.3263
C17 C 0.31748(14) 0.79183(13) 0.30152(7)
H14 H 0.3245 0.8183 0.2897
C18 C 0.37662(12) 0.75980(13) 0.28402(6)
H15 H 0.3715 0.7723 0.2679
H16 H 0.3697 0.7236 0.2818
C19 C 0.56817(14) 0.81757(14) 0.27277(7)
C20 C 0.55348(15) 0.78220(15) 0.25297(7)
H17 H 0.5792 0.7770 0.2450
C21 C 0.50075(14) 0.75409(14) 0.24463(7)
H18 H 0.4921 0.7322 0.2306
C22 C 0.46216(14) 0.75846(13) 0.25682(6)
H19 H 0.4270 0.7389 0.2512
C23 C 0.47426(12) 0.79259(12) 0.27814(6)
C24 C 0.52812(14) 0.82308(13) 0.28599(6)
C25 C 0.53992(15) 0.85679(14) 0.30724(7)
H20 H 0.5752 0.8774 0.3125
C26 C 0.50084(16) 0.85950(15) 0.31997(8)
H21 H 0.5096 0.8824 0.3337
C27 C 0.44723(15) 0.82826(14) 0.31274(7)
H22 H 0.4206 0.8300 0.3218
C28 C 0.43388(13) 0.79473(12) 0.29207(6)
N7 N 0.64036(12) 0.95674(12) 0.24792(6)
C29 C 0.58976(14) 0.93422(14) 0.23961(7)
C30 C 0.55108(17) 0.94066(18) 0.25200(9)
H23 H 0.5161 0.9240 0.2461
C31 C 0.5656(2) 0.9724(2) 0.27340(11)
H24 H 0.5404 0.9773 0.2820
C32 C 0.6177(2) 0.9966(2) 0.28173(10)
H25 H 0.6285 1.0184 0.2959
C33 C 0.65333(19) 0.98739(19) 0.26852(9)
H26 H 0.6884 1.0034 0.2742
N8 N 0.59734(11) 0.87248(11) 0.18340(6)
N9 N 0.61886(10) 0.90098(11) 0.20485(6)
C34 C 0.57874(13) 0.90322(13) 0.21665(7)
C35 C 0.53163(13) 0.87603(14) 0.20291(8)
H27 H 0.4984 0.8717 0.2070
C36 C 0.54459(14) 0.85694(15) 0.18196(8)
H28 H 0.5214 0.8369 0.1691
C37 C 0.62694(15) 0.85815(14) 0.16642(7)
H29 H 0.6637 0.8872 0.1658
H30 H 0.6119 0.8536 0.1497
N10 N 0.65653(12) 0.56245(12) 0.08360(6)
C38 C 0.70869(15) 0.58641(15) 0.08993(8)
C39 C 0.74538(18) 0.58103(18) 0.07538(9)
H31 H 0.7809 0.5969 0.0805
C40 C 0.72936(19) 0.55239(19) 0.05351(10)
H32 H 0.7538 0.5492 0.0433
C41 C 0.67645(19) 0.52844(18) 0.04691(9)
H33 H 0.6643 0.5084 0.0322
C42 C 0.64173(17) 0.53445(15) 0.06236(7)
H34 H 0.6059 0.5181 0.0577
N11 N 0.70942(12) 0.65359(14) 0.14535(7)
N12 N 0.68537(11) 0.62408(12) 0.12470(6)
C43 C 0.72292(15) 0.61799(16) 0.11302(8)
C44 C 0.77150(18) 0.6442(2) 0.12596(11)
H35 H 0.8036 0.6460 0.1218
C45 C 0.76087(18) 0.6668(2) 0.14624(11)
H36 H 0.7853 0.6877 0.1585
C46 C 0.68228(15) 0.67206(15) 0.16175(8)
H37 H 0.6982 0.6781 0.1783
H38 H 0.6452 0.6441 0.1633
C47 C 0.62651(13) 0.80747(13) 0.17388(7)
C48 C 0.59758(14) 0.77869(14) 0.19416(7)
H39 H 0.5772 0.7899 0.2031
C49 C 0.59797(15) 0.73238(14) 0.20187(7)
H40 H 0.5779 0.7135 0.2158
C50 C 0.62686(14) 0.71504(14) 0.18949(7)
H41 H 0.6279 0.6852 0.1953
C51 C 0.65598(13) 0.74221(14) 0.16749(7)
C52 C 0.65574(13) 0.78888(14) 0.15967(6)
C53 C 0.68511(15) 0.81626(15) 0.13753(7)
H42 H 0.6861 0.8474 0.1323
C54 C 0.71158(16) 0.79641(17) 0.12425(8)
H43 H 0.7299 0.8139 0.1097
C55 C 0.71184(15) 0.75028(16) 0.13203(8)
H44 H 0.7311 0.7381 0.1229
C56 C 0.68391(14) 0.72274(15) 0.15312(7)
Co1A Co 0.05917(2) 0.75193(3) 0.225762(10)
Co1B Co 0.24807(3) 0.30724(2) 0.225762(10)
Co1O Co -0.02609(2) 0.39250(2) 0.107571(10)
Co1P Co 0.60750(2) 0.58140(3) 0.107571(10)
Co1Q Co 0.41860(3) 1.02609(2) 0.107571(10)
Co2O Co 0.3334 0.6666 -0.006877(15)
N1A N 0.08238(12) 0.82146(16) 0.20295(6)
N1B N 0.17854(16) 0.26092(11) 0.20295(6)
N1O N -0.07241(11) 0.41571(12) 0.13038(6)
N1P N 0.58429(12) 0.51187(16) 0.13038(6)
N1Q N 0.48813(16) 1.07241(11) 0.13038(6)
C1A C 0.12584(15) 0.86605(20) 0.21092(8)
C1B C 0.13395(20) 0.25979(13) 0.21092(8)
C1O C -0.07354(13) 0.45917(15) 0.12241(8)
C1P C 0.54083(15) 0.46728(20) 0.12241(8)
C1Q C 0.53272(20) 1.07354(13) 0.12241(8)
C2A C 0.14570(18) 0.91439(24) 0.19815(9)
C2B C 0.08561(24) 0.23131(16) 0.19815(9)
C2O C -0.10202(16) 0.47903(18) 0.13518(9)
C2P C 0.52097(18) 0.41894(24) 0.13518(9)
C2Q C 0.58106(24) 1.10202(16) 0.13518(9)
H1A H 0.1757 0.9449 0.2041
H1B H 0.0551 0.2308 0.2041
H1O H -0.1025 0.5090 0.1292
H1P H 0.4910 0.3884 0.1292
H1Q H 0.6116 1.1025 0.1292
C3A C 0.1209(2) 0.91644(28) 0.17694(10)
C3B C 0.08356(28) 0.20446(19) 0.17694(10)
C3O C -0.12887(19) 0.4542(2) 0.15639(10)
C3P C 0.5458(2) 0.41689(28) 0.15639(10)
C3Q C 0.58311(28) 1.12887(19) 0.15639(10)
H2A H 0.1341 0.9483 0.1681
H2B H 0.0517 0.1858 0.1681
H2O H -0.1475 0.4674 0.1652
H2P H 0.5326 0.3850 0.1652
H2Q H 0.6150 1.1475 0.1652
C4A C 0.0760(2) 0.87118(27) 0.16848(9)
C4B C 0.12882(27) 0.20482(18) 0.16848(9)
C4O C -0.12851(18) 0.4093(2) 0.16485(9)
C4P C 0.5907(2) 0.46215(27) 0.16485(9)
C4Q C 0.53785(27) 1.12851(18) 0.16485(9)
H3A H 0.0582 0.8720 0.1541
H3B H 0.1280 0.1862 0.1541
H3O H -0.1471 0.3915 0.1792
H3P H 0.6085 0.4613 0.1792
H3Q H 0.5387 1.1471 0.1792
C5A C 0.05806(18) 0.82421(24) 0.18218(8)
C5B C 0.17579(24) 0.23385(16) 0.18218(8)
C5O C -0.09948(16) 0.39139(18) 0.15115(8)
C5P C 0.60861(18) 0.50912(24) 0.15115(8)
C5Q C 0.49088(24) 1.09948(16) 0.15115(8)
H4A H 0.0278 0.7934 0.1766
H4B H 0.2066 0.2344 0.1766
H4O H -0.0989 0.3611 0.1567
H4P H 0.6389 0.5399 0.1567
H4Q H 0.4601 1.0989 0.1567
N2A N 0.15815(13) 0.81975(18) 0.26541(6)
N2B N 0.18025(18) 0.33840(12) 0.26541(6)
N2O N 0.00507(12) 0.49148(13) 0.06792(6)
N2P N 0.50852(13) 0.51358(18) 0.06792(6)
N2Q N 0.48642(18) 0.99493(12) 0.06792(6)
N3A N 0.12959(11) 0.81215(15) 0.24470(6)
N3B N 0.18785(15) 0.31744(10) 0.24470(6)
N3O N -0.01589(10) 0.46292(11) 0.08863(6)
N3P N 0.53708(11) 0.52118(15) 0.08863(6)
N3Q N 0.47882(15) 1.01589(10) 0.08863(6)
C6A C 0.14979(14) 0.86075(19) 0.23359(8)
C6B C 0.13925(19) 0.28904(13) 0.23359(8)
C6O C -0.04429(13) 0.48312(14) 0.09974(8)
C6P C 0.51688(14) 0.47258(19) 0.09974(8)
C6Q C 0.52742(19) 1.04429(13) 0.09974(8)
C7A C 0.19200(17) 0.89931(23) 0.24812(10)
C7B C 0.10069(23) 0.29269(16) 0.24812(10)
C7O C -0.04064(16) 0.52533(17) 0.08521(10)
C7P C 0.47467(17) 0.43402(23) 0.08521(10)
C7Q C 0.56598(23) 1.04064(16) 0.08521(10)
H5A H 0.2124 0.9358 0.2449
H5B H 0.0642 0.2766 0.2449
H5O H -0.0567 0.5457 0.0884
H5P H 0.4543 0.3975 0.0884
H5Q H 0.6025 1.0567 0.0884
C8A C 0.19672(19) 0.87219(25) 0.26776(10)
C8B C 0.12781(25) 0.32453(17) 0.26776(10)
C8O C -0.00880(17) 0.53005(19) 0.06557(10)
C8P C 0.46995(19) 0.46114(25) 0.06557(10)
C8Q C 0.53886(25) 1.00880(17) 0.06557(10)
H6A H 0.2218 0.8867 0.2806
H6B H 0.1133 0.3351 0.2806
H6O H 0.0018 0.5551 0.0527
H6P H 0.4449 0.4466 0.0527
H6Q H 0.5534 0.9982 0.0527
C9A C 0.15138(17) 0.77629(22) 0.28142(8)
C9B C 0.22371(22) 0.37509(14) 0.28142(8)
C9O C 0.04176(14) 0.48471(17) 0.05191(8)
C9P C 0.51529(17) 0.55704(22) 0.05191(8)
C9Q C 0.44296(22) 0.95824(14) 0.05191(8)
H7A H 0.1138 0.7495 0.2820
H7B H 0.2505 0.3643 0.2820
H7O H 0.0310 0.4471 0.0513
H7P H 0.5529 0.5838 0.0513
H7Q H 0.4162 0.9690 0.0513
H8A H 0.1625 0.7898 0.2984
H8B H 0.2102 0.3727 0.2984
H8O H 0.0394 0.4958 0.0349
H8P H 0.5042 0.5435 0.0349
H8Q H 0.4565 0.9606 0.0349
N4A N 0.33067(12) 0.60303(17) 0.36280(5)
N4B N 0.39697(17) 0.72764(12) 0.36280(5)
N4O N 0.39431(12) 0.66400(12) -0.02947(5)
N4P N 0.33600(12) 0.73030(17) -0.02947(5)
N4Q N 0.26970(17) 0.60569(12) -0.02947(5)
C10A C 0.29262(14) 0.55262(20) 0.35597(6)
C10B C 0.44738(20) 0.74000(14) 0.35597(6)
C10O C 0.40667(14) 0.62595(14) -0.02264(6)
C10P C 0.37405(14) 0.78071(20) -0.02264(6)
C10Q C 0.21929(20) 0.59333(14) -0.02264(6)
C11A C 0.28417(17) 0.50827(24) 0.36924(8)
C11B C 0.49173(24) 0.77590(17) 0.36924(8)
C11O C 0.44257(17) 0.61750(17) -0.03591(8)
C11P C 0.38250(17) 0.82506(24) -0.03591(8)
C11Q C 0.17494(24) 0.55743(17) -0.03591(8)
H9A H 0.2576 0.4743 0.3643
H9B H 0.5257 0.7833 0.3643
H9O H 0.4500 0.5909 -0.0310
H9P H 0.4091 0.8590 -0.0310
H9Q H 0.1410 0.5500 -0.0310
C12A C 0.3157(2) 0.5148(3) 0.39005(9)
C12B C 0.4852(3) 0.8009(2) 0.39005(9)
C12O C 0.4676(2) 0.6490(2) -0.05672(9)
C12P C 0.3510(2) 0.8185(3) -0.05672(9)
C12Q C 0.1815(3) 0.5324(2) -0.05672(9)
H10A H 0.3109 0.4853 0.3992
H10B H 0.5147 0.8256 0.3992
H10O H 0.4923 0.6442 -0.0659
H10P H 0.3558 0.8480 -0.0659
H10Q H 0.1520 0.5077 -0.0659
C13A C 0.3535(2) 0.5646(3) 0.39678(9)
C13B C 0.4354(3) 0.7889(2) 0.39678(9)
C13O C 0.4556(2) 0.6868(2) -0.06345(9)
C13P C 0.3132(2) 0.7687(3) -0.06345(9)
C13Q C 0.2313(3) 0.5444(2) -0.06345(9)
H11A H 0.3745 0.5697 0.4109
H11B H 0.4303 0.8048 0.4109
H11O H 0.4715 0.7078 -0.0776
H11P H 0.2922 0.7636 -0.0776
H11Q H 0.2364 0.5285 -0.0776
C14A C 0.36125(19) 0.60834(26) 0.38277(8)
C14B C 0.39166(26) 0.75291(18) 0.38277(8)
C14O C 0.41958(18) 0.69458(19) -0.04944(8)
C14P C 0.30542(19) 0.72499(26) -0.04944(8)
C14Q C 0.27501(26) 0.58042(18) -0.04944(8)
H12A H 0.3884 0.6423 0.3873
H12B H 0.3577 0.7461 0.3873
H12O H 0.4128 0.7217 -0.0540
H12P H 0.2783 0.6910 -0.0540
H12Q H 0.3090 0.5872 -0.0540
N5A N 0.24094(10) 0.57918(14) 0.30164(5)
N5B N 0.42082(14) 0.66176(10) 0.30164(5)
N5O N 0.32843(10) 0.57427(10) 0.03169(5)
N5P N 0.42573(10) 0.75415(14) 0.03169(5)
N5Q N 0.24585(14) 0.67157(10) 0.03169(5)
N6A N 0.27425(10) 0.59465(14) 0.32154(5)
N6B N 0.40535(14) 0.67960(10) 0.32154(5)
N6O N 0.34627(10) 0.60758(10) 0.01179(5)
N6P N 0.39242(10) 0.73868(14) 0.01179(5)
N6Q N 0.26132(14) 0.65373(10) 0.01179(5)
C15A C 0.26207(13) 0.54959(18) 0.33378(6)
C15B C 0.45041(18) 0.71248(13) 0.33378(6)
C15O C 0.37915(13) 0.59540(13) -0.00045(6)
C15P C 0.40460(13) 0.78374(18) -0.00045(6)
C15Q C 0.21626(18) 0.62085(13) -0.00045(6)
C16A C 0.22073(13) 0.50551(19) 0.32158(7)
C16B C 0.49449(19) 0.71522(14) 0.32158(7)
C16O C 0.38189(14) 0.55406(13) 0.01175(7)
C16P C 0.44594(13) 0.82782(19) 0.01175(7)
C16Q C 0.17218(19) 0.61811(14) 0.01175(7)
H13A H 0.2051 0.4698 0.3263
H13B H 0.5302 0.7353 0.3263
H13O H 0.4020 0.5384 0.0070
H13P H 0.4616 0.8635 0.0070
H13Q H 0.1365 0.5980 0.0070
C17A C 0.20817(13) 0.52565(19) 0.30152(7)
C17B C 0.47435(19) 0.68252(14) 0.30152(7)
C17O C 0.34919(14) 0.54150(13) 0.03181(7)
C17P C 0.45850(13) 0.80768(19) 0.03181(7)
C17Q C 0.19232(19) 0.65081(14) 0.03181(7)
H14A H 0.1817 0.5062 0.2897
H14B H 0.4938 0.6755 0.2897
H14O H 0.3422 0.5150 0.0436
H14P H 0.4850 0.8271 0.0436
H14Q H 0.1729 0.6578 0.0436
C18A C 0.24020(13) 0.61682(18) 0.28402(6)
C18B C 0.38318(18) 0.62338(12) 0.28402(6)
C18O C 0.29005(12) 0.57353(13) 0.04931(6)
C18P C 0.42647(13) 0.71651(18) 0.04931(6)
C18Q C 0.28349(18) 0.70995(12) 0.04931(6)
H15A H 0.2277 0.5992 0.2679
H15B H 0.4008 0.6285 0.2679
H15O H 0.2952 0.5610 0.0654
H15P H 0.4390 0.7341 0.0654
H15Q H 0.2659 0.7048 0.0654
H16A H 0.2764 0.6461 0.2818
H16B H 0.3539 0.6303 0.2818
H16O H 0.2970 0.6097 0.0515
H16P H 0.3903 0.6872 0.0515
H16Q H 0.3128 0.7030 0.0515
C19A C 0.18243(14) 0.75060(20) 0.27277(7)
C19B C 0.24940(20) 0.43183(14) 0.27277(7)
C19O C 0.09850(14) 0.51576(14) 0.06056(7)
C19P C 0.48424(14) 0.58273(20) 0.06056(7)
C19Q C 0.41727(20) 0.90150(14) 0.06056(7)
C20A C 0.21780(15) 0.77128(21) 0.25297(7)
C20B C 0.22872(21) 0.44652(15) 0.25297(7)
C20O C 0.11319(15) 0.55113(15) 0.08036(7)
C20P C 0.44887(15) 0.56205(21) 0.08036(7)
C20Q C 0.43795(21) 0.88681(15) 0.08036(7)
H17A H 0.2230 0.8022 0.2450
H17B H 0.1978 0.4208 0.2450
H17O H 0.0875 0.5563 0.0883
H17P H 0.4437 0.5311 0.0883
H17Q H 0.4689 0.9125 0.0883
C21A C 0.24591(14) 0.74666(20) 0.24463(7)
C21B C 0.25334(20) 0.49925(14) 0.24463(7)
C21O C 0.16592(14) 0.57924(14) 0.08870(7)
C21P C 0.42076(14) 0.58667(20) 0.08870(7)
C21Q C 0.41333(20) 0.83408(14) 0.08870(7)
H18A H 0.2678 0.7599 0.2306
H18B H 0.2401 0.5079 0.2306
H18O H 0.1746 0.6011 0.1027
H18P H 0.3989 0.5734 0.1027
H18Q H 0.4266 0.8254 0.1027
C22A C 0.24154(13) 0.70370(19) 0.25682(6)
C22B C 0.29630(19) 0.53784(14) 0.25682(6)
C22O C 0.20451(14) 0.57487(13) 0.07651(6)
C22P C 0.42513(13) 0.62963(19) 0.07651(6)
C22Q C 0.37037(19) 0.79549(14) 0.07651(6)
H19A H 0.2611 0.6881 0.2512
H19B H 0.3119 0.5730 0.2512
H19O H 0.2397 0.5944 0.0821
H19P H 0.4056 0.6452 0.0821
H19Q H 0.3548 0.7603 0.0821
C23A C 0.20741(12) 0.68167(17) 0.27814(6)
C23B C 0.31833(17) 0.52574(12) 0.27814(6)
C23O C 0.19241(12) 0.54074(12) 0.05519(6)
C23P C 0.45926(12) 0.65166(17) 0.05519(6)
C23Q C 0.34834(17) 0.80759(12) 0.05519(6)
C24A C 0.17692(13) 0.70504(19) 0.28599(6)
C24B C 0.29496(19) 0.47188(14) 0.28599(6)
C24O C 0.13855(14) 0.51025(13) 0.04734(6)
C24P C 0.48975(13) 0.62829(19) 0.04734(6)
C24Q C 0.37171(19) 0.86145(14) 0.04734(6)
C25A C 0.14321(14) 0.68313(21) 0.30724(7)
C25B C 0.31687(21) 0.46008(15) 0.30724(7)
C25O C 0.12675(15) 0.47654(14) 0.02609(7)
C25P C 0.52346(14) 0.65020(21) 0.02609(7)
C25Q C 0.34980(21) 0.87325(15) 0.02609(7)
H20A H 0.1226 0.6978 0.3125
H20B H 0.3022 0.4248 0.3125
H20O H 0.0915 0.4559 0.0208
H20P H 0.5441 0.6355 0.0208
H20Q H 0.3645 0.9085 0.0208
C26A C 0.14050(15) 0.64134(22) 0.31997(8)
C26B C 0.35866(22) 0.49916(16) 0.31997(8)
C26O C 0.16583(16) 0.47383(15) 0.01336(8)
C26P C 0.52617(15) 0.69199(22) 0.01336(8)
C26Q C 0.30801(22) 0.83417(16) 0.01336(8)
H21A H 0.1176 0.6272 0.3337
H21B H 0.3728 0.4904 0.3337
H21O H 0.1571 0.4509 -0.0004
H21P H 0.5491 0.7061 -0.0004
H21Q H 0.2939 0.8429 -0.0004
C27A C 0.17174(14) 0.61897(21) 0.31274(7)
C27B C 0.38103(21) 0.55277(15) 0.31274(7)
C27O C 0.21944(15) 0.50507(14) 0.02059(7)
C27P C 0.49493(14) 0.71436(21) 0.02059(7)
C27Q C 0.28564(21) 0.78056(15) 0.02059(7)
H22A H 0.1700 0.5906 0.3218
H22B H 0.4094 0.5794 0.3218
H22O H 0.2461 0.5033 0.0115
H22P H 0.4967 0.7427 0.0115
H22Q H 0.2573 0.7539 0.0115
C28A C 0.20527(12) 0.63915(18) 0.29207(6)
C28B C 0.36085(18) 0.56612(13) 0.29207(6)
C28O C 0.23279(13) 0.53860(12) 0.04126(6)
C28P C 0.46140(12) 0.69418(18) 0.04126(6)
C28Q C 0.30582(18) 0.76721(13) 0.04126(6)
N7A N 0.04326(12) 0.68362(17) 0.24792(6)
N7B N 0.31638(17) 0.35964(12) 0.24792(6)
N7O N 0.02631(12) 0.37659(12) 0.08541(6)
N7P N 0.62341(12) 0.64971(17) 0.08541(6)
N7Q N 0.35029(17) 0.97369(12) 0.08541(6)
C29A C 0.06578(14) 0.65554(20) 0.23961(7)
C29B C 0.34446(20) 0.41024(14) 0.23961(7)
C29O C 0.07691(14) 0.39911(14) 0.09372(7)
C29P C 0.60089(14) 0.67779(20) 0.09372(7)
C29Q C 0.32221(20) 0.92309(14) 0.09372(7)
C30A C 0.05934(18) 0.61042(25) 0.25200(9)
C30B C 0.38958(25) 0.44892(17) 0.25200(9)
C30O C 0.11559(17) 0.39267(18) 0.08133(9)
C30P C 0.60733(18) 0.72291(25) 0.08133(9)
C30Q C 0.27709(25) 0.88441(17) 0.08133(9)
H23A H 0.0760 0.5921 0.2461
H23B H 0.4079 0.4839 0.2461
H23O H 0.1506 0.4093 0.0872
H23P H 0.5907 0.7412 0.0872
H23Q H 0.2588 0.8494 0.0872
C31A C 0.0276(2) 0.5932(3) 0.27340(11)
C31B C 0.4068(3) 0.4344(2) 0.27340(11)
C31O C 0.1011(2) 0.3609(2) 0.05993(11)
C31P C 0.6391(2) 0.7401(3) 0.05993(11)
C31Q C 0.2599(3) 0.8989(2) 0.05993(11)
H24A H 0.0227 0.5631 0.2820
H24B H 0.4369 0.4596 0.2820
H24O H 0.1263 0.3560 0.0513
H24P H 0.6440 0.7702 0.0513
H24Q H 0.2298 0.8737 0.0513
C32A C 0.0034(2) 0.6211(3) 0.28173(10)
C32B C 0.3789(3) 0.3823(2) 0.28173(10)
C32O C 0.0490(2) 0.3367(2) 0.05160(10)
C32P C 0.6633(2) 0.7122(3) 0.05160(10)
C32Q C 0.2878(3) 0.9510(2) 0.05160(10)
H25A H -0.0184 0.6101 0.2959
H25B H 0.3899 0.3715 0.2959
H25O H 0.0382 0.3149 0.0374
H25P H 0.6851 0.7232 0.0374
H25Q H 0.2768 0.9618 0.0374
C33A C 0.01261(19) 0.66594(27) 0.26852(9)
C33B C 0.33406(27) 0.34667(19) 0.26852(9)
C33O C 0.01334(19) 0.34594(19) 0.06481(9)
C33P C 0.65406(19) 0.66739(27) 0.06481(9)
C33Q C 0.33261(27) 0.98666(19) 0.06481(9)
H26A H -0.0034 0.6850 0.2742
H26B H 0.3150 0.3116 0.2742
H26O H -0.0217 0.3299 0.0591
H26P H 0.6701 0.6483 0.0591
H26Q H 0.3517 1.0217 0.0591
N8A N 0.12752(11) 0.72486(16) 0.18340(6)
N8B N 0.27514(16) 0.40266(11) 0.18340(6)
N8O N 0.06933(11) 0.46085(11) 0.14993(6)
N8P N 0.53915(11) 0.60847(16) 0.14993(6)
N8Q N 0.39153(16) 0.93067(11) 0.14993(6)
N9A N 0.09902(11) 0.71788(15) 0.20485(6)
N9B N 0.28212(15) 0.38114(10) 0.20485(6)
N9O N 0.04781(10) 0.43235(11) 0.12848(6)
N9P N 0.56765(11) 0.61545(15) 0.12848(6)
N9Q N 0.38455(15) 0.95219(10) 0.12848(6)
C34A C 0.09678(13) 0.67552(18) 0.21665(7)
C34B C 0.32448(18) 0.42126(13) 0.21665(7)
C34O C 0.08793(13) 0.43011(13) 0.11668(7)
C34P C 0.56989(13) 0.65781(18) 0.11668(7)
C34Q C 0.34219(18) 0.91207(13) 0.11668(7)
C35A C 0.12397(14) 0.65560(19) 0.20291(8)
C35B C 0.34440(19) 0.46837(13) 0.20291(8)
C35O C 0.13504(13) 0.45730(14) 0.13042(8)
C35P C 0.54270(14) 0.67773(19) 0.13042(8)
C35Q C 0.32227(19) 0.86496(13) 0.13042(8)
H27A H 0.1283 0.6267 0.2070
H27B H 0.3733 0.5016 0.2070
H27O H 0.1683 0.4616 0.1263
H27P H 0.5384 0.7066 0.1263
H27Q H 0.2934 0.8317 0.1263
C36A C 0.14306(15) 0.68765(21) 0.18196(8)
C36B C 0.31235(21) 0.45541(14) 0.18196(8)
C36O C 0.12208(14) 0.47639(15) 0.15137(8)
C36P C 0.52361(15) 0.64568(21) 0.15137(8)
C36Q C 0.35432(21) 0.87792(14) 0.15137(8)
H28A H 0.1631 0.6845 0.1691
H28B H 0.3155 0.4786 0.1691
H28O H 0.1453 0.4964 0.1642
H28P H 0.5036 0.6488 0.1642
H28Q H 0.3512 0.8547 0.1642
C37A C 0.14185(14) 0.76879(21) 0.16642(7)
C37B C 0.23121(21) 0.37306(15) 0.16642(7)
C37O C 0.03973(15) 0.47518(14) 0.16691(7)
C37P C 0.52482(14) 0.56454(21) 0.16691(7)
C37Q C 0.43546(21) 0.96027(15) 0.16691(7)
H29A H 0.1128 0.7765 0.1658
H29B H 0.2235 0.3363 0.1658
H29O H 0.0030 0.4461 0.1675
H29P H 0.5539 0.5568 0.1675
H29Q H 0.4432 0.9970 0.1675
H30A H 0.1464 0.7583 0.1497
H30B H 0.2417 0.3881 0.1497
H30O H 0.0548 0.4797 0.1836
H30P H 0.5203 0.5750 0.1836
H30Q H 0.4250 0.9452 0.1836
N10A N 0.43755(12) 1.09408(17) 0.08360(6)
N10B N -0.09408(17) 0.34347(12) 0.08360(6)
N10O N 0.01014(12) 0.77088(12) 0.24973(6)
N10P N 0.22912(12) 0.23925(17) 0.24973(6)
N10Q N 0.76075(17) 0.98986(12) 0.24973(6)
C38A C 0.41359(15) 1.12228(21) 0.08993(8)
C38B C -0.12228(21) 0.29131(15) 0.08993(8)
C38O C -0.04202(15) 0.74692(15) 0.24340(8)
C38P C 0.25308(15) 0.21105(21) 0.24340(8)
C38Q C 0.78895(21) 1.04202(15) 0.24340(8)
C39A C 0.41897(18) 1.16435(25) 0.07538(9)
C39B C -0.16435(25) 0.25462(18) 0.07538(9)
C39O C -0.07871(18) 0.75230(18) 0.25795(9)
C39P C 0.24770(18) 0.16898(25) 0.25795(9)
C39Q C 0.83102(25) 1.07871(18) 0.25795(9)
H31A H 0.4031 1.1840 0.0805
H31B H -0.1840 0.2191 0.0805
H31O H -0.1142 0.7364 0.2528
H31P H 0.2636 0.1493 0.2528
H31Q H 0.8507 1.1142 0.2528
C40A C 0.44761(19) 1.17697(27) 0.05351(10)
C40B C -0.17697(27) 0.27064(19) 0.05351(10)
C40O C -0.06269(19) 0.78094(19) 0.27982(10)
C40P C 0.21906(19) 0.15636(27) 0.27982(10)
C40Q C 0.84364(27) 1.06269(19) 0.27982(10)
H32A H 0.4508 1.2046 0.0433
H32B H -0.2046 0.2462 0.0433
H32O H -0.0871 0.7841 0.2900
H32P H 0.2159 0.1287 0.2900
H32Q H 0.8713 1.0871 0.2900
C41A C 0.47156(18) 1.14801(26) 0.04691(9)
C41B C -0.14801(26) 0.32355(19) 0.04691(9)
C41O C -0.00978(19) 0.80489(18) 0.28642(9)
C41P C 0.19511(18) 0.18532(26) 0.28642(9)
C41Q C 0.81468(26) 1.00978(19) 0.28642(9)
H33A H 0.4916 1.1559 0.0322
H33B H -0.1559 0.3357 0.0322
H33O H 0.0024 0.8249 0.3011
H33P H 0.1751 0.1774 0.3011
H33Q H 0.8226 0.9976 0.3011
C42A C 0.46555(15) 1.10728(23) 0.06236(7)
C42B C -0.10728(23) 0.35827(17) 0.06236(7)
C42O C 0.02494(17) 0.79888(15) 0.27097(7)
C42P C 0.20112(15) 0.22605(23) 0.27097(7)
C42Q C 0.77395(23) 0.97506(17) 0.27097(7)
H34A H 0.4819 1.0878 0.0577
H34B H -0.0878 0.3941 0.0577
H34O H 0.0608 0.8152 0.2756
H34P H 0.1848 0.2455 0.2756
H34Q H 0.7545 0.9392 0.2756
N11A N 0.34641(14) 1.05583(18) 0.14535(7)
N11B N -0.05583(18) 0.29058(12) 0.14535(7)
N11O N -0.04275(12) 0.67974(14) 0.18798(7)
N11P N 0.32026(14) 0.27750(18) 0.18798(7)
N11Q N 0.72250(18) 1.04275(12) 0.18798(7)
N12A N 0.37592(12) 1.06129(16) 0.12470(6)
N12B N -0.06129(16) 0.31463(11) 0.12470(6)
N12O N -0.01870(11) 0.70925(12) 0.20863(6)
N12P N 0.29075(12) 0.27204(16) 0.20863(6)
N12Q N 0.72796(16) 1.01870(11) 0.20863(6)
C43A C 0.38201(16) 1.10493(22) 0.11302(8)
C43B C -0.10493(22) 0.27708(15) 0.11302(8)
C43O C -0.05625(15) 0.71534(16) 0.22031(8)
C43P C 0.28466(16) 0.22840(22) 0.22031(8)
C43Q C 0.77160(22) 1.05625(15) 0.22031(8)
C44A C 0.3558(2) 1.12730(27) 0.12596(11)
C44B C -0.12730(27) 0.22850(18) 0.12596(11)
C44O C -0.10483(18) 0.6891(2) 0.20737(11)
C44P C 0.3109(2) 0.20603(27) 0.20737(11)
C44Q C 0.79397(27) 1.10483(18) 0.20737(11)
H35A H 0.3540 1.1576 0.1218
H35B H -0.1576 0.1964 0.1218
H35O H -0.1369 0.6873 0.2115
H35P H 0.3127 0.1757 0.2115
H35Q H 0.8243 1.1369 0.2115
C45A C 0.3332(2) 1.09407(27) 0.14624(11)
C45B C -0.09407(27) 0.23913(18) 0.14624(11)
C45O C -0.09420(18) 0.6665(2) 0.18709(11)
C45P C 0.3335(2) 0.23926(27) 0.18709(11)
C45Q C 0.76074(27) 1.09420(18) 0.18709(11)
H36A H 0.3123 1.0976 0.1585
H36B H -0.0976 0.2147 0.1585
H36O H -0.1186 0.6456 0.1748
H36P H 0.3544 0.2357 0.1748
H36Q H 0.7643 1.1186 0.1748
C46A C 0.32794(15) 1.01022(21) 0.16175(8)
C46B C -0.01022(21) 0.31772(15) 0.16175(8)
C46O C -0.01561(15) 0.66127(15) 0.17158(8)
C46P C 0.33873(15) 0.32311(21) 0.17158(8)
C46Q C 0.67689(21) 1.01561(15) 0.17158(8)
H37A H 0.3219 1.0201 0.1783
H37B H -0.0201 0.3018 0.1783
H37O H -0.0315 0.6552 0.1550
H37P H 0.3448 0.3132 0.1550
H37Q H 0.6868 1.0315 0.1550
H38A H 0.3559 1.0011 0.1633
H38B H -0.0011 0.3548 0.1633
H38O H 0.0215 0.6892 0.1700
H38P H 0.3108 0.3322 0.1700
H38Q H 0.6678 0.9785 0.1700
C47A C 0.19253(13) 0.81904(18) 0.17388(7)
C47B C 0.18096(18) 0.37349(13) 0.17388(7)
C47O C 0.04016(13) 0.52586(13) 0.15945(7)
C47P C 0.47414(13) 0.51429(18) 0.15945(7)
C47Q C 0.48571(18) 0.95984(13) 0.15945(7)
C48A C 0.22131(14) 0.81889(20) 0.19416(7)
C48B C 0.18111(20) 0.40242(14) 0.19416(7)
C48O C 0.06909(14) 0.55464(14) 0.13917(7)
C48P C 0.44536(14) 0.51444(20) 0.13917(7)
C48Q C 0.48556(20) 0.93091(14) 0.13917(7)
H39A H 0.2101 0.7873 0.2031
H39B H 0.2127 0.4228 0.2031
H39O H 0.0895 0.5434 0.1302
H39P H 0.4566 0.5460 0.1302
H39Q H 0.4540 0.9105 0.1302
C49A C 0.26762(14) 0.86559(21) 0.20187(7)
C49B C 0.13441(21) 0.40203(15) 0.20187(7)
C49O C 0.06870(15) 0.60095(14) 0.13146(7)
C49P C 0.39905(14) 0.46774(21) 0.13146(7)
C49Q C 0.53226(21) 0.93130(15) 0.13146(7)
H40A H 0.2865 0.8644 0.2158
H40B H 0.1356 0.4221 0.2158
H40O H 0.0888 0.6198 0.1175
H40P H 0.3802 0.4689 0.1175
H40Q H 0.5311 0.9112 0.1175
C50A C 0.28496(14) 0.91182(20) 0.18949(7)
C50B C 0.08818(20) 0.37314(14) 0.18949(7)
C50O C 0.03981(14) 0.61829(14) 0.14384(7)
C50P C 0.38171(14) 0.42151(20) 0.14384(7)
C50Q C 0.57849(20) 0.96019(14) 0.14384(7)
H41A H 0.3148 0.9427 0.1953
H41B H 0.0573 0.3721 0.1953
H41O H 0.0388 0.6481 0.1380
H41P H 0.3519 0.3906 0.1380
H41Q H 0.6094 0.9612 0.1380
C51A C 0.25779(14) 0.91377(19) 0.16749(7)
C51B C 0.08623(19) 0.34402(13) 0.16749(7)
C51O C 0.01069(13) 0.59112(14) 0.16584(7)
C51P C 0.40888(14) 0.41956(19) 0.16584(7)
C51Q C 0.58044(19) 0.98931(13) 0.16584(7)
C52A C 0.21112(14) 0.86686(19) 0.15967(6)
C52B C 0.13314(19) 0.34426(13) 0.15967(6)
C52O C 0.01093(13) 0.54445(14) 0.17366(6)
C52P C 0.45555(14) 0.46647(19) 0.17366(6)
C52Q C 0.53353(19) 0.98907(13) 0.17366(6)
C53A C 0.18374(15) 0.86885(21) 0.13753(7)
C53B C 0.13115(21) 0.31489(15) 0.13753(7)
C53O C -0.01844(15) 0.51707(15) 0.19580(7)
C53P C 0.48293(15) 0.46448(21) 0.19580(7)
C53Q C 0.53552(21) 1.01844(15) 0.19580(7)
H42A H 0.1526 0.8387 0.1323
H42B H 0.1613 0.3139 0.1323
H42O H -0.0194 0.4859 0.2010
H42P H 0.5141 0.4946 0.2010
H42Q H 0.5054 1.0194 0.2010
C54A C 0.20359(17) 0.91517(23) 0.12425(8)
C54B C 0.08483(23) 0.28842(16) 0.12425(8)
C54O C -0.04491(16) 0.53692(17) 0.20908(8)
C54P C 0.46308(17) 0.41816(23) 0.20908(8)
C54Q C 0.58184(23) 1.04491(16) 0.20908(8)
H43A H 0.1861 0.9160 0.1097
H43B H 0.0840 0.2701 0.1097
H43O H -0.0632 0.5194 0.2236
H43P H 0.4806 0.4173 0.2236
H43Q H 0.5827 1.0632 0.2236
C55A C 0.24972(16) 0.96156(22) 0.13203(8)
C55B C 0.03844(22) 0.28816(15) 0.13203(8)
C55O C -0.04517(15) 0.58305(16) 0.20130(8)
C55P C 0.41695(16) 0.37177(22) 0.20130(8)
C55Q C 0.62823(22) 1.04517(15) 0.20130(8)
H44A H 0.2619 0.9930 0.1229
H44B H 0.0070 0.2689 0.1229
H44O H -0.0644 0.5952 0.2104
H44P H 0.4048 0.3403 0.2104
H44Q H 0.6597 1.0644 0.2104
C56A C 0.27726(15) 0.96117(21) 0.15312(7)
C56B C 0.03883(21) 0.31609(14) 0.15312(7)
C56O C -0.01724(14) 0.61059(15) 0.18021(7)
C56P C 0.38941(15) 0.37216(21) 0.18021(7)
C56Q C 0.62784(21) 1.01724(14) 0.18021(7)
Cl1 Cl 0.78793(5) 0.73229(6) 0.22017(3)
O1 O 0.73390(16) 0.7204(2) 0.21973(10)
O2 O 0.8174(2) 0.77705(19) 0.23445(10)
O3 O 0.78769(18) 0.68643(19) 0.23021(14)
O4 O 0.8072(2) 0.7396(3) 0.19555(10)
Cl2 Cl 0.69848(8) 0.93074(13) 0.33479(4)
O5 O 0.71948(16) 0.8986(2) 0.32208(9)
O6 O 0.6944(3) 0.9644(3) 0.31723(11)
O7 O 0.6447(2) 0.8925(4) 0.34321(11)
O8 O 0.73110(19) 0.9574(2) 0.35671(9)
Cl3 Cl 0.39587(7) 0.87522(12) 0.23356(4)
O9 O 0.3742(3) 0.8450(4) 0.20972(12)
O10 O 0.4227(2) 0.8502(3) 0.24435(13)
O11 O 0.4314(2) 0.9282(3) 0.22894(15)
O12 O 0.35313(17) 0.8665(2) 0.24945(10)
C57 C 0.6289(6) 0.6304(6) 0.24649(19)
H45 H 0.6391 0.6168 0.2606
H46 H 0.5948 0.6274 0.2497
H47 H 0.6552 0.6672 0.2438
C58 C 0.6252(5) 0.5995(5) 0.22406(18)
N13 N 0.6253(3) 0.5767(3) 0.20614(15)
O13 O 0.3333 0.6667 0.23352(11)
loop_
_geom_bond_atom_site_label_1
_geom_bond_atom_site_label_2
_geom_bond_site_symmetry_1
_geom_bond_site_symmetry_2
Co1 N1 1_555 1_555
Co2 N4 1_555 1_555
N1 C1 1_555 1_555
C1 C2 1_555 1_555
C2 H1 1_555 1_555
C3 C2 1_555 1_555
H2 C3 1_555 1_555
C4 C3 1_555 1_555
H3 C4 1_555 1_555
C5 N1 1_555 1_555
H4 C5 1_555 1_555
N2 N3 1_555 1_555
N3 Co1 1_555 1_555
C6 C1 1_555 1_555
C7 C6 1_555 1_555
H5 C7 1_555 1_555
C8 N2 1_555 1_555
H6 C8 1_555 1_555
C9 N2 1_555 1_555
H7 C9 1_555 1_555
H8 C9 1_555 1_555
N4 C10 1_555 1_555
C10 C11 1_555 1_555
C11 H9 1_555 1_555
C12 C11 1_555 1_555
H10 C12 1_555 1_555
C13 C12 1_555 1_555
H11 C13 1_555 1_555
C14 N4 1_555 1_555
H12 C14 1_555 1_555
N5 N6 1_555 1_555
N6 Co2 1_555 1_555
C15 C10 1_555 1_555
C16 C15 1_555 1_555
H13 C16 1_555 1_555
C17 N5 1_555 1_555
H14 C17 1_555 1_555
C18 N5 1_555 1_555
H15 C18 1_555 1_555
H16 C18 1_555 1_555
C19 C9 1_555 1_555
C20 C19 1_555 1_555
H17 C20 1_555 1_555
C21 C20 1_555 1_555
H18 C21 1_555 1_555
C22 C21 1_555 1_555
H19 C22 1_555 1_555
C23 C22 1_555 1_555
C24 C19 1_555 1_555
C25 C24 1_555 1_555
H20 C25 1_555 1_555
C26 C25 1_555 1_555
H21 C26 1_555 1_555
C27 C26 1_555 1_555
H22 C27 1_555 1_555
C28 C18 1_555 1_555
N7 Co1 1_555 1_555
C29 N7 1_555 1_555
C30 C29 1_555 1_555
H23 C30 1_555 1_555
C31 C30 1_555 1_555
H24 C31 1_555 1_555
C32 C31 1_555 1_555
H25 C32 1_555 1_555
C33 N7 1_555 1_555
H26 C33 1_555 1_555
N8 N9 1_555 1_555
N9 Co1 1_555 1_555
C34 C29 1_555 1_555
C35 C34 1_555 1_555
H27 C35 1_555 1_555
C36 N8 1_555 1_555
H28 C36 1_555 1_555
C37 N8 1_555 1_555
H29 C37 1_555 1_555
H30 C37 1_555 1_555
N10 C38 1_555 1_555
C38 C39 1_555 1_555
C39 H31 1_555 1_555
C40 C39 1_555 1_555
H32 C40 1_555 1_555
C41 C40 1_555 1_555
H33 C41 1_555 1_555
C42 N10 1_555 1_555
H34 C42 1_555 1_555
N11 N12 1_555 1_555
N12 C43 1_555 1_555
C43 C38 1_555 1_555
C44 C43 1_555 1_555
H35 C44 1_555 1_555
C45 N11 1_555 1_555
H36 C45 1_555 1_555
C46 N11 1_555 1_555
H37 C46 1_555 1_555
H38 C46 1_555 1_555
C47 C37 1_555 1_555
C48 C47 1_555 1_555
H39 C48 1_555 1_555
C49 C48 1_555 1_555
H40 C49 1_555 1_555
C50 C49 1_555 1_555
H41 C50 1_555 1_555
C51 C50 1_555 1_555
C52 C47 1_555 1_555
C53 C52 1_555 1_555
H42 C53 1_555 1_555
C54 C53 1_555 1_555
H43 C54 1_555 1_555
C55 C54 1_555 1_555
H44 C55 1_555 1_555
C56 C46 1_555 1_555
Cl1 O1 1_555 1_555
O2 Cl1 1_555 1_555
O3 Cl1 1_555 1_555
O4 Cl1 1_555 1_555
Cl2 O5 1_555 1_555
O6 Cl2 1_555 1_555
O7 Cl2 1_555 1_555
O8 Cl2 1_555 1_555
Cl3 O9 1_555 1_555
O10 Cl3 1_555 1_555
O11 Cl3 1_555 1_555
O12 Cl3 1_555 1_555
C57 H45 1_555 1_555
H46 C57 1_555 1_555
H47 C57 1_555 1_555
C58 C57 1_555 1_555
N13 C58 1_555 1_555
Co1A N1A 1_555 1_555
Co1B N1B 1_555 1_555
Co1O N1O 1_555 1_555
Co1P N10 1_555 1_555
Co1Q N1Q 1_555 1_555
Co2O N4O 1_555 1_555
N1A C1A 1_555 1_555
N1B C1B 1_555 1_555
N1O C1O 1_555 1_555
N1P Co1P 1_555 1_555
N1Q C1Q 1_555 1_555
C1A C2A 1_555 1_555
C1B C2B 1_555 1_555
C1O C2O 1_555 1_555
C1P N1P 1_555 1_555
C1Q C2Q 1_555 1_555
C2A H1A 1_555 1_555
C2B H1B 1_555 1_555
C2O H1O 1_555 1_555
C2P C1P 1_555 1_555
C2Q H1Q 1_555 1_555
H1P C2P 1_555 1_555
C3A C2A 1_555 1_555
C3B C2B 1_555 1_555
C3O C2O 1_555 1_555
C3P C2P 1_555 1_555
C3Q C2Q 1_555 1_555
H2A C3A 1_555 1_555
H2B C3B 1_555 1_555
H2O C3O 1_555 1_555
H2P C3P 1_555 1_555
H2Q C3Q 1_555 1_555
C4A C3A 1_555 1_555
C4B C3B 1_555 1_555
C4O C3O 1_555 1_555
C4P C3P 1_555 1_555
C4Q C3Q 1_555 1_555
H3A C4A 1_555 1_555
H3B C4B 1_555 1_555
H3O C4O 1_555 1_555
H3P C4P 1_555 1_555
H3Q C4Q 1_555 1_555
C5A N1A 1_555 1_555
C5B N1B 1_555 1_555
C5O N1O 1_555 1_555
C5P N1P 1_555 1_555
C5Q N1Q 1_555 1_555
H4A C5A 1_555 1_555
H4B C5B 1_555 1_555
H4O C5O 1_555 1_555
H4P C5P 1_555 1_555
H4Q C5Q 1_555 1_555
N2A N3A 1_555 1_555
N2B N3B 1_555 1_555
N2O N3O 1_555 1_555
N2P N3P 1_555 1_555
N2Q N3Q 1_555 1_555
N3A Co1A 1_555 1_555
N3B Co1B 1_555 1_555
N3O Co1O 1_555 1_555
N3P Co1P 1_555 1_555
N3Q Co1Q 1_555 1_555
C6A C1A 1_555 1_555
C6B C1B 1_555 1_555
C6O C1O 1_555 1_555
C6P C1P 1_555 1_555
C6Q C1Q 1_555 1_555
C7A C6A 1_555 1_555
C7B C6B 1_555 1_555
C7O C6O 1_555 1_555
C7P C6P 1_555 1_555
C7Q C6Q 1_555 1_555
H5A C7A 1_555 1_555
H5B C7B 1_555 1_555
H5O C7O 1_555 1_555
H5P C7P 1_555 1_555
H5Q C7Q 1_555 1_555
C8A N2A 1_555 1_555
C8B N2B 1_555 1_555
C8O N2O 1_555 1_555
C8P N2P 1_555 1_555
C8Q N2Q 1_555 1_555
H6A C8A 1_555 1_555
H6B C8B 1_555 1_555
H6O C8O 1_555 1_555
H6P C8P 1_555 1_555
H6Q C8Q 1_555 1_555
C9A N2A 1_555 1_555
C9B N2B 1_555 1_555
C9O N2O 1_555 1_555
C9P N2P 1_555 1_555
C9Q N2Q 1_555 1_555
H7A C9A 1_555 1_555
H7B C9B 1_555 1_555
H7O C9O 1_555 1_555
H7P C9P 1_555 1_555
H7Q C9Q 1_555 1_555
H8A C9A 1_555 1_555
H8B C9B 1_555 1_555
H8O C9O 1_555 1_555
H8P C9P 1_555 1_555
H8Q C9Q 1_555 1_555
N4A Co2 1_555 1_555
N4B Co2 1_555 1_555
N4O C10O 1_555 1_555
N4P Co2O 1_555 1_555
N4Q Co2O 1_555 1_555
C10A N4A 1_555 1_555
C10B N4B 1_555 1_555
C10O C11O 1_555 1_555
C10P N4P 1_555 1_555
C10Q N4Q 1_555 1_555
C11A C10A 1_555 1_555
C11B C10B 1_555 1_555
C11O H9O 1_555 1_555
C11P C10P 1_555 1_555
C11Q C10Q 1_555 1_555
H9A C11A 1_555 1_555
H9B C11B 1_555 1_555
H9P C11P 1_555 1_555
H9Q C11Q 1_555 1_555
C12A C11A 1_555 1_555
C12B C11B 1_555 1_555
C12O C11O 1_555 1_555
C12P C11P 1_555 1_555
C12Q C11Q 1_555 1_555
H10A C12A 1_555 1_555
H10B C12B 1_555 1_555
H10O C12O 1_555 1_555
H10P C12P 1_555 1_555
H10Q C12Q 1_555 1_555
C13A C12A 1_555 1_555
C13B C12B 1_555 1_555
C13O C12O 1_555 1_555
C13P C12P 1_555 1_555
C13Q C12Q 1_555 1_555
H11A C13A 1_555 1_555
H11B C13B 1_555 1_555
H11O C13O 1_555 1_555
H11P C13P 1_555 1_555
H11Q C13Q 1_555 1_555
C14A N4A 1_555 1_555
C14B N4B 1_555 1_555
C14O N4O 1_555 1_555
C14P N4P 1_555 1_555
C14Q N4Q 1_555 1_555
H12A C14A 1_555 1_555
H12B C14B 1_555 1_555
H12O C14O 1_555 1_555
H12P C14P 1_555 1_555
H12Q C14Q 1_555 1_555
N5A N6A 1_555 1_555
N5B N6B 1_555 1_555
N5O N6O 1_555 1_555
N5P N6P 1_555 1_555
N5Q N6Q 1_555 1_555
N6A Co2 1_555 1_555
N6B Co2 1_555 1_555
N6O Co2O 1_555 1_555
N6P Co2O 1_555 1_555
N6Q Co2O 1_555 1_555
C15A C10A 1_555 1_555
C15B C10B 1_555 1_555
C15O C10O 1_555 1_555
C15P C10P 1_555 1_555
C15Q C10Q 1_555 1_555
C16A C15A 1_555 1_555
C16B C15B 1_555 1_555
C16O C15O 1_555 1_555
C16P C15P 1_555 1_555
C16Q C15Q 1_555 1_555
H13A C16A 1_555 1_555
H13B C16B 1_555 1_555
H13O C16O 1_555 1_555
H13P C16P 1_555 1_555
H13Q C16Q 1_555 1_555
C17A N5A 1_555 1_555
C17B N5B 1_555 1_555
C17O N5O 1_555 1_555
C17P N5P 1_555 1_555
C17Q N5Q 1_555 1_555
H14A C17A 1_555 1_555
H14B C17B 1_555 1_555
H14O C17O 1_555 1_555
H14P C17P 1_555 1_555
H14Q C17Q 1_555 1_555
C18A N5A 1_555 1_555
C18B N5B 1_555 1_555
C18O N5O 1_555 1_555
C18P N5P 1_555 1_555
C18Q N5Q 1_555 1_555
H15A C18A 1_555 1_555
H15B C18B 1_555 1_555
H15O C18O 1_555 1_555
H15P C18P 1_555 1_555
H15Q C18Q 1_555 1_555
H16A C18A 1_555 1_555
H16B C18B 1_555 1_555
H16O C18O 1_555 1_555
H16P C18P 1_555 1_555
H16Q C18Q 1_555 1_555
C19A C9A 1_555 1_555
C19B C9B 1_555 1_555
C19O C9O 1_555 1_555
C19P C9P 1_555 1_555
C19Q C9Q 1_555 1_555
C20A C19A 1_555 1_555
C20B C19B 1_555 1_555
C20O C19O 1_555 1_555
C20P C19P 1_555 1_555
C20Q C19Q 1_555 1_555
H17A C20A 1_555 1_555
H17B C20B 1_555 1_555
H17O C20O 1_555 1_555
H17P C20P 1_555 1_555
H17Q C20Q 1_555 1_555
C21A C20A 1_555 1_555
C21B C20B 1_555 1_555
C21O C20O 1_555 1_555
C21P C20P 1_555 1_555
C21Q C20Q 1_555 1_555
H18A C21A 1_555 1_555
H18B C21B 1_555 1_555
H18O C21O 1_555 1_555
H18P C21P 1_555 1_555
H18Q C21Q 1_555 1_555
C22A C21A 1_555 1_555
C22B C21B 1_555 1_555
C22O C21O 1_555 1_555
C22P C21P 1_555 1_555
C22Q C21Q 1_555 1_555
H19A C22A 1_555 1_555
H19B C22B 1_555 1_555
H19O C22O 1_555 1_555
H19P C22P 1_555 1_555
H19Q C22Q 1_555 1_555
C23A C22A 1_555 1_555
C23B C22B 1_555 1_555
C23O C22O 1_555 1_555
C23P C22P 1_555 1_555
C23Q C22Q 1_555 1_555
C24A C19A 1_555 1_555
C24B C19B 1_555 1_555
C24O C19O 1_555 1_555
C24P C19P 1_555 1_555
C24Q C19Q 1_555 1_555
C25A C24A 1_555 1_555
C25B C24B 1_555 1_555
C25O C24O 1_555 1_555
C25P C24P 1_555 1_555
C25Q C24Q 1_555 1_555
H20A C25A 1_555 1_555
H20B C25B 1_555 1_555
H20O C25O 1_555 1_555
H20P C25P 1_555 1_555
H20Q C25Q 1_555 1_555
C26A C25A 1_555 1_555
C26B C25B 1_555 1_555
C26O C25O 1_555 1_555
C26P C25P 1_555 1_555
C26Q C25Q 1_555 1_555
H21A C26A 1_555 1_555
H21B C26B 1_555 1_555
H21O C26O 1_555 1_555
H21P C26P 1_555 1_555
H21Q C26Q 1_555 1_555
C27A C26A 1_555 1_555
C27B C26B 1_555 1_555
C27O C26O 1_555 1_555
C27P C26P 1_555 1_555
C27Q C26Q 1_555 1_555
H22A C27A 1_555 1_555
H22B C27B 1_555 1_555
H22O C27O 1_555 1_555
H22P C27P 1_555 1_555
H22Q C27Q 1_555 1_555
C28A C18A 1_555 1_555
C28B C18B 1_555 1_555
C28O C18O 1_555 1_555
C28P C18P 1_555 1_555
C28Q C18Q 1_555 1_555
N7A Co1A 1_555 1_555
N7B Co1B 1_555 1_555
N7O Co1O 1_555 1_555
N7P Co1P 1_555 1_555
N7Q Co1Q 1_555 1_555
C29A N7A 1_555 1_555
C29B N7B 1_555 1_555
C29O N7O 1_555 1_555
C29P N7P 1_555 1_555
C29Q N7Q 1_555 1_555
C30A C29A 1_555 1_555
C30B C29B 1_555 1_555
C30O C29O 1_555 1_555
C30P C29P 1_555 1_555
C30Q C29Q 1_555 1_555
H23A C30A 1_555 1_555
H23B C30B 1_555 1_555
H23O C30O 1_555 1_555
H23P C30P 1_555 1_555
H23Q C30Q 1_555 1_555
C31A C30A 1_555 1_555
C31B C30B 1_555 1_555
C31O C30O 1_555 1_555
C31P C30P 1_555 1_555
C31Q C30Q 1_555 1_555
H24A C31A 1_555 1_555
H24B C31B 1_555 1_555
H24O C31O 1_555 1_555
H24P C31P 1_555 1_555
H24Q C31Q 1_555 1_555
C32A C31A 1_555 1_555
C32B C31B 1_555 1_555
C32O C31O 1_555 1_555
C32P C31P 1_555 1_555
C32Q C31Q 1_555 1_555
H25A C32A 1_555 1_555
H25B C32B 1_555 1_555
H25O C32O 1_555 1_555
H25P C32P 1_555 1_555
H25Q C32Q 1_555 1_555
C33A N7A 1_555 1_555
C33B N7B 1_555 1_555
C33O N7O 1_555 1_555
C33P N7P 1_555 1_555
C33Q N7Q 1_555 1_555
H26A C33A 1_555 1_555
H26B C33B 1_555 1_555
H26O C33O 1_555 1_555
H26P C33P 1_555 1_555
H26Q C33Q 1_555 1_555
N8A N9A 1_555 1_555
N8B N9B 1_555 1_555
N8O N9O 1_555 1_555
N8P N9P 1_555 1_555
N8Q N9Q 1_555 1_555
N9A Co1A 1_555 1_555
N9B Co1B 1_555 1_555
N9O Co1O 1_555 1_555
N9P Co1P 1_555 1_555
N9Q Co1Q 1_555 1_555
C34A C29A 1_555 1_555
C34B C29B 1_555 1_555
C34O C29O 1_555 1_555
C34P C29P 1_555 1_555
C34Q C29Q 1_555 1_555
C35A C34A 1_555 1_555
C35B C34B 1_555 1_555
C35O C34O 1_555 1_555
C35P C34P 1_555 1_555
C35Q C34Q 1_555 1_555
H27A C35A 1_555 1_555
H27B C35B 1_555 1_555
H27O C35O 1_555 1_555
H27P C35P 1_555 1_555
H27Q C35Q 1_555 1_555
C36A N8A 1_555 1_555
C36B N8B 1_555 1_555
C36O N8O 1_555 1_555
C36P N8P 1_555 1_555
C36Q N8Q 1_555 1_555
H28A C36A 1_555 1_555
H28B C36B 1_555 1_555
H28O C36O 1_555 1_555
H28P C36P 1_555 1_555
H28Q C36Q 1_555 1_555
C37A N8A 1_555 1_555
C37B N8B 1_555 1_555
C37O N8O 1_555 1_555
C37P N8P 1_555 1_555
C37Q N8Q 1_555 1_555
H29A C37A 1_555 1_555
H29B C37B 1_555 1_555
H29O C37O 1_555 1_555
H29P C37P 1_555 1_555
H29Q C37Q 1_555 1_555
H30A C37A 1_555 1_555
H30B C37B 1_555 1_555
H30O C37O 1_555 1_555
H30P C37P 1_555 1_555
H30Q C37Q 1_555 1_555
N10A Co1Q 1_555 1_555
N10B Co1O 1_555 1_555
N10O Co1A 1_555 1_555
N10P Co1B 1_555 1_555
N10Q Co1 1_555 1_555
C38A N10A 1_555 1_555
C38B N10B 1_555 1_555
C38O N10O 1_555 1_555
C38P N10P 1_555 1_555
C38Q N10Q 1_555 1_555
C39A C38A 1_555 1_555
C39B C38B 1_555 1_555
C39O C38O 1_555 1_555
C39P C38P 1_555 1_555
C39Q C38Q 1_555 1_555
H31A C39A 1_555 1_555
H31B C39B 1_555 1_555
H31O C39O 1_555 1_555
H31P C39P 1_555 1_555
H31Q C39Q 1_555 1_555
C40A C39A 1_555 1_555
C40B C39B 1_555 1_555
C40O C39O 1_555 1_555
C40P C39P 1_555 1_555
C40Q C39Q 1_555 1_555
H32A C40A 1_555 1_555
H32B C40B 1_555 1_555
H32O C40O 1_555 1_555
H32P C40P 1_555 1_555
H32Q C40Q 1_555 1_555
C41A C40A 1_555 1_555
C41B C40B 1_555 1_555
C41O C40O 1_555 1_555
C41P C40P 1_555 1_555
C41Q C40Q 1_555 1_555
H33A C41A 1_555 1_555
H33B C41B 1_555 1_555
H33O C41O 1_555 1_555
H33P C41P 1_555 1_555
H33Q C41Q 1_555 1_555
C42A N10A 1_555 1_555
C42B N10B 1_555 1_555
C42O N10O 1_555 1_555
C42P N10P 1_555 1_555
C42Q N10Q 1_555 1_555
H34A C42A 1_555 1_555
H34B C42B 1_555 1_555
H34O C42O 1_555 1_555
H34P C42P 1_555 1_555
H34Q C42Q 1_555 1_555
N11A N12A 1_555 1_555
N11B N12B 1_555 1_555
N11O N12O 1_555 1_555
N11P N12P 1_555 1_555
N11Q N12Q 1_555 1_555
N12A Co1Q 1_555 1_555
N12B Co1O 1_555 1_555
N12O Co1A 1_555 1_555
N12P Co1B 1_555 1_555
N12Q Co1 1_555 1_555
C43A C38A 1_555 1_555
C43B C38B 1_555 1_555
C43O C38O 1_555 1_555
C43P C38P 1_555 1_555
C43Q C38Q 1_555 1_555
C44A C43A 1_555 1_555
C44B C43B 1_555 1_555
C44O C43O 1_555 1_555
C44P C43P 1_555 1_555
C44Q C43Q 1_555 1_555
H35A C44A 1_555 1_555
H35B C44B 1_555 1_555
H35O C44O 1_555 1_555
H35P C44P 1_555 1_555
H35Q C44Q 1_555 1_555
C45A N11A 1_555 1_555
C45B N11B 1_555 1_555
C45O N11O 1_555 1_555
C45P N11P 1_555 1_555
C45Q N11Q 1_555 1_555
H36A C45A 1_555 1_555
H36B C45B 1_555 1_555
H36O C45O 1_555 1_555
H36P C45P 1_555 1_555
H36Q C45Q 1_555 1_555
C46A N11A 1_555 1_555
C46B N11B 1_555 1_555
C46O N11O 1_555 1_555
C46P N11P 1_555 1_555
C46Q N11Q 1_555 1_555
H37A C46A 1_555 1_555
H37B C46B 1_555 1_555
H37O C46O 1_555 1_555
H37P C46P 1_555 1_555
H37Q C46Q 1_555 1_555
H38A C46A 1_555 1_555
H38B C46B 1_555 1_555
H38O C46O 1_555 1_555
H38P C46P 1_555 1_555
H38Q C46Q 1_555 1_555
C47A C37A 1_555 1_555
C47B C37B 1_555 1_555
C47O C37O 1_555 1_555
C47P C37P 1_555 1_555
C47Q C37Q 1_555 1_555
C48A C47A 1_555 1_555
C48B C47B 1_555 1_555
C48O C47O 1_555 1_555
C48P C47P 1_555 1_555
C48Q C47Q 1_555 1_555
H39A C48A 1_555 1_555
H39B C48B 1_555 1_555
H39O C48O 1_555 1_555
H39P C48P 1_555 1_555
H39Q C48Q 1_555 1_555
C49A C48A 1_555 1_555
C49B C48B 1_555 1_555
C49O C48O 1_555 1_555
C49P C48P 1_555 1_555
C49Q C48Q 1_555 1_555
H40A C49A 1_555 1_555
H40B C49B 1_555 1_555
H40O C49O 1_555 1_555
H40P C49P 1_555 1_555
H40Q C49Q 1_555 1_555
C50A C49A 1_555 1_555
C50B C49B 1_555 1_555
C50O C49O 1_555 1_555
C50P C49P 1_555 1_555
C50Q C49Q 1_555 1_555
H41A C50A 1_555 1_555
H41B C50B 1_555 1_555
H41O C50O 1_555 1_555
H41P C50P 1_555 1_555
H41Q C50Q 1_555 1_555
C51A C50A 1_555 1_555
C51B C50B 1_555 1_555
C51O C50O 1_555 1_555
C51P C50P 1_555 1_555
C51Q C50Q 1_555 1_555
C52A C47A 1_555 1_555
C52B C47B 1_555 1_555
C52O C47O 1_555 1_555
C52P C47P 1_555 1_555
C52Q C47Q 1_555 1_555
C53A C52A 1_555 1_555
C53B C52B 1_555 1_555
C53O C52O 1_555 1_555
C53P C52P 1_555 1_555
C53Q C52Q 1_555 1_555
H42A C53A 1_555 1_555
H42B C53B 1_555 1_555
H42O C53O 1_555 1_555
H42P C53P 1_555 1_555
H42Q C53Q 1_555 1_555
C54A C53A 1_555 1_555
C54B C53B 1_555 1_555
C54O C53O 1_555 1_555
C54P C53P 1_555 1_555
C54Q C53Q 1_555 1_555
H43A C54A 1_555 1_555
H43B C54B 1_555 1_555
H43O C54O 1_555 1_555
H43P C54P 1_555 1_555
H43Q C54Q 1_555 1_555
C55A C54A 1_555 1_555
C55B C54B 1_555 1_555
C55O C54O 1_555 1_555
C55P C54P 1_555 1_555
C55Q C54Q 1_555 1_555
H44A C55A 1_555 1_555
H44B C55B 1_555 1_555
H44O C55O 1_555 1_555
H44P C55P 1_555 1_555
H44Q C55Q 1_555 1_555
C56A C46A 1_555 1_555
C56B C46B 1_555 1_555
C56O C46O 1_555 1_555
C56P C46P 1_555 1_555
C56Q C46Q 1_555 1_555
C4 C5 1_555 1_555
N3 C6 1_555 1_555
C7 C8 1_555 1_555
C13 C14 1_555 1_555
N6 C15 1_555 1_555
C16 C17 1_555 1_555
C23 C24 1_555 1_555
C23 C28 1_555 1_555
C27 C28 1_555 1_555
C32 C33 1_555 1_555
N9 C34 1_555 1_555
C35 C36 1_555 1_555
C41 C42 1_555 1_555
N12 Co1P 1_555 1_555
C44 C45 1_555 1_555
C51 C52 1_555 1_555
C51 C56 1_555 1_555
C55 C56 1_555 1_555
C4A C5A 1_555 1_555
C4B C5B 1_555 1_555
C4O C5O 1_555 1_555
C4P C5P 1_555 1_555
C4Q C5Q 1_555 1_555
N3A C6A 1_555 1_555
N3B C6B 1_555 1_555
N3O C6O 1_555 1_555
N3P C6P 1_555 1_555
N3Q C6Q 1_555 1_555
C7A C8A 1_555 1_555
C7B C8B 1_555 1_555
C7O C8O 1_555 1_555
C7P C8P 1_555 1_555
C7Q C8Q 1_555 1_555
C13A C14A 1_555 1_555
C13B C14B 1_555 1_555
C13O C14O 1_555 1_555
C13P C14P 1_555 1_555
C13Q C14Q 1_555 1_555
N6A C15A 1_555 1_555
N6B C15B 1_555 1_555
N6O C15O 1_555 1_555
N6P C15P 1_555 1_555
N6Q C15Q 1_555 1_555
C16A C17A 1_555 1_555
C16B C17B 1_555 1_555
C16O C17O 1_555 1_555
C16P C17P 1_555 1_555
C16Q C17Q 1_555 1_555
C23A C24A 1_555 1_555
C23A C28A 1_555 1_555
C23B C24B 1_555 1_555
C23B C28B 1_555 1_555
C23O C24O 1_555 1_555
C23O C28O 1_555 1_555
C23P C24P 1_555 1_555
C23P C28P 1_555 1_555
C23Q C24Q 1_555 1_555
C23Q C28Q 1_555 1_555
C27A C28A 1_555 1_555
C27B C28B 1_555 1_555
C27O C28O 1_555 1_555
C27P C28P 1_555 1_555
C27Q C28Q 1_555 1_555
C32A C33A 1_555 1_555
C32B C33B 1_555 1_555
C32O C33O 1_555 1_555
C32P C33P 1_555 1_555
C32Q C33Q 1_555 1_555
N9A C34A 1_555 1_555
N9B C34B 1_555 1_555
N9O C34O 1_555 1_555
N9P C34P 1_555 1_555
N9Q C34Q 1_555 1_555
C35A C36A 1_555 1_555
C35B C36B 1_555 1_555
C35O C36O 1_555 1_555
C35P C36P 1_555 1_555
C35Q C36Q 1_555 1_555
C41A C42A 1_555 1_555
C41B C42B 1_555 1_555
C41O C42O 1_555 1_555
C41P C42P 1_555 1_555
C41Q C42Q 1_555 1_555
N12A C43A 1_555 1_555
N12B C43B 1_555 1_555
N12O C43O 1_555 1_555
N12P C43P 1_555 1_555
N12Q C43Q 1_555 1_555
C44A C45A 1_555 1_555
C44B C45B 1_555 1_555
C44O C45O 1_555 1_555
C44P C45P 1_555 1_555
C44Q C45Q 1_555 1_555
C51A C52A 1_555 1_555
C51A C56A 1_555 1_555
C51B C52B 1_555 1_555
C51B C56B 1_555 1_555
C51O C52O 1_555 1_555
C51O C56O 1_555 1_555
C51P C52P 1_555 1_555
C51P C56P 1_555 1_555
C51Q C52Q 1_555 1_555
C51Q C56Q 1_555 1_555
C55A C56A 1_555 1_555
C55B C56B 1_555 1_555
C55O C56O 1_555 1_555
C55P C56P 1_555 1_555
C55Q C56Q 1_555 1_555

#END
