
#######################################################################
#
#                 Cambridge Crystallographic Data Centre
#                                CCDC 
#
#######################################################################
#
# If this CIF has been generated from an entry in the Cambridge 
# Structural Database, then it will include bibliographic, chemical, 
# crystal, experimental, refinement or atomic coordinate data resulting 
# from the CCDC's data processing and validation procedures.
#
#######################################################################

data_TASGAY
_chemical_formula_moiety         
'C336 H264 Co8 N72 16+,C7 H14 O1,16(B1 F4 1-),C1 H4 O1'
_chemical_name_systematic        
"dodecakis(\m-2,2'-[naphthalene-1,5-diylbis(methylene-1H-pyrazole-1,3-diyl)]dipyridine)-octa-cobalt(ii) hexadecakis(tetrafluoroborate) 2,4-dimethylpentan-3-one methanol unknown solvate"
_symmetry_cell_setting           monoclinic
_symmetry_space_group_name_H-M   'C 2/c'
_symmetry_Int_Tables_number      15
_space_group_name_Hall           '-C 2yn'
loop_
_symmetry_equiv_pos_site_id
_symmetry_equiv_pos_as_xyz
1 x,y,z
2 -x,y,1/2-z
3 1/2+x,1/2+y,z
4 1/2-x,1/2+y,1/2-z
5 -x,-y,-z
6 x,-y,1/2+z
7 1/2-x,1/2-y,-z
8 1/2+x,1/2-y,1/2+z
_cell_length_a                   32.9008(15)
_cell_length_b                   30.1251(13)
_cell_length_c                   39.7960(16)
_cell_angle_alpha                90
_cell_angle_beta                 96.327(2)
_cell_angle_gamma                90
_cell_volume                     39203.2
_exptl_crystal_colour            orange
_exptl_crystal_description       BLOCK
_cell_formula_units_Z            4
_chemical_properties_physical    ', Efflorescent'
_exptl_crystal_recrystallization_method methanol
loop_
_atom_site_label
_atom_site_type_symbol
_atom_site_fract_x
_atom_site_fract_y
_atom_site_fract_z
Co1 Co 0.09835(2) 0.51739(3) -0.63848(2)
Co2 Co -0.01305(2) 0.84216(3) -0.53570(2)
Co3 Co 0.14541(2) 0.78502(3) -0.27686(2)
Co4 Co 0.23376(3) 1.04255(4) -0.61584(2)
N1 N -0.03382(9) 0.90726(9) -0.55133(7)
C1 C -0.01854(9) 0.92285(11) -0.58032(7)
C2 C -0.03271(10) 0.96273(11) -0.59478(7)
H1 H -0.0223 0.9734 -0.6146
C3 C -0.06217(11) 0.98700(10) -0.58025(8)
H2 H -0.0719 1.0143 -0.5901
C4 C -0.07745(10) 0.97141(11) -0.55126(8)
H3 H -0.0976 0.9880 -0.5413
C5 C -0.06328(10) 0.93154(11) -0.53680(7)
H4 H -0.0737 0.9209 -0.5170
N2 N 0.02267(9) 0.85776(11) -0.57672(6)
N3 N 0.05212(10) 0.83751(10) -0.59532(8)
C6 C 0.05741(10) 0.86512(12) -0.62343(7)
H5 H 0.0753 0.8596 -0.6401
C7 C 0.03123(11) 0.90242(11) -0.62221(8)
H6 H 0.0286 0.9262 -0.6379
C8 C 0.00976(10) 0.89788(11) -0.59335(8)
C9 C 0.07079(17) 0.7979(2) -0.58636(14)
H7 H 0.0736 0.7953 -0.5614
H8 H 0.0987 0.7982 -0.5935
N4 N 0.11908(10) 0.46325(10) -0.60694(7)
C10 C 0.10278(10) 0.46199(11) -0.57618(8)
C11 C 0.11294(13) 0.42747(14) -0.55364(7)
H9 H 0.1018 0.4266 -0.5326
C12 C 0.13940(14) 0.39420(12) -0.56185(10)
H10 H 0.1463 0.3706 -0.5464
C13 C 0.15571(12) 0.39546(12) -0.59261(11)
H11 H 0.1738 0.3727 -0.5982
C14 C 0.14555(11) 0.42998(13) -0.61515(8)
H12 H 0.1567 0.4308 -0.6362
N5 N 0.06814(10) 0.52866(12) -0.59444(7)
N6 N 0.03718(10) 0.55627(11) -0.58350(8)
C15 C 0.02647(11) 0.53911(14) -0.55242(8)
H13 H 0.0065 0.5511 -0.5394
C16 C 0.05081(13) 0.50089(14) -0.54417(8)
H14 H 0.0500 0.4828 -0.5247
C17 C 0.07655(11) 0.49443(11) -0.57013(9)
C18 C 0.02334(17) 0.5945(2) -0.59973(14)
H15 H -0.0052 0.5998 -0.5952
H16 H 0.0232 0.5902 -0.6244
C19 C 0.04811(8) 0.75666(7) -0.60156(7)
C20 C 0.01472(9) 0.76144(8) -0.62591(7)
H17 H 0.0070 0.7901 -0.6343
C21 C -0.00730(8) 0.72430(10) -0.63802(6)
H18 H -0.0301 0.7276 -0.6547
C22 C 0.00405(7) 0.68238(9) -0.62577(6)
H19 H -0.0110 0.6570 -0.6340
C23 C 0.03744(6) 0.67760(7) -0.60141(5)
C24 C 0.05946(6) 0.71474(7) -0.58930(5)
C25 C 0.09285(7) 0.70996(9) -0.56494(6)
H20 H 0.1079 0.7353 -0.5567
C26 C 0.10420(8) 0.66803(10) -0.55269(7)
H21 H 0.1270 0.6648 -0.5360
C27 C 0.08218(9) 0.63090(8) -0.56480(7)
H22 H 0.0899 0.6022 -0.5564
C28 C 0.04879(8) 0.63568(7) -0.58915(7)
N7 N -0.05234(9) 0.83658(12) -0.49524(6)
C29 C -0.03711(8) 0.85699(12) -0.46514(7)
C30 C -0.05830(11) 0.85369(14) -0.43689(6)
H23 H -0.0479 0.8676 -0.4163
C31 C -0.09472(10) 0.82997(15) -0.43875(7)
H24 H -0.1092 0.8277 -0.4194
C32 C -0.10995(9) 0.80956(15) -0.46885(9)
H25 H -0.1348 0.7934 -0.4701
C33 C -0.08876(10) 0.81286(13) -0.49710(7)
H26 H -0.0992 0.7989 -0.5177
N8 N 0.02205(8) 0.86980(11) -0.49286(6)
N9 N 0.06116(8) 0.88962(12) -0.48540(7)
C34 C 0.06339(9) 0.90781(13) -0.45233(7)
H27 H 0.0861 0.9230 -0.4409
C35 C 0.02565(10) 0.89922(14) -0.43935(6)
H28 H 0.0187 0.9077 -0.4177
C36 C 0.00010(8) 0.87573(13) -0.46440(8)
C37 C 0.08968(15) 0.89065(19) -0.50807(13)
H29 H 0.0869 0.8632 -0.5218
H30 H 0.1173 0.8904 -0.4953
N10 N 0.27155(9) 1.03204(12) -0.65551(6)
C38 C 0.25337(8) 1.00711(13) -0.68248(8)
C39 C 0.27601(10) 0.99457(13) -0.70841(7)
H31 H 0.2636 0.9775 -0.7268
C40 C 0.31683(10) 1.00696(14) -0.70738(7)
H32 H 0.3323 0.9984 -0.7251
C41 C 0.33500(8) 1.03189(15) -0.68041(8)
H33 H 0.3629 1.0404 -0.6797
C42 C 0.31237(9) 1.04443(13) -0.65447(7)
H34 H 0.3248 1.0615 -0.6360
N11 N 0.19398(9) 1.00991(14) -0.65327(7)
N12 N 0.15164(9) 1.00014(17) -0.65993(8)
C43 C 0.14463(10) 0.9819(2) -0.69296(9)
H35 H 0.1190 0.9724 -0.7039
C44 C 0.18264(12) 0.98037(19) -0.70671(8)
H36 H 0.1869 0.9697 -0.7285
C45 C 0.21314(8) 0.99769(17) -0.68218(9)
C46 C 0.12512(18) 1.0040(3) -0.63516(17)
H37 H 0.0968 1.0065 -0.6464
H38 H 0.1315 1.0318 -0.6224
C47 C 0.08674(8) 0.93041(9) -0.53183(5)
C48 C 0.06153(8) 0.96610(10) -0.52631(6)
H39 H 0.0466 0.9662 -0.5072
C49 C 0.05815(8) 1.00158(9) -0.54877(7)
H40 H 0.0409 1.0260 -0.5450
C50 C 0.07998(8) 1.00138(8) -0.57675(7)
H41 H 0.0777 1.0256 -0.5921
C51 C 0.10519(6) 0.96569(8) -0.58227(5)
C52 C 0.10857(6) 0.93021(7) -0.55981(5)
C53 C 0.13378(8) 0.89452(8) -0.56533(7)
H42 H 0.1361 0.8703 -0.5500
C54 C 0.15561(9) 0.89432(10) -0.59332(8)
H43 H 0.1728 0.8699 -0.5971
C55 C 0.15223(9) 0.92980(12) -0.61578(7)
H44 H 0.1671 0.9297 -0.6349
C56 C 0.12702(9) 0.96549(10) -0.61026(6)
N13 N -0.05770(9) 0.81121(11) -0.57176(8)
C57 C -0.05752(10) 0.76509(11) -0.57062(8)
C58 C -0.08601(12) 0.74109(10) -0.59170(10)
H45 H -0.0859 0.7096 -0.5909
C59 C -0.11467(11) 0.76320(14) -0.61394(10)
H46 H -0.1341 0.7468 -0.6283
C60 C -0.11485(11) 0.80932(14) -0.61508(10)
H47 H -0.1344 0.8244 -0.6303
C61 C -0.08636(12) 0.83332(10) -0.59400(10)
H48 H -0.0865 0.8648 -0.5948
N14 N 0.00128(10) 0.77393(8) -0.52998(8)
N15 N 0.02933(9) 0.74606(11) -0.51019(7)
C62 C 0.01718(11) 0.70134(9) -0.51656(9)
H49 H 0.0305 0.6758 -0.5067
C63 C -0.01837(11) 0.70157(10) -0.54028(9)
H50 H -0.0330 0.6762 -0.5491
C64 C -0.02820(9) 0.74643(12) -0.54857(8)
C65 C 0.06021(18) 0.7621(2) -0.48747(13)
H51 H 0.0707 0.7900 -0.4966
H52 H 0.0829 0.7404 -0.4854
N16 N 0.18964(8) 0.82717(10) -0.24980(7)
C66 C 0.18728(9) 0.87169(11) -0.25901(7)
C67 C 0.21658(11) 0.90148(9) -0.24486(8)
H53 H 0.2150 0.9319 -0.2512
C68 C 0.24824(9) 0.88676(12) -0.22150(8)
H54 H 0.2683 0.9071 -0.2118
C69 C 0.25059(9) 0.84224(12) -0.21229(8)
H55 H 0.2722 0.8322 -0.1963
C70 C 0.22129(10) 0.81245(9) -0.22644(8)
H56 H 0.2229 0.7820 -0.2201
N17 N 0.13166(10) 0.84908(9) -0.29820(8)
N18 N 0.09957(9) 0.86915(11) -0.31975(8)
C71 C 0.10461(11) 0.91590(11) -0.31742(9)
H57 H 0.0874 0.9375 -0.3292
C72 C 0.13983(12) 0.92473(10) -0.29443(10)
H58 H 0.1504 0.9533 -0.2881
C73 C 0.15654(9) 0.88343(12) -0.28255(8)
C74 C 0.07116(16) 0.8446(2) -0.34036(13)
H59 H 0.0457 0.8621 -0.3447
H60 H 0.0646 0.8173 -0.3281
C75 C 0.04763(7) 0.77144(10) -0.45203(5)
C76 C 0.00983(7) 0.75672(10) -0.44402(6)
H61 H -0.0073 0.7397 -0.4599
C77 C -0.00286(6) 0.76687(11) -0.41274(7)
H62 H -0.0287 0.7568 -0.4073
C78 C 0.02225(6) 0.79174(11) -0.38947(6)
H63 H 0.0136 0.7987 -0.3681
C79 C 0.06004(5) 0.80645(8) -0.39749(4)
C80 C 0.07273(6) 0.79630(8) -0.42877(4)
C81 C 0.11053(6) 0.81102(11) -0.43679(6)
H64 H 0.1192 0.8041 -0.4582
C82 C 0.13564(6) 0.83588(11) -0.41352(7)
H65 H 0.1615 0.8459 -0.4190
C83 C 0.12295(7) 0.84603(10) -0.38224(7)
H66 H 0.1401 0.8630 -0.3663
C84 C 0.08515(7) 0.83132(10) -0.37422(5)
N19 N 0.07999(10) 0.57530(9) -0.66567(8)
C85 C 0.10365(9) 0.61271(11) -0.65718(7)
C86 C 0.09214(12) 0.65362(10) -0.67132(9)
H67 H 0.1083 0.6792 -0.6655
C87 C 0.05696(13) 0.65712(11) -0.69396(9)
H68 H 0.0491 0.6851 -0.7036
C88 C 0.03331(10) 0.61971(14) -0.70245(9)
H69 H 0.0093 0.6221 -0.7179
C89 C 0.04482(10) 0.57880(12) -0.68831(9)
H70 H 0.0287 0.5532 -0.6941
N20 N 0.14772(8) 0.56294(9) -0.62370(8)
N21 N 0.18641(9) 0.56455(10) -0.60402(8)
C90 C 0.20077(9) 0.60900(12) -0.60413(9)
H71 H 0.2259 0.6196 -0.5930
C91 C 0.17096(11) 0.63485(9) -0.62388(10)
H72 H 0.1727 0.6658 -0.6282
C92 C 0.13817(9) 0.60638(11) -0.63598(8)
C93 C 0.20278(16) 0.5296(2) -0.58465(13)
H73 H 0.2329 0.5322 -0.5821
H74 H 0.1956 0.5015 -0.5969
N22 N 0.29046(11) 0.39519(11) -0.36309(9)
C94 C 0.26732(10) 0.35809(14) -0.37354(9)
C95 C 0.28175(15) 0.31584(12) -0.36471(11)
H75 H 0.2659 0.2905 -0.3719
C96 C 0.31932(15) 0.31069(12) -0.34544(11)
H76 H 0.3292 0.2818 -0.3394
C97 C 0.34247(11) 0.34778(15) -0.33498(10)
H77 H 0.3682 0.3443 -0.3218
C98 C 0.32804(11) 0.39004(13) -0.34381(9)
H78 H 0.3439 0.4154 -0.3367
N23 N 0.22426(10) 0.40937(12) -0.40573(9)
N24 N 0.18474(11) 0.41003(12) -0.42411(9)
C99 C 0.16774(11) 0.36683(15) -0.42268(12)
H79 H 0.1416 0.3578 -0.4328
C100 C 0.19676(16) 0.33948(11) -0.40342(13)
H80 H 0.1934 0.3090 -0.3984
C101 C 0.23169(12) 0.36577(14) -0.39295(10)
C102 C 0.17122(19) 0.4460(2) -0.44361(13)
H81 H 0.1772 0.4734 -0.4302
H82 H 0.1412 0.4439 -0.4489
C103 C 0.18818(8) 0.52672(9) -0.54914(5)
C104 C 0.16208(9) 0.55947(8) -0.53947(7)
H83 H 0.1556 0.5844 -0.5537
C105 C 0.14546(9) 0.55580(9) -0.50895(7)
H84 H 0.1276 0.5782 -0.5023
C106 C 0.15495(8) 0.51938(9) -0.48811(6)
H85 H 0.1436 0.5169 -0.4673
C107 C 0.18106(6) 0.48663(7) -0.49778(4)
C108 C 0.19767(6) 0.49030(7) -0.52829(4)
C109 C 0.22378(8) 0.45755(9) -0.53797(6)
H86 H 0.2351 0.4601 -0.5588
C110 C 0.23327(10) 0.42113(9) -0.51712(7)
H87 H 0.2511 0.3987 -0.5237
C111 C 0.21666(10) 0.41746(9) -0.48661(7)
H88 H 0.2231 0.3926 -0.4724
C112 C 0.19055(9) 0.45021(9) -0.47694(6)
N25 N 0.19938(11) 1.04563(13) -0.57330(7)
C113 C 0.20517(11) 1.00950(12) -0.55157(8)
C114 C 0.18686(13) 1.00886(13) -0.52172(8)
H89 H 0.1908 0.9842 -0.5069
C115 C 0.16278(13) 1.04435(16) -0.51359(8)
H90 H 0.1503 1.0439 -0.4932
C116 C 0.15700(14) 1.08048(14) -0.53531(10)
H91 H 0.1405 1.1047 -0.5298
C117 C 0.17530(14) 1.08112(13) -0.56517(10)
H92 H 0.1713 1.1058 -0.5800
N26 N 0.25326(10) 0.98359(11) -0.58781(7)
N27 N 0.28047(10) 0.94709(12) -0.58848(8)
C118 C 0.27552(12) 0.91961(12) -0.56022(10)
H93 H 0.2899 0.8929 -0.5545
C119 C 0.24525(12) 0.93912(15) -0.54209(8)
H94 H 0.2359 0.9277 -0.5221
C120 C 0.23149(10) 0.97866(13) -0.55914(8)
C121 C 0.30514(17) 0.9384(2) -0.61354(14)
H95 H 0.3306 0.9242 -0.6032
H96 H 0.3127 0.9669 -0.6235
N28 N 0.40089(10) 0.70104(14) -0.75767(7)
C122 C 0.40169(12) 0.73183(12) -0.78361(9)
C123 C 0.42860(14) 0.72621(15) -0.80786(9)
H97 H 0.4291 0.7472 -0.8256
C124 C 0.45470(13) 0.68980(18) -0.80618(9)
H98 H 0.4731 0.6860 -0.8228
C125 C 0.45390(13) 0.65902(16) -0.78024(11)
H99 H 0.4717 0.6341 -0.7791
C126 C 0.42700(13) 0.66464(14) -0.75599(9)
H100 H 0.4265 0.6436 -0.7383
N29 N 0.34619(11) 0.76637(12) -0.75931(7)
N30 N 0.31949(10) 0.80294(13) -0.76682(8)
C127 C 0.33064(14) 0.82390(12) -0.79642(9)
H101 H 0.3179 0.8493 -0.8071
C128 C 0.36423(13) 0.80029(15) -0.80721(8)
H102 H 0.3779 0.8071 -0.8264
C129 C 0.37384(11) 0.76473(13) -0.78428(9)
C130 C 0.29281(18) 0.8170(2) -0.74471(14)
H103 H 0.2821 0.7907 -0.7337
H104 H 0.2694 0.8320 -0.7577
C131 C 0.28553(8) 0.90841(10) -0.64187(6)
C132 C 0.24497(7) 0.89568(12) -0.64151(7)
H105 H 0.2297 0.9063 -0.6243
C133 C 0.22680(6) 0.86737(12) -0.66635(8)
H106 H 0.1991 0.8587 -0.6661
C134 C 0.24919(6) 0.85179(11) -0.69156(7)
H107 H 0.2368 0.8324 -0.7085
C135 C 0.28975(6) 0.86452(8) -0.69192(5)
C136 C 0.30792(6) 0.89283(8) -0.66708(5)
C137 C 0.34848(6) 0.90556(11) -0.66744(7)
H108 H 0.3609 0.9249 -0.6505
C138 C 0.37086(6) 0.88998(12) -0.69265(7)
H109 H 0.3986 0.8987 -0.6929
C139 C 0.35270(8) 0.86167(12) -0.71749(7)
H110 H 0.3680 0.8510 -0.7347
C140 C 0.31214(8) 0.84894(10) -0.71713(6)
N31 N 0.10632(9) 0.74431(12) -0.31014(7)
C141 C 0.12344(8) 0.72900(13) -0.33838(7)
C142 C 0.10061(11) 0.70239(14) -0.36195(7)
H111 H 0.1123 0.6919 -0.3813
C143 C 0.06066(11) 0.69108(14) -0.35729(8)
H112 H 0.0451 0.6729 -0.3734
C144 C 0.04353(9) 0.70639(16) -0.32906(9)
H113 H 0.0162 0.6987 -0.3259
C145 C 0.06636(9) 0.73300(14) -0.30548(7)
H114 H 0.0547 0.7435 -0.2862
N32 N 0.18532(9) 0.76348(12) -0.31405(7)
N33 N 0.22627(8) 0.76725(12) -0.32185(7)
C146 C 0.22903(9) 0.74550(15) -0.35318(8)
H115 H 0.2529 0.7429 -0.3644
C147 C 0.18979(11) 0.72828(14) -0.36473(7)
H116 H 0.1828 0.7122 -0.3851
C148 C 0.16278(8) 0.73940(14) -0.34055(8)
C149 C 0.25586(15) 0.79270(19) -0.30427(13)
H117 H 0.2830 0.7806 -0.3079
H118 H 0.2529 0.7904 -0.2798
N34 N 0.45416(10) 1.02252(13) -0.34153(9)
C150 C 0.44702(10) 1.04891(15) -0.31413(10)
C151 C 0.47653(12) 1.07903(17) -0.30087(11)
H119 H 0.4717 1.0971 -0.2821
C152 C 0.51318(12) 1.08277(18) -0.31499(14)
H120 H 0.5334 1.1034 -0.3059
C153 C 0.52032(11) 1.05638(19) -0.34239(13)
H121 H 0.5454 1.0589 -0.3520
C154 C 0.49081(11) 1.02626(16) -0.35566(11)
H122 H 0.4957 1.0082 -0.3744
N35 N 0.38183(9) 1.01440(11) -0.31835(7)
N36 N 0.34473(8) 1.01958(11) -0.30361(8)
C155 C 0.35042(10) 1.05398(13) -0.27915(8)
H123 H 0.3305 1.0644 -0.2654
C156 C 0.39104(11) 1.07006(12) -0.27877(9)
H124 H 0.4031 1.0931 -0.2648
C157 C 0.41045(8) 1.04560(13) -0.30300(9)
C158 C 0.31097(16) 0.9939(2) -0.31321(13)
H125 H 0.3068 0.9929 -0.3382
H126 H 0.2868 1.0086 -0.3055
C159 C 0.25441(7) 0.84216(7) -0.31441(7)
C160 C 0.22172(7) 0.85651(10) -0.33689(7)
H127 H 0.2010 0.8361 -0.3453
C161 C 0.21932(6) 0.90066(10) -0.34706(7)
H128 H 0.1970 0.9105 -0.3624
C162 C 0.24961(7) 0.93046(8) -0.33474(6)
H129 H 0.2480 0.9606 -0.3417
C163 C 0.28230(6) 0.91612(7) -0.31226(5)
C164 C 0.28470(5) 0.87197(7) -0.30209(5)
C165 C 0.31739(7) 0.85762(8) -0.27960(6)
H130 H 0.3190 0.8274 -0.2727
C166 C 0.34768(6) 0.88742(10) -0.26728(6)
H131 H 0.3700 0.8776 -0.2519
C167 C 0.34528(7) 0.93158(9) -0.27745(7)
H132 H 0.3660 0.9519 -0.2690
C168 C 0.31259(7) 0.94592(7) -0.29994(7)
Co1F Co 0.40165(2) 0.98261(3) -0.36152(2)
Co2F Co 0.51305(2) 0.65784(3) -0.46430(2)
Co3F Co 0.35459(2) 0.71498(3) -0.72314(2)
Co4F Co 0.26624(3) 0.45745(4) -0.38416(2)
N1F N 0.53382(9) 0.59274(9) -0.44867(7)
C1F C 0.51854(9) 0.57715(11) -0.41968(7)
C2F C 0.53271(10) 0.53727(11) -0.40522(7)
H1F H 0.5223 0.5266 -0.3854
C3F C 0.56217(11) 0.51300(10) -0.41975(8)
H2F H 0.5719 0.4857 -0.4099
C4F C 0.57745(10) 0.52859(11) -0.44874(8)
H3F H 0.5976 0.5120 -0.4587
C5F C 0.56328(10) 0.56846(11) -0.46320(7)
H4F H 0.5737 0.5791 -0.4830
N2F N 0.47733(9) 0.64224(11) -0.42328(6)
N3F N 0.44788(10) 0.66249(10) -0.40468(8)
C6F C 0.44259(10) 0.63488(12) -0.37657(7)
H5F H 0.4247 0.6404 -0.3599
C7F C 0.46877(11) 0.59758(11) -0.37779(8)
H6F H 0.4714 0.5738 -0.3621
C8F C 0.49024(10) 0.60212(11) -0.40665(8)
C9F C 0.42921(17) 0.7021(2) -0.41364(14)
H7F H 0.4264 0.7047 -0.4386
H8F H 0.4013 0.7018 -0.4065
N4F N 0.38092(10) 1.03675(10) -0.39306(7)
C10F C 0.39722(10) 1.03801(11) -0.42382(8)
C11F C 0.38706(13) 1.07253(14) -0.44636(7)
H9F H 0.3982 1.0734 -0.4674
C12F C 0.36060(14) 1.10580(12) -0.43815(10)
H10F H 0.3537 1.1294 -0.4536
C13F C 0.34429(12) 1.10454(12) -0.40739(11)
H11F H 0.3262 1.1273 -0.4018
C14F C 0.35445(11) 1.07002(13) -0.38485(8)
H12F H 0.3433 1.0692 -0.3638
N5F N 0.43186(10) 0.97134(12) -0.40556(7)
N6F N 0.46282(10) 0.94373(11) -0.41650(8)
C15F C 0.47353(11) 0.96089(14) -0.44758(8)
H13F H 0.4935 0.9489 -0.4606
C16F C 0.44919(13) 0.99911(14) -0.45583(8)
H14F H 0.4500 1.0172 -0.4753
C17F C 0.42345(11) 1.00557(11) -0.42987(9)
C18F C 0.47666(17) 0.9055(2) -0.40027(14)
H15F H 0.5052 0.9002 -0.4048
H16F H 0.4768 0.9098 -0.3756
C19F C 0.45189(8) 0.74334(7) -0.39844(7)
C20F C 0.48528(9) 0.73856(8) -0.37409(7)
H17F H 0.4930 0.7099 -0.3657
C21F C 0.50730(8) 0.77570(10) -0.36198(6)
H18F H 0.5301 0.7724 -0.3453
C22F C 0.49595(7) 0.81762(9) -0.37423(6)
H19F H 0.5110 0.8430 -0.3660
C23F C 0.46256(6) 0.82240(7) -0.39859(5)
C24F C 0.44054(6) 0.78526(7) -0.41070(5)
C25F C 0.40715(7) 0.79004(9) -0.43506(6)
H20F H 0.3921 0.7647 -0.4433
C26F C 0.39580(8) 0.83197(10) -0.44731(7)
H21F H 0.3730 0.8352 -0.4640
C27F C 0.41782(9) 0.86910(8) -0.43520(7)
H22F H 0.4101 0.8978 -0.4436
C28F C 0.45121(8) 0.86432(7) -0.41085(7)
N7F N 0.55234(9) 0.66342(12) -0.50476(6)
C29F C 0.53711(8) 0.64301(12) -0.53486(7)
C30F C 0.55830(11) 0.64631(14) -0.56311(6)
H23F H 0.5479 0.6324 -0.5837
C31F C 0.59472(10) 0.67003(15) -0.56125(7)
H24F H 0.6092 0.6723 -0.5806
C32F C 0.60995(9) 0.69044(15) -0.53115(9)
H25F H 0.6348 0.7066 -0.5299
C33F C 0.58876(10) 0.68714(13) -0.50290(7)
H26F H 0.5992 0.7011 -0.4823
N8F N 0.47795(8) 0.63020(11) -0.50714(6)
N9F N 0.43884(8) 0.61038(12) -0.51460(7)
C34F C 0.43661(9) 0.59219(13) -0.54767(7)
H27F H 0.4139 0.5770 -0.5591
C35F C 0.47435(10) 0.60078(14) -0.56065(6)
H28F H 0.4813 0.5923 -0.5823
C36F C 0.49990(8) 0.62427(13) -0.53560(8)
C37F C 0.41032(15) 0.60935(19) -0.49193(13)
H29F H 0.4131 0.6368 -0.4782
H30F H 0.3827 0.6096 -0.5047
N10F N 0.22845(9) 0.46796(12) -0.34449(6)
C38F C 0.24663(8) 0.49289(13) -0.31752(8)
C39F C 0.22399(10) 0.50543(13) -0.29159(7)
H31F H 0.2364 0.5225 -0.2732
C40F C 0.18317(10) 0.49304(14) -0.29262(7)
H32F H 0.1677 0.5016 -0.2749
C41F C 0.16500(8) 0.46811(15) -0.31959(8)
H33F H 0.1371 0.4596 -0.3203
C42F C 0.18763(9) 0.45557(13) -0.34553(7)
H34F H 0.1752 0.4385 -0.3640
N11F N 0.30602(9) 0.49009(14) -0.34673(7)
N12F N 0.34836(9) 0.49986(17) -0.34007(8)
C43F C 0.35537(10) 0.5181(2) -0.30704(9)
H35F H 0.3810 0.5276 -0.2961
C44F C 0.31736(12) 0.51963(19) -0.29329(8)
H36F H 0.3131 0.5303 -0.2715
C45F C 0.28686(8) 0.50231(17) -0.31782(9)
C46F C 0.37488(18) 0.4960(3) -0.36484(17)
H37F H 0.4032 0.4935 -0.3536
H38F H 0.3685 0.4682 -0.3776
C47F C 0.41326(8) 0.56959(9) -0.46817(5)
C48F C 0.43847(8) 0.53390(10) -0.47369(6)
H39F H 0.4534 0.5338 -0.4928
C49F C 0.44185(8) 0.49842(9) -0.45123(7)
H40F H 0.4591 0.4740 -0.4550
C50F C 0.42002(8) 0.49862(8) -0.42325(7)
H41F H 0.4223 0.4744 -0.4079
C51F C 0.39481(6) 0.53431(8) -0.41773(5)
C52F C 0.39143(6) 0.56979(7) -0.44019(5)
C53F C 0.36622(8) 0.60548(8) -0.43467(7)
H42F H 0.3639 0.6297 -0.4500
C54F C 0.34439(9) 0.60568(10) -0.40668(8)
H43F H 0.3272 0.6301 -0.4029
C55F C 0.34777(9) 0.57020(12) -0.38422(7)
H44F H 0.3329 0.5703 -0.3651
C56F C 0.37298(9) 0.53451(10) -0.38974(6)
N13F N 0.55770(9) 0.68879(11) -0.42824(8)
C57F C 0.55752(10) 0.73491(11) -0.42938(8)
C58F C 0.58601(12) 0.75891(10) -0.40830(10)
H45F H 0.5859 0.7904 -0.4091
C59F C 0.61467(11) 0.73680(14) -0.38606(10)
H46F H 0.6341 0.7532 -0.3717
C60F C 0.61485(11) 0.69068(14) -0.38492(10)
H47F H 0.6344 0.6756 -0.3697
C61F C 0.58636(12) 0.66668(10) -0.40600(10)
H48F H 0.5865 0.6352 -0.4052
N14F N 0.49872(10) 0.72607(8) -0.47002(8)
N15F N 0.47067(9) 0.75394(11) -0.48981(7)
C62F C 0.48282(11) 0.79866(9) -0.48344(9)
H49F H 0.4695 0.8242 -0.4933
C63F C 0.51837(11) 0.79843(10) -0.45972(9)
H50F H 0.5330 0.8238 -0.4509
C64F C 0.52820(9) 0.75357(12) -0.45143(8)
C65F C 0.43979(18) 0.7379(2) -0.51253(13)
H51F H 0.4293 0.7100 -0.5034
H52F H 0.4171 0.7596 -0.5146
N16F N 0.31036(8) 0.67283(10) -0.75020(7)
C66F C 0.31272(9) 0.62831(11) -0.74099(7)
C67F C 0.28342(11) 0.59852(9) -0.75514(8)
H53F H 0.2850 0.5681 -0.7488
C68F C 0.25176(9) 0.61324(12) -0.77850(8)
H54F H 0.2317 0.5929 -0.7882
C69F C 0.24941(9) 0.65776(12) -0.78771(8)
H55F H 0.2278 0.6678 -0.8037
C70F C 0.27871(10) 0.68755(9) -0.77356(8)
H56F H 0.2771 0.7180 -0.7799
N17F N 0.36834(10) 0.65092(9) -0.70180(8)
N18F N 0.40043(9) 0.63085(11) -0.68025(8)
C71F C 0.39539(11) 0.58410(11) -0.68258(9)
H57F H 0.4126 0.5625 -0.6708
C72F C 0.36017(12) 0.57527(10) -0.70557(10)
H58F H 0.3496 0.5467 -0.7119
C73F C 0.34346(9) 0.61657(12) -0.71745(8)
C74F C 0.42884(16) 0.6554(2) -0.65964(13)
H59F H 0.4543 0.6379 -0.6553
H60F H 0.4354 0.6827 -0.6719
C75F C 0.45237(7) 0.72856(10) -0.54797(5)
C76F C 0.49017(7) 0.74328(10) -0.55598(6)
H61F H 0.5073 0.7603 -0.5401
C77F C 0.50286(6) 0.73313(11) -0.58726(7)
H62F H 0.5287 0.7432 -0.5927
C78F C 0.47775(6) 0.70826(11) -0.61053(6)
H63F H 0.4864 0.7013 -0.6319
C79F C 0.43996(5) 0.69355(8) -0.60251(4)
C80F C 0.42727(6) 0.70370(8) -0.57123(4)
C81F C 0.38947(6) 0.68898(11) -0.56321(6)
H64F H 0.3808 0.6959 -0.5418
C82F C 0.36436(6) 0.66412(11) -0.58648(7)
H65F H 0.3385 0.6541 -0.5810
C83F C 0.37705(7) 0.65397(10) -0.61776(7)
H66F H 0.3599 0.6370 -0.6337
C84F C 0.41485(7) 0.66868(10) -0.62578(5)
N19F N 0.42001(10) 0.92470(9) -0.33433(8)
C85F C 0.39635(9) 0.88729(11) -0.34282(7)
C86F C 0.40786(12) 0.84638(10) -0.32868(9)
H67F H 0.3917 0.8208 -0.3345
C87F C 0.44304(13) 0.84288(11) -0.30604(9)
H68F H 0.4509 0.8149 -0.2964
C88F C 0.46669(10) 0.88029(14) -0.29755(9)
H69F H 0.4907 0.8779 -0.2821
C89F C 0.45518(10) 0.92120(12) -0.31169(9)
H70F H 0.4713 0.9468 -0.3059
N20F N 0.35228(8) 0.93706(9) -0.37630(8)
N21F N 0.31359(9) 0.93545(10) -0.39598(8)
C90F C 0.29923(9) 0.89100(12) -0.39587(9)
H71F H 0.2741 0.8804 -0.4070
C91F C 0.32904(11) 0.86515(9) -0.37612(10)
H72F H 0.3273 0.8342 -0.3718
C92F C 0.36183(9) 0.89362(11) -0.36402(8)
C93F C 0.29722(16) 0.9704(2) -0.41535(13)
H73F H 0.2671 0.9678 -0.4179
H74F H 0.3044 0.9985 -0.4031
N22F N 0.20954(11) 1.10481(11) -0.63691(9)
C94F C 0.23268(10) 1.14191(14) -0.62646(9)
C95F C 0.21825(15) 1.18416(12) -0.63529(11)
H75F H 0.2341 1.2095 -0.6281
C96F C 0.18068(15) 1.18931(12) -0.65456(11)
H76F H 0.1708 1.2182 -0.6606
C97F C 0.15753(11) 1.15222(15) -0.66502(10)
H77F H 0.1318 1.1557 -0.6782
C98F C 0.17196(11) 1.10996(13) -0.65619(9)
H78F H 0.1561 1.0846 -0.6633
N23F N 0.27574(10) 1.09063(12) -0.59427(9)
N24F N 0.31526(11) 1.08997(12) -0.57589(9)
C99F C 0.33226(11) 1.13317(15) -0.57732(12)
H79F H 0.3584 1.1422 -0.5672
C100F C 0.30324(16) 1.16052(11) -0.59658(13)
H80F H 0.3066 1.1910 -0.6016
C101F C 0.26831(12) 1.13423(14) -0.60705(10)
C102F C 0.32878(19) 1.0540(2) -0.55639(13)
H81F H 0.3228 1.0266 -0.5698
H82F H 0.3588 1.0561 -0.5511
C103F C 0.31182(8) 0.97328(9) -0.45086(5)
C104F C 0.33792(9) 0.94053(8) -0.46053(7)
H83F H 0.3444 0.9156 -0.4463
C105F C 0.35454(9) 0.94420(9) -0.49105(7)
H84F H 0.3724 0.9218 -0.4977
C106F C 0.34505(8) 0.98062(9) -0.51189(6)
H85F H 0.3564 0.9831 -0.5327
C107F C 0.31894(6) 1.01337(7) -0.50222(4)
C108F C 0.30233(6) 1.00970(7) -0.47171(4)
C109F C 0.27622(8) 1.04245(9) -0.46203(6)
H86F H 0.2649 1.0399 -0.4412
C110F C 0.26673(10) 1.07887(9) -0.48288(7)
H87F H 0.2489 1.1013 -0.4763
C111F C 0.28334(10) 1.08254(9) -0.51339(7)
H88F H 0.2769 1.1074 -0.5276
C112F C 0.30945(9) 1.04979(9) -0.52306(6)
N25F N 0.30062(11) 0.45437(13) -0.42670(7)
C113F C 0.29483(11) 0.49050(12) -0.44843(8)
C114F C 0.31314(13) 0.49114(13) -0.47828(8)
H89F H 0.3092 0.5158 -0.4931
C115F C 0.33722(13) 0.45565(16) -0.48641(8)
H90F H 0.3497 0.4561 -0.5068
C116F C 0.34300(14) 0.41952(14) -0.46469(10)
H91F H 0.3595 0.3953 -0.4702
C117F C 0.32470(14) 0.41888(13) -0.43483(10)
H92F H 0.3287 0.3942 -0.4200
N26F N 0.24674(10) 0.51641(11) -0.41219(7)
N27F N 0.21953(10) 0.55291(12) -0.41152(8)
C118F C 0.22448(12) 0.58039(12) -0.43978(10)
H93F H 0.2101 0.6071 -0.4455
C119F C 0.25475(12) 0.56088(15) -0.45791(8)
H94F H 0.2641 0.5723 -0.4779
C120F C 0.26851(10) 0.52134(13) -0.44086(8)
C121F C 0.19486(17) 0.5616(2) -0.38646(14)
H95F H 0.1694 0.5758 -0.3968
H96F H 0.1873 0.5331 -0.3765
N28F N 0.09911(10) 0.79896(14) -0.24233(7)
C122F C 0.09831(12) 0.76817(12) -0.21639(9)
C123F C 0.07140(14) 0.77379(15) -0.19214(9)
H97F H 0.0709 0.7528 -0.1744
C124F C 0.04530(13) 0.81020(18) -0.19382(9)
H98F H 0.0269 0.8140 -0.1772
C125F C 0.04610(13) 0.84098(16) -0.21976(11)
H99F H 0.0283 0.8659 -0.2209
C126F C 0.07300(13) 0.83536(14) -0.24401(9)
H100F H 0.0735 0.8564 -0.2617
N29F N 0.15381(11) 0.73363(12) -0.24069(7)
N30F N 0.18051(10) 0.69706(13) -0.23318(8)
C127F C 0.16936(14) 0.67610(12) -0.20358(9)
H101F H 0.1821 0.6507 -0.1929
C128F C 0.13577(13) 0.69971(15) -0.19279(8)
H102F H 0.1221 0.6929 -0.1736
C129F C 0.12616(11) 0.73527(13) -0.21572(9)
C130F C 0.20719(18) 0.6830(2) -0.25529(14)
H103F H 0.2179 0.7093 -0.2663
H104F H 0.2306 0.6680 -0.2423
C131F C 0.21447(8) 0.59159(10) -0.35813(6)
C132F C 0.25503(7) 0.60432(12) -0.35849(7)
H105F H 0.2703 0.5937 -0.3757
C133F C 0.27320(6) 0.63263(12) -0.33365(8)
H106F H 0.3009 0.6413 -0.3339
C134F C 0.25081(6) 0.64821(11) -0.30844(7)
H107F H 0.2632 0.6676 -0.2915
C135F C 0.21025(6) 0.63548(8) -0.30808(5)
C136F C 0.19208(6) 0.60717(8) -0.33292(5)
C137F C 0.15152(6) 0.59444(11) -0.33256(7)
H108F H 0.1391 0.5751 -0.3495
C138F C 0.12914(6) 0.61002(12) -0.30735(7)
H109F H 0.1014 0.6013 -0.3071
C139F C 0.14730(8) 0.63833(12) -0.28251(7)
H110F H 0.1320 0.6490 -0.2653
C140F C 0.18786(8) 0.65106(10) -0.28287(6)
N31F N 0.39368(9) 0.75569(12) -0.68986(7)
C141F C 0.37656(8) 0.77100(13) -0.66162(7)
C142F C 0.39939(11) 0.79761(14) -0.63805(7)
H111F H 0.3877 0.8081 -0.6187
C143F C 0.43934(11) 0.80892(14) -0.64271(8)
H112F H 0.4549 0.8271 -0.6266
C144F C 0.45647(9) 0.79361(16) -0.67094(9)
H113F H 0.4838 0.8013 -0.6741
C145F C 0.43364(9) 0.76700(14) -0.69452(7)
H114F H 0.4453 0.7565 -0.7138
N32F N 0.31468(9) 0.73652(12) -0.68595(7)
N33F N 0.27373(8) 0.73275(12) -0.67815(7)
C146F C 0.27097(9) 0.75450(15) -0.64682(8)
H115F H 0.2471 0.7571 -0.6356
C147F C 0.31021(11) 0.77172(14) -0.63527(7)
H116F H 0.3172 0.7878 -0.6149
C148F C 0.33722(8) 0.76060(14) -0.65945(8)
C149F C 0.24414(15) 0.70730(19) -0.69573(13)
H117F H 0.2170 0.7194 -0.6921
H118F H 0.2471 0.7096 -0.7202
N34F N 0.04584(10) 0.47748(13) -0.65847(9)
C150F C 0.05298(10) 0.45109(15) -0.68587(10)
C151F C 0.02347(12) 0.42097(17) -0.69913(11)
H119F H 0.0283 0.4029 -0.7179
C152F C -0.01318(12) 0.41723(18) -0.68501(14)
H120F H -0.0334 0.3966 -0.6941
C153F C -0.02032(11) 0.44362(19) -0.65761(13)
H121F H -0.0454 0.4411 -0.6480
C154F C 0.00919(11) 0.47374(16) -0.64434(11)
H122F H 0.0043 0.4918 -0.6256
N35F N 0.11817(9) 0.48560(11) -0.68165(7)
N36F N 0.15527(8) 0.48042(11) -0.69639(8)
C155F C 0.14958(10) 0.44602(13) -0.72085(8)
H123F H 0.1695 0.4356 -0.7346
C156F C 0.10896(11) 0.42994(12) -0.72123(9)
H124F H 0.0969 0.4069 -0.7352
C157F C 0.08955(8) 0.45440(13) -0.69700(9)
C158F C 0.18903(16) 0.5061(2) -0.68679(13)
H125F H 0.1932 0.5071 -0.6618
H126F H 0.2132 0.4914 -0.6945
C159F C 0.24559(7) 0.65784(7) -0.68559(7)
C160F C 0.27828(7) 0.64349(10) -0.66311(7)
H127F H 0.2990 0.6639 -0.6547
C161F C 0.28068(6) 0.59934(10) -0.65294(7)
H128F H 0.3030 0.5895 -0.6376
C162F C 0.25039(7) 0.56954(8) -0.66526(6)
H129F H 0.2520 0.5394 -0.6583
C163F C 0.21770(6) 0.58388(7) -0.68774(5)
C164F C 0.21530(5) 0.62803(7) -0.69791(5)
C165F C 0.18261(7) 0.64238(8) -0.72040(6)
H130F H 0.1810 0.6726 -0.7273
C166F C 0.15232(6) 0.61258(10) -0.73272(6)
H131F H 0.1300 0.6224 -0.7481
C167F C 0.15472(7) 0.56842(9) -0.72255(7)
H132F H 0.1340 0.5481 -0.7310
C168F C 0.18741(7) 0.55408(7) -0.70006(7)
B1 B 0.0086(2) 1.0586(3) -0.65306(17)
F1 F 0.02334(13) 1.01613(16) -0.65796(10)
F2 F -0.02453(12) 1.05579(13) -0.63510(8)
F3 F -0.00327(12) 1.07910(14) -0.68401(9)
F4 F 0.03913(17) 1.0833(2) -0.63528(14)
B2 B -0.2212(4) 0.9495(4) -0.7123(3)
F5 F -0.2216(3) 0.9489(3) -0.6751(2)
F6 F -0.1824(3) 0.9282(4) -0.7185(3)
F7 F -0.2154(3) 0.9924(3) -0.7208(2)
F8 F -0.2487(2) 0.9282(3) -0.72458(18)
B3 B -0.2072(3) 0.7639(3) -0.6861(2)
F9 F -0.2075(4) 0.7565(4) -0.7205(3)
F10 F -0.2475(3) 0.7699(3) -0.6803(2)
F11 F -0.1928(2) 0.7280(3) -0.66650(17)
F12 F -0.1849(3) 0.8009(4) -0.6747(2)
B4 B -0.06473(18) 0.5962(2) -0.52962(15)
F13 F -0.09554(15) 0.6217(2) -0.51547(11)
F14 F -0.02683(14) 0.60562(16) -0.51195(12)
F15 F -0.06509(12) 0.61022(14) -0.56304(9)
F16 F -0.07233(14) 0.55233(16) -0.52763(11)
B5 B 0.3541(3) 0.7268(3) -0.3403(3)
F17 F 0.35966(17) 0.68840(19) -0.35521(15)
F18 F 0.3316(2) 0.7581(3) -0.3572(2)
F19 F 0.39261(19) 0.7421(2) -0.3264(2)
F20 F 0.33257(19) 0.7196(3) -0.31275(17)
B6 B 0.1359(3) 0.6662(4) -0.4525(2)
F21 F 0.16605(15) 0.65741(17) -0.47365(12)
F22 F 0.09871(15) 0.65641(18) -0.46994(12)
F23 F 0.14274(19) 0.6410(2) -0.42379(12)
F24 F 0.1362(2) 0.70996(18) -0.44316(14)
B7 B -0.0567(3) 0.5335(4) -0.7174(3)
F25 F -0.0496(2) 0.5484(3) -0.68241(18)
F26 F -0.0669(6) 0.5719(6) -0.7310(4)
F27 F -0.0245(4) 0.5180(4) -0.7268(3)
F28 F -0.0886(4) 0.5083(4) -0.7197(3)
B8 B 0.17520(19) 0.9539(3) -0.43255(19)
F29 F 0.14867(10) 0.94799(15) -0.40777(9)
F30 F 0.19583(14) 0.99319(17) -0.42873(16)
F31 F 0.20349(11) 0.91934(14) -0.43078(10)
F32 F 0.15218(12) 0.95337(18) -0.46396(10)
O1 O 0.1548(4) 0.8055(5) -0.5127(3)
C169 C 0.2321(5) 0.8031(6) -0.5700(4)
H133 H 0.2270 0.8350 -0.5730
H134 H 0.2554 0.7986 -0.5529
H135 H 0.2381 0.7901 -0.5915
C170 C 0.1902(6) 0.7941(6) -0.5200(5)
C171 C 0.1951(8) 0.7813(9) -0.5588(6)
H136 H 0.1696 0.7858 -0.5747
C172 C 0.2088(11) 0.7330(9) -0.5556(8)
H137 H 0.1867 0.7149 -0.5482
H138 H 0.2156 0.7223 -0.5775
H139 H 0.2330 0.7308 -0.5389
C173 C 0.2364(9) 0.8443(9) -0.4827(7)
H140 H 0.2582 0.8430 -0.4639
H141 H 0.2467 0.8587 -0.5022
H142 H 0.2133 0.8613 -0.4759
C174 C 0.2223(9) 0.7970(11) -0.4925(7)
H143 H 0.2465 0.7825 -0.5010
C175 C 0.2158(12) 0.7727(12) -0.4616(8)
H144 H 0.2394 0.7770 -0.4447
H145 H 0.1911 0.7839 -0.4528
H146 H 0.2125 0.7410 -0.4668
O1F O 0.3452(4) 0.6945(5) -0.4873(3)
C169F C 0.2679(5) 0.6969(6) -0.4300(4)
H133F H 0.2730 0.6650 -0.4270
H134F H 0.2446 0.7014 -0.4471
H135F H 0.2619 0.7099 -0.4085
C170F C 0.3098(6) 0.7059(6) -0.4800(5)
C171F C 0.3049(8) 0.7187(9) -0.4412(6)
H136F H 0.3304 0.7142 -0.4253
C172F C 0.2912(11) 0.7670(9) -0.4444(8)
H137F H 0.3133 0.7851 -0.4518
H138F H 0.2844 0.7777 -0.4225
H139F H 0.2670 0.7692 -0.4611
C173F C 0.2636(9) 0.6557(9) -0.5173(7)
H140F H 0.2418 0.6570 -0.5361
H141F H 0.2533 0.6413 -0.4978
H142F H 0.2867 0.6387 -0.5241
C174F C 0.2777(9) 0.7030(11) -0.5075(7)
H143F H 0.2535 0.7175 -0.4990
C175F C 0.2842(12) 0.7273(12) -0.5384(8)
H144F H 0.2606 0.7230 -0.5553
H145F H 0.3089 0.7161 -0.5472
H146F H 0.2875 0.7590 -0.5332
loop_
_geom_bond_atom_site_label_1
_geom_bond_atom_site_label_2
_geom_bond_site_symmetry_1
_geom_bond_site_symmetry_2
Co1 N4 1_555 1_555
Co2 N1 1_555 1_555
Co3 N16 1_555 1_555
Co4 N10 1_555 1_555
N1 C1 1_555 1_555
C1 C2 1_555 1_555
C2 H1 1_555 1_555
C3 C2 1_555 1_555
H2 C3 1_555 1_555
C4 C3 1_555 1_555
H3 C4 1_555 1_555
C5 N1 1_555 1_555
H4 C5 1_555 1_555
N2 Co2 1_555 1_555
N3 N2 1_555 1_555
C6 N3 1_555 1_555
H5 C6 1_555 1_555
C7 C6 1_555 1_555
H6 C7 1_555 1_555
C8 C1 1_555 1_555
C9 N3 1_555 1_555
H7 C9 1_555 1_555
H8 C9 1_555 1_555
N4 C10 1_555 1_555
C10 C11 1_555 1_555
C11 H9 1_555 1_555
C12 C11 1_555 1_555
H10 C12 1_555 1_555
C13 C12 1_555 1_555
H11 C13 1_555 1_555
C14 N4 1_555 1_555
H12 C14 1_555 1_555
N5 Co1 1_555 1_555
N6 N5 1_555 1_555
C15 N6 1_555 1_555
H13 C15 1_555 1_555
C16 C15 1_555 1_555
H14 C16 1_555 1_555
C17 C10 1_555 1_555
C18 N6 1_555 1_555
H15 C18 1_555 1_555
H16 C18 1_555 1_555
C19 C9 1_555 1_555
C20 C19 1_555 1_555
H17 C20 1_555 1_555
C21 C20 1_555 1_555
H18 C21 1_555 1_555
C22 C21 1_555 1_555
H19 C22 1_555 1_555
C23 C22 1_555 1_555
C24 C19 1_555 1_555
C25 C24 1_555 1_555
H20 C25 1_555 1_555
C26 C25 1_555 1_555
H21 C26 1_555 1_555
C27 C26 1_555 1_555
H22 C27 1_555 1_555
C28 C18 1_555 1_555
N7 Co2 1_555 1_555
C29 N7 1_555 1_555
C30 C29 1_555 1_555
H23 C30 1_555 1_555
C31 C30 1_555 1_555
H24 C31 1_555 1_555
C32 C31 1_555 1_555
H25 C32 1_555 1_555
C33 N7 1_555 1_555
H26 C33 1_555 1_555
N8 Co2 1_555 1_555
N9 N8 1_555 1_555
C34 N9 1_555 1_555
H27 C34 1_555 1_555
C35 C34 1_555 1_555
H28 C35 1_555 1_555
C36 C29 1_555 1_555
C37 N9 1_555 1_555
H29 C37 1_555 1_555
H30 C37 1_555 1_555
N10 C38 1_555 1_555
C38 C39 1_555 1_555
C39 H31 1_555 1_555
C40 C39 1_555 1_555
H32 C40 1_555 1_555
C41 C40 1_555 1_555
H33 C41 1_555 1_555
C42 N10 1_555 1_555
H34 C42 1_555 1_555
N11 Co4 1_555 1_555
N12 N11 1_555 1_555
C43 N12 1_555 1_555
H35 C43 1_555 1_555
C44 C43 1_555 1_555
H36 C44 1_555 1_555
C45 C38 1_555 1_555
C46 N12 1_555 1_555
H37 C46 1_555 1_555
H38 C46 1_555 1_555
C47 C37 1_555 1_555
C48 C47 1_555 1_555
H39 C48 1_555 1_555
C49 C48 1_555 1_555
H40 C49 1_555 1_555
C50 C49 1_555 1_555
H41 C50 1_555 1_555
C51 C50 1_555 1_555
C52 C47 1_555 1_555
C53 C52 1_555 1_555
H42 C53 1_555 1_555
C54 C53 1_555 1_555
H43 C54 1_555 1_555
C55 C54 1_555 1_555
H44 C55 1_555 1_555
C56 C46 1_555 1_555
N13 Co2 1_555 1_555
C57 N13 1_555 1_555
C58 C57 1_555 1_555
H45 C58 1_555 1_555
C59 C58 1_555 1_555
H46 C59 1_555 1_555
C60 C59 1_555 1_555
H47 C60 1_555 1_555
C61 N13 1_555 1_555
H48 C61 1_555 1_555
N14 Co2 1_555 1_555
N15 N14 1_555 1_555
C62 N15 1_555 1_555
H49 C62 1_555 1_555
C63 C62 1_555 1_555
H50 C63 1_555 1_555
C64 C57 1_555 1_555
C65 N15 1_555 1_555
H51 C65 1_555 1_555
H52 C65 1_555 1_555
N16 C66 1_555 1_555
C66 C67 1_555 1_555
C67 H53 1_555 1_555
C68 C67 1_555 1_555
H54 C68 1_555 1_555
C69 C68 1_555 1_555
H55 C69 1_555 1_555
C70 N16 1_555 1_555
H56 C70 1_555 1_555
N17 Co3 1_555 1_555
N18 N17 1_555 1_555
C71 N18 1_555 1_555
H57 C71 1_555 1_555
C72 C71 1_555 1_555
H58 C72 1_555 1_555
C73 C66 1_555 1_555
C74 N18 1_555 1_555
H59 C74 1_555 1_555
H60 C74 1_555 1_555
C75 C65 1_555 1_555
C76 C75 1_555 1_555
H61 C76 1_555 1_555
C77 C76 1_555 1_555
H62 C77 1_555 1_555
C78 C77 1_555 1_555
H63 C78 1_555 1_555
C79 C78 1_555 1_555
C80 C75 1_555 1_555
C81 C80 1_555 1_555
H64 C81 1_555 1_555
C82 C81 1_555 1_555
H65 C82 1_555 1_555
C83 C82 1_555 1_555
H66 C83 1_555 1_555
C84 C74 1_555 1_555
N19 Co1 1_555 1_555
C85 N19 1_555 1_555
C86 C85 1_555 1_555
H67 C86 1_555 1_555
C87 C86 1_555 1_555
H68 C87 1_555 1_555
C88 C87 1_555 1_555
H69 C88 1_555 1_555
C89 N19 1_555 1_555
H70 C89 1_555 1_555
N20 Co1 1_555 1_555
N21 N20 1_555 1_555
C90 N21 1_555 1_555
H71 C90 1_555 1_555
C91 C90 1_555 1_555
H72 C91 1_555 1_555
C92 C85 1_555 1_555
C93 N21 1_555 1_555
H73 C93 1_555 1_555
H74 C93 1_555 1_555
N22 C94 1_555 1_555
C94 C95 1_555 1_555
C95 H75 1_555 1_555
C96 C95 1_555 1_555
H76 C96 1_555 1_555
C97 C96 1_555 1_555
H77 C97 1_555 1_555
C98 N22 1_555 1_555
H78 C98 1_555 1_555
N23 N24 1_555 1_555
N24 C99 1_555 1_555
C99 H79 1_555 1_555
C100 C99 1_555 1_555
H80 C100 1_555 1_555
C101 C94 1_555 1_555
C102 N24 1_555 1_555
H81 C102 1_555 1_555
H82 C102 1_555 1_555
C103 C93 1_555 1_555
C104 C103 1_555 1_555
H83 C104 1_555 1_555
C105 C104 1_555 1_555
H84 C105 1_555 1_555
C106 C105 1_555 1_555
H85 C106 1_555 1_555
C107 C106 1_555 1_555
C108 C103 1_555 1_555
C109 C108 1_555 1_555
H86 C109 1_555 1_555
C110 C109 1_555 1_555
H87 C110 1_555 1_555
C111 C110 1_555 1_555
H88 C111 1_555 1_555
C112 C102 1_555 1_555
N25 Co4 1_555 1_555
C113 N25 1_555 1_555
C114 C113 1_555 1_555
H89 C114 1_555 1_555
C115 C114 1_555 1_555
H90 C115 1_555 1_555
C116 C115 1_555 1_555
H91 C116 1_555 1_555
C117 N25 1_555 1_555
H92 C117 1_555 1_555
N26 Co4 1_555 1_555
N27 N26 1_555 1_555
C118 N27 1_555 1_555
H93 C118 1_555 1_555
C119 C118 1_555 1_555
H94 C119 1_555 1_555
C120 C113 1_555 1_555
C121 N27 1_555 1_555
H95 C121 1_555 1_555
H96 C121 1_555 1_555
N28 C122 1_555 1_555
C122 C123 1_555 1_555
C123 H97 1_555 1_555
C124 C123 1_555 1_555
H98 C124 1_555 1_555
C125 C124 1_555 1_555
H99 C125 1_555 1_555
C126 N28 1_555 1_555
H100 C126 1_555 1_555
N29 N30 1_555 1_555
N30 C127 1_555 1_555
C127 H101 1_555 1_555
C128 C127 1_555 1_555
H102 C128 1_555 1_555
C129 C122 1_555 1_555
C130 N30 1_555 1_555
H103 C130 1_555 1_555
H104 C130 1_555 1_555
C131 C121 1_555 1_555
C132 C131 1_555 1_555
H105 C132 1_555 1_555
C133 C132 1_555 1_555
H106 C133 1_555 1_555
C134 C133 1_555 1_555
H107 C134 1_555 1_555
C135 C134 1_555 1_555
C136 C131 1_555 1_555
C137 C136 1_555 1_555
H108 C137 1_555 1_555
C138 C137 1_555 1_555
H109 C138 1_555 1_555
C139 C138 1_555 1_555
H110 C139 1_555 1_555
C140 C130 1_555 1_555
N31 Co3 1_555 1_555
C141 N31 1_555 1_555
C142 C141 1_555 1_555
H111 C142 1_555 1_555
C143 C142 1_555 1_555
H112 C143 1_555 1_555
C144 C143 1_555 1_555
H113 C144 1_555 1_555
C145 N31 1_555 1_555
H114 C145 1_555 1_555
N32 Co3 1_555 1_555
N33 N32 1_555 1_555
C146 N33 1_555 1_555
H115 C146 1_555 1_555
C147 C146 1_555 1_555
H116 C147 1_555 1_555
C148 C141 1_555 1_555
C149 N33 1_555 1_555
H117 C149 1_555 1_555
H118 C149 1_555 1_555
N34 C150 1_555 1_555
C150 C151 1_555 1_555
C151 H119 1_555 1_555
C152 C151 1_555 1_555
H120 C152 1_555 1_555
C153 C152 1_555 1_555
H121 C153 1_555 1_555
C154 N34 1_555 1_555
H122 C154 1_555 1_555
N35 N36 1_555 1_555
N36 C155 1_555 1_555
C155 H123 1_555 1_555
C156 C155 1_555 1_555
H124 C156 1_555 1_555
C157 C150 1_555 1_555
C158 N36 1_555 1_555
H125 C158 1_555 1_555
H126 C158 1_555 1_555
C159 C149 1_555 1_555
C160 C159 1_555 1_555
H127 C160 1_555 1_555
C161 C160 1_555 1_555
H128 C161 1_555 1_555
C162 C161 1_555 1_555
H129 C162 1_555 1_555
C163 C162 1_555 1_555
C164 C159 1_555 1_555
C165 C164 1_555 1_555
H130 C165 1_555 1_555
C166 C165 1_555 1_555
H131 C166 1_555 1_555
C167 C166 1_555 1_555
H132 C167 1_555 1_555
C168 C158 1_555 1_555
B1 F1 1_555 1_555
F2 B1 1_555 1_555
F3 B1 1_555 1_555
F4 B1 1_555 1_555
B2 F5 1_555 1_555
F6 B2 1_555 1_555
F7 B2 1_555 1_555
F8 B2 1_555 1_555
B3 F9 1_555 1_555
F10 B3 1_555 1_555
F11 B3 1_555 1_555
F12 B3 1_555 1_555
B4 F13 1_555 1_555
F14 B4 1_555 1_555
F15 B4 1_555 1_555
F16 B4 1_555 1_555
B5 F17 1_555 1_555
F18 B5 1_555 1_555
F19 B5 1_555 1_555
F20 B5 1_555 1_555
B6 F21 1_555 1_555
F22 B6 1_555 1_555
F23 B6 1_555 1_555
F24 B6 1_555 1_555
B7 F25 1_555 1_555
F26 B7 1_555 1_555
F27 B7 1_555 1_555
F28 B7 1_555 1_555
B8 F29 1_555 1_555
F30 B8 1_555 1_555
F31 B8 1_555 1_555
F32 B8 1_555 1_555
O1 C170 1_555 1_555
C169 H133 1_555 1_555
H134 C169 1_555 1_555
H135 C169 1_555 1_555
C170 C171 1_555 1_555
C171 C169 1_555 1_555
H136 C171 1_555 1_555
C172 C171 1_555 1_555
H137 C172 1_555 1_555
H138 C172 1_555 1_555
H139 C172 1_555 1_555
C173 H140 1_555 1_555
H141 C173 1_555 1_555
H142 C173 1_555 1_555
C174 C170 1_555 1_555
H143 C174 1_555 1_555
C175 C174 1_555 1_555
H144 C175 1_555 1_555
H145 C175 1_555 1_555
H146 C175 1_555 1_555
Co1F N34 1_555 1_555
Co2F N1F 1_555 1_555
Co3F N28 1_555 1_555
Co4F N22 1_555 1_555
N1F C1F 1_555 1_555
C1F C2F 1_555 1_555
C2F H1F 1_555 1_555
C3F C2F 1_555 1_555
H2F C3F 1_555 1_555
C4F C3F 1_555 1_555
H3F C4F 1_555 1_555
C5F N1F 1_555 1_555
H4F C5F 1_555 1_555
N2F Co2F 1_555 1_555
N3F N2F 1_555 1_555
C6F N3F 1_555 1_555
H5F C6F 1_555 1_555
C7F C6F 1_555 1_555
H6F C7F 1_555 1_555
C8F C1F 1_555 1_555
C9F N3F 1_555 1_555
H7F C9F 1_555 1_555
H8F C9F 1_555 1_555
N4F Co1F 1_555 1_555
C10F N4F 1_555 1_555
C11F C10F 1_555 1_555
H9F C11F 1_555 1_555
C12F C11F 1_555 1_555
H10F C12F 1_555 1_555
C13F C12F 1_555 1_555
H11F C13F 1_555 1_555
C14F N4F 1_555 1_555
H12F C14F 1_555 1_555
N5F Co1F 1_555 1_555
N6F N5F 1_555 1_555
C15F N6F 1_555 1_555
H13F C15F 1_555 1_555
C16F C15F 1_555 1_555
H14F C16F 1_555 1_555
C17F C10F 1_555 1_555
C18F N6F 1_555 1_555
H15F C18F 1_555 1_555
H16F C18F 1_555 1_555
C19F C9F 1_555 1_555
C20F C19F 1_555 1_555
H17F C20F 1_555 1_555
C21F C20F 1_555 1_555
H18F C21F 1_555 1_555
C22F C21F 1_555 1_555
H19F C22F 1_555 1_555
C23F C22F 1_555 1_555
C24F C19F 1_555 1_555
C25F C24F 1_555 1_555
H20F C25F 1_555 1_555
C26F C25F 1_555 1_555
H21F C26F 1_555 1_555
C27F C26F 1_555 1_555
H22F C27F 1_555 1_555
C28F C18F 1_555 1_555
N7F Co2F 1_555 1_555
C29F N7F 1_555 1_555
C30F C29F 1_555 1_555
H23F C30F 1_555 1_555
C31F C30F 1_555 1_555
H24F C31F 1_555 1_555
C32F C31F 1_555 1_555
H25F C32F 1_555 1_555
C33F N7F 1_555 1_555
H26F C33F 1_555 1_555
N8F Co2F 1_555 1_555
N9F N8F 1_555 1_555
C34F N9F 1_555 1_555
H27F C34F 1_555 1_555
C35F C34F 1_555 1_555
H28F C35F 1_555 1_555
C36F C29F 1_555 1_555
C37F N9F 1_555 1_555
H29F C37F 1_555 1_555
H30F C37F 1_555 1_555
N10F Co4F 1_555 1_555
C38F N10F 1_555 1_555
C39F C38F 1_555 1_555
H31F C39F 1_555 1_555
C40F C39F 1_555 1_555
H32F C40F 1_555 1_555
C41F C40F 1_555 1_555
H33F C41F 1_555 1_555
C42F N10F 1_555 1_555
H34F C42F 1_555 1_555
N11F Co4F 1_555 1_555
N12F N11F 1_555 1_555
C43F N12F 1_555 1_555
H35F C43F 1_555 1_555
C44F C43F 1_555 1_555
H36F C44F 1_555 1_555
C45F C38F 1_555 1_555
C46F N12F 1_555 1_555
H37F C46F 1_555 1_555
H38F C46F 1_555 1_555
C47F C37F 1_555 1_555
C48F C47F 1_555 1_555
H39F C48F 1_555 1_555
C49F C48F 1_555 1_555
H40F C49F 1_555 1_555
C50F C49F 1_555 1_555
H41F C50F 1_555 1_555
C51F C50F 1_555 1_555
C52F C47F 1_555 1_555
C53F C52F 1_555 1_555
H42F C53F 1_555 1_555
C54F C53F 1_555 1_555
H43F C54F 1_555 1_555
C55F C54F 1_555 1_555
H44F C55F 1_555 1_555
C56F C46F 1_555 1_555
N13F Co2F 1_555 1_555
C57F N13F 1_555 1_555
C58F C57F 1_555 1_555
H45F C58F 1_555 1_555
C59F C58F 1_555 1_555
H46F C59F 1_555 1_555
C60F C59F 1_555 1_555
H47F C60F 1_555 1_555
C61F N13F 1_555 1_555
H48F C61F 1_555 1_555
N14F Co2F 1_555 1_555
N15F N14F 1_555 1_555
C62F N15F 1_555 1_555
H49F C62F 1_555 1_555
C63F C62F 1_555 1_555
H50F C63F 1_555 1_555
C64F C57F 1_555 1_555
C65F N15F 1_555 1_555
H51F C65F 1_555 1_555
H52F C65F 1_555 1_555
N16F Co3F 1_555 1_555
C66F N16F 1_555 1_555
C67F C66F 1_555 1_555
H53F C67F 1_555 1_555
C68F C67F 1_555 1_555
H54F C68F 1_555 1_555
C69F C68F 1_555 1_555
H55F C69F 1_555 1_555
C70F N16F 1_555 1_555
H56F C70F 1_555 1_555
N17F Co3F 1_555 1_555
N18F N17F 1_555 1_555
C71F N18F 1_555 1_555
H57F C71F 1_555 1_555
C72F C71F 1_555 1_555
H58F C72F 1_555 1_555
C73F C66F 1_555 1_555
C74F N18F 1_555 1_555
H59F C74F 1_555 1_555
H60F C74F 1_555 1_555
C75F C65F 1_555 1_555
C76F C75F 1_555 1_555
H61F C76F 1_555 1_555
C77F C76F 1_555 1_555
H62F C77F 1_555 1_555
C78F C77F 1_555 1_555
H63F C78F 1_555 1_555
C79F C78F 1_555 1_555
C80F C75F 1_555 1_555
C81F C80F 1_555 1_555
H64F C81F 1_555 1_555
C82F C81F 1_555 1_555
H65F C82F 1_555 1_555
C83F C82F 1_555 1_555
H66F C83F 1_555 1_555
C84F C74F 1_555 1_555
N19F Co1F 1_555 1_555
C85F N19F 1_555 1_555
C86F C85F 1_555 1_555
H67F C86F 1_555 1_555
C87F C86F 1_555 1_555
H68F C87F 1_555 1_555
C88F C87F 1_555 1_555
H69F C88F 1_555 1_555
C89F N19F 1_555 1_555
H70F C89F 1_555 1_555
N20F Co1F 1_555 1_555
N21F N20F 1_555 1_555
C90F N21F 1_555 1_555
H71F C90F 1_555 1_555
C91F C90F 1_555 1_555
H72F C91F 1_555 1_555
C92F C85F 1_555 1_555
C93F N21F 1_555 1_555
H73F C93F 1_555 1_555
H74F C93F 1_555 1_555
N22F Co4 1_555 1_555
C94F N22F 1_555 1_555
C95F C94F 1_555 1_555
H75F C95F 1_555 1_555
C96F C95F 1_555 1_555
H76F C96F 1_555 1_555
C97F C96F 1_555 1_555
H77F C97F 1_555 1_555
C98F N22F 1_555 1_555
H78F C98F 1_555 1_555
N23F Co4 1_555 1_555
N24F N23F 1_555 1_555
C99F N24F 1_555 1_555
H79F C99F 1_555 1_555
C100F C99F 1_555 1_555
H80F C100F 1_555 1_555
C101F C94F 1_555 1_555
C102F N24F 1_555 1_555
H81F C102F 1_555 1_555
H82F C102F 1_555 1_555
C103F C93F 1_555 1_555
C104F C103F 1_555 1_555
H83F C104F 1_555 1_555
C105F C104F 1_555 1_555
H84F C105F 1_555 1_555
C106F C105F 1_555 1_555
H85F C106F 1_555 1_555
C107F C106F 1_555 1_555
C108F C103F 1_555 1_555
C109F C108F 1_555 1_555
H86F C109F 1_555 1_555
C110F C109F 1_555 1_555
H87F C110F 1_555 1_555
C111F C110F 1_555 1_555
H88F C111F 1_555 1_555
C112F C102F 1_555 1_555
N25F Co4F 1_555 1_555
C113F N25F 1_555 1_555
C114F C113F 1_555 1_555
H89F C114F 1_555 1_555
C115F C114F 1_555 1_555
H90F C115F 1_555 1_555
C116F C115F 1_555 1_555
H91F C116F 1_555 1_555
C117F N25F 1_555 1_555
H92F C117F 1_555 1_555
N26F Co4F 1_555 1_555
N27F N26F 1_555 1_555
C118F N27F 1_555 1_555
H93F C118F 1_555 1_555
C119F C118F 1_555 1_555
H94F C119F 1_555 1_555
C120F C113F 1_555 1_555
C121F N27F 1_555 1_555
H95F C121F 1_555 1_555
H96F C121F 1_555 1_555
N28F Co3 1_555 1_555
C122F N28F 1_555 1_555
C123F C122F 1_555 1_555
H97F C123F 1_555 1_555
C124F C123F 1_555 1_555
H98F C124F 1_555 1_555
C125F C124F 1_555 1_555
H99F C125F 1_555 1_555
C126F N28F 1_555 1_555
H100F C126F 1_555 1_555
N29F Co3 1_555 1_555
N30F N29F 1_555 1_555
C127F N30F 1_555 1_555
H101F C127F 1_555 1_555
C128F C127F 1_555 1_555
H102F C128F 1_555 1_555
C129F C122F 1_555 1_555
C130F N30F 1_555 1_555
H103F C130F 1_555 1_555
H104F C130F 1_555 1_555
C131F C121F 1_555 1_555
C132F C131F 1_555 1_555
H105F C132F 1_555 1_555
C133F C132F 1_555 1_555
H106F C133F 1_555 1_555
C134F C133F 1_555 1_555
H107F C134F 1_555 1_555
C135F C134F 1_555 1_555
C136F C131F 1_555 1_555
C137F C136F 1_555 1_555
H108F C137F 1_555 1_555
C138F C137F 1_555 1_555
H109F C138F 1_555 1_555
C139F C138F 1_555 1_555
H110F C139F 1_555 1_555
C140F C130F 1_555 1_555
N31F Co3F 1_555 1_555
C141F N31F 1_555 1_555
C142F C141F 1_555 1_555
H111F C142F 1_555 1_555
C143F C142F 1_555 1_555
H112F C143F 1_555 1_555
C144F C143F 1_555 1_555
H113F C144F 1_555 1_555
C145F N31F 1_555 1_555
H114F C145F 1_555 1_555
N32F Co3F 1_555 1_555
N33F N32F 1_555 1_555
C146F N33F 1_555 1_555
H115F C146F 1_555 1_555
C147F C146F 1_555 1_555
H116F C147F 1_555 1_555
C148F C141F 1_555 1_555
C149F N33F 1_555 1_555
H117F C149F 1_555 1_555
H118F C149F 1_555 1_555
N34F Co1 1_555 1_555
C150F N34F 1_555 1_555
C151F C150F 1_555 1_555
H119F C151F 1_555 1_555
C152F C151F 1_555 1_555
H120F C152F 1_555 1_555
C153F C152F 1_555 1_555
H121F C153F 1_555 1_555
C154F N34F 1_555 1_555
H122F C154F 1_555 1_555
N35F Co1 1_555 1_555
N36F N35F 1_555 1_555
C155F N36F 1_555 1_555
H123F C155F 1_555 1_555
C156F C155F 1_555 1_555
H124F C156F 1_555 1_555
C157F C150F 1_555 1_555
C158F N36F 1_555 1_555
H125F C158F 1_555 1_555
H126F C158F 1_555 1_555
C159F C149F 1_555 1_555
C160F C159F 1_555 1_555
H127F C160F 1_555 1_555
C161F C160F 1_555 1_555
H128F C161F 1_555 1_555
C162F C161F 1_555 1_555
H129F C162F 1_555 1_555
C163F C162F 1_555 1_555
C164F C159F 1_555 1_555
C165F C164F 1_555 1_555
H130F C165F 1_555 1_555
C166F C165F 1_555 1_555
H131F C166F 1_555 1_555
C167F C166F 1_555 1_555
H132F C167F 1_555 1_555
C168F C158F 1_555 1_555
O1F C170F 1_555 1_555
C169F H133F 1_555 1_555
H134F C169F 1_555 1_555
H135F C169F 1_555 1_555
C170F C171F 1_555 1_555
C171F C169F 1_555 1_555
H136F C171F 1_555 1_555
C172F C171F 1_555 1_555
H137F C172F 1_555 1_555
H138F C172F 1_555 1_555
H139F C172F 1_555 1_555
C173F H140F 1_555 1_555
H141F C173F 1_555 1_555
H142F C173F 1_555 1_555
C174F C170F 1_555 1_555
H143F C174F 1_555 1_555
C175F C174F 1_555 1_555
H144F C175F 1_555 1_555
H145F C175F 1_555 1_555
H146F C175F 1_555 1_555
C4 C5 1_555 1_555
N2 C8 1_555 1_555
C7 C8 1_555 1_555
C13 C14 1_555 1_555
N5 C17 1_555 1_555
C16 C17 1_555 1_555
C23 C24 1_555 1_555
C23 C28 1_555 1_555
C27 C28 1_555 1_555
C32 C33 1_555 1_555
N8 C36 1_555 1_555
C35 C36 1_555 1_555
C41 C42 1_555 1_555
N11 C45 1_555 1_555
C44 C45 1_555 1_555
C51 C52 1_555 1_555
C51 C56 1_555 1_555
C55 C56 1_555 1_555
C60 C61 1_555 1_555
N14 C64 1_555 1_555
C63 C64 1_555 1_555
C69 C70 1_555 1_555
N17 C73 1_555 1_555
C72 C73 1_555 1_555
C79 C80 1_555 1_555
C79 C84 1_555 1_555
C83 C84 1_555 1_555
C88 C89 1_555 1_555
N20 C92 1_555 1_555
C91 C92 1_555 1_555
C97 C98 1_555 1_555
N23 C101 1_555 1_555
N23 Co4F 1_555 1_555
C100 C101 1_555 1_555
C107 C108 1_555 1_555
C107 C112 1_555 1_555
C111 C112 1_555 1_555
C116 C117 1_555 1_555
N26 C120 1_555 1_555
C119 C120 1_555 1_555
C125 C126 1_555 1_555
N29 C129 1_555 1_555
N29 Co3F 1_555 1_555
C128 C129 1_555 1_555
C135 C136 1_555 1_555
C135 C140 1_555 1_555
C139 C140 1_555 1_555
C144 C145 1_555 1_555
N32 C148 1_555 1_555
C147 C148 1_555 1_555
C153 C154 1_555 1_555
N35 C157 1_555 1_555
N35 Co1F 1_555 1_555
C156 C157 1_555 1_555
C163 C164 1_555 1_555
C163 C168 1_555 1_555
C167 C168 1_555 1_555
C173 C174 1_555 1_555
C4F C5F 1_555 1_555
N2F C8F 1_555 1_555
C7F C8F 1_555 1_555
C13F C14F 1_555 1_555
N5F C17F 1_555 1_555
C16F C17F 1_555 1_555
C23F C24F 1_555 1_555
C23F C28F 1_555 1_555
C27F C28F 1_555 1_555
C32F C33F 1_555 1_555
N8F C36F 1_555 1_555
C35F C36F 1_555 1_555
C41F C42F 1_555 1_555
N11F C45F 1_555 1_555
C44F C45F 1_555 1_555
C51F C52F 1_555 1_555
C51F C56F 1_555 1_555
C55F C56F 1_555 1_555
C60F C61F 1_555 1_555
N14F C64F 1_555 1_555
C63F C64F 1_555 1_555
C69F C70F 1_555 1_555
N17F C73F 1_555 1_555
C72F C73F 1_555 1_555
C79F C80F 1_555 1_555
C79F C84F 1_555 1_555
C83F C84F 1_555 1_555
C88F C89F 1_555 1_555
N20F C92F 1_555 1_555
C91F C92F 1_555 1_555
C97F C98F 1_555 1_555
N23F C101F 1_555 1_555
C100F C101F 1_555 1_555
C107F C108F 1_555 1_555
C107F C112F 1_555 1_555
C111F C112F 1_555 1_555
C116F C117F 1_555 1_555
N26F C120F 1_555 1_555
C119F C120F 1_555 1_555
C125F C126F 1_555 1_555
N29F C129F 1_555 1_555
C128F C129F 1_555 1_555
C135F C136F 1_555 1_555
C135F C140F 1_555 1_555
C139F C140F 1_555 1_555
C144F C145F 1_555 1_555
N32F C148F 1_555 1_555
C147F C148F 1_555 1_555
C153F C154F 1_555 1_555
N35F C157F 1_555 1_555
C156F C157F 1_555 1_555
C163F C164F 1_555 1_555
C163F C168F 1_555 1_555
C167F C168F 1_555 1_555
C173F C174F 1_555 1_555

#END
