# generated using pymatgen
data_Co8B20H292C352N72O4F77
_symmetry_space_group_name_H-M   'P 1'
_cell_length_a   29.93110000
_cell_length_b   32.91840000
_cell_length_c   39.81700000
_cell_angle_alpha   96.11100000
_cell_angle_beta   90.00000000
_cell_angle_gamma   90.00000000
_symmetry_Int_Tables_number   1
_chemical_formula_structural   Co8B20H292C352N72O4F77
_chemical_formula_sum   'Co32 B80 H1168 C1408 N288 O16 F308'
_cell_volume   39008.12045455
_cell_formula_units_Z   4
loop_
 _symmetry_equiv_pos_site_id
 _symmetry_equiv_pos_as_xyz
  1  'x, y, z'
loop_
 _atom_site_type_symbol
 _atom_site_label
 _atom_site_symmetry_multiplicity
 _atom_site_fract_x
 _atom_site_fract_y
 _atom_site_fract_z
 _atom_site_occupancy
  Co  Co1  1  0.659480  0.486750  0.462520  1.0
  Co  Co2  1  0.659480  0.513250  0.037480  1.0
  Co  Co3  1  0.159480  0.986750  0.462520  1.0
  Co  Co4  1  0.159480  0.013250  0.037480  1.0
  Co  Co5  1  0.340520  0.513250  0.537480  1.0
  Co  Co6  1  0.340520  0.486750  0.962520  1.0
  Co  Co7  1  0.840520  0.013250  0.537480  1.0
  Co  Co8  1  0.840520  0.986750  0.962520  1.0
  Co  Co9  1  0.720730  0.643530  0.722430  1.0
  Co  Co10  1  0.720730  0.356470  0.777570  1.0
  Co  Co11  1  0.220730  0.143530  0.722430  1.0
  Co  Co12  1  0.220730  0.856470  0.777570  1.0
  Co  Co13  1  0.279270  0.356470  0.277570  1.0
  Co  Co14  1  0.279270  0.643530  0.222430  1.0
  Co  Co15  1  0.779270  0.856470  0.277570  1.0
  Co  Co16  1  0.779270  0.143530  0.222430  1.0
  Co  Co17  1  0.519700  0.900050  0.635340  1.0
  Co  Co18  1  0.519700  0.099950  0.864660  1.0
  Co  Co19  1  0.019700  0.400050  0.635340  1.0
  Co  Co20  1  0.019700  0.599950  0.864660  1.0
  Co  Co21  1  0.480300  0.099950  0.364660  1.0
  Co  Co22  1  0.480300  0.900050  0.135340  1.0
  Co  Co23  1  0.980300  0.599950  0.364660  1.0
  Co  Co24  1  0.980300  0.400050  0.135340  1.0
  Co  Co25  1  0.451380  0.732370  0.385520  1.0
  Co  Co26  1  0.451380  0.267630  0.114480  1.0
  Co  Co27  1  0.951380  0.232370  0.385520  1.0
  Co  Co28  1  0.951380  0.767630  0.114480  1.0
  Co  Co29  1  0.548620  0.267630  0.614480  1.0
  Co  Co30  1  0.548620  0.732370  0.885520  1.0
  Co  Co31  1  0.048620  0.767630  0.614480  1.0
  Co  Co32  1  0.048620  0.232370  0.885520  1.0
  B  B33  1  0.561600  0.508700  0.847600  1
  B  B34  1  0.561600  0.491300  0.652400  1
  B  B35  1  0.061600  0.008700  0.847600  1
  B  B36  1  0.061600  0.991300  0.652400  1
  B  B37  1  0.438400  0.491300  0.152400  1
  B  B38  1  0.438400  0.508700  0.347600  1
  B  B39  1  0.938400  0.991300  0.152400  1
  B  B40  1  0.938400  0.008700  0.347600  1
  B  B41  1  0.547700  0.673400  0.566600  1
  B  B42  1  0.547700  0.326600  0.933400  1
  B  B43  1  0.047700  0.173400  0.566600  1
  B  B44  1  0.047700  0.826600  0.933400  1
  B  B45  1  0.452300  0.326600  0.433400  1
  B  B46  1  0.452300  0.673400  0.066600  1
  B  B47  1  0.952300  0.826600  0.433400  1
  B  B48  1  0.952300  0.173400  0.066600  1
  B  B49  1  0.722900  0.647500  0.337800  1
  B  B50  1  0.722900  0.352500  0.162200  1
  B  B51  1  0.222900  0.147500  0.337800  1
  B  B52  1  0.222900  0.852500  0.162200  1
  B  B53  1  0.277100  0.352500  0.662200  1
  B  B54  1  0.277100  0.647500  0.837800  1
  B  B55  1  0.777100  0.852500  0.662200  1
  B  B56  1  0.777100  0.147500  0.837800  1
  B  B57  1  0.836600  0.637000  0.545300  1
  B  B58  1  0.836600  0.363000  0.954700  1
  B  B59  1  0.336600  0.137000  0.545300  1
  B  B60  1  0.336600  0.863000  0.954700  1
  B  B61  1  0.163400  0.363000  0.454700  1
  B  B62  1  0.163400  0.637000  0.045300  1
  B  B63  1  0.663400  0.863000  0.454700  1
  B  B64  1  0.663400  0.137000  0.045300  1
  B  B65  1  0.452100  0.721600  0.714200  1
  B  B66  1  0.452100  0.278400  0.785800  1
  B  B67  1  0.952100  0.221600  0.714200  1
  B  B68  1  0.952100  0.778400  0.785800  1
  B  B69  1  0.547900  0.278400  0.285800  1
  B  B70  1  0.547900  0.721600  0.214200  1
  B  B71  1  0.047900  0.778400  0.285800  1
  B  B72  1  0.047900  0.221600  0.214200  1
  B  B73  1  0.813400  0.388000  0.498900  1
  B  B74  1  0.813400  0.612000  0.001100  1
  B  B75  1  0.313400  0.888000  0.498900  1
  B  B76  1  0.313400  0.112000  0.001100  1
  B  B77  1  0.186600  0.612000  0.501100  1
  B  B78  1  0.186600  0.388000  0.998900  1
  B  B79  1  0.686600  0.112000  0.501100  1
  B  B80  1  0.686600  0.888000  0.998900  1
  B  B81  1  0.210300  0.773100  0.335300  1
  B  B82  1  0.210300  0.226900  0.164700  1
  B  B83  1  0.710300  0.273100  0.335300  1
  B  B84  1  0.710300  0.726900  0.164700  1
  B  B85  1  0.789700  0.226900  0.664700  1
  B  B86  1  0.789700  0.773100  0.835300  1
  B  B87  1  0.289700  0.726900  0.664700  1
  B  B88  1  0.289700  0.273100  0.835300  1
  B  B89  1  0.459800  0.913400  0.401100  1
  B  B90  1  0.459800  0.086600  0.098900  1
  B  B91  1  0.959800  0.413400  0.401100  1
  B  B92  1  0.959800  0.586600  0.098900  1
  B  B93  1  0.540200  0.086600  0.598900  1
  B  B94  1  0.540200  0.913400  0.901100  1
  B  B95  1  0.040200  0.586600  0.598900  1
  B  B96  1  0.040200  0.413400  0.901100  1
  B  B97  1  0.233000  0.795300  0.310000  1
  B  B98  1  0.233000  0.204700  0.190000  1
  B  B99  1  0.733000  0.295300  0.310000  1
  B  B100  1  0.733000  0.704700  0.190000  1
  B  B101  1  0.767000  0.204700  0.690000  1
  B  B102  1  0.767000  0.795300  0.810000  1
  B  B103  1  0.267000  0.704700  0.690000  1
  B  B104  1  0.267000  0.295300  0.810000  1
  B  B105  1  0.325400  0.007500  0.757300  1
  B  B106  1  0.325400  0.992500  0.742700  1
  B  B107  1  0.825400  0.507500  0.757300  1
  B  B108  1  0.825400  0.492500  0.742700  1
  B  B109  1  0.674600  0.992500  0.242700  1
  B  B110  1  0.674600  0.007500  0.257300  1
  B  B111  1  0.174600  0.492500  0.242700  1
  B  B112  1  0.174600  0.507500  0.257300  1
  H  H113  1  0.792300  0.414300  0.406700  1.0
  H  H114  1  0.792300  0.585700  0.093300  1.0
  H  H115  1  0.292300  0.914300  0.406700  1.0
  H  H116  1  0.292300  0.085700  0.093300  1.0
  H  H117  1  0.207700  0.585700  0.593300  1.0
  H  H118  1  0.207700  0.414300  0.906700  1.0
  H  H119  1  0.707700  0.085700  0.593300  1.0
  H  H120  1  0.707700  0.914300  0.906700  1.0
  H  H121  1  0.754700  0.367200  0.368600  1.0
  H  H122  1  0.754700  0.632800  0.131400  1.0
  H  H123  1  0.254700  0.867200  0.368600  1.0
  H  H124  1  0.254700  0.132800  0.131400  1.0
  H  H125  1  0.245300  0.632800  0.631400  1.0
  H  H126  1  0.245300  0.367200  0.868600  1.0
  H  H127  1  0.745300  0.132800  0.631400  1.0
  H  H128  1  0.745300  0.867200  0.868600  1.0
  H  H129  1  0.676600  0.367700  0.366100  1.0
  H  H130  1  0.676600  0.632300  0.133900  1.0
  H  H131  1  0.176600  0.867700  0.366100  1.0
  H  H132  1  0.176600  0.132300  0.133900  1.0
  H  H133  1  0.323400  0.632300  0.633900  1.0
  H  H134  1  0.323400  0.367700  0.866100  1.0
  H  H135  1  0.823400  0.132300  0.633900  1.0
  H  H136  1  0.823400  0.867700  0.866100  1.0
  H  H137  1  0.636100  0.415400  0.401800  1.0
  H  H138  1  0.636100  0.584600  0.098200  1.0
  H  H139  1  0.136100  0.915400  0.401800  1.0
  H  H140  1  0.136100  0.084600  0.098200  1.0
  H  H141  1  0.363900  0.584600  0.598200  1.0
  H  H142  1  0.363900  0.415400  0.901800  1.0
  H  H143  1  0.863900  0.084600  0.598200  1.0
  H  H144  1  0.863900  0.915400  0.901800  1.0
  H  H145  1  0.827300  0.528900  0.492200  1.0
  H  H146  1  0.827300  0.471100  0.007800  1.0
  H  H147  1  0.327300  0.028900  0.492200  1.0
  H  H148  1  0.327300  0.971100  0.007800  1.0
  H  H149  1  0.172700  0.471100  0.507800  1.0
  H  H150  1  0.172700  0.528900  0.992200  1.0
  H  H151  1  0.672700  0.971100  0.507800  1.0
  H  H152  1  0.672700  0.028900  0.992200  1.0
  H  H153  1  0.826900  0.466700  0.448800  1.0
  H  H154  1  0.826900  0.533300  0.051200  1.0
  H  H155  1  0.326900  0.966700  0.448800  1.0
  H  H156  1  0.326900  0.033300  0.051200  1.0
  H  H157  1  0.173100  0.533300  0.551200  1.0
  H  H158  1  0.173100  0.466700  0.948800  1.0
  H  H159  1  0.673100  0.033300  0.551200  1.0
  H  H160  1  0.673100  0.966700  0.948800  1.0
  H  H161  1  0.712200  0.569000  0.502200  1.0
  H  H162  1  0.712200  0.431000  0.997800  1.0
  H  H163  1  0.212200  0.069000  0.502200  1.0
  H  H164  1  0.212200  0.931000  0.997800  1.0
  H  H165  1  0.287800  0.431000  0.497800  1.0
  H  H166  1  0.287800  0.569000  0.002200  1.0
  H  H167  1  0.787800  0.931000  0.497800  1.0
  H  H168  1  0.787800  0.069000  0.002200  1.0
  H  H169  1  0.762100  0.581800  0.512600  1.0
  H  H170  1  0.762100  0.418200  0.987400  1.0
  H  H171  1  0.262100  0.081800  0.512600  1.0
  H  H172  1  0.262100  0.918200  0.987400  1.0
  H  H173  1  0.237900  0.418200  0.487400  1.0
  H  H174  1  0.237900  0.581800  0.012600  1.0
  H  H175  1  0.737900  0.918200  0.487400  1.0
  H  H176  1  0.737900  0.081800  0.012600  1.0
  H  H177  1  0.573800  0.714800  0.748500  1.0
  H  H178  1  0.573800  0.285200  0.751500  1.0
  H  H179  1  0.073800  0.214800  0.748500  1.0
  H  H180  1  0.073800  0.785200  0.751500  1.0
  H  H181  1  0.426200  0.285200  0.251500  1.0
  H  H182  1  0.426200  0.714800  0.248500  1.0
  H  H183  1  0.926200  0.785200  0.251500  1.0
  H  H184  1  0.926200  0.214800  0.248500  1.0
  H  H185  1  0.598900  0.766300  0.789100  1.0
  H  H186  1  0.598900  0.233700  0.710900  1.0
  H  H187  1  0.098900  0.266300  0.789100  1.0
  H  H188  1  0.098900  0.733700  0.710900  1.0
  H  H189  1  0.401100  0.233700  0.210900  1.0
  H  H190  1  0.401100  0.766300  0.289100  1.0
  H  H191  1  0.901100  0.733700  0.210900  1.0
  H  H192  1  0.901100  0.266300  0.289100  1.0
  H  H193  1  0.673900  0.768300  0.805700  1.0
  H  H194  1  0.673900  0.231700  0.694300  1.0
  H  H195  1  0.173900  0.268300  0.805700  1.0
  H  H196  1  0.173900  0.731700  0.694300  1.0
  H  H197  1  0.326100  0.231700  0.194300  1.0
  H  H198  1  0.326100  0.768300  0.305700  1.0
  H  H199  1  0.826100  0.731700  0.194300  1.0
  H  H200  1  0.826100  0.268300  0.305700  1.0
  H  H201  1  0.723900  0.718800  0.781600  1.0
  H  H202  1  0.723900  0.281200  0.718400  1.0
  H  H203  1  0.223900  0.218800  0.781600  1.0
  H  H204  1  0.223900  0.781200  0.718400  1.0
  H  H205  1  0.276100  0.281200  0.218400  1.0
  H  H206  1  0.276100  0.718800  0.281600  1.0
  H  H207  1  0.776100  0.781200  0.218400  1.0
  H  H208  1  0.776100  0.218800  0.281600  1.0
  H  H209  1  0.566400  0.587700  0.670300  1.0
  H  H210  1  0.566400  0.412300  0.829700  1.0
  H  H211  1  0.066400  0.087700  0.670300  1.0
  H  H212  1  0.066400  0.912300  0.829700  1.0
  H  H213  1  0.433600  0.412300  0.329700  1.0
  H  H214  1  0.433600  0.587700  0.170300  1.0
  H  H215  1  0.933600  0.912300  0.329700  1.0
  H  H216  1  0.933600  0.087700  0.170300  1.0
  H  H217  1  0.551600  0.649900  0.712200  1.0
  H  H218  1  0.551600  0.350100  0.787800  1.0
  H  H219  1  0.051600  0.149900  0.712200  1.0
  H  H220  1  0.051600  0.850100  0.787800  1.0
  H  H221  1  0.448400  0.350100  0.287800  1.0
  H  H222  1  0.448400  0.649900  0.212200  1.0
  H  H223  1  0.948400  0.850100  0.287800  1.0
  H  H224  1  0.948400  0.149900  0.212200  1.0
  H  H225  1  0.641800  0.545000  0.654700  1.0
  H  H226  1  0.641800  0.455000  0.845300  1.0
  H  H227  1  0.141800  0.045000  0.654700  1.0
  H  H228  1  0.141800  0.955000  0.845300  1.0
  H  H229  1  0.358200  0.455000  0.345300  1.0
  H  H230  1  0.358200  0.545000  0.154700  1.0
  H  H231  1  0.858200  0.955000  0.345300  1.0
  H  H232  1  0.858200  0.045000  0.154700  1.0
  H  H233  1  0.687200  0.563700  0.670800  1.0
  H  H234  1  0.687200  0.436300  0.829200  1.0
  H  H235  1  0.187200  0.063700  0.670800  1.0
  H  H236  1  0.187200  0.936300  0.829200  1.0
  H  H237  1  0.312800  0.436300  0.329200  1.0
  H  H238  1  0.312800  0.563700  0.170800  1.0
  H  H239  1  0.812800  0.936300  0.329200  1.0
  H  H240  1  0.812800  0.063700  0.170800  1.0
  H  H241  1  0.764100  0.491700  0.538300  1.0
  H  H242  1  0.764100  0.508300  0.961700  1.0
  H  H243  1  0.264100  0.991700  0.538300  1.0
  H  H244  1  0.264100  0.008300  0.961700  1.0
  H  H245  1  0.235900  0.508300  0.461700  1.0
  H  H246  1  0.235900  0.491700  0.038300  1.0
  H  H247  1  0.735900  0.008300  0.461700  1.0
  H  H248  1  0.735900  0.991700  0.038300  1.0
  H  H249  1  0.747300  0.470300  0.591000  1.0
  H  H250  1  0.747300  0.529700  0.909000  1.0
  H  H251  1  0.247300  0.970300  0.591000  1.0
  H  H252  1  0.247300  0.029700  0.909000  1.0
  H  H253  1  0.252700  0.529700  0.409000  1.0
  H  H254  1  0.252700  0.470300  0.091000  1.0
  H  H255  1  0.752700  0.029700  0.409000  1.0
  H  H256  1  0.752700  0.970300  0.091000  1.0
  H  H257  1  0.705600  0.512500  0.630300  1.0
  H  H258  1  0.705600  0.487500  0.869700  1.0
  H  H259  1  0.205600  0.012500  0.630300  1.0
  H  H260  1  0.205600  0.987500  0.869700  1.0
  H  H261  1  0.294400  0.487500  0.369700  1.0
  H  H262  1  0.294400  0.512500  0.130300  1.0
  H  H263  1  0.794400  0.987500  0.369700  1.0
  H  H264  1  0.794400  0.012500  0.130300  1.0
  H  H265  1  0.699800  0.618400  0.540200  1.0
  H  H266  1  0.699800  0.381600  0.959800  1.0
  H  H267  1  0.199800  0.118400  0.540200  1.0
  H  H268  1  0.199800  0.881600  0.959800  1.0
  H  H269  1  0.300200  0.381600  0.459800  1.0
  H  H270  1  0.300200  0.618400  0.040200  1.0
  H  H271  1  0.800200  0.881600  0.459800  1.0
  H  H272  1  0.800200  0.118400  0.040200  1.0
  H  H273  1  0.658200  0.660700  0.579600  1.0
  H  H274  1  0.658200  0.339300  0.920400  1.0
  H  H275  1  0.158200  0.160700  0.579600  1.0
  H  H276  1  0.158200  0.839300  0.920400  1.0
  H  H277  1  0.341800  0.339300  0.420400  1.0
  H  H278  1  0.341800  0.660700  0.079600  1.0
  H  H279  1  0.841800  0.839300  0.420400  1.0
  H  H280  1  0.841800  0.160700  0.079600  1.0
  H  H281  1  0.641400  0.639200  0.632300  1.0
  H  H282  1  0.641400  0.360800  0.867700  1.0
  H  H283  1  0.141400  0.139200  0.632300  1.0
  H  H284  1  0.141400  0.860800  0.867700  1.0
  H  H285  1  0.358600  0.360800  0.367700  1.0
  H  H286  1  0.358600  0.639200  0.132300  1.0
  H  H287  1  0.858600  0.860800  0.367700  1.0
  H  H288  1  0.858600  0.139200  0.132300  1.0
  H  H289  1  0.812700  0.612200  0.617100  1.0
  H  H290  1  0.812700  0.387800  0.882900  1.0
  H  H291  1  0.312700  0.112200  0.617100  1.0
  H  H292  1  0.312700  0.887800  0.882900  1.0
  H  H293  1  0.187300  0.387800  0.382900  1.0
  H  H294  1  0.187300  0.612200  0.117100  1.0
  H  H295  1  0.687300  0.887800  0.382900  1.0
  H  H296  1  0.687300  0.112200  0.117100  1.0
  H  H297  1  0.831400  0.544500  0.623800  1.0
  H  H298  1  0.831400  0.455500  0.876200  1.0
  H  H299  1  0.331400  0.044500  0.623800  1.0
  H  H300  1  0.331400  0.955500  0.876200  1.0
  H  H301  1  0.168600  0.455500  0.376200  1.0
  H  H302  1  0.168600  0.544500  0.123800  1.0
  H  H303  1  0.668600  0.955500  0.376200  1.0
  H  H304  1  0.668600  0.044500  0.123800  1.0
  H  H305  1  0.806200  0.514700  0.671100  1.0
  H  H306  1  0.806200  0.485300  0.828900  1.0
  H  H307  1  0.306200  0.014700  0.671100  1.0
  H  H308  1  0.306200  0.985300  0.828900  1.0
  H  H309  1  0.193800  0.485300  0.328900  1.0
  H  H310  1  0.193800  0.514700  0.171100  1.0
  H  H311  1  0.693800  0.985300  0.328900  1.0
  H  H312  1  0.693800  0.014700  0.171100  1.0
  H  H313  1  0.762300  0.552600  0.711800  1.0
  H  H314  1  0.762300  0.447400  0.788200  1.0
  H  H315  1  0.262300  0.052600  0.711800  1.0
  H  H316  1  0.262300  0.947400  0.788200  1.0
  H  H317  1  0.237700  0.447400  0.288200  1.0
  H  H318  1  0.237700  0.552600  0.211800  1.0
  H  H319  1  0.737700  0.947400  0.288200  1.0
  H  H320  1  0.737700  0.052600  0.211800  1.0
  H  H321  1  0.764300  0.753700  0.637300  1.0
  H  H322  1  0.764300  0.246300  0.862700  1.0
  H  H323  1  0.264300  0.253700  0.637300  1.0
  H  H324  1  0.264300  0.746300  0.862700  1.0
  H  H325  1  0.235700  0.246300  0.362700  1.0
  H  H326  1  0.235700  0.753700  0.137300  1.0
  H  H327  1  0.735700  0.746300  0.362700  1.0
  H  H328  1  0.735700  0.253700  0.137300  1.0
  H  H329  1  0.795000  0.684100  0.615400  1.0
  H  H330  1  0.795000  0.315900  0.884600  1.0
  H  H331  1  0.295000  0.184100  0.615400  1.0
  H  H332  1  0.295000  0.815900  0.884600  1.0
  H  H333  1  0.205000  0.315900  0.384600  1.0
  H  H334  1  0.205000  0.684100  0.115400  1.0
  H  H335  1  0.705000  0.815900  0.384600  1.0
  H  H336  1  0.705000  0.184100  0.115400  1.0
  H  H337  1  0.724500  0.781600  0.693500  1.0
  H  H338  1  0.724500  0.218400  0.806500  1.0
  H  H339  1  0.224500  0.281600  0.693500  1.0
  H  H340  1  0.224500  0.718400  0.806500  1.0
  H  H341  1  0.275500  0.218400  0.306500  1.0
  H  H342  1  0.275500  0.781600  0.193500  1.0
  H  H343  1  0.775500  0.718400  0.306500  1.0
  H  H344  1  0.775500  0.281600  0.193500  1.0
  H  H345  1  0.713700  0.750500  0.720500  1.0
  H  H346  1  0.713700  0.249500  0.779500  1.0
  H  H347  1  0.213700  0.250500  0.720500  1.0
  H  H348  1  0.213700  0.749500  0.779500  1.0
  H  H349  1  0.286300  0.249500  0.279500  1.0
  H  H350  1  0.286300  0.750500  0.220500  1.0
  H  H351  1  0.786300  0.749500  0.279500  1.0
  H  H352  1  0.786300  0.250500  0.220500  1.0
  H  H353  1  0.404800  0.970600  0.714700  1.0
  H  H354  1  0.404800  0.029400  0.785300  1.0
  H  H355  1  0.904800  0.470600  0.714700  1.0
  H  H356  1  0.904800  0.529400  0.785300  1.0
  H  H357  1  0.595200  0.029400  0.285300  1.0
  H  H358  1  0.595200  0.970600  0.214700  1.0
  H  H359  1  0.095200  0.529400  0.285300  1.0
  H  H360  1  0.095200  0.470600  0.214700  1.0
  H  H361  1  0.398900  0.032300  0.690900  1.0
  H  H362  1  0.398900  0.967700  0.809100  1.0
  H  H363  1  0.898900  0.532300  0.690900  1.0
  H  H364  1  0.898900  0.467700  0.809100  1.0
  H  H365  1  0.601100  0.967700  0.309100  1.0
  H  H366  1  0.601100  0.032300  0.190900  1.0
  H  H367  1  0.101100  0.467700  0.309100  1.0
  H  H368  1  0.101100  0.532300  0.190900  1.0
  H  H369  1  0.444100  0.044400  0.645000  1.0
  H  H370  1  0.444100  0.955600  0.855000  1.0
  H  H371  1  0.944100  0.544400  0.645000  1.0
  H  H372  1  0.944100  0.455600  0.855000  1.0
  H  H373  1  0.555900  0.955600  0.355000  1.0
  H  H374  1  0.555900  0.044400  0.145000  1.0
  H  H375  1  0.055900  0.455600  0.355000  1.0
  H  H376  1  0.055900  0.544400  0.145000  1.0
  H  H377  1  0.495100  0.994700  0.622900  1.0
  H  H378  1  0.495100  0.005300  0.877100  1.0
  H  H379  1  0.995100  0.494700  0.622900  1.0
  H  H380  1  0.995100  0.505300  0.877100  1.0
  H  H381  1  0.504900  0.005300  0.377100  1.0
  H  H382  1  0.504900  0.994700  0.122900  1.0
  H  H383  1  0.004900  0.505300  0.377100  1.0
  H  H384  1  0.004900  0.494700  0.122900  1.0
  H  H385  1  0.440800  0.830400  0.734100  1.0
  H  H386  1  0.440800  0.169600  0.765900  1.0
  H  H387  1  0.940800  0.330400  0.734100  1.0
  H  H388  1  0.940800  0.669600  0.765900  1.0
  H  H389  1  0.559200  0.169600  0.265900  1.0
  H  H390  1  0.559200  0.830400  0.234100  1.0
  H  H391  1  0.059200  0.669600  0.265900  1.0
  H  H392  1  0.059200  0.330400  0.234100  1.0
  H  H393  1  0.411700  0.902800  0.734500  1.0
  H  H394  1  0.411700  0.097200  0.765500  1.0
  H  H395  1  0.911700  0.402800  0.734500  1.0
  H  H396  1  0.911700  0.597200  0.765500  1.0
  H  H397  1  0.588300  0.097200  0.265500  1.0
  H  H398  1  0.588300  0.902800  0.234500  1.0
  H  H399  1  0.088300  0.597200  0.265500  1.0
  H  H400  1  0.088300  0.402800  0.234500  1.0
  H  H401  1  0.511000  0.805400  0.660600  1.0
  H  H402  1  0.511000  0.194600  0.839400  1.0
  H  H403  1  0.011000  0.305400  0.660600  1.0
  H  H404  1  0.011000  0.694600  0.839400  1.0
  H  H405  1  0.489000  0.194600  0.339400  1.0
  H  H406  1  0.489000  0.805400  0.160600  1.0
  H  H407  1  0.989000  0.694600  0.339400  1.0
  H  H408  1  0.989000  0.305400  0.160600  1.0
  H  H409  1  0.494900  0.786100  0.693600  1.0
  H  H410  1  0.494900  0.213900  0.806400  1.0
  H  H411  1  0.994900  0.286100  0.693600  1.0
  H  H412  1  0.994900  0.713900  0.806400  1.0
  H  H413  1  0.505100  0.213900  0.306400  1.0
  H  H414  1  0.505100  0.786100  0.193600  1.0
  H  H415  1  0.005100  0.713900  0.306400  1.0
  H  H416  1  0.005100  0.286100  0.193600  1.0
  H  H417  1  0.669000  0.700500  0.654600  1.0
  H  H418  1  0.669000  0.299500  0.845400  1.0
  H  H419  1  0.169000  0.200500  0.654600  1.0
  H  H420  1  0.169000  0.799500  0.845400  1.0
  H  H421  1  0.331000  0.299500  0.345400  1.0
  H  H422  1  0.331000  0.700500  0.154600  1.0
  H  H423  1  0.831000  0.799500  0.345400  1.0
  H  H424  1  0.831000  0.200500  0.154600  1.0
  H  H425  1  0.594600  0.696600  0.636700  1.0
  H  H426  1  0.594600  0.303400  0.863300  1.0
  H  H427  1  0.094600  0.196600  0.636700  1.0
  H  H428  1  0.094600  0.803400  0.863300  1.0
  H  H429  1  0.405400  0.303400  0.363300  1.0
  H  H430  1  0.405400  0.696600  0.136700  1.0
  H  H431  1  0.905400  0.803400  0.363300  1.0
  H  H432  1  0.905400  0.196600  0.136700  1.0
  H  H433  1  0.543700  0.747400  0.656900  1.0
  H  H434  1  0.543700  0.252600  0.843100  1.0
  H  H435  1  0.043700  0.247400  0.656900  1.0
  H  H436  1  0.043700  0.752600  0.843100  1.0
  H  H437  1  0.456300  0.252600  0.343100  1.0
  H  H438  1  0.456300  0.747400  0.156900  1.0
  H  H439  1  0.956300  0.752600  0.343100  1.0
  H  H440  1  0.956300  0.247400  0.156900  1.0
  H  H441  1  0.676500  0.818000  0.727400  1.0
  H  H442  1  0.676500  0.182000  0.772600  1.0
  H  H443  1  0.176500  0.318000  0.727400  1.0
  H  H444  1  0.176500  0.682000  0.772600  1.0
  H  H445  1  0.323500  0.182000  0.272600  1.0
  H  H446  1  0.323500  0.818000  0.227400  1.0
  H  H447  1  0.823500  0.682000  0.272600  1.0
  H  H448  1  0.823500  0.318000  0.227400  1.0
  H  H449  1  0.625700  0.868800  0.747700  1.0
  H  H450  1  0.625700  0.131200  0.752300  1.0
  H  H451  1  0.125700  0.368800  0.747700  1.0
  H  H452  1  0.125700  0.631200  0.752300  1.0
  H  H453  1  0.374300  0.131200  0.252300  1.0
  H  H454  1  0.374300  0.868800  0.247700  1.0
  H  H455  1  0.874300  0.631200  0.252300  1.0
  H  H456  1  0.874300  0.368800  0.247700  1.0
  H  H457  1  0.551200  0.864800  0.729800  1.0
  H  H458  1  0.551200  0.135200  0.770200  1.0
  H  H459  1  0.051200  0.364800  0.729800  1.0
  H  H460  1  0.051200  0.635200  0.770200  1.0
  H  H461  1  0.448800  0.135200  0.270200  1.0
  H  H462  1  0.448800  0.864800  0.229800  1.0
  H  H463  1  0.948800  0.635200  0.270200  1.0
  H  H464  1  0.948800  0.364800  0.229800  1.0
  H  H465  1  0.682000  0.886500  0.663800  1.0
  H  H466  1  0.682000  0.113500  0.836200  1.0
  H  H467  1  0.182000  0.386500  0.663800  1.0
  H  H468  1  0.182000  0.613500  0.836200  1.0
  H  H469  1  0.318000  0.113500  0.336200  1.0
  H  H470  1  0.318000  0.886500  0.163800  1.0
  H  H471  1  0.818000  0.613500  0.336200  1.0
  H  H472  1  0.818000  0.386500  0.163800  1.0
  H  H473  1  0.688900  0.944700  0.702700  1.0
  H  H474  1  0.688900  0.055300  0.797300  1.0
  H  H475  1  0.188900  0.444700  0.702700  1.0
  H  H476  1  0.188900  0.555300  0.797300  1.0
  H  H477  1  0.311100  0.055300  0.297300  1.0
  H  H478  1  0.311100  0.944700  0.202700  1.0
  H  H479  1  0.811100  0.555300  0.297300  1.0
  H  H480  1  0.811100  0.444700  0.202700  1.0
  H  H481  1  0.626700  0.986200  0.716200  1.0
  H  H482  1  0.626700  0.013800  0.783800  1.0
  H  H483  1  0.126700  0.486200  0.716200  1.0
  H  H484  1  0.126700  0.513800  0.783800  1.0
  H  H485  1  0.373300  0.013800  0.283800  1.0
  H  H486  1  0.373300  0.986200  0.216200  1.0
  H  H487  1  0.873300  0.513800  0.283800  1.0
  H  H488  1  0.873300  0.486200  0.216200  1.0
  H  H489  1  0.557600  0.969600  0.690900  1.0
  H  H490  1  0.557600  0.030400  0.809100  1.0
  H  H491  1  0.057600  0.469600  0.690900  1.0
  H  H492  1  0.057600  0.530400  0.809100  1.0
  H  H493  1  0.442400  0.030400  0.309100  1.0
  H  H494  1  0.442400  0.969600  0.190900  1.0
  H  H495  1  0.942400  0.530400  0.309100  1.0
  H  H496  1  0.942400  0.469600  0.190900  1.0
  H  H497  1  0.621000  0.772400  0.589500  1.0
  H  H498  1  0.621000  0.227600  0.910500  1.0
  H  H499  1  0.121000  0.272400  0.589500  1.0
  H  H500  1  0.121000  0.727600  0.910500  1.0
  H  H501  1  0.379000  0.227600  0.410500  1.0
  H  H502  1  0.379000  0.772400  0.089500  1.0
  H  H503  1  0.879000  0.727600  0.410500  1.0
  H  H504  1  0.879000  0.272400  0.089500  1.0
  H  H505  1  0.667900  0.824400  0.625500  1.0
  H  H506  1  0.667900  0.175600  0.874500  1.0
  H  H507  1  0.167900  0.324400  0.625500  1.0
  H  H508  1  0.167900  0.675600  0.874500  1.0
  H  H509  1  0.332100  0.175600  0.374500  1.0
  H  H510  1  0.332100  0.824400  0.125500  1.0
  H  H511  1  0.832100  0.675600  0.374500  1.0
  H  H512  1  0.832100  0.324400  0.125500  1.0
  H  H513  1  0.502600  0.801800  0.595000  1.0
  H  H514  1  0.502600  0.198200  0.905000  1.0
  H  H515  1  0.002600  0.301800  0.595000  1.0
  H  H516  1  0.002600  0.698200  0.905000  1.0
  H  H517  1  0.497400  0.198200  0.405000  1.0
  H  H518  1  0.497400  0.801800  0.095000  1.0
  H  H519  1  0.997400  0.698200  0.405000  1.0
  H  H520  1  0.997400  0.301800  0.095000  1.0
  H  H521  1  0.533900  0.765300  0.579400  1.0
  H  H522  1  0.533900  0.234700  0.920600  1.0
  H  H523  1  0.033900  0.265300  0.579400  1.0
  H  H524  1  0.033900  0.734700  0.920600  1.0
  H  H525  1  0.466100  0.234700  0.420600  1.0
  H  H526  1  0.466100  0.765300  0.079400  1.0
  H  H527  1  0.966100  0.734700  0.420600  1.0
  H  H528  1  0.966100  0.265300  0.079400  1.0
  H  H529  1  0.282800  0.726700  0.373600  1.0
  H  H530  1  0.282800  0.273300  0.126400  1.0
  H  H531  1  0.782800  0.226700  0.373600  1.0
  H  H532  1  0.782800  0.773300  0.126400  1.0
  H  H533  1  0.717200  0.273300  0.626400  1.0
  H  H534  1  0.717200  0.726700  0.873600  1.0
  H  H535  1  0.217200  0.773300  0.626400  1.0
  H  H536  1  0.217200  0.226700  0.873600  1.0
  H  H537  1  0.276700  0.663700  0.340600  1.0
  H  H538  1  0.276700  0.336300  0.159400  1.0
  H  H539  1  0.776700  0.163700  0.340600  1.0
  H  H540  1  0.776700  0.836300  0.159400  1.0
  H  H541  1  0.723300  0.336300  0.659400  1.0
  H  H542  1  0.723300  0.663700  0.840600  1.0
  H  H543  1  0.223300  0.836300  0.659400  1.0
  H  H544  1  0.223300  0.163700  0.840600  1.0
  H  H545  1  0.341200  0.627500  0.322500  1.0
  H  H546  1  0.341200  0.372500  0.177500  1.0
  H  H547  1  0.841200  0.127500  0.322500  1.0
  H  H548  1  0.841200  0.872500  0.177500  1.0
  H  H549  1  0.658800  0.372500  0.677500  1.0
  H  H550  1  0.658800  0.627500  0.822500  1.0
  H  H551  1  0.158800  0.872500  0.677500  1.0
  H  H552  1  0.158800  0.127500  0.822500  1.0
  H  H553  1  0.411700  0.654300  0.337400  1.0
  H  H554  1  0.411700  0.345700  0.162600  1.0
  H  H555  1  0.911700  0.154300  0.337400  1.0
  H  H556  1  0.911700  0.845700  0.162600  1.0
  H  H557  1  0.588300  0.345700  0.662600  1.0
  H  H558  1  0.588300  0.654300  0.837400  1.0
  H  H559  1  0.088300  0.845700  0.662600  1.0
  H  H560  1  0.088300  0.154300  0.837400  1.0
  H  H561  1  0.345500  0.852700  0.435100  1.0
  H  H562  1  0.345500  0.147300  0.064900  1.0
  H  H563  1  0.845500  0.352700  0.435100  1.0
  H  H564  1  0.845500  0.647300  0.064900  1.0
  H  H565  1  0.654500  0.147300  0.564900  1.0
  H  H566  1  0.654500  0.852700  0.935100  1.0
  H  H567  1  0.154500  0.647300  0.564900  1.0
  H  H568  1  0.154500  0.352700  0.935100  1.0
  H  H569  1  0.298900  0.799800  0.399800  1.0
  H  H570  1  0.298900  0.200200  0.100200  1.0
  H  H571  1  0.798900  0.299800  0.399800  1.0
  H  H572  1  0.798900  0.700200  0.100200  1.0
  H  H573  1  0.701100  0.200200  0.600200  1.0
  H  H574  1  0.701100  0.799800  0.899800  1.0
  H  H575  1  0.201100  0.700200  0.600200  1.0
  H  H576  1  0.201100  0.299800  0.899800  1.0
  H  H577  1  0.431900  0.856500  0.450900  1.0
  H  H578  1  0.431900  0.143500  0.049100  1.0
  H  H579  1  0.931900  0.356500  0.450900  1.0
  H  H580  1  0.931900  0.643500  0.049100  1.0
  H  H581  1  0.568100  0.143500  0.549100  1.0
  H  H582  1  0.568100  0.856500  0.950900  1.0
  H  H583  1  0.068100  0.643500  0.549100  1.0
  H  H584  1  0.068100  0.356500  0.950900  1.0
  H  H585  1  0.463400  0.822800  0.431300  1.0
  H  H586  1  0.463400  0.177200  0.068700  1.0
  H  H587  1  0.963400  0.322800  0.431300  1.0
  H  H588  1  0.963400  0.677200  0.068700  1.0
  H  H589  1  0.536600  0.177200  0.568700  1.0
  H  H590  1  0.536600  0.822800  0.931300  1.0
  H  H591  1  0.036600  0.677200  0.568700  1.0
  H  H592  1  0.036600  0.322800  0.931300  1.0
  H  H593  1  0.582100  0.843100  0.549900  1.0
  H  H594  1  0.582100  0.156900  0.950100  1.0
  H  H595  1  0.082100  0.343100  0.549900  1.0
  H  H596  1  0.082100  0.656900  0.950100  1.0
  H  H597  1  0.417900  0.156900  0.450100  1.0
  H  H598  1  0.417900  0.843100  0.049900  1.0
  H  H599  1  0.917900  0.656900  0.450100  1.0
  H  H600  1  0.917900  0.343100  0.049900  1.0
  H  H601  1  0.571900  0.872100  0.499300  1.0
  H  H602  1  0.571900  0.127900  0.000700  1.0
  H  H603  1  0.071900  0.372100  0.499300  1.0
  H  H604  1  0.071900  0.627900  0.000700  1.0
  H  H605  1  0.428100  0.127900  0.500700  1.0
  H  H606  1  0.428100  0.872100  0.999300  1.0
  H  H607  1  0.928100  0.627900  0.500700  1.0
  H  H608  1  0.928100  0.372100  0.999300  1.0
  H  H609  1  0.508500  0.855900  0.466200  1.0
  H  H610  1  0.508500  0.144100  0.033800  1.0
  H  H611  1  0.008500  0.355900  0.466200  1.0
  H  H612  1  0.008500  0.644100  0.033800  1.0
  H  H613  1  0.491500  0.144100  0.533800  1.0
  H  H614  1  0.491500  0.855900  0.966200  1.0
  H  H615  1  0.991500  0.644100  0.533800  1.0
  H  H616  1  0.991500  0.355900  0.966200  1.0
  H  H617  1  0.459400  0.761300  0.558200  1.0
  H  H618  1  0.459400  0.238700  0.941800  1.0
  H  H619  1  0.959400  0.261300  0.558200  1.0
  H  H620  1  0.959400  0.738700  0.941800  1.0
  H  H621  1  0.540600  0.238700  0.441800  1.0
  H  H622  1  0.540600  0.761300  0.058200  1.0
  H  H623  1  0.040600  0.738700  0.441800  1.0
  H  H624  1  0.040600  0.261300  0.058200  1.0
  H  H625  1  0.396000  0.745000  0.525100  1.0
  H  H626  1  0.396000  0.255000  0.974900  1.0
  H  H627  1  0.896000  0.245000  0.525100  1.0
  H  H628  1  0.896000  0.755000  0.974900  1.0
  H  H629  1  0.604000  0.255000  0.474900  1.0
  H  H630  1  0.604000  0.745000  0.025100  1.0
  H  H631  1  0.104000  0.755000  0.474900  1.0
  H  H632  1  0.104000  0.245000  0.025100  1.0
  H  H633  1  0.385900  0.774000  0.474500  1.0
  H  H634  1  0.385900  0.226000  0.025500  1.0
  H  H635  1  0.885900  0.274000  0.474500  1.0
  H  H636  1  0.885900  0.726000  0.025500  1.0
  H  H637  1  0.614100  0.226000  0.525500  1.0
  H  H638  1  0.614100  0.774000  0.974500  1.0
  H  H639  1  0.114100  0.726000  0.525500  1.0
  H  H640  1  0.114100  0.274000  0.974500  1.0
  H  H641  1  0.516500  0.762800  0.274200  1.0
  H  H642  1  0.516500  0.237200  0.225800  1.0
  H  H643  1  0.016500  0.262800  0.274200  1.0
  H  H644  1  0.016500  0.737200  0.225800  1.0
  H  H645  1  0.483500  0.237200  0.725800  1.0
  H  H646  1  0.483500  0.762800  0.774200  1.0
  H  H647  1  0.983500  0.737200  0.725800  1.0
  H  H648  1  0.983500  0.262800  0.774200  1.0
  H  H649  1  0.495100  0.831400  0.276000  1.0
  H  H650  1  0.495100  0.168600  0.224000  1.0
  H  H651  1  0.995100  0.331400  0.276000  1.0
  H  H652  1  0.995100  0.668600  0.224000  1.0
  H  H653  1  0.504900  0.168600  0.724000  1.0
  H  H654  1  0.504900  0.831400  0.776000  1.0
  H  H655  1  0.004900  0.668600  0.724000  1.0
  H  H656  1  0.004900  0.331400  0.776000  1.0
  H  H657  1  0.452500  0.861400  0.321400  1.0
  H  H658  1  0.452500  0.138600  0.178600  1.0
  H  H659  1  0.952500  0.361400  0.321400  1.0
  H  H660  1  0.952500  0.638600  0.178600  1.0
  H  H661  1  0.547500  0.138600  0.678600  1.0
  H  H662  1  0.547500  0.861400  0.821400  1.0
  H  H663  1  0.047500  0.638600  0.678600  1.0
  H  H664  1  0.047500  0.361400  0.821400  1.0
  H  H665  1  0.431500  0.822900  0.364900  1.0
  H  H666  1  0.431500  0.177100  0.135100  1.0
  H  H667  1  0.931500  0.322900  0.364900  1.0
  H  H668  1  0.931500  0.677100  0.135100  1.0
  H  H669  1  0.568500  0.177100  0.635100  1.0
  H  H670  1  0.568500  0.822900  0.864900  1.0
  H  H671  1  0.068500  0.677100  0.635100  1.0
  H  H672  1  0.068500  0.322900  0.864900  1.0
  H  H673  1  0.522400  0.617500  0.298100  1.0
  H  H674  1  0.522400  0.382500  0.201900  1.0
  H  H675  1  0.022400  0.117500  0.298100  1.0
  H  H676  1  0.022400  0.882500  0.201900  1.0
  H  H677  1  0.477600  0.382500  0.701900  1.0
  H  H678  1  0.477600  0.617500  0.798100  1.0
  H  H679  1  0.977600  0.882500  0.701900  1.0
  H  H680  1  0.977600  0.117500  0.798100  1.0
  H  H681  1  0.524400  0.685000  0.272800  1.0
  H  H682  1  0.524400  0.315000  0.227200  1.0
  H  H683  1  0.024400  0.185000  0.272800  1.0
  H  H684  1  0.024400  0.815000  0.227200  1.0
  H  H685  1  0.475600  0.315000  0.727200  1.0
  H  H686  1  0.475600  0.685000  0.772800  1.0
  H  H687  1  0.975600  0.815000  0.727200  1.0
  H  H688  1  0.975600  0.185000  0.772800  1.0
  H  H689  1  0.489700  0.596300  0.356000  1.0
  H  H690  1  0.489700  0.403700  0.144000  1.0
  H  H691  1  0.989700  0.096300  0.356000  1.0
  H  H692  1  0.989700  0.903700  0.144000  1.0
  H  H693  1  0.510300  0.403700  0.644000  1.0
  H  H694  1  0.510300  0.596300  0.856000  1.0
  H  H695  1  0.010300  0.903700  0.644000  1.0
  H  H696  1  0.010300  0.096300  0.856000  1.0
  H  H697  1  0.464400  0.631000  0.379800  1.0
  H  H698  1  0.464400  0.369000  0.120200  1.0
  H  H699  1  0.964400  0.131000  0.379800  1.0
  H  H700  1  0.964400  0.869000  0.120200  1.0
  H  H701  1  0.535600  0.369000  0.620200  1.0
  H  H702  1  0.535600  0.631000  0.879800  1.0
  H  H703  1  0.035600  0.869000  0.620200  1.0
  H  H704  1  0.035600  0.131000  0.879800  1.0
  H  H705  1  0.639100  0.449100  0.582000  1.0
  H  H706  1  0.639100  0.550900  0.918000  1.0
  H  H707  1  0.139100  0.949100  0.582000  1.0
  H  H708  1  0.139100  0.050900  0.918000  1.0
  H  H709  1  0.360900  0.550900  0.418000  1.0
  H  H710  1  0.360900  0.449100  0.082000  1.0
  H  H711  1  0.860900  0.050900  0.418000  1.0
  H  H712  1  0.860900  0.949100  0.082000  1.0
  H  H713  1  0.680400  0.388400  0.577400  1.0
  H  H714  1  0.680400  0.611600  0.922600  1.0
  H  H715  1  0.180400  0.888400  0.577400  1.0
  H  H716  1  0.180400  0.111600  0.922600  1.0
  H  H717  1  0.319600  0.611600  0.422600  1.0
  H  H718  1  0.319600  0.388400  0.077400  1.0
  H  H719  1  0.819600  0.111600  0.422600  1.0
  H  H720  1  0.819600  0.888400  0.077400  1.0
  H  H721  1  0.713100  0.364000  0.525800  1.0
  H  H722  1  0.713100  0.636000  0.974200  1.0
  H  H723  1  0.213100  0.864000  0.525800  1.0
  H  H724  1  0.213100  0.136000  0.974200  1.0
  H  H725  1  0.286900  0.636000  0.474200  1.0
  H  H726  1  0.286900  0.364000  0.025800  1.0
  H  H727  1  0.786900  0.136000  0.474200  1.0
  H  H728  1  0.786900  0.864000  0.025800  1.0
  H  H729  1  0.704500  0.400400  0.478800  1.0
  H  H730  1  0.704500  0.599600  0.021200  1.0
  H  H731  1  0.204500  0.900400  0.478800  1.0
  H  H732  1  0.204500  0.099600  0.021200  1.0
  H  H733  1  0.295500  0.599600  0.521200  1.0
  H  H734  1  0.295500  0.400400  0.978800  1.0
  H  H735  1  0.795500  0.099600  0.521200  1.0
  H  H736  1  0.795500  0.900400  0.978800  1.0
  H  H737  1  0.579800  0.583200  0.559800  1.0
  H  H738  1  0.579800  0.416800  0.940200  1.0
  H  H739  1  0.079800  0.083200  0.559800  1.0
  H  H740  1  0.079800  0.916800  0.940200  1.0
  H  H741  1  0.420200  0.416800  0.440200  1.0
  H  H742  1  0.420200  0.583200  0.059800  1.0
  H  H743  1  0.920200  0.916800  0.440200  1.0
  H  H744  1  0.920200  0.083200  0.059800  1.0
  H  H745  1  0.596900  0.515500  0.582000  1.0
  H  H746  1  0.596900  0.484500  0.918000  1.0
  H  H747  1  0.096900  0.015500  0.582000  1.0
  H  H748  1  0.096900  0.984500  0.918000  1.0
  H  H749  1  0.403100  0.484500  0.418000  1.0
  H  H750  1  0.403100  0.515500  0.082000  1.0
  H  H751  1  0.903100  0.984500  0.418000  1.0
  H  H752  1  0.903100  0.015500  0.082000  1.0
  H  H753  1  0.638300  0.585700  0.477600  1.0
  H  H754  1  0.638300  0.414300  0.022400  1.0
  H  H755  1  0.138300  0.085700  0.477600  1.0
  H  H756  1  0.138300  0.914300  0.022400  1.0
  H  H757  1  0.361700  0.414300  0.522400  1.0
  H  H758  1  0.361700  0.585700  0.977600  1.0
  H  H759  1  0.861700  0.914300  0.522400  1.0
  H  H760  1  0.861700  0.085700  0.977600  1.0
  H  H761  1  0.611900  0.616000  0.504700  1.0
  H  H762  1  0.611900  0.384000  0.995300  1.0
  H  H763  1  0.111900  0.116000  0.504700  1.0
  H  H764  1  0.111900  0.884000  0.995300  1.0
  H  H765  1  0.388100  0.384000  0.495300  1.0
  H  H766  1  0.388100  0.616000  0.004700  1.0
  H  H767  1  0.888100  0.884000  0.495300  1.0
  H  H768  1  0.888100  0.116000  0.004700  1.0
  H  H769  1  0.566200  0.667800  0.366900  1.0
  H  H770  1  0.566200  0.332200  0.133100  1.0
  H  H771  1  0.066200  0.167800  0.366900  1.0
  H  H772  1  0.066200  0.832200  0.133100  1.0
  H  H773  1  0.433800  0.332200  0.633100  1.0
  H  H774  1  0.433800  0.667800  0.866900  1.0
  H  H775  1  0.933800  0.832200  0.633100  1.0
  H  H776  1  0.933800  0.167800  0.866900  1.0
  H  H777  1  0.627400  0.673300  0.403800  1.0
  H  H778  1  0.627400  0.326700  0.096200  1.0
  H  H779  1  0.127400  0.173300  0.403800  1.0
  H  H780  1  0.127400  0.826700  0.096200  1.0
  H  H781  1  0.372600  0.326700  0.596200  1.0
  H  H782  1  0.372600  0.673300  0.903800  1.0
  H  H783  1  0.872600  0.826700  0.596200  1.0
  H  H784  1  0.872600  0.173300  0.903800  1.0
  H  H785  1  0.628900  0.635600  0.450400  1.0
  H  H786  1  0.628900  0.364400  0.049600  1.0
  H  H787  1  0.128900  0.135600  0.450400  1.0
  H  H788  1  0.128900  0.864400  0.049600  1.0
  H  H789  1  0.371100  0.364400  0.549600  1.0
  H  H790  1  0.371100  0.635600  0.950400  1.0
  H  H791  1  0.871100  0.864400  0.549600  1.0
  H  H792  1  0.871100  0.135600  0.950400  1.0
  H  H793  1  0.472100  0.576500  0.410100  1.0
  H  H794  1  0.472100  0.423500  0.089900  1.0
  H  H795  1  0.972100  0.076500  0.410100  1.0
  H  H796  1  0.972100  0.923500  0.089900  1.0
  H  H797  1  0.527900  0.423500  0.589900  1.0
  H  H798  1  0.527900  0.576500  0.910100  1.0
  H  H799  1  0.027900  0.923500  0.589900  1.0
  H  H800  1  0.027900  0.076500  0.910100  1.0
  H  H801  1  0.473700  0.538700  0.456700  1.0
  H  H802  1  0.473700  0.461300  0.043300  1.0
  H  H803  1  0.973700  0.038700  0.456700  1.0
  H  H804  1  0.973700  0.961300  0.043300  1.0
  H  H805  1  0.526300  0.461300  0.543300  1.0
  H  H806  1  0.526300  0.538700  0.956700  1.0
  H  H807  1  0.026300  0.961300  0.543300  1.0
  H  H808  1  0.026300  0.038700  0.956700  1.0
  H  H809  1  0.534800  0.544200  0.493500  1.0
  H  H810  1  0.534800  0.455800  0.006500  1.0
  H  H811  1  0.034800  0.044200  0.493500  1.0
  H  H812  1  0.034800  0.955800  0.006500  1.0
  H  H813  1  0.465200  0.455800  0.506500  1.0
  H  H814  1  0.465200  0.544200  0.993500  1.0
  H  H815  1  0.965200  0.955800  0.506500  1.0
  H  H816  1  0.965200  0.044200  0.993500  1.0
  H  H817  1  0.751300  0.568300  0.825300  1.0
  H  H818  1  0.751300  0.431700  0.674700  1.0
  H  H819  1  0.251300  0.068300  0.825300  1.0
  H  H820  1  0.251300  0.931700  0.674700  1.0
  H  H821  1  0.248700  0.431700  0.174700  1.0
  H  H822  1  0.248700  0.568300  0.325300  1.0
  H  H823  1  0.748700  0.931700  0.174700  1.0
  H  H824  1  0.748700  0.068300  0.325300  1.0
  H  H825  1  0.688800  0.525400  0.822300  1.0
  H  H826  1  0.688800  0.474600  0.677700  1.0
  H  H827  1  0.188800  0.025400  0.822300  1.0
  H  H828  1  0.188800  0.974600  0.677700  1.0
  H  H829  1  0.311200  0.474600  0.177700  1.0
  H  H830  1  0.311200  0.525400  0.322300  1.0
  H  H831  1  0.811200  0.974600  0.177700  1.0
  H  H832  1  0.811200  0.025400  0.322300  1.0
  H  H833  1  0.637500  0.527100  0.778100  1.0
  H  H834  1  0.637500  0.472900  0.721900  1.0
  H  H835  1  0.137500  0.027100  0.778100  1.0
  H  H836  1  0.137500  0.972900  0.721900  1.0
  H  H837  1  0.362500  0.472900  0.221900  1.0
  H  H838  1  0.362500  0.527100  0.278100  1.0
  H  H839  1  0.862500  0.972900  0.221900  1.0
  H  H840  1  0.862500  0.027100  0.278100  1.0
  H  H841  1  0.648800  0.571800  0.736900  1.0
  H  H842  1  0.648800  0.428200  0.763100  1.0
  H  H843  1  0.148800  0.071800  0.736900  1.0
  H  H844  1  0.148800  0.928200  0.763100  1.0
  H  H845  1  0.351200  0.428200  0.263100  1.0
  H  H846  1  0.351200  0.571800  0.236900  1.0
  H  H847  1  0.851200  0.928200  0.263100  1.0
  H  H848  1  0.851200  0.071800  0.236900  1.0
  H  H849  1  0.855900  0.679100  0.806800  1.0
  H  H850  1  0.855900  0.320900  0.693200  1.0
  H  H851  1  0.355900  0.179100  0.806800  1.0
  H  H852  1  0.355900  0.820900  0.693200  1.0
  H  H853  1  0.144100  0.320900  0.193200  1.0
  H  H854  1  0.144100  0.679100  0.306800  1.0
  H  H855  1  0.644100  0.820900  0.193200  1.0
  H  H856  1  0.644100  0.179100  0.306800  1.0
  H  H857  1  0.812700  0.619400  0.826000  1.0
  H  H858  1  0.812700  0.380600  0.674000  1.0
  H  H859  1  0.312700  0.119400  0.826000  1.0
  H  H860  1  0.312700  0.880600  0.674000  1.0
  H  H861  1  0.187300  0.380600  0.174000  1.0
  H  H862  1  0.187300  0.619400  0.326000  1.0
  H  H863  1  0.687300  0.880600  0.174000  1.0
  H  H864  1  0.687300  0.119400  0.326000  1.0
  H  H865  1  0.839900  0.727300  0.757400  1.0
  H  H866  1  0.839900  0.272700  0.742600  1.0
  H  H867  1  0.339900  0.227300  0.757400  1.0
  H  H868  1  0.339900  0.772700  0.742600  1.0
  H  H869  1  0.160100  0.272700  0.242600  1.0
  H  H870  1  0.160100  0.727300  0.257400  1.0
  H  H871  1  0.660100  0.772700  0.242600  1.0
  H  H872  1  0.660100  0.227300  0.257400  1.0
  H  H873  1  0.797500  0.716000  0.733900  1.0
  H  H874  1  0.797500  0.284000  0.766100  1.0
  H  H875  1  0.297500  0.216000  0.733900  1.0
  H  H876  1  0.297500  0.784000  0.766100  1.0
  H  H877  1  0.202500  0.284000  0.266100  1.0
  H  H878  1  0.202500  0.716000  0.233900  1.0
  H  H879  1  0.702500  0.784000  0.266100  1.0
  H  H880  1  0.702500  0.216000  0.233900  1.0
  H  H881  1  0.987100  0.810800  0.506100  1.0
  H  H882  1  0.987100  0.189200  0.993900  1.0
  H  H883  1  0.487100  0.310800  0.506100  1.0
  H  H884  1  0.487100  0.689200  0.993900  1.0
  H  H885  1  0.012900  0.189200  0.493900  1.0
  H  H886  1  0.012900  0.810800  0.006100  1.0
  H  H887  1  0.512900  0.689200  0.493900  1.0
  H  H888  1  0.512900  0.310800  0.006100  1.0
  H  H889  1  0.046500  0.851800  0.491800  1.0
  H  H890  1  0.046500  0.148200  0.008200  1.0
  H  H891  1  0.546500  0.351800  0.491800  1.0
  H  H892  1  0.546500  0.648200  0.008200  1.0
  H  H893  1  0.953500  0.148200  0.508200  1.0
  H  H894  1  0.953500  0.851800  0.991800  1.0
  H  H895  1  0.453500  0.648200  0.508200  1.0
  H  H896  1  0.453500  0.351800  0.991800  1.0
  H  H897  1  0.108500  0.861500  0.527600  1.0
  H  H898  1  0.108500  0.138500  0.972400  1.0
  H  H899  1  0.608500  0.361500  0.527600  1.0
  H  H900  1  0.608500  0.638500  0.972400  1.0
  H  H901  1  0.891500  0.138500  0.472400  1.0
  H  H902  1  0.891500  0.861500  0.027600  1.0
  H  H903  1  0.391500  0.638500  0.472400  1.0
  H  H904  1  0.391500  0.361500  0.027600  1.0
  H  H905  1  0.111000  0.830200  0.577700  1.0
  H  H906  1  0.111000  0.169800  0.922300  1.0
  H  H907  1  0.611000  0.330200  0.577700  1.0
  H  H908  1  0.611000  0.669800  0.922300  1.0
  H  H909  1  0.889000  0.169800  0.422300  1.0
  H  H910  1  0.889000  0.830200  0.077700  1.0
  H  H911  1  0.389000  0.669800  0.422300  1.0
  H  H912  1  0.389000  0.330200  0.077700  1.0
  H  H913  1  0.897500  0.710400  0.553500  1.0
  H  H914  1  0.897500  0.289600  0.946500  1.0
  H  H915  1  0.397500  0.210400  0.553500  1.0
  H  H916  1  0.397500  0.789600  0.946500  1.0
  H  H917  1  0.102500  0.289600  0.446500  1.0
  H  H918  1  0.102500  0.710400  0.053500  1.0
  H  H919  1  0.602500  0.789600  0.446500  1.0
  H  H920  1  0.602500  0.210400  0.053500  1.0
  H  H921  1  0.931300  0.765600  0.521500  1.0
  H  H922  1  0.931300  0.234400  0.978500  1.0
  H  H923  1  0.431300  0.265600  0.521500  1.0
  H  H924  1  0.431300  0.734400  0.978500  1.0
  H  H925  1  0.068700  0.234400  0.478500  1.0
  H  H926  1  0.068700  0.765600  0.021500  1.0
  H  H927  1  0.568700  0.734400  0.478500  1.0
  H  H928  1  0.568700  0.265600  0.021500  1.0
  H  H929  1  0.974600  0.687900  0.621900  1.0
  H  H930  1  0.974600  0.312100  0.878100  1.0
  H  H931  1  0.474600  0.187900  0.621900  1.0
  H  H932  1  0.474600  0.812100  0.878100  1.0
  H  H933  1  0.025400  0.312100  0.378100  1.0
  H  H934  1  0.025400  0.687900  0.121900  1.0
  H  H935  1  0.525400  0.812100  0.378100  1.0
  H  H936  1  0.525400  0.187900  0.121900  1.0
  H  H937  1  0.931800  0.668800  0.602100  1.0
  H  H938  1  0.931800  0.331200  0.897900  1.0
  H  H939  1  0.431800  0.168800  0.602100  1.0
  H  H940  1  0.431800  0.831200  0.897900  1.0
  H  H941  1  0.068200  0.331200  0.397900  1.0
  H  H942  1  0.068200  0.668800  0.102100  1.0
  H  H943  1  0.568200  0.831200  0.397900  1.0
  H  H944  1  0.568200  0.168800  0.102100  1.0
  H  H945  1  0.857300  0.629100  0.732600  1.0
  H  H946  1  0.857300  0.370900  0.767400  1.0
  H  H947  1  0.357300  0.129100  0.732600  1.0
  H  H948  1  0.357300  0.870900  0.767400  1.0
  H  H949  1  0.142700  0.370900  0.267400  1.0
  H  H950  1  0.142700  0.629100  0.232600  1.0
  H  H951  1  0.642700  0.870900  0.267400  1.0
  H  H952  1  0.642700  0.129100  0.232600  1.0
  H  H953  1  0.905000  0.599100  0.690400  1.0
  H  H954  1  0.905000  0.400900  0.809600  1.0
  H  H955  1  0.405000  0.099100  0.690400  1.0
  H  H956  1  0.405000  0.900900  0.809600  1.0
  H  H957  1  0.095000  0.400900  0.309600  1.0
  H  H958  1  0.095000  0.599100  0.190400  1.0
  H  H959  1  0.595000  0.900900  0.309600  1.0
  H  H960  1  0.595000  0.099100  0.190400  1.0
  H  H961  1  0.931400  0.637600  0.648400  1.0
  H  H962  1  0.931400  0.362400  0.851600  1.0
  H  H963  1  0.431400  0.137600  0.648400  1.0
  H  H964  1  0.431400  0.862400  0.851600  1.0
  H  H965  1  0.068600  0.362400  0.351600  1.0
  H  H966  1  0.068600  0.637600  0.148400  1.0
  H  H967  1  0.568600  0.862400  0.351600  1.0
  H  H968  1  0.568600  0.137600  0.148400  1.0
  H  H969  1  0.839300  0.761000  0.708000  1.0
  H  H970  1  0.839300  0.239000  0.792000  1.0
  H  H971  1  0.339300  0.261000  0.708000  1.0
  H  H972  1  0.339300  0.739000  0.792000  1.0
  H  H973  1  0.160700  0.239000  0.292000  1.0
  H  H974  1  0.160700  0.761000  0.208000  1.0
  H  H975  1  0.660700  0.739000  0.292000  1.0
  H  H976  1  0.660700  0.261000  0.208000  1.0
  H  H977  1  0.865800  0.799500  0.666000  1.0
  H  H978  1  0.865800  0.200500  0.834000  1.0
  H  H979  1  0.365800  0.299500  0.666000  1.0
  H  H980  1  0.365800  0.700500  0.834000  1.0
  H  H981  1  0.134200  0.200500  0.334000  1.0
  H  H982  1  0.134200  0.799500  0.166000  1.0
  H  H983  1  0.634200  0.700500  0.334000  1.0
  H  H984  1  0.634200  0.299500  0.166000  1.0
  H  H985  1  0.913400  0.769500  0.623800  1.0
  H  H986  1  0.913400  0.230500  0.876200  1.0
  H  H987  1  0.413400  0.269500  0.623800  1.0
  H  H988  1  0.413400  0.730500  0.876200  1.0
  H  H989  1  0.086600  0.230500  0.376200  1.0
  H  H990  1  0.086600  0.769500  0.123800  1.0
  H  H991  1  0.586600  0.730500  0.376200  1.0
  H  H992  1  0.586600  0.269500  0.123800  1.0
  H  H993  1  0.423400  0.895700  0.531100  1.0
  H  H994  1  0.423400  0.104300  0.968900  1.0
  H  H995  1  0.923400  0.395700  0.531100  1.0
  H  H996  1  0.923400  0.604300  0.968900  1.0
  H  H997  1  0.576600  0.104300  0.468900  1.0
  H  H998  1  0.576600  0.895700  0.031100  1.0
  H  H999  1  0.076600  0.604300  0.468900  1.0
  H  H1000  1  0.076600  0.395700  0.031100  1.0
  H  H1001  1  0.368800  0.850100  0.546200  1.0
  H  H1002  1  0.368800  0.149900  0.953800  1.0
  H  H1003  1  0.868800  0.350100  0.546200  1.0
  H  H1004  1  0.868800  0.649900  0.953800  1.0
  H  H1005  1  0.631200  0.149900  0.453800  1.0
  H  H1006  1  0.631200  0.850100  0.046200  1.0
  H  H1007  1  0.131200  0.649900  0.453800  1.0
  H  H1008  1  0.131200  0.350100  0.046200  1.0
  H  H1009  1  0.373800  0.822700  0.597900  1.0
  H  H1010  1  0.373800  0.177300  0.902100  1.0
  H  H1011  1  0.873800  0.322700  0.597900  1.0
  H  H1012  1  0.873800  0.677300  0.902100  1.0
  H  H1013  1  0.626200  0.177300  0.402100  1.0
  H  H1014  1  0.626200  0.822700  0.097900  1.0
  H  H1015  1  0.126200  0.677300  0.402100  1.0
  H  H1016  1  0.126200  0.322700  0.097900  1.0
  H  H1017  1  0.433300  0.840900  0.634600  1.0
  H  H1018  1  0.433300  0.159100  0.865400  1.0
  H  H1019  1  0.933300  0.340900  0.634600  1.0
  H  H1020  1  0.933300  0.659100  0.865400  1.0
  H  H1021  1  0.566700  0.159100  0.365400  1.0
  H  H1022  1  0.566700  0.840900  0.134600  1.0
  H  H1023  1  0.066700  0.659100  0.365400  1.0
  H  H1024  1  0.066700  0.340900  0.134600  1.0
  H  H1025  1  0.548700  0.992500  0.535900  1.0
  H  H1026  1  0.548700  0.007500  0.964100  1.0
  H  H1027  1  0.048700  0.492500  0.535900  1.0
  H  H1028  1  0.048700  0.507500  0.964100  1.0
  H  H1029  1  0.451300  0.007500  0.464100  1.0
  H  H1030  1  0.451300  0.992500  0.035900  1.0
  H  H1031  1  0.951300  0.507500  0.464100  1.0
  H  H1032  1  0.951300  0.492500  0.035900  1.0
  H  H1033  1  0.479700  0.948900  0.522400  1.0
  H  H1034  1  0.479700  0.051100  0.977600  1.0
  H  H1035  1  0.979700  0.448900  0.522400  1.0
  H  H1036  1  0.979700  0.551100  0.977600  1.0
  H  H1037  1  0.520300  0.051100  0.477600  1.0
  H  H1038  1  0.520300  0.948900  0.022400  1.0
  H  H1039  1  0.020300  0.551100  0.477600  1.0
  H  H1040  1  0.020300  0.448900  0.022400  1.0
  H  H1041  1  0.588100  0.975700  0.620700  1.0
  H  H1042  1  0.588100  0.024300  0.879300  1.0
  H  H1043  1  0.088100  0.475700  0.620700  1.0
  H  H1044  1  0.088100  0.524300  0.879300  1.0
  H  H1045  1  0.411900  0.024300  0.379300  1.0
  H  H1046  1  0.411900  0.975700  0.120700  1.0
  H  H1047  1  0.911900  0.524300  0.379300  1.0
  H  H1048  1  0.911900  0.475700  0.120700  1.0
  H  H1049  1  0.599500  0.003100  0.591100  1.0
  H  H1050  1  0.599500  0.996900  0.908900  1.0
  H  H1051  1  0.099500  0.503100  0.591100  1.0
  H  H1052  1  0.099500  0.496900  0.908900  1.0
  H  H1053  1  0.400500  0.996900  0.408900  1.0
  H  H1054  1  0.400500  0.003100  0.091100  1.0
  H  H1055  1  0.900500  0.496900  0.408900  1.0
  H  H1056  1  0.900500  0.503100  0.091100  1.0
  H  H1057  1  0.974300  0.022500  0.615100  1.0
  H  H1058  1  0.974300  0.977500  0.884900  1.0
  H  H1059  1  0.474300  0.522500  0.615100  1.0
  H  H1060  1  0.474300  0.477500  0.884900  1.0
  H  H1061  1  0.025700  0.977500  0.384900  1.0
  H  H1062  1  0.025700  0.022500  0.115100  1.0
  H  H1063  1  0.525700  0.477500  0.384900  1.0
  H  H1064  1  0.525700  0.522500  0.115100  1.0
  H  H1065  1  0.014900  0.072300  0.590400  1.0
  H  H1066  1  0.014900  0.927700  0.909600  1.0
  H  H1067  1  0.514900  0.572300  0.590400  1.0
  H  H1068  1  0.514900  0.427700  0.909600  1.0
  H  H1069  1  0.985100  0.927700  0.409600  1.0
  H  H1070  1  0.985100  0.072300  0.090400  1.0
  H  H1071  1  0.485100  0.427700  0.409600  1.0
  H  H1072  1  0.485100  0.572300  0.090400  1.0
  H  H1073  1  0.987800  0.098000  0.541700  1.0
  H  H1074  1  0.987800  0.902000  0.958300  1.0
  H  H1075  1  0.487800  0.598000  0.541700  1.0
  H  H1076  1  0.487800  0.402000  0.958300  1.0
  H  H1077  1  0.012200  0.902000  0.458300  1.0
  H  H1078  1  0.012200  0.098000  0.041700  1.0
  H  H1079  1  0.512200  0.402000  0.458300  1.0
  H  H1080  1  0.512200  0.598000  0.041700  1.0
  H  H1081  1  0.920200  0.073900  0.517800  1.0
  H  H1082  1  0.920200  0.926100  0.982200  1.0
  H  H1083  1  0.420200  0.573900  0.517800  1.0
  H  H1084  1  0.420200  0.426100  0.982200  1.0
  H  H1085  1  0.079800  0.926100  0.482200  1.0
  H  H1086  1  0.079800  0.073900  0.017800  1.0
  H  H1087  1  0.579800  0.426100  0.482200  1.0
  H  H1088  1  0.579800  0.573900  0.017800  1.0
  H  H1089  1  0.861400  0.923500  0.641000  1.0
  H  H1090  1  0.861400  0.076500  0.859000  1.0
  H  H1091  1  0.361400  0.423500  0.641000  1.0
  H  H1092  1  0.361400  0.576500  0.859000  1.0
  H  H1093  1  0.138600  0.076500  0.359000  1.0
  H  H1094  1  0.138600  0.923500  0.141000  1.0
  H  H1095  1  0.638600  0.576500  0.359000  1.0
  H  H1096  1  0.638600  0.423500  0.141000  1.0
  H  H1097  1  0.927700  0.971100  0.638600  1.0
  H  H1098  1  0.927700  0.028900  0.861400  1.0
  H  H1099  1  0.427700  0.471100  0.638600  1.0
  H  H1100  1  0.427700  0.528900  0.861400  1.0
  H  H1101  1  0.072300  0.028900  0.361400  1.0
  H  H1102  1  0.072300  0.971100  0.138600  1.0
  H  H1103  1  0.572300  0.528900  0.361400  1.0
  H  H1104  1  0.572300  0.471100  0.138600  1.0
  H  H1105  1  0.799600  0.899000  0.594400  1.0
  H  H1106  1  0.799600  0.101000  0.905600  1.0
  H  H1107  1  0.299600  0.399000  0.594400  1.0
  H  H1108  1  0.299600  0.601000  0.905600  1.0
  H  H1109  1  0.200400  0.101000  0.405600  1.0
  H  H1110  1  0.200400  0.899000  0.094400  1.0
  H  H1111  1  0.700400  0.601000  0.405600  1.0
  H  H1112  1  0.700400  0.399000  0.094400  1.0
  H  H1113  1  0.796000  0.924100  0.562300  1.0
  H  H1114  1  0.796000  0.075900  0.937700  1.0
  H  H1115  1  0.296000  0.424100  0.562300  1.0
  H  H1116  1  0.296000  0.575900  0.937700  1.0
  H  H1117  1  0.204000  0.075900  0.437700  1.0
  H  H1118  1  0.204000  0.924100  0.062300  1.0
  H  H1119  1  0.704000  0.575900  0.437700  1.0
  H  H1120  1  0.704000  0.424100  0.062300  1.0
  H  H1121  1  0.602500  0.907700  0.554100  1.0
  H  H1122  1  0.602500  0.092300  0.945900  1.0
  H  H1123  1  0.102500  0.407700  0.554100  1.0
  H  H1124  1  0.102500  0.592300  0.945900  1.0
  H  H1125  1  0.397500  0.092300  0.445900  1.0
  H  H1126  1  0.397500  0.907700  0.054100  1.0
  H  H1127  1  0.897500  0.592300  0.445900  1.0
  H  H1128  1  0.897500  0.407700  0.054100  1.0
  H  H1129  1  0.665800  0.870100  0.535600  1.0
  H  H1130  1  0.665800  0.129900  0.964400  1.0
  H  H1131  1  0.165800  0.370100  0.535600  1.0
  H  H1132  1  0.165800  0.629900  0.964400  1.0
  H  H1133  1  0.334200  0.129900  0.464400  1.0
  H  H1134  1  0.334200  0.870100  0.035600  1.0
  H  H1135  1  0.834200  0.629900  0.464400  1.0
  H  H1136  1  0.834200  0.370100  0.035600  1.0
  H  H1137  1  0.736200  0.888900  0.557600  1.0
  H  H1138  1  0.736200  0.111100  0.942400  1.0
  H  H1139  1  0.236200  0.388900  0.557600  1.0
  H  H1140  1  0.236200  0.611100  0.942400  1.0
  H  H1141  1  0.263800  0.111100  0.442400  1.0
  H  H1142  1  0.263800  0.888900  0.057600  1.0
  H  H1143  1  0.763800  0.611100  0.442400  1.0
  H  H1144  1  0.763800  0.388900  0.057600  1.0
  H  H1145  1  0.655600  0.008800  0.632100  1.0
  H  H1146  1  0.655600  0.991200  0.867900  1.0
  H  H1147  1  0.155600  0.508800  0.632100  1.0
  H  H1148  1  0.155600  0.491200  0.867900  1.0
  H  H1149  1  0.344400  0.991200  0.367900  1.0
  H  H1150  1  0.344400  0.008800  0.132100  1.0
  H  H1151  1  0.844400  0.491200  0.367900  1.0
  H  H1152  1  0.844400  0.508800  0.132100  1.0
  H  H1153  1  0.726000  0.027600  0.654200  1.0
  H  H1154  1  0.726000  0.972400  0.845800  1.0
  H  H1155  1  0.226000  0.527600  0.654200  1.0
  H  H1156  1  0.226000  0.472400  0.845800  1.0
  H  H1157  1  0.274000  0.972400  0.345800  1.0
  H  H1158  1  0.274000  0.027600  0.154200  1.0
  H  H1159  1  0.774000  0.472400  0.345800  1.0
  H  H1160  1  0.774000  0.527600  0.154200  1.0
  H  H1161  1  0.789300  0.990000  0.635600  1.0
  H  H1162  1  0.789300  0.010000  0.864400  1.0
  H  H1163  1  0.289300  0.490000  0.635600  1.0
  H  H1164  1  0.289300  0.510000  0.864400  1.0
  H  H1165  1  0.210700  0.010000  0.364400  1.0
  H  H1166  1  0.210700  0.990000  0.135600  1.0
  H  H1167  1  0.710700  0.510000  0.364400  1.0
  H  H1168  1  0.710700  0.490000  0.135600  1.0
  H  H1169  1  0.740100  0.759500  0.573100  1.0
  H  H1170  1  0.740100  0.240500  0.926900  1.0
  H  H1171  1  0.240100  0.259500  0.573100  1.0
  H  H1172  1  0.240100  0.740500  0.926900  1.0
  H  H1173  1  0.259900  0.240500  0.426900  1.0
  H  H1174  1  0.259900  0.759500  0.073100  1.0
  H  H1175  1  0.759900  0.740500  0.426900  1.0
  H  H1176  1  0.759900  0.259500  0.073100  1.0
  H  H1177  1  0.711100  0.782300  0.547000  1.0
  H  H1178  1  0.711100  0.217700  0.953000  1.0
  H  H1179  1  0.211100  0.282300  0.547000  1.0
  H  H1180  1  0.211100  0.717700  0.953000  1.0
  H  H1181  1  0.288900  0.217700  0.453000  1.0
  H  H1182  1  0.288900  0.782300  0.047000  1.0
  H  H1183  1  0.788900  0.717700  0.453000  1.0
  H  H1184  1  0.788900  0.282300  0.047000  1.0
  H  H1185  1  0.687500  0.751300  0.569700  1.0
  H  H1186  1  0.687500  0.248700  0.930300  1.0
  H  H1187  1  0.187500  0.251300  0.569700  1.0
  H  H1188  1  0.187500  0.748700  0.930300  1.0
  H  H1189  1  0.312500  0.248700  0.430300  1.0
  H  H1190  1  0.312500  0.751300  0.069700  1.0
  H  H1191  1  0.812500  0.748700  0.430300  1.0
  H  H1192  1  0.812500  0.251300  0.069700  1.0
  H  H1193  1  0.726900  0.697800  0.541700  1.0
  H  H1194  1  0.726900  0.302200  0.958300  1.0
  H  H1195  1  0.226900  0.197800  0.541700  1.0
  H  H1196  1  0.226900  0.802200  0.958300  1.0
  H  H1197  1  0.273100  0.302200  0.458300  1.0
  H  H1198  1  0.273100  0.697800  0.041700  1.0
  H  H1199  1  0.773100  0.802200  0.458300  1.0
  H  H1200  1  0.773100  0.197800  0.041700  1.0
  H  H1201  1  0.750600  0.729000  0.518900  1.0
  H  H1202  1  0.750600  0.271000  0.981100  1.0
  H  H1203  1  0.250600  0.229000  0.518900  1.0
  H  H1204  1  0.250600  0.771000  0.981100  1.0
  H  H1205  1  0.249400  0.271000  0.481100  1.0
  H  H1206  1  0.249400  0.729000  0.018900  1.0
  H  H1207  1  0.749400  0.771000  0.481100  1.0
  H  H1208  1  0.749400  0.229000  0.018900  1.0
  H  H1209  1  0.653000  0.709200  0.515800  1.0
  H  H1210  1  0.653000  0.290800  0.984200  1.0
  H  H1211  1  0.153000  0.209200  0.515800  1.0
  H  H1212  1  0.153000  0.790800  0.984200  1.0
  H  H1213  1  0.347000  0.290800  0.484200  1.0
  H  H1214  1  0.347000  0.709200  0.015800  1.0
  H  H1215  1  0.847000  0.790800  0.484200  1.0
  H  H1216  1  0.847000  0.209200  0.015800  1.0
  H  H1217  1  0.673500  0.746100  0.496100  1.0
  H  H1218  1  0.673500  0.253900  0.003900  1.0
  H  H1219  1  0.173500  0.246100  0.496100  1.0
  H  H1220  1  0.173500  0.753900  0.003900  1.0
  H  H1221  1  0.326500  0.253900  0.503900  1.0
  H  H1222  1  0.326500  0.746100  0.996100  1.0
  H  H1223  1  0.826500  0.753900  0.503900  1.0
  H  H1224  1  0.826500  0.246100  0.996100  1.0
  H  H1225  1  0.754800  0.735400  0.474400  1.0
  H  H1226  1  0.754800  0.264600  0.025600  1.0
  H  H1227  1  0.254800  0.235400  0.474400  1.0
  H  H1228  1  0.254800  0.764600  0.025600  1.0
  H  H1229  1  0.245200  0.264600  0.525600  1.0
  H  H1230  1  0.245200  0.735400  0.974400  1.0
  H  H1231  1  0.745200  0.764600  0.525600  1.0
  H  H1232  1  0.745200  0.235400  0.974400  1.0
  H  H1233  1  0.775500  0.689700  0.466900  1.0
  H  H1234  1  0.775500  0.310300  0.033100  1.0
  H  H1235  1  0.275500  0.189700  0.466900  1.0
  H  H1236  1  0.275500  0.810300  0.033100  1.0
  H  H1237  1  0.224500  0.310300  0.533100  1.0
  H  H1238  1  0.224500  0.689700  0.966900  1.0
  H  H1239  1  0.724500  0.810300  0.533100  1.0
  H  H1240  1  0.724500  0.189700  0.966900  1.0
  H  H1241  1  0.749300  0.702400  0.413700  1.0
  H  H1242  1  0.749300  0.297600  0.086300  1.0
  H  H1243  1  0.249300  0.202400  0.413700  1.0
  H  H1244  1  0.249300  0.797600  0.086300  1.0
  H  H1245  1  0.250700  0.297600  0.586300  1.0
  H  H1246  1  0.250700  0.702400  0.913700  1.0
  H  H1247  1  0.750700  0.797600  0.586300  1.0
  H  H1248  1  0.750700  0.202400  0.913700  1.0
  H  H1249  1  0.710200  0.675800  0.428100  1.0
  H  H1250  1  0.710200  0.324200  0.071900  1.0
  H  H1251  1  0.210200  0.175800  0.428100  1.0
  H  H1252  1  0.210200  0.824200  0.071900  1.0
  H  H1253  1  0.289800  0.324200  0.571900  1.0
  H  H1254  1  0.289800  0.675800  0.928100  1.0
  H  H1255  1  0.789800  0.824200  0.571900  1.0
  H  H1256  1  0.789800  0.175800  0.928100  1.0
  H  H1257  1  0.681400  0.731800  0.406800  1.0
  H  H1258  1  0.681400  0.268200  0.093200  1.0
  H  H1259  1  0.181400  0.231800  0.406800  1.0
  H  H1260  1  0.181400  0.768200  0.093200  1.0
  H  H1261  1  0.318600  0.268200  0.593200  1.0
  H  H1262  1  0.318600  0.731800  0.906800  1.0
  H  H1263  1  0.818600  0.768200  0.593200  1.0
  H  H1264  1  0.818600  0.231800  0.906800  1.0
  H  H1265  1  0.672600  0.734400  0.446600  1.0
  H  H1266  1  0.672600  0.265600  0.053400  1.0
  H  H1267  1  0.172600  0.234400  0.446600  1.0
  H  H1268  1  0.172600  0.765600  0.053400  1.0
  H  H1269  1  0.327400  0.265600  0.553400  1.0
  H  H1270  1  0.327400  0.734400  0.946600  1.0
  H  H1271  1  0.827400  0.765600  0.553400  1.0
  H  H1272  1  0.827400  0.234400  0.946600  1.0
  H  H1273  1  0.711600  0.760900  0.432300  1.0
  H  H1274  1  0.711600  0.239100  0.067700  1.0
  H  H1275  1  0.211600  0.260900  0.432300  1.0
  H  H1276  1  0.211600  0.739100  0.067700  1.0
  H  H1277  1  0.288400  0.239100  0.567700  1.0
  H  H1278  1  0.288400  0.760900  0.932300  1.0
  H  H1279  1  0.788400  0.739100  0.567700  1.0
  H  H1280  1  0.788400  0.260900  0.932300  1.0
  C  C1281  1  0.741100  0.674600  0.495600  1
  C  C1282  1  0.741100  0.325400  0.004400  1
  C  C1283  1  0.241100  0.174600  0.495600  1
  C  C1284  1  0.241100  0.825400  0.004400  1
  C  C1285  1  0.258900  0.325400  0.504400  1
  C  C1286  1  0.258900  0.674600  0.995600  1
  C  C1287  1  0.758900  0.825400  0.504400  1
  C  C1288  1  0.758900  0.174600  0.995600  1
  C  C1289  1  0.736500  0.442830  0.426920  1.0
  C  C1290  1  0.736500  0.557170  0.073080  1.0
  C  C1291  1  0.236500  0.942830  0.426920  1.0
  C  C1292  1  0.236500  0.057170  0.073080  1.0
  C  C1293  1  0.263500  0.557170  0.573080  1.0
  C  C1294  1  0.263500  0.442830  0.926920  1.0
  C  C1295  1  0.763500  0.057170  0.573080  1.0
  C  C1296  1  0.763500  0.942830  0.926920  1.0
  C  C1297  1  0.760570  0.414540  0.405710  1.0
  C  C1298  1  0.760570  0.585460  0.094290  1.0
  C  C1299  1  0.260570  0.914540  0.405710  1.0
  C  C1300  1  0.260570  0.085460  0.094290  1.0
  C  C1301  1  0.239430  0.585460  0.594290  1.0
  C  C1302  1  0.239430  0.414540  0.905710  1.0
  C  C1303  1  0.739430  0.085460  0.594290  1.0
  C  C1304  1  0.739430  0.914540  0.905710  1.0
  C  C1305  1  0.738240  0.386560  0.383050  1.0
  C  C1306  1  0.738240  0.613440  0.116950  1.0
  C  C1307  1  0.238240  0.886560  0.383050  1.0
  C  C1308  1  0.238240  0.113440  0.116950  1.0
  C  C1309  1  0.261760  0.613440  0.616950  1.0
  C  C1310  1  0.261760  0.386560  0.883050  1.0
  C  C1311  1  0.761760  0.113440  0.616950  1.0
  C  C1312  1  0.761760  0.886560  0.883050  1.0
  C  C1313  1  0.691850  0.386870  0.381600  1.0
  C  C1314  1  0.691850  0.613130  0.118400  1.0
  C  C1315  1  0.191850  0.886870  0.381600  1.0
  C  C1316  1  0.191850  0.113130  0.118400  1.0
  C  C1317  1  0.308150  0.613130  0.618400  1.0
  C  C1318  1  0.308150  0.386870  0.881600  1.0
  C  C1319  1  0.808150  0.113130  0.618400  1.0
  C  C1320  1  0.808150  0.886870  0.881600  1.0
  C  C1321  1  0.667780  0.415160  0.402810  1.0
  C  C1322  1  0.667780  0.584840  0.097190  1.0
  C  C1323  1  0.167780  0.915160  0.402810  1.0
  C  C1324  1  0.167780  0.084840  0.097190  1.0
  C  C1325  1  0.332220  0.584840  0.597190  1.0
  C  C1326  1  0.332220  0.415160  0.902810  1.0
  C  C1327  1  0.832220  0.084840  0.597190  1.0
  C  C1328  1  0.832220  0.915160  0.902810  1.0
  C  C1329  1  0.801540  0.516130  0.481880  1.0
  C  C1330  1  0.801540  0.483870  0.018120  1.0
  C  C1331  1  0.301540  0.016130  0.481880  1.0
  C  C1332  1  0.301540  0.983870  0.018120  1.0
  C  C1333  1  0.198460  0.483870  0.518120  1.0
  C  C1334  1  0.198460  0.516130  0.981880  1.0
  C  C1335  1  0.698460  0.983870  0.518120  1.0
  C  C1336  1  0.698460  0.016130  0.981880  1.0
  C  C1337  1  0.801330  0.481300  0.457560  1.0
  C  C1338  1  0.801330  0.518700  0.042440  1.0
  C  C1339  1  0.301330  0.981300  0.457560  1.0
  C  C1340  1  0.301330  0.018700  0.042440  1.0
  C  C1341  1  0.198670  0.518700  0.542440  1.0
  C  C1342  1  0.198670  0.481300  0.957560  1.0
  C  C1343  1  0.698670  0.018700  0.542440  1.0
  C  C1344  1  0.698670  0.981300  0.957560  1.0
  C  C1345  1  0.756230  0.472100  0.448690  1.0
  C  C1346  1  0.756230  0.527900  0.051310  1.0
  C  C1347  1  0.256230  0.972100  0.448690  1.0
  C  C1348  1  0.256230  0.027900  0.051310  1.0
  C  C1349  1  0.243770  0.527900  0.551310  1.0
  C  C1350  1  0.243770  0.472100  0.948690  1.0
  C  C1351  1  0.743770  0.027900  0.551310  1.0
  C  C1352  1  0.743770  0.972100  0.948690  1.0
  C  C1353  1  0.740600  0.558900  0.510910  1.0
  C  C1354  1  0.740600  0.441100  0.989090  1.0
  C  C1355  1  0.240600  0.058900  0.510910  1.0
  C  C1356  1  0.240600  0.941100  0.989090  1.0
  C  C1357  1  0.259400  0.441100  0.489090  1.0
  C  C1358  1  0.259400  0.558900  0.010910  1.0
  C  C1359  1  0.759400  0.941100  0.489090  1.0
  C  C1360  1  0.759400  0.058900  0.010910  1.0
  C  C1361  1  0.633900  0.686200  0.740870  1.0
  C  C1362  1  0.633900  0.313800  0.759130  1.0
  C  C1363  1  0.133900  0.186200  0.740870  1.0
  C  C1364  1  0.133900  0.813800  0.759130  1.0
  C  C1365  1  0.366100  0.313800  0.259130  1.0
  C  C1366  1  0.366100  0.686200  0.240870  1.0
  C  C1367  1  0.866100  0.813800  0.259130  1.0
  C  C1368  1  0.866100  0.186200  0.240870  1.0
  C  C1369  1  0.604240  0.715600  0.755190  1.0
  C  C1370  1  0.604240  0.284400  0.744810  1.0
  C  C1371  1  0.104240  0.215600  0.755190  1.0
  C  C1372  1  0.104240  0.784400  0.744810  1.0
  C  C1373  1  0.395760  0.284400  0.244810  1.0
  C  C1374  1  0.395760  0.715600  0.255190  1.0
  C  C1375  1  0.895760  0.784400  0.244810  1.0
  C  C1376  1  0.895760  0.215600  0.255190  1.0
  C  C1377  1  0.619160  0.746190  0.779340  1.0
  C  C1378  1  0.619160  0.253810  0.720660  1.0
  C  C1379  1  0.119160  0.246190  0.779340  1.0
  C  C1380  1  0.119160  0.753810  0.720660  1.0
  C  C1381  1  0.380840  0.253810  0.220660  1.0
  C  C1382  1  0.380840  0.746190  0.279340  1.0
  C  C1383  1  0.880840  0.753810  0.220660  1.0
  C  C1384  1  0.880840  0.246190  0.279340  1.0
  C  C1385  1  0.663750  0.747390  0.789160  1.0
  C  C1386  1  0.663750  0.252610  0.710840  1.0
  C  C1387  1  0.163750  0.247390  0.789160  1.0
  C  C1388  1  0.163750  0.752610  0.710840  1.0
  C  C1389  1  0.336250  0.252610  0.210840  1.0
  C  C1390  1  0.336250  0.747390  0.289160  1.0
  C  C1391  1  0.836250  0.752610  0.210840  1.0
  C  C1392  1  0.836250  0.247390  0.289160  1.0
  C  C1393  1  0.693410  0.718000  0.774850  1.0
  C  C1394  1  0.693410  0.282000  0.725150  1.0
  C  C1395  1  0.193410  0.218000  0.774850  1.0
  C  C1396  1  0.193410  0.782000  0.725150  1.0
  C  C1397  1  0.306590  0.282000  0.225150  1.0
  C  C1398  1  0.306590  0.718000  0.274850  1.0
  C  C1399  1  0.806590  0.782000  0.225150  1.0
  C  C1400  1  0.806590  0.218000  0.274850  1.0
  C  C1401  1  0.588400  0.604440  0.682050  1.0
  C  C1402  1  0.588400  0.395560  0.817950  1.0
  C  C1403  1  0.088400  0.104440  0.682050  1.0
  C  C1404  1  0.088400  0.895560  0.817950  1.0
  C  C1405  1  0.411600  0.395560  0.317950  1.0
  C  C1406  1  0.411600  0.604440  0.182050  1.0
  C  C1407  1  0.911600  0.895560  0.317950  1.0
  C  C1408  1  0.911600  0.104440  0.182050  1.0
  C  C1409  1  0.580150  0.639230  0.705490  1.0
  C  C1410  1  0.580150  0.360770  0.794510  1.0
  C  C1411  1  0.080150  0.139230  0.705490  1.0
  C  C1412  1  0.080150  0.860770  0.794510  1.0
  C  C1413  1  0.419850  0.360770  0.294510  1.0
  C  C1414  1  0.419850  0.639230  0.205490  1.0
  C  C1415  1  0.919850  0.860770  0.294510  1.0
  C  C1416  1  0.919850  0.139230  0.205490  1.0
  C  C1417  1  0.622030  0.655310  0.717230  1.0
  C  C1418  1  0.622030  0.344690  0.782770  1.0
  C  C1419  1  0.122030  0.155310  0.717230  1.0
  C  C1420  1  0.122030  0.844690  0.782770  1.0
  C  C1421  1  0.377970  0.344690  0.282770  1.0
  C  C1422  1  0.377970  0.655310  0.217230  1.0
  C  C1423  1  0.877970  0.844690  0.282770  1.0
  C  C1424  1  0.877970  0.155310  0.217230  1.0
  C  C1425  1  0.659700  0.570400  0.658680  1.0
  C  C1426  1  0.659700  0.429600  0.841320  1.0
  C  C1427  1  0.159700  0.070400  0.658680  1.0
  C  C1428  1  0.159700  0.929600  0.841320  1.0
  C  C1429  1  0.340300  0.429600  0.341320  1.0
  C  C1430  1  0.340300  0.570400  0.158680  1.0
  C  C1431  1  0.840300  0.929600  0.341320  1.0
  C  C1432  1  0.840300  0.070400  0.158680  1.0
  C  C1433  1  0.732460  0.546720  0.546270  1.0
  C  C1434  1  0.732460  0.453280  0.953730  1.0
  C  C1435  1  0.232460  0.046720  0.546270  1.0
  C  C1436  1  0.232460  0.953280  0.953730  1.0
  C  C1437  1  0.267540  0.453280  0.453730  1.0
  C  C1438  1  0.267540  0.546720  0.046270  1.0
  C  C1439  1  0.767540  0.953280  0.453730  1.0
  C  C1440  1  0.767540  0.046720  0.046270  1.0
  C  C1441  1  0.747190  0.508870  0.554240  1.0
  C  C1442  1  0.747190  0.491130  0.945760  1.0
  C  C1443  1  0.247190  0.008870  0.554240  1.0
  C  C1444  1  0.247190  0.991130  0.945760  1.0
  C  C1445  1  0.252810  0.491130  0.445760  1.0
  C  C1446  1  0.252810  0.508870  0.054240  1.0
  C  C1447  1  0.752810  0.991130  0.445760  1.0
  C  C1448  1  0.752810  0.008870  0.054240  1.0
  C  C1449  1  0.737190  0.496120  0.585560  1.0
  C  C1450  1  0.737190  0.503880  0.914440  1.0
  C  C1451  1  0.237190  0.996120  0.585560  1.0
  C  C1452  1  0.237190  0.003880  0.914440  1.0
  C  C1453  1  0.262810  0.503880  0.414440  1.0
  C  C1454  1  0.262810  0.496120  0.085560  1.0
  C  C1455  1  0.762810  0.003880  0.414440  1.0
  C  C1456  1  0.762810  0.996120  0.085560  1.0
  C  C1457  1  0.712460  0.521230  0.608910  1.0
  C  C1458  1  0.712460  0.478770  0.891090  1.0
  C  C1459  1  0.212460  0.021230  0.608910  1.0
  C  C1460  1  0.212460  0.978770  0.891090  1.0
  C  C1461  1  0.287540  0.478770  0.391090  1.0
  C  C1462  1  0.287540  0.521230  0.108910  1.0
  C  C1463  1  0.787540  0.978770  0.391090  1.0
  C  C1464  1  0.787540  0.021230  0.108910  1.0
  C  C1465  1  0.697730  0.559090  0.600940  1.0
  C  C1466  1  0.697730  0.440910  0.899060  1.0
  C  C1467  1  0.197730  0.059090  0.600940  1.0
  C  C1468  1  0.197730  0.940910  0.899060  1.0
  C  C1469  1  0.302270  0.440910  0.399060  1.0
  C  C1470  1  0.302270  0.559090  0.100940  1.0
  C  C1471  1  0.802270  0.940910  0.399060  1.0
  C  C1472  1  0.802270  0.059090  0.100940  1.0
  C  C1473  1  0.707730  0.571830  0.569620  1.0
  C  C1474  1  0.707730  0.428170  0.930380  1.0
  C  C1475  1  0.207730  0.071830  0.569620  1.0
  C  C1476  1  0.207730  0.928170  0.930380  1.0
  C  C1477  1  0.292270  0.428170  0.430380  1.0
  C  C1478  1  0.292270  0.571830  0.069620  1.0
  C  C1479  1  0.792270  0.928170  0.430380  1.0
  C  C1480  1  0.792270  0.071830  0.069620  1.0
  C  C1481  1  0.693000  0.609690  0.561650  1.0
  C  C1482  1  0.693000  0.390310  0.938350  1.0
  C  C1483  1  0.193000  0.109690  0.561650  1.0
  C  C1484  1  0.193000  0.890310  0.938350  1.0
  C  C1485  1  0.307000  0.390310  0.438350  1.0
  C  C1486  1  0.307000  0.609690  0.061650  1.0
  C  C1487  1  0.807000  0.890310  0.438350  1.0
  C  C1488  1  0.807000  0.109690  0.061650  1.0
  C  C1489  1  0.668270  0.634800  0.585000  1.0
  C  C1490  1  0.668270  0.365200  0.915000  1.0
  C  C1491  1  0.168270  0.134800  0.585000  1.0
  C  C1492  1  0.168270  0.865200  0.915000  1.0
  C  C1493  1  0.331730  0.365200  0.415000  1.0
  C  C1494  1  0.331730  0.634800  0.085000  1.0
  C  C1495  1  0.831730  0.865200  0.415000  1.0
  C  C1496  1  0.831730  0.134800  0.085000  1.0
  C  C1497  1  0.658260  0.622060  0.616320  1.0
  C  C1498  1  0.658260  0.377940  0.883680  1.0
  C  C1499  1  0.158260  0.122060  0.616320  1.0
  C  C1500  1  0.158260  0.877940  0.883680  1.0
  C  C1501  1  0.341740  0.377940  0.383680  1.0
  C  C1502  1  0.341740  0.622060  0.116320  1.0
  C  C1503  1  0.841740  0.877940  0.383680  1.0
  C  C1504  1  0.841740  0.122060  0.116320  1.0
  C  C1505  1  0.672990  0.584200  0.624290  1.0
  C  C1506  1  0.672990  0.415800  0.875710  1.0
  C  C1507  1  0.172990  0.084200  0.624290  1.0
  C  C1508  1  0.172990  0.915800  0.875710  1.0
  C  C1509  1  0.327010  0.415800  0.375710  1.0
  C  C1510  1  0.327010  0.584200  0.124290  1.0
  C  C1511  1  0.827010  0.915800  0.375710  1.0
  C  C1512  1  0.827010  0.084200  0.124290  1.0
  C  C1513  1  0.776420  0.622610  0.660520  1.0
  C  C1514  1  0.776420  0.377390  0.839480  1.0
  C  C1515  1  0.276420  0.122610  0.660520  1.0
  C  C1516  1  0.276420  0.877390  0.839480  1.0
  C  C1517  1  0.223580  0.377390  0.339480  1.0
  C  C1518  1  0.223580  0.622610  0.160520  1.0
  C  C1519  1  0.723580  0.877390  0.339480  1.0
  C  C1520  1  0.723580  0.122610  0.160520  1.0
  C  C1521  1  0.802460  0.600090  0.636340  1.0
  C  C1522  1  0.802460  0.399910  0.863660  1.0
  C  C1523  1  0.302460  0.100090  0.636340  1.0
  C  C1524  1  0.302460  0.899910  0.863660  1.0
  C  C1525  1  0.197540  0.399910  0.363660  1.0
  C  C1526  1  0.197540  0.600090  0.136340  1.0
  C  C1527  1  0.697540  0.899910  0.363660  1.0
  C  C1528  1  0.697540  0.100090  0.136340  1.0
  C  C1529  1  0.813550  0.559870  0.640290  1.0
  C  C1530  1  0.813550  0.440130  0.859710  1.0
  C  C1531  1  0.313550  0.059870  0.640290  1.0
  C  C1532  1  0.313550  0.940130  0.859710  1.0
  C  C1533  1  0.186450  0.440130  0.359710  1.0
  C  C1534  1  0.186450  0.559870  0.140290  1.0
  C  C1535  1  0.686450  0.940130  0.359710  1.0
  C  C1536  1  0.686450  0.059870  0.140290  1.0
  C  C1537  1  0.798590  0.542170  0.668400  1.0
  C  C1538  1  0.798590  0.457830  0.831600  1.0
  C  C1539  1  0.298590  0.042170  0.668400  1.0
  C  C1540  1  0.298590  0.957830  0.831600  1.0
  C  C1541  1  0.201410  0.457830  0.331600  1.0
  C  C1542  1  0.201410  0.542170  0.168400  1.0
  C  C1543  1  0.701410  0.957830  0.331600  1.0
  C  C1544  1  0.701410  0.042170  0.168400  1.0
  C  C1545  1  0.772550  0.564690  0.692580  1.0
  C  C1546  1  0.772550  0.435310  0.807420  1.0
  C  C1547  1  0.272550  0.064690  0.692580  1.0
  C  C1548  1  0.272550  0.935310  0.807420  1.0
  C  C1549  1  0.227450  0.435310  0.307420  1.0
  C  C1550  1  0.227450  0.564690  0.192580  1.0
  C  C1551  1  0.727450  0.935310  0.307420  1.0
  C  C1552  1  0.727450  0.064690  0.192580  1.0
  C  C1553  1  0.761210  0.729310  0.647880  1.0
  C  C1554  1  0.761210  0.270690  0.852120  1.0
  C  C1555  1  0.261210  0.229310  0.647880  1.0
  C  C1556  1  0.261210  0.770690  0.852120  1.0
  C  C1557  1  0.238790  0.270690  0.352120  1.0
  C  C1558  1  0.238790  0.729310  0.147880  1.0
  C  C1559  1  0.738790  0.770690  0.352120  1.0
  C  C1560  1  0.738790  0.229310  0.147880  1.0
  C  C1561  1  0.778400  0.690340  0.635590  1.0
  C  C1562  1  0.778400  0.309660  0.864410  1.0
  C  C1563  1  0.278400  0.190340  0.635590  1.0
  C  C1564  1  0.278400  0.809660  0.864410  1.0
  C  C1565  1  0.221600  0.309660  0.364410  1.0
  C  C1566  1  0.221600  0.690340  0.135590  1.0
  C  C1567  1  0.721600  0.809660  0.364410  1.0
  C  C1568  1  0.721600  0.190340  0.135590  1.0
  C  C1569  1  0.766440  0.662340  0.658840  1.0
  C  C1570  1  0.766440  0.337660  0.841160  1.0
  C  C1571  1  0.266440  0.162340  0.658840  1.0
  C  C1572  1  0.266440  0.837660  0.841160  1.0
  C  C1573  1  0.233560  0.337660  0.341160  1.0
  C  C1574  1  0.233560  0.662340  0.158840  1.0
  C  C1575  1  0.733560  0.837660  0.341160  1.0
  C  C1576  1  0.733560  0.162340  0.158840  1.0
  C  C1577  1  0.712100  0.754300  0.696200  1.0
  C  C1578  1  0.712100  0.245700  0.803800  1.0
  C  C1579  1  0.212100  0.254300  0.696200  1.0
  C  C1580  1  0.212100  0.745700  0.803800  1.0
  C  C1581  1  0.287900  0.245700  0.303800  1.0
  C  C1582  1  0.287900  0.754300  0.196200  1.0
  C  C1583  1  0.787900  0.745700  0.303800  1.0
  C  C1584  1  0.787900  0.254300  0.196200  1.0
  C  C1585  1  0.453380  0.945910  0.682940  1.0
  C  C1586  1  0.453380  0.054090  0.817060  1.0
  C  C1587  1  0.953380  0.445910  0.682940  1.0
  C  C1588  1  0.953380  0.554090  0.817060  1.0
  C  C1589  1  0.546620  0.054090  0.317060  1.0
  C  C1590  1  0.546620  0.945910  0.182940  1.0
  C  C1591  1  0.046620  0.554090  0.317060  1.0
  C  C1592  1  0.046620  0.445910  0.182940  1.0
  C  C1593  1  0.423100  0.975450  0.696050  1.0
  C  C1594  1  0.423100  0.024550  0.803950  1.0
  C  C1595  1  0.923100  0.475450  0.696050  1.0
  C  C1596  1  0.923100  0.524550  0.803950  1.0
  C  C1597  1  0.576900  0.024550  0.303950  1.0
  C  C1598  1  0.576900  0.975450  0.196050  1.0
  C  C1599  1  0.076900  0.524550  0.303950  1.0
  C  C1600  1  0.076900  0.475450  0.196050  1.0
  C  C1601  1  0.419600  0.012150  0.681910  1.0
  C  C1602  1  0.419600  0.987850  0.818090  1.0
  C  C1603  1  0.919600  0.512150  0.681910  1.0
  C  C1604  1  0.919600  0.487850  0.818090  1.0
  C  C1605  1  0.580400  0.987850  0.318090  1.0
  C  C1606  1  0.580400  0.012150  0.181910  1.0
  C  C1607  1  0.080400  0.487850  0.318090  1.0
  C  C1608  1  0.080400  0.512150  0.181910  1.0
  C  C1609  1  0.446500  0.019310  0.654660  1.0
  C  C1610  1  0.446500  0.980690  0.845340  1.0
  C  C1611  1  0.946500  0.519310  0.654660  1.0
  C  C1612  1  0.946500  0.480690  0.845340  1.0
  C  C1613  1  0.553500  0.980690  0.345340  1.0
  C  C1614  1  0.553500  0.019310  0.154660  1.0
  C  C1615  1  0.053500  0.480690  0.345340  1.0
  C  C1616  1  0.053500  0.519310  0.154660  1.0
  C  C1617  1  0.476750  0.989770  0.641550  1.0
  C  C1618  1  0.476750  0.010230  0.858450  1.0
  C  C1619  1  0.976750  0.489770  0.641550  1.0
  C  C1620  1  0.976750  0.510230  0.858450  1.0
  C  C1621  1  0.523250  0.010230  0.358450  1.0
  C  C1622  1  0.523250  0.989770  0.141550  1.0
  C  C1623  1  0.023250  0.510230  0.358450  1.0
  C  C1624  1  0.023250  0.489770  0.141550  1.0
  C  C1625  1  0.450570  0.850010  0.719850  1.0
  C  C1626  1  0.450570  0.149990  0.780150  1.0
  C  C1627  1  0.950570  0.350010  0.719850  1.0
  C  C1628  1  0.950570  0.649990  0.780150  1.0
  C  C1629  1  0.549430  0.149990  0.280150  1.0
  C  C1630  1  0.549430  0.850010  0.219850  1.0
  C  C1631  1  0.049430  0.649990  0.280150  1.0
  C  C1632  1  0.049430  0.350010  0.219850  1.0
  C  C1633  1  0.434250  0.890540  0.720060  1.0
  C  C1634  1  0.434250  0.109460  0.779940  1.0
  C  C1635  1  0.934250  0.390540  0.720060  1.0
  C  C1636  1  0.934250  0.609460  0.779940  1.0
  C  C1637  1  0.565750  0.109460  0.279940  1.0
  C  C1638  1  0.565750  0.890540  0.220060  1.0
  C  C1639  1  0.065750  0.609460  0.279940  1.0
  C  C1640  1  0.065750  0.390540  0.220060  1.0
  C  C1641  1  0.457620  0.909460  0.694870  1.0
  C  C1642  1  0.457620  0.090540  0.805130  1.0
  C  C1643  1  0.957620  0.409460  0.694870  1.0
  C  C1644  1  0.957620  0.590540  0.805130  1.0
  C  C1645  1  0.542380  0.090540  0.305130  1.0
  C  C1646  1  0.542380  0.909460  0.194870  1.0
  C  C1647  1  0.042380  0.590540  0.305130  1.0
  C  C1648  1  0.042380  0.409460  0.194870  1.0
  C  C1649  1  0.509900  0.810000  0.685600  1.0
  C  C1650  1  0.509900  0.190000  0.814400  1.0
  C  C1651  1  0.009900  0.310000  0.685600  1.0
  C  C1652  1  0.009900  0.690000  0.814400  1.0
  C  C1653  1  0.490100  0.190000  0.314400  1.0
  C  C1654  1  0.490100  0.810000  0.185600  1.0
  C  C1655  1  0.990100  0.690000  0.314400  1.0
  C  C1656  1  0.990100  0.310000  0.185600  1.0
  C  C1657  1  0.662450  0.753660  0.685450  1.0
  C  C1658  1  0.662450  0.246340  0.814550  1.0
  C  C1659  1  0.162450  0.253660  0.685450  1.0
  C  C1660  1  0.162450  0.746340  0.814550  1.0
  C  C1661  1  0.337550  0.246340  0.314550  1.0
  C  C1662  1  0.337550  0.753660  0.185450  1.0
  C  C1663  1  0.837550  0.746340  0.314550  1.0
  C  C1664  1  0.837550  0.253660  0.185450  1.0
  C  C1665  1  0.648400  0.721130  0.662780  1.0
  C  C1666  1  0.648400  0.278870  0.837220  1.0
  C  C1667  1  0.148400  0.221130  0.662780  1.0
  C  C1668  1  0.148400  0.778870  0.837220  1.0
  C  C1669  1  0.351600  0.278870  0.337220  1.0
  C  C1670  1  0.351600  0.721130  0.162780  1.0
  C  C1671  1  0.851600  0.778870  0.337220  1.0
  C  C1672  1  0.851600  0.221130  0.162780  1.0
  C  C1673  1  0.604150  0.718780  0.652150  1.0
  C  C1674  1  0.604150  0.281220  0.847850  1.0
  C  C1675  1  0.104150  0.218780  0.652150  1.0
  C  C1676  1  0.104150  0.781220  0.847850  1.0
  C  C1677  1  0.395850  0.281220  0.347850  1.0
  C  C1678  1  0.395850  0.718780  0.152150  1.0
  C  C1679  1  0.895850  0.781220  0.347850  1.0
  C  C1680  1  0.895850  0.218780  0.152150  1.0
  C  C1681  1  0.573960  0.748960  0.664190  1.0
  C  C1682  1  0.573960  0.251040  0.835810  1.0
  C  C1683  1  0.073960  0.248960  0.664190  1.0
  C  C1684  1  0.073960  0.751040  0.835810  1.0
  C  C1685  1  0.426040  0.251040  0.335810  1.0
  C  C1686  1  0.426040  0.748960  0.164190  1.0
  C  C1687  1  0.926040  0.751040  0.335810  1.0
  C  C1688  1  0.926040  0.248960  0.164190  1.0
  C  C1689  1  0.588000  0.781480  0.686860  1.0
  C  C1690  1  0.588000  0.218520  0.813140  1.0
  C  C1691  1  0.088000  0.281480  0.686860  1.0
  C  C1692  1  0.088000  0.718520  0.813140  1.0
  C  C1693  1  0.412000  0.218520  0.313140  1.0
  C  C1694  1  0.412000  0.781480  0.186860  1.0
  C  C1695  1  0.912000  0.718520  0.313140  1.0
  C  C1696  1  0.912000  0.281480  0.186860  1.0
  C  C1697  1  0.632250  0.783830  0.697490  1.0
  C  C1698  1  0.632250  0.216170  0.802510  1.0
  C  C1699  1  0.132250  0.283830  0.697490  1.0
  C  C1700  1  0.132250  0.716170  0.802510  1.0
  C  C1701  1  0.367750  0.216170  0.302510  1.0
  C  C1702  1  0.367750  0.783830  0.197490  1.0
  C  C1703  1  0.867750  0.716170  0.302510  1.0
  C  C1704  1  0.867750  0.283830  0.197490  1.0
  C  C1705  1  0.646300  0.816360  0.720160  1.0
  C  C1706  1  0.646300  0.183640  0.779840  1.0
  C  C1707  1  0.146300  0.316360  0.720160  1.0
  C  C1708  1  0.146300  0.683640  0.779840  1.0
  C  C1709  1  0.353700  0.183640  0.279840  1.0
  C  C1710  1  0.353700  0.816360  0.220160  1.0
  C  C1711  1  0.853700  0.683640  0.279840  1.0
  C  C1712  1  0.853700  0.316360  0.220160  1.0
  C  C1713  1  0.616100  0.846530  0.732200  1.0
  C  C1714  1  0.616100  0.153470  0.767800  1.0
  C  C1715  1  0.116100  0.346530  0.732200  1.0
  C  C1716  1  0.116100  0.653470  0.767800  1.0
  C  C1717  1  0.383900  0.153470  0.267800  1.0
  C  C1718  1  0.383900  0.846530  0.232200  1.0
  C  C1719  1  0.883900  0.653470  0.267800  1.0
  C  C1720  1  0.883900  0.346530  0.232200  1.0
  C  C1721  1  0.571860  0.844190  0.721570  1.0
  C  C1722  1  0.571860  0.155810  0.778430  1.0
  C  C1723  1  0.071860  0.344190  0.721570  1.0
  C  C1724  1  0.071860  0.655810  0.778430  1.0
  C  C1725  1  0.428140  0.155810  0.278430  1.0
  C  C1726  1  0.428140  0.844190  0.221570  1.0
  C  C1727  1  0.928140  0.655810  0.278430  1.0
  C  C1728  1  0.928140  0.344190  0.221570  1.0
  C  C1729  1  0.557810  0.811660  0.698900  1.0
  C  C1730  1  0.557810  0.188340  0.801100  1.0
  C  C1731  1  0.057810  0.311660  0.698900  1.0
  C  C1732  1  0.057810  0.688340  0.801100  1.0
  C  C1733  1  0.442190  0.188340  0.301100  1.0
  C  C1734  1  0.442190  0.811660  0.198900  1.0
  C  C1735  1  0.942190  0.688340  0.301100  1.0
  C  C1736  1  0.942190  0.311660  0.198900  1.0
  C  C1737  1  0.615730  0.893510  0.654250  1.0
  C  C1738  1  0.615730  0.106490  0.845750  1.0
  C  C1739  1  0.115730  0.393510  0.654250  1.0
  C  C1740  1  0.115730  0.606490  0.845750  1.0
  C  C1741  1  0.384270  0.106490  0.345750  1.0
  C  C1742  1  0.384270  0.893510  0.154250  1.0
  C  C1743  1  0.884270  0.606490  0.345750  1.0
  C  C1744  1  0.884270  0.393510  0.154250  1.0
  C  C1745  1  0.656770  0.903380  0.669290  1.0
  C  C1746  1  0.656770  0.096620  0.830710  1.0
  C  C1747  1  0.156770  0.403380  0.669290  1.0
  C  C1748  1  0.156770  0.596620  0.830710  1.0
  C  C1749  1  0.343230  0.096620  0.330710  1.0
  C  C1750  1  0.343230  0.903380  0.169290  1.0
  C  C1751  1  0.843230  0.596620  0.330710  1.0
  C  C1752  1  0.843230  0.403380  0.169290  1.0
  C  C1753  1  0.660850  0.937940  0.692390  1.0
  C  C1754  1  0.660850  0.062060  0.807610  1.0
  C  C1755  1  0.160850  0.437940  0.692390  1.0
  C  C1756  1  0.160850  0.562060  0.807610  1.0
  C  C1757  1  0.339150  0.062060  0.307610  1.0
  C  C1758  1  0.339150  0.937940  0.192390  1.0
  C  C1759  1  0.839150  0.562060  0.307610  1.0
  C  C1760  1  0.839150  0.437940  0.192390  1.0
  C  C1761  1  0.623890  0.962630  0.700440  1.0
  C  C1762  1  0.623890  0.037370  0.799560  1.0
  C  C1763  1  0.123890  0.462630  0.700440  1.0
  C  C1764  1  0.123890  0.537370  0.799560  1.0
  C  C1765  1  0.376110  0.037370  0.299560  1.0
  C  C1766  1  0.376110  0.962630  0.200440  1.0
  C  C1767  1  0.876110  0.537370  0.299560  1.0
  C  C1768  1  0.876110  0.462630  0.200440  1.0
  C  C1769  1  0.582840  0.952760  0.685410  1.0
  C  C1770  1  0.582840  0.047240  0.814590  1.0
  C  C1771  1  0.082840  0.452760  0.685410  1.0
  C  C1772  1  0.082840  0.547240  0.814590  1.0
  C  C1773  1  0.417160  0.047240  0.314590  1.0
  C  C1774  1  0.417160  0.952760  0.185410  1.0
  C  C1775  1  0.917160  0.547240  0.314590  1.0
  C  C1776  1  0.917160  0.452760  0.185410  1.0
  C  C1777  1  0.610600  0.797420  0.600890  1.0
  C  C1778  1  0.610600  0.202580  0.899110  1.0
  C  C1779  1  0.110600  0.297420  0.600890  1.0
  C  C1780  1  0.110600  0.702580  0.899110  1.0
  C  C1781  1  0.389400  0.202580  0.399110  1.0
  C  C1782  1  0.389400  0.797420  0.100890  1.0
  C  C1783  1  0.889400  0.702580  0.399110  1.0
  C  C1784  1  0.889400  0.297420  0.100890  1.0
  C  C1785  1  0.636820  0.826540  0.621060  1.0
  C  C1786  1  0.636820  0.173460  0.878940  1.0
  C  C1787  1  0.136820  0.326540  0.621060  1.0
  C  C1788  1  0.136820  0.673460  0.878940  1.0
  C  C1789  1  0.363180  0.173460  0.378940  1.0
  C  C1790  1  0.363180  0.826540  0.121060  1.0
  C  C1791  1  0.863180  0.673460  0.378940  1.0
  C  C1792  1  0.863180  0.326540  0.121060  1.0
  C  C1793  1  0.608480  0.859370  0.633420  1.0
  C  C1794  1  0.608480  0.140630  0.866580  1.0
  C  C1795  1  0.108480  0.359370  0.633420  1.0
  C  C1796  1  0.108480  0.640630  0.866580  1.0
  C  C1797  1  0.391520  0.140630  0.366580  1.0
  C  C1798  1  0.391520  0.859370  0.133420  1.0
  C  C1799  1  0.891520  0.640630  0.366580  1.0
  C  C1800  1  0.891520  0.359370  0.133420  1.0
  C  C1801  1  0.530400  0.795400  0.582000  1.0
  C  C1802  1  0.530400  0.204600  0.918000  1.0
  C  C1803  1  0.030400  0.295400  0.582000  1.0
  C  C1804  1  0.030400  0.704600  0.918000  1.0
  C  C1805  1  0.469600  0.204600  0.418000  1.0
  C  C1806  1  0.469600  0.795400  0.082000  1.0
  C  C1807  1  0.969600  0.704600  0.418000  1.0
  C  C1808  1  0.969600  0.295400  0.082000  1.0
  C  C1809  1  0.350900  0.727930  0.375040  1.0
  C  C1810  1  0.350900  0.272070  0.124960  1.0
  C  C1811  1  0.850900  0.227930  0.375040  1.0
  C  C1812  1  0.850900  0.772070  0.124960  1.0
  C  C1813  1  0.649100  0.272070  0.624960  1.0
  C  C1814  1  0.649100  0.727930  0.875040  1.0
  C  C1815  1  0.149100  0.772070  0.624960  1.0
  C  C1816  1  0.149100  0.227930  0.875040  1.0
  C  C1817  1  0.308990  0.712010  0.366220  1.0
  C  C1818  1  0.308990  0.287990  0.133780  1.0
  C  C1819  1  0.808990  0.212010  0.366220  1.0
  C  C1820  1  0.808990  0.787990  0.133780  1.0
  C  C1821  1  0.691010  0.287990  0.633780  1.0
  C  C1822  1  0.691010  0.712010  0.866220  1.0
  C  C1823  1  0.191010  0.787990  0.633780  1.0
  C  C1824  1  0.191010  0.212010  0.866220  1.0
  C  C1825  1  0.305360  0.674580  0.346650  1.0
  C  C1826  1  0.305360  0.325420  0.153350  1.0
  C  C1827  1  0.805360  0.174580  0.346650  1.0
  C  C1828  1  0.805360  0.825420  0.153350  1.0
  C  C1829  1  0.694640  0.325420  0.653350  1.0
  C  C1830  1  0.694640  0.674580  0.846650  1.0
  C  C1831  1  0.194640  0.825420  0.653350  1.0
  C  C1832  1  0.194640  0.174580  0.846650  1.0
  C  C1833  1  0.343640  0.653080  0.335920  1.0
  C  C1834  1  0.343640  0.346920  0.164080  1.0
  C  C1835  1  0.843640  0.153080  0.335920  1.0
  C  C1836  1  0.843640  0.846920  0.164080  1.0
  C  C1837  1  0.656360  0.346920  0.664080  1.0
  C  C1838  1  0.656360  0.653080  0.835920  1.0
  C  C1839  1  0.156360  0.846920  0.664080  1.0
  C  C1840  1  0.156360  0.153080  0.835920  1.0
  C  C1841  1  0.385540  0.668990  0.344740  1.0
  C  C1842  1  0.385540  0.331010  0.155260  1.0
  C  C1843  1  0.885540  0.168990  0.344740  1.0
  C  C1844  1  0.885540  0.831010  0.155260  1.0
  C  C1845  1  0.614460  0.331010  0.655260  1.0
  C  C1846  1  0.614460  0.668990  0.844740  1.0
  C  C1847  1  0.114460  0.831010  0.655260  1.0
  C  C1848  1  0.114460  0.168990  0.844740  1.0
  C  C1849  1  0.355860  0.827200  0.424620  1.0
  C  C1850  1  0.355860  0.172800  0.075380  1.0
  C  C1851  1  0.855860  0.327200  0.424620  1.0
  C  C1852  1  0.855860  0.672800  0.075380  1.0
  C  C1853  1  0.644140  0.172800  0.575380  1.0
  C  C1854  1  0.644140  0.827200  0.924620  1.0
  C  C1855  1  0.144140  0.672800  0.575380  1.0
  C  C1856  1  0.144140  0.327200  0.924620  1.0
  C  C1857  1  0.329770  0.797600  0.404840  1.0
  C  C1858  1  0.329770  0.202400  0.095160  1.0
  C  C1859  1  0.829770  0.297600  0.404840  1.0
  C  C1860  1  0.829770  0.702400  0.095160  1.0
  C  C1861  1  0.670230  0.202400  0.595160  1.0
  C  C1862  1  0.670230  0.797600  0.904840  1.0
  C  C1863  1  0.170230  0.702400  0.595160  1.0
  C  C1864  1  0.170230  0.297600  0.904840  1.0
  C  C1865  1  0.357920  0.764050  0.393920  1.0
  C  C1866  1  0.357920  0.235950  0.106080  1.0
  C  C1867  1  0.857920  0.264050  0.393920  1.0
  C  C1868  1  0.857920  0.735950  0.106080  1.0
  C  C1869  1  0.642080  0.235950  0.606080  1.0
  C  C1870  1  0.642080  0.764050  0.893920  1.0
  C  C1871  1  0.142080  0.735950  0.606080  1.0
  C  C1872  1  0.142080  0.264050  0.893920  1.0
  C  C1873  1  0.436000  0.826700  0.445200  1.0
  C  C1874  1  0.436000  0.173300  0.054800  1.0
  C  C1875  1  0.936000  0.326700  0.445200  1.0
  C  C1876  1  0.936000  0.673300  0.054800  1.0
  C  C1877  1  0.564000  0.173300  0.554800  1.0
  C  C1878  1  0.564000  0.826700  0.945200  1.0
  C  C1879  1  0.064000  0.673300  0.554800  1.0
  C  C1880  1  0.064000  0.326700  0.945200  1.0
  C  C1881  1  0.524640  0.809630  0.546900  1.0
  C  C1882  1  0.524640  0.190370  0.953100  1.0
  C  C1883  1  0.024640  0.309630  0.546900  1.0
  C  C1884  1  0.024640  0.690370  0.953100  1.0
  C  C1885  1  0.475360  0.190370  0.453100  1.0
  C  C1886  1  0.475360  0.809630  0.046900  1.0
  C  C1887  1  0.975360  0.690370  0.453100  1.0
  C  C1888  1  0.975360  0.309630  0.046900  1.0
  C  C1889  1  0.556300  0.836520  0.536480  1.0
  C  C1890  1  0.556300  0.163480  0.963520  1.0
  C  C1891  1  0.056300  0.336520  0.536480  1.0
  C  C1892  1  0.056300  0.663480  0.963520  1.0
  C  C1893  1  0.443700  0.163480  0.463520  1.0
  C  C1894  1  0.443700  0.836520  0.036480  1.0
  C  C1895  1  0.943700  0.663480  0.463520  1.0
  C  C1896  1  0.943700  0.336520  0.036480  1.0
  C  C1897  1  0.550290  0.853740  0.506410  1.0
  C  C1898  1  0.550290  0.146260  0.993590  1.0
  C  C1899  1  0.050290  0.353740  0.506410  1.0
  C  C1900  1  0.050290  0.646260  0.993590  1.0
  C  C1901  1  0.449710  0.146260  0.493590  1.0
  C  C1902  1  0.449710  0.853740  0.006410  1.0
  C  C1903  1  0.949710  0.646260  0.493590  1.0
  C  C1904  1  0.949710  0.353740  0.006410  1.0
  C  C1905  1  0.512610  0.844080  0.486760  1.0
  C  C1906  1  0.512610  0.155920  0.013240  1.0
  C  C1907  1  0.012610  0.344080  0.486760  1.0
  C  C1908  1  0.012610  0.655920  0.013240  1.0
  C  C1909  1  0.487390  0.155920  0.513240  1.0
  C  C1910  1  0.487390  0.844080  0.986760  1.0
  C  C1911  1  0.987390  0.655920  0.513240  1.0
  C  C1912  1  0.987390  0.344080  0.986760  1.0
  C  C1913  1  0.480950  0.817190  0.497180  1.0
  C  C1914  1  0.480950  0.182810  0.002820  1.0
  C  C1915  1  0.980950  0.317190  0.497180  1.0
  C  C1916  1  0.980950  0.682810  0.002820  1.0
  C  C1917  1  0.519050  0.182810  0.502820  1.0
  C  C1918  1  0.519050  0.817190  0.997180  1.0
  C  C1919  1  0.019050  0.682810  0.502820  1.0
  C  C1920  1  0.019050  0.317190  0.997180  1.0
  C  C1921  1  0.486960  0.799970  0.527250  1.0
  C  C1922  1  0.486960  0.200030  0.972750  1.0
  C  C1923  1  0.986960  0.299970  0.527250  1.0
  C  C1924  1  0.986960  0.700030  0.972750  1.0
  C  C1925  1  0.513040  0.200030  0.472750  1.0
  C  C1926  1  0.513040  0.799970  0.027250  1.0
  C  C1927  1  0.013040  0.700030  0.472750  1.0
  C  C1928  1  0.013040  0.299970  0.027250  1.0
  C  C1929  1  0.455300  0.773080  0.537670  1.0
  C  C1930  1  0.455300  0.226920  0.962330  1.0
  C  C1931  1  0.955300  0.273080  0.537670  1.0
  C  C1932  1  0.955300  0.726920  0.962330  1.0
  C  C1933  1  0.544700  0.226920  0.462330  1.0
  C  C1934  1  0.544700  0.773080  0.037670  1.0
  C  C1935  1  0.044700  0.726920  0.462330  1.0
  C  C1936  1  0.044700  0.273080  0.037670  1.0
  C  C1937  1  0.417620  0.763410  0.518020  1.0
  C  C1938  1  0.417620  0.236590  0.981980  1.0
  C  C1939  1  0.917620  0.263410  0.518020  1.0
  C  C1940  1  0.917620  0.736590  0.981980  1.0
  C  C1941  1  0.582380  0.236590  0.481980  1.0
  C  C1942  1  0.582380  0.763410  0.018020  1.0
  C  C1943  1  0.082380  0.736590  0.481980  1.0
  C  C1944  1  0.082380  0.263410  0.018020  1.0
  C  C1945  1  0.411610  0.780640  0.487950  1.0
  C  C1946  1  0.411610  0.219360  0.012050  1.0
  C  C1947  1  0.911610  0.280640  0.487950  1.0
  C  C1948  1  0.911610  0.719360  0.012050  1.0
  C  C1949  1  0.588390  0.219360  0.512050  1.0
  C  C1950  1  0.588390  0.780640  0.987950  1.0
  C  C1951  1  0.088390  0.719360  0.512050  1.0
  C  C1952  1  0.088390  0.280640  0.987950  1.0
  C  C1953  1  0.443270  0.807530  0.477530  1.0
  C  C1954  1  0.443270  0.192470  0.022470  1.0
  C  C1955  1  0.943270  0.307530  0.477530  1.0
  C  C1956  1  0.943270  0.692470  0.022470  1.0
  C  C1957  1  0.556730  0.192470  0.522470  1.0
  C  C1958  1  0.556730  0.807530  0.977530  1.0
  C  C1959  1  0.056730  0.692470  0.522470  1.0
  C  C1960  1  0.056730  0.307530  0.977530  1.0
  C  C1961  1  0.486750  0.752110  0.318490  1.0
  C  C1962  1  0.486750  0.247890  0.181510  1.0
  C  C1963  1  0.986750  0.252110  0.318490  1.0
  C  C1964  1  0.986750  0.747890  0.181510  1.0
  C  C1965  1  0.513250  0.247890  0.681510  1.0
  C  C1966  1  0.513250  0.752110  0.818490  1.0
  C  C1967  1  0.013250  0.747890  0.681510  1.0
  C  C1968  1  0.013250  0.252110  0.818490  1.0
  C  C1969  1  0.499270  0.774990  0.292640  1.0
  C  C1970  1  0.499270  0.225010  0.207360  1.0
  C  C1971  1  0.999270  0.274990  0.292640  1.0
  C  C1972  1  0.999270  0.725010  0.207360  1.0
  C  C1973  1  0.500730  0.225010  0.707360  1.0
  C  C1974  1  0.500730  0.774990  0.792640  1.0
  C  C1975  1  0.000730  0.725010  0.707360  1.0
  C  C1976  1  0.000730  0.274990  0.792640  1.0
  C  C1977  1  0.486520  0.815710  0.293720  1.0
  C  C1978  1  0.486520  0.184290  0.206280  1.0
  C  C1979  1  0.986520  0.315710  0.293720  1.0
  C  C1980  1  0.986520  0.684290  0.206280  1.0
  C  C1981  1  0.513480  0.184290  0.706280  1.0
  C  C1982  1  0.513480  0.815710  0.793720  1.0
  C  C1983  1  0.013480  0.684290  0.706280  1.0
  C  C1984  1  0.013480  0.315710  0.793720  1.0
  C  C1985  1  0.461250  0.833550  0.320640  1.0
  C  C1986  1  0.461250  0.166450  0.179360  1.0
  C  C1987  1  0.961250  0.333550  0.320640  1.0
  C  C1988  1  0.961250  0.666450  0.179360  1.0
  C  C1989  1  0.538750  0.166450  0.679360  1.0
  C  C1990  1  0.538750  0.833550  0.820640  1.0
  C  C1991  1  0.038750  0.666450  0.679360  1.0
  C  C1992  1  0.038750  0.333550  0.820640  1.0
  C  C1993  1  0.448720  0.810670  0.346480  1.0
  C  C1994  1  0.448720  0.189330  0.153520  1.0
  C  C1995  1  0.948720  0.310670  0.346480  1.0
  C  C1996  1  0.948720  0.689330  0.153520  1.0
  C  C1997  1  0.551280  0.189330  0.653520  1.0
  C  C1998  1  0.551280  0.810670  0.846480  1.0
  C  C1999  1  0.051280  0.689330  0.653520  1.0
  C  C2000  1  0.051280  0.310670  0.846480  1.0
  C  C2001  1  0.513000  0.643210  0.308920  1.0
  C  C2002  1  0.513000  0.356790  0.191080  1.0
  C  C2003  1  0.013000  0.143210  0.308920  1.0
  C  C2004  1  0.013000  0.856790  0.191080  1.0
  C  C2005  1  0.487000  0.356790  0.691080  1.0
  C  C2006  1  0.487000  0.643210  0.808920  1.0
  C  C2007  1  0.987000  0.856790  0.691080  1.0
  C  C2008  1  0.987000  0.143210  0.808920  1.0
  C  C2009  1  0.514100  0.680980  0.294730  1.0
  C  C2010  1  0.514100  0.319020  0.205270  1.0
  C  C2011  1  0.014100  0.180980  0.294730  1.0
  C  C2012  1  0.014100  0.819020  0.205270  1.0
  C  C2013  1  0.485900  0.319020  0.705270  1.0
  C  C2014  1  0.485900  0.680980  0.794730  1.0
  C  C2015  1  0.985900  0.819020  0.705270  1.0
  C  C2016  1  0.985900  0.180980  0.794730  1.0
  C  C2017  1  0.497090  0.711690  0.319130  1.0
  C  C2018  1  0.497090  0.288310  0.180870  1.0
  C  C2019  1  0.997090  0.211690  0.319130  1.0
  C  C2020  1  0.997090  0.788310  0.180870  1.0
  C  C2021  1  0.502910  0.288310  0.680870  1.0
  C  C2022  1  0.502910  0.711690  0.819130  1.0
  C  C2023  1  0.002910  0.788310  0.680870  1.0
  C  C2024  1  0.002910  0.211690  0.819130  1.0
  C  C2025  1  0.492200  0.624700  0.366900  1.0
  C  C2026  1  0.492200  0.375300  0.133100  1.0
  C  C2027  1  0.992200  0.124700  0.366900  1.0
  C  C2028  1  0.992200  0.875300  0.133100  1.0
  C  C2029  1  0.507800  0.375300  0.633100  1.0
  C  C2030  1  0.507800  0.624700  0.866900  1.0
  C  C2031  1  0.007800  0.875300  0.633100  1.0
  C  C2032  1  0.007800  0.124700  0.866900  1.0
  C  C2033  1  0.647260  0.460760  0.533170  1.0
  C  C2034  1  0.647260  0.539240  0.966830  1.0
  C  C2035  1  0.147260  0.960760  0.533170  1.0
  C  C2036  1  0.147260  0.039240  0.966830  1.0
  C  C2037  1  0.352740  0.539240  0.466830  1.0
  C  C2038  1  0.352740  0.460760  0.033170  1.0
  C  C2039  1  0.852740  0.039240  0.466830  1.0
  C  C2040  1  0.852740  0.960760  0.033170  1.0
  C  C2041  1  0.652380  0.439180  0.561090  1.0
  C  C2042  1  0.652380  0.560820  0.938910  1.0
  C  C2043  1  0.152380  0.939180  0.561090  1.0
  C  C2044  1  0.152380  0.060820  0.938910  1.0
  C  C2045  1  0.347620  0.560820  0.438910  1.0
  C  C2046  1  0.347620  0.439180  0.061090  1.0
  C  C2047  1  0.847620  0.060820  0.438910  1.0
  C  C2048  1  0.847620  0.939180  0.061090  1.0
  C  C2049  1  0.676920  0.403130  0.558340  1.0
  C  C2050  1  0.676920  0.596870  0.941660  1.0
  C  C2051  1  0.176920  0.903130  0.558340  1.0
  C  C2052  1  0.176920  0.096870  0.941660  1.0
  C  C2053  1  0.323080  0.596870  0.441660  1.0
  C  C2054  1  0.323080  0.403130  0.058340  1.0
  C  C2055  1  0.823080  0.096870  0.441660  1.0
  C  C2056  1  0.823080  0.903130  0.058340  1.0
  C  C2057  1  0.696340  0.388660  0.527670  1.0
  C  C2058  1  0.696340  0.611340  0.972330  1.0
  C  C2059  1  0.196340  0.888660  0.527670  1.0
  C  C2060  1  0.196340  0.111340  0.972330  1.0
  C  C2061  1  0.303660  0.611340  0.472330  1.0
  C  C2062  1  0.303660  0.388660  0.027670  1.0
  C  C2063  1  0.803660  0.111340  0.472330  1.0
  C  C2064  1  0.803660  0.888660  0.027670  1.0
  C  C2065  1  0.691220  0.410250  0.499750  1.0
  C  C2066  1  0.691220  0.589750  0.000250  1.0
  C  C2067  1  0.191220  0.910250  0.499750  1.0
  C  C2068  1  0.191220  0.089750  0.000250  1.0
  C  C2069  1  0.308780  0.589750  0.500250  1.0
  C  C2070  1  0.308780  0.410250  0.999750  1.0
  C  C2071  1  0.808780  0.089750  0.500250  1.0
  C  C2072  1  0.808780  0.910250  0.999750  1.0
  C  C2073  1  0.595110  0.560790  0.547880  1.0
  C  C2074  1  0.595110  0.439210  0.952120  1.0
  C  C2075  1  0.095110  0.060790  0.547880  1.0
  C  C2076  1  0.095110  0.939210  0.952120  1.0
  C  C2077  1  0.404890  0.439210  0.452120  1.0
  C  C2078  1  0.404890  0.560790  0.047880  1.0
  C  C2079  1  0.904890  0.939210  0.452120  1.0
  C  C2080  1  0.904890  0.060790  0.047880  1.0
  C  C2081  1  0.604670  0.522880  0.560310  1.0
  C  C2082  1  0.604670  0.477120  0.939690  1.0
  C  C2083  1  0.104670  0.022880  0.560310  1.0
  C  C2084  1  0.104670  0.977120  0.939690  1.0
  C  C2085  1  0.395330  0.477120  0.439690  1.0
  C  C2086  1  0.395330  0.522880  0.060310  1.0
  C  C2087  1  0.895330  0.977120  0.439690  1.0
  C  C2088  1  0.895330  0.022880  0.060310  1.0
  C  C2089  1  0.627860  0.498000  0.534680  1.0
  C  C2090  1  0.627860  0.502000  0.965320  1.0
  C  C2091  1  0.127860  0.998000  0.534680  1.0
  C  C2092  1  0.127860  0.002000  0.965320  1.0
  C  C2093  1  0.372140  0.502000  0.465320  1.0
  C  C2094  1  0.372140  0.498000  0.034680  1.0
  C  C2095  1  0.872140  0.002000  0.465320  1.0
  C  C2096  1  0.872140  0.998000  0.034680  1.0
  C  C2097  1  0.611200  0.588500  0.491920  1.0
  C  C2098  1  0.611200  0.411500  0.008080  1.0
  C  C2099  1  0.111200  0.088500  0.491920  1.0
  C  C2100  1  0.111200  0.911500  0.008080  1.0
  C  C2101  1  0.388800  0.411500  0.508080  1.0
  C  C2102  1  0.388800  0.588500  0.991920  1.0
  C  C2103  1  0.888800  0.911500  0.508080  1.0
  C  C2104  1  0.888800  0.088500  0.991920  1.0
  C  C2105  1  0.531450  0.626790  0.391620  1.0
  C  C2106  1  0.531450  0.373210  0.108380  1.0
  C  C2107  1  0.031450  0.126790  0.391620  1.0
  C  C2108  1  0.031450  0.873210  0.108380  1.0
  C  C2109  1  0.468550  0.373210  0.608380  1.0
  C  C2110  1  0.468550  0.626790  0.891620  1.0
  C  C2111  1  0.968550  0.873210  0.608380  1.0
  C  C2112  1  0.968550  0.126790  0.891620  1.0
  C  C2113  1  0.566850  0.652470  0.385840  1.0
  C  C2114  1  0.566850  0.347530  0.114160  1.0
  C  C2115  1  0.066850  0.152470  0.385840  1.0
  C  C2116  1  0.066850  0.847530  0.114160  1.0
  C  C2117  1  0.433150  0.347530  0.614160  1.0
  C  C2118  1  0.433150  0.652470  0.885840  1.0
  C  C2119  1  0.933150  0.847530  0.614160  1.0
  C  C2120  1  0.933150  0.152470  0.885840  1.0
  C  C2121  1  0.603160  0.655740  0.407730  1.0
  C  C2122  1  0.603160  0.344260  0.092270  1.0
  C  C2123  1  0.103160  0.155740  0.407730  1.0
  C  C2124  1  0.103160  0.844260  0.092270  1.0
  C  C2125  1  0.396840  0.344260  0.592270  1.0
  C  C2126  1  0.396840  0.655740  0.907730  1.0
  C  C2127  1  0.896840  0.844260  0.592270  1.0
  C  C2128  1  0.896840  0.155740  0.907730  1.0
  C  C2129  1  0.604060  0.633330  0.435400  1.0
  C  C2130  1  0.604060  0.366670  0.064600  1.0
  C  C2131  1  0.104060  0.133330  0.435400  1.0
  C  C2132  1  0.104060  0.866670  0.064600  1.0
  C  C2133  1  0.395940  0.366670  0.564600  1.0
  C  C2134  1  0.395940  0.633330  0.935400  1.0
  C  C2135  1  0.895940  0.866670  0.564600  1.0
  C  C2136  1  0.895940  0.133330  0.935400  1.0
  C  C2137  1  0.568670  0.607650  0.441180  1.0
  C  C2138  1  0.568670  0.392350  0.058820  1.0
  C  C2139  1  0.068670  0.107650  0.441180  1.0
  C  C2140  1  0.068670  0.892350  0.058820  1.0
  C  C2141  1  0.431330  0.392350  0.558820  1.0
  C  C2142  1  0.431330  0.607650  0.941180  1.0
  C  C2143  1  0.931330  0.892350  0.558820  1.0
  C  C2144  1  0.931330  0.107650  0.941180  1.0
  C  C2145  1  0.532360  0.604370  0.419300  1.0
  C  C2146  1  0.532360  0.395630  0.080700  1.0
  C  C2147  1  0.032360  0.104370  0.419300  1.0
  C  C2148  1  0.032360  0.895630  0.080700  1.0
  C  C2149  1  0.467640  0.395630  0.580700  1.0
  C  C2150  1  0.467640  0.604370  0.919300  1.0
  C  C2151  1  0.967640  0.895630  0.580700  1.0
  C  C2152  1  0.967640  0.104370  0.919300  1.0
  C  C2153  1  0.496960  0.578690  0.425080  1.0
  C  C2154  1  0.496960  0.421310  0.074920  1.0
  C  C2155  1  0.996960  0.078690  0.425080  1.0
  C  C2156  1  0.996960  0.921310  0.074920  1.0
  C  C2157  1  0.503040  0.421310  0.574920  1.0
  C  C2158  1  0.503040  0.578690  0.925080  1.0
  C  C2159  1  0.003040  0.921310  0.574920  1.0
  C  C2160  1  0.003040  0.078690  0.925080  1.0
  C  C2161  1  0.497860  0.556270  0.452750  1.0
  C  C2162  1  0.497860  0.443730  0.047250  1.0
  C  C2163  1  0.997860  0.056270  0.452750  1.0
  C  C2164  1  0.997860  0.943730  0.047250  1.0
  C  C2165  1  0.502140  0.443730  0.547250  1.0
  C  C2166  1  0.502140  0.556270  0.952750  1.0
  C  C2167  1  0.002140  0.943730  0.547250  1.0
  C  C2168  1  0.002140  0.056270  0.952750  1.0
  C  C2169  1  0.534170  0.559550  0.474640  1.0
  C  C2170  1  0.534170  0.440450  0.025360  1.0
  C  C2171  1  0.034170  0.059550  0.474640  1.0
  C  C2172  1  0.034170  0.940450  0.025360  1.0
  C  C2173  1  0.465830  0.440450  0.525360  1.0
  C  C2174  1  0.465830  0.559550  0.974640  1.0
  C  C2175  1  0.965830  0.940450  0.525360  1.0
  C  C2176  1  0.965830  0.059550  0.974640  1.0
  C  C2177  1  0.569570  0.585230  0.468850  1.0
  C  C2178  1  0.569570  0.414770  0.031150  1.0
  C  C2179  1  0.069570  0.085230  0.468850  1.0
  C  C2180  1  0.069570  0.914770  0.031150  1.0
  C  C2181  1  0.430430  0.414770  0.531150  1.0
  C  C2182  1  0.430430  0.585230  0.968850  1.0
  C  C2183  1  0.930430  0.914770  0.531150  1.0
  C  C2184  1  0.930430  0.085230  0.968850  1.0
  C  C2185  1  0.737170  0.595570  0.782940  1.0
  C  C2186  1  0.737170  0.404430  0.717060  1.0
  C  C2187  1  0.237170  0.095570  0.782940  1.0
  C  C2188  1  0.237170  0.904430  0.717060  1.0
  C  C2189  1  0.262830  0.404430  0.217060  1.0
  C  C2190  1  0.262830  0.595570  0.282940  1.0
  C  C2191  1  0.762830  0.904430  0.217060  1.0
  C  C2192  1  0.762830  0.095570  0.282940  1.0
  C  C2193  1  0.730470  0.569030  0.807390  1.0
  C  C2194  1  0.730470  0.430970  0.692610  1.0
  C  C2195  1  0.230470  0.069030  0.807390  1.0
  C  C2196  1  0.230470  0.930970  0.692610  1.0
  C  C2197  1  0.269530  0.430970  0.192610  1.0
  C  C2198  1  0.269530  0.569030  0.307390  1.0
  C  C2199  1  0.769530  0.930970  0.192610  1.0
  C  C2200  1  0.769530  0.069030  0.307390  1.0
  C  C2201  1  0.693300  0.543530  0.805560  1.0
  C  C2202  1  0.693300  0.456470  0.694440  1.0
  C  C2203  1  0.193300  0.043530  0.805560  1.0
  C  C2204  1  0.193300  0.956470  0.694440  1.0
  C  C2205  1  0.306700  0.456470  0.194440  1.0
  C  C2206  1  0.306700  0.543530  0.305560  1.0
  C  C2207  1  0.806700  0.956470  0.194440  1.0
  C  C2208  1  0.806700  0.043530  0.305560  1.0
  C  C2209  1  0.662920  0.544570  0.779300  1.0
  C  C2210  1  0.662920  0.455430  0.720700  1.0
  C  C2211  1  0.162920  0.044570  0.779300  1.0
  C  C2212  1  0.162920  0.955430  0.720700  1.0
  C  C2213  1  0.337080  0.455430  0.220700  1.0
  C  C2214  1  0.337080  0.544570  0.279300  1.0
  C  C2215  1  0.837080  0.955430  0.220700  1.0
  C  C2216  1  0.837080  0.044570  0.279300  1.0
  C  C2217  1  0.669620  0.571110  0.754850  1.0
  C  C2218  1  0.669620  0.428890  0.745150  1.0
  C  C2219  1  0.169620  0.071110  0.754850  1.0
  C  C2220  1  0.169620  0.928890  0.745150  1.0
  C  C2221  1  0.330380  0.428890  0.245150  1.0
  C  C2222  1  0.330380  0.571110  0.254850  1.0
  C  C2223  1  0.830380  0.928890  0.245150  1.0
  C  C2224  1  0.830380  0.071110  0.254850  1.0
  C  C2225  1  0.830490  0.666330  0.795920  1.0
  C  C2226  1  0.830490  0.333670  0.704080  1.0
  C  C2227  1  0.330490  0.166330  0.795920  1.0
  C  C2228  1  0.330490  0.833670  0.704080  1.0
  C  C2229  1  0.169510  0.333670  0.204080  1.0
  C  C2230  1  0.169510  0.666330  0.295920  1.0
  C  C2231  1  0.669510  0.833670  0.204080  1.0
  C  C2232  1  0.669510  0.166330  0.295920  1.0
  C  C2233  1  0.806330  0.632910  0.806660  1.0
  C  C2234  1  0.806330  0.367090  0.693340  1.0
  C  C2235  1  0.306330  0.132910  0.806660  1.0
  C  C2236  1  0.306330  0.867090  0.693340  1.0
  C  C2237  1  0.193670  0.367090  0.193340  1.0
  C  C2238  1  0.193670  0.632910  0.306660  1.0
  C  C2239  1  0.693670  0.867090  0.193340  1.0
  C  C2240  1  0.693670  0.132910  0.306660  1.0
  C  C2241  1  0.770990  0.623280  0.783370  1.0
  C  C2242  1  0.770990  0.376720  0.716630  1.0
  C  C2243  1  0.270990  0.123280  0.783370  1.0
  C  C2244  1  0.270990  0.876720  0.716630  1.0
  C  C2245  1  0.229010  0.376720  0.216630  1.0
  C  C2246  1  0.229010  0.623280  0.283370  1.0
  C  C2247  1  0.729010  0.876720  0.216630  1.0
  C  C2248  1  0.729010  0.123280  0.283370  1.0
  C  C2249  1  0.824000  0.704500  0.744300  1.0
  C  C2250  1  0.824000  0.295500  0.755700  1.0
  C  C2251  1  0.324000  0.204500  0.744300  1.0
  C  C2252  1  0.324000  0.795500  0.755700  1.0
  C  C2253  1  0.176000  0.295500  0.255700  1.0
  C  C2254  1  0.176000  0.704500  0.244300  1.0
  C  C2255  1  0.676000  0.795500  0.255700  1.0
  C  C2256  1  0.676000  0.204500  0.244300  1.0
  C  C2257  1  0.013730  0.796110  0.550390  1.0
  C  C2258  1  0.013730  0.203890  0.949610  1.0
  C  C2259  1  0.513730  0.296110  0.550390  1.0
  C  C2260  1  0.513730  0.703890  0.949610  1.0
  C  C2261  1  0.986270  0.203890  0.449610  1.0
  C  C2262  1  0.986270  0.796110  0.050390  1.0
  C  C2263  1  0.486270  0.703890  0.449610  1.0
  C  C2264  1  0.486270  0.296110  0.050390  1.0
  C  C2265  1  0.012220  0.814700  0.520660  1.0
  C  C2266  1  0.012220  0.185300  0.979340  1.0
  C  C2267  1  0.512220  0.314700  0.520660  1.0
  C  C2268  1  0.512220  0.685300  0.979340  1.0
  C  C2269  1  0.987780  0.185300  0.479340  1.0
  C  C2270  1  0.987780  0.814700  0.020660  1.0
  C  C2271  1  0.487780  0.685300  0.479340  1.0
  C  C2272  1  0.487780  0.314700  0.020660  1.0
  C  C2273  1  0.047540  0.839050  0.512170  1.0
  C  C2274  1  0.047540  0.160950  0.987830  1.0
  C  C2275  1  0.547540  0.339050  0.512170  1.0
  C  C2276  1  0.547540  0.660950  0.987830  1.0
  C  C2277  1  0.952460  0.160950  0.487830  1.0
  C  C2278  1  0.952460  0.839050  0.012170  1.0
  C  C2279  1  0.452460  0.660950  0.487830  1.0
  C  C2280  1  0.452460  0.339050  0.012170  1.0
  C  C2281  1  0.084360  0.844830  0.533420  1.0
  C  C2282  1  0.084360  0.155170  0.966580  1.0
  C  C2283  1  0.584360  0.344830  0.533420  1.0
  C  C2284  1  0.584360  0.655170  0.966580  1.0
  C  C2285  1  0.915640  0.155170  0.466580  1.0
  C  C2286  1  0.915640  0.844830  0.033420  1.0
  C  C2287  1  0.415640  0.655170  0.466580  1.0
  C  C2288  1  0.415640  0.344830  0.033420  1.0
  C  C2289  1  0.085860  0.826240  0.563150  1.0
  C  C2290  1  0.085860  0.173760  0.936850  1.0
  C  C2291  1  0.585860  0.326240  0.563150  1.0
  C  C2292  1  0.585860  0.673760  0.936850  1.0
  C  C2293  1  0.914140  0.173760  0.436850  1.0
  C  C2294  1  0.914140  0.826240  0.063150  1.0
  C  C2295  1  0.414140  0.673760  0.436850  1.0
  C  C2296  1  0.414140  0.326240  0.063150  1.0
  C  C2297  1  0.924420  0.724880  0.559080  1.0
  C  C2298  1  0.924420  0.275120  0.940920  1.0
  C  C2299  1  0.424420  0.224880  0.559080  1.0
  C  C2300  1  0.424420  0.775120  0.940920  1.0
  C  C2301  1  0.075580  0.275120  0.440920  1.0
  C  C2302  1  0.075580  0.724880  0.059080  1.0
  C  C2303  1  0.575580  0.775120  0.440920  1.0
  C  C2304  1  0.575580  0.224880  0.059080  1.0
  C  C2305  1  0.943340  0.755770  0.541180  1.0
  C  C2306  1  0.943340  0.244230  0.958820  1.0
  C  C2307  1  0.443340  0.255770  0.541180  1.0
  C  C2308  1  0.443340  0.744230  0.958820  1.0
  C  C2309  1  0.056660  0.244230  0.458820  1.0
  C  C2310  1  0.056660  0.755770  0.041180  1.0
  C  C2311  1  0.556660  0.744230  0.458820  1.0
  C  C2312  1  0.556660  0.255770  0.041180  1.0
  C  C2313  1  0.983380  0.769400  0.557890  1.0
  C  C2314  1  0.983380  0.230600  0.942110  1.0
  C  C2315  1  0.483380  0.269400  0.557890  1.0
  C  C2316  1  0.483380  0.730600  0.942110  1.0
  C  C2317  1  0.016620  0.230600  0.442110  1.0
  C  C2318  1  0.016620  0.769400  0.057890  1.0
  C  C2319  1  0.516620  0.730600  0.442110  1.0
  C  C2320  1  0.516620  0.269400  0.057890  1.0
  C  C2321  1  0.945400  0.694700  0.612200  1.0
  C  C2322  1  0.945400  0.305300  0.887800  1.0
  C  C2323  1  0.445400  0.194700  0.612200  1.0
  C  C2324  1  0.445400  0.805300  0.887800  1.0
  C  C2325  1  0.054600  0.305300  0.387800  1.0
  C  C2326  1  0.054600  0.694700  0.112200  1.0
  C  C2327  1  0.554600  0.805300  0.387800  1.0
  C  C2328  1  0.554600  0.194700  0.112200  1.0
  C  C2329  1  0.855480  0.685340  0.715650  1.0
  C  C2330  1  0.855480  0.314660  0.784350  1.0
  C  C2331  1  0.355480  0.185340  0.715650  1.0
  C  C2332  1  0.355480  0.814660  0.784350  1.0
  C  C2333  1  0.144520  0.314660  0.284350  1.0
  C  C2334  1  0.144520  0.685340  0.215650  1.0
  C  C2335  1  0.644520  0.814660  0.284350  1.0
  C  C2336  1  0.644520  0.185340  0.215650  1.0
  C  C2337  1  0.868060  0.644680  0.715520  1.0
  C  C2338  1  0.868060  0.355320  0.784480  1.0
  C  C2339  1  0.368060  0.144680  0.715520  1.0
  C  C2340  1  0.368060  0.855320  0.784480  1.0
  C  C2341  1  0.131940  0.355320  0.284480  1.0
  C  C2342  1  0.131940  0.644680  0.215520  1.0
  C  C2343  1  0.631940  0.855320  0.284480  1.0
  C  C2344  1  0.631940  0.144680  0.215520  1.0
  C  C2345  1  0.896370  0.626870  0.690470  1.0
  C  C2346  1  0.896370  0.373130  0.809530  1.0
  C  C2347  1  0.396370  0.126870  0.690470  1.0
  C  C2348  1  0.396370  0.873130  0.809530  1.0
  C  C2349  1  0.103630  0.373130  0.309530  1.0
  C  C2350  1  0.103630  0.626870  0.190470  1.0
  C  C2351  1  0.603630  0.873130  0.309530  1.0
  C  C2352  1  0.603630  0.126870  0.190470  1.0
  C  C2353  1  0.912100  0.649720  0.665540  1.0
  C  C2354  1  0.912100  0.350280  0.834460  1.0
  C  C2355  1  0.412100  0.149720  0.665540  1.0
  C  C2356  1  0.412100  0.850280  0.834460  1.0
  C  C2357  1  0.087900  0.350280  0.334460  1.0
  C  C2358  1  0.087900  0.649720  0.165540  1.0
  C  C2359  1  0.587900  0.850280  0.334460  1.0
  C  C2360  1  0.587900  0.149720  0.165540  1.0
  C  C2361  1  0.899520  0.690390  0.665660  1.0
  C  C2362  1  0.899520  0.309610  0.834340  1.0
  C  C2363  1  0.399520  0.190390  0.665660  1.0
  C  C2364  1  0.399520  0.809610  0.834340  1.0
  C  C2365  1  0.100480  0.309610  0.334340  1.0
  C  C2366  1  0.100480  0.690390  0.165660  1.0
  C  C2367  1  0.600480  0.809610  0.334340  1.0
  C  C2368  1  0.600480  0.190390  0.165660  1.0
  C  C2369  1  0.871210  0.708200  0.690710  1.0
  C  C2370  1  0.871210  0.291800  0.809290  1.0
  C  C2371  1  0.371210  0.208200  0.690710  1.0
  C  C2372  1  0.371210  0.791800  0.809290  1.0
  C  C2373  1  0.128790  0.291800  0.309290  1.0
  C  C2374  1  0.128790  0.708200  0.190710  1.0
  C  C2375  1  0.628790  0.791800  0.309290  1.0
  C  C2376  1  0.628790  0.208200  0.190710  1.0
  C  C2377  1  0.858630  0.748860  0.690840  1.0
  C  C2378  1  0.858630  0.251140  0.809160  1.0
  C  C2379  1  0.358630  0.248860  0.690840  1.0
  C  C2380  1  0.358630  0.751140  0.809160  1.0
  C  C2381  1  0.141370  0.251140  0.309160  1.0
  C  C2382  1  0.141370  0.748860  0.190840  1.0
  C  C2383  1  0.641370  0.751140  0.309160  1.0
  C  C2384  1  0.641370  0.248860  0.190840  1.0
  C  C2385  1  0.874360  0.771710  0.665910  1.0
  C  C2386  1  0.874360  0.228290  0.834090  1.0
  C  C2387  1  0.374360  0.271710  0.665910  1.0
  C  C2388  1  0.374360  0.728290  0.834090  1.0
  C  C2389  1  0.125640  0.228290  0.334090  1.0
  C  C2390  1  0.125640  0.771710  0.165910  1.0
  C  C2391  1  0.625640  0.728290  0.334090  1.0
  C  C2392  1  0.625640  0.271710  0.165910  1.0
  C  C2393  1  0.902670  0.753910  0.640850  1.0
  C  C2394  1  0.902670  0.246090  0.859150  1.0
  C  C2395  1  0.402670  0.253910  0.640850  1.0
  C  C2396  1  0.402670  0.746090  0.859150  1.0
  C  C2397  1  0.097330  0.246090  0.359150  1.0
  C  C2398  1  0.097330  0.753910  0.140850  1.0
  C  C2399  1  0.597330  0.746090  0.359150  1.0
  C  C2400  1  0.597330  0.253910  0.140850  1.0
  C  C2401  1  0.915250  0.713250  0.640730  1.0
  C  C2402  1  0.915250  0.286750  0.859270  1.0
  C  C2403  1  0.415250  0.213250  0.640730  1.0
  C  C2404  1  0.415250  0.786750  0.859270  1.0
  C  C2405  1  0.084750  0.286750  0.359270  1.0
  C  C2406  1  0.084750  0.713250  0.140730  1.0
  C  C2407  1  0.584750  0.786750  0.359270  1.0
  C  C2408  1  0.584750  0.213250  0.140730  1.0
  C  C2409  1  0.460780  0.895360  0.573840  1.0
  C  C2410  1  0.460780  0.104640  0.926160  1.0
  C  C2411  1  0.960780  0.395360  0.573840  1.0
  C  C2412  1  0.960780  0.604640  0.926160  1.0
  C  C2413  1  0.539220  0.104640  0.426160  1.0
  C  C2414  1  0.539220  0.895360  0.073840  1.0
  C  C2415  1  0.039220  0.604640  0.426160  1.0
  C  C2416  1  0.039220  0.395360  0.073840  1.0
  C  C2417  1  0.425390  0.884570  0.552090  1.0
  C  C2418  1  0.425390  0.115430  0.947910  1.0
  C  C2419  1  0.925390  0.384570  0.552090  1.0
  C  C2420  1  0.925390  0.615430  0.947910  1.0
  C  C2421  1  0.574610  0.115430  0.447910  1.0
  C  C2422  1  0.574610  0.884570  0.052090  1.0
  C  C2423  1  0.074610  0.615430  0.447910  1.0
  C  C2424  1  0.074610  0.384570  0.052090  1.0
  C  C2425  1  0.392970  0.857500  0.561080  1.0
  C  C2426  1  0.392970  0.142500  0.938920  1.0
  C  C2427  1  0.892970  0.357500  0.561080  1.0
  C  C2428  1  0.892970  0.642500  0.938920  1.0
  C  C2429  1  0.607030  0.142500  0.438920  1.0
  C  C2430  1  0.607030  0.857500  0.061080  1.0
  C  C2431  1  0.107030  0.642500  0.438920  1.0
  C  C2432  1  0.107030  0.357500  0.061080  1.0
  C  C2433  1  0.395930  0.841210  0.591810  1.0
  C  C2434  1  0.395930  0.158790  0.908190  1.0
  C  C2435  1  0.895930  0.341210  0.591810  1.0
  C  C2436  1  0.895930  0.658790  0.908190  1.0
  C  C2437  1  0.604070  0.158790  0.408190  1.0
  C  C2438  1  0.604070  0.841210  0.091810  1.0
  C  C2439  1  0.104070  0.658790  0.408190  1.0
  C  C2440  1  0.104070  0.341210  0.091810  1.0
  C  C2441  1  0.431320  0.852000  0.613550  1.0
  C  C2442  1  0.431320  0.148000  0.886450  1.0
  C  C2443  1  0.931320  0.352000  0.613550  1.0
  C  C2444  1  0.931320  0.648000  0.886450  1.0
  C  C2445  1  0.568680  0.148000  0.386450  1.0
  C  C2446  1  0.568680  0.852000  0.113550  1.0
  C  C2447  1  0.068680  0.648000  0.386450  1.0
  C  C2448  1  0.068680  0.352000  0.113550  1.0
  C  C2449  1  0.537220  0.972390  0.549030  1.0
  C  C2450  1  0.537220  0.027610  0.950970  1.0
  C  C2451  1  0.037220  0.472390  0.549030  1.0
  C  C2452  1  0.037220  0.527610  0.950970  1.0
  C  C2453  1  0.462780  0.027610  0.450970  1.0
  C  C2454  1  0.462780  0.972390  0.049030  1.0
  C  C2455  1  0.962780  0.527610  0.450970  1.0
  C  C2456  1  0.962780  0.472390  0.049030  1.0
  C  C2457  1  0.498630  0.948020  0.541490  1.0
  C  C2458  1  0.498630  0.051980  0.958510  1.0
  C  C2459  1  0.998630  0.448020  0.541490  1.0
  C  C2460  1  0.998630  0.551980  0.958510  1.0
  C  C2461  1  0.501370  0.051980  0.458510  1.0
  C  C2462  1  0.501370  0.948020  0.041490  1.0
  C  C2463  1  0.001370  0.551980  0.458510  1.0
  C  C2464  1  0.001370  0.448020  0.041490  1.0
  C  C2465  1  0.493210  0.922070  0.567490  1.0
  C  C2466  1  0.493210  0.077930  0.932510  1.0
  C  C2467  1  0.993210  0.422070  0.567490  1.0
  C  C2468  1  0.993210  0.577930  0.932510  1.0
  C  C2469  1  0.506790  0.077930  0.432510  1.0
  C  C2470  1  0.506790  0.922070  0.067490  1.0
  C  C2471  1  0.006790  0.577930  0.432510  1.0
  C  C2472  1  0.006790  0.422070  0.067490  1.0
  C  C2473  1  0.593500  0.974800  0.596100  1.0
  C  C2474  1  0.593500  0.025200  0.903900  1.0
  C  C2475  1  0.093500  0.474800  0.596100  1.0
  C  C2476  1  0.093500  0.525200  0.903900  1.0
  C  C2477  1  0.406500  0.025200  0.403900  1.0
  C  C2478  1  0.406500  0.974800  0.096100  1.0
  C  C2479  1  0.906500  0.525200  0.403900  1.0
  C  C2480  1  0.906500  0.474800  0.096100  1.0
  C  C2481  1  0.923130  0.018620  0.581120  1.0
  C  C2482  1  0.923130  0.981380  0.918880  1.0
  C  C2483  1  0.423130  0.518620  0.581120  1.0
  C  C2484  1  0.423130  0.481380  0.918880  1.0
  C  C2485  1  0.076870  0.981380  0.418880  1.0
  C  C2486  1  0.076870  0.018620  0.081120  1.0
  C  C2487  1  0.576870  0.481380  0.418880  1.0
  C  C2488  1  0.576870  0.518620  0.081120  1.0
  C  C2489  1  0.963300  0.032950  0.595350  1.0
  C  C2490  1  0.963300  0.967050  0.904650  1.0
  C  C2491  1  0.463300  0.532950  0.595350  1.0
  C  C2492  1  0.463300  0.467050  0.904650  1.0
  C  C2493  1  0.036700  0.967050  0.404650  1.0
  C  C2494  1  0.036700  0.032950  0.095350  1.0
  C  C2495  1  0.536700  0.467050  0.404650  1.0
  C  C2496  1  0.536700  0.532950  0.095350  1.0
  C  C2497  1  0.987400  0.062540  0.580670  1.0
  C  C2498  1  0.987400  0.937460  0.919330  1.0
  C  C2499  1  0.487400  0.562540  0.580670  1.0
  C  C2500  1  0.487400  0.437460  0.919330  1.0
  C  C2501  1  0.012600  0.937460  0.419330  1.0
  C  C2502  1  0.012600  0.062540  0.080670  1.0
  C  C2503  1  0.512600  0.437460  0.419330  1.0
  C  C2504  1  0.512600  0.562540  0.080670  1.0
  C  C2505  1  0.971330  0.077800  0.551750  1.0
  C  C2506  1  0.971330  0.922200  0.948250  1.0
  C  C2507  1  0.471330  0.577800  0.551750  1.0
  C  C2508  1  0.471330  0.422200  0.948250  1.0
  C  C2509  1  0.028670  0.922200  0.448250  1.0
  C  C2510  1  0.028670  0.077800  0.051750  1.0
  C  C2511  1  0.528670  0.422200  0.448250  1.0
  C  C2512  1  0.528670  0.577800  0.051750  1.0
  C  C2513  1  0.931160  0.063470  0.537530  1.0
  C  C2514  1  0.931160  0.936530  0.962470  1.0
  C  C2515  1  0.431160  0.563470  0.537530  1.0
  C  C2516  1  0.431160  0.436530  0.962470  1.0
  C  C2517  1  0.068840  0.936530  0.462470  1.0
  C  C2518  1  0.068840  0.063470  0.037530  1.0
  C  C2519  1  0.568840  0.436530  0.462470  1.0
  C  C2520  1  0.568840  0.563470  0.037530  1.0
  C  C2521  1  0.866560  0.941550  0.624310  1.0
  C  C2522  1  0.866560  0.058450  0.875690  1.0
  C  C2523  1  0.366560  0.441550  0.624310  1.0
  C  C2524  1  0.366560  0.558450  0.875690  1.0
  C  C2525  1  0.133440  0.058450  0.375690  1.0
  C  C2526  1  0.133440  0.941550  0.124310  1.0
  C  C2527  1  0.633440  0.558450  0.375690  1.0
  C  C2528  1  0.633440  0.441550  0.124310  1.0
  C  C2529  1  0.903670  0.968190  0.622930  1.0
  C  C2530  1  0.903670  0.031810  0.877070  1.0
  C  C2531  1  0.403670  0.468190  0.622930  1.0
  C  C2532  1  0.403670  0.531810  0.877070  1.0
  C  C2533  1  0.096330  0.031810  0.377070  1.0
  C  C2534  1  0.096330  0.968190  0.122930  1.0
  C  C2535  1  0.596330  0.531810  0.377070  1.0
  C  C2536  1  0.596330  0.468190  0.122930  1.0
  C  C2537  1  0.898500  0.989690  0.594090  1.0
  C  C2538  1  0.898500  0.010310  0.905910  1.0
  C  C2539  1  0.398500  0.489690  0.594090  1.0
  C  C2540  1  0.398500  0.510310  0.905910  1.0
  C  C2541  1  0.101500  0.010310  0.405910  1.0
  C  C2542  1  0.101500  0.989690  0.094090  1.0
  C  C2543  1  0.601500  0.510310  0.405910  1.0
  C  C2544  1  0.601500  0.489690  0.094090  1.0
  C  C2545  1  0.798600  0.926900  0.587200  1.0
  C  C2546  1  0.798600  0.073100  0.912800  1.0
  C  C2547  1  0.298600  0.426900  0.587200  1.0
  C  C2548  1  0.298600  0.573100  0.912800  1.0
  C  C2549  1  0.201400  0.073100  0.412800  1.0
  C  C2550  1  0.201400  0.926900  0.087200  1.0
  C  C2551  1  0.701400  0.573100  0.412800  1.0
  C  C2552  1  0.701400  0.426900  0.087200  1.0
  C  C2553  1  0.635320  0.948880  0.587260  1.0
  C  C2554  1  0.635320  0.051120  0.912740  1.0
  C  C2555  1  0.135320  0.448880  0.587260  1.0
  C  C2556  1  0.135320  0.551120  0.912740  1.0
  C  C2557  1  0.364680  0.051120  0.412740  1.0
  C  C2558  1  0.364680  0.948880  0.087260  1.0
  C  C2559  1  0.864680  0.551120  0.412740  1.0
  C  C2560  1  0.864680  0.448880  0.087260  1.0
  C  C2561  1  0.631110  0.915370  0.563100  1.0
  C  C2562  1  0.631110  0.084630  0.936900  1.0
  C  C2563  1  0.131110  0.415370  0.563100  1.0
  C  C2564  1  0.131110  0.584630  0.936900  1.0
  C  C2565  1  0.368890  0.084630  0.436900  1.0
  C  C2566  1  0.368890  0.915370  0.063100  1.0
  C  C2567  1  0.868890  0.584630  0.436900  1.0
  C  C2568  1  0.868890  0.415370  0.063100  1.0
  C  C2569  1  0.668700  0.893000  0.552070  1.0
  C  C2570  1  0.668700  0.107000  0.947930  1.0
  C  C2571  1  0.168700  0.393000  0.552070  1.0
  C  C2572  1  0.168700  0.607000  0.947930  1.0
  C  C2573  1  0.331300  0.107000  0.447930  1.0
  C  C2574  1  0.331300  0.893000  0.052070  1.0
  C  C2575  1  0.831300  0.607000  0.447930  1.0
  C  C2576  1  0.831300  0.393000  0.052070  1.0
  C  C2577  1  0.710500  0.904150  0.565180  1.0
  C  C2578  1  0.710500  0.095850  0.934820  1.0
  C  C2579  1  0.210500  0.404150  0.565180  1.0
  C  C2580  1  0.210500  0.595850  0.934820  1.0
  C  C2581  1  0.289500  0.095850  0.434820  1.0
  C  C2582  1  0.289500  0.904150  0.065180  1.0
  C  C2583  1  0.789500  0.595850  0.434820  1.0
  C  C2584  1  0.789500  0.404150  0.065180  1.0
  C  C2585  1  0.714720  0.937670  0.589340  1.0
  C  C2586  1  0.714720  0.062330  0.910660  1.0
  C  C2587  1  0.214720  0.437670  0.589340  1.0
  C  C2588  1  0.214720  0.562330  0.910660  1.0
  C  C2589  1  0.285280  0.062330  0.410660  1.0
  C  C2590  1  0.285280  0.937670  0.089340  1.0
  C  C2591  1  0.785280  0.562330  0.410660  1.0
  C  C2592  1  0.785280  0.437670  0.089340  1.0
  C  C2593  1  0.677130  0.960030  0.600370  1.0
  C  C2594  1  0.677130  0.039970  0.899630  1.0
  C  C2595  1  0.177130  0.460030  0.600370  1.0
  C  C2596  1  0.177130  0.539970  0.899630  1.0
  C  C2597  1  0.322870  0.039970  0.399630  1.0
  C  C2598  1  0.322870  0.960030  0.100370  1.0
  C  C2599  1  0.822870  0.539970  0.399630  1.0
  C  C2600  1  0.822870  0.460030  0.100370  1.0
  C  C2601  1  0.681340  0.993550  0.624530  1.0
  C  C2602  1  0.681340  0.006450  0.875470  1.0
  C  C2603  1  0.181340  0.493550  0.624530  1.0
  C  C2604  1  0.181340  0.506450  0.875470  1.0
  C  C2605  1  0.318660  0.006450  0.375470  1.0
  C  C2606  1  0.318660  0.993550  0.124530  1.0
  C  C2607  1  0.818660  0.506450  0.375470  1.0
  C  C2608  1  0.818660  0.493550  0.124530  1.0
  C  C2609  1  0.723140  0.004700  0.637650  1.0
  C  C2610  1  0.723140  0.995300  0.862350  1.0
  C  C2611  1  0.223140  0.504700  0.637650  1.0
  C  C2612  1  0.223140  0.495300  0.862350  1.0
  C  C2613  1  0.276860  0.995300  0.362350  1.0
  C  C2614  1  0.276860  0.004700  0.137650  1.0
  C  C2615  1  0.776860  0.495300  0.362350  1.0
  C  C2616  1  0.776860  0.504700  0.137650  1.0
  C  C2617  1  0.760730  0.982330  0.626610  1.0
  C  C2618  1  0.760730  0.017670  0.873390  1.0
  C  C2619  1  0.260730  0.482330  0.626610  1.0
  C  C2620  1  0.260730  0.517670  0.873390  1.0
  C  C2621  1  0.239270  0.017670  0.373390  1.0
  C  C2622  1  0.239270  0.982330  0.126610  1.0
  C  C2623  1  0.739270  0.517670  0.373390  1.0
  C  C2624  1  0.739270  0.482330  0.126610  1.0
  C  C2625  1  0.756520  0.948820  0.602450  1.0
  C  C2626  1  0.756520  0.051180  0.897550  1.0
  C  C2627  1  0.256520  0.448820  0.602450  1.0
  C  C2628  1  0.256520  0.551180  0.897550  1.0
  C  C2629  1  0.243480  0.051180  0.397550  1.0
  C  C2630  1  0.243480  0.948820  0.102450  1.0
  C  C2631  1  0.743480  0.551180  0.397550  1.0
  C  C2632  1  0.743480  0.448820  0.102450  1.0
  C  C2633  1  0.714800  0.756900  0.557400  1.0
  C  C2634  1  0.714800  0.243100  0.942600  1.0
  C  C2635  1  0.214800  0.256900  0.557400  1.0
  C  C2636  1  0.214800  0.743100  0.942600  1.0
  C  C2637  1  0.285200  0.243100  0.442600  1.0
  C  C2638  1  0.285200  0.756900  0.057400  1.0
  C  C2639  1  0.785200  0.743100  0.442600  1.0
  C  C2640  1  0.785200  0.256900  0.057400  1.0
  C  C2641  1  0.723000  0.723700  0.531500  1.0
  C  C2642  1  0.723000  0.276300  0.968500  1.0
  C  C2643  1  0.223000  0.223700  0.531500  1.0
  C  C2644  1  0.223000  0.776300  0.968500  1.0
  C  C2645  1  0.277000  0.276300  0.468500  1.0
  C  C2646  1  0.277000  0.723700  0.031500  1.0
  C  C2647  1  0.777000  0.776300  0.468500  1.0
  C  C2648  1  0.777000  0.223700  0.031500  1.0
  C  C2649  1  0.680200  0.720600  0.506200  1.0
  C  C2650  1  0.680200  0.279400  0.993800  1.0
  C  C2651  1  0.180200  0.220600  0.506200  1.0
  C  C2652  1  0.180200  0.779400  0.993800  1.0
  C  C2653  1  0.319800  0.279400  0.493800  1.0
  C  C2654  1  0.319800  0.720600  0.006200  1.0
  C  C2655  1  0.819800  0.779400  0.493800  1.0
  C  C2656  1  0.819800  0.220600  0.006200  1.0
  C  C2657  1  0.707700  0.689300  0.483300  1.0
  C  C2658  1  0.707700  0.310700  0.016700  1.0
  C  C2659  1  0.207700  0.189300  0.483300  1.0
  C  C2660  1  0.207700  0.810700  0.016700  1.0
  C  C2661  1  0.292300  0.310700  0.516700  1.0
  C  C2662  1  0.292300  0.689300  0.983300  1.0
  C  C2663  1  0.792300  0.810700  0.516700  1.0
  C  C2664  1  0.792300  0.189300  0.983300  1.0
  C  C2665  1  0.748300  0.706700  0.465900  1.0
  C  C2666  1  0.748300  0.293300  0.034100  1.0
  C  C2667  1  0.248300  0.206700  0.465900  1.0
  C  C2668  1  0.248300  0.793300  0.034100  1.0
  C  C2669  1  0.251700  0.293300  0.534100  1.0
  C  C2670  1  0.251700  0.706700  0.965900  1.0
  C  C2671  1  0.751700  0.793300  0.534100  1.0
  C  C2672  1  0.751700  0.206700  0.965900  1.0
  C  C2673  1  0.726200  0.702200  0.431500  1.0
  C  C2674  1  0.726200  0.297800  0.068500  1.0
  C  C2675  1  0.226200  0.202200  0.431500  1.0
  C  C2676  1  0.226200  0.797800  0.068500  1.0
  C  C2677  1  0.273800  0.297800  0.568500  1.0
  C  C2678  1  0.273800  0.702200  0.931500  1.0
  C  C2679  1  0.773800  0.797800  0.568500  1.0
  C  C2680  1  0.773800  0.202200  0.931500  1.0
  C  C2681  1  0.695600  0.734900  0.429100  1.0
  C  C2682  1  0.695600  0.265100  0.070900  1.0
  C  C2683  1  0.195600  0.234900  0.429100  1.0
  C  C2684  1  0.195600  0.765100  0.070900  1.0
  C  C2685  1  0.304400  0.265100  0.570900  1.0
  C  C2686  1  0.304400  0.734900  0.929100  1.0
  C  C2687  1  0.804400  0.765100  0.570900  1.0
  C  C2688  1  0.804400  0.234900  0.929100  1.0
  N  N2689  1  0.690100  0.443140  0.425470  1.0
  N  N2690  1  0.690100  0.556860  0.074530  1.0
  N  N2691  1  0.190100  0.943140  0.425470  1.0
  N  N2692  1  0.190100  0.056860  0.074530  1.0
  N  N2693  1  0.309900  0.556860  0.574530  1.0
  N  N2694  1  0.309900  0.443140  0.925470  1.0
  N  N2695  1  0.809900  0.056860  0.574530  1.0
  N  N2696  1  0.809900  0.943140  0.925470  1.0
  N  N2697  1  0.728550  0.501250  0.467530  1.0
  N  N2698  1  0.728550  0.498750  0.032470  1.0
  N  N2699  1  0.228550  0.001250  0.467530  1.0
  N  N2700  1  0.228550  0.998750  0.032470  1.0
  N  N2701  1  0.271450  0.498750  0.532470  1.0
  N  N2702  1  0.271450  0.501250  0.967530  1.0
  N  N2703  1  0.771450  0.998750  0.532470  1.0
  N  N2704  1  0.771450  0.001250  0.967530  1.0
  N  N2705  1  0.756560  0.528460  0.488040  1.0
  N  N2706  1  0.756560  0.471540  0.011960  1.0
  N  N2707  1  0.256560  0.028460  0.488040  1.0
  N  N2708  1  0.256560  0.971540  0.011960  1.0
  N  N2709  1  0.243440  0.471540  0.511960  1.0
  N  N2710  1  0.243440  0.528460  0.988040  1.0
  N  N2711  1  0.743440  0.971540  0.511960  1.0
  N  N2712  1  0.743440  0.028460  0.988040  1.0
  N  N2713  1  0.678490  0.687400  0.750700  1.0
  N  N2714  1  0.678490  0.312600  0.749300  1.0
  N  N2715  1  0.178490  0.187400  0.750700  1.0
  N  N2716  1  0.178490  0.812600  0.749300  1.0
  N  N2717  1  0.321510  0.312600  0.249300  1.0
  N  N2718  1  0.321510  0.687400  0.250700  1.0
  N  N2719  1  0.821510  0.812600  0.249300  1.0
  N  N2720  1  0.821510  0.187400  0.250700  1.0
  N  N2721  1  0.656160  0.630450  0.701040  1.0
  N  N2722  1  0.656160  0.369550  0.798960  1.0
  N  N2723  1  0.156160  0.130450  0.701040  1.0
  N  N2724  1  0.156160  0.869550  0.798960  1.0
  N  N2725  1  0.343840  0.369550  0.298960  1.0
  N  N2726  1  0.343840  0.630450  0.201040  1.0
  N  N2727  1  0.843840  0.869550  0.298960  1.0
  N  N2728  1  0.843840  0.130450  0.201040  1.0
  N  N2729  1  0.635380  0.599010  0.679290  1.0
  N  N2730  1  0.635380  0.400990  0.820710  1.0
  N  N2731  1  0.135380  0.099010  0.679290  1.0
  N  N2732  1  0.135380  0.900990  0.820710  1.0
  N  N2733  1  0.364620  0.400990  0.320710  1.0
  N  N2734  1  0.364620  0.599010  0.179290  1.0
  N  N2735  1  0.864620  0.900990  0.320710  1.0
  N  N2736  1  0.864620  0.099010  0.179290  1.0
  N  N2737  1  0.761460  0.604910  0.688630  1.0
  N  N2738  1  0.761460  0.395090  0.811370  1.0
  N  N2739  1  0.261460  0.104910  0.688630  1.0
  N  N2740  1  0.261460  0.895090  0.811370  1.0
  N  N2741  1  0.238540  0.395090  0.311370  1.0
  N  N2742  1  0.238540  0.604910  0.188630  1.0
  N  N2743  1  0.738540  0.895090  0.311370  1.0
  N  N2744  1  0.738540  0.104910  0.188630  1.0
  N  N2745  1  0.741860  0.684010  0.685510  1.0
  N  N2746  1  0.741860  0.315990  0.814490  1.0
  N  N2747  1  0.241860  0.184010  0.685510  1.0
  N  N2748  1  0.241860  0.815990  0.814490  1.0
  N  N2749  1  0.258140  0.315990  0.314490  1.0
  N  N2750  1  0.258140  0.684010  0.185510  1.0
  N  N2751  1  0.758140  0.815990  0.314490  1.0
  N  N2752  1  0.758140  0.184010  0.185510  1.0
  N  N2753  1  0.738630  0.725390  0.678740  1.0
  N  N2754  1  0.738630  0.274610  0.821260  1.0
  N  N2755  1  0.238630  0.225390  0.678740  1.0
  N  N2756  1  0.238630  0.774610  0.821260  1.0
  N  N2757  1  0.261370  0.274610  0.321260  1.0
  N  N2758  1  0.261370  0.725390  0.178740  1.0
  N  N2759  1  0.761370  0.774610  0.321260  1.0
  N  N2760  1  0.761370  0.225390  0.178740  1.0
  N  N2761  1  0.480210  0.953070  0.655690  1.0
  N  N2762  1  0.480210  0.046930  0.844310  1.0
  N  N2763  1  0.980210  0.453070  0.655690  1.0
  N  N2764  1  0.980210  0.546930  0.844310  1.0
  N  N2765  1  0.519790  0.046930  0.344310  1.0
  N  N2766  1  0.519790  0.953070  0.155690  1.0
  N  N2767  1  0.019790  0.546930  0.344310  1.0
  N  N2768  1  0.019790  0.453070  0.155690  1.0
  N  N2769  1  0.488380  0.880630  0.679090  1.0
  N  N2770  1  0.488380  0.119370  0.820910  1.0
  N  N2771  1  0.988380  0.380630  0.679090  1.0
  N  N2772  1  0.988380  0.619370  0.820910  1.0
  N  N2773  1  0.511620  0.119370  0.320910  1.0
  N  N2774  1  0.511620  0.880630  0.179090  1.0
  N  N2775  1  0.011620  0.619370  0.320910  1.0
  N  N2776  1  0.011620  0.380630  0.179090  1.0
  N  N2777  1  0.484020  0.843880  0.694530  1.0
  N  N2778  1  0.484020  0.156120  0.805470  1.0
  N  N2779  1  0.984020  0.343880  0.694530  1.0
  N  N2780  1  0.984020  0.656120  0.805470  1.0
  N  N2781  1  0.515980  0.156120  0.305470  1.0
  N  N2782  1  0.515980  0.843880  0.194530  1.0
  N  N2783  1  0.015980  0.656120  0.305470  1.0
  N  N2784  1  0.015980  0.343880  0.194530  1.0
  N  N2785  1  0.578760  0.918200  0.662310  1.0
  N  N2786  1  0.578760  0.081800  0.837690  1.0
  N  N2787  1  0.078760  0.418200  0.662310  1.0
  N  N2788  1  0.078760  0.581800  0.837690  1.0
  N  N2789  1  0.421240  0.081800  0.337690  1.0
  N  N2790  1  0.421240  0.918200  0.162310  1.0
  N  N2791  1  0.921240  0.581800  0.337690  1.0
  N  N2792  1  0.921240  0.418200  0.162310  1.0
  N  N2793  1  0.564750  0.850540  0.620880  1.0
  N  N2794  1  0.564750  0.149460  0.879120  1.0
  N  N2795  1  0.064750  0.350540  0.620880  1.0
  N  N2796  1  0.064750  0.649460  0.879120  1.0
  N  N2797  1  0.435250  0.149460  0.379120  1.0
  N  N2798  1  0.435250  0.850540  0.120880  1.0
  N  N2799  1  0.935250  0.649460  0.379120  1.0
  N  N2800  1  0.935250  0.350540  0.120880  1.0
  N  N2801  1  0.566060  0.812250  0.600780  1.0
  N  N2802  1  0.566060  0.187750  0.899220  1.0
  N  N2803  1  0.066060  0.312250  0.600780  1.0
  N  N2804  1  0.066060  0.687750  0.899220  1.0
  N  N2805  1  0.433940  0.187750  0.399220  1.0
  N  N2806  1  0.433940  0.812250  0.100780  1.0
  N  N2807  1  0.933940  0.687750  0.399220  1.0
  N  N2808  1  0.933940  0.312250  0.100780  1.0
  N  N2809  1  0.389180  0.706420  0.364310  1.0
  N  N2810  1  0.389180  0.293580  0.135690  1.0
  N  N2811  1  0.889180  0.206420  0.364310  1.0
  N  N2812  1  0.889180  0.793580  0.135690  1.0
  N  N2813  1  0.610820  0.293580  0.635690  1.0
  N  N2814  1  0.610820  0.706420  0.864310  1.0
  N  N2815  1  0.110820  0.793580  0.635690  1.0
  N  N2816  1  0.110820  0.206420  0.864310  1.0
  N  N2817  1  0.401410  0.772920  0.406950  1.0
  N  N2818  1  0.401410  0.227080  0.093050  1.0
  N  N2819  1  0.901410  0.272920  0.406950  1.0
  N  N2820  1  0.901410  0.727080  0.093050  1.0
  N  N2821  1  0.598590  0.227080  0.593050  1.0
  N  N2822  1  0.598590  0.772920  0.906950  1.0
  N  N2823  1  0.098590  0.727080  0.593050  1.0
  N  N2824  1  0.098590  0.272920  0.906950  1.0
  N  N2825  1  0.400130  0.811950  0.425930  1.0
  N  N2826  1  0.400130  0.188050  0.074070  1.0
  N  N2827  1  0.900130  0.311950  0.425930  1.0
  N  N2828  1  0.900130  0.688050  0.074070  1.0
  N  N2829  1  0.599870  0.188050  0.574070  1.0
  N  N2830  1  0.599870  0.811950  0.925930  1.0
  N  N2831  1  0.099870  0.688050  0.574070  1.0
  N  N2832  1  0.099870  0.311950  0.925930  1.0
  N  N2833  1  0.461480  0.769950  0.345410  1.0
  N  N2834  1  0.461480  0.230050  0.154590  1.0
  N  N2835  1  0.961480  0.269950  0.345410  1.0
  N  N2836  1  0.961480  0.730050  0.154590  1.0
  N  N2837  1  0.538520  0.230050  0.654590  1.0
  N  N2838  1  0.538520  0.769950  0.845410  1.0
  N  N2839  1  0.038520  0.730050  0.654590  1.0
  N  N2840  1  0.038520  0.269950  0.845410  1.0
  N  N2841  1  0.485450  0.692900  0.348400  1.0
  N  N2842  1  0.485450  0.307100  0.151600  1.0
  N  N2843  1  0.985450  0.192900  0.348400  1.0
  N  N2844  1  0.985450  0.807100  0.151600  1.0
  N  N2845  1  0.514550  0.307100  0.651600  1.0
  N  N2846  1  0.514550  0.692900  0.848400  1.0
  N  N2847  1  0.014550  0.807100  0.651600  1.0
  N  N2848  1  0.014550  0.192900  0.848400  1.0
  N  N2849  1  0.495260  0.650570  0.342090  1.0
  N  N2850  1  0.495260  0.349430  0.157910  1.0
  N  N2851  1  0.995260  0.150570  0.342090  1.0
  N  N2852  1  0.995260  0.849430  0.157910  1.0
  N  N2853  1  0.504740  0.349430  0.657910  1.0
  N  N2854  1  0.504740  0.650570  0.842090  1.0
  N  N2855  1  0.004740  0.849430  0.657910  1.0
  N  N2856  1  0.004740  0.150570  0.842090  1.0
  N  N2857  1  0.666667  0.446300  0.502500  1.0
  N  N2858  1  0.666667  0.553700  0.997500  1.0
  N  N2859  1  0.166667  0.946300  0.502500  1.0
  N  N2860  1  0.166667  0.053700  0.997500  1.0
  N  N2861  1  0.333333  0.553700  0.497500  1.0
  N  N2862  1  0.333333  0.446300  0.002500  1.0
  N  N2863  1  0.833333  0.053700  0.497500  1.0
  N  N2864  1  0.833333  0.946300  0.002500  1.0
  N  N2865  1  0.632640  0.520530  0.506400  1.0
  N  N2866  1  0.632640  0.479470  0.993600  1.0
  N  N2867  1  0.132640  0.020530  0.506400  1.0
  N  N2868  1  0.132640  0.979470  0.993600  1.0
  N  N2869  1  0.367360  0.479470  0.493600  1.0
  N  N2870  1  0.367360  0.520530  0.006400  1.0
  N  N2871  1  0.867360  0.979470  0.493600  1.0
  N  N2872  1  0.867360  0.020530  0.006400  1.0
  N  N2873  1  0.612400  0.559340  0.514560  1.0
  N  N2874  1  0.612400  0.440660  0.985440  1.0
  N  N2875  1  0.112400  0.059340  0.514560  1.0
  N  N2876  1  0.112400  0.940660  0.985440  1.0
  N  N2877  1  0.387600  0.440660  0.485440  1.0
  N  N2878  1  0.387600  0.559340  0.014560  1.0
  N  N2879  1  0.887600  0.940660  0.485440  1.0
  N  N2880  1  0.887600  0.059340  0.014560  1.0
  N  N2881  1  0.706750  0.596610  0.756670  1.0
  N  N2882  1  0.706750  0.403390  0.743330  1.0
  N  N2883  1  0.206750  0.096610  0.756670  1.0
  N  N2884  1  0.206750  0.903390  0.743330  1.0
  N  N2885  1  0.293250  0.403390  0.243330  1.0
  N  N2886  1  0.293250  0.596610  0.256670  1.0
  N  N2887  1  0.793250  0.903390  0.243330  1.0
  N  N2888  1  0.793250  0.096610  0.256670  1.0
  N  N2889  1  0.773320  0.650740  0.758240  1.0
  N  N2890  1  0.773320  0.349260  0.741760  1.0
  N  N2891  1  0.273320  0.150740  0.758240  1.0
  N  N2892  1  0.273320  0.849260  0.741760  1.0
  N  N2893  1  0.226680  0.349260  0.241760  1.0
  N  N2894  1  0.226680  0.650740  0.258240  1.0
  N  N2895  1  0.726680  0.849260  0.241760  1.0
  N  N2896  1  0.726680  0.150740  0.258240  1.0
  N  N2897  1  0.810090  0.677350  0.765990  1.0
  N  N2898  1  0.810090  0.322650  0.734010  1.0
  N  N2899  1  0.310090  0.177350  0.765990  1.0
  N  N2900  1  0.310090  0.822650  0.734010  1.0
  N  N2901  1  0.189910  0.322650  0.234010  1.0
  N  N2902  1  0.189910  0.677350  0.265990  1.0
  N  N2903  1  0.689910  0.822650  0.234010  1.0
  N  N2904  1  0.689910  0.177350  0.265990  1.0
  N  N2905  1  0.050550  0.801890  0.571640  1.0
  N  N2906  1  0.050550  0.198110  0.928360  1.0
  N  N2907  1  0.550550  0.301890  0.571640  1.0
  N  N2908  1  0.550550  0.698110  0.928360  1.0
  N  N2909  1  0.949450  0.198110  0.428360  1.0
  N  N2910  1  0.949450  0.801890  0.071640  1.0
  N  N2911  1  0.449450  0.698110  0.428360  1.0
  N  N2912  1  0.449450  0.301890  0.071640  1.0
  N  N2913  1  0.989200  0.746940  0.586110  1.0
  N  N2914  1  0.989200  0.253060  0.913890  1.0
  N  N2915  1  0.489200  0.246940  0.586110  1.0
  N  N2916  1  0.489200  0.753060  0.913890  1.0
  N  N2917  1  0.010800  0.253060  0.413890  1.0
  N  N2918  1  0.010800  0.746940  0.086110  1.0
  N  N2919  1  0.510800  0.753060  0.413890  1.0
  N  N2920  1  0.510800  0.246940  0.086110  1.0
  N  N2921  1  0.952760  0.719430  0.586840  1.0
  N  N2922  1  0.952760  0.280570  0.913160  1.0
  N  N2923  1  0.452760  0.219430  0.586840  1.0
  N  N2924  1  0.452760  0.780570  0.913160  1.0
  N  N2925  1  0.047240  0.280570  0.413160  1.0
  N  N2926  1  0.047240  0.719430  0.086840  1.0
  N  N2927  1  0.547240  0.780570  0.413160  1.0
  N  N2928  1  0.547240  0.219430  0.086840  1.0
  N  N2929  1  0.463740  0.879080  0.604570  1.0
  N  N2930  1  0.463740  0.120920  0.895430  1.0
  N  N2931  1  0.963740  0.379080  0.604570  1.0
  N  N2932  1  0.963740  0.620920  0.895430  1.0
  N  N2933  1  0.536260  0.120920  0.395430  1.0
  N  N2934  1  0.536260  0.879080  0.104570  1.0
  N  N2935  1  0.036260  0.620920  0.395430  1.0
  N  N2936  1  0.036260  0.379080  0.104570  1.0
  N  N2937  1  0.528450  0.930390  0.591100  1.0
  N  N2938  1  0.528450  0.069610  0.908900  1.0
  N  N2939  1  0.028450  0.430390  0.591100  1.0
  N  N2940  1  0.028450  0.569610  0.908900  1.0
  N  N2941  1  0.471550  0.069610  0.408900  1.0
  N  N2942  1  0.471550  0.930390  0.091100  1.0
  N  N2943  1  0.971550  0.569610  0.408900  1.0
  N  N2944  1  0.971550  0.430390  0.091100  1.0
  N  N2945  1  0.555650  0.961490  0.579690  1.0
  N  N2946  1  0.555650  0.038510  0.920310  1.0
  N  N2947  1  0.055650  0.461490  0.579690  1.0
  N  N2948  1  0.055650  0.538510  0.920310  1.0
  N  N2949  1  0.444350  0.038510  0.420310  1.0
  N  N2950  1  0.444350  0.961490  0.079690  1.0
  N  N2951  1  0.944350  0.538510  0.420310  1.0
  N  N2952  1  0.944350  0.461490  0.079690  1.0
  N  N2953  1  0.907060  0.033880  0.552210  1.0
  N  N2954  1  0.907060  0.966120  0.947790  1.0
  N  N2955  1  0.407060  0.533880  0.552210  1.0
  N  N2956  1  0.407060  0.466120  0.947790  1.0
  N  N2957  1  0.092940  0.966120  0.447790  1.0
  N  N2958  1  0.092940  0.033880  0.052210  1.0
  N  N2959  1  0.592940  0.466120  0.447790  1.0
  N  N2960  1  0.592940  0.533880  0.052210  1.0
  N  N2961  1  0.858190  0.976340  0.577650  1.0
  N  N2962  1  0.858190  0.023660  0.922350  1.0
  N  N2963  1  0.358190  0.476340  0.577650  1.0
  N  N2964  1  0.358190  0.523660  0.922350  1.0
  N  N2965  1  0.141810  0.023660  0.422350  1.0
  N  N2966  1  0.141810  0.976340  0.077650  1.0
  N  N2967  1  0.641810  0.523660  0.422350  1.0
  N  N2968  1  0.641810  0.476340  0.077650  1.0
  N  N2969  1  0.838450  0.946580  0.596320  1.0
  N  N2970  1  0.838450  0.053420  0.903680  1.0
  N  N2971  1  0.338450  0.446580  0.596320  1.0
  N  N2972  1  0.338450  0.553420  0.903680  1.0
  N  N2973  1  0.161550  0.053420  0.403680  1.0
  N  N2974  1  0.161550  0.946580  0.096320  1.0
  N  N2975  1  0.661550  0.553420  0.403680  1.0
  N  N2976  1  0.661550  0.446580  0.096320  1.0
  O  O2977  1  0.701900  0.651500  0.483900  1
  O  O2978  1  0.701900  0.348500  0.016100  1
  O  O2979  1  0.201900  0.151500  0.483900  1
  O  O2980  1  0.201900  0.848500  0.016100  1
  O  O2981  1  0.298100  0.348500  0.516100  1
  O  O2982  1  0.298100  0.651500  0.983900  1
  O  O2983  1  0.798100  0.848500  0.516100  1
  O  O2984  1  0.798100  0.151500  0.983900  1
  O  O2985  1  0.701200  0.654600  0.478900  1.0
  O  O2986  1  0.701200  0.345400  0.021100  1.0
  O  O2987  1  0.201200  0.154600  0.478900  1.0
  O  O2988  1  0.201200  0.845400  0.021100  1.0
  O  O2989  1  0.298800  0.345400  0.521100  1.0
  O  O2990  1  0.298800  0.654600  0.978900  1.0
  O  O2991  1  0.798800  0.845400  0.521100  1.0
  O  O2992  1  0.798800  0.154600  0.978900  1.0
  F  F2993  1  0.519960  0.523780  0.842130  1
  F  F2994  1  0.519960  0.476220  0.657870  1
  F  F2995  1  0.019960  0.023780  0.842130  1
  F  F2996  1  0.019960  0.976220  0.657870  1
  F  F2997  1  0.480040  0.476220  0.157870  1
  F  F2998  1  0.480040  0.523780  0.342130  1
  F  F2999  1  0.980040  0.976220  0.157870  1
  F  F3000  1  0.980040  0.023780  0.342130  1
  F  F3001  1  0.586400  0.538320  0.867420  1
  F  F3002  1  0.586400  0.461680  0.632580  1
  F  F3003  1  0.086400  0.038320  0.867420  1
  F  F3004  1  0.086400  0.961680  0.632580  1
  F  F3005  1  0.413600  0.461680  0.132580  1
  F  F3006  1  0.413600  0.538320  0.367420  1
  F  F3007  1  0.913600  0.961680  0.132580  1
  F  F3008  1  0.913600  0.038320  0.367420  1
  F  F3009  1  0.557950  0.474570  0.865230  1
  F  F3010  1  0.557950  0.525430  0.634770  1
  F  F3011  1  0.057950  0.974570  0.865230  1
  F  F3012  1  0.057950  0.025430  0.634770  1
  F  F3013  1  0.442050  0.525430  0.134770  1
  F  F3014  1  0.442050  0.474570  0.365230  1
  F  F3015  1  0.942050  0.025430  0.134770  1
  F  F3016  1  0.942050  0.974570  0.365230  1
  F  F3017  1  0.583670  0.497380  0.817010  1
  F  F3018  1  0.583670  0.502620  0.682990  1
  F  F3019  1  0.083670  0.997380  0.817010  1
  F  F3020  1  0.083670  0.002620  0.682990  1
  F  F3021  1  0.416330  0.502620  0.182990  1
  F  F3022  1  0.416330  0.497380  0.317010  1
  F  F3023  1  0.916330  0.002620  0.182990  1
  F  F3024  1  0.916330  0.997380  0.317010  1
  F  F3025  1  0.554560  0.647390  0.592030  1
  F  F3026  1  0.554560  0.352610  0.907970  1
  F  F3027  1  0.054560  0.147390  0.592030  1
  F  F3028  1  0.054560  0.852610  0.907970  1
  F  F3029  1  0.445440  0.352610  0.407970  1
  F  F3030  1  0.445440  0.647390  0.092030  1
  F  F3031  1  0.945440  0.852610  0.407970  1
  F  F3032  1  0.945440  0.147390  0.092030  1
  F  F3033  1  0.582160  0.702480  0.568300  1
  F  F3034  1  0.582160  0.297520  0.931700  1
  F  F3035  1  0.082160  0.202480  0.568300  1
  F  F3036  1  0.082160  0.797520  0.931700  1
  F  F3037  1  0.417840  0.297520  0.431700  1
  F  F3038  1  0.417840  0.702480  0.068300  1
  F  F3039  1  0.917840  0.797520  0.431700  1
  F  F3040  1  0.917840  0.202480  0.068300  1
  F  F3041  1  0.546810  0.649990  0.536080  1
  F  F3042  1  0.546810  0.350010  0.963920  1
  F  F3043  1  0.046810  0.149990  0.536080  1
  F  F3044  1  0.046810  0.850010  0.963920  1
  F  F3045  1  0.453190  0.350010  0.463920  1
  F  F3046  1  0.453190  0.649990  0.036080  1
  F  F3047  1  0.953190  0.850010  0.463920  1
  F  F3048  1  0.953190  0.149990  0.036080  1
  F  F3049  1  0.506630  0.693810  0.571500  1
  F  F3050  1  0.506630  0.306190  0.928500  1
  F  F3051  1  0.006630  0.193810  0.571500  1
  F  F3052  1  0.006630  0.806190  0.928500  1
  F  F3053  1  0.493370  0.306190  0.428500  1
  F  F3054  1  0.493370  0.693810  0.071500  1
  F  F3055  1  0.993370  0.806190  0.428500  1
  F  F3056  1  0.993370  0.193810  0.071500  1
  F  F3057  1  0.755400  0.667800  0.354300  1
  F  F3058  1  0.755400  0.332200  0.145700  1
  F  F3059  1  0.255400  0.167800  0.354300  1
  F  F3060  1  0.255400  0.832200  0.145700  1
  F  F3061  1  0.244600  0.332200  0.645700  1
  F  F3062  1  0.244600  0.667800  0.854300  1
  F  F3063  1  0.744600  0.832200  0.645700  1
  F  F3064  1  0.744600  0.167800  0.854300  1
  F  F3065  1  0.738200  0.608800  0.323800  1
  F  F3066  1  0.738200  0.391200  0.176200  1
  F  F3067  1  0.238200  0.108800  0.323800  1
  F  F3068  1  0.238200  0.891200  0.176200  1
  F  F3069  1  0.261800  0.391200  0.676200  1
  F  F3070  1  0.261800  0.608800  0.823800  1
  F  F3071  1  0.761800  0.891200  0.676200  1
  F  F3072  1  0.761800  0.108800  0.823800  1
  F  F3073  1  0.712000  0.670400  0.309820  1
  F  F3074  1  0.712000  0.329600  0.190180  1
  F  F3075  1  0.212000  0.170400  0.309820  1
  F  F3076  1  0.212000  0.829600  0.190180  1
  F  F3077  1  0.288000  0.329600  0.690180  1
  F  F3078  1  0.288000  0.670400  0.809820  1
  F  F3079  1  0.788000  0.829600  0.690180  1
  F  F3080  1  0.788000  0.170400  0.809820  1
  F  F3081  1  0.684230  0.640100  0.352810  1
  F  F3082  1  0.684230  0.359900  0.147190  1
  F  F3083  1  0.184230  0.140100  0.352810  1
  F  F3084  1  0.184230  0.859900  0.147190  1
  F  F3085  1  0.315770  0.359900  0.647190  1
  F  F3086  1  0.315770  0.640100  0.852810  1
  F  F3087  1  0.815770  0.859900  0.647190  1
  F  F3088  1  0.815770  0.140100  0.852810  1
  F  F3089  1  0.861300  0.645300  0.575160  1
  F  F3090  1  0.861300  0.354700  0.924840  1
  F  F3091  1  0.361300  0.145300  0.575160  1
  F  F3092  1  0.361300  0.854700  0.924840  1
  F  F3093  1  0.138700  0.354700  0.424840  1
  F  F3094  1  0.138700  0.645300  0.075160  1
  F  F3095  1  0.638700  0.854700  0.424840  1
  F  F3096  1  0.638700  0.145300  0.075160  1
  F  F3097  1  0.845140  0.668030  0.524680  1
  F  F3098  1  0.845140  0.331970  0.975320  1
  F  F3099  1  0.345140  0.168030  0.524680  1
  F  F3100  1  0.345140  0.831970  0.975320  1
  F  F3101  1  0.154860  0.331970  0.475320  1
  F  F3102  1  0.154860  0.668030  0.024680  1
  F  F3103  1  0.654860  0.831970  0.475320  1
  F  F3104  1  0.654860  0.168030  0.024680  1
  F  F3105  1  0.845800  0.600100  0.529290  1
  F  F3106  1  0.845800  0.399900  0.970710  1
  F  F3107  1  0.345800  0.100100  0.529290  1
  F  F3108  1  0.345800  0.899900  0.970710  1
  F  F3109  1  0.154200  0.399900  0.470710  1
  F  F3110  1  0.154200  0.600100  0.029290  1
  F  F3111  1  0.654200  0.899900  0.470710  1
  F  F3112  1  0.654200  0.100100  0.029290  1
  F  F3113  1  0.792000  0.638200  0.554700  1
  F  F3114  1  0.792000  0.361800  0.945300  1
  F  F3115  1  0.292000  0.138200  0.554700  1
  F  F3116  1  0.292000  0.861800  0.945300  1
  F  F3117  1  0.208000  0.361800  0.445300  1
  F  F3118  1  0.208000  0.638200  0.054700  1
  F  F3119  1  0.708000  0.861800  0.445300  1
  F  F3120  1  0.708000  0.138200  0.054700  1
  F  F3121  1  0.447300  0.721100  0.676900  1
  F  F3122  1  0.447300  0.278900  0.823100  1
  F  F3123  1  0.947300  0.221100  0.676900  1
  F  F3124  1  0.947300  0.778900  0.823100  1
  F  F3125  1  0.552700  0.278900  0.323100  1
  F  F3126  1  0.552700  0.721100  0.176900  1
  F  F3127  1  0.052700  0.778900  0.323100  1
  F  F3128  1  0.052700  0.221100  0.176900  1
  F  F3129  1  0.494100  0.716900  0.721500  1
  F  F3130  1  0.494100  0.283100  0.778500  1
  F  F3131  1  0.994100  0.216900  0.721500  1
  F  F3132  1  0.994100  0.783100  0.778500  1
  F  F3133  1  0.505900  0.283100  0.278500  1
  F  F3134  1  0.505900  0.716900  0.221500  1
  F  F3135  1  0.005900  0.783100  0.278500  1
  F  F3136  1  0.005900  0.216900  0.221500  1
  F  F3137  1  0.431300  0.749400  0.726100  1
  F  F3138  1  0.431300  0.250600  0.773900  1
  F  F3139  1  0.931300  0.249400  0.726100  1
  F  F3140  1  0.931300  0.750600  0.773900  1
  F  F3141  1  0.568700  0.250600  0.273900  1
  F  F3142  1  0.568700  0.749400  0.226100  1
  F  F3143  1  0.068700  0.750600  0.273900  1
  F  F3144  1  0.068700  0.249400  0.226100  1
  F  F3145  1  0.429800  0.681300  0.722700  1
  F  F3146  1  0.429800  0.318700  0.777300  1
  F  F3147  1  0.929800  0.181300  0.722700  1
  F  F3148  1  0.929800  0.818700  0.777300  1
  F  F3149  1  0.570200  0.318700  0.277300  1
  F  F3150  1  0.570200  0.681300  0.222700  1
  F  F3151  1  0.070200  0.818700  0.277300  1
  F  F3152  1  0.070200  0.181300  0.222700  1
  F  F3153  1  0.800100  0.415300  0.523700  1
  F  F3154  1  0.800100  0.584700  0.976300  1
  F  F3155  1  0.300100  0.915300  0.523700  1
  F  F3156  1  0.300100  0.084700  0.976300  1
  F  F3157  1  0.199900  0.584700  0.476300  1
  F  F3158  1  0.199900  0.415300  0.023700  1
  F  F3159  1  0.699900  0.084700  0.476300  1
  F  F3160  1  0.699900  0.915300  0.023700  1
  F  F3161  1  0.807900  0.346300  0.510400  1
  F  F3162  1  0.807900  0.653700  0.989600  1
  F  F3163  1  0.307900  0.846300  0.510400  1
  F  F3164  1  0.307900  0.153700  0.989600  1
  F  F3165  1  0.192100  0.653700  0.489600  1
  F  F3166  1  0.192100  0.346300  0.010400  1
  F  F3167  1  0.692100  0.153700  0.489600  1
  F  F3168  1  0.692100  0.846300  0.010400  1
  F  F3169  1  0.859400  0.395800  0.488500  1
  F  F3170  1  0.859400  0.604200  0.011500  1
  F  F3171  1  0.359400  0.895800  0.488500  1
  F  F3172  1  0.359400  0.104200  0.011500  1
  F  F3173  1  0.140600  0.604200  0.511500  1
  F  F3174  1  0.140600  0.395800  0.988500  1
  F  F3175  1  0.640600  0.104200  0.511500  1
  F  F3176  1  0.640600  0.895800  0.988500  1
  F  F3177  1  0.786100  0.385800  0.470500  1
  F  F3178  1  0.786100  0.614200  0.029500  1
  F  F3179  1  0.286100  0.885800  0.470500  1
  F  F3180  1  0.286100  0.114200  0.029500  1
  F  F3181  1  0.213900  0.614200  0.529500  1
  F  F3182  1  0.213900  0.385800  0.970500  1
  F  F3183  1  0.713900  0.114200  0.529500  1
  F  F3184  1  0.713900  0.885800  0.970500  1
  F  F3185  1  0.213700  0.763500  0.299900  1
  F  F3186  1  0.213700  0.236500  0.200100  1
  F  F3187  1  0.713700  0.263500  0.299900  1
  F  F3188  1  0.713700  0.736500  0.200100  1
  F  F3189  1  0.786300  0.236500  0.700100  1
  F  F3190  1  0.786300  0.763500  0.799900  1
  F  F3191  1  0.286300  0.736500  0.700100  1
  F  F3192  1  0.286300  0.263500  0.799900  1
  F  F3193  1  0.249500  0.789500  0.347800  1
  F  F3194  1  0.249500  0.210500  0.152200  1
  F  F3195  1  0.749500  0.289500  0.347800  1
  F  F3196  1  0.749500  0.710500  0.152200  1
  F  F3197  1  0.750500  0.210500  0.652200  1
  F  F3198  1  0.750500  0.789500  0.847800  1
  F  F3199  1  0.250500  0.710500  0.652200  1
  F  F3200  1  0.250500  0.289500  0.847800  1
  F  F3201  1  0.175000  0.795500  0.342900  1
  F  F3202  1  0.175000  0.204500  0.157100  1
  F  F3203  1  0.675000  0.295500  0.342900  1
  F  F3204  1  0.675000  0.704500  0.157100  1
  F  F3205  1  0.825000  0.204500  0.657100  1
  F  F3206  1  0.825000  0.795500  0.842900  1
  F  F3207  1  0.325000  0.704500  0.657100  1
  F  F3208  1  0.325000  0.295500  0.842900  1
  F  F3209  1  0.205200  0.738000  0.350500  1
  F  F3210  1  0.205200  0.262000  0.149500  1
  F  F3211  1  0.705200  0.238000  0.350500  1
  F  F3212  1  0.705200  0.762000  0.149500  1
  F  F3213  1  0.794800  0.262000  0.649500  1
  F  F3214  1  0.794800  0.738000  0.850500  1
  F  F3215  1  0.294800  0.762000  0.649500  1
  F  F3216  1  0.294800  0.238000  0.850500  1
  F  F3217  1  0.498500  0.887800  0.398300  1
  F  F3218  1  0.498500  0.112200  0.101700  1
  F  F3219  1  0.998500  0.387800  0.398300  1
  F  F3220  1  0.998500  0.612200  0.101700  1
  F  F3221  1  0.501500  0.112200  0.601700  1
  F  F3222  1  0.501500  0.887800  0.898300  1
  F  F3223  1  0.001500  0.612200  0.601700  1
  F  F3224  1  0.001500  0.387800  0.898300  1
  F  F3225  1  0.453500  0.929700  0.437800  1
  F  F3226  1  0.453500  0.070300  0.062200  1
  F  F3227  1  0.953500  0.429700  0.437800  1
  F  F3228  1  0.953500  0.570300  0.062200  1
  F  F3229  1  0.546500  0.070300  0.562200  1
  F  F3230  1  0.546500  0.929700  0.937800  1
  F  F3231  1  0.046500  0.570300  0.562200  1
  F  F3232  1  0.046500  0.429700  0.937800  1
  F  F3233  1  0.419300  0.894000  0.390900  1
  F  F3234  1  0.419300  0.106000  0.109100  1
  F  F3235  1  0.919300  0.394000  0.390900  1
  F  F3236  1  0.919300  0.606000  0.109100  1
  F  F3237  1  0.580700  0.106000  0.609100  1
  F  F3238  1  0.580700  0.894000  0.890900  1
  F  F3239  1  0.080700  0.606000  0.609100  1
  F  F3240  1  0.080700  0.394000  0.890900  1
  F  F3241  1  0.459400  0.946000  0.381200  1
  F  F3242  1  0.459400  0.054000  0.118800  1
  F  F3243  1  0.959400  0.446000  0.381200  1
  F  F3244  1  0.959400  0.554000  0.118800  1
  F  F3245  1  0.540600  0.054000  0.618800  1
  F  F3246  1  0.540600  0.946000  0.881200  1
  F  F3247  1  0.040600  0.554000  0.618800  1
  F  F3248  1  0.040600  0.446000  0.881200  1
  F  F3249  1  0.267200  0.804600  0.333100  1
  F  F3250  1  0.267200  0.195400  0.166900  1
  F  F3251  1  0.767200  0.304600  0.333100  1
  F  F3252  1  0.767200  0.695400  0.166900  1
  F  F3253  1  0.732800  0.195400  0.666900  1
  F  F3254  1  0.732800  0.804600  0.833100  1
  F  F3255  1  0.232800  0.695400  0.666900  1
  F  F3256  1  0.232800  0.304600  0.833100  1
  F  F3257  1  0.239400  0.795100  0.274900  1
  F  F3258  1  0.239400  0.204900  0.225100  1
  F  F3259  1  0.739400  0.295100  0.274900  1
  F  F3260  1  0.739400  0.704900  0.225100  1
  F  F3261  1  0.760600  0.204900  0.725100  1
  F  F3262  1  0.760600  0.795100  0.774900  1
  F  F3263  1  0.260600  0.704900  0.725100  1
  F  F3264  1  0.260600  0.295100  0.774900  1
  F  F3265  1  0.198000  0.815600  0.323000  1
  F  F3266  1  0.198000  0.184400  0.177000  1
  F  F3267  1  0.698000  0.315600  0.323000  1
  F  F3268  1  0.698000  0.684400  0.177000  1
  F  F3269  1  0.802000  0.184400  0.677000  1
  F  F3270  1  0.802000  0.815600  0.823000  1
  F  F3271  1  0.302000  0.684400  0.677000  1
  F  F3272  1  0.302000  0.315600  0.823000  1
  F  F3273  1  0.224400  0.752800  0.314900  1
  F  F3274  1  0.224400  0.247200  0.185100  1
  F  F3275  1  0.724400  0.252800  0.314900  1
  F  F3276  1  0.724400  0.747200  0.185100  1
  F  F3277  1  0.775600  0.247200  0.685100  1
  F  F3278  1  0.775600  0.752800  0.814900  1
  F  F3279  1  0.275600  0.747200  0.685100  1
  F  F3280  1  0.275600  0.252800  0.814900  1
  F  F3281  1  0.350740  0.031240  0.740170  1
  F  F3282  1  0.350740  0.968760  0.759830  1
  F  F3283  1  0.850740  0.531240  0.740170  1
  F  F3284  1  0.850740  0.468760  0.759830  1
  F  F3285  1  0.649260  0.968760  0.259830  1
  F  F3286  1  0.649260  0.031240  0.240170  1
  F  F3287  1  0.149260  0.468760  0.259830  1
  F  F3288  1  0.149260  0.531240  0.240170  1
  F  F3289  1  0.319400  0.026800  0.789800  1
  F  F3290  1  0.319400  0.973200  0.710200  1
  F  F3291  1  0.819400  0.526800  0.789800  1
  F  F3292  1  0.819400  0.473200  0.710200  1
  F  F3293  1  0.680600  0.973200  0.210200  1
  F  F3294  1  0.680600  0.026800  0.289800  1
  F  F3295  1  0.180600  0.473200  0.210200  1
  F  F3296  1  0.180600  0.526800  0.289800  1
  F  F3297  1  0.283800  0.000000  0.750000  1
  F  F3298  1  0.783800  0.500000  0.750000  1
  F  F3299  1  0.716200  0.000000  0.250000  1
  F  F3300  1  0.216200  0.500000  0.250000  1
