# generated using pymatgen
data_Co8B18H300C352N72O4F69
_symmetry_space_group_name_H-M   'P 1'
_cell_length_a   22.30461998
_cell_length_b   22.30461998
_cell_length_c   39.79600000
_cell_angle_alpha   85.33796209
_cell_angle_beta   85.33796209
_cell_angle_gamma   84.95657519
_symmetry_Int_Tables_number   1
_chemical_formula_structural   Co8B18H300C352N72O4F69
_chemical_formula_sum   'Co16 B36 H600 C704 N144 O8 F138'
_cell_volume   19601.57929185
_cell_formula_units_Z   2
loop_
 _symmetry_equiv_pos_site_id
 _symmetry_equiv_pos_as_xyz
  1  'x, y, z'
loop_
 _atom_site_type_symbol
 _atom_site_label
 _atom_site_symmetry_multiplicity
 _atom_site_fract_x
 _atom_site_fract_y
 _atom_site_fract_z
 _atom_site_occupancy
  B  B1  1  0.067200  0.950000  0.653060  1
  B  B2  1  0.050000  0.932800  0.846940  1
  B  B3  1  0.932800  0.050000  0.346940  1
  B  B4  1  0.950000  0.067200  0.153060  1
  B  B5  1  0.728300  0.829300  0.712300  1
  B  B6  1  0.170700  0.271700  0.787700  1
  B  B7  1  0.271700  0.170700  0.287700  1
  B  B8  1  0.829300  0.728300  0.212300  1
  B  B9  1  0.556700  0.028900  0.686100  1
  B  B10  1  0.971100  0.443300  0.813900  1
  B  B11  1  0.443300  0.971100  0.313900  1
  B  B12  1  0.028900  0.556700  0.186100  1
  B  B13  1  0.531470  0.339070  0.529620  1
  B  B14  1  0.660930  0.468530  0.970380  1
  B  B15  1  0.468530  0.660930  0.470380  1
  B  B16  1  0.339070  0.531470  0.029620  1
  B  B17  1  0.080900  0.627300  0.340300  1
  B  B18  1  0.372700  0.919100  0.159700  1
  B  B19  1  0.919100  0.372700  0.659700  1
  B  B20  1  0.627300  0.080900  0.840300  1
  B  B21  1  0.802100  0.469700  0.452500  1
  B  B22  1  0.530300  0.197900  0.047500  1
  B  B23  1  0.197900  0.530300  0.547500  1
  B  B24  1  0.469700  0.802100  0.952500  1
  B  B25  1  0.476800  0.409800  0.717400  1
  B  B26  1  0.590200  0.523200  0.782600  1
  B  B27  1  0.523200  0.590200  0.282600  1
  B  B28  1  0.409800  0.476800  0.217400  1
  B  B29  1  0.129100  0.221300  0.432550  1
  B  B30  1  0.778700  0.870900  0.067450  1
  B  B31  1  0.870900  0.778700  0.567450  1
  B  B32  1  0.221300  0.129100  0.932550  1
  B  B33  1  0.671400  0.315600  0.258100  1
  B  B34  1  0.684400  0.328600  0.241900  1
  B  B35  1  0.328600  0.684400  0.741900  1
  B  B36  1  0.315600  0.671400  0.758100  1
  C  C37  1  0.935500  0.413500  0.503600  1
  C  C38  1  0.586500  0.064500  0.996400  1
  C  C39  1  0.064500  0.586500  0.496400  1
  C  C40  1  0.413500  0.935500  0.003600  1
  C  C41  1  0.904310  0.058610  0.580320  1.0
  C  C42  1  0.941390  0.095690  0.919680  1.0
  C  C43  1  0.095690  0.941390  0.419680  1.0
  C  C44  1  0.058610  0.904310  0.080320  1.0
  C  C45  1  0.930020  0.004560  0.594780  1.0
  C  C46  1  0.995440  0.069980  0.905220  1.0
  C  C47  1  0.069980  0.995440  0.405220  1.0
  C  C48  1  0.004560  0.930020  0.094780  1.0
  C  C49  1  0.924830  0.950830  0.580250  1.0
  C  C50  1  0.049170  0.075170  0.919750  1.0
  C  C51  1  0.075170  0.049170  0.419750  1.0
  C  C52  1  0.950830  0.924830  0.080250  1.0
  C  C53  1  0.893960  0.951140  0.551260  1.0
  C  C54  1  0.048860  0.106040  0.948740  1.0
  C  C55  1  0.106040  0.048860  0.448740  1.0
  C  C56  1  0.951140  0.893960  0.051260  1.0
  C  C57  1  0.868260  0.005180  0.536800  1.0
  C  C58  1  0.994820  0.131740  0.963200  1.0
  C  C59  1  0.131740  0.994820  0.463200  1.0
  C  C60  1  0.005180  0.868260  0.036800  1.0
  C  C61  1  0.922530  0.192290  0.623430  1.0
  C  C62  1  0.807710  0.077470  0.876570  1.0
  C  C63  1  0.077470  0.807710  0.376570  1.0
  C  C64  1  0.192290  0.922530  0.123430  1.0
  C  C65  1  0.933650  0.128810  0.622210  1.0
  C  C66  1  0.871190  0.066350  0.877790  1.0
  C  C67  1  0.066350  0.871190  0.377790  1.0
  C  C68  1  0.128810  0.933650  0.122210  1.0
  C  C69  1  0.907640  0.111880  0.593350  1.0
  C  C70  1  0.888120  0.092360  0.906650  1.0
  C  C71  1  0.092360  0.888120  0.406650  1.0
  C  C72  1  0.111880  0.907640  0.093350  1.0
  C  C73  1  0.868690  0.272890  0.586360  1.0
  C  C74  1  0.727110  0.131310  0.913640  1.0
  C  C75  1  0.131310  0.727110  0.413640  1.0
  C  C76  1  0.272890  0.868690  0.086360  1.0
  C  C77  1  0.564770  0.640790  0.576180  1.0
  C  C78  1  0.359210  0.435230  0.923820  1.0
  C  C79  1  0.435230  0.359210  0.423820  1.0
  C  C80  1  0.640790  0.564770  0.076180  1.0
  C  C81  1  0.540410  0.685470  0.553640  1.0
  C  C82  1  0.314530  0.459590  0.946360  1.0
  C  C83  1  0.459590  0.314530  0.446360  1.0
  C  C84  1  0.685470  0.540410  0.053640  1.0
  C  C85  1  0.533600  0.745200  0.561850  1.0
  C  C86  1  0.254800  0.466400  0.938150  1.0
  C  C87  1  0.466400  0.254800  0.438150  1.0
  C  C88  1  0.745200  0.533600  0.061850  1.0
  C  C89  1  0.551170  0.760250  0.592610  1.0
  C  C90  1  0.239750  0.448830  0.907390  1.0
  C  C91  1  0.448830  0.239750  0.407390  1.0
  C  C92  1  0.760250  0.551170  0.092610  1.0
  C  C93  1  0.575530  0.715570  0.615150  1.0
  C  C94  1  0.284430  0.424470  0.884850  1.0
  C  C95  1  0.424470  0.284430  0.384850  1.0
  C  C96  1  0.715570  0.575530  0.115150  1.0
  C  C97  1  0.565580  0.487360  0.552420  1.0
  C  C98  1  0.512640  0.434420  0.947580  1.0
  C  C99  1  0.434420  0.512640  0.447580  1.0
  C  C100  1  0.487360  0.565580  0.052420  1.0
  C  C101  1  0.551700  0.549920  0.544170  1.0
  C  C102  1  0.450080  0.448300  0.955830  1.0
  C  C103  1  0.448300  0.450080  0.455830  1.0
  C  C104  1  0.549920  0.551700  0.044170  1.0
  C  C105  1  0.570980  0.582120  0.570130  1.0
  C  C106  1  0.417880  0.429020  0.929870  1.0
  C  C107  1  0.429020  0.417880  0.429870  1.0
  C  C108  1  0.582120  0.570980  0.070130  1.0
  C  C109  1  0.617840  0.428840  0.599730  1.0
  C  C110  1  0.571160  0.382160  0.900270  1.0
  C  C111  1  0.382160  0.571160  0.400270  1.0
  C  C112  1  0.428840  0.617840  0.099730  1.0
  C  C113  1  0.804770  0.291450  0.601560  1.0
  C  C114  1  0.708550  0.195230  0.898440  1.0
  C  C115  1  0.195230  0.708550  0.398440  1.0
  C  C116  1  0.291450  0.804770  0.101560  1.0
  C  C117  1  0.776160  0.253280  0.625910  1.0
  C  C118  1  0.746720  0.223840  0.874090  1.0
  C  C119  1  0.223840  0.746720  0.374090  1.0
  C  C120  1  0.253280  0.776160  0.125910  1.0
  C  C121  1  0.717000  0.268400  0.638020  1.0
  C  C122  1  0.731600  0.283000  0.861980  1.0
  C  C123  1  0.283000  0.731600  0.361980  1.0
  C  C124  1  0.268400  0.717000  0.138020  1.0
  C  C125  1  0.686430  0.321670  0.625770  1.0
  C  C126  1  0.678330  0.313570  0.874230  1.0
  C  C127  1  0.313570  0.678330  0.374230  1.0
  C  C128  1  0.321670  0.686430  0.125770  1.0
  C  C129  1  0.715040  0.359840  0.601410  1.0
  C  C130  1  0.640160  0.284960  0.898590  1.0
  C  C131  1  0.284960  0.640160  0.398590  1.0
  C  C132  1  0.359840  0.715040  0.101410  1.0
  C  C133  1  0.774200  0.344720  0.589300  1.0
  C  C134  1  0.655280  0.225800  0.910700  1.0
  C  C135  1  0.225800  0.655280  0.410700  1.0
  C  C136  1  0.344720  0.774200  0.089300  1.0
  C  C137  1  0.802810  0.382890  0.564940  1.0
  C  C138  1  0.617110  0.197190  0.935060  1.0
  C  C139  1  0.197190  0.617110  0.435060  1.0
  C  C140  1  0.382890  0.802810  0.064940  1.0
  C  C141  1  0.772230  0.436170  0.552690  1.0
  C  C142  1  0.563830  0.227770  0.947310  1.0
  C  C143  1  0.227770  0.563830  0.447310  1.0
  C  C144  1  0.436170  0.772230  0.052690  1.0
  C  C145  1  0.713080  0.451280  0.564800  1.0
  C  C146  1  0.548720  0.286920  0.935200  1.0
  C  C147  1  0.286920  0.548720  0.435200  1.0
  C  C148  1  0.451280  0.713080  0.064800  1.0
  C  C149  1  0.684470  0.413110  0.589150  1.0
  C  C150  1  0.586890  0.315530  0.910850  1.0
  C  C151  1  0.315530  0.586890  0.410850  1.0
  C  C152  1  0.413110  0.684470  0.089150  1.0
  C  C153  1  0.819880  0.105900  0.465140  1.0
  C  C154  1  0.894100  0.180120  0.034860  1.0
  C  C155  1  0.180120  0.894100  0.534860  1.0
  C  C156  1  0.105900  0.819880  0.965140  1.0
  C  C157  1  0.795390  0.088010  0.436890  1.0
  C  C158  1  0.911990  0.204610  0.063110  1.0
  C  C159  1  0.204610  0.911990  0.563110  1.0
  C  C160  1  0.088010  0.795390  0.936890  1.0
  C  C161  1  0.735250  0.075310  0.438750  1.0
  C  C162  1  0.924690  0.264750  0.061250  1.0
  C  C163  1  0.264750  0.924690  0.561250  1.0
  C  C164  1  0.075310  0.735250  0.938750  1.0
  C  C165  1  0.699610  0.080490  0.468850  1.0
  C  C166  1  0.919510  0.300390  0.031150  1.0
  C  C167  1  0.300390  0.919510  0.531150  1.0
  C  C168  1  0.080490  0.699610  0.968850  1.0
  C  C169  1  0.724100  0.098380  0.497100  1.0
  C  C170  1  0.901620  0.275900  0.002900  1.0
  C  C171  1  0.275900  0.901620  0.502900  1.0
  C  C172  1  0.098380  0.724100  0.997100  1.0
  C  C173  1  0.971200  0.155580  0.452330  1.0
  C  C174  1  0.844420  0.028800  0.047670  1.0
  C  C175  1  0.028800  0.844420  0.547670  1.0
  C  C176  1  0.155580  0.971200  0.952330  1.0
  C  C177  1  0.924870  0.126430  0.439350  1.0
  C  C178  1  0.873570  0.075130  0.060650  1.0
  C  C179  1  0.075130  0.873570  0.560650  1.0
  C  C180  1  0.126430  0.924870  0.939350  1.0
  C  C181  1  0.875830  0.124370  0.464400  1.0
  C  C182  1  0.875630  0.124170  0.035600  1.0
  C  C183  1  0.124170  0.875630  0.535600  1.0
  C  C184  1  0.124370  0.875830  0.964400  1.0
  C  C185  1  0.980330  0.199030  0.508070  1.0
  C  C186  1  0.800970  0.019670  0.991930  1.0
  C  C187  1  0.019670  0.800970  0.491930  1.0
  C  C188  1  0.199030  0.980330  0.008070  1.0
  C  C189  1  0.260480  0.246260  0.682480  1.0
  C  C190  1  0.753740  0.739520  0.817520  1.0
  C  C191  1  0.739520  0.753740  0.317520  1.0
  C  C192  1  0.246260  0.260480  0.182480  1.0
  C  C193  1  0.270580  0.281440  0.708410  1.0
  C  C194  1  0.718560  0.729420  0.791590  1.0
  C  C195  1  0.729420  0.718560  0.291590  1.0
  C  C196  1  0.281440  0.270580  0.208410  1.0
  C  C197  1  0.323790  0.309870  0.707380  1.0
  C  C198  1  0.690130  0.676210  0.792620  1.0
  C  C199  1  0.676210  0.690130  0.292620  1.0
  C  C200  1  0.309870  0.323790  0.207380  1.0
  C  C201  1  0.366890  0.303110  0.680410  1.0
  C  C202  1  0.696890  0.633110  0.819590  1.0
  C  C203  1  0.633110  0.696890  0.319590  1.0
  C  C204  1  0.303110  0.366890  0.180410  1.0
  C  C205  1  0.356800  0.267940  0.654470  1.0
  C  C206  1  0.732060  0.643200  0.845530  1.0
  C  C207  1  0.643200  0.732060  0.345530  1.0
  C  C208  1  0.267940  0.356800  0.154470  1.0
  C  C209  1  0.126530  0.162730  0.692960  1.0
  C  C210  1  0.837270  0.873470  0.807040  1.0
  C  C211  1  0.873470  0.837270  0.307040  1.0
  C  C212  1  0.162730  0.126530  0.192960  1.0
  C  C213  1  0.163010  0.202270  0.706710  1.0
  C  C214  1  0.797730  0.836990  0.793290  1.0
  C  C215  1  0.836990  0.797730  0.293290  1.0
  C  C216  1  0.202270  0.163010  0.206710  1.0
  C  C217  1  0.210830  0.215450  0.682180  1.0
  C  C218  1  0.784550  0.789170  0.817820  1.0
  C  C219  1  0.789170  0.784550  0.317820  1.0
  C  C220  1  0.215450  0.210830  0.182180  1.0
  C  C221  1  0.129120  0.121120  0.635160  1.0
  C  C222  1  0.878880  0.870880  0.864840  1.0
  C  C223  1  0.870880  0.878880  0.364840  1.0
  C  C224  1  0.121120  0.129120  0.135160  1.0
  C  C225  1  0.017150  0.156330  0.531830  1.0
  C  C226  1  0.843670  0.982850  0.968170  1.0
  C  C227  1  0.982850  0.843670  0.468170  1.0
  C  C228  1  0.156330  0.017150  0.031830  1.0
  C  C229  1  0.027630  0.095430  0.526310  1.0
  C  C230  1  0.904570  0.972370  0.973690  1.0
  C  C231  1  0.972370  0.904570  0.473690  1.0
  C  C232  1  0.095430  0.027630  0.026310  1.0
  C  C233  1  0.059730  0.056570  0.548770  1.0
  C  C234  1  0.943430  0.940270  0.951230  1.0
  C  C235  1  0.940270  0.943430  0.451230  1.0
  C  C236  1  0.056570  0.059730  0.048770  1.0
  C  C237  1  0.081360  0.078600  0.576750  1.0
  C  C238  1  0.921400  0.918640  0.923250  1.0
  C  C239  1  0.918640  0.921400  0.423250  1.0
  C  C240  1  0.078600  0.081360  0.076750  1.0
  C  C241  1  0.070880  0.139500  0.582270  1.0
  C  C242  1  0.860500  0.929120  0.917730  1.0
  C  C243  1  0.929120  0.860500  0.417730  1.0
  C  C244  1  0.139500  0.070880  0.082270  1.0
  C  C245  1  0.038780  0.178360  0.559810  1.0
  C  C246  1  0.821640  0.961220  0.940190  1.0
  C  C247  1  0.961220  0.821640  0.440190  1.0
  C  C248  1  0.178360  0.038780  0.059810  1.0
  C  C249  1  0.028300  0.239260  0.565330  1.0
  C  C250  1  0.760740  0.971700  0.934670  1.0
  C  C251  1  0.971700  0.760740  0.434670  1.0
  C  C252  1  0.239260  0.028300  0.065330  1.0
  C  C253  1  0.049930  0.261290  0.593320  1.0
  C  C254  1  0.738710  0.950070  0.906680  1.0
  C  C255  1  0.950070  0.738710  0.406680  1.0
  C  C256  1  0.261290  0.049930  0.093320  1.0
  C  C257  1  0.082030  0.222430  0.615780  1.0
  C  C258  1  0.777570  0.917970  0.884220  1.0
  C  C259  1  0.917970  0.777570  0.384220  1.0
  C  C260  1  0.222430  0.082030  0.115780  1.0
  C  C261  1  0.092510  0.161530  0.610260  1.0
  C  C262  1  0.838470  0.907490  0.889740  1.0
  C  C263  1  0.907490  0.838470  0.389740  1.0
  C  C264  1  0.161530  0.092510  0.110260  1.0
  C  C265  1  0.707570  0.177390  0.570620  1.0
  C  C266  1  0.822610  0.292430  0.929380  1.0
  C  C267  1  0.292430  0.822610  0.429380  1.0
  C  C268  1  0.177390  0.707570  0.070620  1.0
  C  C269  1  0.655080  0.172900  0.591700  1.0
  C  C270  1  0.827100  0.344920  0.908300  1.0
  C  C271  1  0.344920  0.827100  0.408300  1.0
  C  C272  1  0.172900  0.655080  0.091700  1.0
  C  C273  1  0.648530  0.122130  0.613940  1.0
  C  C274  1  0.877870  0.351470  0.886060  1.0
  C  C275  1  0.351470  0.877870  0.386060  1.0
  C  C276  1  0.122130  0.648530  0.113940  1.0
  C  C277  1  0.694470  0.075830  0.615080  1.0
  C  C278  1  0.924170  0.305530  0.884920  1.0
  C  C279  1  0.305530  0.924170  0.384920  1.0
  C  C280  1  0.075830  0.694470  0.115080  1.0
  C  C281  1  0.746960  0.080320  0.594000  1.0
  C  C282  1  0.919680  0.253040  0.906000  1.0
  C  C283  1  0.253040  0.919680  0.406000  1.0
  C  C284  1  0.080320  0.746960  0.094000  1.0
  C  C285  1  0.718520  0.315840  0.516560  1.0
  C  C286  1  0.684160  0.281480  0.983440  1.0
  C  C287  1  0.281480  0.684160  0.483440  1.0
  C  C288  1  0.315840  0.718520  0.016560  1.0
  C  C289  1  0.683200  0.280060  0.540280  1.0
  C  C290  1  0.719940  0.316800  0.959720  1.0
  C  C291  1  0.316800  0.719940  0.459720  1.0
  C  C292  1  0.280060  0.683200  0.040280  1.0
  C  C293  1  0.718230  0.225370  0.548570  1.0
  C  C294  1  0.774630  0.281770  0.951430  1.0
  C  C295  1  0.281770  0.774630  0.451430  1.0
  C  C296  1  0.225370  0.718230  0.048570  1.0
  C  C297  1  0.822310  0.298110  0.487470  1.0
  C  C298  1  0.701890  0.177690  0.012530  1.0
  C  C299  1  0.177690  0.701890  0.512530  1.0
  C  C300  1  0.298110  0.822310  0.987470  1.0
  C  C301  1  0.058970  0.315590  0.259010  1.0
  C  C302  1  0.684410  0.941030  0.240990  1.0
  C  C303  1  0.941030  0.684410  0.740990  1.0
  C  C304  1  0.315590  0.058970  0.759010  1.0
  C  C305  1  0.118060  0.315100  0.244860  1.0
  C  C306  1  0.684900  0.881940  0.255140  1.0
  C  C307  1  0.881940  0.684900  0.755140  1.0
  C  C308  1  0.315100  0.118060  0.744860  1.0
  C  C309  1  0.135000  0.361480  0.221500  1.0
  C  C310  1  0.638520  0.865000  0.278500  1.0
  C  C311  1  0.865000  0.638520  0.778500  1.0
  C  C312  1  0.361480  0.135000  0.721500  1.0
  C  C313  1  0.092830  0.408350  0.212290  1.0
  C  C314  1  0.591650  0.907170  0.287710  1.0
  C  C315  1  0.907170  0.591650  0.787710  1.0
  C  C316  1  0.408350  0.092830  0.712290  1.0
  C  C317  1  0.033740  0.408840  0.226440  1.0
  C  C318  1  0.591160  0.966260  0.273560  1.0
  C  C319  1  0.966260  0.591160  0.773560  1.0
  C  C320  1  0.408840  0.033740  0.726440  1.0
  C  C321  1  0.020510  0.188710  0.317420  1.0
  C  C322  1  0.811290  0.979490  0.182580  1.0
  C  C323  1  0.979490  0.811290  0.682580  1.0
  C  C324  1  0.188710  0.020510  0.817420  1.0
  C  C325  1  0.064560  0.215100  0.294430  1.0
  C  C326  1  0.784900  0.935440  0.205570  1.0
  C  C327  1  0.935440  0.784900  0.705570  1.0
  C  C328  1  0.215100  0.064560  0.794430  1.0
  C  C329  1  0.039970  0.273110  0.282550  1.0
  C  C330  1  0.726890  0.960030  0.217450  1.0
  C  C331  1  0.960030  0.726890  0.717450  1.0
  C  C332  1  0.273110  0.039970  0.782550  1.0
  C  C333  1  0.915760  0.226560  0.340360  1.0
  C  C334  1  0.773440  0.084240  0.159640  1.0
  C  C335  1  0.084240  0.773440  0.659640  1.0
  C  C336  1  0.226560  0.915760  0.840360  1.0
  C  C337  1  0.819070  0.276190  0.452030  1.0
  C  C338  1  0.723810  0.180930  0.047970  1.0
  C  C339  1  0.180930  0.723810  0.547970  1.0
  C  C340  1  0.276190  0.819070  0.952030  1.0
  C  C341  1  0.766550  0.253110  0.444020  1.0
  C  C342  1  0.746890  0.233450  0.055980  1.0
  C  C343  1  0.233450  0.746890  0.555980  1.0
  C  C344  1  0.253110  0.766550  0.944020  1.0
  C  C345  1  0.764010  0.230270  0.412740  1.0
  C  C346  1  0.769730  0.235990  0.087260  1.0
  C  C347  1  0.235990  0.769730  0.587260  1.0
  C  C348  1  0.230270  0.764010  0.912740  1.0
  C  C349  1  0.813990  0.230510  0.389470  1.0
  C  C350  1  0.769490  0.186010  0.110530  1.0
  C  C351  1  0.186010  0.769490  0.610530  1.0
  C  C352  1  0.230510  0.813990  0.889470  1.0
  C  C353  1  0.866490  0.253590  0.397490  1.0
  C  C354  1  0.746410  0.133510  0.102510  1.0
  C  C355  1  0.133510  0.746410  0.602510  1.0
  C  C356  1  0.253590  0.866490  0.897490  1.0
  C  C357  1  0.869030  0.276430  0.428770  1.0
  C  C358  1  0.723570  0.130970  0.071230  1.0
  C  C359  1  0.130970  0.723570  0.571230  1.0
  C  C360  1  0.276430  0.869030  0.928770  1.0
  C  C361  1  0.921550  0.299510  0.436790  1.0
  C  C362  1  0.700490  0.078450  0.063210  1.0
  C  C363  1  0.078450  0.700490  0.563210  1.0
  C  C364  1  0.299510  0.921550  0.936790  1.0
  C  C365  1  0.971520  0.299760  0.413520  1.0
  C  C366  1  0.700240  0.028480  0.086480  1.0
  C  C367  1  0.028480  0.700240  0.586480  1.0
  C  C368  1  0.299760  0.971520  0.913520  1.0
  C  C369  1  0.968980  0.276920  0.382240  1.0
  C  C370  1  0.723080  0.031020  0.117760  1.0
  C  C371  1  0.031020  0.723080  0.617760  1.0
  C  C372  1  0.276920  0.968980  0.882240  1.0
  C  C373  1  0.916470  0.253830  0.374220  1.0
  C  C374  1  0.746170  0.083530  0.125780  1.0
  C  C375  1  0.083530  0.746170  0.625780  1.0
  C  C376  1  0.253830  0.916470  0.874220  1.0
  C  C377  1  0.716360  0.490940  0.657180  1.0
  C  C378  1  0.509060  0.283640  0.842820  1.0
  C  C379  1  0.283640  0.509060  0.342820  1.0
  C  C380  1  0.490940  0.716360  0.157180  1.0
  C  C381  1  0.745760  0.438520  0.671320  1.0
  C  C382  1  0.561480  0.254240  0.828680  1.0
  C  C383  1  0.254240  0.561480  0.328680  1.0
  C  C384  1  0.438520  0.745760  0.171320  1.0
  C  C385  1  0.714080  0.399840  0.693960  1.0
  C  C386  1  0.600160  0.285920  0.806040  1.0
  C  C387  1  0.285920  0.600160  0.306040  1.0
  C  C388  1  0.399840  0.714080  0.193960  1.0
  C  C389  1  0.653020  0.413600  0.702450  1.0
  C  C390  1  0.586400  0.346980  0.797550  1.0
  C  C391  1  0.346980  0.586400  0.297550  1.0
  C  C392  1  0.413600  0.653020  0.202450  1.0
  C  C393  1  0.623620  0.466020  0.688310  1.0
  C  C394  1  0.533980  0.376380  0.811690  1.0
  C  C395  1  0.376380  0.533980  0.311690  1.0
  C  C396  1  0.466020  0.623620  0.188310  1.0
  C  C397  1  0.809770  0.591770  0.604130  1.0
  C  C398  1  0.408230  0.190230  0.895870  1.0
  C  C399  1  0.190230  0.408230  0.395870  1.0
  C  C400  1  0.591770  0.809770  0.104130  1.0
  C  C401  1  0.805810  0.536110  0.623880  1.0
  C  C402  1  0.463890  0.194190  0.876120  1.0
  C  C403  1  0.194190  0.463890  0.376120  1.0
  C  C404  1  0.536110  0.805810  0.123880  1.0
  C  C405  1  0.744550  0.531790  0.635980  1.0
  C  C406  1  0.468210  0.255450  0.864020  1.0
  C  C407  1  0.255450  0.468210  0.364020  1.0
  C  C408  1  0.531790  0.744550  0.135980  1.0
  C  C409  1  0.732380  0.673180  0.584650  1.0
  C  C410  1  0.326820  0.267620  0.915350  1.0
  C  C411  1  0.267620  0.326820  0.415350  1.0
  C  C412  1  0.673180  0.732380  0.084650  1.0
  C  C413  1  0.625410  0.909230  0.373540  1.0
  C  C414  1  0.090770  0.374590  0.126460  1.0
  C  C415  1  0.374590  0.090770  0.626460  1.0
  C  C416  1  0.909230  0.625410  0.873540  1.0
  C  C417  1  0.597590  0.965910  0.364710  1.0
  C  C418  1  0.034090  0.402410  0.135290  1.0
  C  C419  1  0.402410  0.034090  0.635290  1.0
  C  C420  1  0.965910  0.597590  0.864710  1.0
  C  C421  1  0.630010  0.008630  0.345440  1.0
  C  C422  1  0.991370  0.369990  0.154560  1.0
  C  C423  1  0.369990  0.991370  0.654560  1.0
  C  C424  1  0.008630  0.630010  0.845440  1.0
  C  C425  1  0.690250  0.994690  0.334980  1.0
  C  C426  1  0.005310  0.309750  0.165020  1.0
  C  C427  1  0.309750  0.005310  0.665020  1.0
  C  C428  1  0.994690  0.690250  0.834980  1.0
  C  C429  1  0.718080  0.938000  0.343810  1.0
  C  C430  1  0.062000  0.281920  0.156190  1.0
  C  C431  1  0.281920  0.062000  0.656190  1.0
  C  C432  1  0.938000  0.718080  0.843810  1.0
  C  C433  1  0.534570  0.800910  0.422680  1.0
  C  C434  1  0.199090  0.465430  0.077320  1.0
  C  C435  1  0.465430  0.199090  0.577320  1.0
  C  C436  1  0.800910  0.534570  0.922680  1.0
  C  C437  1  0.536240  0.857280  0.403420  1.0
  C  C438  1  0.142720  0.463760  0.096580  1.0
  C  C439  1  0.463760  0.142720  0.596580  1.0
  C  C440  1  0.857280  0.536240  0.903420  1.0
  C  C441  1  0.597460  0.865920  0.392950  1.0
  C  C442  1  0.134080  0.402540  0.107050  1.0
  C  C443  1  0.402540  0.134080  0.607050  1.0
  C  C444  1  0.865920  0.597460  0.892950  1.0
  C  C445  1  0.617220  0.725220  0.443610  1.0
  C  C446  1  0.274780  0.382780  0.056390  1.0
  C  C447  1  0.382780  0.274780  0.556390  1.0
  C  C448  1  0.725220  0.617220  0.943610  1.0
  C  C449  1  0.714900  0.661460  0.549140  1.0
  C  C450  1  0.338540  0.285100  0.950860  1.0
  C  C451  1  0.285100  0.338540  0.450860  1.0
  C  C452  1  0.661460  0.714900  0.049140  1.0
  C  C453  1  0.721550  0.602610  0.539470  1.0
  C  C454  1  0.397390  0.278450  0.960530  1.0
  C  C455  1  0.278450  0.397390  0.460530  1.0
  C  C456  1  0.602610  0.721550  0.039470  1.0
  C  C457  1  0.701260  0.589660  0.508950  1.0
  C  C458  1  0.410340  0.298740  0.991050  1.0
  C  C459  1  0.298740  0.410340  0.491050  1.0
  C  C460  1  0.589660  0.701260  0.008950  1.0
  C  C461  1  0.674330  0.635570  0.488110  1.0
  C  C462  1  0.364430  0.325670  0.011890  1.0
  C  C463  1  0.325670  0.364430  0.511890  1.0
  C  C464  1  0.635570  0.674330  0.988110  1.0
  C  C465  1  0.667690  0.694430  0.497780  1.0
  C  C466  1  0.305570  0.332310  0.002220  1.0
  C  C467  1  0.332310  0.305570  0.502220  1.0
  C  C468  1  0.694430  0.667690  0.997780  1.0
  C  C469  1  0.687970  0.707370  0.528290  1.0
  C  C470  1  0.292630  0.312030  0.971710  1.0
  C  C471  1  0.312030  0.292630  0.471710  1.0
  C  C472  1  0.707370  0.687970  0.028290  1.0
  C  C473  1  0.681330  0.766230  0.537970  1.0
  C  C474  1  0.233770  0.318670  0.962030  1.0
  C  C475  1  0.318670  0.233770  0.462030  1.0
  C  C476  1  0.766230  0.681330  0.037970  1.0
  C  C477  1  0.654400  0.812140  0.517120  1.0
  C  C478  1  0.187860  0.345600  0.982880  1.0
  C  C479  1  0.345600  0.187860  0.482880  1.0
  C  C480  1  0.812140  0.654400  0.017120  1.0
  C  C481  1  0.634120  0.799200  0.486610  1.0
  C  C482  1  0.200800  0.365880  0.013390  1.0
  C  C483  1  0.365880  0.200800  0.513390  1.0
  C  C484  1  0.799200  0.634120  0.986610  1.0
  C  C485  1  0.640760  0.740340  0.476940  1.0
  C  C486  1  0.259660  0.359240  0.023060  1.0
  C  C487  1  0.359240  0.259660  0.523060  1.0
  C  C488  1  0.740340  0.640760  0.976940  1.0
  C  C489  1  0.214670  0.195670  0.551570  1.0
  C  C490  1  0.804330  0.785330  0.948430  1.0
  C  C491  1  0.785330  0.804330  0.448430  1.0
  C  C492  1  0.195670  0.214670  0.051570  1.0
  C  C493  1  0.195720  0.178000  0.521720  1.0
  C  C494  1  0.822000  0.804280  0.978280  1.0
  C  C495  1  0.804280  0.822000  0.478280  1.0
  C  C496  1  0.178000  0.195720  0.021720  1.0
  C  C497  1  0.207130  0.118430  0.513590  1.0
  C  C498  1  0.881570  0.792870  0.986410  1.0
  C  C499  1  0.792870  0.881570  0.486410  1.0
  C  C500  1  0.118430  0.207130  0.013590  1.0
  C  C501  1  0.237480  0.076520  0.535310  1.0
  C  C502  1  0.923480  0.762520  0.964690  1.0
  C  C503  1  0.762520  0.923480  0.464690  1.0
  C  C504  1  0.076520  0.237480  0.035310  1.0
  C  C505  1  0.256420  0.094180  0.565170  1.0
  C  C506  1  0.905820  0.743580  0.934830  1.0
  C  C507  1  0.743580  0.905820  0.434830  1.0
  C  C508  1  0.094180  0.256420  0.065170  1.0
  C  C509  1  0.195130  0.355910  0.560220  1.0
  C  C510  1  0.644090  0.804870  0.939780  1.0
  C  C511  1  0.804870  0.644090  0.439780  1.0
  C  C512  1  0.355910  0.195130  0.060220  1.0
  C  C513  1  0.184370  0.306130  0.542090  1.0
  C  C514  1  0.693870  0.815630  0.957910  1.0
  C  C515  1  0.815630  0.693870  0.457910  1.0
  C  C516  1  0.306130  0.184370  0.042090  1.0
  C  C517  1  0.210150  0.252830  0.559140  1.0
  C  C518  1  0.747170  0.789850  0.940860  1.0
  C  C519  1  0.789850  0.747170  0.440860  1.0
  C  C520  1  0.252830  0.210150  0.059140  1.0
  C  C521  1  0.243540  0.366740  0.613540  1.0
  C  C522  1  0.633260  0.756460  0.886460  1.0
  C  C523  1  0.756460  0.633260  0.386460  1.0
  C  C524  1  0.366740  0.243540  0.113540  1.0
  C  C525  1  0.133520  0.669860  0.783610  1.0
  C  C526  1  0.330140  0.866480  0.716390  1.0
  C  C527  1  0.866480  0.330140  0.216390  1.0
  C  C528  1  0.669860  0.133520  0.283610  1.0
  C  C529  1  0.154810  0.702390  0.807860  1.0
  C  C530  1  0.297610  0.845190  0.692140  1.0
  C  C531  1  0.845190  0.297610  0.192140  1.0
  C  C532  1  0.702390  0.154810  0.307860  1.0
  C  C533  1  0.144500  0.764900  0.806180  1.0
  C  C534  1  0.235100  0.855500  0.693820  1.0
  C  C535  1  0.855500  0.235100  0.193820  1.0
  C  C536  1  0.764900  0.144500  0.306180  1.0
  C  C537  1  0.112920  0.794880  0.780240  1.0
  C  C538  1  0.205120  0.887080  0.719760  1.0
  C  C539  1  0.887080  0.205120  0.219760  1.0
  C  C540  1  0.794880  0.112920  0.280240  1.0
  C  C541  1  0.091640  0.762360  0.755990  1.0
  C  C542  1  0.237640  0.908360  0.744010  1.0
  C  C543  1  0.908360  0.237640  0.244010  1.0
  C  C544  1  0.762360  0.091640  0.255990  1.0
  C  C545  1  0.154540  0.506740  0.796420  1.0
  C  C546  1  0.493260  0.845460  0.703580  1.0
  C  C547  1  0.845460  0.493260  0.203580  1.0
  C  C548  1  0.506740  0.154540  0.296420  1.0
  C  C549  1  0.164520  0.563940  0.807210  1.0
  C  C550  1  0.436060  0.835480  0.692790  1.0
  C  C551  1  0.835480  0.436060  0.192790  1.0
  C  C552  1  0.563940  0.164520  0.307210  1.0
  C  C553  1  0.138570  0.609110  0.784280  1.0
  C  C554  1  0.390890  0.861430  0.715720  1.0
  C  C555  1  0.861430  0.390890  0.215720  1.0
  C  C556  1  0.609110  0.138570  0.284280  1.0
  C  C557  1  0.109810  0.475810  0.744710  1.0
  C  C558  1  0.524190  0.890190  0.755290  1.0
  C  C559  1  0.890190  0.524190  0.255290  1.0
  C  C560  1  0.475810  0.109810  0.244710  1.0
  C  C561  1  0.193940  0.377120  0.641870  1.0
  C  C562  1  0.622880  0.806060  0.858130  1.0
  C  C563  1  0.806060  0.622880  0.358130  1.0
  C  C564  1  0.377120  0.193940  0.141870  1.0
  C  C565  1  0.140650  0.349290  0.641510  1.0
  C  C566  1  0.650710  0.859350  0.858490  1.0
  C  C567  1  0.859350  0.650710  0.358490  1.0
  C  C568  1  0.349290  0.140650  0.141510  1.0
  C  C569  1  0.094170  0.359430  0.666350  1.0
  C  C570  1  0.640570  0.905830  0.833650  1.0
  C  C571  1  0.905830  0.640570  0.333650  1.0
  C  C572  1  0.359430  0.094170  0.166350  1.0
  C  C573  1  0.100980  0.397400  0.691560  1.0
  C  C574  1  0.602600  0.899020  0.808440  1.0
  C  C575  1  0.899020  0.602600  0.308440  1.0
  C  C576  1  0.397400  0.100980  0.191560  1.0
  C  C577  1  0.154270  0.425230  0.691920  1.0
  C  C578  1  0.574770  0.845730  0.808080  1.0
  C  C579  1  0.845730  0.574770  0.308080  1.0
  C  C580  1  0.425230  0.154270  0.191920  1.0
  C  C581  1  0.200750  0.415090  0.667080  1.0
  C  C582  1  0.584910  0.799250  0.832920  1.0
  C  C583  1  0.799250  0.584910  0.332920  1.0
  C  C584  1  0.415090  0.200750  0.167080  1.0
  C  C585  1  0.254040  0.442920  0.667440  1.0
  C  C586  1  0.557080  0.745960  0.832560  1.0
  C  C587  1  0.745960  0.557080  0.332560  1.0
  C  C588  1  0.442920  0.254040  0.167440  1.0
  C  C589  1  0.260840  0.480880  0.692650  1.0
  C  C590  1  0.519120  0.739160  0.807350  1.0
  C  C591  1  0.739160  0.519120  0.307350  1.0
  C  C592  1  0.480880  0.260840  0.192650  1.0
  C  C593  1  0.214370  0.491030  0.717490  1.0
  C  C594  1  0.508970  0.785630  0.782510  1.0
  C  C595  1  0.785630  0.508970  0.282510  1.0
  C  C596  1  0.491030  0.214370  0.217490  1.0
  C  C597  1  0.161080  0.463200  0.717130  1.0
  C  C598  1  0.536800  0.838920  0.782870  1.0
  C  C599  1  0.838920  0.536800  0.282870  1.0
  C  C600  1  0.463200  0.161080  0.217130  1.0
  C  C601  1  0.852440  0.394440  0.338380  1.0
  C  C602  1  0.605560  0.147560  0.161620  1.0
  C  C603  1  0.147560  0.605560  0.661620  1.0
  C  C604  1  0.394440  0.852440  0.838380  1.0
  C  C605  1  0.803000  0.398220  0.361950  1.0
  C  C606  1  0.601780  0.197000  0.138050  1.0
  C  C607  1  0.197000  0.601780  0.638050  1.0
  C  C608  1  0.398220  0.803000  0.861950  1.0
  C  C609  1  0.751740  0.369580  0.357290  1.0
  C  C610  1  0.630420  0.248260  0.142710  1.0
  C  C611  1  0.248260  0.630420  0.642710  1.0
  C  C612  1  0.369580  0.751740  0.857290  1.0
  C  C613  1  0.749920  0.337140  0.329060  1.0
  C  C614  1  0.662860  0.250080  0.170940  1.0
  C  C615  1  0.250080  0.662860  0.670940  1.0
  C  C616  1  0.337140  0.749920  0.829060  1.0
  C  C617  1  0.799360  0.333360  0.305480  1.0
  C  C618  1  0.666640  0.200640  0.194520  1.0
  C  C619  1  0.200640  0.666640  0.694520  1.0
  C  C620  1  0.333360  0.799360  0.805480  1.0
  C  C621  1  0.974530  0.483530  0.353180  1.0
  C  C622  1  0.516470  0.025470  0.146820  1.0
  C  C623  1  0.025470  0.516470  0.646820  1.0
  C  C624  1  0.483530  0.974530  0.853180  1.0
  C  C625  1  0.918070  0.461510  0.364730  1.0
  C  C626  1  0.538490  0.081930  0.135270  1.0
  C  C627  1  0.081930  0.538490  0.635270  1.0
  C  C628  1  0.461510  0.918070  0.864730  1.0
  C  C629  1  0.902180  0.423380  0.340550  1.0
  C  C630  1  0.576620  0.097820  0.159450  1.0
  C  C631  1  0.097820  0.576620  0.659450  1.0
  C  C632  1  0.423380  0.902180  0.840550  1.0
  C  C633  1  0.048560  0.463160  0.304270  1.0
  C  C634  1  0.536840  0.951440  0.195730  1.0
  C  C635  1  0.951440  0.536840  0.695730  1.0
  C  C636  1  0.463160  0.048560  0.804270  1.0
  C  C637  1  0.495930  0.398110  0.314130  1.0
  C  C638  1  0.601890  0.504070  0.185870  1.0
  C  C639  1  0.504070  0.601890  0.685870  1.0
  C  C640  1  0.398110  0.495930  0.814130  1.0
  C  C641  1  0.555560  0.397500  0.300870  1.0
  C  C642  1  0.602500  0.444440  0.199130  1.0
  C  C643  1  0.444440  0.602500  0.699130  1.0
  C  C644  1  0.397500  0.555560  0.800870  1.0
  C  C645  1  0.595950  0.430410  0.314990  1.0
  C  C646  1  0.569590  0.404050  0.185010  1.0
  C  C647  1  0.404050  0.569590  0.685010  1.0
  C  C648  1  0.430410  0.595950  0.814990  1.0
  C  C649  1  0.576700  0.463940  0.342390  1.0
  C  C650  1  0.536060  0.423300  0.157610  1.0
  C  C651  1  0.423300  0.536060  0.657610  1.0
  C  C652  1  0.463940  0.576700  0.842390  1.0
  C  C653  1  0.517070  0.464550  0.355660  1.0
  C  C654  1  0.535450  0.482930  0.144340  1.0
  C  C655  1  0.482930  0.535450  0.644340  1.0
  C  C656  1  0.464550  0.517070  0.855660  1.0
  C  C657  1  0.404400  0.296440  0.279150  1.0
  C  C658  1  0.703560  0.595600  0.220850  1.0
  C  C659  1  0.595600  0.703560  0.720850  1.0
  C  C660  1  0.296440  0.404400  0.779150  1.0
  C  C661  1  0.461100  0.320980  0.278770  1.0
  C  C662  1  0.679020  0.538900  0.221230  1.0
  C  C663  1  0.538900  0.679020  0.721230  1.0
  C  C664  1  0.320980  0.461100  0.778770  1.0
  C  C665  1  0.456050  0.364850  0.303000  1.0
  C  C666  1  0.635150  0.543950  0.197000  1.0
  C  C667  1  0.543950  0.635150  0.697000  1.0
  C  C668  1  0.364850  0.456050  0.803000  1.0
  C  C669  1  0.304870  0.317070  0.313210  1.0
  C  C670  1  0.682930  0.695130  0.186790  1.0
  C  C671  1  0.695130  0.682930  0.686790  1.0
  C  C672  1  0.317070  0.304870  0.813210  1.0
  C  C673  1  0.096570  0.412250  0.314410  1.0
  C  C674  1  0.587750  0.903430  0.185590  1.0
  C  C675  1  0.903430  0.587750  0.685590  1.0
  C  C676  1  0.412250  0.096570  0.814410  1.0
  C  C677  1  0.078230  0.365210  0.336890  1.0
  C  C678  1  0.634790  0.921770  0.163110  1.0
  C  C679  1  0.921770  0.634790  0.663110  1.0
  C  C680  1  0.365210  0.078230  0.836890  1.0
  C  C681  1  0.119980  0.318660  0.347060  1.0
  C  C682  1  0.681340  0.880020  0.152940  1.0
  C  C683  1  0.880020  0.681340  0.652940  1.0
  C  C684  1  0.318660  0.119980  0.847060  1.0
  C  C685  1  0.180070  0.319150  0.334740  1.0
  C  C686  1  0.680850  0.819930  0.165260  1.0
  C  C687  1  0.819930  0.680850  0.665260  1.0
  C  C688  1  0.319150  0.180070  0.834740  1.0
  C  C689  1  0.198420  0.366180  0.312260  1.0
  C  C690  1  0.633820  0.801580  0.187740  1.0
  C  C691  1  0.801580  0.633820  0.687740  1.0
  C  C692  1  0.366180  0.198420  0.812260  1.0
  C  C693  1  0.156670  0.412730  0.302090  1.0
  C  C694  1  0.587270  0.843330  0.197910  1.0
  C  C695  1  0.843330  0.587270  0.697910  1.0
  C  C696  1  0.412730  0.156670  0.802090  1.0
  C  C697  1  0.175010  0.459770  0.279600  1.0
  C  C698  1  0.540230  0.824990  0.220400  1.0
  C  C699  1  0.824990  0.540230  0.720400  1.0
  C  C700  1  0.459770  0.175010  0.779600  1.0
  C  C701  1  0.235100  0.460260  0.267280  1.0
  C  C702  1  0.539740  0.764900  0.232720  1.0
  C  C703  1  0.764900  0.539740  0.732720  1.0
  C  C704  1  0.460260  0.235100  0.767280  1.0
  C  C705  1  0.276860  0.413700  0.277450  1.0
  C  C706  1  0.586300  0.723140  0.222550  1.0
  C  C707  1  0.723140  0.586300  0.722550  1.0
  C  C708  1  0.413700  0.276860  0.777450  1.0
  C  C709  1  0.258510  0.366670  0.299940  1.0
  C  C710  1  0.633330  0.741490  0.200060  1.0
  C  C711  1  0.741490  0.633330  0.700060  1.0
  C  C712  1  0.366670  0.258510  0.799940  1.0
  C  C713  1  0.035200  0.429000  0.570000  1.0
  C  C714  1  0.571000  0.964800  0.930000  1.0
  C  C715  1  0.964800  0.571000  0.430000  1.0
  C  C716  1  0.429000  0.035200  0.070000  1.0
  C  C717  1  0.984300  0.396100  0.520000  1.0
  C  C718  1  0.603900  0.015700  0.980000  1.0
  C  C719  1  0.015700  0.603900  0.480000  1.0
  C  C720  1  0.396100  0.984300  0.020000  1.0
  C  C721  1  0.976400  0.413800  0.558800  1.0
  C  C722  1  0.586200  0.023600  0.941200  1.0
  C  C723  1  0.023600  0.586200  0.441200  1.0
  C  C724  1  0.413800  0.976400  0.058800  1.0
  C  C725  1  0.941800  0.475800  0.555600  1.0
  C  C726  1  0.524200  0.058200  0.944400  1.0
  C  C727  1  0.058200  0.524200  0.444400  1.0
  C  C728  1  0.475800  0.941800  0.055600  1.0
  C  C729  1  0.080700  0.392100  0.482700  1.0
  C  C730  1  0.607900  0.919300  0.017300  1.0
  C  C731  1  0.919300  0.607900  0.517300  1.0
  C  C732  1  0.392100  0.080700  0.982700  1.0
  C  C733  1  0.019300  0.425300  0.492500  1.0
  C  C734  1  0.574700  0.980700  0.007500  1.0
  C  C735  1  0.980700  0.574700  0.507500  1.0
  C  C736  1  0.425300  0.019300  0.992500  1.0
  C  C737  1  0.988500  0.443100  0.461600  1.0
  C  C738  1  0.556900  0.011500  0.038400  1.0
  C  C739  1  0.011500  0.556900  0.538400  1.0
  C  C740  1  0.443100  0.988500  0.961600  1.0
  Co  Co741  1  0.615740  0.580960  0.638480  1.0
  Co  Co742  1  0.419040  0.384260  0.861520  1.0
  Co  Co743  1  0.384260  0.419040  0.361520  1.0
  Co  Co744  1  0.580960  0.615740  0.138480  1.0
  Co  Co745  1  0.829110  0.144790  0.535700  1.0
  Co  Co746  1  0.855210  0.170890  0.964300  1.0
  Co  Co747  1  0.170890  0.855210  0.464300  1.0
  Co  Co748  1  0.144790  0.829110  0.035700  1.0
  Co  Co749  1  0.930430  0.360390  0.276860  1.0
  Co  Co750  1  0.639610  0.069570  0.223140  1.0
  Co  Co751  1  0.069570  0.639610  0.723140  1.0
  Co  Co752  1  0.360390  0.930430  0.776860  1.0
  Co  Co753  1  0.276310  0.191210  0.615840  1.0
  Co  Co754  1  0.808790  0.723690  0.884160  1.0
  Co  Co755  1  0.723690  0.808790  0.384160  1.0
  Co  Co756  1  0.191210  0.276310  0.115840  1.0
  F  F757  1  0.039470  0.007210  0.657960  1
  F  F758  1  0.992790  0.960530  0.842040  1
  F  F759  1  0.960530  0.992790  0.342040  1
  F  F760  1  0.007210  0.039470  0.157960  1
  F  F761  1  0.031260  0.919680  0.635100  1
  F  F762  1  0.080320  0.968740  0.864900  1
  F  F763  1  0.968740  0.080320  0.364900  1
  F  F764  1  0.919680  0.031260  0.135100  1
  F  F765  1  0.075830  0.917630  0.684010  1
  F  F766  1  0.082370  0.924170  0.815990  1
  F  F767  1  0.924170  0.082370  0.315990  1
  F  F768  1  0.917630  0.075830  0.184010  1
  F  F769  1  0.122430  0.955830  0.635280  1
  F  F770  1  0.044170  0.877570  0.864720  1
  F  F771  1  0.877570  0.044170  0.364720  1
  F  F772  1  0.955830  0.122430  0.135280  1
  F  F773  1  0.727300  0.829500  0.675100  1
  F  F774  1  0.170500  0.272700  0.824900  1
  F  F775  1  0.272700  0.170500  0.324900  1
  F  F776  1  0.829500  0.727300  0.175100  1
  F  F777  1  0.745800  0.889400  0.718500  1
  F  F778  1  0.110600  0.254200  0.781500  1
  F  F779  1  0.254200  0.110600  0.281500  1
  F  F780  1  0.889400  0.745800  0.218500  1
  F  F781  1  0.777000  0.792200  0.720800  1
  F  F782  1  0.207800  0.223000  0.779200  1
  F  F783  1  0.223000  0.207800  0.279200  1
  F  F784  1  0.792200  0.777000  0.220800  1
  F  F785  1  0.679500  0.823100  0.724580  1
  F  F786  1  0.176900  0.320500  0.775420  1
  F  F787  1  0.320500  0.176900  0.275420  1
  F  F788  1  0.823100  0.679500  0.224580  1
  F  F789  1  0.549000  0.036000  0.720500  1
  F  F790  1  0.964000  0.451000  0.779500  1
  F  F791  1  0.451000  0.964000  0.279500  1
  F  F792  1  0.036000  0.549000  0.220500  1
  F  F793  1  0.522400  0.982600  0.680300  1
  F  F794  1  0.017400  0.477600  0.819700  1
  F  F795  1  0.477600  0.017400  0.319700  1
  F  F796  1  0.982600  0.522400  0.180300  1
  F  F797  1  0.535200  0.079200  0.666500  1
  F  F798  1  0.920800  0.464800  0.833500  1
  F  F799  1  0.464800  0.920800  0.333500  1
  F  F800  1  0.079200  0.535200  0.166500  1
  F  F801  1  0.616000  0.014200  0.674700  1
  F  F802  1  0.985800  0.384000  0.825300  1
  F  F803  1  0.384000  0.985800  0.325300  1
  F  F804  1  0.014200  0.616000  0.174700  1
  F  F805  1  0.526160  0.282760  0.515470  1
  F  F806  1  0.717240  0.473840  0.984530  1
  F  F807  1  0.473840  0.717240  0.484530  1
  F  F808  1  0.282760  0.526160  0.015470  1
  F  F809  1  0.578790  0.367550  0.511950  1
  F  F810  1  0.632450  0.421210  0.988050  1
  F  F811  1  0.421210  0.632450  0.488050  1
  F  F812  1  0.367550  0.578790  0.011950  1
  F  F813  1  0.545130  0.324690  0.563040  1
  F  F814  1  0.675310  0.454870  0.936960  1
  F  F815  1  0.454870  0.675310  0.436960  1
  F  F816  1  0.324690  0.545130  0.063040  1
  F  F817  1  0.480000  0.375340  0.527630  1
  F  F818  1  0.624660  0.520000  0.972370  1
  F  F819  1  0.520000  0.624660  0.472370  1
  F  F820  1  0.375340  0.480000  0.027630  1
  F  F821  1  0.048060  0.671260  0.355210  1
  F  F822  1  0.328740  0.951940  0.144790  1
  F  F823  1  0.951940  0.328740  0.644790  1
  F  F824  1  0.671260  0.048060  0.855210  1
  F  F825  1  0.089700  0.573500  0.357200  1
  F  F826  1  0.426500  0.910300  0.142800  1
  F  F827  1  0.910300  0.426500  0.642800  1
  F  F828  1  0.573500  0.089700  0.857200  1
  F  F829  1  0.134710  0.650510  0.326400  1
  F  F830  1  0.349490  0.865290  0.173600  1
  F  F831  1  0.865290  0.349490  0.673600  1
  F  F832  1  0.650510  0.134710  0.826400  1
  F  F833  1  0.052170  0.612970  0.312750  1
  F  F834  1  0.387030  0.947830  0.187250  1
  F  F835  1  0.947830  0.387030  0.687250  1
  F  F836  1  0.612970  0.052170  0.812750  1
  F  F837  1  0.823460  0.508640  0.473650  1
  F  F838  1  0.491360  0.176540  0.026350  1
  F  F839  1  0.176540  0.491360  0.526350  1
  F  F840  1  0.508640  0.823460  0.973650  1
  F  F841  1  0.755120  0.442300  0.469940  1
  F  F842  1  0.557700  0.244880  0.030060  1
  F  F843  1  0.244880  0.557700  0.530060  1
  F  F844  1  0.442300  0.755120  0.969940  1
  F  F845  1  0.783740  0.501740  0.423790  1
  F  F846  1  0.498260  0.216260  0.076210  1
  F  F847  1  0.216260  0.498260  0.576210  1
  F  F848  1  0.501740  0.783740  0.923790  1
  F  F849  1  0.846160  0.426240  0.443160  1
  F  F850  1  0.573760  0.153840  0.056840  1
  F  F851  1  0.153840  0.573760  0.556840  1
  F  F852  1  0.426240  0.846160  0.943160  1
  F  F853  1  0.498800  0.402000  0.682410  1
  F  F854  1  0.598000  0.501200  0.817590  1
  F  F855  1  0.501200  0.598000  0.317590  1
  F  F856  1  0.402000  0.498800  0.182410  1
  F  F857  1  0.505000  0.361200  0.731000  1
  F  F858  1  0.638800  0.495000  0.769000  1
  F  F859  1  0.495000  0.638800  0.269000  1
  F  F860  1  0.361200  0.505000  0.231000  1
  F  F861  1  0.493500  0.457500  0.726800  1
  F  F862  1  0.542500  0.506500  0.773200  1
  F  F863  1  0.506500  0.542500  0.273200  1
  F  F864  1  0.457500  0.493500  0.226800  1
  F  F865  1  0.419700  0.403100  0.719700  1
  F  F866  1  0.596900  0.580300  0.780300  1
  F  F867  1  0.580300  0.596900  0.280300  1
  F  F868  1  0.403100  0.419700  0.219700  1
  F  F869  1  0.096660  0.200680  0.407770  1
  F  F870  1  0.799320  0.903340  0.092230  1
  F  F871  1  0.903340  0.799320  0.592230  1
  F  F872  1  0.200680  0.096660  0.907770  1
  F  F873  1  0.189020  0.202640  0.428730  1
  F  F874  1  0.797360  0.810980  0.071270  1
  F  F875  1  0.810980  0.797360  0.571270  1
  F  F876  1  0.202640  0.189020  0.928730  1
  F  F877  1  0.122830  0.284150  0.430780  1
  F  F878  1  0.715850  0.877170  0.069220  1
  F  F879  1  0.877170  0.715850  0.569220  1
  F  F880  1  0.284150  0.122830  0.930780  1
  F  F881  1  0.105550  0.198810  0.463960  1
  F  F882  1  0.801190  0.894450  0.036040  1
  F  F883  1  0.894450  0.801190  0.536040  1
  F  F884  1  0.198810  0.105550  0.963960  1
  F  F885  1  0.686330  0.375030  0.259650  1
  F  F886  1  0.624970  0.313670  0.240350  1
  F  F887  1  0.313670  0.624970  0.740350  1
  F  F888  1  0.375030  0.686330  0.759650  1
  F  F889  1  0.721200  0.278800  0.250000  1
  F  F890  1  0.278800  0.721200  0.750000  1
  F  F891  1  0.656000  0.287600  0.289450  1
  F  F892  1  0.712400  0.344000  0.210550  1
  F  F893  1  0.344000  0.712400  0.710550  1
  F  F894  1  0.287600  0.656000  0.789450  1
  H  H895  1  0.950200  0.360200  0.540000  1
  H  H896  1  0.639800  0.049800  0.960000  1
  H  H897  1  0.049800  0.639800  0.460000  1
  H  H898  1  0.360200  0.950200  0.040000  1
  H  H899  1  0.905400  0.437600  0.517300  1
  H  H900  1  0.562400  0.094600  0.982700  1
  H  H901  1  0.094600  0.562400  0.482700  1
  H  H902  1  0.437600  0.905400  0.017300  1
  H  H903  1  0.920700  0.410100  0.481400  1
  H  H904  1  0.589900  0.079300  0.018600  1
  H  H905  1  0.079300  0.589900  0.518600  1
  H  H906  1  0.410100  0.920700  0.981400  1
  H  H907  1  0.973400  0.433200  0.500900  1
  H  H908  1  0.566800  0.026600  0.999100  1
  H  H909  1  0.026600  0.566800  0.499100  1
  H  H910  1  0.433200  0.973400  0.000900  1
  H  H911  1  0.951100  0.004300  0.614600  1.0
  H  H912  1  0.995700  0.048900  0.885400  1.0
  H  H913  1  0.048900  0.995700  0.385400  1.0
  H  H914  1  0.004300  0.951100  0.114600  1.0
  H  H915  1  0.942400  0.913800  0.590100  1.0
  H  H916  1  0.086200  0.057600  0.909900  1.0
  H  H917  1  0.057600  0.086200  0.409900  1.0
  H  H918  1  0.913800  0.942400  0.090100  1.0
  H  H919  1  0.890400  0.914400  0.541300  1.0
  H  H920  1  0.085600  0.109600  0.958700  1.0
  H  H921  1  0.109600  0.085600  0.458700  1.0
  H  H922  1  0.914400  0.890400  0.041300  1.0
  H  H923  1  0.847200  0.005400  0.517000  1.0
  H  H924  1  0.994600  0.152800  0.983000  1.0
  H  H925  1  0.152800  0.994600  0.483000  1.0
  H  H926  1  0.005400  0.847200  0.017000  1.0
  H  H927  1  0.934900  0.215700  0.640100  1.0
  H  H928  1  0.784300  0.065100  0.859900  1.0
  H  H929  1  0.065100  0.784300  0.359900  1.0
  H  H930  1  0.215700  0.934900  0.140100  1.0
  H  H931  1  0.954800  0.102400  0.637900  1.0
  H  H932  1  0.897600  0.045200  0.862100  1.0
  H  H933  1  0.045200  0.897600  0.362100  1.0
  H  H934  1  0.102400  0.954800  0.137900  1.0
  H  H935  1  0.868900  0.278300  0.561400  1.0
  H  H936  1  0.721700  0.131100  0.938600  1.0
  H  H937  1  0.131100  0.721700  0.438600  1.0
  H  H938  1  0.278300  0.868900  0.061400  1.0
  H  H939  1  0.896900  0.300500  0.593500  1.0
  H  H940  1  0.699500  0.103100  0.906500  1.0
  H  H941  1  0.103100  0.699500  0.406500  1.0
  H  H942  1  0.300500  0.896900  0.093500  1.0
  H  H943  1  0.528400  0.675200  0.532600  1.0
  H  H944  1  0.324800  0.471600  0.967400  1.0
  H  H945  1  0.471600  0.324800  0.467400  1.0
  H  H946  1  0.675200  0.528400  0.032600  1.0
  H  H947  1  0.516900  0.775700  0.546400  1.0
  H  H948  1  0.224300  0.483100  0.953600  1.0
  H  H949  1  0.483100  0.224300  0.453600  1.0
  H  H950  1  0.775700  0.516900  0.046400  1.0
  H  H951  1  0.546500  0.801100  0.598200  1.0
  H  H952  1  0.198900  0.453500  0.901800  1.0
  H  H953  1  0.453500  0.198900  0.401800  1.0
  H  H954  1  0.801100  0.546500  0.098200  1.0
  H  H955  1  0.587500  0.725900  0.636200  1.0
  H  H956  1  0.274100  0.412500  0.863800  1.0
  H  H957  1  0.412500  0.274100  0.363800  1.0
  H  H958  1  0.725900  0.587500  0.136200  1.0
  H  H959  1  0.557600  0.455400  0.539400  1.0
  H  H960  1  0.544600  0.442400  0.960600  1.0
  H  H961  1  0.442400  0.544600  0.460600  1.0
  H  H962  1  0.455400  0.557600  0.039400  1.0
  H  H963  1  0.532800  0.567200  0.524700  1.0
  H  H964  1  0.432800  0.467200  0.975300  1.0
  H  H965  1  0.467200  0.432800  0.475300  1.0
  H  H966  1  0.567200  0.532800  0.024700  1.0
  H  H967  1  0.594600  0.395000  0.595200  1.0
  H  H968  1  0.605000  0.405400  0.904800  1.0
  H  H969  1  0.405400  0.605000  0.404800  1.0
  H  H970  1  0.395000  0.594600  0.095200  1.0
  H  H971  1  0.613400  0.433000  0.624400  1.0
  H  H972  1  0.567000  0.386600  0.875600  1.0
  H  H973  1  0.386600  0.567000  0.375600  1.0
  H  H974  1  0.433000  0.613400  0.124400  1.0
  H  H975  1  0.797100  0.216900  0.634300  1.0
  H  H976  1  0.783100  0.202900  0.865700  1.0
  H  H977  1  0.202900  0.783100  0.365700  1.0
  H  H978  1  0.216900  0.797100  0.134300  1.0
  H  H979  1  0.697500  0.242300  0.654700  1.0
  H  H980  1  0.757700  0.302500  0.845300  1.0
  H  H981  1  0.302500  0.757700  0.345300  1.0
  H  H982  1  0.242300  0.697500  0.154700  1.0
  H  H983  1  0.646000  0.332000  0.634000  1.0
  H  H984  1  0.668000  0.354000  0.866000  1.0
  H  H985  1  0.354000  0.668000  0.366000  1.0
  H  H986  1  0.332000  0.646000  0.134000  1.0
  H  H987  1  0.843200  0.372600  0.556700  1.0
  H  H988  1  0.627400  0.156800  0.943300  1.0
  H  H989  1  0.156800  0.627400  0.443300  1.0
  H  H990  1  0.372600  0.843200  0.056700  1.0
  H  H991  1  0.791800  0.462200  0.536000  1.0
  H  H992  1  0.537800  0.208200  0.964000  1.0
  H  H993  1  0.208200  0.537800  0.464000  1.0
  H  H994  1  0.462200  0.791800  0.036000  1.0
  H  H995  1  0.692100  0.487700  0.556400  1.0
  H  H996  1  0.512300  0.307900  0.943600  1.0
  H  H997  1  0.307900  0.512300  0.443600  1.0
  H  H998  1  0.487700  0.692100  0.056400  1.0
  H  H999  1  0.819700  0.084500  0.416300  1.0
  H  H1000  1  0.915500  0.180300  0.083700  1.0
  H  H1001  1  0.180300  0.915500  0.583700  1.0
  H  H1002  1  0.084500  0.819700  0.916300  1.0
  H  H1003  1  0.718500  0.063100  0.419400  1.0
  H  H1004  1  0.936900  0.281500  0.080600  1.0
  H  H1005  1  0.281500  0.936900  0.580600  1.0
  H  H1006  1  0.063100  0.718500  0.919400  1.0
  H  H1007  1  0.658600  0.071800  0.470100  1.0
  H  H1008  1  0.928200  0.341400  0.029900  1.0
  H  H1009  1  0.341400  0.928200  0.529900  1.0
  H  H1010  1  0.071800  0.658600  0.970100  1.0
  H  H1011  1  0.699700  0.101900  0.517700  1.0
  H  H1012  1  0.898100  0.300300  0.982300  1.0
  H  H1013  1  0.300300  0.898100  0.482300  1.0
  H  H1014  1  0.101900  0.699700  0.017700  1.0
  H  H1015  1  0.009100  0.163100  0.440900  1.0
  H  H1016  1  0.836900  0.990900  0.059100  1.0
  H  H1017  1  0.990900  0.836900  0.559100  1.0
  H  H1018  1  0.163100  0.009100  0.940900  1.0
  H  H1019  1  0.926400  0.111000  0.417700  1.0
  H  H1020  1  0.889000  0.073600  0.082300  1.0
  H  H1021  1  0.073600  0.889000  0.582300  1.0
  H  H1022  1  0.111000  0.926400  0.917700  1.0
  H  H1023  1  0.950100  0.223700  0.521800  1.0
  H  H1024  1  0.776300  0.049900  0.978200  1.0
  H  H1025  1  0.049900  0.776300  0.478200  1.0
  H  H1026  1  0.223700  0.950100  0.021800  1.0
  H  H1027  1  0.007700  0.226900  0.495300  1.0
  H  H1028  1  0.773100  0.992300  0.004700  1.0
  H  H1029  1  0.992300  0.773100  0.504700  1.0
  H  H1030  1  0.226900  0.007700  0.995300  1.0
  H  H1031  1  0.241100  0.286100  0.726800  1.0
  H  H1032  1  0.713900  0.758900  0.773200  1.0
  H  H1033  1  0.758900  0.713900  0.273200  1.0
  H  H1034  1  0.286100  0.241100  0.226800  1.0
  H  H1035  1  0.330700  0.333900  0.725100  1.0
  H  H1036  1  0.666100  0.669300  0.774900  1.0
  H  H1037  1  0.669300  0.666100  0.274900  1.0
  H  H1038  1  0.333900  0.330700  0.225100  1.0
  H  H1039  1  0.403300  0.322500  0.679700  1.0
  H  H1040  1  0.677500  0.596700  0.820300  1.0
  H  H1041  1  0.596700  0.677500  0.320300  1.0
  H  H1042  1  0.322500  0.403300  0.179700  1.0
  H  H1043  1  0.386300  0.263300  0.636000  1.0
  H  H1044  1  0.736700  0.613700  0.864000  1.0
  H  H1045  1  0.613700  0.736700  0.364000  1.0
  H  H1046  1  0.263300  0.386300  0.136000  1.0
  H  H1047  1  0.091400  0.146600  0.703900  1.0
  H  H1048  1  0.853400  0.908600  0.796100  1.0
  H  H1049  1  0.908600  0.853400  0.296100  1.0
  H  H1050  1  0.146600  0.091400  0.203900  1.0
  H  H1051  1  0.156600  0.217200  0.728500  1.0
  H  H1052  1  0.782800  0.843400  0.771500  1.0
  H  H1053  1  0.843400  0.782800  0.271500  1.0
  H  H1054  1  0.217200  0.156600  0.228500  1.0
  H  H1055  1  0.103300  0.090300  0.646400  1.0
  H  H1056  1  0.909700  0.896700  0.853600  1.0
  H  H1057  1  0.896700  0.909700  0.353600  1.0
  H  H1058  1  0.090300  0.103300  0.146400  1.0
  H  H1059  1  0.163300  0.099700  0.622400  1.0
  H  H1060  1  0.900300  0.836700  0.877600  1.0
  H  H1061  1  0.836700  0.900300  0.377600  1.0
  H  H1062  1  0.099700  0.163300  0.122400  1.0
  H  H1063  1  0.012800  0.080400  0.507200  1.0
  H  H1064  1  0.919600  0.987200  0.992800  1.0
  H  H1065  1  0.987200  0.919600  0.492800  1.0
  H  H1066  1  0.080400  0.012800  0.007200  1.0
  H  H1067  1  0.066900  0.014900  0.545000  1.0
  H  H1068  1  0.985100  0.933100  0.955000  1.0
  H  H1069  1  0.933100  0.985100  0.455000  1.0
  H  H1070  1  0.014900  0.066900  0.045000  1.0
  H  H1071  1  0.103300  0.052100  0.592100  1.0
  H  H1072  1  0.947900  0.896700  0.907900  1.0
  H  H1073  1  0.896700  0.947900  0.407900  1.0
  H  H1074  1  0.052100  0.103300  0.092100  1.0
  H  H1075  1  0.006400  0.265800  0.550000  1.0
  H  H1076  1  0.734200  0.993600  0.950000  1.0
  H  H1077  1  0.993600  0.734200  0.450000  1.0
  H  H1078  1  0.265800  0.006400  0.050000  1.0
  H  H1079  1  0.042700  0.302900  0.597100  1.0
  H  H1080  1  0.697100  0.957300  0.902900  1.0
  H  H1081  1  0.957300  0.697100  0.402900  1.0
  H  H1082  1  0.302900  0.042700  0.097100  1.0
  H  H1083  1  0.096800  0.237400  0.634900  1.0
  H  H1084  1  0.762600  0.903200  0.865100  1.0
  H  H1085  1  0.903200  0.762600  0.365100  1.0
  H  H1086  1  0.237400  0.096800  0.134900  1.0
  H  H1087  1  0.623700  0.204500  0.590900  1.0
  H  H1088  1  0.795500  0.376300  0.909100  1.0
  H  H1089  1  0.376300  0.795500  0.409100  1.0
  H  H1090  1  0.204500  0.623700  0.090900  1.0
  H  H1091  1  0.612700  0.119100  0.628300  1.0
  H  H1092  1  0.880900  0.387300  0.871700  1.0
  H  H1093  1  0.387300  0.880900  0.371700  1.0
  H  H1094  1  0.119100  0.612700  0.128300  1.0
  H  H1095  1  0.690000  0.041200  0.630300  1.0
  H  H1096  1  0.958800  0.310000  0.869700  1.0
  H  H1097  1  0.310000  0.958800  0.369700  1.0
  H  H1098  1  0.041200  0.690000  0.130300  1.0
  H  H1099  1  0.778300  0.048700  0.594800  1.0
  H  H1100  1  0.951300  0.221700  0.905200  1.0
  H  H1101  1  0.221700  0.951300  0.405200  1.0
  H  H1102  1  0.048700  0.778300  0.094800  1.0
  H  H1103  1  0.706300  0.354700  0.506700  1.0
  H  H1104  1  0.645300  0.293700  0.993300  1.0
  H  H1105  1  0.293700  0.645300  0.493300  1.0
  H  H1106  1  0.354700  0.706300  0.006700  1.0
  H  H1107  1  0.643200  0.290800  0.549100  1.0
  H  H1108  1  0.709200  0.356800  0.950900  1.0
  H  H1109  1  0.356800  0.709200  0.450900  1.0
  H  H1110  1  0.290800  0.643200  0.049100  1.0
  H  H1111  1  0.860700  0.280700  0.496600  1.0
  H  H1112  1  0.719300  0.139300  0.003400  1.0
  H  H1113  1  0.139300  0.719300  0.503400  1.0
  H  H1114  1  0.280700  0.860700  0.996600  1.0
  H  H1115  1  0.823300  0.342500  0.485400  1.0
  H  H1116  1  0.657500  0.176700  0.014600  1.0
  H  H1117  1  0.176700  0.657500  0.514600  1.0
  H  H1118  1  0.342500  0.823300  0.985400  1.0
  H  H1119  1  0.146900  0.283100  0.251200  1.0
  H  H1120  1  0.716900  0.853100  0.248800  1.0
  H  H1121  1  0.853100  0.716900  0.748800  1.0
  H  H1122  1  0.283100  0.146900  0.751200  1.0
  H  H1123  1  0.175400  0.361200  0.211800  1.0
  H  H1124  1  0.638800  0.824600  0.288200  1.0
  H  H1125  1  0.824600  0.638800  0.788200  1.0
  H  H1126  1  0.361200  0.175400  0.711800  1.0
  H  H1127  1  0.104400  0.440000  0.196300  1.0
  H  H1128  1  0.560000  0.895600  0.303700  1.0
  H  H1129  1  0.895600  0.560000  0.803700  1.0
  H  H1130  1  0.440000  0.104400  0.696300  1.0
  H  H1131  1  0.004900  0.440900  0.220100  1.0
  H  H1132  1  0.559100  0.995100  0.279900  1.0
  H  H1133  1  0.995100  0.559100  0.779900  1.0
  H  H1134  1  0.440900  0.004900  0.720100  1.0
  H  H1135  1  0.024900  0.149900  0.329200  1.0
  H  H1136  1  0.850100  0.975100  0.170800  1.0
  H  H1137  1  0.975100  0.850100  0.670800  1.0
  H  H1138  1  0.149900  0.024900  0.829200  1.0
  H  H1139  1  0.103700  0.197100  0.288100  1.0
  H  H1140  1  0.802900  0.896300  0.211900  1.0
  H  H1141  1  0.896300  0.802900  0.711900  1.0
  H  H1142  1  0.197100  0.103700  0.788100  1.0
  H  H1143  1  0.907800  0.183600  0.344700  1.0
  H  H1144  1  0.816400  0.092200  0.155300  1.0
  H  H1145  1  0.092200  0.816400  0.655300  1.0
  H  H1146  1  0.183600  0.907800  0.844700  1.0
  H  H1147  1  0.881900  0.247300  0.328100  1.0
  H  H1148  1  0.752700  0.118100  0.171900  1.0
  H  H1149  1  0.118100  0.752700  0.671900  1.0
  H  H1150  1  0.247300  0.881900  0.828100  1.0
  H  H1151  1  0.732400  0.253000  0.459900  1.0
  H  H1152  1  0.747000  0.267600  0.040100  1.0
  H  H1153  1  0.267600  0.747000  0.540100  1.0
  H  H1154  1  0.253000  0.732400  0.959900  1.0
  H  H1155  1  0.728100  0.214500  0.407300  1.0
  H  H1156  1  0.785500  0.271900  0.092700  1.0
  H  H1157  1  0.271900  0.785500  0.592700  1.0
  H  H1158  1  0.214500  0.728100  0.907300  1.0
  H  H1159  1  0.812300  0.214900  0.368100  1.0
  H  H1160  1  0.785100  0.187700  0.131900  1.0
  H  H1161  1  0.187700  0.785100  0.631900  1.0
  H  H1162  1  0.214900  0.812300  0.868100  1.0
  H  H1163  1  0.923300  0.315100  0.458200  1.0
  H  H1164  1  0.684900  0.076700  0.041800  1.0
  H  H1165  1  0.076700  0.684900  0.541800  1.0
  H  H1166  1  0.315100  0.923300  0.958200  1.0
  H  H1167  1  0.007400  0.315600  0.419000  1.0
  H  H1168  1  0.684400  0.992600  0.081000  1.0
  H  H1169  1  0.992600  0.684400  0.581000  1.0
  H  H1170  1  0.315600  0.007400  0.919000  1.0
  H  H1171  1  0.003100  0.277100  0.366300  1.0
  H  H1172  1  0.722900  0.996900  0.133700  1.0
  H  H1173  1  0.996900  0.722900  0.633700  1.0
  H  H1174  1  0.277100  0.003100  0.866300  1.0
  H  H1175  1  0.787500  0.429100  0.665500  1.0
  H  H1176  1  0.570900  0.212500  0.834500  1.0
  H  H1177  1  0.212500  0.570900  0.334500  1.0
  H  H1178  1  0.429100  0.787500  0.165500  1.0
  H  H1179  1  0.734200  0.364000  0.703600  1.0
  H  H1180  1  0.636000  0.265800  0.796400  1.0
  H  H1181  1  0.265800  0.636000  0.296400  1.0
  H  H1182  1  0.364000  0.734200  0.203600  1.0
  H  H1183  1  0.631400  0.387200  0.717900  1.0
  H  H1184  1  0.612800  0.368600  0.782100  1.0
  H  H1185  1  0.368600  0.612800  0.282100  1.0
  H  H1186  1  0.387200  0.631400  0.217900  1.0
  H  H1187  1  0.581900  0.475500  0.694100  1.0
  H  H1188  1  0.524500  0.418100  0.805900  1.0
  H  H1189  1  0.418100  0.524500  0.305900  1.0
  H  H1190  1  0.475500  0.581900  0.194100  1.0
  H  H1191  1  0.845500  0.606300  0.593000  1.0
  H  H1192  1  0.393700  0.154500  0.907000  1.0
  H  H1193  1  0.154500  0.393700  0.407000  1.0
  H  H1194  1  0.606300  0.845500  0.093000  1.0
  H  H1195  1  0.838500  0.506900  0.628200  1.0
  H  H1196  1  0.493100  0.161500  0.871800  1.0
  H  H1197  1  0.161500  0.493100  0.371800  1.0
  H  H1198  1  0.506900  0.838500  0.128200  1.0
  H  H1199  1  0.765100  0.700700  0.582100  1.0
  H  H1200  1  0.299300  0.234900  0.917900  1.0
  H  H1201  1  0.234900  0.299300  0.417900  1.0
  H  H1202  1  0.700700  0.765100  0.082100  1.0
  H  H1203  1  0.697100  0.694100  0.596900  1.0
  H  H1204  1  0.305900  0.302900  0.903100  1.0
  H  H1205  1  0.302900  0.305900  0.403100  1.0
  H  H1206  1  0.694100  0.697100  0.096900  1.0
  H  H1207  1  0.556400  0.975400  0.371900  1.0
  H  H1208  1  0.024600  0.443600  0.128100  1.0
  H  H1209  1  0.443600  0.024600  0.628100  1.0
  H  H1210  1  0.975400  0.556400  0.871900  1.0
  H  H1211  1  0.611000  0.047400  0.339400  1.0
  H  H1212  1  0.952600  0.389000  0.160600  1.0
  H  H1213  1  0.389000  0.952600  0.660600  1.0
  H  H1214  1  0.047400  0.611000  0.839400  1.0
  H  H1215  1  0.712500  0.023900  0.321800  1.0
  H  H1216  1  0.976100  0.287500  0.178200  1.0
  H  H1217  1  0.287500  0.976100  0.678200  1.0
  H  H1218  1  0.023900  0.712500  0.821800  1.0
  H  H1219  1  0.759300  0.928500  0.336700  1.0
  H  H1220  1  0.071500  0.240700  0.163300  1.0
  H  H1221  1  0.240700  0.071500  0.663300  1.0
  H  H1222  1  0.928500  0.759300  0.836700  1.0
  H  H1223  1  0.499400  0.783800  0.432800  1.0
  H  H1224  1  0.216200  0.500600  0.067200  1.0
  H  H1225  1  0.500600  0.216200  0.567200  1.0
  H  H1226  1  0.783800  0.499400  0.932800  1.0
  H  H1227  1  0.502400  0.884400  0.398400  1.0
  H  H1228  1  0.115600  0.497600  0.101600  1.0
  H  H1229  1  0.497600  0.115600  0.601600  1.0
  H  H1230  1  0.884400  0.502400  0.898400  1.0
  H  H1231  1  0.650600  0.703800  0.430200  1.0
  H  H1232  1  0.296200  0.349400  0.069800  1.0
  H  H1233  1  0.349400  0.296200  0.569800  1.0
  H  H1234  1  0.703800  0.650600  0.930200  1.0
  H  H1235  1  0.585100  0.697300  0.448900  1.0
  H  H1236  1  0.302700  0.414900  0.051100  1.0
  H  H1237  1  0.414900  0.302700  0.551100  1.0
  H  H1238  1  0.697300  0.585100  0.948900  1.0
  H  H1239  1  0.740000  0.571200  0.553700  1.0
  H  H1240  1  0.428800  0.260000  0.946300  1.0
  H  H1241  1  0.260000  0.428800  0.446300  1.0
  H  H1242  1  0.571200  0.740000  0.053700  1.0
  H  H1243  1  0.705800  0.549400  0.502300  1.0
  H  H1244  1  0.450600  0.294200  0.997700  1.0
  H  H1245  1  0.294200  0.450600  0.497700  1.0
  H  H1246  1  0.549400  0.705800  0.002300  1.0
  H  H1247  1  0.660500  0.626700  0.467300  1.0
  H  H1248  1  0.373300  0.339500  0.032700  1.0
  H  H1249  1  0.339500  0.373300  0.532700  1.0
  H  H1250  1  0.626700  0.660500  0.967300  1.0
  H  H1251  1  0.695200  0.775000  0.558800  1.0
  H  H1252  1  0.225000  0.304800  0.941200  1.0
  H  H1253  1  0.304800  0.225000  0.441200  1.0
  H  H1254  1  0.775000  0.695200  0.058800  1.0
  H  H1255  1  0.649800  0.852400  0.523700  1.0
  H  H1256  1  0.147600  0.350200  0.976300  1.0
  H  H1257  1  0.350200  0.147600  0.476300  1.0
  H  H1258  1  0.852400  0.649800  0.023700  1.0
  H  H1259  1  0.615700  0.830500  0.472400  1.0
  H  H1260  1  0.169500  0.384300  0.027600  1.0
  H  H1261  1  0.384300  0.169500  0.527600  1.0
  H  H1262  1  0.830500  0.615700  0.972400  1.0
  H  H1263  1  0.175000  0.206600  0.506900  1.0
  H  H1264  1  0.793400  0.825000  0.993100  1.0
  H  H1265  1  0.825000  0.793400  0.493100  1.0
  H  H1266  1  0.206600  0.175000  0.006900  1.0
  H  H1267  1  0.194200  0.106400  0.493200  1.0
  H  H1268  1  0.893600  0.805800  0.006800  1.0
  H  H1269  1  0.805800  0.893600  0.506800  1.0
  H  H1270  1  0.106400  0.194200  0.993200  1.0
  H  H1271  1  0.245200  0.035800  0.529800  1.0
  H  H1272  1  0.964200  0.754800  0.970200  1.0
  H  H1273  1  0.754800  0.964200  0.470200  1.0
  H  H1274  1  0.035800  0.245200  0.029800  1.0
  H  H1275  1  0.277100  0.065500  0.580000  1.0
  H  H1276  1  0.934500  0.722900  0.920000  1.0
  H  H1277  1  0.722900  0.934500  0.420000  1.0
  H  H1278  1  0.065500  0.277100  0.080000  1.0
  H  H1279  1  0.182800  0.397000  0.554500  1.0
  H  H1280  1  0.603000  0.817200  0.945500  1.0
  H  H1281  1  0.817200  0.603000  0.445500  1.0
  H  H1282  1  0.397000  0.182800  0.054500  1.0
  H  H1283  1  0.163600  0.308200  0.522100  1.0
  H  H1284  1  0.691800  0.836400  0.977900  1.0
  H  H1285  1  0.836400  0.691800  0.477900  1.0
  H  H1286  1  0.308200  0.163600  0.022100  1.0
  H  H1287  1  0.254800  0.406400  0.603200  1.0
  H  H1288  1  0.593600  0.745200  0.896800  1.0
  H  H1289  1  0.745200  0.593600  0.396800  1.0
  H  H1290  1  0.406400  0.254800  0.103200  1.0
  H  H1291  1  0.279600  0.345800  0.623500  1.0
  H  H1292  1  0.654200  0.720400  0.876500  1.0
  H  H1293  1  0.720400  0.654200  0.376500  1.0
  H  H1294  1  0.345800  0.279600  0.123500  1.0
  H  H1295  1  0.176300  0.681900  0.825600  1.0
  H  H1296  1  0.318100  0.823700  0.674400  1.0
  H  H1297  1  0.823700  0.318100  0.174400  1.0
  H  H1298  1  0.681900  0.176300  0.325600  1.0
  H  H1299  1  0.159100  0.787100  0.822800  1.0
  H  H1300  1  0.212900  0.840900  0.677200  1.0
  H  H1301  1  0.840900  0.212900  0.177200  1.0
  H  H1302  1  0.787100  0.159100  0.322800  1.0
  H  H1303  1  0.105800  0.837600  0.779100  1.0
  H  H1304  1  0.162400  0.894200  0.720900  1.0
  H  H1305  1  0.894200  0.162400  0.220900  1.0
  H  H1306  1  0.837600  0.105800  0.279100  1.0
  H  H1307  1  0.070100  0.782900  0.738300  1.0
  H  H1308  1  0.217100  0.929900  0.761700  1.0
  H  H1309  1  0.929900  0.217100  0.261700  1.0
  H  H1310  1  0.782900  0.070100  0.238300  1.0
  H  H1311  1  0.167200  0.468600  0.807100  1.0
  H  H1312  1  0.531400  0.832800  0.692900  1.0
  H  H1313  1  0.832800  0.531400  0.192900  1.0
  H  H1314  1  0.468600  0.167200  0.307100  1.0
  H  H1315  1  0.185000  0.570800  0.826400  1.0
  H  H1316  1  0.429200  0.815000  0.673600  1.0
  H  H1317  1  0.815000  0.429200  0.173600  1.0
  H  H1318  1  0.570800  0.185000  0.326400  1.0
  H  H1319  1  0.072800  0.491400  0.733700  1.0
  H  H1320  1  0.508600  0.927200  0.766300  1.0
  H  H1321  1  0.927200  0.508600  0.266300  1.0
  H  H1322  1  0.491400  0.072800  0.233700  1.0
  H  H1323  1  0.101400  0.437400  0.757700  1.0
  H  H1324  1  0.562600  0.898600  0.742300  1.0
  H  H1325  1  0.898600  0.562600  0.242300  1.0
  H  H1326  1  0.437400  0.101400  0.257700  1.0
  H  H1327  1  0.136000  0.323400  0.624300  1.0
  H  H1328  1  0.676600  0.864000  0.875700  1.0
  H  H1329  1  0.864000  0.676600  0.375700  1.0
  H  H1330  1  0.323400  0.136000  0.124300  1.0
  H  H1331  1  0.057800  0.340400  0.666100  1.0
  H  H1332  1  0.659600  0.942200  0.833900  1.0
  H  H1333  1  0.942200  0.659600  0.333900  1.0
  H  H1334  1  0.340400  0.057800  0.166100  1.0
  H  H1335  1  0.069200  0.404400  0.708500  1.0
  H  H1336  1  0.595600  0.930800  0.791500  1.0
  H  H1337  1  0.930800  0.595600  0.291500  1.0
  H  H1338  1  0.404400  0.069200  0.208500  1.0
  H  H1339  1  0.285800  0.436000  0.650500  1.0
  H  H1340  1  0.564000  0.714200  0.849500  1.0
  H  H1341  1  0.714200  0.564000  0.349500  1.0
  H  H1342  1  0.436000  0.285800  0.150500  1.0
  H  H1343  1  0.297300  0.499900  0.692900  1.0
  H  H1344  1  0.500100  0.702700  0.807100  1.0
  H  H1345  1  0.702700  0.500100  0.307100  1.0
  H  H1346  1  0.499900  0.297300  0.192900  1.0
  H  H1347  1  0.219000  0.517000  0.734700  1.0
  H  H1348  1  0.483000  0.781000  0.765300  1.0
  H  H1349  1  0.781000  0.483000  0.265300  1.0
  H  H1350  1  0.517000  0.219000  0.234700  1.0
  H  H1351  1  0.804200  0.420400  0.381300  1.0
  H  H1352  1  0.579600  0.195800  0.118700  1.0
  H  H1353  1  0.195800  0.579600  0.618700  1.0
  H  H1354  1  0.420400  0.804200  0.881300  1.0
  H  H1355  1  0.718000  0.372200  0.373400  1.0
  H  H1356  1  0.627800  0.282000  0.126600  1.0
  H  H1357  1  0.282000  0.627800  0.626600  1.0
  H  H1358  1  0.372200  0.718000  0.873400  1.0
  H  H1359  1  0.714900  0.317500  0.325900  1.0
  H  H1360  1  0.682500  0.285100  0.174100  1.0
  H  H1361  1  0.285100  0.682500  0.674100  1.0
  H  H1362  1  0.317500  0.714900  0.825900  1.0
  H  H1363  1  0.798200  0.311200  0.286200  1.0
  H  H1364  1  0.688800  0.201800  0.213800  1.0
  H  H1365  1  0.201800  0.688800  0.713800  1.0
  H  H1366  1  0.311200  0.798200  0.786200  1.0
  H  H1367  1  0.995800  0.510000  0.364400  1.0
  H  H1368  1  0.490000  0.004200  0.135600  1.0
  H  H1369  1  0.004200  0.490000  0.635600  1.0
  H  H1370  1  0.510000  0.995800  0.864400  1.0
  H  H1371  1  0.895000  0.470600  0.385100  1.0
  H  H1372  1  0.529400  0.105000  0.114900  1.0
  H  H1373  1  0.105000  0.529400  0.614900  1.0
  H  H1374  1  0.470600  0.895000  0.885100  1.0
  H  H1375  1  0.063600  0.502400  0.307900  1.0
  H  H1376  1  0.497600  0.936400  0.192100  1.0
  H  H1377  1  0.936400  0.497600  0.692100  1.0
  H  H1378  1  0.502400  0.063600  0.807900  1.0
  H  H1379  1  0.043300  0.462500  0.279800  1.0
  H  H1380  1  0.537500  0.956700  0.220200  1.0
  H  H1381  1  0.956700  0.537500  0.720200  1.0
  H  H1382  1  0.462500  0.043300  0.779800  1.0
  H  H1383  1  0.568800  0.374600  0.282100  1.0
  H  H1384  1  0.625400  0.431200  0.217900  1.0
  H  H1385  1  0.431200  0.625400  0.717900  1.0
  H  H1386  1  0.374600  0.568800  0.782100  1.0
  H  H1387  1  0.636800  0.430000  0.305900  1.0
  H  H1388  1  0.570000  0.363200  0.194100  1.0
  H  H1389  1  0.363200  0.570000  0.694100  1.0
  H  H1390  1  0.430000  0.636800  0.805900  1.0
  H  H1391  1  0.604300  0.486500  0.352000  1.0
  H  H1392  1  0.513500  0.395700  0.148000  1.0
  H  H1393  1  0.395700  0.513500  0.648000  1.0
  H  H1394  1  0.486500  0.604300  0.852000  1.0
  H  H1395  1  0.503900  0.487500  0.374400  1.0
  H  H1396  1  0.512500  0.496100  0.125600  1.0
  H  H1397  1  0.496100  0.512500  0.625600  1.0
  H  H1398  1  0.487500  0.503900  0.874400  1.0
  H  H1399  1  0.394900  0.266100  0.265400  1.0
  H  H1400  1  0.733900  0.605100  0.234600  1.0
  H  H1401  1  0.605100  0.733900  0.734600  1.0
  H  H1402  1  0.266100  0.394900  0.765400  1.0
  H  H1403  1  0.496200  0.310000  0.264800  1.0
  H  H1404  1  0.690000  0.503800  0.235200  1.0
  H  H1405  1  0.503800  0.690000  0.735200  1.0
  H  H1406  1  0.310000  0.496200  0.764800  1.0
  H  H1407  1  0.299700  0.313900  0.338200  1.0
  H  H1408  1  0.686100  0.700300  0.161800  1.0
  H  H1409  1  0.700300  0.686100  0.661800  1.0
  H  H1410  1  0.313900  0.299700  0.838200  1.0
  H  H1411  1  0.295400  0.278200  0.305500  1.0
  H  H1412  1  0.721800  0.704600  0.194500  1.0
  H  H1413  1  0.704600  0.721800  0.694500  1.0
  H  H1414  1  0.278200  0.295400  0.805500  1.0
  H  H1415  1  0.037100  0.364900  0.345300  1.0
  H  H1416  1  0.635100  0.962900  0.154700  1.0
  H  H1417  1  0.962900  0.635100  0.654700  1.0
  H  H1418  1  0.364900  0.037100  0.845300  1.0
  H  H1419  1  0.107500  0.286500  0.362400  1.0
  H  H1420  1  0.713500  0.892500  0.137600  1.0
  H  H1421  1  0.892500  0.713500  0.637600  1.0
  H  H1422  1  0.286500  0.107500  0.862400  1.0
  H  H1423  1  0.208600  0.287400  0.341700  1.0
  H  H1424  1  0.712600  0.791400  0.158300  1.0
  H  H1425  1  0.791400  0.712600  0.658300  1.0
  H  H1426  1  0.287400  0.208600  0.841700  1.0
  H  H1427  1  0.146400  0.491600  0.272700  1.0
  H  H1428  1  0.508400  0.853600  0.227300  1.0
  H  H1429  1  0.853600  0.508400  0.727300  1.0
  H  H1430  1  0.491600  0.146400  0.772700  1.0
  H  H1431  1  0.247600  0.492400  0.251900  1.0
  H  H1432  1  0.507600  0.752400  0.248100  1.0
  H  H1433  1  0.752400  0.507600  0.748100  1.0
  H  H1434  1  0.492400  0.247600  0.751900  1.0
  H  H1435  1  0.317900  0.414100  0.269000  1.0
  H  H1436  1  0.585900  0.682100  0.231000  1.0
  H  H1437  1  0.682100  0.585900  0.731000  1.0
  H  H1438  1  0.414100  0.317900  0.769000  1.0
  H  H1439  1  0.062000  0.392000  0.573000  1.0
  H  H1440  1  0.608000  0.938000  0.927000  1.0
  H  H1441  1  0.938000  0.608000  0.427000  1.0
  H  H1442  1  0.392000  0.062000  0.073000  1.0
  H  H1443  1  0.054000  0.456800  0.552900  1.0
  H  H1444  1  0.543200  0.946000  0.947100  1.0
  H  H1445  1  0.946000  0.543200  0.447100  1.0
  H  H1446  1  0.456800  0.054000  0.052900  1.0
  H  H1447  1  0.028200  0.448000  0.591500  1.0
  H  H1448  1  0.552000  0.971800  0.908500  1.0
  H  H1449  1  0.971800  0.552000  0.408500  1.0
  H  H1450  1  0.448000  0.028200  0.091500  1.0
  H  H1451  1  0.955400  0.383800  0.574700  1.0
  H  H1452  1  0.616200  0.044600  0.925300  1.0
  H  H1453  1  0.044600  0.616200  0.425300  1.0
  H  H1454  1  0.383800  0.955400  0.074700  1.0
  H  H1455  1  0.901600  0.471800  0.548200  1.0
  H  H1456  1  0.528200  0.098400  0.951800  1.0
  H  H1457  1  0.098400  0.528200  0.451800  1.0
  H  H1458  1  0.471800  0.901600  0.048200  1.0
  H  H1459  1  0.937900  0.493300  0.577500  1.0
  H  H1460  1  0.506700  0.062100  0.922500  1.0
  H  H1461  1  0.062100  0.506700  0.422500  1.0
  H  H1462  1  0.493300  0.937900  0.077500  1.0
  H  H1463  1  0.963800  0.502200  0.538900  1.0
  H  H1464  1  0.497800  0.036200  0.961100  1.0
  H  H1465  1  0.036200  0.497800  0.461100  1.0
  H  H1466  1  0.502200  0.963800  0.038900  1.0
  H  H1467  1  0.101200  0.415200  0.463900  1.0
  H  H1468  1  0.584800  0.898800  0.036100  1.0
  H  H1469  1  0.898800  0.584800  0.536100  1.0
  H  H1470  1  0.415200  0.101200  0.963900  1.0
  H  H1471  1  0.105400  0.388000  0.502200  1.0
  H  H1472  1  0.612000  0.894600  0.997800  1.0
  H  H1473  1  0.894600  0.612000  0.497800  1.0
  H  H1474  1  0.388000  0.105400  0.002200  1.0
  H  H1475  1  0.074600  0.352000  0.475900  1.0
  H  H1476  1  0.648000  0.925400  0.024100  1.0
  H  H1477  1  0.925400  0.648000  0.524100  1.0
  H  H1478  1  0.352000  0.074600  0.975900  1.0
  H  H1479  1  0.029000  0.464000  0.501000  1.0
  H  H1480  1  0.536000  0.971000  0.999000  1.0
  H  H1481  1  0.971000  0.536000  0.499000  1.0
  H  H1482  1  0.464000  0.029000  0.001000  1.0
  H  H1483  1  0.016400  0.462400  0.444700  1.0
  H  H1484  1  0.537600  0.983600  0.055300  1.0
  H  H1485  1  0.983600  0.537600  0.555300  1.0
  H  H1486  1  0.462400  0.016400  0.944700  1.0
  H  H1487  1  0.975000  0.407200  0.452800  1.0
  H  H1488  1  0.592800  0.025000  0.047200  1.0
  H  H1489  1  0.025000  0.592800  0.547200  1.0
  H  H1490  1  0.407200  0.975000  0.952800  1.0
  H  H1491  1  0.953500  0.471500  0.466800  1.0
  H  H1492  1  0.528500  0.046500  0.033200  1.0
  H  H1493  1  0.046500  0.528500  0.533200  1.0
  H  H1494  1  0.471500  0.953500  0.966800  1.0
  N  N1495  1  0.873440  0.058920  0.551330  1.0
  N  N1496  1  0.941080  0.126560  0.948670  1.0
  N  N1497  1  0.126560  0.941080  0.448670  1.0
  N  N1498  1  0.058920  0.873440  0.051330  1.0
  N  N1499  1  0.880430  0.164910  0.576720  1.0
  N  N1500  1  0.835090  0.119570  0.923280  1.0
  N  N1501  1  0.119570  0.835090  0.423280  1.0
  N  N1502  1  0.164910  0.880430  0.076720  1.0
  N  N1503  1  0.889630  0.214610  0.595320  1.0
  N  N1504  1  0.785390  0.110370  0.904680  1.0
  N  N1505  1  0.110370  0.785390  0.404680  1.0
  N  N1506  1  0.214610  0.889630  0.095320  1.0
  N  N1507  1  0.582330  0.655830  0.606940  1.0
  N  N1508  1  0.344170  0.417670  0.893060  1.0
  N  N1509  1  0.417670  0.344170  0.393060  1.0
  N  N1510  1  0.655830  0.582330  0.106940  1.0
  N  N1511  1  0.596800  0.539480  0.594440  1.0
  N  N1512  1  0.460520  0.403200  0.905560  1.0
  N  N1513  1  0.403200  0.460520  0.405560  1.0
  N  N1514  1  0.539480  0.596800  0.094440  1.0
  N  N1515  1  0.593450  0.480910  0.583500  1.0
  N  N1516  1  0.519090  0.406550  0.916500  1.0
  N  N1517  1  0.406550  0.519090  0.416500  1.0
  N  N1518  1  0.480910  0.593450  0.083500  1.0
  N  N1519  1  0.784240  0.111080  0.495240  1.0
  N  N1520  1  0.888920  0.215760  0.004760  1.0
  N  N1521  1  0.215760  0.888920  0.504760  1.0
  N  N1522  1  0.111080  0.784240  0.995240  1.0
  N  N1523  1  0.891850  0.152250  0.492860  1.0
  N  N1524  1  0.847750  0.108150  0.007140  1.0
  N  N1525  1  0.108150  0.847750  0.507140  1.0
  N  N1526  1  0.152250  0.891850  0.992860  1.0
  N  N1527  1  0.950780  0.171540  0.485400  1.0
  N  N1528  1  0.828460  0.049220  0.014600  1.0
  N  N1529  1  0.049220  0.828460  0.514600  1.0
  N  N1530  1  0.171540  0.950780  0.985400  1.0
  N  N1531  1  0.303590  0.239510  0.655510  1.0
  N  N1532  1  0.760490  0.696410  0.844490  1.0
  N  N1533  1  0.696410  0.760490  0.344490  1.0
  N  N1534  1  0.239510  0.303590  0.155510  1.0
  N  N1535  1  0.203890  0.184070  0.653270  1.0
  N  N1536  1  0.815930  0.796110  0.846730  1.0
  N  N1537  1  0.796110  0.815930  0.346730  1.0
  N  N1538  1  0.184070  0.203890  0.153270  1.0
  N  N1539  1  0.151780  0.151500  0.659930  1.0
  N  N1540  1  0.848500  0.848220  0.840070  1.0
  N  N1541  1  0.848220  0.848500  0.340070  1.0
  N  N1542  1  0.151500  0.151780  0.159930  1.0
  N  N1543  1  0.753510  0.131090  0.571760  1.0
  N  N1544  1  0.868910  0.246490  0.928240  1.0
  N  N1545  1  0.246490  0.868910  0.428240  1.0
  N  N1546  1  0.131090  0.753510  0.071760  1.0
  N  N1547  1  0.775210  0.227350  0.529980  1.0
  N  N1548  1  0.772650  0.224790  0.970020  1.0
  N  N1549  1  0.224790  0.772650  0.470020  1.0
  N  N1550  1  0.227350  0.775210  0.029980  1.0
  N  N1551  1  0.775390  0.283270  0.510190  1.0
  N  N1552  1  0.716730  0.224610  0.989810  1.0
  N  N1553  1  0.224610  0.716730  0.489810  1.0
  N  N1554  1  0.283270  0.775390  0.010190  1.0
  N  N1555  1  0.016810  0.362470  0.249800  1.0
  N  N1556  1  0.637530  0.983190  0.250200  1.0
  N  N1557  1  0.983190  0.637530  0.750200  1.0
  N  N1558  1  0.362470  0.016810  0.749800  1.0
  N  N1559  1  0.980740  0.282580  0.298200  1.0
  N  N1560  1  0.717420  0.019260  0.201800  1.0
  N  N1561  1  0.019260  0.717420  0.701800  1.0
  N  N1562  1  0.282580  0.980740  0.798200  1.0
  N  N1563  1  0.968720  0.230420  0.319750  1.0
  N  N1564  1  0.769580  0.031280  0.180250  1.0
  N  N1565  1  0.031280  0.769580  0.680250  1.0
  N  N1566  1  0.230420  0.968720  0.819750  1.0
  N  N1567  1  0.655290  0.504690  0.665670  1.0
  N  N1568  1  0.495310  0.344710  0.834330  1.0
  N  N1569  1  0.344710  0.495310  0.334330  1.0
  N  N1570  1  0.504690  0.655290  0.165670  1.0
  N  N1571  1  0.710660  0.584780  0.623700  1.0
  N  N1572  1  0.415220  0.289340  0.876300  1.0
  N  N1573  1  0.289340  0.415220  0.376300  1.0
  N  N1574  1  0.584780  0.710660  0.123700  1.0
  N  N1575  1  0.750960  0.621860  0.604020  1.0
  N  N1576  1  0.378140  0.249040  0.895980  1.0
  N  N1577  1  0.249040  0.378140  0.395980  1.0
  N  N1578  1  0.621860  0.750960  0.104020  1.0
  N  N1579  1  0.685650  0.895270  0.363090  1.0
  N  N1580  1  0.104730  0.314350  0.136910  1.0
  N  N1581  1  0.314350  0.104730  0.636910  1.0
  N  N1582  1  0.895270  0.685650  0.863090  1.0
  N  N1583  1  0.633630  0.814890  0.405730  1.0
  N  N1584  1  0.185110  0.366370  0.094270  1.0
  N  N1585  1  0.366370  0.185110  0.594270  1.0
  N  N1586  1  0.814890  0.633630  0.905730  1.0
  N  N1587  1  0.594770  0.774710  0.424110  1.0
  N  N1588  1  0.225290  0.405230  0.075890  1.0
  N  N1589  1  0.405230  0.225290  0.575890  1.0
  N  N1590  1  0.774710  0.594770  0.924110  1.0
  N  N1591  1  0.245010  0.153750  0.573300  1.0
  N  N1592  1  0.846250  0.754990  0.926700  1.0
  N  N1593  1  0.754990  0.846250  0.426700  1.0
  N  N1594  1  0.153750  0.245010  0.073300  1.0
  N  N1595  1  0.236850  0.269670  0.587810  1.0
  N  N1596  1  0.730330  0.763150  0.912190  1.0
  N  N1597  1  0.763150  0.730330  0.412190  1.0
  N  N1598  1  0.269670  0.236850  0.087810  1.0
  N  N1599  1  0.227560  0.333380  0.588480  1.0
  N  N1600  1  0.666620  0.772440  0.911520  1.0
  N  N1601  1  0.772440  0.666620  0.411520  1.0
  N  N1602  1  0.333380  0.227560  0.088480  1.0
  N  N1603  1  0.101930  0.699850  0.757670  1.0
  N  N1604  1  0.300150  0.898070  0.742330  1.0
  N  N1605  1  0.898070  0.300150  0.242330  1.0
  N  N1606  1  0.699850  0.101930  0.257670  1.0
  N  N1607  1  0.112560  0.579820  0.759310  1.0
  N  N1608  1  0.420180  0.887440  0.740690  1.0
  N  N1609  1  0.887440  0.420180  0.240690  1.0
  N  N1610  1  0.579820  0.112560  0.259310  1.0
  N  N1611  1  0.122430  0.516550  0.766820  1.0
  N  N1612  1  0.483450  0.877570  0.733180  1.0
  N  N1613  1  0.877570  0.483450  0.233180  1.0
  N  N1614  1  0.516550  0.122430  0.266820  1.0
  N  N1615  1  0.850630  0.362010  0.310140  1.0
  N  N1616  1  0.637990  0.149370  0.189860  1.0
  N  N1617  1  0.149370  0.637990  0.689860  1.0
  N  N1618  1  0.362010  0.850630  0.810140  1.0
  N  N1619  1  0.948800  0.421840  0.314050  1.0
  N  N1620  1  0.578160  0.051200  0.185950  1.0
  N  N1621  1  0.051200  0.578160  0.685950  1.0
  N  N1622  1  0.421840  0.948800  0.814050  1.0
  N  N1623  1  0.993520  0.459020  0.321850  1.0
  N  N1624  1  0.540980  0.006480  0.178150  1.0
  N  N1625  1  0.006480  0.540980  0.678150  1.0
  N  N1626  1  0.459020  0.993520  0.821850  1.0
  N  N1627  1  0.476680  0.431640  0.341530  1.0
  N  N1628  1  0.568360  0.523320  0.158470  1.0
  N  N1629  1  0.523320  0.568360  0.658470  1.0
  N  N1630  1  0.431640  0.476680  0.841530  1.0
  N  N1631  1  0.396230  0.367430  0.318350  1.0
  N  N1632  1  0.632570  0.603770  0.181650  1.0
  N  N1633  1  0.603770  0.632570  0.681650  1.0
  N  N1634  1  0.367430  0.396230  0.818350  1.0
  N  N1635  1  0.364310  0.325150  0.303610  1.0
  N  N1636  1  0.674850  0.635690  0.196390  1.0
  N  N1637  1  0.635690  0.674850  0.696390  1.0
  N  N1638  1  0.325150  0.364310  0.803610  1.0
  O  O1639  1  0.945200  0.357200  0.519500  1
  O  O1640  1  0.642800  0.054800  0.980500  1
  O  O1641  1  0.054800  0.642800  0.480500  1
  O  O1642  1  0.357200  0.945200  0.019500  1
  O  O1643  1  0.960300  0.349300  0.512700  1.0
  O  O1644  1  0.650700  0.039700  0.987300  1.0
  O  O1645  1  0.039700  0.650700  0.487300  1.0
  O  O1646  1  0.349300  0.960300  0.012700  1.0
