
#######################################################################
#
#                 Cambridge Crystallographic Data Centre
#                                CCDC 
#
#######################################################################
#
# If this CIF has been generated from an entry in the Cambridge 
# Structural Database, then it will include bibliographic, chemical, 
# crystal, experimental, refinement or atomic coordinate data resulting 
# from the CCDC's data processing and validation procedures.
#
#######################################################################

data_TASGEC
_chemical_formula_moiety         
'C336 H264 Co8 N72 16+,C7 H14 O1,16(B1 F4 1-),C1 H4 O1'
_chemical_name_systematic        
"dodecakis(\m-2,2'-[naphthalene-1,5-diylbis(methylene-1H-pyrazole-1,3-diyl)]dipyridine)-octa-cobalt hexadecakis(tetrafluoroborate) heptan-4-one methanol unknown solvate"
_symmetry_cell_setting           monoclinic
_symmetry_space_group_name_H-M   'C 2/c'
_symmetry_Int_Tables_number      15
_space_group_name_Hall           '-C 2yn'
loop_
_symmetry_equiv_pos_site_id
_symmetry_equiv_pos_as_xyz
1 x,y,z
2 -x,y,1/2-z
3 1/2+x,1/2+y,z
4 1/2-x,1/2+y,1/2-z
5 -x,-y,-z
6 x,-y,1/2+z
7 1/2-x,1/2-y,-z
8 1/2+x,1/2-y,1/2+z
_cell_length_a                   32.9184(17)
_cell_length_b                   29.9311(13)
_cell_length_c                   39.817(2)
_cell_angle_alpha                90
_cell_angle_beta                 96.111(3)
_cell_angle_gamma                90
_cell_volume                     39008.1
_exptl_crystal_colour            orange
_exptl_crystal_description       BLOCK
_cell_formula_units_Z            4
_chemical_properties_physical    ', Efflorescent'
_exptl_crystal_recrystallization_method methanol
loop_
_atom_site_label
_atom_site_type_symbol
_atom_site_fract_x
_atom_site_fract_y
_atom_site_fract_z
Co1 Co 0.51325(3) 0.34052(3) 0.53748(2)
Co2 Co 0.35647(3) 0.27927(3) 0.27757(2)
Co3 Co 0.09995(3) 0.48030(3) 0.36466(3)
Co4 Co 0.26763(3) 0.54862(3) 0.61448(3)
N1 N 0.55686(12) 0.30990(13) 0.57453(11)
C1 C 0.55717(13) 0.26350(13) 0.57308(12)
C2 C 0.58546(16) 0.23943(12) 0.59429(15)
H1 H 0.5857 0.2077 0.5933
C3 C 0.61344(15) 0.26176(18) 0.61695(15)
H2 H 0.6328 0.2453 0.6314
C4 C 0.61313(16) 0.30815(18) 0.61840(14)
H3 H 0.6323 0.3234 0.6339
C5 C 0.58484(16) 0.33222(12) 0.59719(14)
H4 H 0.5846 0.3639 0.5982
N2 N 0.49875(12) 0.27145(9) 0.53247(11)
N3 N 0.47154(11) 0.24344(12) 0.51196(10)
C6 C 0.48387(14) 0.19846(10) 0.51812(12)
H5 H 0.4711 0.1727 0.5078
C7 C 0.51870(14) 0.19867(11) 0.54244(13)
H6 H 0.5333 0.1731 0.5512
C8 C 0.52790(12) 0.24377(14) 0.55131(11)
C9 C 0.4411(2) 0.2594(2) 0.48909(17)
H7 H 0.4310 0.2878 0.4978
H8 H 0.4182 0.2379 0.4874
N4 N 0.31260(11) 0.32151(12) 0.24930(10)
C10 C 0.31380(12) 0.36610(13) 0.25913(11)
C11 C 0.28440(14) 0.39576(11) 0.24481(13)
H9 H 0.2852 0.4262 0.2515
C12 C 0.25381(12) 0.38084(15) 0.22066(13)
H10 H 0.2337 0.4011 0.2109
C13 C 0.25261(12) 0.33625(16) 0.21084(11)
H11 H 0.2317 0.3261 0.1943
C14 C 0.28200(13) 0.30659(12) 0.22515(11)
H12 H 0.2812 0.2761 0.2184
N5 N 0.36955(12) 0.34384(10) 0.29896(11)
N6 N 0.40099(11) 0.36462(13) 0.32071(11)
C15 C 0.39556(14) 0.41160(12) 0.31795(13)
H13 H 0.4123 0.4336 0.3297
C16 C 0.36077(15) 0.41985(11) 0.29451(14)
H14 H 0.3501 0.4484 0.2878
C17 C 0.34469(12) 0.37797(15) 0.28277(11)
C18 C 0.4296(2) 0.3403(2) 0.34132(18)
H15 H 0.4550 0.3582 0.3453
H16 H 0.4363 0.3128 0.3292
C19 C 0.45328(9) 0.26754(11) 0.45373(7)
C20 C 0.49113(9) 0.25281(12) 0.44576(9)
H17 H 0.5083 0.2359 0.4617
C21 C 0.50388(8) 0.26281(13) 0.41444(10)
H18 H 0.5297 0.2527 0.4090
C22 C 0.47877(8) 0.28754(13) 0.39109(8)
H19 H 0.4875 0.2944 0.3697
C23 C 0.44091(7) 0.30227(9) 0.39906(6)
C24 C 0.42817(7) 0.29227(8) 0.43038(6)
C25 C 0.39031(8) 0.30700(12) 0.43835(8)
H20 H 0.3816 0.3002 0.4598
C26 C 0.36520(8) 0.33173(12) 0.41500(10)
H21 H 0.3393 0.3418 0.4204
C27 C 0.37794(9) 0.34174(12) 0.38368(9)
H22 H 0.3608 0.3586 0.3677
C28 C 0.41580(9) 0.32701(12) 0.37571(7)
N7 N 0.39509(11) 0.23854(13) 0.31137(9)
C29 C 0.37739(10) 0.22358(15) 0.33948(11)
C30 C 0.39991(14) 0.19754(15) 0.36366(9)
H23 H 0.3878 0.1873 0.3829
C31 C 0.44013(13) 0.18645(15) 0.35971(11)
H24 H 0.4555 0.1686 0.3762
C32 C 0.45783(10) 0.20141(17) 0.33160(13)
H25 H 0.4853 0.1938 0.3289
C33 C 0.43531(12) 0.22745(15) 0.30742(10)
H26 H 0.4474 0.2377 0.2882
N8 N 0.31599(11) 0.25814(13) 0.31449(9)
N9 N 0.27461(10) 0.26137(15) 0.32126(11)
C34 C 0.27069(12) 0.23879(18) 0.35212(12)
H27 H 0.2463 0.2357 0.3627
C35 C 0.30966(14) 0.22160(17) 0.36441(10)
H28 H 0.3159 0.2050 0.3846
C36 C 0.33766(10) 0.23356(16) 0.34116(12)
C37 C 0.2457(2) 0.2879(2) 0.3038(2)
H29 H 0.2184 0.2755 0.3065
H30 H 0.2495 0.2863 0.2795
N10 N 0.04693(12) 0.51979(16) 0.34431(13)
C38 C 0.05409(12) 0.54662(18) 0.31706(13)
C39 C 0.02455(16) 0.5769(2) 0.30395(14)
H31 H 0.0294 0.5952 0.2853
C40 C -0.01215(14) 0.5804(2) 0.31809(17)
H32 H -0.0323 0.6011 0.3091
C41 C -0.01931(13) 0.5535(2) 0.34534(16)
H33 H -0.0444 0.5559 0.3550
C42 C 0.01023(14) 0.52325(19) 0.35845(13)
H34 H 0.0053 0.5049 0.3771
N11 N 0.11937(12) 0.51162(14) 0.32091(11)
N12 N 0.15612(10) 0.51598(14) 0.30547(12)
C43 C 0.14999(13) 0.54943(15) 0.28015(12)
H35 H 0.1696 0.5592 0.2659
C44 C 0.10946(14) 0.56575(15) 0.27994(13)
H36 H 0.0972 0.5883 0.2655
C45 C 0.09054(10) 0.54238(16) 0.30513(14)
C46 C 0.1900(2) 0.4901(2) 0.3144(2)
H37 H 0.1946 0.4890 0.3394
H38 H 0.2139 0.5051 0.3064
C47 C 0.24634(9) 0.33755(9) 0.31455(9)
C48 C 0.27887(9) 0.35160(12) 0.33722(10)
H39 H 0.2995 0.3310 0.3454
C49 C 0.28122(9) 0.39585(13) 0.34785(9)
H40 H 0.3034 0.4054 0.3633
C50 C 0.25104(9) 0.42604(10) 0.33581(9)
H41 H 0.2526 0.4563 0.3431
C51 C 0.21852(7) 0.41200(8) 0.31314(7)
C52 C 0.21617(7) 0.36775(8) 0.30251(7)
C53 C 0.18364(9) 0.35370(10) 0.27984(9)
H42 H 0.1820 0.3235 0.2726
C54 C 0.15347(9) 0.38390(12) 0.26780(9)
H43 H 0.1312 0.3743 0.2523
C55 C 0.15581(9) 0.42814(11) 0.27843(9)
H44 H 0.1352 0.4488 0.2702
C56 C 0.18834(9) 0.44219(8) 0.30110(9)
N13 N 0.08180(13) 0.42124(11) 0.33769(11)
C57 C 0.10649(12) 0.38427(14) 0.34575(11)
C58 C 0.09662(15) 0.34323(12) 0.33071(13)
H45 H 0.1135 0.3180 0.3362
C59 C 0.06206(17) 0.33915(14) 0.30761(13)
H46 H 0.0553 0.3111 0.2973
C60 C 0.03737(14) 0.37611(18) 0.29956(12)
H47 H 0.0138 0.3733 0.2838
C61 C 0.04724(13) 0.41716(15) 0.31459(13)
H48 H 0.0304 0.4424 0.3091
N14 N 0.14946(11) 0.43525(11) 0.37912(12)
N15 N 0.18775(12) 0.43394(12) 0.39922(12)
C62 C 0.20258(12) 0.38940(14) 0.39911(13)
H49 H 0.2276 0.3790 0.4105
C63 C 0.17346(15) 0.36318(10) 0.37894(15)
H50 H 0.1756 0.3321 0.3745
C64 C 0.14063(12) 0.39152(14) 0.36658(13)
C65 C 0.2046(2) 0.4696(2) 0.4180(2)
H51 H 0.1982 0.4974 0.4050
H52 H 0.2347 0.4661 0.4206
N16 N 0.29358(14) 0.61082(12) 0.63569(12)
C66 C 0.27207(13) 0.64910(16) 0.62496(13)
C67 C 0.28799(17) 0.69101(13) 0.63378(15)
H53 H 0.2733 0.7172 0.6264
C68 C 0.32542(18) 0.69464(13) 0.65335(15)
H54 H 0.3363 0.7233 0.6594
C69 C 0.34692(13) 0.65636(17) 0.66408(14)
H55 H 0.3725 0.6588 0.6775
C70 C 0.33101(14) 0.61446(14) 0.65526(13)
H56 H 0.3457 0.5883 0.6626
N17 N 0.22708(14) 0.59859(14) 0.59305(13)
N18 N 0.18805(15) 0.59987(16) 0.57407(14)
C71 C 0.17280(16) 0.64414(19) 0.57538(17)
H57 H 0.1473 0.6545 0.5649
C72 C 0.2024(2) 0.67023(13) 0.59516(18)
H58 H 0.2002 0.7011 0.6002
C73 C 0.23595(16) 0.64208(17) 0.60608(15)
C74 C 0.1733(2) 0.5640(3) 0.5548(2)
H59 H 0.1435 0.5681 0.5491
H60 H 0.1772 0.5366 0.5687
C75 C 0.19037(12) 0.47536(11) 0.45310(8)
C76 C 0.16348(12) 0.44370(10) 0.46352(10)
H61 H 0.1569 0.4179 0.4501
C77 C 0.14626(11) 0.44971(11) 0.49359(11)
H62 H 0.1279 0.4281 0.5007
C78 C 0.15592(11) 0.48739(12) 0.51324(9)
H63 H 0.1441 0.4915 0.5338
C79 C 0.18281(8) 0.51905(9) 0.50282(7)
C80 C 0.20003(8) 0.51304(9) 0.47275(7)
C81 C 0.22692(11) 0.54470(11) 0.46233(9)
H64 H 0.2387 0.5406 0.4418
C82 C 0.23659(12) 0.58238(11) 0.48198(11)
H65 H 0.2550 0.6040 0.4749
C83 C 0.21936(13) 0.58839(10) 0.51205(10)
H66 H 0.2260 0.6141 0.5255
C84 C 0.19247(12) 0.55673(11) 0.52247(8)
N19 N 0.23005(12) 0.53852(15) 0.65459(10)
C85 C 0.24789(10) 0.51325(16) 0.68151(12)
C86 C 0.22501(14) 0.50073(16) 0.70736(10)
H67 H 0.2372 0.4835 0.7258
C87 C 0.18429(14) 0.51348(17) 0.70628(11)
H68 H 0.1686 0.5049 0.7240
C88 C 0.16645(10) 0.53875(18) 0.67936(13)
H69 H 0.1386 0.5475 0.6786
C89 C 0.18933(13) 0.55128(16) 0.65352(10)
H70 H 0.1771 0.5685 0.6351
N20 N 0.30710(13) 0.51455(16) 0.65160(10)
N21 N 0.34943(12) 0.50474(18) 0.65791(12)
C90 C 0.35679(13) 0.4870(2) 0.69108(13)
H71 H 0.3825 0.4776 0.7019
C91 C 0.31902(17) 0.4859(2) 0.70527(10)
H72 H 0.3150 0.4756 0.7272
C92 C 0.28831(11) 0.50291(18) 0.68087(12)
C93 C 0.3753(2) 0.5078(3) 0.6331(2)
H73 H 0.4037 0.5103 0.6440
H74 H 0.3690 0.5356 0.6202
N22 N 0.55370(12) 0.33332(14) 0.49750(9)
C94 C 0.53924(10) 0.35274(13) 0.46683(11)
C95 C 0.56082(14) 0.34762(16) 0.43891(9)
H75 H 0.5509 0.3609 0.4180
C96 C 0.59687(14) 0.32308(17) 0.44166(11)
H76 H 0.6116 0.3196 0.4226
C97 C 0.61134(11) 0.30366(16) 0.47233(13)
H77 H 0.6360 0.2869 0.4742
C98 C 0.58975(13) 0.30878(15) 0.50025(10)
H78 H 0.5996 0.2955 0.5212
N23 N 0.47947(11) 0.36736(13) 0.49360(9)
N24 N 0.44066(10) 0.38760(13) 0.48544(10)
C99 C 0.43921(12) 0.40489(15) 0.45212(11)
H79 H 0.4168 0.4202 0.4402
C100 C 0.47712(14) 0.39533(17) 0.43969(9)
H80 H 0.4845 0.4031 0.4180
C101 C 0.50200(10) 0.37214(15) 0.46532(11)
C102 C 0.4115(2) 0.3888(2) 0.50808(18)
H81 H 0.4143 0.3617 0.5224
H82 H 0.3840 0.3881 0.4953
C103 C 0.37321(11) 0.46855(12) 0.60838(8)
C104 C 0.34753(11) 0.43315(14) 0.61416(9)
H83 H 0.3322 0.4338 0.6331
C105 C 0.34426(11) 0.39684(12) 0.59227(10)
H84 H 0.3267 0.3726 0.5962
C106 C 0.36667(11) 0.39594(9) 0.56460(10)
H85 H 0.3644 0.3711 0.5496
C107 C 0.39235(8) 0.43133(8) 0.55882(7)
C108 C 0.39563(8) 0.46764(8) 0.58070(7)
C109 C 0.42131(11) 0.50304(9) 0.57492(9)
H86 H 0.4235 0.5279 0.5899
C110 C 0.44373(10) 0.50214(10) 0.54725(10)
H87 H 0.4613 0.5263 0.5433
C111 C 0.44045(10) 0.46583(12) 0.52536(8)
H88 H 0.4558 0.4652 0.5065
C112 C 0.41477(10) 0.43043(10) 0.53115(8)
N25 N 0.40339(12) 0.29325(15) 0.24333(10)
C113 C 0.40443(14) 0.26283(13) 0.21706(12)
C114 C 0.43097(16) 0.26953(17) 0.19261(11)
H89 H 0.4317 0.2487 0.1747
C115 C 0.45647(15) 0.3067(2) 0.19444(12)
H90 H 0.4746 0.3112 0.1777
C116 C 0.45543(14) 0.33708(16) 0.22070(13)
H91 H 0.4729 0.3625 0.2219
C117 C 0.42889(14) 0.33038(15) 0.24515(11)
H92 H 0.4282 0.3512 0.2631
N26 N 0.34926(14) 0.22668(14) 0.24176(10)
N27 N 0.32265(13) 0.18991(15) 0.23401(12)
C118 C 0.33367(17) 0.16951(15) 0.20408(13)
H93 H 0.3209 0.1441 0.1932
C119 C 0.36709(17) 0.19367(19) 0.19334(11)
H94 H 0.3806 0.1873 0.1740
C120 C 0.37672(14) 0.22901(16) 0.21663(13)
C121 C 0.2955(2) 0.1760(3) 0.2557(2)
H95 H 0.2727 0.1601 0.2426
H96 H 0.2840 0.2025 0.2661
N28 N 0.19811(13) -0.05055(15) 0.42836(9)
C122 C 0.20389(13) -0.01373(13) 0.44961(11)
C123 C 0.18530(15) -0.01222(15) 0.47934(11)
H97 H 0.1892 0.0129 0.4939
C124 C 0.16095(16) -0.04754(19) 0.48783(11)
H98 H 0.1482 -0.0465 0.5082
C125 C 0.15517(16) -0.08436(16) 0.46658(13)
H99 H 0.1385 -0.1085 0.4724
C126 C 0.17376(16) -0.08586(14) 0.43685(12)
H100 H 0.1698 -0.1110 0.4223
N29 N 0.25306(13) 0.01080(13) 0.41389(11)
N30 N 0.28057(13) 0.04724(15) 0.41316(11)
C127 C 0.27512(16) 0.07558(14) 0.44092(13)
H101 H 0.2896 0.1025 0.4465
C128 C 0.24423(16) 0.05666(17) 0.45882(11)
H102 H 0.2344 0.0687 0.4785
C129 C 0.23060(13) 0.01662(15) 0.44211(12)
C130 C 0.3053(2) 0.0546(3) 0.3878(2)
H103 H 0.3121 0.0254 0.3781
H104 H 0.3312 0.0682 0.3979
C131 C 0.31466(10) 0.14452(12) 0.28435(8)
C132 C 0.35532(10) 0.13194(14) 0.28448(9)
H105 H 0.3709 0.1427 0.2674
C133 C 0.37313(8) 0.10363(14) 0.30953(11)
H106 H 0.4009 0.0950 0.3096
C134 C 0.35028(8) 0.08790(13) 0.33446(10)
H107 H 0.3624 0.0686 0.3516
C135 C 0.30961(8) 0.10048(9) 0.33434(7)
C136 C 0.29180(8) 0.12879(9) 0.30929(7)
C137 C 0.25114(8) 0.14137(13) 0.30916(10)
H108 H 0.2390 0.1607 0.2920
C138 C 0.22829(8) 0.12564(14) 0.33409(12)
H109 H 0.2005 0.1342 0.3340
C139 C 0.24609(10) 0.09733(14) 0.35915(10)
H110 H 0.2305 0.0866 0.3762
C140 C 0.28675(10) 0.08475(13) 0.35927(8)
N31 N 0.12092(12) 0.53626(12) 0.39543(10)
C141 C 0.10464(13) 0.53922(12) 0.42616(11)
C142 C 0.11543(15) 0.57461(15) 0.44791(10)
H111 H 0.1043 0.5766 0.4689
C143 C 0.14250(15) 0.60703(13) 0.43892(12)
H112 H 0.1499 0.6312 0.4538
C144 C 0.15879(13) 0.60407(13) 0.40819(13)
H113 H 0.1773 0.6262 0.4021
C145 C 0.14800(13) 0.56868(14) 0.38645(10)
H114 H 0.1591 0.5667 0.3654
N32 N 0.06961(13) 0.47155(14) 0.40890(10)
N33 N 0.03851(13) 0.44435(13) 0.42031(12)
C146 C 0.02761(15) 0.46278(17) 0.45097(12)
H115 H 0.0075 0.4513 0.4641
C147 C 0.05198(17) 0.50137(17) 0.45851(11)
H116 H 0.0511 0.5203 0.4776
C148 C 0.07793(14) 0.50679(13) 0.43251(13)
C149 C 0.0252(2) 0.4065(2) 0.4039(2)
H117 H 0.0243 0.4119 0.3793
H118 H -0.0031 0.4005 0.4089
N34 N -0.03388(12) 0.09294(11) 0.44779(10)
C150 C -0.01862(11) 0.07687(12) 0.41888(10)
C151 C -0.03295(14) 0.03670(13) 0.40465(10)
H119 H -0.0225 0.0257 0.3849
C152 C -0.06254(14) 0.01260(11) 0.41933(12)
H120 H -0.0723 -0.0149 0.4096
C153 C -0.07780(13) 0.02867(13) 0.44825(12)
H121 H -0.0980 0.0122 0.4583
C154 C -0.06347(12) 0.06884(13) 0.46247(10)
H122 H -0.0739 0.0798 0.4822
N35 N 0.02366(12) 0.14181(13) 0.42235(9)
N36 N 0.05342(12) 0.16155(11) 0.40368(11)
C155 C 0.05845(14) 0.13344(15) 0.37569(10)
H123 H 0.0765 0.1386 0.3590
C156 C 0.03181(15) 0.09633(13) 0.37707(11)
H124 H 0.0289 0.0723 0.3614
C157 C 0.01031(12) 0.10150(12) 0.40591(11)
C158 C 0.0731(2) 0.2014(2) 0.4128(2)
H125 H 0.1010 0.2004 0.4056
H126 H 0.0759 0.2040 0.4377
C159 C 0.05112(11) 0.36468(8) 0.41274(10)
C160 C 0.08463(11) 0.36889(10) 0.43690(10)
H127 H 0.0923 0.3975 0.4459
C161 C 0.10700(10) 0.33130(12) 0.44793(9)
H128 H 0.1299 0.3342 0.4644
C162 C 0.09585(9) 0.28950(11) 0.43482(9)
H129 H 0.1111 0.2638 0.4424
C163 C 0.06233(8) 0.28528(8) 0.41066(7)
C164 C 0.03997(8) 0.32287(8) 0.39963(7)
C165 C 0.00645(9) 0.31866(11) 0.37547(9)
H130 H -0.0088 0.3444 0.3679
C166 C -0.00470(11) 0.27686(13) 0.36235(9)
H131 H -0.0276 0.2740 0.3458
C167 C 0.01767(12) 0.23927(10) 0.37339(10)
H132 H 0.0100 0.2107 0.3644
C168 C 0.05118(11) 0.24348(8) 0.39755(10)
Co1F Co -0.01325(3) 0.15948(3) 0.46252(2)
Co2F Co 0.14353(3) 0.22073(3) 0.72243(2)
Co3F Co 0.40005(3) 0.01970(3) 0.63534(3)
Co4F Co 0.23237(3) -0.04862(3) 0.38552(3)
N1F N -0.05686(12) 0.19010(13) 0.42547(11)
C1F C -0.05717(13) 0.23650(13) 0.42692(12)
C2F C -0.08546(16) 0.26057(12) 0.40571(15)
H1F H -0.0857 0.2923 0.4067
C3F C -0.11344(15) 0.23824(18) 0.38305(15)
H2F H -0.1328 0.2547 0.3686
C4F C -0.11313(16) 0.19185(18) 0.38160(14)
H3F H -0.1323 0.1766 0.3661
C5F C -0.08484(16) 0.16778(12) 0.40281(14)
H4F H -0.0846 0.1361 0.4018
N2F N 0.00125(12) 0.22855(9) 0.46753(11)
N3F N 0.02846(11) 0.25656(12) 0.48804(10)
C6F C 0.01613(14) 0.30154(10) 0.48188(12)
H5F H 0.0289 0.3273 0.4922
C7F C -0.01870(14) 0.30133(11) 0.45756(13)
H6F H -0.0333 0.3269 0.4488
C8F C -0.02790(12) 0.25623(14) 0.44869(11)
C9F C 0.0589(2) 0.2406(2) 0.51091(17)
H7F H 0.0690 0.2122 0.5022
H8F H 0.0818 0.2621 0.5126
N4F N 0.18740(11) 0.17849(12) 0.75070(10)
C10F C 0.18620(12) 0.13390(13) 0.74087(11)
C11F C 0.21560(14) 0.10424(11) 0.75519(13)
H9F H 0.2148 0.0738 0.7485
C12F C 0.24619(12) 0.11916(15) 0.77934(13)
H10F H 0.2663 0.0989 0.7891
C13F C 0.24739(12) 0.16375(16) 0.78916(11)
H11F H 0.2683 0.1739 0.8057
C14F C 0.21800(13) 0.19341(12) 0.77485(11)
H12F H 0.2188 0.2239 0.7816
N5F N 0.13045(12) 0.15616(10) 0.70104(11)
N6F N 0.09901(11) 0.13538(13) 0.67929(11)
C15F C 0.10444(14) 0.08840(12) 0.68205(13)
H13F H 0.0877 0.0664 0.6703
C16F C 0.13923(15) 0.08015(11) 0.70549(14)
H14F H 0.1499 0.0516 0.7122
C17F C 0.15531(12) 0.12203(15) 0.71723(11)
C18F C 0.0704(2) 0.1597(2) 0.65868(18)
H15F H 0.0450 0.1418 0.6547
H16F H 0.0637 0.1872 0.6708
C19F C 0.04672(9) 0.23246(11) 0.54627(7)
C20F C 0.00887(9) 0.24719(12) 0.55424(9)
H17F H -0.0083 0.2641 0.5383
C21F C -0.00388(8) 0.23719(13) 0.58556(10)
H18F H -0.0297 0.2473 0.5910
C22F C 0.02123(8) 0.21246(13) 0.60891(8)
H19F H 0.0125 0.2056 0.6303
C23F C 0.05909(7) 0.19773(9) 0.60094(6)
C24F C 0.07183(7) 0.20773(8) 0.56962(6)
C25F C 0.10969(8) 0.19300(12) 0.56165(8)
H20F H 0.1184 0.1998 0.5402
C26F C 0.13480(8) 0.16827(12) 0.58500(10)
H21F H 0.1607 0.1582 0.5796
C27F C 0.12206(9) 0.15826(12) 0.61632(9)
H22F H 0.1392 0.1414 0.6323
C28F C 0.08420(9) 0.17299(12) 0.62429(7)
N7F N 0.10491(11) 0.26146(13) 0.68863(9)
C29F C 0.12261(10) 0.27642(15) 0.66052(11)
C30F C 0.10009(14) 0.30246(15) 0.63634(9)
H23F H 0.1122 0.3127 0.6171
C31F C 0.05987(13) 0.31355(15) 0.64029(11)
H24F H 0.0445 0.3314 0.6238
C32F C 0.04217(10) 0.29859(17) 0.66840(13)
H25F H 0.0147 0.3062 0.6711
C33F C 0.06469(12) 0.27255(15) 0.69258(10)
H26F H 0.0526 0.2623 0.7118
N8F N 0.18401(11) 0.24186(13) 0.68551(9)
N9F N 0.22539(10) 0.23863(15) 0.67874(11)
C34F C 0.22931(12) 0.26121(18) 0.64788(12)
H27F H 0.2537 0.2643 0.6373
C35F C 0.19034(14) 0.27840(17) 0.63559(10)
H28F H 0.1841 0.2950 0.6154
C36F C 0.16234(10) 0.26644(16) 0.65884(12)
C37F C 0.2543(2) 0.2121(2) 0.6962(2)
H29F H 0.2816 0.2245 0.6935
H30F H 0.2505 0.2137 0.7205
N10F N 0.45307(12) -0.01979(16) 0.65569(13)
C38F C 0.44591(12) -0.04662(18) 0.68294(13)
C39F C 0.47545(16) -0.0769(2) 0.69605(14)
H31F H 0.4706 -0.0952 0.7147
C40F C 0.51215(14) -0.0804(2) 0.68191(17)
H32F H 0.5323 -0.1011 0.6909
C41F C 0.51931(13) -0.0535(2) 0.65466(16)
H33F H 0.5444 -0.0559 0.6450
C42F C 0.48977(14) -0.02325(19) 0.64155(13)
H34F H 0.4947 -0.0049 0.6229
N11F N 0.38063(12) -0.01162(14) 0.67909(11)
N12F N 0.34388(10) -0.01598(14) 0.69453(12)
C43F C 0.35001(13) -0.04943(15) 0.71985(12)
H35F H 0.3304 -0.0592 0.7341
C44F C 0.39054(14) -0.06575(15) 0.72006(13)
H36F H 0.4028 -0.0883 0.7345
C45F C 0.40946(10) -0.04238(16) 0.69487(14)
C46F C 0.3100(2) 0.0099(2) 0.6856(2)
H37F H 0.3054 0.0110 0.6606
H38F H 0.2861 -0.0051 0.6936
C47F C 0.25366(9) 0.16245(9) 0.68545(9)
C48F C 0.22113(9) 0.14840(12) 0.66278(10)
H39F H 0.2005 0.1690 0.6546
C49F C 0.21878(9) 0.10415(13) 0.65215(9)
H40F H 0.1966 0.0946 0.6367
C50F C 0.24896(9) 0.07396(10) 0.66419(9)
H41F H 0.2474 0.0437 0.6569
C51F C 0.28148(7) 0.08800(8) 0.68686(7)
C52F C 0.28383(7) 0.13225(8) 0.69749(7)
C53F C 0.31636(9) 0.14630(10) 0.72016(9)
H42F H 0.3180 0.1765 0.7274
C54F C 0.34653(9) 0.11610(12) 0.73220(9)
H43F H 0.3688 0.1257 0.7477
C55F C 0.34419(9) 0.07186(11) 0.72157(9)
H44F H 0.3648 0.0512 0.7298
C56F C 0.31166(9) 0.05781(8) 0.69890(9)
N13F N 0.41820(13) 0.07876(11) 0.66231(11)
C57F C 0.39351(12) 0.11573(14) 0.65425(11)
C58F C 0.40338(15) 0.15677(12) 0.66929(13)
H45F H 0.3865 0.1820 0.6638
C59F C 0.43794(17) 0.16085(14) 0.69239(13)
H46F H 0.4447 0.1889 0.7027
C60F C 0.46263(14) 0.12389(18) 0.70044(12)
H47F H 0.4862 0.1267 0.7162
C61F C 0.45276(13) 0.08284(15) 0.68541(13)
H48F H 0.4696 0.0576 0.6909
N14F N 0.35054(11) 0.06475(11) 0.62088(12)
N15F N 0.31225(12) 0.06606(12) 0.60078(12)
C62F C 0.29742(12) 0.11060(14) 0.60089(13)
H49F H 0.2724 0.1210 0.5895
C63F C 0.32654(15) 0.13682(10) 0.62106(15)
H50F H 0.3244 0.1679 0.6255
C64F C 0.35937(12) 0.10848(14) 0.63342(13)
C65F C 0.2954(2) 0.0304(2) 0.5820(2)
H51F H 0.3018 0.0026 0.5950
H52F H 0.2653 0.0339 0.5794
N16F N 0.20642(14) -0.11082(12) 0.36431(12)
C66F C 0.22793(13) -0.14910(16) 0.37504(13)
C67F C 0.21201(17) -0.19101(13) 0.36622(15)
H53F H 0.2267 -0.2172 0.3736
C68F C 0.17458(18) -0.19464(13) 0.34665(15)
H54F H 0.1637 -0.2233 0.3406
C69F C 0.15308(13) -0.15636(17) 0.33592(14)
H55F H 0.1275 -0.1588 0.3225
C70F C 0.16899(14) -0.11446(14) 0.34474(13)
H56F H 0.1543 -0.0883 0.3374
N17F N 0.27292(14) -0.09859(14) 0.40695(13)
N18F N 0.31195(15) -0.09987(16) 0.42593(14)
C71F C 0.32720(16) -0.14414(19) 0.42462(17)
H57F H 0.3527 -0.1545 0.4351
C72F C 0.2976(2) -0.17023(13) 0.40484(18)
H58F H 0.2998 -0.2011 0.3998
C73F C 0.26405(16) -0.14208(17) 0.39392(15)
C74F C 0.3267(2) -0.0640(3) 0.4452(2)
H59F H 0.3565 -0.0681 0.4509
H60F H 0.3228 -0.0366 0.4313
C75F C 0.30963(12) 0.02464(11) 0.54690(8)
C76F C 0.33652(12) 0.05630(10) 0.53648(10)
H61F H 0.3431 0.0821 0.5499
C77F C 0.35374(11) 0.05029(11) 0.50641(11)
H62F H 0.3721 0.0719 0.4993
C78F C 0.34408(11) 0.01261(12) 0.48676(9)
H63F H 0.3559 0.0085 0.4662
C79F C 0.31719(8) -0.01905(9) 0.49718(7)
C80F C 0.29997(8) -0.01304(9) 0.52725(7)
C81F C 0.27308(11) -0.04470(11) 0.53767(9)
H64F H 0.2613 -0.0406 0.5582
C82F C 0.26341(12) -0.08238(11) 0.51802(11)
H65F H 0.2450 -0.1040 0.5251
C83F C 0.28064(13) -0.08839(10) 0.48795(10)
H66F H 0.2740 -0.1141 0.4745
C84F C 0.30753(12) -0.05673(11) 0.47753(8)
N19F N 0.26995(12) -0.03852(15) 0.34541(10)
C85F C 0.25211(10) -0.01325(16) 0.31849(12)
C86F C 0.27499(14) -0.00073(16) 0.29264(10)
H67F H 0.2628 0.0165 0.2742
C87F C 0.31571(14) -0.01348(17) 0.29372(11)
H68F H 0.3314 -0.0049 0.2760
C88F C 0.33355(10) -0.03875(18) 0.32064(13)
H69F H 0.3614 -0.0475 0.3214
C89F C 0.31067(13) -0.05128(16) 0.34648(10)
H70F H 0.3229 -0.0685 0.3649
N20F N 0.19290(13) -0.01455(16) 0.34840(10)
N21F N 0.15057(12) -0.00474(18) 0.34209(12)
C90F C 0.14321(13) 0.0130(2) 0.30892(13)
H71F H 0.1175 0.0224 0.2981
C91F C 0.18098(17) 0.0141(2) 0.29473(10)
H72F H 0.1850 0.0244 0.2728
C92F C 0.21169(11) -0.00291(18) 0.31913(12)
C93F C 0.1247(2) -0.0078(3) 0.3669(2)
H73F H 0.0963 -0.0103 0.3560
H74F H 0.1310 -0.0356 0.3798
N22F N -0.05370(12) 0.16668(14) 0.50250(9)
C94F C -0.03924(10) 0.14726(13) 0.53317(11)
C95F C -0.06082(14) 0.15238(16) 0.56109(9)
H75F H -0.0509 0.1391 0.5820
C96F C -0.09687(14) 0.17692(17) 0.55834(11)
H76F H -0.1116 0.1804 0.5774
C97F C -0.11134(11) 0.19634(16) 0.52767(13)
H77F H -0.1360 0.2131 0.5258
C98F C -0.08975(13) 0.19122(15) 0.49975(10)
H78F H -0.0996 0.2045 0.4788
N23F N 0.02053(11) 0.13264(13) 0.50640(9)
N24F N 0.05934(10) 0.11240(13) 0.51456(10)
C99F C 0.06079(12) 0.09511(15) 0.54788(11)
H79F H 0.0832 0.0798 0.5598
C100F C 0.02288(14) 0.10467(17) 0.56031(9)
H80F H 0.0155 0.0969 0.5820
C101F C -0.00200(10) 0.12786(15) 0.53468(11)
C102F C 0.0885(2) 0.1112(2) 0.49192(18)
H81F H 0.0857 0.1383 0.4776
H82F H 0.1160 0.1119 0.5047
C103F C 0.12679(11) 0.03145(12) 0.39162(8)
C104F C 0.15247(11) 0.06685(14) 0.38584(9)
H83F H 0.1678 0.0662 0.3669
C105F C 0.15574(11) 0.10316(12) 0.40773(10)
H84F H 0.1733 0.1274 0.4038
C106F C 0.13333(11) 0.10406(9) 0.43540(10)
H85F H 0.1356 0.1289 0.4504
C107F C 0.10765(8) 0.06867(8) 0.44118(7)
C108F C 0.10437(8) 0.03236(8) 0.41930(7)
C109F C 0.07869(11) -0.00304(9) 0.42508(9)
H86F H 0.0765 -0.0279 0.4101
C110F C 0.05627(10) -0.00214(10) 0.45275(10)
H87F H 0.0387 -0.0263 0.4567
C111F C 0.05955(10) 0.03417(12) 0.47464(8)
H88F H 0.0442 0.0348 0.4935
C112F C 0.08523(10) 0.06957(10) 0.46885(8)
N25F N 0.09661(12) 0.20675(15) 0.75667(10)
C113F C 0.09557(14) 0.23717(13) 0.78294(12)
C114F C 0.06903(16) 0.23047(17) 0.80739(11)
H89F H 0.0683 0.2513 0.8253
C115F C 0.04353(15) 0.1933(2) 0.80556(12)
H90F H 0.0254 0.1888 0.8223
C116F C 0.04457(14) 0.16292(16) 0.77930(13)
H91F H 0.0271 0.1375 0.7781
C117F C 0.07111(14) 0.16962(15) 0.75485(11)
H92F H 0.0718 0.1488 0.7369
N26F N 0.15074(14) 0.27332(14) 0.75824(10)
N27F N 0.17735(13) 0.31009(15) 0.76599(12)
C118F C 0.16633(17) 0.33049(15) 0.79592(13)
H93F H 0.1791 0.3559 0.8068
C119F C 0.13291(17) 0.30633(19) 0.80666(11)
H94F H 0.1194 0.3127 0.8260
C120F C 0.12328(14) 0.27099(16) 0.78337(13)
C121F C 0.2045(2) 0.3240(3) 0.7443(2)
H95F H 0.2273 0.3399 0.7574
H96F H 0.2160 0.2975 0.7339
N28F N 0.30189(13) 0.55055(15) 0.57164(9)
C122F C 0.29611(13) 0.51373(13) 0.55039(11)
C123F C 0.31470(15) 0.51222(15) 0.52066(11)
H97F H 0.3108 0.4871 0.5061
C124F C 0.33905(16) 0.54754(19) 0.51217(11)
H98F H 0.3518 0.5465 0.4918
C125F C 0.34483(16) 0.58436(16) 0.53342(13)
H99F H 0.3615 0.6085 0.5276
C126F C 0.32624(16) 0.58586(14) 0.56315(12)
H100F H 0.3302 0.6110 0.5777
N29F N 0.24694(13) 0.48920(13) 0.58611(11)
N30F N 0.21943(13) 0.45276(15) 0.58684(11)
C127F C 0.22488(16) 0.42442(14) 0.55908(13)
H101F H 0.2104 0.3975 0.5535
C128F C 0.25577(16) 0.44334(17) 0.54118(11)
H102F H 0.2656 0.4313 0.5215
C129F C 0.26940(13) 0.48338(15) 0.55789(12)
C130F C 0.1947(2) 0.4454(3) 0.6122(2)
H103F H 0.1879 0.4746 0.6219
H104F H 0.1688 0.4318 0.6021
C131F C 0.18534(10) 0.35548(12) 0.71565(8)
C132F C 0.14468(10) 0.36806(14) 0.71552(9)
H105F H 0.1291 0.3573 0.7326
C133F C 0.12687(8) 0.39637(14) 0.69047(11)
H106F H 0.0991 0.4050 0.6904
C134F C 0.14972(8) 0.41210(13) 0.66554(10)
H107F H 0.1376 0.4314 0.6484
C135F C 0.19039(8) 0.39952(9) 0.66566(7)
C136F C 0.20820(8) 0.37121(9) 0.69071(7)
C137F C 0.24886(8) 0.35863(13) 0.69084(10)
H108F H 0.2610 0.3393 0.7080
C138F C 0.27171(8) 0.37436(14) 0.66591(12)
H109F H 0.2995 0.3658 0.6660
C139F C 0.25391(10) 0.40267(14) 0.64085(10)
H110F H 0.2695 0.4134 0.6238
C140F C 0.21325(10) 0.41525(13) 0.64073(8)
N31F N 0.37908(12) -0.03626(12) 0.60457(10)
C141F C 0.39536(13) -0.03922(12) 0.57384(11)
C142F C 0.38457(15) -0.07461(15) 0.55209(10)
H111F H 0.3957 -0.0766 0.5311
C143F C 0.35750(15) -0.10703(13) 0.56108(12)
H112F H 0.3501 -0.1312 0.5462
C144F C 0.34121(13) -0.10407(13) 0.59181(13)
H113F H 0.3227 -0.1262 0.5979
C145F C 0.35200(13) -0.06868(14) 0.61355(10)
H114F H 0.3409 -0.0667 0.6346
N32F N 0.43039(13) 0.02845(14) 0.59110(10)
N33F N 0.46149(13) 0.05565(13) 0.57969(12)
C146F C 0.47239(15) 0.03722(17) 0.54903(12)
H115F H 0.4925 0.0487 0.5359
C147F C 0.44802(17) -0.00137(17) 0.54149(11)
H116F H 0.4489 -0.0203 0.5224
C148F C 0.42207(14) -0.00679(13) 0.56749(13)
C149F C 0.4748(2) 0.0935(2) 0.5961(2)
H117F H 0.4757 0.0881 0.6207
H118F H 0.5031 0.0995 0.5911
N34F N 0.53388(12) 0.40706(11) 0.55221(10)
C150F C 0.51862(11) 0.42313(12) 0.58112(10)
C151F C 0.53295(14) 0.46330(13) 0.59535(10)
H119F H 0.5225 0.4743 0.6151
C152F C 0.56254(14) 0.48740(11) 0.58067(12)
H120F H 0.5723 0.5149 0.5904
C153F C 0.57780(13) 0.47133(13) 0.55175(12)
H121F H 0.5980 0.4878 0.5417
C154F C 0.56347(12) 0.43116(13) 0.53753(10)
H122F H 0.5739 0.4202 0.5178
N35F N 0.47634(12) 0.35819(13) 0.57765(9)
N36F N 0.44658(12) 0.33845(11) 0.59632(11)
C155F C 0.44155(14) 0.36656(15) 0.62431(10)
H123F H 0.4235 0.3614 0.6410
C156F C 0.46819(15) 0.40367(13) 0.62293(11)
H124F H 0.4711 0.4277 0.6386
C157F C 0.48969(12) 0.39850(12) 0.59409(11)
C158F C 0.4269(2) 0.2986(2) 0.5872(2)
H125F H 0.3990 0.2996 0.5944
H126F H 0.4241 0.2960 0.5623
C159F C 0.44888(11) 0.13532(8) 0.58726(10)
C160F C 0.41537(11) 0.13111(10) 0.56310(10)
H127F H 0.4077 0.1025 0.5541
C161F C 0.39300(10) 0.16870(12) 0.55207(9)
H128F H 0.3701 0.1658 0.5356
C162F C 0.40415(9) 0.21050(11) 0.56518(9)
H129F H 0.3889 0.2362 0.5576
C163F C 0.43767(8) 0.21472(8) 0.58934(7)
C164F C 0.46003(8) 0.17713(8) 0.60037(7)
C165F C 0.49355(9) 0.18134(11) 0.62453(9)
H130F H 0.5088 0.1556 0.6321
C166F C 0.50470(11) 0.22314(13) 0.63765(9)
H131F H 0.5276 0.2260 0.6542
C167F C 0.48233(12) 0.26073(10) 0.62661(10)
H132F H 0.4900 0.2893 0.6356
C168F C 0.44882(11) 0.25652(8) 0.60245(10)
B1 B 0.4913(3) 0.4384(3) 0.1524(3)
F1 F 0.47622(16) 0.48004(17) 0.15787(15)
F2 F 0.46168(18) 0.4136(2) 0.13258(17)
F3 F 0.52543(14) 0.44205(15) 0.13477(12)
F4 F 0.50262(15) 0.41633(16) 0.18299(13)
B2 B 0.3266(3) 0.4523(4) 0.4334(3)
F5 F 0.35261(15) 0.44544(17) 0.40797(14)
F6 F 0.29752(14) 0.41784(16) 0.43170(14)
F7 F 0.35001(16) 0.45319(19) 0.46392(15)
F8 F 0.30619(17) 0.49337(19) 0.4285(2)
B3 B 0.3525(4) 0.2771(4) 0.6622(4)
F9 F 0.3322(2) 0.2446(2) 0.6457(2)
F10 F 0.3912(2) 0.2618(2) 0.6762(3)
F11 F 0.3296(2) 0.2880(2) 0.69018(19)
F12 F 0.3599(2) 0.31577(18) 0.64719(17)
B4 B 0.3630(4) 0.1634(4) 0.4547(3)
F13 F 0.3547(2) 0.1387(2) 0.42484(16)
F14 F 0.33197(19) 0.15486(19) 0.47532(15)
F15 F 0.39990(19) 0.1542(2) 0.47071(16)
F16 F 0.3618(3) 0.2080(2) 0.4453(2)
B5 B 0.2784(8) 0.5479(10) 0.2858(7)
F17 F 0.2789(4) 0.5527(4) 0.3231(3)
F18 F 0.2831(3) 0.5059(4) 0.2785(3)
F19 F 0.2506(3) 0.5687(3) 0.2739(2)
F20 F 0.3187(4) 0.5702(5) 0.2773(3)
B6 B 0.6120(6) 0.1866(7) 0.5011(5)
F21 F 0.5847(3) 0.1999(3) 0.4763(3)
F22 F 0.6537(3) 0.1921(3) 0.4896(3)
F23 F 0.6042(3) 0.1406(3) 0.5115(2)
F24 F 0.6142(3) 0.2139(3) 0.5295(3)
B7 B 0.2269(9) 0.7897(8) 0.6647(7)
F25 F 0.2365(7) 0.7863(7) 0.7001(5)
F26 F 0.2105(6) 0.7505(6) 0.6522(5)
F27 F 0.2045(5) 0.8250(5) 0.6571(5)
F28 F 0.2620(5) 0.7948(5) 0.6495(5)
B8 B 0.0866(7) 0.5402(8) 0.5989(7)
F29 F 0.1122(4) 0.5015(6) 0.6017(4)
F30 F 0.0703(4) 0.5465(7) 0.5622(5)
F31 F 0.1060(4) 0.5807(5) 0.6091(4)
F32 F 0.0540(3) 0.5406(5) 0.6188(4)
O1 O 0.3454(9) 0.2988(10) 0.5211(8)
C169 C 0.2431(16) 0.2852(18) 0.4426(12)
H133 H 0.2405 0.2599 0.4269
H134 H 0.2177 0.2889 0.4530
H135 H 0.2487 0.3125 0.4303
C170 C 0.2763(16) 0.2770(17) 0.4685(12)
H136 H 0.3022 0.2731 0.4583
H137 H 0.2710 0.2494 0.4811
C171 C 0.2794(13) 0.3198(13) 0.4938(10)
H138 H 0.2908 0.3470 0.4842
H139 H 0.2539 0.3265 0.5039
C172 C 0.3107(12) 0.2923(11) 0.5167(7)
C173 C 0.2933(11) 0.2517(10) 0.5341(8)
H140 H 0.2646 0.2452 0.5256
H141 H 0.3103 0.2245 0.5331
C174 C 0.2978(11) 0.2738(12) 0.5685(8)
H142 H 0.2976 0.2507 0.5863
H143 H 0.3242 0.2898 0.5719
C175 C 0.2651(7) 0.3044(8) 0.5709(6)
H144 H 0.2682 0.3186 0.5932
H145 H 0.2656 0.3274 0.5534
H146 H 0.2391 0.2884 0.5677
O1F O 0.1546(9) 0.2012(10) 0.4789(8)
C169F C 0.2569(16) 0.2148(18) 0.5574(12)
H133F H 0.2595 0.2401 0.5731
H134F H 0.2823 0.2111 0.5470
H135F H 0.2513 0.1875 0.5697
C170F C 0.2237(16) 0.2230(17) 0.5315(12)
H136F H 0.1978 0.2269 0.5417
H137F H 0.2290 0.2506 0.5189
C171F C 0.2206(13) 0.1802(13) 0.5062(10)
H138F H 0.2092 0.1530 0.5158
H139F H 0.2461 0.1735 0.4961
C172F C 0.1893(12) 0.2077(11) 0.4833(7)
C173F C 0.2067(11) 0.2483(10) 0.4659(8)
H140F H 0.2354 0.2548 0.4744
H141F H 0.1897 0.2755 0.4669
C174F C 0.2022(11) 0.2262(12) 0.4315(8)
H142F H 0.2024 0.2493 0.4137
H143F H 0.1758 0.2102 0.4281
C175F C 0.2349(7) 0.1956(8) 0.4291(6)
H144F H 0.2318 0.1814 0.4068
H145F H 0.2344 0.1726 0.4466
H146F H 0.2609 0.2116 0.4323
loop_
_geom_bond_atom_site_label_1
_geom_bond_atom_site_label_2
_geom_bond_site_symmetry_1
_geom_bond_site_symmetry_2
Co1 N1 1_555 1_555
Co2 N4 1_555 1_555
Co3 N10 1_555 1_555
Co4 N16 1_555 1_555
N1 C1 1_555 1_555
C1 C2 1_555 1_555
C2 H1 1_555 1_555
C3 C2 1_555 1_555
H2 C3 1_555 1_555
C4 C3 1_555 1_555
H3 C4 1_555 1_555
C5 N1 1_555 1_555
H4 C5 1_555 1_555
N2 Co1 1_555 1_555
N3 N2 1_555 1_555
C6 N3 1_555 1_555
H5 C6 1_555 1_555
C7 C6 1_555 1_555
H6 C7 1_555 1_555
C8 C1 1_555 1_555
C9 N3 1_555 1_555
H7 C9 1_555 1_555
H8 C9 1_555 1_555
N4 C10 1_555 1_555
C10 C11 1_555 1_555
C11 H9 1_555 1_555
C12 C11 1_555 1_555
H10 C12 1_555 1_555
C13 C12 1_555 1_555
H11 C13 1_555 1_555
C14 N4 1_555 1_555
H12 C14 1_555 1_555
N5 Co2 1_555 1_555
N6 N5 1_555 1_555
C15 N6 1_555 1_555
H13 C15 1_555 1_555
C16 C15 1_555 1_555
H14 C16 1_555 1_555
C17 C10 1_555 1_555
C18 N6 1_555 1_555
H15 C18 1_555 1_555
H16 C18 1_555 1_555
C19 C9 1_555 1_555
C20 C19 1_555 1_555
H17 C20 1_555 1_555
C21 C20 1_555 1_555
H18 C21 1_555 1_555
C22 C21 1_555 1_555
H19 C22 1_555 1_555
C23 C22 1_555 1_555
C24 C19 1_555 1_555
C25 C24 1_555 1_555
H20 C25 1_555 1_555
C26 C25 1_555 1_555
H21 C26 1_555 1_555
C27 C26 1_555 1_555
H22 C27 1_555 1_555
C28 C18 1_555 1_555
N7 Co2 1_555 1_555
C29 N7 1_555 1_555
C30 C29 1_555 1_555
H23 C30 1_555 1_555
C31 C30 1_555 1_555
H24 C31 1_555 1_555
C32 C31 1_555 1_555
H25 C32 1_555 1_555
C33 N7 1_555 1_555
H26 C33 1_555 1_555
N8 Co2 1_555 1_555
N9 N8 1_555 1_555
C34 N9 1_555 1_555
H27 C34 1_555 1_555
C35 C34 1_555 1_555
H28 C35 1_555 1_555
C36 C29 1_555 1_555
C37 N9 1_555 1_555
H29 C37 1_555 1_555
H30 C37 1_555 1_555
N10 C38 1_555 1_555
C38 C39 1_555 1_555
C39 H31 1_555 1_555
C40 C39 1_555 1_555
H32 C40 1_555 1_555
C41 C40 1_555 1_555
H33 C41 1_555 1_555
C42 N10 1_555 1_555
H34 C42 1_555 1_555
N11 Co3 1_555 1_555
N12 N11 1_555 1_555
C43 N12 1_555 1_555
H35 C43 1_555 1_555
C44 C43 1_555 1_555
H36 C44 1_555 1_555
C45 C38 1_555 1_555
C46 N12 1_555 1_555
H37 C46 1_555 1_555
H38 C46 1_555 1_555
C47 C37 1_555 1_555
C48 C47 1_555 1_555
H39 C48 1_555 1_555
C49 C48 1_555 1_555
H40 C49 1_555 1_555
C50 C49 1_555 1_555
H41 C50 1_555 1_555
C51 C50 1_555 1_555
C52 C47 1_555 1_555
C53 C52 1_555 1_555
H42 C53 1_555 1_555
C54 C53 1_555 1_555
H43 C54 1_555 1_555
C55 C54 1_555 1_555
H44 C55 1_555 1_555
C56 C46 1_555 1_555
N13 Co3 1_555 1_555
C57 N13 1_555 1_555
C58 C57 1_555 1_555
H45 C58 1_555 1_555
C59 C58 1_555 1_555
H46 C59 1_555 1_555
C60 C59 1_555 1_555
H47 C60 1_555 1_555
C61 N13 1_555 1_555
H48 C61 1_555 1_555
N14 Co3 1_555 1_555
N15 N14 1_555 1_555
C62 N15 1_555 1_555
H49 C62 1_555 1_555
C63 C62 1_555 1_555
H50 C63 1_555 1_555
C64 C57 1_555 1_555
C65 N15 1_555 1_555
H51 C65 1_555 1_555
H52 C65 1_555 1_555
N16 C66 1_555 1_555
C66 C67 1_555 1_555
C67 H53 1_555 1_555
C68 C67 1_555 1_555
H54 C68 1_555 1_555
C69 C68 1_555 1_555
H55 C69 1_555 1_555
C70 N16 1_555 1_555
H56 C70 1_555 1_555
N17 Co4 1_555 1_555
N18 N17 1_555 1_555
C71 N18 1_555 1_555
H57 C71 1_555 1_555
C72 C71 1_555 1_555
H58 C72 1_555 1_555
C73 C66 1_555 1_555
C74 N18 1_555 1_555
H59 C74 1_555 1_555
H60 C74 1_555 1_555
C75 C65 1_555 1_555
C76 C75 1_555 1_555
H61 C76 1_555 1_555
C77 C76 1_555 1_555
H62 C77 1_555 1_555
C78 C77 1_555 1_555
H63 C78 1_555 1_555
C79 C78 1_555 1_555
C80 C75 1_555 1_555
C81 C80 1_555 1_555
H64 C81 1_555 1_555
C82 C81 1_555 1_555
H65 C82 1_555 1_555
C83 C82 1_555 1_555
H66 C83 1_555 1_555
C84 C74 1_555 1_555
N19 Co4 1_555 1_555
C85 N19 1_555 1_555
C86 C85 1_555 1_555
H67 C86 1_555 1_555
C87 C86 1_555 1_555
H68 C87 1_555 1_555
C88 C87 1_555 1_555
H69 C88 1_555 1_555
C89 N19 1_555 1_555
H70 C89 1_555 1_555
N20 Co4 1_555 1_555
N21 N20 1_555 1_555
C90 N21 1_555 1_555
H71 C90 1_555 1_555
C91 C90 1_555 1_555
H72 C91 1_555 1_555
C92 C85 1_555 1_555
C93 N21 1_555 1_555
H73 C93 1_555 1_555
H74 C93 1_555 1_555
N22 Co1 1_555 1_555
C94 N22 1_555 1_555
C95 C94 1_555 1_555
H75 C95 1_555 1_555
C96 C95 1_555 1_555
H76 C96 1_555 1_555
C97 C96 1_555 1_555
H77 C97 1_555 1_555
C98 N22 1_555 1_555
H78 C98 1_555 1_555
N23 Co1 1_555 1_555
N24 N23 1_555 1_555
C99 N24 1_555 1_555
H79 C99 1_555 1_555
C100 C99 1_555 1_555
H80 C100 1_555 1_555
C101 C94 1_555 1_555
C102 N24 1_555 1_555
H81 C102 1_555 1_555
H82 C102 1_555 1_555
C103 C93 1_555 1_555
C104 C103 1_555 1_555
H83 C104 1_555 1_555
C105 C104 1_555 1_555
H84 C105 1_555 1_555
C106 C105 1_555 1_555
H85 C106 1_555 1_555
C107 C106 1_555 1_555
C108 C103 1_555 1_555
C109 C108 1_555 1_555
H86 C109 1_555 1_555
C110 C109 1_555 1_555
H87 C110 1_555 1_555
C111 C110 1_555 1_555
H88 C111 1_555 1_555
C112 C102 1_555 1_555
N25 Co2 1_555 1_555
C113 N25 1_555 1_555
C114 C113 1_555 1_555
H89 C114 1_555 1_555
C115 C114 1_555 1_555
H90 C115 1_555 1_555
C116 C115 1_555 1_555
H91 C116 1_555 1_555
C117 N25 1_555 1_555
H92 C117 1_555 1_555
N26 Co2 1_555 1_555
N27 N26 1_555 1_555
C118 N27 1_555 1_555
H93 C118 1_555 1_555
C119 C118 1_555 1_555
H94 C119 1_555 1_555
C120 C113 1_555 1_555
C121 N27 1_555 1_555
H95 C121 1_555 1_555
H96 C121 1_555 1_555
N28 C122 1_555 1_555
C122 C123 1_555 1_555
C123 H97 1_555 1_555
C124 C123 1_555 1_555
H98 C124 1_555 1_555
C125 C124 1_555 1_555
H99 C125 1_555 1_555
C126 N28 1_555 1_555
H100 C126 1_555 1_555
N29 N30 1_555 1_555
N30 C127 1_555 1_555
C127 H101 1_555 1_555
C128 C127 1_555 1_555
H102 C128 1_555 1_555
C129 C122 1_555 1_555
C130 N30 1_555 1_555
H103 C130 1_555 1_555
H104 C130 1_555 1_555
C131 C121 1_555 1_555
C132 C131 1_555 1_555
H105 C132 1_555 1_555
C133 C132 1_555 1_555
H106 C133 1_555 1_555
C134 C133 1_555 1_555
H107 C134 1_555 1_555
C135 C134 1_555 1_555
C136 C131 1_555 1_555
C137 C136 1_555 1_555
H108 C137 1_555 1_555
C138 C137 1_555 1_555
H109 C138 1_555 1_555
C139 C138 1_555 1_555
H110 C139 1_555 1_555
C140 C130 1_555 1_555
N31 Co3 1_555 1_555
C141 N31 1_555 1_555
C142 C141 1_555 1_555
H111 C142 1_555 1_555
C143 C142 1_555 1_555
H112 C143 1_555 1_555
C144 C143 1_555 1_555
H113 C144 1_555 1_555
C145 N31 1_555 1_555
H114 C145 1_555 1_555
N32 Co3 1_555 1_555
N33 N32 1_555 1_555
C146 N33 1_555 1_555
H115 C146 1_555 1_555
C147 C146 1_555 1_555
H116 C147 1_555 1_555
C148 C141 1_555 1_555
C149 N33 1_555 1_555
H117 C149 1_555 1_555
H118 C149 1_555 1_555
N34 C150 1_555 1_555
C150 C151 1_555 1_555
C151 H119 1_555 1_555
C152 C151 1_555 1_555
H120 C152 1_555 1_555
C153 C152 1_555 1_555
H121 C153 1_555 1_555
C154 N34 1_555 1_555
H122 C154 1_555 1_555
N35 N36 1_555 1_555
N36 C155 1_555 1_555
C155 H123 1_555 1_555
C156 C155 1_555 1_555
H124 C156 1_555 1_555
C157 C150 1_555 1_555
C158 N36 1_555 1_555
H125 C158 1_555 1_555
H126 C158 1_555 1_555
C159 C149 1_555 1_555
C160 C159 1_555 1_555
H127 C160 1_555 1_555
C161 C160 1_555 1_555
H128 C161 1_555 1_555
C162 C161 1_555 1_555
H129 C162 1_555 1_555
C163 C162 1_555 1_555
C164 C159 1_555 1_555
C165 C164 1_555 1_555
H130 C165 1_555 1_555
C166 C165 1_555 1_555
H131 C166 1_555 1_555
C167 C166 1_555 1_555
H132 C167 1_555 1_555
C168 C158 1_555 1_555
B1 F1 1_555 1_555
F2 B1 1_555 1_555
F3 B1 1_555 1_555
F4 B1 1_555 1_555
B2 F5 1_555 1_555
F6 B2 1_555 1_555
F7 B2 1_555 1_555
F8 B2 1_555 1_555
B3 F9 1_555 1_555
F10 B3 1_555 1_555
F11 B3 1_555 1_555
F12 B3 1_555 1_555
B4 F13 1_555 1_555
F14 B4 1_555 1_555
F15 B4 1_555 1_555
F16 B4 1_555 1_555
B5 F17 1_555 1_555
F18 B5 1_555 1_555
F19 B5 1_555 1_555
F20 B5 1_555 1_555
B6 F21 1_555 1_555
F22 B6 1_555 1_555
F23 B6 1_555 1_555
F24 B6 1_555 1_555
B7 F25 1_555 1_555
F26 B7 1_555 1_555
F27 B7 1_555 1_555
F28 B7 1_555 1_555
B8 F29 1_555 1_555
F30 B8 1_555 1_555
F31 B8 1_555 1_555
F32 B8 1_555 1_555
O1 C172 1_555 1_555
C169 H133 1_555 1_555
H134 C169 1_555 1_555
H135 C169 1_555 1_555
C170 C169 1_555 1_555
H136 C170 1_555 1_555
H137 C170 1_555 1_555
C171 C170 1_555 1_555
H138 C171 1_555 1_555
H139 C171 1_555 1_555
C172 C171 1_555 1_555
C173 C172 1_555 1_555
H140 C173 1_555 1_555
H141 C173 1_555 1_555
C174 C173 1_555 1_555
H142 C174 1_555 1_555
H143 C174 1_555 1_555
C175 C174 1_555 1_555
H144 C175 1_555 1_555
H145 C175 1_555 1_555
H146 C175 1_555 1_555
Co1F N34 1_555 1_555
Co2F N4F 1_555 1_555
Co3F N10F 1_555 1_555
Co4F N28 1_555 1_555
N1F Co1F 1_555 1_555
C1F N1F 1_555 1_555
C2F C1F 1_555 1_555
H1F C2F 1_555 1_555
C3F C2F 1_555 1_555
H2F C3F 1_555 1_555
C4F C3F 1_555 1_555
H3F C4F 1_555 1_555
C5F N1F 1_555 1_555
H4F C5F 1_555 1_555
N2F Co1F 1_555 1_555
N3F N2F 1_555 1_555
C6F N3F 1_555 1_555
H5F C6F 1_555 1_555
C7F C6F 1_555 1_555
H6F C7F 1_555 1_555
C8F C1F 1_555 1_555
C9F N3F 1_555 1_555
H7F C9F 1_555 1_555
H8F C9F 1_555 1_555
N4F C10F 1_555 1_555
C10F C11F 1_555 1_555
C11F H9F 1_555 1_555
C12F C11F 1_555 1_555
H10F C12F 1_555 1_555
C13F C12F 1_555 1_555
H11F C13F 1_555 1_555
C14F N4F 1_555 1_555
H12F C14F 1_555 1_555
N5F Co2F 1_555 1_555
N6F N5F 1_555 1_555
C15F N6F 1_555 1_555
H13F C15F 1_555 1_555
C16F C15F 1_555 1_555
H14F C16F 1_555 1_555
C17F C10F 1_555 1_555
C18F N6F 1_555 1_555
H15F C18F 1_555 1_555
H16F C18F 1_555 1_555
C19F C9F 1_555 1_555
C20F C19F 1_555 1_555
H17F C20F 1_555 1_555
C21F C20F 1_555 1_555
H18F C21F 1_555 1_555
C22F C21F 1_555 1_555
H19F C22F 1_555 1_555
C23F C22F 1_555 1_555
C24F C19F 1_555 1_555
C25F C24F 1_555 1_555
H20F C25F 1_555 1_555
C26F C25F 1_555 1_555
H21F C26F 1_555 1_555
C27F C26F 1_555 1_555
H22F C27F 1_555 1_555
C28F C18F 1_555 1_555
N7F Co2F 1_555 1_555
C29F N7F 1_555 1_555
C30F C29F 1_555 1_555
H23F C30F 1_555 1_555
C31F C30F 1_555 1_555
H24F C31F 1_555 1_555
C32F C31F 1_555 1_555
H25F C32F 1_555 1_555
C33F N7F 1_555 1_555
H26F C33F 1_555 1_555
N8F Co2F 1_555 1_555
N9F N8F 1_555 1_555
C34F N9F 1_555 1_555
H27F C34F 1_555 1_555
C35F C34F 1_555 1_555
H28F C35F 1_555 1_555
C36F C29F 1_555 1_555
C37F N9F 1_555 1_555
H29F C37F 1_555 1_555
H30F C37F 1_555 1_555
N10F C38F 1_555 1_555
C38F C39F 1_555 1_555
C39F H31F 1_555 1_555
C40F C39F 1_555 1_555
H32F C40F 1_555 1_555
C41F C40F 1_555 1_555
H33F C41F 1_555 1_555
C42F N10F 1_555 1_555
H34F C42F 1_555 1_555
N11F Co3F 1_555 1_555
N12F N11F 1_555 1_555
C43F N12F 1_555 1_555
H35F C43F 1_555 1_555
C44F C43F 1_555 1_555
H36F C44F 1_555 1_555
C45F C38F 1_555 1_555
C46F N12F 1_555 1_555
H37F C46F 1_555 1_555
H38F C46F 1_555 1_555
C47F C37F 1_555 1_555
C48F C47F 1_555 1_555
H39F C48F 1_555 1_555
C49F C48F 1_555 1_555
H40F C49F 1_555 1_555
C50F C49F 1_555 1_555
H41F C50F 1_555 1_555
C51F C50F 1_555 1_555
C52F C47F 1_555 1_555
C53F C52F 1_555 1_555
H42F C53F 1_555 1_555
C54F C53F 1_555 1_555
H43F C54F 1_555 1_555
C55F C54F 1_555 1_555
H44F C55F 1_555 1_555
C56F C46F 1_555 1_555
N13F Co3F 1_555 1_555
C57F N13F 1_555 1_555
C58F C57F 1_555 1_555
H45F C58F 1_555 1_555
C59F C58F 1_555 1_555
H46F C59F 1_555 1_555
C60F C59F 1_555 1_555
H47F C60F 1_555 1_555
C61F N13F 1_555 1_555
H48F C61F 1_555 1_555
N14F Co3F 1_555 1_555
N15F N14F 1_555 1_555
C62F N15F 1_555 1_555
H49F C62F 1_555 1_555
C63F C62F 1_555 1_555
H50F C63F 1_555 1_555
C64F C57F 1_555 1_555
C65F N15F 1_555 1_555
H51F C65F 1_555 1_555
H52F C65F 1_555 1_555
N16F Co4F 1_555 1_555
C66F N16F 1_555 1_555
C67F C66F 1_555 1_555
H53F C67F 1_555 1_555
C68F C67F 1_555 1_555
H54F C68F 1_555 1_555
C69F C68F 1_555 1_555
H55F C69F 1_555 1_555
C70F N16F 1_555 1_555
H56F C70F 1_555 1_555
N17F Co4F 1_555 1_555
N18F N17F 1_555 1_555
C71F N18F 1_555 1_555
H57F C71F 1_555 1_555
C72F C71F 1_555 1_555
H58F C72F 1_555 1_555
C73F C66F 1_555 1_555
C74F N18F 1_555 1_555
H59F C74F 1_555 1_555
H60F C74F 1_555 1_555
C75F C65F 1_555 1_555
C76F C75F 1_555 1_555
H61F C76F 1_555 1_555
C77F C76F 1_555 1_555
H62F C77F 1_555 1_555
C78F C77F 1_555 1_555
H63F C78F 1_555 1_555
C79F C78F 1_555 1_555
C80F C75F 1_555 1_555
C81F C80F 1_555 1_555
H64F C81F 1_555 1_555
C82F C81F 1_555 1_555
H65F C82F 1_555 1_555
C83F C82F 1_555 1_555
H66F C83F 1_555 1_555
C84F C74F 1_555 1_555
N19F Co4F 1_555 1_555
C85F N19F 1_555 1_555
C86F C85F 1_555 1_555
H67F C86F 1_555 1_555
C87F C86F 1_555 1_555
H68F C87F 1_555 1_555
C88F C87F 1_555 1_555
H69F C88F 1_555 1_555
C89F N19F 1_555 1_555
H70F C89F 1_555 1_555
N20F Co4F 1_555 1_555
N21F N20F 1_555 1_555
C90F N21F 1_555 1_555
H71F C90F 1_555 1_555
C91F C90F 1_555 1_555
H72F C91F 1_555 1_555
C92F C85F 1_555 1_555
C93F N21F 1_555 1_555
H73F C93F 1_555 1_555
H74F C93F 1_555 1_555
N22F Co1F 1_555 1_555
C94F N22F 1_555 1_555
C95F C94F 1_555 1_555
H75F C95F 1_555 1_555
C96F C95F 1_555 1_555
H76F C96F 1_555 1_555
C97F C96F 1_555 1_555
H77F C97F 1_555 1_555
C98F N22F 1_555 1_555
H78F C98F 1_555 1_555
N23F Co1F 1_555 1_555
N24F N23F 1_555 1_555
C99F N24F 1_555 1_555
H79F C99F 1_555 1_555
C100F C99F 1_555 1_555
H80F C100F 1_555 1_555
C101F C94F 1_555 1_555
C102F N24F 1_555 1_555
H81F C102F 1_555 1_555
H82F C102F 1_555 1_555
C103F C93F 1_555 1_555
C104F C103F 1_555 1_555
H83F C104F 1_555 1_555
C105F C104F 1_555 1_555
H84F C105F 1_555 1_555
C106F C105F 1_555 1_555
H85F C106F 1_555 1_555
C107F C106F 1_555 1_555
C108F C103F 1_555 1_555
C109F C108F 1_555 1_555
H86F C109F 1_555 1_555
C110F C109F 1_555 1_555
H87F C110F 1_555 1_555
C111F C110F 1_555 1_555
H88F C111F 1_555 1_555
C112F C102F 1_555 1_555
N25F Co2F 1_555 1_555
C113F N25F 1_555 1_555
C114F C113F 1_555 1_555
H89F C114F 1_555 1_555
C115F C114F 1_555 1_555
H90F C115F 1_555 1_555
C116F C115F 1_555 1_555
H91F C116F 1_555 1_555
C117F N25F 1_555 1_555
H92F C117F 1_555 1_555
N26F Co2F 1_555 1_555
N27F N26F 1_555 1_555
C118F N27F 1_555 1_555
H93F C118F 1_555 1_555
C119F C118F 1_555 1_555
H94F C119F 1_555 1_555
C120F C113F 1_555 1_555
C121F N27F 1_555 1_555
H95F C121F 1_555 1_555
H96F C121F 1_555 1_555
N28F Co4 1_555 1_555
C122F N28F 1_555 1_555
C123F C122F 1_555 1_555
H97F C123F 1_555 1_555
C124F C123F 1_555 1_555
H98F C124F 1_555 1_555
C125F C124F 1_555 1_555
H99F C125F 1_555 1_555
C126F N28F 1_555 1_555
H100F C126F 1_555 1_555
N29F Co4 1_555 1_555
N30F N29F 1_555 1_555
C127F N30F 1_555 1_555
H101F C127F 1_555 1_555
C128F C127F 1_555 1_555
H102F C128F 1_555 1_555
C129F C122F 1_555 1_555
C130F N30F 1_555 1_555
H103F C130F 1_555 1_555
H104F C130F 1_555 1_555
C131F C121F 1_555 1_555
C132F C131F 1_555 1_555
H105F C132F 1_555 1_555
C133F C132F 1_555 1_555
H106F C133F 1_555 1_555
C134F C133F 1_555 1_555
H107F C134F 1_555 1_555
C135F C134F 1_555 1_555
C136F C131F 1_555 1_555
C137F C136F 1_555 1_555
H108F C137F 1_555 1_555
C138F C137F 1_555 1_555
H109F C138F 1_555 1_555
C139F C138F 1_555 1_555
H110F C139F 1_555 1_555
C140F C130F 1_555 1_555
N31F Co3F 1_555 1_555
C141F N31F 1_555 1_555
C142F C141F 1_555 1_555
H111F C142F 1_555 1_555
C143F C142F 1_555 1_555
H112F C143F 1_555 1_555
C144F C143F 1_555 1_555
H113F C144F 1_555 1_555
C145F N31F 1_555 1_555
H114F C145F 1_555 1_555
N32F Co3F 1_555 1_555
N33F N32F 1_555 1_555
C146F N33F 1_555 1_555
H115F C146F 1_555 1_555
C147F C146F 1_555 1_555
H116F C147F 1_555 1_555
C148F C141F 1_555 1_555
C149F N33F 1_555 1_555
H117F C149F 1_555 1_555
H118F C149F 1_555 1_555
N34F Co1 1_555 1_555
C150F N34F 1_555 1_555
C151F C150F 1_555 1_555
H119F C151F 1_555 1_555
C152F C151F 1_555 1_555
H120F C152F 1_555 1_555
C153F C152F 1_555 1_555
H121F C153F 1_555 1_555
C154F N34F 1_555 1_555
H122F C154F 1_555 1_555
N35F Co1 1_555 1_555
N36F N35F 1_555 1_555
C155F N36F 1_555 1_555
H123F C155F 1_555 1_555
C156F C155F 1_555 1_555
H124F C156F 1_555 1_555
C157F C150F 1_555 1_555
C158F N36F 1_555 1_555
H125F C158F 1_555 1_555
H126F C158F 1_555 1_555
C159F C149F 1_555 1_555
C160F C159F 1_555 1_555
H127F C160F 1_555 1_555
C161F C160F 1_555 1_555
H128F C161F 1_555 1_555
C162F C161F 1_555 1_555
H129F C162F 1_555 1_555
C163F C162F 1_555 1_555
C164F C159F 1_555 1_555
C165F C164F 1_555 1_555
H130F C165F 1_555 1_555
C166F C165F 1_555 1_555
H131F C166F 1_555 1_555
C167F C166F 1_555 1_555
H132F C167F 1_555 1_555
C168F C158F 1_555 1_555
O1F C172F 1_555 1_555
C169F H133F 1_555 1_555
H134F C169F 1_555 1_555
H135F C169F 1_555 1_555
C170F C169F 1_555 1_555
H136F C170F 1_555 1_555
H137F C170F 1_555 1_555
C171F C170F 1_555 1_555
H138F C171F 1_555 1_555
H139F C171F 1_555 1_555
C172F C171F 1_555 1_555
C173F C172F 1_555 1_555
H140F C173F 1_555 1_555
H141F C173F 1_555 1_555
C174F C173F 1_555 1_555
H142F C174F 1_555 1_555
H143F C174F 1_555 1_555
C175F C174F 1_555 1_555
H144F C175F 1_555 1_555
H145F C175F 1_555 1_555
H146F C175F 1_555 1_555
C4 C5 1_555 1_555
N2 C8 1_555 1_555
C7 C8 1_555 1_555
C13 C14 1_555 1_555
N5 C17 1_555 1_555
C16 C17 1_555 1_555
C23 C24 1_555 1_555
C23 C28 1_555 1_555
C27 C28 1_555 1_555
C32 C33 1_555 1_555
N8 C36 1_555 1_555
C35 C36 1_555 1_555
C41 C42 1_555 1_555
N11 C45 1_555 1_555
C44 C45 1_555 1_555
C51 C52 1_555 1_555
C51 C56 1_555 1_555
C55 C56 1_555 1_555
C60 C61 1_555 1_555
N14 C64 1_555 1_555
C63 C64 1_555 1_555
C69 C70 1_555 1_555
N17 C73 1_555 1_555
C72 C73 1_555 1_555
C79 C80 1_555 1_555
C79 C84 1_555 1_555
C83 C84 1_555 1_555
C88 C89 1_555 1_555
N20 C92 1_555 1_555
C91 C92 1_555 1_555
C97 C98 1_555 1_555
N23 C101 1_555 1_555
C100 C101 1_555 1_555
C107 C108 1_555 1_555
C107 C112 1_555 1_555
C111 C112 1_555 1_555
C116 C117 1_555 1_555
N26 C120 1_555 1_555
C119 C120 1_555 1_555
C125 C126 1_555 1_555
N29 C129 1_555 1_555
N29 Co4F 1_555 1_555
C128 C129 1_555 1_555
C135 C136 1_555 1_555
C135 C140 1_555 1_555
C139 C140 1_555 1_555
C144 C145 1_555 1_555
N32 C148 1_555 1_555
C147 C148 1_555 1_555
C153 C154 1_555 1_555
N35 C157 1_555 1_555
N35 Co1F 1_555 1_555
C156 C157 1_555 1_555
C163 C164 1_555 1_555
C163 C168 1_555 1_555
C167 C168 1_555 1_555
C4F C5F 1_555 1_555
N2F C8F 1_555 1_555
C7F C8F 1_555 1_555
C13F C14F 1_555 1_555
N5F C17F 1_555 1_555
C16F C17F 1_555 1_555
C23F C24F 1_555 1_555
C23F C28F 1_555 1_555
C27F C28F 1_555 1_555
C32F C33F 1_555 1_555
N8F C36F 1_555 1_555
C35F C36F 1_555 1_555
C41F C42F 1_555 1_555
N11F C45F 1_555 1_555
C44F C45F 1_555 1_555
C51F C52F 1_555 1_555
C51F C56F 1_555 1_555
C55F C56F 1_555 1_555
C60F C61F 1_555 1_555
N14F C64F 1_555 1_555
C63F C64F 1_555 1_555
C69F C70F 1_555 1_555
N17F C73F 1_555 1_555
C72F C73F 1_555 1_555
C79F C80F 1_555 1_555
C79F C84F 1_555 1_555
C83F C84F 1_555 1_555
C88F C89F 1_555 1_555
N20F C92F 1_555 1_555
C91F C92F 1_555 1_555
C97F C98F 1_555 1_555
N23F C101F 1_555 1_555
C100F C101F 1_555 1_555
C107F C108F 1_555 1_555
C107F C112F 1_555 1_555
C111F C112F 1_555 1_555
C116F C117F 1_555 1_555
N26F C120F 1_555 1_555
C119F C120F 1_555 1_555
C125F C126F 1_555 1_555
N29F C129F 1_555 1_555
C128F C129F 1_555 1_555
C135F C136F 1_555 1_555
C135F C140F 1_555 1_555
C139F C140F 1_555 1_555
C144F C145F 1_555 1_555
N32F C148F 1_555 1_555
C147F C148F 1_555 1_555
C153F C154F 1_555 1_555
N35F C157F 1_555 1_555
C156F C157F 1_555 1_555
C163F C164F 1_555 1_555
C163F C168F 1_555 1_555
C167F C168F 1_555 1_555

#END
