
#######################################################################
#
#                 Cambridge Crystallographic Data Centre
#                                CCDC 
#
#######################################################################
#
# If this CIF has been generated from an entry in the Cambridge 
# Structural Database, then it will include bibliographic, chemical, 
# crystal, experimental, refinement or atomic coordinate data resulting 
# from the CCDC's data processing and validation procedures.
#
#######################################################################

data_TAXDOM
_chemical_formula_moiety         
'C108 H144 N36 Pd6 12+,12(N1 O3 1-),2(C9 H20 O1),58(H2 O1)'
_chemical_name_systematic        
"tetrakis(\m~3~-2,4,6-tris(4-Pyridyl)triazine-N,N',N'')-hexakis(N,N,N',N'-tetramethylethylenediamine-N,N')-hexa-palladium(ii) dodecanitrate 1-nonanol solvate hydrate"
_symmetry_cell_setting           tetragonal
_symmetry_space_group_name_H-M   'I 41/a'
_symmetry_Int_Tables_number      88
_space_group_name_Hall           '-I 4ad'
loop_
_symmetry_equiv_pos_site_id
_symmetry_equiv_pos_as_xyz
1 x,y,z
2 3/4-y,1/4+x,1/4+z
3 1/2+x,1/2+y,1/2+z
4 1/4-y,3/4+x,3/4+z
5 1/4+y,1/4-x,1/4+z
6 1/2-x,-y,1/2+z
7 3/4+y,3/4-x,3/4+z
8 -x,1/2-y,z
9 -x,-y,-z
10 1/4+y,3/4-x,3/4-z
11 1/2-x,1/2-y,1/2-z
12 3/4+y,1/4-x,1/4-z
13 3/4-y,3/4+x,3/4-z
14 1/2+x,y,1/2-z
15 1/4-y,1/4+x,1/4-z
16 x,1/2+y,-z
_cell_length_a                   26.1979(14)
_cell_length_b                   26.1979(14)
_cell_length_c                   31.687(3)
_cell_angle_alpha                90
_cell_angle_beta                 90
_cell_angle_gamma                90
_cell_volume                     21747.7
_exptl_crystal_colour            'pale yellow'
_exptl_crystal_description       block
_cell_formula_units_Z            4
loop_
_atom_site_label
_atom_site_type_symbol
_atom_site_fract_x
_atom_site_fract_y
_atom_site_fract_z
O1 O 0.738(3) 0.296(4) 0.297(3)
H47 H 0.7570 0.2783 0.2824
C32 C 0.6882(18) 0.272(2) 0.3005(17)
H48 H 0.6987 0.2377 0.3089
H49 H 0.6799 0.2683 0.2708
C33 C 0.6366(18) 0.273(3) 0.318(2)
H50 H 0.6255 0.3079 0.3183
H51 H 0.6396 0.2625 0.3477
C34 C 0.5944(13) 0.242(2) 0.300(3)
H52 H 0.6007 0.2392 0.2702
H53 H 0.5966 0.2082 0.3121
C35 C 0.5415(14) 0.260(3) 0.306(2)
H54 H 0.5432 0.2968 0.3088
H55 H 0.5301 0.2467 0.3327
C36 C 0.5000 0.2500 0.276(2)
H56 H 0.5071 0.2206 0.2581
H57 H 0.4929 0.2794 0.2581
O1G O 0.262(3) 0.204(4) 0.297(3)
H47G H 0.2430 0.2217 0.2824
C32G C 0.3118(18) 0.228(2) 0.3005(17)
H48G H 0.3013 0.2623 0.3089
H49G H 0.3201 0.2317 0.2708
C33G C 0.3634(18) 0.227(3) 0.318(2)
H50G H 0.3745 0.1921 0.3183
H51G H 0.3604 0.2375 0.3477
C34G C 0.4056(13) 0.258(2) 0.300(3)
H52G H 0.3993 0.2608 0.2702
H53G H 0.4034 0.2918 0.3121
C35G C 0.4585(14) 0.240(3) 0.306(2)
H54G H 0.4568 0.2032 0.3088
H55G H 0.4699 0.2533 0.3327
N10 N 1.1445(7) 0.1715(6) 0.5048(5)
O2 O 1.1236(6) 0.1630(7) 0.5412(5)
O3 O 1.1555(8) 0.1369(7) 0.4825(6)
O4 O 1.1512(9) 0.2165(7) 0.4897(7)
N12 N 1.2882(9) 0.2771(8) 0.6115(7)
O8 O 1.2614(6) 0.2401(6) 0.5955(5)
O9 O 1.3127(7) 0.2732(8) 0.6428(6)
O10 O 1.2818(13) 0.3235(9) 0.5992(10)
N13 N 0.2748(7) -0.0719(6) 0.4524(7)
O11 O 0.3162(6) -0.0860(6) 0.4321(6)
O12 O 0.2443(7) -0.1041(6) 0.4637(6)
O13 O 0.2673(5) -0.0247(4) 0.4529(4)
N14 N 0.3835(5) 0.0669(6) 0.5156(4)
O14 O 0.4261(6) 0.0440(7) 0.5238(6)
O15 O 0.3580(5) 0.0478(5) 0.4885(4)
O16 O 0.3573(5) 0.0883(5) 0.5454(4)
O18 O 0.1777(6) -0.0735(6) 0.5385(5)
O21 O 0.4501(16) -0.0715(16) 0.3818(12)
O23 O 0.0000 0.2500 0.6250
O24 O 0.9189(4) 0.0317(4) 0.4631(4)
O25 O 0.9591(5) 0.0665(5) 0.5352(4)
O26 O 1.0608(5) 0.0720(5) 0.5545(4)
O28 O 0.9062(5) 0.1365(5) 0.5731(4)
O29 O 0.0945(6) 0.2185(8) 0.5987(6)
O31 O 0.3375(5) 0.7013(5) 0.1080(4)
O33 O 1.2222(8) 0.2823(7) 0.5244(6)
O34 O 0.3604(10) -0.1065(10) 0.3622(8)
O35 O 0.4956(6) 0.0813(6) 0.5785(5)
O37 O 1.1236(3) 0.2227(3) 0.4073(2)
O38 O 0.4008(10) -0.0385(10) 0.4427(8)
Pd1 Pd 0.211701(15) -0.036484(15) 0.124229(11)
Pd2 Pd 0.0000 0.2500 -0.164226(18)
N1 N 0.14726(17) -0.01255(18) 0.15451(14)
C1 C 0.1510(2) 0.0157(2) 0.18964(18)
H1 H 0.1827 0.0202 0.2023
C2 C 0.1082(2) 0.0385(3) 0.20741(18)
H2 H 0.1112 0.0581 0.2317
C3 C 0.0611(2) 0.0316(2) 0.18868(19)
C4 C 0.0576(2) 0.0024(3) 0.1524(2)
H3 H 0.0263 -0.0025 0.1392
C5 C 0.1015(2) -0.0193(2) 0.1362(2)
H4 H 0.0993 -0.0392 0.1119
N2 N 0.20889(18) 0.03282(17) 0.09507(15)
N3 N 0.05157(18) 0.24205(17) -0.11660(15)
N4 N 0.2030(2) 0.21987(18) 0.06165(17)
N5 N 0.0213(2) 0.08460(18) 0.24168(16)
N6 N 0.1525(2) 0.18178(18) 0.00835(17)
C6 C 0.2263(3) 0.0744(2) 0.1149(2)
H5 H 0.2442 0.0708 0.1401
C7 C 0.2180(3) 0.1232(2) 0.0986(2)
H6 H 0.2301 0.1518 0.1128
C8 C 0.1915(3) 0.1286(2) 0.06103(19)
C9 C 0.1738(3) 0.0851(2) 0.0413(2)
H7 H 0.1552 0.0877 0.0164
C10 C 0.1836(3) 0.0379(2) 0.05860(19)
H8 H 0.1723 0.0088 0.0446
C11 C 0.0610(2) 0.1958(2) -0.0992(2)
H9 H 0.0468 0.1669 -0.1116
C12 C 0.0911(3) 0.1902(2) -0.0639(2)
H10 H 0.0968 0.1580 -0.0525
C13 C 0.1128(2) 0.2332(2) -0.04538(18)
C14 C 0.1033(2) 0.2807(2) -0.06321(18)
H11 H 0.1173 0.3101 -0.0515
C15 C 0.0727(2) 0.2834(2) -0.09867(17)
H12 H 0.0664 0.3153 -0.1106
C16 C 0.1815(3) 0.1799(2) 0.0429(2)
C17 C 0.0145(3) 0.0559(2) 0.20729(19)
C18 C 0.1451(2) 0.2283(2) -0.00710(19)
N7 N 0.2129(2) -0.1067(2) 0.15321(18)
N8 N 0.2767(2) -0.06035(19) 0.09341(16)
N9 N -0.0526(2) 0.2592(2) -0.21193(16)
C19 C 0.1702(3) -0.1378(3) 0.1392(3)
H13 H 0.1714 -0.1704 0.1530
H14 H 0.1722 -0.1426 0.1092
H15 H 0.1387 -0.1210 0.1461
C20 C 0.2326(9) -0.1046(8) 0.1942(6)
H16 H 0.2125 -0.1257 0.2125
H17 H 0.2317 -0.0700 0.2041
H18 H 0.2673 -0.1165 0.1941
C21 C 0.2591(9) -0.1371(8) 0.1234(9)
H19 H 0.2723 -0.1662 0.1388
H20 H 0.2441 -0.1494 0.0973
C22 C 0.3002(11) -0.1023(10) 0.1140(8)
H21 H 0.3171 -0.0913 0.1396
H22 H 0.3252 -0.1183 0.0956
C26 C 0.3208(10) -0.0152(11) 0.0900(10)
H30 H 0.3501 -0.0283 0.0754
H31 H 0.3306 -0.0045 0.1178
H32 H 0.3073 0.0135 0.0748
C28 C 0.2716(3) -0.0584(4) 0.0475(2)
H36 H 0.3028 -0.0697 0.0346
H37 H 0.2645 -0.0240 0.0389
H38 H 0.2441 -0.0803 0.0388
C29 C -0.0678(3) 0.3137(3) -0.2152(2)
H39 H -0.0922 0.3177 -0.2375
H40 H -0.0382 0.3341 -0.2211
H41 H -0.0828 0.3245 -0.1890
C30 C -0.0996(3) 0.2283(3) -0.2053(2)
H42 H -0.1228 0.2337 -0.2283
H43 H -0.1156 0.2384 -0.1793
H44 H -0.0907 0.1927 -0.2038
C31 C -0.0270(3) 0.2409(4) -0.2516(2)
H45 H -0.0278 0.2039 -0.2527
H46 H -0.0448 0.2540 -0.2761
Pd1G Pd -0.211701(15) 0.536484(15) 0.124229(11)
Pd1K Pd -0.286484(15) 0.038299(15) 0.125771(11)
Pd1N Pd 0.286484(15) 0.461701(15) 0.125771(11)
Pd2N Pd 0.0000 0.2500 0.414226(18)
N1G N -0.14726(17) 0.51255(18) 0.15451(14)
N1K N -0.26255(18) 0.10274(17) 0.09549(14)
N1N N 0.26255(18) 0.39726(17) 0.09549(14)
C1G C -0.1510(2) 0.4843(2) 0.18964(18)
C1K C -0.2343(2) 0.0990(2) 0.06036(18)
C1N C 0.2343(2) 0.4010(2) 0.06036(18)
H1K H -0.2298 0.0673 0.0477
H1N H 0.2298 0.4327 0.0477
H1G H -0.1827 0.4798 0.2023
C2G C -0.1082(2) 0.4615(3) 0.20741(18)
C2K C -0.2115(3) 0.1418(2) 0.04259(18)
C2N C 0.2115(3) 0.3582(2) 0.04259(18)
H2K H -0.1919 0.1388 0.0183
H2N H 0.1919 0.3612 0.0183
H2G H -0.1112 0.4419 0.2317
C3G C -0.0611(2) 0.4684(2) 0.18868(19)
C3K C -0.2184(2) 0.1889(2) 0.06132(19)
C3N C 0.2184(2) 0.3111(2) 0.06132(19)
C4K C -0.2476(3) 0.1924(2) 0.0976(2)
C4N C 0.2476(3) 0.3076(2) 0.0976(2)
C4G C -0.0576(2) 0.4976(3) 0.1524(2)
H3K H -0.2525 0.2237 0.1108
H3N H 0.2525 0.2763 0.1108
H3G H -0.0263 0.5025 0.1392
C5K C -0.2693(2) 0.1485(2) 0.1138(2)
C5N C 0.2693(2) 0.3515(2) 0.1138(2)
C5G C -0.1015(2) 0.5193(2) 0.1362(2)
H4K H -0.2892 0.1507 0.1381
H4N H 0.2892 0.3493 0.1381
H4G H -0.0993 0.5392 0.1119
N2G N -0.20889(18) 0.46718(17) 0.09507(15)
N2K N -0.21718(17) 0.04111(18) 0.15493(15)
N2N N 0.21718(17) 0.45889(18) 0.15493(15)
N3K N -0.00795(17) 0.19843(18) 0.36660(15)
N3N N 0.00795(17) 0.30157(18) 0.36660(15)
N3G N -0.05157(18) 0.25795(17) -0.11660(15)
N4K N -0.03013(18) 0.0470(2) 0.18835(17)
N4G N -0.2030(2) 0.28013(18) 0.06165(17)
N4N N 0.03013(18) 0.4530(2) 0.18835(17)
N5G N -0.0213(2) 0.41540(18) 0.24168(16)
N5K N -0.16540(18) 0.2287(2) 0.00832(16)
N5N N 0.16540(18) 0.2713(2) 0.00832(16)
N6K N -0.06822(18) 0.0975(2) 0.24165(17)
N6G N -0.1525(2) 0.31822(18) 0.00835(17)
N6N N 0.06822(18) 0.4025(2) 0.24165(17)
C6G C -0.2263(3) 0.4256(2) 0.1149(2)
C6K C -0.1756(2) 0.0237(3) 0.1351(2)
C6N C 0.1756(2) 0.4763(3) 0.1351(2)
H5G H -0.2442 0.4292 0.1401
H5K H -0.1792 0.0058 0.1099
H5N H 0.1792 0.4942 0.1099
C7G C -0.2180(3) 0.3768(2) 0.0986(2)
C7K C -0.1268(2) 0.0320(3) 0.1514(2)
C7N C 0.1268(2) 0.4680(3) 0.1514(2)
H6G H -0.2301 0.3482 0.1128
H6K H -0.0982 0.0199 0.1372
H6N H 0.0982 0.4801 0.1372
C8G C -0.1915(3) 0.3714(2) 0.06103(19)
C8K C -0.1214(2) 0.0585(3) 0.18897(19)
C8N C 0.1214(2) 0.4415(3) 0.18897(19)
C9G C -0.1738(3) 0.4149(2) 0.0413(2)
C9K C -0.1649(2) 0.0762(3) 0.2087(2)
C9N C 0.1649(2) 0.4238(3) 0.2087(2)
H7G H -0.1552 0.4123 0.0164
H7K H -0.1623 0.0948 0.2336
H7N H 0.1623 0.4052 0.2336
C10G C -0.1836(3) 0.4621(2) 0.05860(19)
C10K C -0.2121(2) 0.0664(3) 0.19140(19)
C10N C 0.2121(2) 0.4336(3) 0.19140(19)
H8G H -0.1723 0.4912 0.0446
H8K H -0.2412 0.0777 0.2054
H8N H 0.2412 0.4223 0.2054
C11K C -0.0542(2) 0.1890(2) 0.3492(2)
C11N C 0.0542(2) 0.3110(2) 0.3492(2)
C11G C -0.0610(2) 0.3042(2) -0.0992(2)
H9N H 0.0831 0.2968 0.3616
H9G H -0.0468 0.3331 -0.1116
H9K H -0.0831 0.2032 0.3616
C12K C -0.0598(2) 0.1589(3) 0.3139(2)
C12N C 0.0598(2) 0.3411(3) 0.3139(2)
C12G C -0.0911(3) 0.3098(2) -0.0639(2)
H10N H 0.0920 0.3468 0.3025
H10G H -0.0968 0.3420 -0.0525
H10K H -0.0920 0.1532 0.3025
C13K C -0.0168(2) 0.1372(2) 0.29538(18)
C13N C 0.0168(2) 0.3628(2) 0.29538(18)
C13G C -0.1128(2) 0.2668(2) -0.04538(18)
C14N C -0.0307(2) 0.3533(2) 0.31321(18)
C14G C -0.1033(2) 0.2193(2) -0.06321(18)
C14K C 0.0307(2) 0.1467(2) 0.31321(18)
H11N H -0.0601 0.3673 0.3015
H11G H -0.1173 0.1899 -0.0515
H11K H 0.0601 0.1327 0.3015
C15N C -0.0334(2) 0.3227(2) 0.34867(17)
C15G C -0.0727(2) 0.2166(2) -0.09867(17)
C15K C 0.0334(2) 0.1773(2) 0.34867(17)
H12N H -0.0653 0.3164 0.3606
H12G H -0.0664 0.1847 -0.1106
H12K H 0.0653 0.1836 0.3606
C16K C -0.0701(2) 0.0685(3) 0.2071(2)
C16G C -0.1815(3) 0.3201(2) 0.0429(2)
C16N C 0.0701(2) 0.4315(3) 0.2071(2)
C17G C -0.0145(3) 0.4441(2) 0.20729(19)
C17K C -0.1941(2) 0.2355(3) 0.04271(19)
C17N C 0.1941(2) 0.2645(3) 0.04271(19)
C18K C -0.0217(2) 0.1049(2) 0.25710(19)
C18N C 0.0217(2) 0.3951(2) 0.25710(19)
C18G C -0.1451(2) 0.2717(2) -0.00710(19)
N7K N -0.3567(2) 0.0371(2) 0.09679(18)
N7N N 0.3567(2) 0.4629(2) 0.09679(18)
N7G N -0.2129(2) 0.6067(2) 0.15321(18)
N8K N -0.31035(19) -0.0267(2) 0.15659(16)
N8N N 0.31035(19) 0.5267(2) 0.15659(16)
N8G N -0.2767(2) 0.56035(19) 0.09341(16)
N9G N 0.0526(2) 0.2408(2) -0.21193(16)
N9K N 0.0092(2) 0.3026(2) 0.46193(16)
N9N N -0.0092(2) 0.1974(2) 0.46193(16)
C19K C -0.3878(3) 0.0798(3) 0.1108(3)
C19N C 0.3878(3) 0.4202(3) 0.1108(3)
C19G C -0.1702(3) 0.6378(3) 0.1392(3)
H13K H -0.4204 0.0786 0.0970
H13N H 0.4204 0.4214 0.0970
H13G H -0.1714 0.6704 0.1530
H14K H -0.3926 0.0778 0.1408
H14N H 0.3926 0.4222 0.1408
H14G H -0.1722 0.6426 0.1092
H15K H -0.3710 0.1113 0.1039
H15N H 0.3710 0.3887 0.1039
H15G H -0.1387 0.6210 0.1461
C20K C -0.3546(8) 0.0174(9) 0.0558(6)
C20N C 0.3546(8) 0.4826(9) 0.0558(6)
C20G C -0.2326(9) 0.6046(8) 0.1942(6)
H16K H -0.3757 0.0375 0.0375
H16N H 0.3757 0.4625 0.0375
H16G H -0.2125 0.6257 0.2125
H17K H -0.3200 0.0183 0.0459
H17N H 0.3200 0.4817 0.0459
H17G H -0.2317 0.5700 0.2041
H18K H -0.3665 -0.0173 0.0559
H18N H 0.3665 0.5173 0.0559
H18G H -0.2673 0.6165 0.1941
C21K C -0.3871(8) -0.0091(9) 0.1266(9)
C21N C 0.3871(8) 0.5091(9) 0.1266(9)
C21G C -0.2591(9) 0.6371(8) 0.1234(9)
H19K H -0.4162 -0.0223 0.1112
H19N H 0.4162 0.5223 0.1112
H19G H -0.2723 0.6662 0.1388
H20K H -0.3994 0.0059 0.1527
H20N H 0.3994 0.4941 0.1527
H20G H -0.2441 0.6494 0.0973
C22K C -0.3523(10) -0.0502(11) 0.1360(8)
C22N C 0.3523(10) 0.5502(11) 0.1360(8)
C22G C -0.3002(11) 0.6023(10) 0.1140(8)
H21K H -0.3413 -0.0671 0.1104
H21N H 0.3413 0.5671 0.1104
H21G H -0.3171 0.5913 0.1396
H22K H -0.3683 -0.0752 0.1544
H22N H 0.3683 0.5752 0.1544
H22G H -0.3252 0.6183 0.0956
C26K C -0.2652(11) -0.0708(10) 0.1600(10)
C26N C 0.2652(11) 0.5708(10) 0.1600(10)
C26G C -0.3208(10) 0.5152(11) 0.0900(10)
H30K H -0.2783 -0.1001 0.1746
H30N H 0.2783 0.6001 0.1746
H30G H -0.3501 0.5283 0.0754
H31K H -0.2545 -0.0806 0.1322
H31N H 0.2545 0.5806 0.1322
H31G H -0.3306 0.5045 0.1178
H32K H -0.2365 -0.0573 0.1752
H32N H 0.2365 0.5573 0.1752
H32G H -0.3073 0.4865 0.0748
C28K C -0.3084(4) -0.0216(3) 0.2025(2)
C28N C 0.3084(4) 0.5216(3) 0.2025(2)
C28G C -0.2716(3) 0.5584(4) 0.0475(2)
H36K H -0.3197 -0.0528 0.2154
H36N H 0.3197 0.5528 0.2154
H36G H -0.3028 0.5697 0.0346
H37K H -0.2740 -0.0145 0.2111
H37N H 0.2740 0.5145 0.2111
H37G H -0.2645 0.5240 0.0389
H38K H -0.3303 0.0059 0.2112
H38N H 0.3303 0.4941 0.2112
H38G H -0.2441 0.5803 0.0388
C29G C 0.0678(3) 0.1863(3) -0.2152(2)
C29K C 0.0637(3) 0.3178(3) 0.4652(2)
C29N C -0.0637(3) 0.1822(3) 0.4652(2)
H39G H 0.0922 0.1823 -0.2375
H39K H 0.0677 0.3422 0.4875
H39N H -0.0677 0.1578 0.4875
H40G H 0.0382 0.1659 -0.2211
H40K H 0.0841 0.2882 0.4711
H40N H -0.0841 0.2118 0.4711
H41G H 0.0828 0.1755 -0.1890
H41K H 0.0745 0.3328 0.4390
H41N H -0.0745 0.1672 0.4390
C30G C 0.0996(3) 0.2717(3) -0.2053(2)
C30K C -0.0217(3) 0.3496(3) 0.4553(2)
C30N C 0.0217(3) 0.1504(3) 0.4553(2)
H42G H 0.1228 0.2663 -0.2283
H42K H -0.0163 0.3728 0.4783
H42N H 0.0163 0.1272 0.4783
H43G H 0.1156 0.2616 -0.1793
H43K H -0.0116 0.3656 0.4293
H43N H 0.0116 0.1344 0.4293
H44G H 0.0907 0.3073 -0.2038
H44K H -0.0573 0.3407 0.4538
H44N H 0.0573 0.1593 0.4538
C31G C 0.0270(3) 0.2591(4) -0.2516(2)
C31K C -0.0091(4) 0.2770(3) 0.5016(2)
C31N C 0.0091(4) 0.2230(3) 0.5016(2)
H45G H 0.0278 0.2961 -0.2527
H45N H 0.0461 0.2222 0.5027
H45K H -0.0461 0.2778 0.5027
H46G H 0.0448 0.2460 -0.2761
H46N H -0.0040 0.2052 0.5261
H46K H 0.0040 0.2948 0.5261
loop_
_geom_bond_atom_site_label_1
_geom_bond_atom_site_label_2
_geom_bond_site_symmetry_1
_geom_bond_site_symmetry_2
Pd1 N1 1_555 1_555
Pd2 N3 1_555 1_555
N1 C1 1_555 1_555
C1 H1 1_555 1_555
C2 C1 1_555 1_555
H2 C2 1_555 1_555
C3 C2 1_555 1_555
C4 C3 1_555 1_555
H3 C4 1_555 1_555
C5 N1 1_555 1_555
H4 C5 1_555 1_555
N2 Pd1 1_555 1_555
N3 C11 1_555 1_555
N4 C16 1_555 1_555
N5 C17 1_555 1_555
N6 C16 1_555 1_555
C6 N2 1_555 1_555
H5 C6 1_555 1_555
C7 C6 1_555 1_555
H6 C7 1_555 1_555
C8 C7 1_555 1_555
C9 C8 1_555 1_555
H7 C9 1_555 1_555
C10 N2 1_555 1_555
H8 C10 1_555 1_555
C11 H9 1_555 1_555
C12 C11 1_555 1_555
H10 C12 1_555 1_555
C13 C12 1_555 1_555
C14 C13 1_555 1_555
H11 C14 1_555 1_555
C15 N3 1_555 1_555
H12 C15 1_555 1_555
C16 C8 1_555 1_555
C17 C3 1_555 1_555
C18 N6 1_555 1_555
N7 Pd1 1_555 1_555
N8 Pd1 1_555 1_555
N9 Pd2 1_555 1_555
C19 N7 1_555 1_555
H13 C19 1_555 1_555
H14 C19 1_555 1_555
H15 C19 1_555 1_555
C20 N7 1_555 1_555
H16 C20 1_555 1_555
H17 C20 1_555 1_555
H18 C20 1_555 1_555
C21 N7 1_555 1_555
H19 C21 1_555 1_555
H20 C21 1_555 1_555
C22 N8 1_555 1_555
H21 C22 1_555 1_555
H22 C22 1_555 1_555
C26 N8 1_555 1_555
H30 C26 1_555 1_555
H31 C26 1_555 1_555
H32 C26 1_555 1_555
C28 N8 1_555 1_555
H36 C28 1_555 1_555
H37 C28 1_555 1_555
H38 C28 1_555 1_555
C29 N9 1_555 1_555
H39 C29 1_555 1_555
H40 C29 1_555 1_555
H41 C29 1_555 1_555
C30 N9 1_555 1_555
H42 C30 1_555 1_555
H43 C30 1_555 1_555
H44 C30 1_555 1_555
C31 N9 1_555 1_555
H45 C31 1_555 1_555
H46 C31 1_555 1_555
O1 H47 1_555 1_555
C32 O1 1_555 1_555
H48 C32 1_555 1_555
H49 C32 1_555 1_555
C33 C32 1_555 1_555
H50 C33 1_555 1_555
H51 C33 1_555 1_555
C34 C33 1_555 1_555
H52 C34 1_555 1_555
H53 C34 1_555 1_555
C35 C34 1_555 1_555
H54 C35 1_555 1_555
H55 C35 1_555 1_555
C36 C35 1_555 1_555
H56 C36 1_555 1_555
H57 C36 1_555 1_555
N10 O2 1_555 1_555
O3 N10 1_555 1_555
O4 N10 1_555 1_555
N12 O8 1_555 1_555
O9 N12 1_555 1_555
O10 N12 1_555 1_555
N13 O11 1_555 1_555
O12 N13 1_555 1_555
O13 N13 1_555 1_555
N14 O14 1_555 1_555
O15 N14 1_555 1_555
O16 N14 1_555 1_555
Pd1G N1G 1_555 1_555
Pd1K N1K 1_555 1_555
Pd1N N1N 1_555 1_555
Pd2N N3K 1_555 1_555
N1G C1G 1_555 1_555
N1K C1K 1_555 1_555
N1N C1N 1_555 1_555
C1G H1G 1_555 1_555
C1K H1K 1_555 1_555
C1N H1N 1_555 1_555
C2G C1G 1_555 1_555
C2K C1K 1_555 1_555
C2N C1N 1_555 1_555
H2K C2K 1_555 1_555
H2N C2N 1_555 1_555
H2G C2G 1_555 1_555
C3G C2G 1_555 1_555
C3K C2K 1_555 1_555
C3N C2N 1_555 1_555
C4K C3K 1_555 1_555
C4N C3N 1_555 1_555
C4G C3G 1_555 1_555
H3K C4K 1_555 1_555
H3N C4N 1_555 1_555
H3G C4G 1_555 1_555
C5K N1K 1_555 1_555
C5N N1N 1_555 1_555
C5G N1G 1_555 1_555
H4K C5K 1_555 1_555
H4N C5N 1_555 1_555
H4G C5G 1_555 1_555
N2G Pd1G 1_555 1_555
N2K Pd1K 1_555 1_555
N2N Pd1N 1_555 1_555
N3K C11K 1_555 1_555
N3N Pd2N 1_555 1_555
N3G Pd2 1_555 1_555
N4K C17 1_555 1_555
N4G C16G 1_555 1_555
N4N C16N 1_555 1_555
N5G C17G 1_555 1_555
N5K C17K 1_555 1_555
N5N C18 1_555 1_555
N6K C16K 1_555 1_555
N6G C16G 1_555 1_555
N6N C16N 1_555 1_555
C6G N2G 1_555 1_555
C6K N2K 1_555 1_555
C6N N2N 1_555 1_555
H5G C6G 1_555 1_555
H5K C6K 1_555 1_555
H5N C6N 1_555 1_555
C7G C6G 1_555 1_555
C7K C6K 1_555 1_555
C7N C6N 1_555 1_555
H6G C7G 1_555 1_555
H6K C7K 1_555 1_555
H6N C7N 1_555 1_555
C8G C7G 1_555 1_555
C8K C7K 1_555 1_555
C8N C7N 1_555 1_555
C9G C8G 1_555 1_555
C9K C8K 1_555 1_555
C9N C8N 1_555 1_555
H7G C9G 1_555 1_555
H7K C9K 1_555 1_555
H7N C9N 1_555 1_555
C10G N2G 1_555 1_555
C10K N2K 1_555 1_555
C10N N2N 1_555 1_555
H8G C10G 1_555 1_555
H8K C10K 1_555 1_555
H8N C10N 1_555 1_555
C11K H9K 1_555 1_555
C11N N3N 1_555 1_555
C11G N3G 1_555 1_555
H9N C11N 1_555 1_555
H9G C11G 1_555 1_555
C12K C11K 1_555 1_555
C12N C11N 1_555 1_555
C12G C11G 1_555 1_555
H10N C12N 1_555 1_555
H10G C12G 1_555 1_555
H10K C12K 1_555 1_555
C13K C12K 1_555 1_555
C13N C12N 1_555 1_555
C13G C12G 1_555 1_555
C14N C13N 1_555 1_555
C14G C13G 1_555 1_555
C14K C13K 1_555 1_555
H11N C14N 1_555 1_555
H11G C14G 1_555 1_555
H11K C14K 1_555 1_555
C15N N3N 1_555 1_555
C15G N3G 1_555 1_555
C15K N3K 1_555 1_555
H12N C15N 1_555 1_555
H12G C15G 1_555 1_555
H12K C15K 1_555 1_555
C16K N4K 1_555 1_555
C16G C8G 1_555 1_555
C16N C8N 1_555 1_555
C17G C3G 1_555 1_555
C17K C3K 1_555 1_555
C17N N4 1_555 1_555
C18K N5 1_555 1_555
C18N N5G 1_555 1_555
C18G N5K 1_555 1_555
N7K Pd1K 1_555 1_555
N7N Pd1N 1_555 1_555
N7G Pd1G 1_555 1_555
N8K Pd1K 1_555 1_555
N8N Pd1N 1_555 1_555
N8G Pd1G 1_555 1_555
N9G Pd2 1_555 1_555
N9K Pd2N 1_555 1_555
N9N Pd2N 1_555 1_555
C19K N7K 1_555 1_555
C19N N7N 1_555 1_555
C19G N7G 1_555 1_555
H13K C19K 1_555 1_555
H13N C19N 1_555 1_555
H13G C19G 1_555 1_555
H14K C19K 1_555 1_555
H14N C19N 1_555 1_555
H14G C19G 1_555 1_555
H15K C19K 1_555 1_555
H15N C19N 1_555 1_555
H15G C19G 1_555 1_555
C20K N7K 1_555 1_555
C20N N7N 1_555 1_555
C20G N7G 1_555 1_555
H16K C20K 1_555 1_555
H16N C20N 1_555 1_555
H16G C20G 1_555 1_555
H17K C20K 1_555 1_555
H17N C20N 1_555 1_555
H17G C20G 1_555 1_555
H18K C20K 1_555 1_555
H18N C20N 1_555 1_555
H18G C20G 1_555 1_555
C21K N7K 1_555 1_555
C21N N7N 1_555 1_555
C21G N7G 1_555 1_555
H19K C21K 1_555 1_555
H19N C21N 1_555 1_555
H19G C21G 1_555 1_555
H20K C21K 1_555 1_555
H20N C21N 1_555 1_555
H20G C21G 1_555 1_555
C22K N8K 1_555 1_555
C22N N8N 1_555 1_555
C22G N8G 1_555 1_555
H21K C22K 1_555 1_555
H21N C22N 1_555 1_555
H21G C22G 1_555 1_555
H22K C22K 1_555 1_555
H22N C22N 1_555 1_555
H22G C22G 1_555 1_555
C26K N8K 1_555 1_555
C26N N8N 1_555 1_555
C26G N8G 1_555 1_555
H30K C26K 1_555 1_555
H30N C26N 1_555 1_555
H30G C26G 1_555 1_555
H31K C26K 1_555 1_555
H31N C26N 1_555 1_555
H31G C26G 1_555 1_555
H32K C26K 1_555 1_555
H32N C26N 1_555 1_555
H32G C26G 1_555 1_555
C28K N8K 1_555 1_555
C28N N8N 1_555 1_555
C28G N8G 1_555 1_555
H36K C28K 1_555 1_555
H36N C28N 1_555 1_555
H36G C28G 1_555 1_555
H37K C28K 1_555 1_555
H37N C28N 1_555 1_555
H37G C28G 1_555 1_555
H38K C28K 1_555 1_555
H38N C28N 1_555 1_555
H38G C28G 1_555 1_555
C29G N9G 1_555 1_555
C29K N9K 1_555 1_555
C29N N9N 1_555 1_555
H39G C29G 1_555 1_555
H39K C29K 1_555 1_555
H39N C29N 1_555 1_555
H40G C29G 1_555 1_555
H40K C29K 1_555 1_555
H40N C29N 1_555 1_555
H41G C29G 1_555 1_555
H41K C29K 1_555 1_555
H41N C29N 1_555 1_555
C30G N9G 1_555 1_555
C30K N9K 1_555 1_555
C30N N9N 1_555 1_555
H42G C30G 1_555 1_555
H42K C30K 1_555 1_555
H42N C30N 1_555 1_555
H43G C30G 1_555 1_555
H43K C30K 1_555 1_555
H43N C30N 1_555 1_555
H44G C30G 1_555 1_555
H44K C30K 1_555 1_555
H44N C30N 1_555 1_555
C31G C31 1_555 1_555
C31K N9K 1_555 1_555
C31N N9N 1_555 1_555
H45G C31G 1_555 1_555
H45N C31N 1_555 1_555
H45K C31K 1_555 1_555
H46G C31G 1_555 1_555
H46N C31N 1_555 1_555
H46K C31K 1_555 1_555
O1G H47G 1_555 1_555
C32G O1G 1_555 1_555
H48G C32G 1_555 1_555
H49G C32G 1_555 1_555
C33G C32G 1_555 1_555
H50G C33G 1_555 1_555
H51G C33G 1_555 1_555
C34G C33G 1_555 1_555
H52G C34G 1_555 1_555
H53G C34G 1_555 1_555
C35G C36 1_555 1_555
H54G C35G 1_555 1_555
H55G C35G 1_555 1_555
C4 C5 1_555 1_555
C9 C10 1_555 1_555
C13 C18 1_555 1_555
C14 C15 1_555 1_555
C21 C22 1_555 1_555
C3N C17N 1_555 1_555
C4K C5K 1_555 1_555
C4N C5N 1_555 1_555
C4G C5G 1_555 1_555
N4G C17K 1_555 1_555
N4N C17G 1_555 1_555
N5N C17N 1_555 1_555
N6K C18K 1_555 1_555
N6G C18G 1_555 1_555
N6N C18N 1_555 1_555
C8K C16K 1_555 1_555
C9G C10G 1_555 1_555
C9K C10K 1_555 1_555
C9N C10N 1_555 1_555
C13K C18K 1_555 1_555
C13N C18N 1_555 1_555
C13G C18G 1_555 1_555
C14N C15N 1_555 1_555
C14G C15G 1_555 1_555
C14K C15K 1_555 1_555
N9G C31G 1_555 1_555
C21K C22K 1_555 1_555
C21N C22N 1_555 1_555
C21G C22G 1_555 1_555
C31K C31N 1_555 1_555
C34G C35G 1_555 1_555

#END
