# generated using pymatgen
data_H224Pd6C142N56O153
_symmetry_space_group_name_H-M   'P 1'
_cell_length_a   24.37583792
_cell_length_b   24.37583792
_cell_length_c   24.37583792
_cell_angle_alpha   98.92171195
_cell_angle_beta   114.98984490
_cell_angle_gamma   114.98984490
_symmetry_Int_Tables_number   1
_chemical_formula_structural   H224Pd6C142N56O153
_chemical_formula_sum   'H448 Pd12 C284 N112 O306'
_cell_volume   10873.86879113
_cell_formula_units_Z   2
loop_
 _symmetry_equiv_pos_site_id
 _symmetry_equiv_pos_as_xyz
  1  'x, y, z'
loop_
 _atom_site_type_symbol
 _atom_site_label
 _atom_site_symmetry_multiplicity
 _atom_site_fract_x
 _atom_site_fract_y
 _atom_site_fract_z
 _atom_site_occupancy
  C  C1  1  0.250000  0.224000  0.474000  1
  C  C2  1  0.750000  0.974000  0.724000  1
  C  C3  1  0.750000  0.776000  0.526000  1
  C  C4  1  0.250000  0.026000  0.276000  1
  C  C5  1  0.900000  0.597700  0.899300  1
  C  C6  1  0.698400  0.697700  0.097700  1
  C  C7  1  0.801600  0.399300  0.499300  1
  C  C8  1  0.600000  0.999300  0.197700  1
  C  C9  1  0.100000  0.402300  0.100700  1
  C  C10  1  0.301600  0.302300  0.902300  1
  C  C11  1  0.198400  0.600700  0.500700  1
  C  C12  1  0.400000  0.000700  0.802300  1
  C  C13  1  0.865700  0.590600  0.981100  1
  C  C14  1  0.609500  0.724900  0.090600  1
  C  C15  1  0.890500  0.481100  0.615400  1
  C  C16  1  0.634300  0.115400  0.224900  1
  C  C17  1  0.134300  0.409400  0.018900  1
  C  C18  1  0.390500  0.275100  0.909400  1
  C  C19  1  0.109500  0.518900  0.384600  1
  C  C20  1  0.365700  0.884600  0.775100  1
  C  C21  1  0.841700  0.620800  0.016900  1
  C  C22  1  0.603900  0.779100  0.120800  1
  C  C23  1  0.896100  0.516900  0.675200  1
  C  C24  1  0.658300  0.175200  0.279100  1
  C  C25  1  0.158300  0.379200  0.983100  1
  C  C26  1  0.396100  0.220900  0.879200  1
  C  C27  1  0.103900  0.483100  0.324800  1
  C  C28  1  0.341700  0.824800  0.720900  1
  C  C29  1  0.714400  0.568100  0.924100  1
  C  C30  1  0.644000  0.853700  0.068100  1
  C  C31  1  0.856000  0.424100  0.709700  1
  C  C32  1  0.785600  0.209700  0.353700  1
  C  C33  1  0.285600  0.431900  0.075900  1
  C  C34  1  0.356000  0.146300  0.931900  1
  C  C35  1  0.144000  0.575900  0.290300  1
  C  C36  1  0.214400  0.790300  0.646300  1
  C  C37  1  0.039800  0.011300  0.427500  1.0
  C  C38  1  0.583800  0.971500  0.511300  1.0
  C  C39  1  0.916200  0.927500  0.887700  1.0
  C  C40  1  0.460200  0.387700  0.471500  1.0
  C  C41  1  0.960200  0.988700  0.572500  1.0
  C  C42  1  0.416200  0.028500  0.488700  1.0
  C  C43  1  0.083800  0.072500  0.112300  1.0
  C  C44  1  0.539800  0.612300  0.528500  1.0
  C  C45  1  0.090400  0.045400  0.409000  1.0
  C  C46  1  0.636400  0.955000  0.545400  1.0
  C  C47  1  0.863600  0.909000  0.818600  1.0
  C  C48  1  0.409600  0.318600  0.455000  1.0
  C  C49  1  0.909600  0.954600  0.591000  1.0
  C  C50  1  0.363600  0.045000  0.454600  1.0
  C  C51  1  0.136400  0.091000  0.181400  1.0
  C  C52  1  0.590400  0.681400  0.545000  1.0
  C  C53  1  0.163600  0.105600  0.458000  1.0
  C  C54  1  0.647600  0.942000  0.605600  1.0
  C  C55  1  0.852400  0.958000  0.794400  1.0
  C  C56  1  0.336400  0.294400  0.442000  1.0
  C  C57  1  0.836400  0.894400  0.542000  1.0
  C  C58  1  0.352400  0.058000  0.394400  1.0
  C  C59  1  0.147600  0.042000  0.205600  1.0
  C  C60  1  0.663600  0.705600  0.558000  1.0
  C  C61  1  0.198500  0.152500  0.434000  1.0
  C  C62  1  0.718500  0.954000  0.652500  1.0
  C  C63  1  0.781500  0.934000  0.735500  1.0
  C  C64  1  0.301500  0.235500  0.454000  1.0
  C  C65  1  0.801500  0.847500  0.566000  1.0
  C  C66  1  0.281500  0.046000  0.347500  1.0
  C  C67  1  0.218500  0.066000  0.264500  1.0
  C  C68  1  0.698500  0.764500  0.546000  1.0
  C  C69  1  0.833300  0.659360  0.794660  1.0
  C  C70  1  0.864700  0.826060  0.159360  1.0
  C  C71  1  0.635300  0.294660  0.461360  1.0
  C  C72  1  0.666700  0.961360  0.326060  1.0
  C  C73  1  0.166700  0.340640  0.205340  1.0
  C  C74  1  0.135300  0.173940  0.840640  1.0
  C  C75  1  0.364700  0.705340  0.538640  1.0
  C  C76  1  0.333300  0.038640  0.673940  1.0
  C  C77  1  0.853300  0.684390  0.754090  1.0
  C  C78  1  0.930300  0.831090  0.184390  1.0
  C  C79  1  0.569700  0.254090  0.400790  1.0
  C  C80  1  0.646700  0.900790  0.331090  1.0
  C  C81  1  0.146700  0.315610  0.245910  1.0
  C  C82  1  0.069700  0.168910  0.815610  1.0
  C  C83  1  0.430300  0.745910  0.599210  1.0
  C  C84  1  0.353300  0.099210  0.668910  1.0
  C  C85  1  0.907300  0.750220  0.779720  1.0
  C  C86  1  0.970500  0.842920  0.250220  1.0
  C  C87  1  0.529500  0.279720  0.372420  1.0
  C  C88  1  0.592700  0.872420  0.342920  1.0
  C  C89  1  0.092700  0.249780  0.220280  1.0
  C  C90  1  0.029500  0.157080  0.749780  1.0
  C  C91  1  0.470500  0.720280  0.627580  1.0
  C  C92  1  0.407300  0.127580  0.657080  1.0
  C  C93  1  0.940000  0.790000  0.845200  1.0
  C  C94  1  0.944800  0.850000  0.290000  1.0
  C  C95  1  0.555200  0.345200  0.405200  1.0
  C  C96  1  0.560000  0.905200  0.350000  1.0
  C  C97  1  0.060000  0.210000  0.154800  1.0
  C  C98  1  0.055200  0.150000  0.710000  1.0
  C  C99  1  0.444800  0.654800  0.594800  1.0
  C  C100  1  0.440000  0.094800  0.650000  1.0
  C  C101  1  0.917800  0.762300  0.883100  1.0
  C  C102  1  0.879200  0.844500  0.262300  1.0
  C  C103  1  0.620800  0.383100  0.465300  1.0
  C  C104  1  0.582200  0.965300  0.344500  1.0
  C  C105  1  0.082200  0.237700  0.116900  1.0
  C  C106  1  0.120800  0.155500  0.737700  1.0
  C  C107  1  0.379200  0.616900  0.534700  1.0
  C  C108  1  0.417800  0.034700  0.655500  1.0
  C  C109  1  0.699300  0.658800  0.810700  1.0
  C  C110  1  0.848100  0.959500  0.158800  1.0
  C  C111  1  0.651900  0.310700  0.611400  1.0
  C  C112  1  0.800700  0.111400  0.459500  1.0
  C  C113  1  0.300700  0.341200  0.189300  1.0
  C  C114  1  0.151900  0.040500  0.841200  1.0
  C  C115  1  0.348100  0.689300  0.388600  1.0
  C  C116  1  0.199300  0.888600  0.540500  1.0
  C  C117  1  0.658800  0.683400  0.778200  1.0
  C  C118  1  0.905200  0.024600  0.183400  1.0
  C  C119  1  0.594800  0.278200  0.619400  1.0
  C  C120  1  0.841200  0.119400  0.524600  1.0
  C  C121  1  0.341200  0.316600  0.221800  1.0
  C  C122  1  0.094800  0.975400  0.816600  1.0
  C  C123  1  0.405200  0.721800  0.380600  1.0
  C  C124  1  0.158800  0.880600  0.475400  1.0
  C  C125  1  0.679900  0.747470  0.810370  1.0
  C  C126  1  0.937100  0.067570  0.247470  1.0
  C  C127  1  0.562900  0.310370  0.630470  1.0
  C  C128  1  0.820100  0.130470  0.567570  1.0
  C  C129  1  0.320100  0.252530  0.189630  1.0
  C  C130  1  0.062900  0.932430  0.752530  1.0
  C  C131  1  0.437100  0.689630  0.369530  1.0
  C  C132  1  0.179900  0.869530  0.432430  1.0
  C  C133  1  0.741100  0.784900  0.873600  1.0
  C  C134  1  0.911300  0.043800  0.284900  1.0
  C  C135  1  0.588700  0.373600  0.632500  1.0
  C  C136  1  0.758900  0.132500  0.543800  1.0
  C  C137  1  0.258900  0.215100  0.126400  1.0
  C  C138  1  0.088700  0.956200  0.715100  1.0
  C  C139  1  0.411300  0.626400  0.367500  1.0
  C  C140  1  0.241100  0.867500  0.456200  1.0
  C  C141  1  0.778500  0.757800  0.903500  1.0
  C  C142  1  0.854300  0.979300  0.257800  1.0
  C  C143  1  0.645700  0.403500  0.625000  1.0
  C  C144  1  0.721500  0.125000  0.479300  1.0
  C  C145  1  0.221500  0.242200  0.096500  1.0
  C  C146  1  0.145700  0.020700  0.742200  1.0
  C  C147  1  0.354300  0.596500  0.375000  1.0
  C  C148  1  0.278500  0.875000  0.520700  1.0
  C  C149  1  0.743200  0.038200  0.903400  1.0
  C  C150  1  0.134800  0.295000  0.538200  1.0
  C  C151  1  0.365200  0.403400  0.660200  1.0
  C  C152  1  0.756800  0.160200  0.795000  1.0
  C  C153  1  0.256800  0.961800  0.096600  1.0
  C  C154  1  0.865200  0.705000  0.461800  1.0
  C  C155  1  0.634800  0.596600  0.339800  1.0
  C  C156  1  0.243200  0.839800  0.205000  1.0
  C  C157  1  0.718700  0.972800  0.873700  1.0
  C  C158  1  0.099100  0.254100  0.472800  1.0
  C  C159  1  0.400900  0.373700  0.655000  1.0
  C  C160  1  0.781300  0.155000  0.754100  1.0
  C  C161  1  0.281300  0.027200  0.126300  1.0
  C  C162  1  0.900900  0.745900  0.527200  1.0
  C  C163  1  0.599100  0.626300  0.345000  1.0
  C  C164  1  0.218700  0.845000  0.245900  1.0
  C  C165  1  0.654000  0.932580  0.812180  1.0
  C  C166  1  0.120400  0.278580  0.432580  1.0
  C  C167  1  0.379600  0.312180  0.658180  1.0
  C  C168  1  0.846000  0.158180  0.778580  1.0
  C  C169  1  0.346000  0.067420  0.187820  1.0
  C  C170  1  0.879600  0.721420  0.567420  1.0
  C  C171  1  0.620400  0.687820  0.341820  1.0
  C  C172  1  0.154000  0.841820  0.221420  1.0
  C  C173  1  0.616000  0.959910  0.782510  1.0
  C  C174  1  0.177400  0.343910  0.459910  1.0
  C  C175  1  0.322600  0.282510  0.666510  1.0
  C  C176  1  0.884000  0.166510  0.843910  1.0
  C  C177  1  0.384000  0.040090  0.217490  1.0
  C  C178  1  0.822600  0.656090  0.540090  1.0
  C  C179  1  0.677400  0.717490  0.333490  1.0
  C  C180  1  0.116000  0.833490  0.156090  1.0
  C  C181  1  0.643900  0.025970  0.815270  1.0
  C  C182  1  0.210700  0.382070  0.525970  1.0
  C  C183  1  0.289300  0.315270  0.671370  1.0
  C  C184  1  0.856100  0.171370  0.882070  1.0
  C  C185  1  0.356100  0.974030  0.184730  1.0
  C  C186  1  0.789300  0.617930  0.474030  1.0
  C  C187  1  0.710700  0.684730  0.328630  1.0
  C  C188  1  0.143900  0.828630  0.117930  1.0
  C  C189  1  0.638600  0.775600  0.777200  1.0
  C  C190  1  0.998400  0.137000  0.275600  1.0
  C  C191  1  0.501600  0.277200  0.638600  1.0
  C  C192  1  0.861400  0.138600  0.637000  1.0
  C  C193  1  0.361400  0.224400  0.222800  1.0
  C  C194  1  0.001600  0.863000  0.724400  1.0
  C  C195  1  0.498400  0.722800  0.361400  1.0
  C  C196  1  0.138600  0.861400  0.363000  1.0
  C  C197  1  0.929600  0.778210  0.736810  1.0
  C  C198  1  0.041400  0.848610  0.278210  1.0
  C  C199  1  0.458600  0.236810  0.307210  1.0
  C  C200  1  0.570400  0.807210  0.348610  1.0
  C  C201  1  0.070400  0.221790  0.263190  1.0
  C  C202  1  0.958600  0.151390  0.721790  1.0
  C  C203  1  0.541400  0.763190  0.692790  1.0
  C  C204  1  0.429600  0.192790  0.651390  1.0
  C  C205  1  0.626600  0.862000  0.778800  1.0
  C  C206  1  0.083200  0.235400  0.362000  1.0
  C  C207  1  0.416800  0.278800  0.652200  1.0
  C  C208  1  0.873400  0.152200  0.735400  1.0
  C  C209  1  0.373400  0.138000  0.221200  1.0
  C  C210  1  0.916800  0.764600  0.638000  1.0
  C  C211  1  0.583200  0.721200  0.347800  1.0
  C  C212  1  0.126600  0.847800  0.264600  1.0
  C  C213  1  0.967600  0.690600  0.998600  1.0
  C  C214  1  0.692000  0.723000  0.190600  1.0
  C  C215  1  0.808000  0.498600  0.531000  1.0
  C  C216  1  0.532400  0.031000  0.223000  1.0
  C  C217  1  0.032400  0.309400  0.001400  1.0
  C  C218  1  0.308000  0.277000  0.809400  1.0
  C  C219  1  0.192000  0.501400  0.469000  1.0
  C  C220  1  0.467600  0.969000  0.777000  1.0
  C  C221  1  0.872000  0.573200  0.910400  1.0
  C  C222  1  0.662800  0.701200  0.073200  1.0
  C  C223  1  0.837200  0.410400  0.538400  1.0
  C  C224  1  0.628000  0.038400  0.201200  1.0
  C  C225  1  0.128000  0.426800  0.089600  1.0
  C  C226  1  0.337200  0.298800  0.926800  1.0
  C  C227  1  0.162800  0.589600  0.461600  1.0
  C  C228  1  0.372000  0.961600  0.798800  1.0
  C  C229  1  0.878000  0.617500  0.013700  1.0
  C  C230  1  0.603800  0.739500  0.117500  1.0
  C  C231  1  0.896200  0.513700  0.635700  1.0
  C  C232  1  0.622000  0.135700  0.239500  1.0
  C  C233  1  0.122000  0.382500  0.986300  1.0
  C  C234  1  0.396200  0.260500  0.882500  1.0
  C  C235  1  0.103800  0.486300  0.364300  1.0
  C  C236  1  0.378000  0.864300  0.760500  1.0
  C  C237  1  0.802100  0.585800  0.988300  1.0
  C  C238  1  0.597500  0.783700  0.085800  1.0
  C  C239  1  0.902500  0.488300  0.686200  1.0
  C  C240  1  0.697900  0.186200  0.283700  1.0
  C  C241  1  0.197900  0.414200  0.011700  1.0
  C  C242  1  0.402500  0.216300  0.914200  1.0
  C  C243  1  0.097500  0.511700  0.313800  1.0
  C  C244  1  0.302100  0.813800  0.716300  1.0
  C  C245  1  0.694400  0.589200  0.925200  1.0
  C  C246  1  0.664000  0.894800  0.089200  1.0
  C  C247  1  0.836000  0.425200  0.730800  1.0
  C  C248  1  0.805600  0.230800  0.394800  1.0
  C  C249  1  0.305600  0.410800  0.074800  1.0
  C  C250  1  0.336000  0.105200  0.910800  1.0
  C  C251  1  0.164000  0.574800  0.269200  1.0
  C  C252  1  0.194400  0.769200  0.605200  1.0
  C  C253  1  0.786800  0.680900  0.010900  1.0
  C  C254  1  0.670000  0.894100  0.180900  1.0
  C  C255  1  0.830000  0.510900  0.724100  1.0
  C  C256  1  0.713200  0.224100  0.394100  1.0
  C  C257  1  0.213200  0.319100  0.989100  1.0
  C  C258  1  0.330000  0.105900  0.819100  1.0
  C  C259  1  0.170000  0.489100  0.275900  1.0
  C  C260  1  0.286800  0.775900  0.605900  1.0
  C  C261  1  0.754100  0.283000  0.901500  1.0
  C  C262  1  0.381500  0.528900  0.783000  1.0
  C  C263  1  0.118500  0.401500  0.647400  1.0
  C  C264  1  0.745900  0.147400  0.028900  1.0
  C  C265  1  0.245900  0.717000  0.098500  1.0
  C  C266  1  0.618500  0.471100  0.217000  1.0
  C  C267  1  0.881500  0.598500  0.352600  1.0
  C  C268  1  0.254100  0.852600  0.971100  1.0
  C  C269  1  0.871300  0.304900  0.977000  1.0
  C  C270  1  0.327900  0.433600  0.804900  1.0
  C  C271  1  0.172100  0.477000  0.605700  1.0
  C  C272  1  0.628700  0.105700  0.933600  1.0
  C  C273  1  0.128700  0.695100  0.023000  1.0
  C  C274  1  0.672100  0.566400  0.195100  1.0
  C  C275  1  0.827900  0.523000  0.394300  1.0
  C  C276  1  0.371300  0.894300  0.066400  1.0
  C  C277  1  0.786100  0.278600  0.010700  1.0
  C  C278  1  0.267900  0.492500  0.778600  1.0
  C  C279  1  0.232100  0.510700  0.724600  1.0
  C  C280  1  0.713900  0.224600  0.992500  1.0
  C  C281  1  0.213900  0.721400  0.989300  1.0
  C  C282  1  0.732100  0.507500  0.221400  1.0
  C  C283  1  0.767900  0.489300  0.275400  1.0
  C  C284  1  0.286100  0.775400  0.007500  1.0
  H  H285  1  0.932400  0.583900  0.918900  1
  H  H286  1  0.665000  0.651500  0.083900  1
  H  H287  1  0.835000  0.418900  0.486500  1
  H  H288  1  0.567600  0.986500  0.151500  1
  H  H289  1  0.067600  0.416100  0.081100  1
  H  H290  1  0.335000  0.348500  0.916100  1
  H  H291  1  0.165000  0.581100  0.513500  1
  H  H292  1  0.432400  0.013500  0.848500  1
  H  H293  1  0.918100  0.627400  0.880700  1
  H  H294  1  0.746700  0.709300  0.127400  1
  H  H295  1  0.753300  0.380700  0.462600  1
  H  H296  1  0.581900  0.962600  0.209300  1
  H  H297  1  0.081900  0.372600  0.119300  1
  H  H298  1  0.253300  0.290700  0.872600  1
  H  H299  1  0.246700  0.619300  0.537400  1
  H  H300  1  0.418100  0.037400  0.790700  1
  H  H301  1  0.853200  0.559600  0.864800  1
  H  H302  1  0.694800  0.706400  0.059600  1
  H  H303  1  0.805200  0.364800  0.511600  1
  H  H304  1  0.646800  0.011600  0.206400  1
  H  H305  1  0.146800  0.440400  0.135200  1
  H  H306  1  0.305200  0.293600  0.940400  1
  H  H307  1  0.194800  0.635200  0.488400  1
  H  H308  1  0.353200  0.988400  0.793600  1
  H  H309  1  0.902600  0.585300  0.011500  1
  H  H310  1  0.573800  0.682700  0.085300  1
  H  H311  1  0.926200  0.511500  0.608900  1
  H  H312  1  0.597400  0.108900  0.182700  1
  H  H313  1  0.097400  0.414700  0.988500  1
  H  H314  1  0.426200  0.317300  0.914700  1
  H  H315  1  0.073800  0.488500  0.391100  1
  H  H316  1  0.402600  0.891100  0.817300  1
  H  H317  1  0.825300  0.547400  0.946300  1
  H  H318  1  0.601100  0.722100  0.047400  1
  H  H319  1  0.898900  0.446300  0.621000  1
  H  H320  1  0.674700  0.121000  0.222100  1
  H  H321  1  0.174700  0.452600  0.053700  1
  H  H322  1  0.398900  0.277900  0.952600  1
  H  H323  1  0.101100  0.553700  0.379000  1
  H  H324  1  0.325300  0.879000  0.777900  1
  H  H325  1  0.882600  0.663400  0.052600  1
  H  H326  1  0.610800  0.780800  0.163400  1
  H  H327  1  0.889200  0.552600  0.670000  1
  H  H328  1  0.617400  0.170000  0.280800  1
  H  H329  1  0.117400  0.336600  0.947400  1
  H  H330  1  0.389200  0.219200  0.836600  1
  H  H331  1  0.110800  0.447400  0.330000  1
  H  H332  1  0.382600  0.830000  0.719200  1
  H  H333  1  0.821500  0.592300  0.035800  1
  H  H334  1  0.556500  0.770800  0.092300  1
  H  H335  1  0.943500  0.535800  0.714300  1
  H  H336  1  0.678500  0.214300  0.270800  1
  H  H337  1  0.178500  0.407700  0.964200  1
  H  H338  1  0.443500  0.229200  0.907700  1
  H  H339  1  0.056500  0.464200  0.285700  1
  H  H340  1  0.321500  0.785700  0.729200  1
  H  H341  1  0.695500  0.552300  0.949800  1
  H  H342  1  0.602500  0.856800  0.052300  1
  H  H343  1  0.897500  0.449800  0.754300  1
  H  H344  1  0.804500  0.254300  0.356800  1
  H  H345  1  0.304500  0.447700  0.050200  1
  H  H346  1  0.397500  0.143200  0.947700  1
  H  H347  1  0.102500  0.550200  0.245700  1
  H  H348  1  0.195500  0.745700  0.643200  1
  H  H349  1  0.720100  0.535900  0.903000  1
  H  H350  1  0.632900  0.815800  0.035900  1
  H  H351  1  0.867100  0.403000  0.682900  1
  H  H352  1  0.779900  0.182900  0.315800  1
  H  H353  1  0.279900  0.464100  0.097000  1
  H  H354  1  0.367100  0.184200  0.964100  1
  H  H355  1  0.132900  0.597000  0.317100  1
  H  H356  1  0.220100  0.817100  0.684200  1
  H  H357  1  0.681700  0.574700  0.891000  1
  H  H358  1  0.683700  0.893000  0.074700  1
  H  H359  1  0.816300  0.391000  0.709300  1
  H  H360  1  0.818300  0.209300  0.393000  1
  H  H361  1  0.318300  0.425300  0.109000  1
  H  H362  1  0.316300  0.107000  0.925300  1
  H  H363  1  0.183700  0.609000  0.290700  1
  H  H364  1  0.181700  0.790700  0.607000  1
  H  H365  1  0.964700  0.960600  0.439300  1.0
  H  H366  1  0.521300  0.995900  0.460600  1.0
  H  H367  1  0.978700  0.939300  0.974600  1.0
  H  H368  1  0.535300  0.474600  0.495900  1.0
  H  H369  1  0.035300  0.039400  0.560700  1.0
  H  H370  1  0.478700  0.004100  0.539400  1.0
  H  H371  1  0.021300  0.060700  0.025400  1.0
  H  H372  1  0.464700  0.525400  0.504100  1.0
  H  H373  1  0.063600  0.992400  0.453400  1.0
  H  H374  1  0.539000  0.928800  0.492400  1.0
  H  H375  1  0.961000  0.953400  0.889800  1.0
  H  H376  1  0.436400  0.389800  0.428800  1.0
  H  H377  1  0.936400  0.007600  0.546600  1.0
  H  H378  1  0.461000  0.071200  0.507600  1.0
  H  H379  1  0.039000  0.046600  0.110200  1.0
  H  H380  1  0.563600  0.610200  0.571200  1.0
  H  H381  1  0.051800  0.049300  0.460900  1.0
  H  H382  1  0.588400  0.997500  0.549300  1.0
  H  H383  1  0.911600  0.960900  0.909100  1.0
  H  H384  1  0.448200  0.409100  0.497500  1.0
  H  H385  1  0.948200  0.950700  0.539100  1.0
  H  H386  1  0.411600  0.002500  0.450700  1.0
  H  H387  1  0.088400  0.039100  0.090900  1.0
  H  H388  1  0.551800  0.590900  0.502500  1.0
  H  H389  1  0.066600  0.056200  0.373800  1.0
  H  H390  1  0.682400  0.989600  0.556200  1.0
  H  H391  1  0.817600  0.873800  0.807200  1.0
  H  H392  1  0.433400  0.307200  0.489600  1.0
  H  H393  1  0.933400  0.943800  0.626200  1.0
  H  H394  1  0.317600  0.010400  0.443800  1.0
  H  H395  1  0.182400  0.126200  0.192800  1.0
  H  H396  1  0.566600  0.692800  0.510400  1.0
  H  H397  1  0.097900  0.012700  0.389800  1.0
  H  H398  1  0.622900  0.914800  0.512700  1.0
  H  H399  1  0.877100  0.889800  0.791900  1.0
  H  H400  1  0.402100  0.291900  0.414800  1.0
  H  H401  1  0.902100  0.987300  0.610200  1.0
  H  H402  1  0.377100  0.085200  0.487300  1.0
  H  H403  1  0.122900  0.110200  0.208100  1.0
  H  H404  1  0.597900  0.708100  0.585200  1.0
  H  H405  1  0.160100  0.129100  0.490600  1.0
  H  H406  1  0.638500  0.969000  0.629100  1.0
  H  H407  1  0.861500  0.990600  0.830500  1.0
  H  H408  1  0.339900  0.330500  0.469000  1.0
  H  H409  1  0.839900  0.870900  0.509400  1.0
  H  H410  1  0.361500  0.031000  0.370900  1.0
  H  H411  1  0.138500  0.009400  0.169500  1.0
  H  H412  1  0.660100  0.669500  0.531000  1.0
  H  H413  1  0.195200  0.091300  0.479700  1.0
  H  H414  1  0.611600  0.896100  0.591300  1.0
  H  H415  1  0.888400  0.979700  0.784500  1.0
  H  H416  1  0.304800  0.284500  0.396100  1.0
  H  H417  1  0.804800  0.908700  0.520300  1.0
  H  H418  1  0.388400  0.103900  0.408700  1.0
  H  H419  1  0.111600  0.020300  0.215500  1.0
  H  H420  1  0.695200  0.715500  0.603900  1.0
  H  H421  1  0.160000  0.148000  0.394400  1.0
  H  H422  1  0.753600  0.988000  0.648000  1.0
  H  H423  1  0.746400  0.894400  0.734400  1.0
  H  H424  1  0.340000  0.234400  0.488000  1.0
  H  H425  1  0.840000  0.852000  0.605600  1.0
  H  H426  1  0.246400  0.012000  0.352000  1.0
  H  H427  1  0.253600  0.105600  0.265600  1.0
  H  H428  1  0.660000  0.765600  0.512000  1.0
  H  H429  1  0.223200  0.137200  0.420600  1.0
  H  H430  1  0.716600  0.914000  0.637200  1.0
  H  H431  1  0.783400  0.920600  0.697400  1.0
  H  H432  1  0.276800  0.197400  0.414000  1.0
  H  H433  1  0.776800  0.862800  0.579400  1.0
  H  H434  1  0.283400  0.086000  0.362800  1.0
  H  H435  1  0.216600  0.079400  0.302600  1.0
  H  H436  1  0.723200  0.802600  0.586000  1.0
  H  H437  1  0.272300  0.234800  0.521300  1.0
  H  H438  1  0.713500  0.962500  0.734800  1.0
  H  H439  1  0.786500  0.021300  0.749000  1.0
  H  H440  1  0.227700  0.249000  0.462500  1.0
  H  H441  1  0.727700  0.765200  0.478700  1.0
  H  H442  1  0.286500  0.037500  0.265200  1.0
  H  H443  1  0.213500  0.978700  0.251000  1.0
  H  H444  1  0.772300  0.751000  0.537500  1.0
  H  H445  1  0.797100  0.615000  0.777500  1.0
  H  H446  1  0.837500  0.817900  0.115000  1.0
  H  H447  1  0.662500  0.277500  0.480400  1.0
  H  H448  1  0.702900  0.980400  0.317900  1.0
  H  H449  1  0.202900  0.385000  0.222500  1.0
  H  H450  1  0.162500  0.182100  0.885000  1.0
  H  H451  1  0.337500  0.722500  0.519600  1.0
  H  H452  1  0.297100  0.019600  0.682100  1.0
  H  H453  1  0.830700  0.657100  0.710200  1.0
  H  H454  1  0.946900  0.826400  0.157100  1.0
  H  H455  1  0.553100  0.210200  0.379500  1.0
  H  H456  1  0.669300  0.879500  0.326400  1.0
  H  H457  1  0.169300  0.342900  0.289800  1.0
  H  H458  1  0.053100  0.173600  0.842900  1.0
  H  H459  1  0.446900  0.789800  0.620500  1.0
  H  H460  1  0.330700  0.120500  0.673600  1.0
  H  H461  1  0.976200  0.834500  0.863300  1.0
  H  H462  1  0.971200  0.858300  0.334500  1.0
  H  H463  1  0.528800  0.363300  0.387100  1.0
  H  H464  1  0.523800  0.887100  0.358300  1.0
  H  H465  1  0.023800  0.165500  0.136700  1.0
  H  H466  1  0.028800  0.141700  0.665500  1.0
  H  H467  1  0.471200  0.636700  0.612900  1.0
  H  H468  1  0.476200  0.112900  0.641700  1.0
  H  H469  1  0.939900  0.788800  0.927300  1.0
  H  H470  1  0.861500  0.848900  0.288800  1.0
  H  H471  1  0.638500  0.427300  0.487400  1.0
  H  H472  1  0.560100  0.987400  0.348900  1.0
  H  H473  1  0.060100  0.211200  0.072700  1.0
  H  H474  1  0.138500  0.151100  0.711200  1.0
  H  H475  1  0.361500  0.572700  0.512600  1.0
  H  H476  1  0.439900  0.012600  0.651100  1.0
  H  H477  1  0.685000  0.615700  0.789100  1.0
  H  H478  1  0.826600  0.930700  0.115700  1.0
  H  H479  1  0.673400  0.289100  0.604100  1.0
  H  H480  1  0.815000  0.104100  0.430700  1.0
  H  H481  1  0.315000  0.384300  0.210900  1.0
  H  H482  1  0.173400  0.069300  0.884300  1.0
  H  H483  1  0.326600  0.710900  0.395900  1.0
  H  H484  1  0.185000  0.895900  0.569300  1.0
  H  H485  1  0.618100  0.657100  0.735400  1.0
  H  H486  1  0.921700  0.039000  0.157100  1.0
  H  H487  1  0.578300  0.235400  0.617300  1.0
  H  H488  1  0.881900  0.117300  0.539000  1.0
  H  H489  1  0.381900  0.342900  0.264600  1.0
  H  H490  1  0.078300  0.961000  0.842900  1.0
  H  H491  1  0.421700  0.764600  0.382700  1.0
  H  H492  1  0.118100  0.882700  0.461000  1.0
  H  H493  1  0.757100  0.828400  0.895900  1.0
  H  H494  1  0.932500  0.071300  0.328400  1.0
  H  H495  1  0.567500  0.395900  0.638800  1.0
  H  H496  1  0.742900  0.138800  0.571300  1.0
  H  H497  1  0.242900  0.171600  0.104100  1.0
  H  H498  1  0.067500  0.928700  0.671600  1.0
  H  H499  1  0.432500  0.604100  0.361200  1.0
  H  H500  1  0.257100  0.861200  0.428700  1.0
  H  H501  1  0.818900  0.783100  0.946600  1.0
  H  H502  1  0.836500  0.964200  0.283100  1.0
  H  H503  1  0.663500  0.446600  0.627700  1.0
  H  H504  1  0.681100  0.127700  0.464200  1.0
  H  H505  1  0.181100  0.216900  0.053400  1.0
  H  H506  1  0.163500  0.035800  0.716900  1.0
  H  H507  1  0.336500  0.553400  0.372300  1.0
  H  H508  1  0.318900  0.872300  0.535800  1.0
  H  H509  1  0.786300  0.064800  0.944700  1.0
  H  H510  1  0.120100  0.278500  0.564800  1.0
  H  H511  1  0.379900  0.444700  0.658400  1.0
  H  H512  1  0.713700  0.158400  0.778500  1.0
  H  H513  1  0.213700  0.935200  0.055300  1.0
  H  H514  1  0.879900  0.721500  0.435200  1.0
  H  H515  1  0.620100  0.555300  0.341600  1.0
  H  H516  1  0.286300  0.841600  0.221500  1.0
  H  H517  1  0.745200  0.955700  0.894500  1.0
  H  H518  1  0.061200  0.210500  0.455700  1.0
  H  H519  1  0.438800  0.394500  0.649300  1.0
  H  H520  1  0.754800  0.149300  0.710500  1.0
  H  H521  1  0.254800  0.044300  0.105500  1.0
  H  H522  1  0.938800  0.789500  0.544300  1.0
  H  H523  1  0.561200  0.605500  0.350700  1.0
  H  H524  1  0.245200  0.850700  0.289500  1.0
  H  H525  1  0.572600  0.934200  0.741400  1.0
  H  H526  1  0.192800  0.361600  0.434200  1.0
  H  H527  1  0.307200  0.241400  0.668800  1.0
  H  H528  1  0.927400  0.168800  0.861600  1.0
  H  H529  1  0.427400  0.065800  0.258600  1.0
  H  H530  1  0.807200  0.638400  0.565800  1.0
  H  H531  1  0.692800  0.758600  0.331200  1.0
  H  H532  1  0.072600  0.831200  0.138400  1.0
  H  H533  1  0.618300  0.044200  0.795300  1.0
  H  H534  1  0.248900  0.425900  0.544200  1.0
  H  H535  1  0.251100  0.295300  0.677000  1.0
  H  H536  1  0.881700  0.177000  0.925900  1.0
  H  H537  1  0.381700  0.955800  0.204700  1.0
  H  H538  1  0.751100  0.574100  0.455800  1.0
  H  H539  1  0.748900  0.704700  0.323000  1.0
  H  H540  1  0.118300  0.823000  0.074100  1.0
  H  H541  1  0.999000  0.675600  0.017400  1.0
  H  H542  1  0.658200  0.676600  0.175600  1.0
  H  H543  1  0.841800  0.517400  0.518400  1.0
  H  H544  1  0.501000  0.018400  0.176600  1.0
  H  H545  1  0.001000  0.324400  0.982600  1.0
  H  H546  1  0.341800  0.323400  0.824400  1.0
  H  H547  1  0.158200  0.482600  0.481600  1.0
  H  H548  1  0.499000  0.981600  0.823400  1.0
  H  H549  1  0.970400  0.718600  0.033400  1.0
  H  H550  1  0.685200  0.748200  0.218600  1.0
  H  H551  1  0.814800  0.533400  0.563000  1.0
  H  H552  1  0.529600  0.063000  0.248200  1.0
  H  H553  1  0.029600  0.281400  0.966600  1.0
  H  H554  1  0.314800  0.251800  0.781400  1.0
  H  H555  1  0.185200  0.466600  0.437000  1.0
  H  H556  1  0.470400  0.937000  0.751800  1.0
  H  H557  1  0.982300  0.715200  0.974900  1.0
  H  H558  1  0.740300  0.732900  0.215200  1.0
  H  H559  1  0.759700  0.474900  0.492600  1.0
  H  H560  1  0.517700  0.992600  0.232900  1.0
  H  H561  1  0.017700  0.284800  0.025100  1.0
  H  H562  1  0.259700  0.267100  0.784800  1.0
  H  H563  1  0.240300  0.525100  0.507400  1.0
  H  H564  1  0.482300  0.007400  0.767100  1.0
  H  H565  1  0.913200  0.575000  0.913200  1.0
  H  H566  1  0.661800  0.661800  0.075000  1.0
  H  H567  1  0.838200  0.413200  0.500000  1.0
  H  H568  1  0.586800  0.000000  0.161800  1.0
  H  H569  1  0.086800  0.425000  0.086800  1.0
  H  H570  1  0.338200  0.338200  0.925000  1.0
  H  H571  1  0.161800  0.586800  0.500000  1.0
  H  H572  1  0.413200  0.000000  0.838200  1.0
  H  H573  1  0.838300  0.564200  0.865900  1.0
  H  H574  1  0.698300  0.725900  0.064200  1.0
  H  H575  1  0.801700  0.365900  0.527600  1.0
  H  H576  1  0.661700  0.027600  0.225900  1.0
  H  H577  1  0.161700  0.435800  0.134100  1.0
  H  H578  1  0.301700  0.274100  0.935800  1.0
  H  H579  1  0.198300  0.634100  0.472400  1.0
  H  H580  1  0.338300  0.972400  0.774100  1.0
  H  H581  1  0.849200  0.538600  0.922400  1.0
  H  H582  1  0.616200  0.689400  0.038600  1.0
  H  H583  1  0.883800  0.422400  0.573200  1.0
  H  H584  1  0.650800  0.073200  0.189400  1.0
  H  H585  1  0.150800  0.461400  0.077600  1.0
  H  H586  1  0.383800  0.310600  0.961400  1.0
  H  H587  1  0.116200  0.577600  0.426800  1.0
  H  H588  1  0.349200  0.926800  0.810600  1.0
  H  H589  1  0.893900  0.588900  0.027400  1.0
  H  H590  1  0.561500  0.695000  0.088900  1.0
  H  H591  1  0.938500  0.527400  0.633500  1.0
  H  H592  1  0.606100  0.133500  0.195000  1.0
  H  H593  1  0.106100  0.411100  0.972600  1.0
  H  H594  1  0.438500  0.305000  0.911100  1.0
  H  H595  1  0.061500  0.472600  0.366500  1.0
  H  H596  1  0.393900  0.866500  0.805000  1.0
  H  H597  1  0.905300  0.658600  0.052100  1.0
  H  H598  1  0.606500  0.753300  0.158600  1.0
  H  H599  1  0.893500  0.552100  0.646800  1.0
  H  H600  1  0.594700  0.146800  0.253300  1.0
  H  H601  1  0.094700  0.341400  0.947900  1.0
  H  H602  1  0.393500  0.246700  0.841400  1.0
  H  H603  1  0.106500  0.447900  0.353200  1.0
  H  H604  1  0.405300  0.853200  0.746700  1.0
  H  H605  1  0.774200  0.543300  0.951700  1.0
  H  H606  1  0.591600  0.769100  0.043300  1.0
  H  H607  1  0.908400  0.451700  0.677500  1.0
  H  H608  1  0.725800  0.177500  0.269100  1.0
  H  H609  1  0.225800  0.456700  0.048300  1.0
  H  H610  1  0.408400  0.230900  0.956700  1.0
  H  H611  1  0.091600  0.548300  0.322500  1.0
  H  H612  1  0.274200  0.822500  0.730900  1.0
  H  H613  1  0.793100  0.579200  0.022700  1.0
  H  H614  1  0.556500  0.786100  0.079200  1.0
  H  H615  1  0.943500  0.522700  0.729600  1.0
  H  H616  1  0.706900  0.229600  0.286100  1.0
  H  H617  1  0.206900  0.420800  0.977300  1.0
  H  H618  1  0.443500  0.213900  0.920800  1.0
  H  H619  1  0.056500  0.477300  0.270400  1.0
  H  H620  1  0.293100  0.770400  0.713900  1.0
  H  H621  1  0.678200  0.574500  0.952900  1.0
  H  H622  1  0.621600  0.896300  0.074500  1.0
  H  H623  1  0.878400  0.452900  0.774700  1.0
  H  H624  1  0.821800  0.274700  0.396300  1.0
  H  H625  1  0.321800  0.425500  0.047100  1.0
  H  H626  1  0.378400  0.103700  0.925500  1.0
  H  H627  1  0.121600  0.547100  0.225300  1.0
  H  H628  1  0.178200  0.725300  0.603700  1.0
  H  H629  1  0.673900  0.551600  0.886700  1.0
  H  H630  1  0.664900  0.877700  0.051600  1.0
  H  H631  1  0.835100  0.386700  0.712800  1.0
  H  H632  1  0.826100  0.212800  0.377700  1.0
  H  H633  1  0.326100  0.448400  0.113300  1.0
  H  H634  1  0.335100  0.122300  0.948400  1.0
  H  H635  1  0.164900  0.613300  0.287200  1.0
  H  H636  1  0.173900  0.787200  0.622300  1.0
  H  H637  1  0.679200  0.617900  0.911700  1.0
  H  H638  1  0.706200  0.938700  0.117900  1.0
  H  H639  1  0.793800  0.411700  0.732500  1.0
  H  H640  1  0.820800  0.232500  0.438700  1.0
  H  H641  1  0.320800  0.382100  0.088300  1.0
  H  H642  1  0.293800  0.061300  0.882100  1.0
  H  H643  1  0.206200  0.588300  0.267500  1.0
  H  H644  1  0.179200  0.767500  0.561300  1.0
  H  H645  1  0.766900  0.662600  0.035100  1.0
  H  H646  1  0.627500  0.895700  0.162600  1.0
  H  H647  1  0.872500  0.535100  0.768200  1.0
  H  H648  1  0.733100  0.268200  0.395700  1.0
  H  H649  1  0.233100  0.337400  0.964900  1.0
  H  H650  1  0.372500  0.104300  0.837400  1.0
  H  H651  1  0.127500  0.464900  0.231800  1.0
  H  H652  1  0.266900  0.731800  0.604300  1.0
  H  H653  1  0.759500  0.696600  0.985100  1.0
  H  H654  1  0.711500  0.937100  0.196600  1.0
  H  H655  1  0.788500  0.485100  0.725600  1.0
  H  H656  1  0.740500  0.225600  0.437100  1.0
  H  H657  1  0.240500  0.303400  0.014900  1.0
  H  H658  1  0.288500  0.062900  0.803400  1.0
  H  H659  1  0.211500  0.514900  0.274400  1.0
  H  H660  1  0.259500  0.774400  0.562900  1.0
  H  H661  1  0.836200  0.717100  0.041500  1.0
  H  H662  1  0.675600  0.880900  0.217100  1.0
  H  H663  1  0.824400  0.541500  0.705300  1.0
  H  H664  1  0.663800  0.205300  0.380900  1.0
  H  H665  1  0.163800  0.282900  0.958500  1.0
  H  H666  1  0.324400  0.119100  0.782900  1.0
  H  H667  1  0.175600  0.458500  0.294700  1.0
  H  H668  1  0.336200  0.794700  0.619100  1.0
  H  H669  1  0.774500  0.329700  0.919800  1.0
  H  H670  1  0.409900  0.555200  0.829700  1.0
  H  H671  1  0.090100  0.419800  0.645300  1.0
  H  H672  1  0.725500  0.145300  0.055200  1.0
  H  H673  1  0.225500  0.670300  0.080200  1.0
  H  H674  1  0.590100  0.444800  0.170300  1.0
  H  H675  1  0.909900  0.580200  0.354700  1.0
  H  H676  1  0.274500  0.854700  0.944800  1.0
  H  H677  1  0.704100  0.259300  0.887000  1.0
  H  H678  1  0.372300  0.555200  0.759300  1.0
  H  H679  1  0.127700  0.387000  0.682900  1.0
  H  H680  1  0.795900  0.182900  0.055200  1.0
  H  H681  1  0.295900  0.740700  0.113000  1.0
  H  H682  1  0.627700  0.444800  0.240700  1.0
  H  H683  1  0.872300  0.613000  0.317100  1.0
  H  H684  1  0.204100  0.817100  0.944800  1.0
  H  H685  1  0.758300  0.271800  0.864500  1.0
  H  H686  1  0.407300  0.513500  0.771800  1.0
  H  H687  1  0.092700  0.364500  0.606200  1.0
  H  H688  1  0.741700  0.106200  0.013500  1.0
  H  H689  1  0.241700  0.728200  0.135500  1.0
  H  H690  1  0.592700  0.486500  0.228200  1.0
  H  H691  1  0.907300  0.635500  0.393800  1.0
  H  H692  1  0.258300  0.893800  0.986500  1.0
  H  H693  1  0.889100  0.351100  0.994600  1.0
  H  H694  1  0.356500  0.462000  0.851100  1.0
  H  H695  1  0.143500  0.494600  0.605500  1.0
  H  H696  1  0.610900  0.105500  0.962000  1.0
  H  H697  1  0.110900  0.648900  0.005400  1.0
  H  H698  1  0.643500  0.538000  0.148900  1.0
  H  H699  1  0.856500  0.505400  0.394500  1.0
  H  H700  1  0.389100  0.894500  0.038000  1.0
  H  H701  1  0.877200  0.294900  0.940900  1.0
  H  H702  1  0.354000  0.417700  0.794900  1.0
  H  H703  1  0.146000  0.440900  0.563700  1.0
  H  H704  1  0.622800  0.063700  0.917700  1.0
  H  H705  1  0.122800  0.705100  0.059100  1.0
  H  H706  1  0.646000  0.582300  0.205100  1.0
  H  H707  1  0.854000  0.559100  0.436300  1.0
  H  H708  1  0.377200  0.936300  0.082300  1.0
  H  H709  1  0.898000  0.294500  0.011100  1.0
  H  H710  1  0.283400  0.396500  0.794500  1.0
  H  H711  1  0.216600  0.511100  0.613100  1.0
  H  H712  1  0.602000  0.113100  0.896500  1.0
  H  H713  1  0.102000  0.705500  0.988900  1.0
  H  H714  1  0.716600  0.603500  0.205500  1.0
  H  H715  1  0.783400  0.488900  0.386900  1.0
  H  H716  1  0.398000  0.886900  0.103500  1.0
  H  H717  1  0.823900  0.280500  0.048800  1.0
  H  H718  1  0.231700  0.456600  0.780500  1.0
  H  H719  1  0.268300  0.548800  0.724900  1.0
  H  H720  1  0.676100  0.224900  0.956600  1.0
  H  H721  1  0.176100  0.719500  0.951200  1.0
  H  H722  1  0.768300  0.543400  0.219500  1.0
  H  H723  1  0.731700  0.451200  0.275100  1.0
  H  H724  1  0.323900  0.775100  0.043400  1.0
  H  H725  1  0.790800  0.320900  0.022100  1.0
  H  H726  1  0.298800  0.530100  0.820900  1.0
  H  H727  1  0.201200  0.522100  0.731300  1.0
  H  H728  1  0.709200  0.231300  0.030100  1.0
  H  H729  1  0.209200  0.679100  0.977900  1.0
  H  H730  1  0.701200  0.469900  0.179100  1.0
  H  H731  1  0.798800  0.477900  0.268700  1.0
  H  H732  1  0.290800  0.768700  0.969900  1.0
  N  N733  1  0.684000  0.350700  0.323700  1
  N  N734  1  0.027000  0.666700  0.850700  1
  N  N735  1  0.473000  0.823700  0.139700  1
  N  N736  1  0.816000  0.639700  0.166700  1
  N  N737  1  0.316000  0.649300  0.676300  1
  N  N738  1  0.973000  0.333300  0.149300  1
  N  N739  1  0.527000  0.176300  0.860300  1
  N  N740  1  0.184000  0.360300  0.833300  1
  N  N741  1  0.434700  0.100300  0.111400  1
  N  N742  1  0.988900  0.665600  0.600300  1
  N  N743  1  0.511100  0.611400  0.176700  1
  N  N744  1  0.065300  0.676700  0.165600  1
  N  N745  1  0.565300  0.899700  0.888600  1
  N  N746  1  0.011100  0.334400  0.399700  1
  N  N747  1  0.488900  0.388600  0.823300  1
  N  N748  1  0.934700  0.323300  0.834400  1
  N  N749  1  0.797100  0.272800  0.619500  1
  N  N750  1  0.653300  0.475700  0.772800  1
  N  N751  1  0.846700  0.119500  0.322400  1
  N  N752  1  0.702900  0.822400  0.975700  1
  N  N753  1  0.202900  0.727200  0.380500  1
  N  N754  1  0.346700  0.524300  0.227200  1
  N  N755  1  0.153300  0.880500  0.677600  1
  N  N756  1  0.297100  0.177600  0.024300  1
  N  N757  1  0.549600  0.100900  0.417500  1
  N  N758  1  0.683400  0.551300  0.600900  1
  N  N759  1  0.816600  0.917500  0.367900  1
  N  N760  1  0.950400  0.867900  0.051300  1
  N  N761  1  0.450400  0.899100  0.582500  1
  N  N762  1  0.316600  0.448700  0.399100  1
  N  N763  1  0.183400  0.082500  0.632100  1
  N  N764  1  0.049600  0.132100  0.948700  1
  N  N765  1  0.599400  0.310700  0.289300  1
  N  N766  1  0.021400  0.711300  0.810700  1
  N  N767  1  0.478600  0.789300  0.189900  1
  N  N768  1  0.900600  0.689900  0.211300  1
  N  N769  1  0.400600  0.689300  0.710700  1
  N  N770  1  0.978600  0.288700  0.189300  1
  N  N771  1  0.521400  0.210700  0.810100  1
  N  N772  1  0.099400  0.310100  0.788700  1
  N  N773  1  0.865290  0.698230  0.858040  1.0
  N  N774  1  0.840190  0.832940  0.198230  1.0
  N  N775  1  0.659810  0.358040  0.492750  1.0
  N  N776  1  0.634710  0.992750  0.332940  1.0
  N  N777  1  0.134710  0.301770  0.141960  1.0
  N  N778  1  0.159810  0.167060  0.801770  1.0
  N  N779  1  0.340190  0.641960  0.507250  1.0
  N  N780  1  0.365290  0.007250  0.667060  1.0
  N  N781  1  0.758290  0.696040  0.872110  1.0
  N  N782  1  0.823930  0.937750  0.196040  1.0
  N  N783  1  0.676070  0.372110  0.613820  1.0
  N  N784  1  0.741710  0.113820  0.437750  1.0
  N  N785  1  0.241710  0.303960  0.127890  1.0
  N  N786  1  0.176070  0.062250  0.803960  1.0
  N  N787  1  0.323930  0.627890  0.386180  1.0
  N  N788  1  0.258290  0.886180  0.562250  1.0
  N  N789  1  0.706380  0.065030  0.874550  1.0
  N  N790  1  0.190480  0.358650  0.565030  1.0
  N  N791  1  0.309520  0.374550  0.668170  1.0
  N  N792  1  0.793620  0.168170  0.858650  1.0
  N  N793  1  0.293620  0.934970  0.125450  1.0
  N  N794  1  0.809520  0.641350  0.434970  1.0
  N  N795  1  0.690480  0.625450  0.331830  1.0
  N  N796  1  0.206380  0.831830  0.141350  1.0
  N  N797  1  0.577130  0.735350  0.718480  1.0
  N  N798  1  0.016870  0.158220  0.235350  1.0
  N  N799  1  0.483130  0.218480  0.641350  1.0
  N  N800  1  0.922870  0.141350  0.658220  1.0
  N  N801  1  0.422870  0.264650  0.281520  1.0
  N  N802  1  0.983130  0.841780  0.764650  1.0
  N  N803  1  0.516870  0.781520  0.358650  1.0
  N  N804  1  0.077130  0.858650  0.341780  1.0
  N  N805  1  0.894100  0.737020  0.673720  1.0
  N  N806  1  0.063300  0.842920  0.237020  1.0
  N  N807  1  0.436700  0.173720  0.279620  1.0
  N  N808  1  0.605900  0.779620  0.342920  1.0
  N  N809  1  0.105900  0.262980  0.326280  1.0
  N  N810  1  0.936700  0.157080  0.762980  1.0
  N  N811  1  0.563300  0.826280  0.720380  1.0
  N  N812  1  0.394100  0.220380  0.657080  1.0
  N  N813  1  0.665720  0.839150  0.809870  1.0
  N  N814  1  0.029280  0.173430  0.339150  1.0
  N  N815  1  0.470720  0.309870  0.644150  1.0
  N  N816  1  0.834280  0.144150  0.673430  1.0
  N  N817  1  0.334280  0.160850  0.190130  1.0
  N  N818  1  0.970720  0.826570  0.660850  1.0
  N  N819  1  0.529280  0.690130  0.355850  1.0
  N  N820  1  0.165720  0.855850  0.326570  1.0
  N  N821  1  0.893800  0.633890  0.953490  1.0
  N  N822  1  0.680400  0.740090  0.133890  1.0
  N  N823  1  0.819600  0.453490  0.559690  1.0
  N  N824  1  0.606200  0.059690  0.240090  1.0
  N  N825  1  0.106200  0.366110  0.046510  1.0
  N  N826  1  0.319600  0.259910  0.866110  1.0
  N  N827  1  0.180400  0.546510  0.440310  1.0
  N  N828  1  0.393800  0.940310  0.759910  1.0
  N  N829  1  0.783650  0.629890  0.966940  1.0
  N  N830  1  0.662950  0.846240  0.129890  1.0
  N  N831  1  0.837050  0.466940  0.683290  1.0
  N  N832  1  0.716350  0.183290  0.346240  1.0
  N  N833  1  0.216350  0.370110  0.033060  1.0
  N  N834  1  0.337050  0.153760  0.870110  1.0
  N  N835  1  0.162950  0.533060  0.316710  1.0
  N  N836  1  0.283650  0.816710  0.653760  1.0
  N  N837  1  0.793400  0.264530  0.952730  1.0
  N  N838  1  0.311800  0.471130  0.764530  1.0
  N  N839  1  0.188200  0.452730  0.659330  1.0
  N  N840  1  0.706600  0.159330  0.971130  1.0
  N  N841  1  0.206600  0.735470  0.047270  1.0
  N  N842  1  0.688200  0.528870  0.235470  1.0
  N  N843  1  0.811800  0.547270  0.340670  1.0
  N  N844  1  0.293400  0.840670  0.028870  1.0
  O  O845  1  0.713400  0.335200  0.295800  1
  O  O846  1  0.039400  0.621800  0.835200  1
  O  O847  1  0.460600  0.795800  0.082400  1
  O  O848  1  0.786600  0.582400  0.121800  1
  O  O849  1  0.286600  0.664800  0.704200  1
  O  O850  1  0.960600  0.378200  0.164800  1
  O  O851  1  0.539400  0.204200  0.917600  1
  O  O852  1  0.213400  0.417600  0.878200  1
  O  O853  1  0.707600  0.362000  0.380600  1
  O  O854  1  0.981400  0.654400  0.862000  1
  O  O855  1  0.518600  0.880600  0.173000  1
  O  O856  1  0.792400  0.673000  0.154400  1
  O  O857  1  0.292400  0.638000  0.619400  1
  O  O858  1  0.018600  0.345600  0.138000  1
  O  O859  1  0.481400  0.119400  0.827000  1
  O  O860  1  0.207600  0.327000  0.845600  1
  O  O861  1  0.632300  0.359100  0.293800  1
  O  O862  1  0.065300  0.726800  0.859100  1
  O  O863  1  0.434700  0.793800  0.161500  1
  O  O864  1  0.867700  0.661500  0.226800  1
  O  O865  1  0.367700  0.640900  0.706200  1
  O  O866  1  0.934700  0.273200  0.140900  1
  O  O867  1  0.565300  0.206200  0.838500  1
  O  O868  1  0.132300  0.338500  0.773200  1
  O  O869  1  0.498500  0.143100  0.164400  1
  O  O870  1  0.978700  0.644600  0.643100  1
  O  O871  1  0.521300  0.664400  0.165900  1
  O  O872  1  0.001500  0.665900  0.144600  1
  O  O873  1  0.501500  0.856900  0.835600  1
  O  O874  1  0.021300  0.355400  0.356900  1
  O  O875  1  0.478700  0.335600  0.834100  1
  O  O876  1  0.998500  0.334100  0.855400  1
  O  O877  1  0.414100  0.044500  0.084000  1
  O  O878  1  0.960500  0.630400  0.544500  1
  O  O879  1  0.539500  0.584000  0.169900  1
  O  O880  1  0.085900  0.669900  0.130400  1
  O  O881  1  0.585900  0.955500  0.916000  1
  O  O882  1  0.039500  0.369600  0.455500  1
  O  O883  1  0.460500  0.416000  0.830100  1
  O  O884  1  0.914100  0.330100  0.869600  1
  O  O885  1  0.394700  0.119000  0.077300  1
  O  O886  1  0.041700  0.724300  0.619000  1
  O  O887  1  0.458300  0.577300  0.182600  1
  O  O888  1  0.105300  0.682600  0.224300  1
  O  O889  1  0.605300  0.881000  0.922700  1
  O  O890  1  0.958300  0.275700  0.381000  1
  O  O891  1  0.541700  0.422700  0.817400  1
  O  O892  1  0.894700  0.317400  0.775700  1
  O  O893  1  0.769800  0.251700  0.653900  1
  O  O894  1  0.597800  0.481900  0.751700  1
  O  O895  1  0.902200  0.153900  0.384100  1
  O  O896  1  0.730200  0.884100  0.981900  1
  O  O897  1  0.230200  0.748300  0.346100  1
  O  O898  1  0.402200  0.518100  0.248300  1
  O  O899  1  0.097800  0.846100  0.615900  1
  O  O900  1  0.269800  0.115900  0.018100  1
  O  O901  1  0.859800  0.292000  0.640400  1
  O  O902  1  0.651600  0.432200  0.792000  1
  O  O903  1  0.848400  0.140400  0.280600  1
  O  O904  1  0.640200  0.780600  0.932200  1
  O  O905  1  0.140200  0.708000  0.359600  1
  O  O906  1  0.348400  0.567800  0.208000  1
  O  O907  1  0.151600  0.859600  0.719400  1
  O  O908  1  0.359800  0.219400  0.067800  1
  O  O909  1  0.757400  0.279800  0.571800  1
  O  O910  1  0.708000  0.522400  0.779800  1
  O  O911  1  0.792000  0.071800  0.314400  1
  O  O912  1  0.742600  0.814400  0.022400  1
  O  O913  1  0.242600  0.720200  0.428200  1
  O  O914  1  0.292000  0.477600  0.220200  1
  O  O915  1  0.208000  0.928200  0.685600  1
  O  O916  1  0.257400  0.185600  0.977600  1
  O  O917  1  0.529900  0.050100  0.432200  1
  O  O918  1  0.617900  0.520200  0.550100  1
  O  O919  1  0.882100  0.932200  0.402300  1
  O  O920  1  0.970100  0.902300  0.020200  1
  O  O921  1  0.470100  0.949900  0.567800  1
  O  O922  1  0.382100  0.479800  0.449900  1
  O  O923  1  0.117900  0.067800  0.597700  1
  O  O924  1  0.029900  0.097700  0.979800  1
  O  O925  1  0.594200  0.153500  0.463700  1
  O  O926  1  0.689800  0.559300  0.653500  1
  O  O927  1  0.810200  0.963700  0.369500  1
  O  O928  1  0.905800  0.869500  0.059300  1
  O  O929  1  0.405800  0.846500  0.536300  1
  O  O930  1  0.310200  0.440700  0.346500  1
  O  O931  1  0.189800  0.036300  0.630500  1
  O  O932  1  0.094200  0.130500  0.940700  1
  O  O933  1  0.554400  0.097300  0.366300  1
  O  O934  1  0.731000  0.542900  0.597300  1
  O  O935  1  0.769000  0.866300  0.311900  1
  O  O936  1  0.945600  0.811900  0.042900  1
  O  O937  1  0.445600  0.902700  0.633700  1
  O  O938  1  0.269000  0.457100  0.402700  1
  O  O939  1  0.231000  0.133700  0.688100  1
  O  O940  1  0.054400  0.188100  0.957100  1
  O  O941  1  0.895800  0.283800  0.535000  1
  O  O942  1  0.748800  0.388000  0.783800  1
  O  O943  1  0.751200  0.035000  0.139200  1
  O  O944  1  0.604200  0.639200  0.888000  1
  O  O945  1  0.104200  0.716200  0.465000  1
  O  O946  1  0.251200  0.612000  0.216200  1
  O  O947  1  0.248800  0.965000  0.860800  1
  O  O948  1  0.395800  0.360800  0.112000  1
  O  O949  1  0.621400  0.168100  0.689700  1
  O  O950  1  0.478400  0.546700  0.668100  1
  O  O951  1  0.021600  0.189700  0.568300  1
  O  O952  1  0.878600  0.068300  0.046700  1
  O  O953  1  0.378600  0.831900  0.310300  1
  O  O954  1  0.521600  0.453300  0.331900  1
  O  O955  1  0.978400  0.810300  0.431700  1
  O  O956  1  0.121400  0.931700  0.953300  1
  O  O957  1  0.750000  0.375000  0.125000  1
  O  O958  1  0.250000  0.625000  0.875000  1
  O  O959  1  0.049400  0.618000  0.505200  1
  O  O960  1  0.112800  0.568600  0.118000  1
  O  O961  1  0.387200  0.005200  0.955800  1
  O  O962  1  0.450600  0.455800  0.068600  1
  O  O963  1  0.950600  0.382000  0.494800  1
  O  O964  1  0.887200  0.431400  0.882000  1
  O  O965  1  0.612800  0.994800  0.044200  1
  O  O966  1  0.549400  0.544200  0.931400  1
  O  O967  1  0.974400  0.505700  0.398300  1
  O  O968  1  0.107400  0.531300  0.005700  1
  O  O969  1  0.392600  0.898300  0.923900  1
  O  O970  1  0.525600  0.423900  0.031300  1
  O  O971  1  0.025600  0.494300  0.601700  1
  O  O972  1  0.892600  0.468700  0.994300  1
  O  O973  1  0.607400  0.101700  0.076100  1
  O  O974  1  0.474400  0.576100  0.968700  1
  O  O975  1  0.867200  0.384700  0.373500  1
  O  O976  1  0.011200  0.517500  0.884700  1
  O  O977  1  0.488800  0.873500  0.006300  1
  O  O978  1  0.632800  0.506300  0.017500  1
  O  O979  1  0.132800  0.615300  0.626500  1
  O  O980  1  0.988800  0.482500  0.115300  1
  O  O981  1  0.511200  0.126500  0.993700  1
  O  O982  1  0.367200  0.493700  0.982500  1
  O  O983  1  0.957300  0.520700  0.290400  1
  O  O984  1  0.230300  0.563400  0.020700  1
  O  O985  1  0.269700  0.790400  0.833100  1
  O  O986  1  0.542700  0.333100  0.063400  1
  O  O987  1  0.042700  0.479300  0.709600  1
  O  O988  1  0.769700  0.436600  0.979300  1
  O  O989  1  0.730300  0.209600  0.166900  1
  O  O990  1  0.457300  0.666900  0.936600  1
  O  O991  1  0.687000  0.306800  0.182800  1
  O  O992  1  0.124000  0.619800  0.806800  1
  O  O993  1  0.376000  0.682800  0.995800  1
  O  O994  1  0.813000  0.495800  0.119800  1
  O  O995  1  0.313000  0.693200  0.817200  1
  O  O996  1  0.876000  0.380200  0.193200  1
  O  O997  1  0.624000  0.317200  0.004200  1
  O  O998  1  0.187000  0.504200  0.880200  1
  O  O999  1  0.961200  0.554500  0.190700  1
  O  O1000  1  0.363800  0.593300  0.054500  1
  O  O1001  1  0.136200  0.690700  0.729500  1
  O  O1002  1  0.538800  0.229500  0.093300  1
  O  O1003  1  0.038800  0.445500  0.809300  1
  O  O1004  1  0.636200  0.406700  0.945500  1
  O  O1005  1  0.863800  0.309300  0.270500  1
  O  O1006  1  0.461200  0.770500  0.906700  1
  O  O1007  1  0.495500  0.253400  0.193300  1
  O  O1008  1  0.060100  0.757900  0.753400  1
  O  O1009  1  0.439900  0.693300  0.197800  1
  O  O1010  1  0.004500  0.697800  0.257900  1
  O  O1011  1  0.504500  0.746600  0.806700  1
  O  O1012  1  0.939900  0.242100  0.246600  1
  O  O1013  1  0.560100  0.306700  0.802200  1
  O  O1014  1  0.995500  0.302200  0.742100  1
  O  O1015  1  0.746100  0.277400  0.744300  1
  O  O1016  1  0.533100  0.531300  0.777400  1
  O  O1017  1  0.966900  0.244300  0.498200  1
  O  O1018  1  0.753900  0.998200  0.031300  1
  O  O1019  1  0.253900  0.722600  0.255700  1
  O  O1020  1  0.466900  0.468700  0.222600  1
  O  O1021  1  0.033100  0.755700  0.501800  1
  O  O1022  1  0.246100  0.001800  0.968700  1
  O  O1023  1  0.423100  0.925900  0.340200  1
  O  O1024  1  0.585700  0.502800  0.425900  1
  O  O1025  1  0.914300  0.840200  0.417100  1
  O  O1026  1  0.076900  0.917100  0.002800  1
  O  O1027  1  0.576900  0.074100  0.659800  1
  O  O1028  1  0.414300  0.497200  0.574100  1
  O  O1029  1  0.085700  0.159800  0.582900  1
  O  O1030  1  0.923100  0.082900  0.997200  1
  O  O1031  1  0.653700  0.469100  0.370000  1
  O  O1032  1  0.099100  0.815400  0.969100  1
  O  O1033  1  0.400900  0.870000  0.216300  1
  O  O1034  1  0.846300  0.716300  0.315400  1
  O  O1035  1  0.346300  0.530900  0.630000  1
  O  O1036  1  0.900900  0.184600  0.030900  1
  O  O1037  1  0.599100  0.130000  0.783700  1
  O  O1038  1  0.153700  0.283700  0.684600  1
  O  O1039  1  0.637700  0.156500  0.595800  1
  O  O1040  1  0.560700  0.518800  0.656500  1
  O  O1041  1  0.939300  0.095800  0.458100  1
  O  O1042  1  0.862300  0.958100  0.018800  1
  O  O1043  1  0.362300  0.843500  0.404200  1
  O  O1044  1  0.439300  0.481200  0.343500  1
  O  O1045  1  0.060700  0.904200  0.541900  1
  O  O1046  1  0.137700  0.041900  0.981200  1
  O  O1047  1  0.590600  0.254100  0.265300  1
  O  O1048  1  0.988800  0.663500  0.754100  1
  O  O1049  1  0.511200  0.765300  0.174700  1
  O  O1050  1  0.909400  0.674700  0.163500  1
  O  O1051  1  0.409400  0.745900  0.734700  1
  O  O1052  1  0.011200  0.336500  0.245900  1
  O  O1053  1  0.488800  0.234700  0.825300  1
  O  O1054  1  0.090600  0.325300  0.836500  1
  O  O1055  1  0.550600  0.318900  0.264900  1
  O  O1056  1  0.054000  0.768300  0.818900  1
  O  O1057  1  0.446000  0.764900  0.214300  1
  O  O1058  1  0.949400  0.714300  0.268300  1
  O  O1059  1  0.449400  0.681100  0.735100  1
  O  O1060  1  0.946000  0.231700  0.181100  1
  O  O1061  1  0.554000  0.235100  0.785700  1
  O  O1062  1  0.050600  0.285700  0.731700  1
  O  O1063  1  0.658100  0.360200  0.342900  1
  O  O1064  1  0.017300  0.702100  0.860200  1
  O  O1065  1  0.482700  0.842900  0.184800  1
  O  O1066  1  0.841900  0.684800  0.202100  1
  O  O1067  1  0.341900  0.639800  0.657100  1
  O  O1068  1  0.982700  0.297900  0.139800  1
  O  O1069  1  0.517300  0.157100  0.815200  1
  O  O1070  1  0.158100  0.315200  0.797900  1
  O  O1071  1  0.779200  0.290000  0.562200  1
  O  O1072  1  0.727800  0.510800  0.790000  1
  O  O1073  1  0.772200  0.062200  0.283000  1
  O  O1074  1  0.720800  0.783000  0.010800  1
  O  O1075  1  0.220800  0.710000  0.437800  1
  O  O1076  1  0.272200  0.489200  0.210000  1
  O  O1077  1  0.227800  0.937800  0.717000  1
  O  O1078  1  0.279200  0.217000  0.989200  1
  O  O1079  1  0.921900  0.325200  0.633100  1
  O  O1080  1  0.692100  0.403300  0.825200  1
  O  O1081  1  0.807900  0.133100  0.211200  1
  O  O1082  1  0.578100  0.711200  0.903300  1
  O  O1083  1  0.078100  0.674800  0.366900  1
  O  O1084  1  0.307900  0.596700  0.174800  1
  O  O1085  1  0.192100  0.866900  0.788800  1
  O  O1086  1  0.421900  0.288800  0.096700  1
  O  O1087  1  0.375800  0.038900  0.058100  1
  O  O1088  1  0.980800  0.663100  0.538900  1
  O  O1089  1  0.519200  0.558100  0.182300  1
  O  O1090  1  0.124200  0.682300  0.163100  1
  O  O1091  1  0.624200  0.961100  0.941900  1
  O  O1092  1  0.019200  0.336900  0.461100  1
  O  O1093  1  0.480800  0.441900  0.817700  1
  O  O1094  1  0.875800  0.317700  0.836900  1
  O  O1095  1  0.756500  0.348400  0.318100  1
  O  O1096  1  0.030300  0.591900  0.848400  1
  O  O1097  1  0.469700  0.818100  0.061600  1
  O  O1098  1  0.743500  0.561600  0.091900  1
  O  O1099  1  0.243500  0.651600  0.681900  1
  O  O1100  1  0.969700  0.408100  0.151600  1
  O  O1101  1  0.530300  0.181900  0.938400  1
  O  O1102  1  0.256500  0.438400  0.908100  1
  O  O1103  1  0.916000  0.439600  0.413400  1
  O  O1104  1  0.026200  0.523600  0.939600  1
  O  O1105  1  0.473800  0.913400  0.997400  1
  O  O1106  1  0.584000  0.497400  0.023600  1
  O  O1107  1  0.084000  0.560400  0.586600  1
  O  O1108  1  0.973800  0.476400  0.060400  1
  O  O1109  1  0.526200  0.086600  0.002600  1
  O  O1110  1  0.416000  0.502600  0.976400  1
  O  O1111  1  0.663500  0.328000  0.170300  1
  O  O1112  1  0.157700  0.664500  0.828000  1
  O  O1113  1  0.342300  0.670300  0.006800  1
  O  O1114  1  0.836500  0.506800  0.164500  1
  O  O1115  1  0.336500  0.672000  0.829700  1
  O  O1116  1  0.842300  0.335500  0.172000  1
  O  O1117  1  0.657700  0.329700  0.993200  1
  O  O1118  1  0.163500  0.493200  0.835500  1
  O  O1119  1  0.453100  0.178500  0.140200  1
  O  O1120  1  0.038300  0.725400  0.678500  1
  O  O1121  1  0.461700  0.640200  0.187100  1
  O  O1122  1  0.046900  0.687100  0.225400  1
  O  O1123  1  0.546900  0.821500  0.859800  1
  O  O1124  1  0.961700  0.274600  0.321500  1
  O  O1125  1  0.538300  0.359800  0.812900  1
  O  O1126  1  0.953100  0.312900  0.774600  1
  O  O1127  1  0.466100  0.009200  0.342100  1
  O  O1128  1  0.667100  0.543100  0.509200  1
  O  O1129  1  0.832900  0.842100  0.376000  1
  O  O1130  1  0.033900  0.876000  0.043100  1
  O  O1131  1  0.533900  0.990800  0.657900  1
  O  O1132  1  0.332900  0.456900  0.490800  1
  O  O1133  1  0.167100  0.157900  0.624000  1
  O  O1134  1  0.966100  0.124000  0.956900  1
  O  O1135  1  0.540700  0.087700  0.373600  1
  O  O1136  1  0.714100  0.547000  0.587700  1
  O  O1137  1  0.785900  0.873600  0.332900  1
  O  O1138  1  0.959300  0.832900  0.047000  1
  O  O1139  1  0.459300  0.912300  0.626400  1
  O  O1140  1  0.285900  0.453000  0.412300  1
  O  O1141  1  0.214100  0.126400  0.667100  1
  O  O1142  1  0.040700  0.167100  0.953000  1
  O  O1143  1  0.966000  0.965000  0.407000  1.0
  O  O1144  1  0.558000  0.999000  0.465000  1.0
  O  O1145  1  0.942000  0.907000  0.941000  1.0
  O  O1146  1  0.534000  0.441000  0.499000  1.0
  O  O1147  1  0.034000  0.035000  0.593000  1.0
  O  O1148  1  0.442000  0.001000  0.535000  1.0
  O  O1149  1  0.058000  0.093000  0.059000  1.0
  O  O1150  1  0.466000  0.559000  0.501000  1.0
  Pd  Pd1151  1  0.750000  0.164226  0.914226  1.0
  Pd  Pd1152  1  0.250000  0.414226  0.664226  1.0
  Pd  Pd1153  1  0.250000  0.835774  0.085774  1.0
  Pd  Pd1154  1  0.750000  0.585774  0.335774  1.0
  Pd  Pd1155  1  0.824783  0.664070  0.912255  1.0
  Pd  Pd1156  1  0.751815  0.839287  0.164070  1.0
  Pd  Pd1157  1  0.748185  0.412255  0.587472  1.0
  Pd  Pd1158  1  0.675217  0.087472  0.339287  1.0
  Pd  Pd1159  1  0.175217  0.335930  0.087745  1.0
  Pd  Pd1160  1  0.248185  0.160713  0.835930  1.0
  Pd  Pd1161  1  0.251815  0.587745  0.412528  1.0
  Pd  Pd1162  1  0.324783  0.912528  0.660713  1.0
