
#######################################################################
#
#                 Cambridge Crystallographic Data Centre
#                                CCDC 
#
#######################################################################
#
# If this CIF has been generated from an entry in the Cambridge 
# Structural Database, then it will include bibliographic, chemical, 
# crystal, experimental, refinement or atomic coordinate data resulting 
# from the CCDC's data processing and validation procedures.
#
#######################################################################

data_TAXFEE01
_chemical_formula_moiety         'C80 H68 Fe4 N20 4+,4(F6 P1 1-)'
_chemical_name_systematic        
"tetrakis(\m~2~-Cyano-C,N)-tetrakis(2,2'-bipyridine-N,N')-bis(tris(2-pyridylmethyl)amine-N,N',N'',N''')-tetra-iron(ii) tetrakis(hexafluorophosphate)"
_symmetry_cell_setting           triclinic
_symmetry_space_group_name_H-M   'P -1'
_symmetry_Int_Tables_number      2
_space_group_name_Hall           '-P 1'
loop_
_symmetry_equiv_pos_site_id
_symmetry_equiv_pos_as_xyz
1 x,y,z
2 -x,-y,-z
_cell_length_a                   14.4704(17)
_cell_length_b                   15.1651(18)
_cell_length_c                   22.536(3)
_cell_angle_alpha                77.326(2)
_cell_angle_beta                 83.317(2)
_cell_angle_gamma                63.709(2)
_cell_volume                     4324.76
_exptl_crystal_colour            'dark red'
_exptl_crystal_description       block
_cell_formula_units_Z            2
_exptl_crystal_preparation       
'three iron atoms are low spin state, one is high spin state'
loop_
_atom_site_label
_atom_site_type_symbol
_atom_site_fract_x
_atom_site_fract_y
_atom_site_fract_z
Fe1 Fe 0.03949(7) 0.43419(7) 0.32141(4)
Fe2 Fe -0.07973(7) 0.33672(7) 0.15493(4)
Fe3 Fe 0.26160(7) 0.03496(7) 0.16584(4)
Fe4 Fe 0.39895(7) 0.17708(6) 0.29515(4)
N1 N -0.0300(4) 0.3929(4) 0.2121(3)
N2 N 0.0694(4) 0.2330(4) 0.1343(2)
N3 N 0.3464(4) 0.1154(4) 0.2490(2)
N4 N 0.2592(4) 0.2689(4) 0.3117(2)
N5 N 0.0936(4) 0.4607(4) 0.3900(2)
N6 N 0.0946(4) 0.5277(4) 0.2744(2)
N7 N -0.0222(4) 0.3517(4) 0.3734(2)
N8 N -0.1019(4) 0.5394(4) 0.3300(2)
N9 N -0.1628(4) 0.3003(4) 0.0936(3)
N10 N -0.0981(5) 0.2068(4) 0.2083(3)
N11 N -0.2408(4) 0.4102(4) 0.1877(2)
N12 N -0.1113(4) 0.4532(4) 0.0745(3)
N13 N 0.1980(4) -0.0184(4) 0.1184(2)
N14 N 0.1908(4) -0.0183(4) 0.2331(2)
N15 N 0.3507(4) 0.0674(4) 0.0999(2)
N16 N 0.3892(4) -0.0950(4) 0.1783(2)
N17 N 0.5448(4) 0.0856(4) 0.2769(2)
N18 N 0.4145(4) 0.2592(4) 0.2169(2)
N19 N 0.4596(4) 0.2342(4) 0.3411(2)
N20 N 0.4140(4) 0.0723(4) 0.3677(2)
C1 C -0.0010(4) 0.4093(5) 0.2527(3)
C2 C 0.1433(6) 0.1607(5) 0.1467(3)
C3 C 0.3129(5) 0.0859(4) 0.2171(3)
C4 C 0.1743(5) 0.3271(5) 0.3157(3)
C5 C 0.0924(5) 0.4210(5) 0.4491(3)
H1 H 0.0551 0.3833 0.4619
C6 C 0.1434(6) 0.4334(6) 0.4913(3)
H2 H 0.1421 0.4031 0.5318
C7 C 0.1967(6) 0.4908(6) 0.4740(3)
H3 H 0.2315 0.5003 0.5024
C8 C 0.1975(5) 0.5339(5) 0.4139(3)
H4 H 0.2317 0.5745 0.4013
C9 C 0.1481(5) 0.5171(5) 0.3727(3)
C10 C 0.1490(5) 0.5534(5) 0.3064(3)
C11 C 0.2030(6) 0.6087(5) 0.2787(3)
H5 H 0.2408 0.6245 0.3017
C12 C 0.1994(6) 0.6394(5) 0.2164(3)
H6 H 0.2362 0.6749 0.1966
C13 C 0.1404(5) 0.6169(5) 0.1839(3)
H7 H 0.1344 0.6396 0.1420
C14 C 0.0911(5) 0.5611(5) 0.2134(3)
H8 H 0.0530 0.5451 0.1907
C15 C 0.0238(6) 0.2522(6) 0.3941(3)
H9 H 0.0929 0.2173 0.3838
C16 C -0.0250(7) 0.1997(7) 0.4292(4)
H10 H 0.0107 0.1312 0.4430
C17 C -0.1265(8) 0.2487(8) 0.4437(4)
H11 H -0.1608 0.2139 0.4679
C18 C -0.1785(6) 0.3505(7) 0.4224(4)
H12 H -0.2481 0.3853 0.4316
C19 C -0.1234(5) 0.3996(6) 0.3867(3)
C20 C -0.1711(5) 0.5073(6) 0.3622(3)
C21 C -0.2735(5) 0.5712(7) 0.3677(3)
H13 H -0.3184 0.5478 0.3909
C22 C -0.3090(6) 0.6683(8) 0.3393(4)
H14 H -0.3784 0.7115 0.3424
C23 C -0.2422(6) 0.7025(6) 0.3062(4)
H15 H -0.2656 0.7690 0.2864
C24 C -0.1373(5) 0.6356(6) 0.3025(3)
H16 H -0.0915 0.6589 0.2803
C25 C -0.1302(7) 0.1903(6) 0.1107(4)
H17 H -0.1780 0.1733 0.0944
H18 H -0.0624 0.1554 0.0931
C26 C -0.1269(5) 0.1573(6) 0.1772(4)
C27 C -0.1401(6) 0.0723(6) 0.2063(5)
H19 H -0.1569 0.0360 0.1846
C28 C -0.1273(6) 0.0439(7) 0.2684(5)
H20 H -0.1375 -0.0115 0.2889
C29 C -0.1003(7) 0.0944(7) 0.3003(5)
H21 H -0.0911 0.0741 0.3421
C30 C -0.0868(6) 0.1767(6) 0.2691(4)
H22 H -0.0694 0.2128 0.2905
C31 C -0.2764(6) 0.3587(6) 0.1019(4)
H23 H -0.3107 0.3182 0.0974
H24 H -0.3005 0.4179 0.0701
C32 C -0.3069(5) 0.3905(5) 0.1631(3)
C33 C -0.4030(6) 0.4032(6) 0.1905(4)
H25 H -0.4483 0.3894 0.1722
C34 C -0.4291(6) 0.4367(6) 0.2450(4)
H26 H -0.4919 0.4448 0.2645
C35 C -0.3612(6) 0.4576(6) 0.2698(4)
H27 H -0.3777 0.4816 0.3060
C36 C -0.2681(6) 0.4426(5) 0.2406(3)
H28 H -0.2218 0.4557 0.2584
C37 C -0.1280(7) 0.3290(6) 0.0312(3)
H29 H -0.0586 0.2801 0.0239
H30 H -0.1730 0.3301 0.0020
C38 C -0.1297(6) 0.4303(6) 0.0233(3)
C39 C -0.1495(6) 0.4962(7) -0.0320(4)
H31 H -0.1661 0.4802 -0.0656
C40 C -0.1441(7) 0.5852(7) -0.0363(4)
H32 H -0.1531 0.6288 -0.0735
C41 C -0.1255(7) 0.6093(6) 0.0141(5)
H33 H -0.1228 0.6702 0.0116
C42 C -0.1104(5) 0.5425(6) 0.0703(4)
H34 H -0.0997 0.5605 0.1049
C43 C 0.1992(5) -0.0081(5) 0.0573(3)
H35 H 0.2366 0.0237 0.0335
C44 C 0.1463(6) -0.0435(6) 0.0296(4)
H36 H 0.1491 -0.0362 -0.0126
C45 C 0.0897(6) -0.0891(6) 0.0634(4)
H37 H 0.0531 -0.1123 0.0447
C46 C 0.0876(6) -0.1001(5) 0.1251(4)
H38 H 0.0494 -0.1310 0.1489
C47 C 0.1422(5) -0.0654(5) 0.1522(3)
C48 C 0.1435(5) -0.0698(5) 0.2170(3)
C49 C 0.1062(6) -0.1269(5) 0.2617(4)
H39 H 0.0745 -0.1624 0.2507
C50 C 0.1170(6) -0.1301(6) 0.3225(4)
H40 H 0.0946 -0.1695 0.3526
C51 C 0.1608(6) -0.0748(7) 0.3379(4)
H41 H 0.1672 -0.0746 0.3785
C52 C 0.1948(5) -0.0197(5) 0.2920(3)
H42 H 0.2224 0.0193 0.3027
C53 C 0.3248(6) 0.1560(5) 0.0616(3)
H43 H 0.2561 0.2028 0.0601
C54 C 0.3958(6) 0.1799(5) 0.0245(3)
H44 H 0.3750 0.2413 -0.0021
C55 C 0.4983(6) 0.1120(6) 0.0269(3)
H45 H 0.5479 0.1279 0.0032
C56 C 0.5262(6) 0.0200(5) 0.0652(3)
H46 H 0.5947 -0.0272 0.0670
C57 C 0.4520(5) -0.0013(5) 0.1006(3)
C58 C 0.4703(5) -0.0961(5) 0.1417(3)
C59 C 0.5631(5) -0.1816(6) 0.1435(3)
H47 H 0.6177 -0.1810 0.1174
C60 C 0.5729(6) -0.2665(6) 0.1842(4)
H48 H 0.6346 -0.3241 0.1861
C61 C 0.4933(6) -0.2667(6) 0.2216(3)
H49 H 0.4988 -0.3244 0.2490
C62 C 0.4028(5) -0.1792(5) 0.2184(3)
H50 H 0.3489 -0.1789 0.2454
C63 C 0.5549(5) 0.0985(5) 0.2092(3)
H51 H 0.5294 0.0576 0.1951
H52 H 0.6269 0.0772 0.1968
C64 C 0.4938(5) 0.2073(5) 0.1814(3)
C65 C 0.5124(5) 0.2511(5) 0.1235(3)
H53 H 0.5677 0.2145 0.1000
C66 C 0.4486(6) 0.3490(5) 0.1011(3)
H54 H 0.4585 0.3790 0.0617
C67 C 0.3703(5) 0.4020(5) 0.1374(3)
H55 H 0.3276 0.4692 0.1235
C68 C 0.3551(5) 0.3556(5) 0.1945(3)
H56 H 0.3015 0.3924 0.2188
C69 C 0.6167(5) 0.1162(6) 0.2999(3)
H57 H 0.6482 0.1449 0.2656
H58 H 0.6712 0.0574 0.3221
C70 C 0.5628(5) 0.1914(5) 0.3409(3)
C71 C 0.6189(6) 0.2156(6) 0.3749(3)
H59 H 0.6904 0.1819 0.3750
C72 C 0.5685(6) 0.2896(6) 0.4083(3)
H60 H 0.6046 0.3086 0.4305
C73 C 0.4620(6) 0.3349(6) 0.4077(3)
H61 H 0.4250 0.3850 0.4301
C74 C 0.4111(5) 0.3060(5) 0.3741(3)
H62 H 0.3394 0.3377 0.3743
C75 C 0.5598(6) -0.0171(5) 0.3069(3)
H63 H 0.6325 -0.0594 0.3142
H64 H 0.5364 -0.0455 0.2806
C76 C 0.5001(6) -0.0136(5) 0.3660(3)
C77 C 0.5273(7) -0.0935(6) 0.4144(4)
H65 H 0.5877 -0.1515 0.4123
C78 C 0.4648(8) -0.0870(7) 0.4656(4)
H66 H 0.4809 -0.1403 0.4984
C79 C 0.3774(7) 0.0014(7) 0.4667(4)
H67 H 0.3333 0.0083 0.5007
C80 C 0.3555(6) 0.0785(6) 0.4184(3)
H68 H 0.2973 0.1381 0.4207
P1 P 0.38581(17) 0.67366(15) 0.06292(9)
F1 F 0.4200(4) 0.6016(4) 0.1267(2)
F2 F 0.4973(4) 0.6667(4) 0.0485(2)
F3 F 0.3489(4) 0.7468(3) -0.00150(18)
F4 F 0.2717(4) 0.6827(4) 0.0757(2)
F5 F 0.4132(5) 0.5819(4) 0.0310(2)
F6 F 0.3559(4) 0.7670(3) 0.0932(2)
P2 P 0.40881(17) 0.66215(18) 0.41446(10)
F7 F 0.4956(4) 0.6464(4) 0.4569(2)
F8 F 0.3278(4) 0.7475(4) 0.4474(3)
F9 F 0.3214(4) 0.6800(4) 0.3704(3)
F10 F 0.4890(5) 0.5770(5) 0.3821(3)
F11 F 0.3806(4) 0.5827(4) 0.4610(3)
F12 F 0.4346(5) 0.7420(5) 0.3672(2)
P3 P 0.84279(17) 0.82681(17) 0.13118(11)
F13 F 0.7770(3) 0.8453(4) 0.0734(2)
F14 F 0.7396(4) 0.8767(4) 0.1689(2)
F15 F 0.9085(4) 0.8078(4) 0.1885(2)
F16 F 0.9439(4) 0.7803(5) 0.0929(3)
F17 F 0.8407(4) 0.7227(4) 0.1539(2)
F18 F 0.8409(5) 0.9350(4) 0.1109(3)
P4 P 0.86978(19) 0.8307(2) 0.41906(11)
F19 F 0.9003(6) 0.8305(4) 0.3499(2)
F20 F 0.9592(5) 0.7269(5) 0.4374(3)
F21 F 0.8383(4) 0.8308(5) 0.4878(2)
F22 F 0.7782(5) 0.9387(5) 0.4023(2)
F23 F 0.7921(6) 0.7852(6) 0.4160(3)
F24 F 0.9411(5) 0.8827(6) 0.4234(3)
loop_
_geom_bond_atom_site_label_1
_geom_bond_atom_site_label_2
_geom_bond_site_symmetry_1
_geom_bond_site_symmetry_2
Fe1 N5 1_555 1_555
Fe2 N1 1_555 1_555
Fe3 N13 1_555 1_555
Fe4 N3 1_555 1_555
P1 F1 1_555 1_555
P2 F7 1_555 1_555
P3 F13 1_555 1_555
P4 F19 1_555 1_555
F2 P1 1_555 1_555
F3 P1 1_555 1_555
F4 P1 1_555 1_555
F5 P1 1_555 1_555
F6 P1 1_555 1_555
F8 P2 1_555 1_555
F9 P2 1_555 1_555
F10 P2 1_555 1_555
F11 P2 1_555 1_555
F12 P2 1_555 1_555
F14 P3 1_555 1_555
F15 P3 1_555 1_555
F16 P3 1_555 1_555
F17 P3 1_555 1_555
F18 P3 1_555 1_555
F20 P4 1_555 1_555
F21 P4 1_555 1_555
F22 P4 1_555 1_555
F23 P4 1_555 1_555
F24 P4 1_555 1_555
N1 C1 1_555 1_555
N2 Fe2 1_555 1_555
N3 C3 1_555 1_555
N4 Fe4 1_555 1_555
N5 C5 1_555 1_555
N6 Fe1 1_555 1_555
N7 Fe1 1_555 1_555
N8 Fe1 1_555 1_555
N9 Fe2 1_555 1_555
N10 Fe2 1_555 1_555
N11 Fe2 1_555 1_555
N12 Fe2 1_555 1_555
N13 C43 1_555 1_555
N14 Fe3 1_555 1_555
N15 Fe3 1_555 1_555
N16 Fe3 1_555 1_555
N17 Fe4 1_555 1_555
N18 Fe4 1_555 1_555
N19 Fe4 1_555 1_555
N20 Fe4 1_555 1_555
C1 Fe1 1_555 1_555
C2 Fe3 1_555 1_555
C3 Fe3 1_555 1_555
C4 Fe1 1_555 1_555
C5 H1 1_555 1_555
C6 C5 1_555 1_555
H2 C6 1_555 1_555
C7 C6 1_555 1_555
H3 C7 1_555 1_555
C8 C7 1_555 1_555
H4 C8 1_555 1_555
C9 N5 1_555 1_555
C10 N6 1_555 1_555
C11 C10 1_555 1_555
H5 C11 1_555 1_555
C12 C11 1_555 1_555
H6 C12 1_555 1_555
C13 C12 1_555 1_555
H7 C13 1_555 1_555
C14 N6 1_555 1_555
H8 C14 1_555 1_555
C15 N7 1_555 1_555
H9 C15 1_555 1_555
C16 C15 1_555 1_555
H10 C16 1_555 1_555
C17 C16 1_555 1_555
H11 C17 1_555 1_555
C18 C17 1_555 1_555
H12 C18 1_555 1_555
C19 N7 1_555 1_555
C20 N8 1_555 1_555
C21 C20 1_555 1_555
H13 C21 1_555 1_555
C22 C21 1_555 1_555
H14 C22 1_555 1_555
C23 C22 1_555 1_555
H15 C23 1_555 1_555
C24 N8 1_555 1_555
H16 C24 1_555 1_555
C25 N9 1_555 1_555
H17 C25 1_555 1_555
H18 C25 1_555 1_555
C26 N10 1_555 1_555
C27 C26 1_555 1_555
H19 C27 1_555 1_555
C28 C27 1_555 1_555
H20 C28 1_555 1_555
C29 C28 1_555 1_555
H21 C29 1_555 1_555
C30 N10 1_555 1_555
H22 C30 1_555 1_555
C31 N9 1_555 1_555
H23 C31 1_555 1_555
H24 C31 1_555 1_555
C32 N11 1_555 1_555
C33 C32 1_555 1_555
H25 C33 1_555 1_555
C34 C33 1_555 1_555
H26 C34 1_555 1_555
C35 C34 1_555 1_555
H27 C35 1_555 1_555
C36 N11 1_555 1_555
H28 C36 1_555 1_555
C37 N9 1_555 1_555
H29 C37 1_555 1_555
H30 C37 1_555 1_555
C38 N12 1_555 1_555
C39 C38 1_555 1_555
H31 C39 1_555 1_555
C40 C39 1_555 1_555
H32 C40 1_555 1_555
C41 C40 1_555 1_555
H33 C41 1_555 1_555
C42 N12 1_555 1_555
H34 C42 1_555 1_555
C43 H35 1_555 1_555
C44 C43 1_555 1_555
H36 C44 1_555 1_555
C45 C44 1_555 1_555
H37 C45 1_555 1_555
C46 C45 1_555 1_555
H38 C46 1_555 1_555
C47 N13 1_555 1_555
C48 N14 1_555 1_555
C49 C48 1_555 1_555
H39 C49 1_555 1_555
C50 C49 1_555 1_555
H40 C50 1_555 1_555
C51 C50 1_555 1_555
H41 C51 1_555 1_555
C52 N14 1_555 1_555
H42 C52 1_555 1_555
C53 N15 1_555 1_555
H43 C53 1_555 1_555
C54 C53 1_555 1_555
H44 C54 1_555 1_555
C55 C54 1_555 1_555
H45 C55 1_555 1_555
C56 C55 1_555 1_555
H46 C56 1_555 1_555
C57 N15 1_555 1_555
C58 N16 1_555 1_555
C59 C58 1_555 1_555
H47 C59 1_555 1_555
C60 C59 1_555 1_555
H48 C60 1_555 1_555
C61 C60 1_555 1_555
H49 C61 1_555 1_555
C62 N16 1_555 1_555
H50 C62 1_555 1_555
C63 N17 1_555 1_555
H51 C63 1_555 1_555
H52 C63 1_555 1_555
C64 N18 1_555 1_555
C65 C64 1_555 1_555
H53 C65 1_555 1_555
C66 C65 1_555 1_555
H54 C66 1_555 1_555
C67 C66 1_555 1_555
H55 C67 1_555 1_555
C68 N18 1_555 1_555
H56 C68 1_555 1_555
C69 N17 1_555 1_555
H57 C69 1_555 1_555
H58 C69 1_555 1_555
C70 N19 1_555 1_555
C71 C70 1_555 1_555
H59 C71 1_555 1_555
C72 C71 1_555 1_555
H60 C72 1_555 1_555
C73 C72 1_555 1_555
H61 C73 1_555 1_555
C74 N19 1_555 1_555
H62 C74 1_555 1_555
C75 N17 1_555 1_555
H63 C75 1_555 1_555
H64 C75 1_555 1_555
C76 N20 1_555 1_555
C77 C76 1_555 1_555
H65 C77 1_555 1_555
C78 C77 1_555 1_555
H66 C78 1_555 1_555
C79 C78 1_555 1_555
H67 C79 1_555 1_555
C80 N20 1_555 1_555
H68 C80 1_555 1_555
N2 C2 1_555 1_555
N4 C4 1_555 1_555
C8 C9 1_555 1_555
C9 C10 1_555 1_555
C13 C14 1_555 1_555
C18 C19 1_555 1_555
C19 C20 1_555 1_555
C23 C24 1_555 1_555
C25 C26 1_555 1_555
C29 C30 1_555 1_555
C31 C32 1_555 1_555
C35 C36 1_555 1_555
C37 C38 1_555 1_555
C41 C42 1_555 1_555
C46 C47 1_555 1_555
C47 C48 1_555 1_555
C51 C52 1_555 1_555
C56 C57 1_555 1_555
C57 C58 1_555 1_555
C61 C62 1_555 1_555
C63 C64 1_555 1_555
C67 C68 1_555 1_555
C69 C70 1_555 1_555
C73 C74 1_555 1_555
C75 C76 1_555 1_555
C79 C80 1_555 1_555

#END
