
#######################################################################
#
#                 Cambridge Crystallographic Data Centre
#                                CCDC 
#
#######################################################################
#
# If this CIF has been generated from an entry in the Cambridge 
# Structural Database, then it will include bibliographic, chemical, 
# crystal, experimental, refinement or atomic coordinate data resulting 
# from the CCDC's data processing and validation procedures.
#
#######################################################################

data_TAXFEE
_chemical_formula_moiety         'C80 H68 Fe4 N20 4+,4(F6 P1 1-)'
_chemical_name_systematic        
"tetrakis(\m~2~-Cyano-C,N)-tetrakis(2,2'-bipyridine-N,N')-bis(tris(2-pyridylmethyl)amine-N,N',N'',N''')-tetra-iron(ii) tetrakis(hexafluorophosphate)"
_symmetry_cell_setting           triclinic
_symmetry_space_group_name_H-M   'P -1'
_symmetry_Int_Tables_number      2
_space_group_name_Hall           '-P 1'
loop_
_symmetry_equiv_pos_site_id
_symmetry_equiv_pos_as_xyz
1 x,y,z
2 -x,-y,-z
_cell_length_a                   14.561(3)
_cell_length_b                   15.297(3)
_cell_length_c                   22.661(4)
_cell_angle_alpha                77.391(4)
_cell_angle_beta                 83.209(4)
_cell_angle_gamma                63.602(4)
_cell_volume                     4410.85
_exptl_crystal_colour            'dark red'
_exptl_crystal_description       block
_cell_formula_units_Z            2
_exptl_crystal_preparation       
'three iron atoms are low spin state, one is high spin state'
loop_
_atom_site_label
_atom_site_type_symbol
_atom_site_fract_x
_atom_site_fract_y
_atom_site_fract_z
Fe1 Fe 0.03983(8) 0.43261(8) 0.32143(5)
Fe2 Fe -0.07890(9) 0.33677(8) 0.15522(5)
Fe3 Fe 0.26132(8) 0.03651(8) 0.16534(5)
Fe4 Fe 0.39750(8) 0.17624(8) 0.29519(5)
N1 N -0.0299(5) 0.3919(5) 0.2126(3)
N2 N 0.0698(5) 0.2345(5) 0.1341(3)
N3 N 0.3455(5) 0.1162(5) 0.2488(3)
N4 N 0.2577(5) 0.2675(5) 0.3117(3)
N5 N 0.0927(4) 0.4597(4) 0.3895(3)
N6 N 0.0942(5) 0.5259(4) 0.2751(3)
N7 N -0.0206(5) 0.3496(6) 0.3729(3)
N8 N -0.1012(5) 0.5369(5) 0.3305(3)
N9 N -0.1622(5) 0.3012(5) 0.0940(3)
N10 N -0.0996(6) 0.2069(5) 0.2075(4)
N11 N -0.2415(5) 0.4112(5) 0.1873(3)
N12 N -0.1101(5) 0.4532(5) 0.0752(3)
N13 N 0.1988(5) -0.0172(5) 0.1178(3)
N14 N 0.1900(5) -0.0161(5) 0.2323(3)
N15 N 0.3497(5) 0.0692(5) 0.1003(3)
N16 N 0.3890(5) -0.0926(5) 0.1780(3)
N17 N 0.5433(5) 0.0857(5) 0.2767(3)
N18 N 0.4150(5) 0.2570(5) 0.2177(3)
N19 N 0.4580(5) 0.2326(5) 0.3409(3)
N20 N 0.4127(5) 0.0721(5) 0.3678(3)
C1 C 0.0005(6) 0.4077(6) 0.2533(4)
C2 C 0.1441(7) 0.1611(7) 0.1468(4)
C3 C 0.3118(6) 0.0880(6) 0.2168(4)
C4 C 0.1742(6) 0.3265(6) 0.3153(3)
C5 C 0.0925(6) 0.4196(6) 0.4488(4)
H1 H 0.0571 0.3807 0.4613
C6 C 0.1420(8) 0.4332(8) 0.4916(4)
H2 H 0.1402 0.4040 0.5320
C7 C 0.1936(9) 0.4901(8) 0.4736(4)
H3 H 0.2287 0.4994 0.5016
C8 C 0.1936(7) 0.5335(7) 0.4142(4)
H4 H 0.2271 0.5741 0.4015
C9 C 0.1443(6) 0.5170(6) 0.3737(3)
C10 C 0.1471(6) 0.5522(6) 0.3068(4)
C11 C 0.1988(8) 0.6088(7) 0.2783(5)
H5 H 0.2350 0.6261 0.3012
C12 C 0.1963(8) 0.6386(7) 0.2172(4)
H6 H 0.2319 0.6748 0.1977
C13 C 0.1412(7) 0.6145(6) 0.1857(4)
H7 H 0.1363 0.6366 0.1440
C14 C 0.0920(6) 0.5577(6) 0.2141(4)
H8 H 0.0561 0.5404 0.1910
C15 C 0.0241(8) 0.2515(8) 0.3936(4)
H9 H 0.0927 0.2162 0.3834
C16 C -0.0257(10) 0.2001(9) 0.4290(5)
H10 H 0.0100 0.1321 0.4429
C17 C -0.1263(11) 0.2478(11) 0.4439(5)
H11 H -0.1608 0.2135 0.4678
C18 C -0.1762(9) 0.3488(10) 0.4225(5)
H12 H -0.2453 0.3837 0.4319
C19 C -0.1226(7) 0.3984(7) 0.3866(4)
C20 C -0.1681(6) 0.5040(7) 0.3628(4)
C21 C -0.2718(7) 0.5683(9) 0.3685(4)
H13 H -0.3173 0.5453 0.3907
C22 C -0.3050(8) 0.6653(10) 0.3409(5)
H14 H -0.3735 0.7092 0.3453
C23 C -0.2401(9) 0.6990(8) 0.3075(5)
H15 H -0.2640 0.7643 0.2868
C24 C -0.1359(7) 0.6329(7) 0.3046(4)
H16 H -0.0898 0.6565 0.2841
C25 C -0.1308(8) 0.1938(7) 0.1085(5)
H17 H -0.0638 0.1597 0.0902
H18 H -0.1792 0.1785 0.0919
C26 C -0.1264(7) 0.1579(7) 0.1754(5)
C27 C -0.1411(8) 0.0749(8) 0.2030(8)
H19 H -0.1569 0.0396 0.1804
C28 C -0.1318(9) 0.0462(10) 0.2646(8)
H20 H -0.1459 -0.0068 0.2841
C29 C -0.1023(9) 0.0937(10) 0.2983(6)
H21 H -0.0914 0.0712 0.3396
C30 C -0.0894(7) 0.1769(8) 0.2675(5)
H22 H -0.0733 0.2129 0.2893
C31 C -0.2738(7) 0.3606(8) 0.1016(4)
H23 H -0.3087 0.3218 0.0961
H24 H -0.2957 0.4192 0.0698
C32 C -0.3080(7) 0.3937(6) 0.1623(4)
C33 C -0.4022(8) 0.4069(8) 0.1891(6)
H25 H -0.4469 0.3929 0.1709
C34 C -0.4296(9) 0.4410(9) 0.2430(7)
H26 H -0.4929 0.4503 0.2616
C35 C -0.3630(8) 0.4606(8) 0.2681(5)
H27 H -0.3799 0.4847 0.3040
C36 C -0.2691(7) 0.4443(7) 0.2394(4)
H28 H -0.2231 0.4570 0.2572
C37 C -0.1266(8) 0.3289(7) 0.0322(4)
H29 H -0.1703 0.3294 0.0028
H30 H -0.0571 0.2808 0.0252
C38 C -0.1302(7) 0.4315(7) 0.0251(4)
C39 C -0.1467(9) 0.4959(10) -0.0307(5)
H31 H -0.1596 0.4786 -0.0647
C40 C -0.1436(9) 0.5835(10) -0.0344(6)
H32 H -0.1537 0.6269 -0.0715
C41 C -0.1256(9) 0.6096(8) 0.0160(7)
H33 H -0.1242 0.6704 0.0139
C42 C -0.1092(8) 0.5411(8) 0.0707(5)
H34 H -0.0974 0.5578 0.1051
C43 C 0.2000(7) -0.0066(6) 0.0569(4)
H35 H 0.2376 0.0246 0.0333
C44 C 0.1472(8) -0.0407(8) 0.0290(5)
H36 H 0.1494 -0.0325 -0.0130
C45 C 0.0924(9) -0.0858(8) 0.0620(6)
H37 H 0.0568 -0.1090 0.0429
C46 C 0.0890(8) -0.0978(7) 0.1237(6)
H38 H 0.0517 -0.1297 0.1468
C47 C 0.1417(7) -0.0620(6) 0.1514(4)
C48 C 0.1447(6) -0.0669(6) 0.2160(4)
C49 C 0.1075(7) -0.1237(7) 0.2598(6)
H39 H 0.0765 -0.1592 0.2489
C50 C 0.1181(9) -0.1256(9) 0.3213(6)
H40 H 0.0965 -0.1647 0.3516
C51 C 0.1597(8) -0.0705(9) 0.3355(5)
H41 H 0.1655 -0.0695 0.3757
C52 C 0.1933(7) -0.0163(7) 0.2904(4)
H42 H 0.2201 0.0230 0.3009
C53 C 0.3269(8) 0.1549(7) 0.0624(4)
H43 H 0.2586 0.2016 0.0611
C54 C 0.3952(8) 0.1799(7) 0.0255(4)
H44 H 0.3738 0.2413 -0.0003
C55 C 0.4973(9) 0.1123(8) 0.0269(4)
H45 H 0.5463 0.1279 0.0029
C56 C 0.5244(7) 0.0219(7) 0.0646(4)
H46 H 0.5926 -0.0250 0.0660
C57 C 0.4507(6) -0.0003(6) 0.1007(4)
C58 C 0.4690(6) -0.0937(6) 0.1410(4)
C59 C 0.5608(7) -0.1774(8) 0.1434(4)
H47 H 0.6157 -0.1758 0.1184
C60 C 0.5711(8) -0.2630(8) 0.1826(5)
H48 H 0.6316 -0.3209 0.1831
C61 C 0.4915(8) -0.2618(7) 0.2206(4)
H49 H 0.4977 -0.3180 0.2490
C62 C 0.4021(7) -0.1768(6) 0.2167(4)
H50 H 0.3474 -0.1775 0.2422
C63 C 0.5537(6) 0.0979(6) 0.2101(4)
H51 H 0.5275 0.0580 0.1961
H52 H 0.6255 0.0755 0.1980
C64 C 0.4949(6) 0.2053(6) 0.1823(4)
C65 C 0.5142(7) 0.2481(8) 0.1258(4)
H53 H 0.5699 0.2116 0.1029
C66 C 0.4508(9) 0.3459(9) 0.1027(4)
H54 H 0.4621 0.3754 0.0639
C67 C 0.3709(7) 0.3985(7) 0.1381(4)
H55 H 0.3279 0.4648 0.1238
C68 C 0.3549(6) 0.3532(6) 0.1945(4)
H56 H 0.3005 0.3899 0.2182
C69 C 0.6138(7) 0.1138(7) 0.3016(4)
H57 H 0.6482 0.1403 0.2683
H58 H 0.6658 0.0547 0.3245
C70 C 0.5615(6) 0.1886(6) 0.3412(4)
C71 C 0.6157(7) 0.2155(8) 0.3739(4)
H59 H 0.6870 0.1831 0.3733
C72 C 0.5662(8) 0.2897(8) 0.4075(5)
H60 H 0.6018 0.3091 0.4294
C73 C 0.4598(8) 0.3336(8) 0.4065(5)
H61 H 0.4223 0.3840 0.4284
C74 C 0.4095(7) 0.3037(7) 0.3738(4)
H62 H 0.3381 0.3343 0.3745
C75 C 0.5563(7) -0.0170(7) 0.3065(4)
H63 H 0.5316 -0.0438 0.2802
H64 H 0.6284 -0.0603 0.3134
C76 C 0.4980(7) -0.0136(7) 0.3653(4)
C77 C 0.5254(10) -0.0929(8) 0.4128(5)
H65 H 0.5852 -0.1507 0.4109
C78 C 0.4620(12) -0.0844(10) 0.4626(6)
H66 H 0.4773 -0.1378 0.4948
C79 C 0.3745(10) 0.0038(10) 0.4659(5)
H67 H 0.3325 0.0109 0.5005
C80 C 0.3524(7) 0.0786(7) 0.4175(4)
H68 H 0.2928 0.1368 0.4187
P1 P 0.1310(3) 0.1674(3) 0.58195(16)
F1 F 0.1591(6) 0.1700(6) 0.5135(3)
F2 F 0.0445(8) 0.2693(7) 0.5656(4)
F3 F 0.1023(9) 0.1639(6) 0.6497(3)
F4 F 0.2197(8) 0.0579(7) 0.5959(4)
F5 F 0.2083(10) 0.2075(10) 0.5849(5)
F6 F 0.0634(9) 0.1163(9) 0.5777(4)
P2 P 0.3846(2) 0.6734(2) 0.06325(12)
F7 F 0.3496(5) 0.7439(5) -0.0011(2)
F8 F 0.2714(5) 0.6841(6) 0.0750(3)
F9 F 0.4166(6) 0.6041(5) 0.1265(3)
F10 F 0.4950(5) 0.6653(6) 0.0492(4)
F11 F 0.4105(7) 0.5836(5) 0.0320(4)
F12 F 0.3563(6) 0.7652(5) 0.0922(3)
P3 P 0.4062(2) 0.6598(3) 0.41380(14)
F13 F 0.4316(7) 0.7385(7) 0.3680(3)
F14 F 0.3267(7) 0.7446(7) 0.4460(4)
F15 F 0.3791(6) 0.5822(6) 0.4591(4)
F16 F 0.4861(8) 0.5770(7) 0.3843(5)
F17 F 0.3208(7) 0.6790(7) 0.3720(5)
F18 F 0.4899(7) 0.6470(7) 0.4561(4)
P4 P 0.8437(2) 0.8268(2) 0.13099(16)
F19 F 0.7429(6) 0.8746(6) 0.1696(3)
F20 F 0.8394(8) 0.9333(6) 0.1119(4)
F21 F 0.9417(6) 0.7836(8) 0.0924(4)
F22 F 0.8416(7) 0.7262(5) 0.1534(3)
F23 F 0.7783(5) 0.8447(6) 0.0751(3)
F24 F 0.9097(6) 0.8085(6) 0.1868(3)
loop_
_geom_bond_atom_site_label_1
_geom_bond_atom_site_label_2
_geom_bond_site_symmetry_1
_geom_bond_site_symmetry_2
Fe1 N5 1_555 1_555
Fe2 N1 1_555 1_555
Fe3 N13 1_555 1_555
Fe4 N3 1_555 1_555
P1 F1 1_555 1_555
P2 F7 1_555 1_555
P3 F13 1_555 1_555
P4 F19 1_555 1_555
F2 P1 1_555 1_555
F3 P1 1_555 1_555
F4 P1 1_555 1_555
F5 P1 1_555 1_555
F6 P1 1_555 1_555
F8 P2 1_555 1_555
F9 P2 1_555 1_555
F10 P2 1_555 1_555
F11 P2 1_555 1_555
F12 P2 1_555 1_555
F14 P3 1_555 1_555
F15 P3 1_555 1_555
F16 P3 1_555 1_555
F17 P3 1_555 1_555
F18 P3 1_555 1_555
F20 P4 1_555 1_555
F21 P4 1_555 1_555
F22 P4 1_555 1_555
F23 P4 1_555 1_555
F24 P4 1_555 1_555
N1 C1 1_555 1_555
N2 Fe2 1_555 1_555
N3 C3 1_555 1_555
N4 Fe4 1_555 1_555
N5 C5 1_555 1_555
N6 Fe1 1_555 1_555
N7 Fe1 1_555 1_555
N8 Fe1 1_555 1_555
N9 Fe2 1_555 1_555
N10 Fe2 1_555 1_555
N11 Fe2 1_555 1_555
N12 Fe2 1_555 1_555
N13 C43 1_555 1_555
N14 Fe3 1_555 1_555
N15 Fe3 1_555 1_555
N16 Fe3 1_555 1_555
N17 Fe4 1_555 1_555
N18 Fe4 1_555 1_555
N19 Fe4 1_555 1_555
N20 Fe4 1_555 1_555
C1 Fe1 1_555 1_555
C2 Fe3 1_555 1_555
C3 Fe3 1_555 1_555
C4 Fe1 1_555 1_555
C5 H1 1_555 1_555
C6 C5 1_555 1_555
H2 C6 1_555 1_555
C7 C6 1_555 1_555
H3 C7 1_555 1_555
C8 C7 1_555 1_555
H4 C8 1_555 1_555
C9 N5 1_555 1_555
C10 N6 1_555 1_555
C11 C10 1_555 1_555
H5 C11 1_555 1_555
C12 C11 1_555 1_555
H6 C12 1_555 1_555
C13 C12 1_555 1_555
H7 C13 1_555 1_555
C14 N6 1_555 1_555
H8 C14 1_555 1_555
C15 N7 1_555 1_555
H9 C15 1_555 1_555
C16 C15 1_555 1_555
H10 C16 1_555 1_555
C17 C16 1_555 1_555
H11 C17 1_555 1_555
C18 C17 1_555 1_555
H12 C18 1_555 1_555
C19 N7 1_555 1_555
C20 N8 1_555 1_555
C21 C20 1_555 1_555
H13 C21 1_555 1_555
C22 C21 1_555 1_555
H14 C22 1_555 1_555
C23 C22 1_555 1_555
H15 C23 1_555 1_555
C24 N8 1_555 1_555
H16 C24 1_555 1_555
C25 N9 1_555 1_555
H17 C25 1_555 1_555
H18 C25 1_555 1_555
C26 N10 1_555 1_555
C27 C26 1_555 1_555
H19 C27 1_555 1_555
C28 C27 1_555 1_555
H20 C28 1_555 1_555
C29 C28 1_555 1_555
H21 C29 1_555 1_555
C30 N10 1_555 1_555
H22 C30 1_555 1_555
C31 N9 1_555 1_555
H23 C31 1_555 1_555
H24 C31 1_555 1_555
C32 N11 1_555 1_555
C33 C32 1_555 1_555
H25 C33 1_555 1_555
C34 C33 1_555 1_555
H26 C34 1_555 1_555
C35 C34 1_555 1_555
H27 C35 1_555 1_555
C36 N11 1_555 1_555
H28 C36 1_555 1_555
C37 N9 1_555 1_555
H29 C37 1_555 1_555
H30 C37 1_555 1_555
C38 N12 1_555 1_555
C39 C38 1_555 1_555
H31 C39 1_555 1_555
C40 C39 1_555 1_555
H32 C40 1_555 1_555
C41 C40 1_555 1_555
H33 C41 1_555 1_555
C42 N12 1_555 1_555
H34 C42 1_555 1_555
C43 H35 1_555 1_555
C44 C43 1_555 1_555
H36 C44 1_555 1_555
C45 C44 1_555 1_555
H37 C45 1_555 1_555
C46 C45 1_555 1_555
H38 C46 1_555 1_555
C47 N13 1_555 1_555
C48 N14 1_555 1_555
C49 C48 1_555 1_555
H39 C49 1_555 1_555
C50 C49 1_555 1_555
H40 C50 1_555 1_555
C51 C50 1_555 1_555
H41 C51 1_555 1_555
C52 N14 1_555 1_555
H42 C52 1_555 1_555
C53 N15 1_555 1_555
H43 C53 1_555 1_555
C54 C53 1_555 1_555
H44 C54 1_555 1_555
C55 C54 1_555 1_555
H45 C55 1_555 1_555
C56 C55 1_555 1_555
H46 C56 1_555 1_555
C57 N15 1_555 1_555
C58 N16 1_555 1_555
C59 C58 1_555 1_555
H47 C59 1_555 1_555
C60 C59 1_555 1_555
H48 C60 1_555 1_555
C61 C60 1_555 1_555
H49 C61 1_555 1_555
C62 N16 1_555 1_555
H50 C62 1_555 1_555
C63 N17 1_555 1_555
H51 C63 1_555 1_555
H52 C63 1_555 1_555
C64 N18 1_555 1_555
C65 C64 1_555 1_555
H53 C65 1_555 1_555
C66 C65 1_555 1_555
H54 C66 1_555 1_555
C67 C66 1_555 1_555
H55 C67 1_555 1_555
C68 N18 1_555 1_555
H56 C68 1_555 1_555
C69 N17 1_555 1_555
H57 C69 1_555 1_555
H58 C69 1_555 1_555
C70 N19 1_555 1_555
C71 C70 1_555 1_555
H59 C71 1_555 1_555
C72 C71 1_555 1_555
H60 C72 1_555 1_555
C73 C72 1_555 1_555
H61 C73 1_555 1_555
C74 N19 1_555 1_555
H62 C74 1_555 1_555
C75 N17 1_555 1_555
H63 C75 1_555 1_555
H64 C75 1_555 1_555
C76 N20 1_555 1_555
C77 C76 1_555 1_555
H65 C77 1_555 1_555
C78 C77 1_555 1_555
H66 C78 1_555 1_555
C79 C78 1_555 1_555
H67 C79 1_555 1_555
C80 N20 1_555 1_555
H68 C80 1_555 1_555
N2 C2 1_555 1_555
N4 C4 1_555 1_555
C8 C9 1_555 1_555
C9 C10 1_555 1_555
C13 C14 1_555 1_555
C18 C19 1_555 1_555
C19 C20 1_555 1_555
C23 C24 1_555 1_555
C25 C26 1_555 1_555
C29 C30 1_555 1_555
C31 C32 1_555 1_555
C35 C36 1_555 1_555
C37 C38 1_555 1_555
C41 C42 1_555 1_555
C46 C47 1_555 1_555
C47 C48 1_555 1_555
C51 C52 1_555 1_555
C56 C57 1_555 1_555
C57 C58 1_555 1_555
C61 C62 1_555 1_555
C63 C64 1_555 1_555
C67 C68 1_555 1_555
C69 C70 1_555 1_555
C73 C74 1_555 1_555
C75 C76 1_555 1_555
C79 C80 1_555 1_555

#END
