# generated using pymatgen
data_Co3B3H238C248N12(O4F27)4
_symmetry_space_group_name_H-M   'P 1'
_cell_length_a   19.25430000
_cell_length_b   20.73090000
_cell_length_c   29.54880000
_cell_angle_alpha   85.80300000
_cell_angle_beta   82.66100000
_cell_angle_gamma   74.24700000
_symmetry_Int_Tables_number   1
_chemical_formula_structural   Co3B3H238C248N12(O4F27)4
_chemical_formula_sum   'Co6 B6 H476 C496 N24 O32 F216'
_cell_volume   11249.51280489
_cell_formula_units_Z   2
loop_
 _symmetry_equiv_pos_site_id
 _symmetry_equiv_pos_as_xyz
  1  'x, y, z'
loop_
 _atom_site_type_symbol
 _atom_site_label
 _atom_site_symmetry_multiplicity
 _atom_site_fract_x
 _atom_site_fract_y
 _atom_site_fract_z
 _atom_site_occupancy
  Co  Co1  1  0.822400  0.633650  0.104410  1
  Co  Co2  1  0.177600  0.366350  0.895590  1
  Co  Co3  1  0.872070  0.621860  0.390390  1
  Co  Co4  1  0.127930  0.378140  0.609610  1
  Co  Co5  1  0.583770  0.928120  0.300440  1
  Co  Co6  1  0.416230  0.071880  0.699560  1
  B  B7  1  0.121000  0.062800  0.167800  1
  B  B8  1  0.879000  0.937200  0.832200  1
  B  B9  1  0.237200  0.776200  0.502030  1
  B  B10  1  0.762800  0.223800  0.497970  1
  B  B11  1  0.460300  0.381400  0.145000  1
  B  B12  1  0.539700  0.618600  0.855000  1
  H  H13  1  0.726400  0.558100  0.304100  1
  H  H14  1  0.273600  0.441900  0.695900  1
  H  H15  1  0.579900  0.736700  0.324300  1
  H  H16  1  0.420100  0.263300  0.675700  1
  H  H17  1  0.637400  0.667100  0.197100  1
  H  H18  1  0.362600  0.332900  0.802900  1
  H  H19  1  0.931000  0.705900  0.189100  1
  H  H20  1  0.069000  0.294100  0.810900  1
  H  H21  1  0.896000  0.783700  0.314000  1
  H  H22  1  0.104000  0.216300  0.686000  1
  H  H23  1  0.789500  0.888100  0.211600  1
  H  H24  1  0.210500  0.111900  0.788400  1
  H  H25  1  0.782500  0.398500  0.140400  1
  H  H26  1  0.217500  0.601500  0.859600  1
  H  H27  1  0.694300  0.477000  0.261500  1
  H  H28  1  0.305700  0.523000  0.738500  1
  H  H29  1  0.653700  0.313600  0.253100  1
  H  H30  1  0.346300  0.686400  0.746900  1
  H  H31  1  0.629900  0.368000  0.212800  1
  H  H32  1  0.370100  0.632000  0.787200  1
  H  H33  1  0.635300  0.391900  0.262300  1
  H  H34  1  0.364700  0.608100  0.737700  1
  H  H35  1  0.773200  0.296300  0.281200  1
  H  H36  1  0.226800  0.703700  0.718800  1
  H  H37  1  0.754800  0.374600  0.290200  1
  H  H38  1  0.245200  0.625400  0.709800  1
  H  H39  1  0.827600  0.339200  0.259100  1
  H  H40  1  0.172400  0.660800  0.740900  1
  H  H41  1  0.764300  0.257300  0.206800  1
  H  H42  1  0.235700  0.742700  0.793200  1
  H  H43  1  0.819900  0.298000  0.183100  1
  H  H44  1  0.180100  0.702000  0.816900  1
  H  H45  1  0.742500  0.309400  0.165000  1
  H  H46  1  0.257500  0.690600  0.835000  1
  H  H47  1  0.815000  0.463700  0.079100  1
  H  H48  1  0.185000  0.536300  0.920900  1
  H  H49  1  0.867500  0.453100  0.015200  1
  H  H50  1  0.132500  0.546900  0.984800  1
  H  H51  1  0.950700  0.642400  0.964900  1
  H  H52  1  0.049300  0.357600  0.035100  1
  H  H53  1  0.950700  0.344100  0.927800  1
  H  H54  1  0.049300  0.655900  0.072200  1
  H  H55  1  0.879300  0.385700  0.957400  1
  H  H56  1  0.120700  0.614300  0.042600  1
  H  H57  1  0.954200  0.360100  0.979500  1
  H  H58  1  0.045800  0.639900  0.020500  1
  H  H59  1  0.049100  0.590300  0.861500  1
  H  H60  1  0.950900  0.409700  0.138500  1
  H  H61  1  0.044700  0.614800  0.912100  1
  H  H62  1  0.955300  0.385200  0.087900  1
  H  H63  1  0.974700  0.637000  0.884900  1
  H  H64  1  0.025300  0.363000  0.115100  1
  H  H65  1  0.895300  0.723500  0.005300  1
  H  H66  1  0.104700  0.276500  0.994700  1
  H  H67  1  0.875200  0.901600  0.142100  1
  H  H68  1  0.124800  0.098400  0.857900  1
  H  H69  1  0.895900  0.834300  0.015900  1
  H  H70  1  0.104100  0.165700  0.984100  1
  H  H71  1  0.964900  0.913000  0.997300  1
  H  H72  1  0.035100  0.087000  0.002700  1
  H  H73  1  0.928200  0.992100  0.995000  1
  H  H74  1  0.071800  0.007900  0.005000  1
  H  H75  1  0.880700  0.940800  0.990700  1
  H  H76  1  0.119300  0.059200  0.009300  1
  H  H77  1  0.007700  0.922200  0.071200  1
  H  H78  1  0.992300  0.077800  0.928800  1
  H  H79  1  0.952300  0.958300  0.112600  1
  H  H80  1  0.047700  0.041700  0.887400  1
  H  H81  1  0.972300  0.001500  0.068200  1
  H  H82  1  0.027700  0.998500  0.931800  1
  H  H83  1  0.791100  0.995600  0.055600  1
  H  H84  1  0.208900  0.004400  0.944400  1
  H  H85  1  0.839100  0.046600  0.059200  1
  H  H86  1  0.160900  0.953400  0.940800  1
  H  H87  1  0.818700  0.002900  0.103300  1
  H  H88  1  0.181300  0.997100  0.896700  1
  H  H89  1  0.647200  0.602200  0.499200  1
  H  H90  1  0.352800  0.397800  0.500800  1
  H  H91  1  0.548100  0.649100  0.385600  1
  H  H92  1  0.451900  0.350900  0.614400  1
  H  H93  1  0.421000  0.599500  0.474200  1
  H  H94  1  0.579000  0.400500  0.525800  1
  H  H95  1  0.495300  0.547200  0.455800  1
  H  H96  1  0.504700  0.452800  0.544200  1
  H  H97  1  0.460300  0.610900  0.424300  1
  H  H98  1  0.539700  0.389100  0.575700  1
  H  H99  1  0.496500  0.736500  0.487600  1
  H  H100  1  0.503500  0.263500  0.512400  1
  H  H101  1  0.421600  0.715600  0.492800  1
  H  H102  1  0.578400  0.284400  0.507200  1
  H  H103  1  0.462200  0.725600  0.443100  1
  H  H104  1  0.537800  0.274400  0.556900  1
  H  H105  1  0.546400  0.637800  0.539000  1
  H  H106  1  0.453600  0.362200  0.461000  1
  H  H107  1  0.544400  0.564300  0.527100  1
  H  H108  1  0.455600  0.435700  0.472900  1
  H  H109  1  0.470500  0.619100  0.542800  1
  H  H110  1  0.529500  0.380900  0.457200  1
  H  H111  1  0.767900  0.584700  0.498700  1
  H  H112  1  0.232100  0.415300  0.501300  1
  H  H113  1  0.843600  0.574400  0.543400  1
  H  H114  1  0.156400  0.425600  0.456600  1
  H  H115  1  0.066400  0.598200  0.468600  1
  H  H116  1  0.933600  0.401800  0.531400  1
  H  H117  1  0.881800  0.562100  0.657300  1
  H  H118  1  0.118200  0.437900  0.342700  1
  H  H119  1  0.850900  0.540000  0.614900  1
  H  H120  1  0.149100  0.460000  0.385100  1
  H  H121  1  0.846000  0.617400  0.620300  1
  H  H122  1  0.154000  0.382600  0.379700  1
  H  H123  1  0.166300  0.584400  0.560100  1
  H  H124  1  0.833700  0.415600  0.439900  1
  H  H125  1  0.122800  0.634400  0.523200  1
  H  H126  1  0.877200  0.365600  0.476800  1
  H  H127  1  0.155300  0.556500  0.513200  1
  H  H128  1  0.844700  0.443500  0.486800  1
  H  H129  1  0.069900  0.580700  0.397000  1
  H  H130  1  0.930100  0.419300  0.603000  1
  H  H131  1  0.057000  0.679900  0.216800  1
  H  H132  1  0.943000  0.320100  0.783200  1
  H  H133  1  0.140700  0.571500  0.324400  1
  H  H134  1  0.859300  0.428500  0.675600  1
  H  H135  1  0.186000  0.497500  0.230500  1
  H  H136  1  0.814000  0.502500  0.769500  1
  H  H137  1  0.216700  0.510100  0.276000  1
  H  H138  1  0.783300  0.489900  0.724000  1
  H  H139  1  0.265600  0.508500  0.227800  1
  H  H140  1  0.734400  0.491500  0.772200  1
  H  H141  1  0.243600  0.613600  0.287500  1
  H  H142  1  0.756400  0.386400  0.712500  1
  H  H143  1  0.211300  0.679900  0.257500  1
  H  H144  1  0.788700  0.320100  0.742500  1
  H  H145  1  0.281600  0.624500  0.237200  1
  H  H146  1  0.718400  0.375500  0.762800  1
  H  H147  1  0.146900  0.601600  0.175000  1
  H  H148  1  0.853100  0.398400  0.825000  1
  H  H149  1  0.231500  0.598000  0.171100  1
  H  H150  1  0.768500  0.402000  0.828900  1
  H  H151  1  0.172000  0.666100  0.185100  1
  H  H152  1  0.828000  0.333900  0.814900  1
  H  H153  1  0.370100  0.898500  0.223000  1
  H  H154  1  0.629900  0.101500  0.777000  1
  H  H155  1  0.500500  0.714200  0.203900  1
  H  H156  1  0.499500  0.285800  0.796100  1
  H  H157  1  0.322800  0.713800  0.175800  1
  H  H158  1  0.677200  0.286200  0.824200  1
  H  H159  1  0.333600  0.730000  0.226200  1
  H  H160  1  0.666400  0.270000  0.773800  1
  H  H161  1  0.400900  0.687300  0.193800  1
  H  H162  1  0.599100  0.312700  0.806200  1
  H  H163  1  0.382300  0.767800  0.108200  1
  H  H164  1  0.617700  0.232200  0.891800  1
  H  H165  1  0.457500  0.738700  0.129500  1
  H  H166  1  0.542500  0.261300  0.870500  1
  H  H167  1  0.431200  0.816800  0.115200  1
  H  H168  1  0.568800  0.183200  0.884800  1
  H  H169  1  0.274300  0.833300  0.155000  1
  H  H170  1  0.725700  0.166700  0.845000  1
  H  H171  1  0.315600  0.888300  0.162900  1
  H  H172  1  0.684400  0.111700  0.837100  1
  H  H173  1  0.280500  0.851500  0.205800  1
  H  H174  1  0.719500  0.148500  0.794200  1
  H  H175  1  0.392900  0.966400  0.276100  1
  H  H176  1  0.607100  0.033600  0.723900  1
  H  H177  1  0.344200  0.029400  0.331300  1
  H  H178  1  0.655800  0.970600  0.668700  1
  H  H179  1  0.519300  0.116100  0.383100  1
  H  H180  1  0.480700  0.883900  0.616900  1
  H  H181  1  0.185200  0.140700  0.373900  1
  H  H182  1  0.814800  0.859300  0.626100  1
  H  H183  1  0.238100  0.066300  0.372200  1
  H  H184  1  0.761900  0.933700  0.627800  1
  H  H185  1  0.240300  0.117600  0.329100  1
  H  H186  1  0.759700  0.882400  0.670900  1
  H  H187  1  0.410300  0.257900  0.436800  1
  H  H188  1  0.589700  0.742100  0.563200  1
  H  H189  1  0.460100  0.234000  0.390200  1
  H  H190  1  0.539900  0.766000  0.609800  1
  H  H191  1  0.472300  0.188500  0.436200  1
  H  H192  1  0.527700  0.811500  0.563800  1
  H  H193  1  0.623300  0.062500  0.360300  1
  H  H194  1  0.376700  0.937500  0.639700  1
  H  H195  1  0.905400  0.915000  0.303700  1
  H  H196  1  0.094600  0.085000  0.696300  1
  H  H197  1  0.743200  0.060300  0.361800  1
  H  H198  1  0.256800  0.939700  0.638200  1
  H  H199  1  0.895700  0.103700  0.386200  1
  H  H200  1  0.104300  0.896300  0.613800  1
  H  H201  1  0.828800  0.074000  0.405900  1
  H  H202  1  0.171200  0.926000  0.594100  1
  H  H203  1  0.825300  0.119200  0.359500  1
  H  H204  1  0.174700  0.880800  0.640500  1
  H  H205  1  0.973700  0.062000  0.318200  1
  H  H206  1  0.026300  0.938000  0.681800  1
  H  H207  1  0.906700  0.073900  0.288900  1
  H  H208  1  0.093300  0.926100  0.711100  1
  H  H209  1  0.962300  0.001100  0.292300  1
  H  H210  1  0.037700  0.998900  0.707700  1
  H  H211  1  0.977800  0.990900  0.389300  1
  H  H212  1  0.022200  0.009100  0.610700  1
  H  H213  1  0.965000  0.932400  0.361600  1
  H  H214  1  0.035000  0.067600  0.638400  1
  H  H215  1  0.912600  0.957900  0.407000  1
  H  H216  1  0.087400  0.042100  0.593000  1
  H  H217  1  0.939300  0.555700  0.112400  1
  H  H218  1  0.060700  0.444300  0.887600  1
  H  H219  1  0.940800  0.621300  0.128500  1
  H  H220  1  0.059200  0.378700  0.871500  1
  H  H221  1  0.881600  0.528800  0.180500  1
  H  H222  1  0.118400  0.471200  0.819500  1
  H  H223  1  0.878200  0.600800  0.198000  1
  H  H224  1  0.121800  0.399200  0.802000  1
  H  H225  1  0.007600  0.569200  0.193900  1
  H  H226  1  0.992400  0.430800  0.806100  1
  H  H227  1  0.007900  0.495900  0.179900  1
  H  H228  1  0.992100  0.504100  0.820100  1
  H  H229  1  0.016300  0.495500  0.258900  1
  H  H230  1  0.983700  0.504500  0.741100  1
  H  H231  1  0.943300  0.554700  0.265300  1
  H  H232  1  0.056700  0.445300  0.734700  1
  H  H233  1  0.949700  0.421600  0.242700  1
  H  H234  1  0.050300  0.578400  0.757300  1
  H  H235  1  0.876500  0.480900  0.247600  1
  H  H236  1  0.123500  0.519100  0.752400  1
  H  H237  1  0.959900  0.427100  0.322100  1
  H  H238  1  0.040100  0.572900  0.677900  1
  H  H239  1  0.887000  0.408500  0.314400  1
  H  H240  1  0.113000  0.591500  0.685600  1
  H  H241  1  0.845900  0.541900  0.316500  1
  H  H242  1  0.154100  0.458100  0.683500  1
  H  H243  1  0.826400  0.491900  0.356900  1
  H  H244  1  0.173600  0.508100  0.643100  1
  H  H245  1  0.954100  0.526300  0.352600  1
  H  H246  1  0.045900  0.473700  0.647400  1
  H  H247  1  0.914400  0.500900  0.393100  1
  H  H248  1  0.085600  0.499100  0.606900  1
  H  H249  1  0.882700  0.730700  0.405000  1
  H  H250  1  0.117300  0.269300  0.595000  1
  H  H251  1  0.821400  0.739900  0.378000  1
  H  H252  1  0.178600  0.260100  0.622000  1
  H  H253  1  0.813600  0.736400  0.471200  1
  H  H254  1  0.186400  0.263600  0.528800  1
  H  H255  1  0.746300  0.731600  0.446000  1
  H  H256  1  0.253700  0.268400  0.554000  1
  H  H257  1  0.811200  0.841600  0.435900  1
  H  H258  1  0.188800  0.158400  0.564100  1
  H  H259  1  0.750700  0.836100  0.405200  1
  H  H260  1  0.249300  0.163900  0.594800  1
  H  H261  1  0.695900  0.909800  0.462500  1
  H  H262  1  0.304100  0.090200  0.537500  1
  H  H263  1  0.728700  0.856000  0.500900  1
  H  H264  1  0.271300  0.144000  0.499100  1
  H  H265  1  0.648300  0.794400  0.495400  1
  H  H266  1  0.351700  0.205600  0.504600  1
  H  H267  1  0.600800  0.870600  0.496100  1
  H  H268  1  0.399200  0.129400  0.503900  1
  H  H269  1  0.644200  0.790500  0.417800  1
  H  H270  1  0.355800  0.209500  0.582200  1
  H  H271  1  0.563000  0.817200  0.441600  1
  H  H272  1  0.437000  0.182800  0.558400  1
  H  H273  1  0.559500  0.927300  0.415200  1
  H  H274  1  0.440500  0.072700  0.584800  1
  H  H275  1  0.643400  0.904700  0.395100  1
  H  H276  1  0.356600  0.095300  0.604900  1
  H  H277  1  0.529700  0.872800  0.363400  1
  H  H278  1  0.470300  0.127200  0.636600  1
  H  H279  1  0.604300  0.831500  0.351200  1
  H  H280  1  0.395700  0.168500  0.648800  1
  H  H281  1  0.580700  0.018800  0.247100  1
  H  H282  1  0.419300  0.981200  0.752900  1
  H  H283  1  0.647600  0.966400  0.235300  1
  H  H284  1  0.352400  0.033600  0.764700  1
  H  H285  1  0.537200  0.011700  0.191700  1
  H  H286  1  0.462800  0.988300  0.808300  1
  H  H287  1  0.553300  0.932500  0.198800  1
  H  H288  1  0.446700  0.067500  0.801200  1
  H  H289  1  0.670000  0.979900  0.160000  1
  H  H290  1  0.330000  0.020100  0.840000  1
  H  H291  1  0.605300  0.988700  0.129300  1
  H  H292  1  0.394700  0.011300  0.870700  1
  H  H293  1  0.711600  0.880800  0.122900  1
  H  H294  1  0.288400  0.119200  0.877100  1
  H  H295  1  0.668900  0.855300  0.167300  1
  H  H296  1  0.331100  0.144700  0.832700  1
  H  H297  1  0.579200  0.842300  0.128200  1
  H  H298  1  0.420800  0.157700  0.871800  1
  H  H299  1  0.596800  0.891300  0.086900  1
  H  H300  1  0.403200  0.108700  0.913100  1
  H  H301  1  0.702600  0.809000  0.067200  1
  H  H302  1  0.297400  0.191000  0.932800  1
  H  H303  1  0.627700  0.795400  0.058600  1
  H  H304  1  0.372300  0.204600  0.941400  1
  H  H305  1  0.700900  0.737800  0.135400  1
  H  H306  1  0.299100  0.262200  0.864600  1
  H  H307  1  0.633400  0.718400  0.119000  1
  H  H308  1  0.366600  0.281600  0.881000  1
  H  H309  1  0.739000  0.698200  0.051700  1
  H  H310  1  0.261000  0.301800  0.948300  1
  H  H311  1  0.705200  0.647400  0.076200  1
  H  H312  1  0.294800  0.352600  0.923800  1
  H  H313  1  0.737000  0.733200  0.327000  1
  H  H314  1  0.263000  0.266800  0.673000  1
  H  H315  1  0.729000  0.797000  0.316700  1
  H  H316  1  0.271000  0.203000  0.683300  1
  H  H317  1  0.053800  0.188300  0.205100  1
  H  H318  1  0.946200  0.811700  0.794900  1
  H  H319  1  0.222300  0.245200  0.243000  1
  H  H320  1  0.777700  0.754800  0.757000  1
  H  H321  1  0.258500  0.068900  0.181500  1
  H  H322  1  0.741500  0.931100  0.818500  1
  H  H323  1  0.176700  0.031800  0.252600  1
  H  H324  1  0.823300  0.968200  0.747400  1
  H  H325  1  0.128300  0.857400  0.295800  1
  H  H326  1  0.871700  0.142600  0.704200  1
  H  H327  1  0.068900  0.949000  0.175900  1
  H  H328  1  0.931100  0.051000  0.824100  1
  H  H329  1  0.206600  0.119200  0.103500  1
  H  H330  1  0.793400  0.880800  0.896500  1
  H  H331  1  0.291900  0.974000  0.012400  1
  H  H332  1  0.708100  0.026000  0.987600  1
  H  H333  1  0.156300  0.942000  0.122100  1
  H  H334  1  0.843700  0.058000  0.877900  1
  H  H335  1  0.979600  0.051700  0.202700  1
  H  H336  1  0.020400  0.948300  0.797300  1
  H  H337  1  0.850100  0.176900  0.117800  1
  H  H338  1  0.149900  0.823100  0.882200  1
  H  H339  1  0.067000  0.154600  0.100000  1
  H  H340  1  0.933000  0.845400  0.900000  1
  H  H341  1  0.136200  0.901300  0.491700  1
  H  H342  1  0.863800  0.098700  0.508300  1
  H  H343  1  0.262100  0.030600  0.468500  1
  H  H344  1  0.737900  0.969400  0.531500  1
  H  H345  1  0.352400  0.833200  0.492800  1
  H  H346  1  0.647600  0.166800  0.507200  1
  H  H347  1  0.296200  0.817300  0.573900  1
  H  H348  1  0.703800  0.182700  0.426100  1
  H  H349  1  0.373500  0.645800  0.646700  1
  H  H350  1  0.626500  0.354200  0.353300  1
  H  H351  1  0.280300  0.642400  0.532300  1
  H  H352  1  0.719700  0.357600  0.467700  1
  H  H353  1  0.228100  0.656200  0.472000  1
  H  H354  1  0.771900  0.343800  0.528000  1
  H  H355  1  0.345600  0.636000  0.347300  1
  H  H356  1  0.654400  0.364000  0.652700  1
  H  H357  1  0.318000  0.802000  0.418700  1
  H  H358  1  0.682000  0.198000  0.581300  1
  H  H359  1  0.127700  0.783600  0.450100  1
  H  H360  1  0.872300  0.216400  0.549900  1
  H  H361  1  0.958600  0.768300  0.543600  1
  H  H362  1  0.041400  0.231700  0.456400  1
  H  H363  1  0.149500  0.766600  0.584200  1
  H  H364  1  0.850500  0.233400  0.415800  1
  H  H365  1  0.552100  0.259100  0.170600  1
  H  H366  1  0.447900  0.740900  0.829400  1
  H  H367  1  0.454400  0.215100  0.294900  1
  H  H368  1  0.545600  0.784900  0.705100  1
  H  H369  1  0.362800  0.384400  0.223400  1
  H  H370  1  0.637200  0.615600  0.776600  1
  H  H371  1  0.529100  0.469600  0.094700  1
  H  H372  1  0.470900  0.530400  0.905300  1
  H  H373  1  0.551900  0.590800  0.191100  1
  H  H374  1  0.448100  0.409200  0.808900  1
  H  H375  1  0.458400  0.438800  0.228100  1
  H  H376  1  0.541600  0.561200  0.771900  1
  H  H377  1  0.609200  0.353100  0.116100  1
  H  H378  1  0.390800  0.646900  0.883900  1
  H  H379  1  0.633100  0.245600  0.003300  1
  H  H380  1  0.366900  0.754400  0.996700  1
  H  H381  1  0.435100  0.311600  0.074900  1
  H  H382  1  0.564900  0.688400  0.925100  1
  H  H383  1  0.397300  0.494400  0.095000  1
  H  H384  1  0.602700  0.505600  0.905000  1
  H  H385  1  0.215000  0.458100  0.059800  1
  H  H386  1  0.785000  0.541900  0.940200  1
  H  H387  1  0.342300  0.325900  0.143900  1
  H  H388  1  0.657700  0.674100  0.856100  1
  H  H389  1  0.729000  0.652000  0.572000  1
  H  H390  1  0.271000  0.348000  0.428000  1
  H  H391  1  0.688000  0.614000  0.601600  1
  H  H392  1  0.312000  0.386000  0.398400  1
  H  H393  1  0.721300  0.765100  0.576900  1
  H  H394  1  0.278700  0.234900  0.423100  1
  H  H395  1  0.820100  0.790300  0.556800  1
  H  H396  1  0.179900  0.209700  0.443200  1
  H  H397  1  0.859600  0.712000  0.552800  1
  H  H398  1  0.140400  0.288000  0.447200  1
  H  H399  1  0.829700  0.742600  0.601900  1
  H  H400  1  0.170300  0.257400  0.398100  1
  H  H401  1  0.036600  0.740100  0.150300  1
  H  H402  1  0.963400  0.259900  0.849700  1
  H  H403  1  0.088800  0.756700  0.065200  1
  H  H404  1  0.911200  0.243300  0.934800  1
  H  H405  1  0.136600  0.737400  0.107100  1
  H  H406  1  0.863400  0.262600  0.892900  1
  H  H407  1  0.079500  0.809400  0.103900  1
  H  H408  1  0.920500  0.190600  0.896100  1
  H  H409  1  0.231000  0.556500  0.293000  1
  H  H410  1  0.769000  0.443500  0.707000  1
  H  H411  1  0.288100  0.552800  0.248200  1
  H  H412  1  0.711900  0.447200  0.751800  1
  H  H413  1  0.237900  0.501900  0.255900  1
  H  H414  1  0.762100  0.498100  0.744100  1
  H  H415  1  0.170200  0.689400  0.205500  1
  H  H416  1  0.829800  0.310600  0.794500  1
  H  H417  1  0.248400  0.640500  0.190300  1
  H  H418  1  0.751600  0.359500  0.809700  1
  H  H419  1  0.231800  0.672700  0.239400  1
  H  H420  1  0.768200  0.327300  0.760600  1
  H  H421  1  0.142100  0.589400  0.173400  1
  H  H422  1  0.857900  0.410600  0.826600  1
  H  H423  1  0.150600  0.521200  0.203900  1
  H  H424  1  0.849400  0.478800  0.796100  1
  H  H425  1  0.220600  0.538100  0.175700  1
  H  H426  1  0.779400  0.461900  0.824300  1
  H  H427  1  0.356800  0.719400  0.141400  1
  H  H428  1  0.643200  0.280600  0.858600  1
  H  H429  1  0.392400  0.692900  0.187600  1
  H  H430  1  0.607600  0.307100  0.812400  1
  H  H431  1  0.441300  0.711900  0.143400  1
  H  H432  1  0.558700  0.288100  0.856600  1
  H  H433  1  0.373600  0.887200  0.138900  1
  H  H434  1  0.626400  0.112800  0.861100  1
  H  H435  1  0.345200  0.839000  0.110000  1
  H  H436  1  0.654800  0.161000  0.890000  1
  H  H437  1  0.430400  0.826200  0.112800  1
  H  H438  1  0.569600  0.173800  0.887200  1
  H  H439  1  0.290500  0.866000  0.200400  1
  H  H440  1  0.709500  0.134000  0.799600  1
  H  H441  1  0.287800  0.793200  0.221300  1
  H  H442  1  0.712200  0.206800  0.778700  1
  H  H443  1  0.267600  0.815400  0.170500  1
  H  H444  1  0.732400  0.184600  0.829500  1
  H  H445  1  0.552600  0.996900  0.233600  1
  H  H446  1  0.447400  0.003100  0.766400  1
  H  H447  1  0.621400  0.005900  0.245400  1
  H  H448  1  0.378600  0.994100  0.754600  1
  H  H449  1  0.649200  0.891600  0.210800  1
  H  H450  1  0.350800  0.108400  0.789200  1
  H  H451  1  0.679800  0.954500  0.193800  1
  H  H452  1  0.320200  0.045500  0.806200  1
  H  H453  1  0.546100  0.940600  0.171300  1
  H  H454  1  0.453900  0.059400  0.828700  1
  H  H455  1  0.583800  0.998000  0.151400  1
  H  H456  1  0.416200  0.002000  0.848600  1
  H  H457  1  0.608300  0.929300  0.093600  1
  H  H458  1  0.391700  0.070700  0.906400  1
  H  H459  1  0.682000  0.903800  0.117900  1
  H  H460  1  0.318000  0.096200  0.882100  1
  H  H461  1  0.563300  0.856200  0.125500  1
  H  H462  1  0.436700  0.143800  0.874500  1
  H  H463  1  0.607000  0.848000  0.168000  1
  H  H464  1  0.393000  0.152000  0.832000  1
  H  H465  1  0.684300  0.756800  0.146000  1
  H  H466  1  0.315700  0.243200  0.854000  1
  H  H467  1  0.612200  0.750600  0.128200  1
  H  H468  1  0.387800  0.249400  0.871800  1
  H  H469  1  0.726700  0.779000  0.071400  1
  H  H470  1  0.273300  0.221000  0.928600  1
  H  H471  1  0.656600  0.763200  0.056000  1
  H  H472  1  0.343400  0.236800  0.944000  1
  H  H473  1  0.735000  0.667800  0.050100  1
  H  H474  1  0.265000  0.332200  0.949900  1
  H  H475  1  0.695500  0.658400  0.095000  1
  H  H476  1  0.304500  0.341600  0.905000  1
  H  H477  1  0.401200  0.495900  0.089800  1
  H  H478  1  0.598800  0.504100  0.910200  1
  H  H479  1  0.188200  0.500700  0.097300  1
  H  H480  1  0.811800  0.499300  0.902700  1
  H  H481  1  0.329900  0.346700  0.159800  1
  H  H482  1  0.670100  0.653300  0.840200  1
  H  H483  1  0.402900  0.499500  0.101200  1
  H  H484  1  0.597100  0.500500  0.898800  1
  H  H485  1  0.204400  0.485900  0.077100  1
  H  H486  1  0.795600  0.514100  0.922900  1
  H  H487  1  0.323000  0.350800  0.164800  1
  H  H488  1  0.677000  0.649200  0.835200  1
  C  C489  1  0.687200  0.603600  0.245850  1
  C  C490  1  0.312800  0.396400  0.754150  1
  C  C491  1  0.694200  0.597200  0.292420  1
  C  C492  1  0.305800  0.402800  0.707580  1
  C  C493  1  0.655100  0.646700  0.322260  1
  C  C494  1  0.344900  0.353300  0.677740  1
  C  C495  1  0.607900  0.702990  0.304260  1
  C  C496  1  0.392100  0.297010  0.695740  1
  C  C497  1  0.600500  0.711700  0.257630  1
  C  C498  1  0.399500  0.288300  0.742370  1
  C  C499  1  0.641200  0.661600  0.228940  1
  C  C500  1  0.358800  0.338400  0.771060  1
  C  C501  1  0.859000  0.798900  0.192320  1
  C  C502  1  0.141000  0.201100  0.807680  1
  C  C503  1  0.907700  0.741200  0.209090  1
  C  C504  1  0.092300  0.258800  0.790910  1
  C  C505  1  0.922200  0.734900  0.253950  1
  C  C506  1  0.077800  0.265100  0.746050  1
  C  C507  1  0.886300  0.787300  0.283050  1
  C  C508  1  0.113700  0.212700  0.716950  1
  C  C509  1  0.837400  0.843700  0.267800  1
  C  C510  1  0.162600  0.156300  0.732200  1
  C  C511  1  0.823500  0.849400  0.222280  1
  C  C512  1  0.176500  0.150600  0.777720  1
  C  C513  1  0.720500  0.545800  0.215710  1
  C  C514  1  0.279500  0.454200  0.784290  1
  C  C515  1  0.753400  0.555500  0.170470  1
  C  C516  1  0.246600  0.444500  0.829530  1
  C  C517  1  0.775600  0.498200  0.142670  1
  C  C518  1  0.224400  0.501800  0.857330  1
  C  C519  1  0.768200  0.435200  0.160100  1
  C  C520  1  0.231800  0.564800  0.839900  1
  C  C521  1  0.741000  0.424600  0.204490  1
  C  C522  1  0.259000  0.575400  0.795510  1
  C  C523  1  0.715800  0.482300  0.231140  1
  C  C524  1  0.284200  0.517700  0.768860  1
  C  C525  1  0.735800  0.356300  0.225580  1
  C  C526  1  0.264200  0.643700  0.774420  1
  C  C527  1  0.656600  0.357600  0.239700  1
  C  C528  1  0.343400  0.642400  0.760300  1
  C  C529  1  0.776500  0.340200  0.267800  1
  C  C530  1  0.223500  0.659800  0.732200  1
  C  C531  1  0.768600  0.300200  0.192100  1
  C  C532  1  0.231400  0.699800  0.807900  1
  C  C533  1  0.807600  0.502100  0.096660  1
  C  C534  1  0.192400  0.497900  0.903340  1
  C  C535  1  0.867000  0.547700  0.032280  1
  C  C536  1  0.133000  0.452300  0.967720  1
  C  C537  1  0.885000  0.491100  0.005300  1
  C  C538  1  0.115000  0.508900  0.994700  1
  C  C539  1  0.928100  0.491300  0.964320  1
  C  C540  1  0.071900  0.508700  0.035680  1
  C  C541  1  0.952400  0.548000  0.949230  1
  C  C542  1  0.047600  0.452000  0.050770  1
  C  C543  1  0.934200  0.604100  0.975320  1
  C  C544  1  0.065800  0.395900  0.024680  1
  C  C545  1  0.891100  0.603600  0.017390  1
  C  C546  1  0.108900  0.396400  0.982610  1
  C  C547  1  0.932200  0.377300  0.951390  1
  C  C548  1  0.067800  0.622700  0.048610  1
  C  C549  1  0.017900  0.600700  0.890330  1
  C  C550  1  0.982100  0.399300  0.109670  1
  C  C551  1  0.880700  0.715300  0.036670  1
  C  C552  1  0.119300  0.284700  0.963330  1
  C  C553  1  0.869800  0.769000  0.066400  1
  C  C554  1  0.130200  0.231000  0.933600  1
  C  C555  1  0.850000  0.760300  0.114180  1
  C  C556  1  0.150000  0.239700  0.885820  1
  C  C557  1  0.857900  0.810600  0.142190  1
  C  C558  1  0.142100  0.189400  0.857810  1
  C  C559  1  0.873000  0.868100  0.122570  1
  C  C560  1  0.127000  0.131900  0.877430  1
  C  C561  1  0.885500  0.880100  0.075050  1
  C  C562  1  0.114500  0.119900  0.924950  1
  C  C563  1  0.885300  0.829100  0.048070  1
  C  C564  1  0.114700  0.170900  0.951930  1
  C  C565  1  0.900900  0.947000  0.057660  1
  C  C566  1  0.099100  0.053000  0.942340  1
  C  C567  1  0.920400  0.948400  0.005380  1
  C  C568  1  0.079600  0.051600  0.994620  1
  C  C569  1  0.963900  0.958200  0.079300  1
  C  C570  1  0.036100  0.041800  0.920700  1
  C  C571  1  0.831100  0.003200  0.070100  1
  C  C572  1  0.168900  0.996800  0.929900  1
  C  C573  1  0.656100  0.636670  0.373060  1
  C  C574  1  0.343900  0.363330  0.626940  1
  C  C575  1  0.721400  0.625370  0.393830  1
  C  C576  1  0.278600  0.374630  0.606170  1
  C  C577  1  0.716400  0.610300  0.441660  1
  C  C578  1  0.283600  0.389700  0.558340  1
  C  C579  1  0.648700  0.612300  0.467310  1
  C  C580  1  0.351300  0.387700  0.532690  1
  C  C581  1  0.585300  0.628360  0.447750  1
  C  C582  1  0.414700  0.371640  0.552250  1
  C  C583  1  0.591200  0.639290  0.400110  1
  C  C584  1  0.408800  0.360710  0.599890  1
  C  C585  1  0.511200  0.635600  0.475920  1
  C  C586  1  0.488800  0.364400  0.524080  1
  C  C587  1  0.468000  0.594600  0.455730  1
  C  C588  1  0.532000  0.405400  0.544270  1
  C  C589  1  0.469000  0.710100  0.474740  1
  C  C590  1  0.531000  0.289900  0.525260  1
  C  C591  1  0.518800  0.612100  0.525660  1
  C  C592  1  0.481200  0.387900  0.474340  1
  C  C593  1  0.776600  0.595900  0.467070  1
  C  C594  1  0.223400  0.404100  0.532930  1
  C  C595  1  0.897400  0.589400  0.480710  1
  C  C596  1  0.102600  0.410600  0.519290  1
  C  C597  1  0.888800  0.578500  0.528110  1
  C  C598  1  0.111200  0.421500  0.471890  1
  C  C599  1  0.946600  0.573800  0.552590  1
  C  C600  1  0.053400  0.426200  0.447410  1
  C  C601  1  0.013800  0.580600  0.530120  1
  C  C602  1  0.986200  0.419400  0.469880  1
  C  C603  1  0.021800  0.592400  0.483710  1
  C  C604  1  0.978200  0.407600  0.516290  1
  C  C605  1  0.963700  0.595800  0.458610  1
  C  C606  1  0.036300  0.404200  0.541390  1
  C  C607  1  0.875400  0.571200  0.624880  1
  C  C608  1  0.124600  0.428800  0.375120  1
  C  C609  1  0.133000  0.588800  0.536950  1
  C  C610  1  0.867000  0.411200  0.463050  1
  C  C611  1  0.025800  0.598300  0.383800  1
  C  C612  1  0.974200  0.401700  0.616200  1
  C  C613  1  0.030500  0.612900  0.336000  1
  C  C614  1  0.969500  0.387100  0.664000  1
  C  C615  1  0.968500  0.648700  0.314540  1
  C  C616  1  0.031500  0.351300  0.685460  1
  C  C617  1  0.981100  0.679900  0.270970  1
  C  C618  1  0.018900  0.320100  0.729030  1
  C  C619  1  0.050000  0.661600  0.246880  1
  C  C620  1  0.950000  0.338400  0.753120  1
  C  C621  1  0.110200  0.616800  0.265270  1
  C  C622  1  0.889800  0.383200  0.734730  1
  C  C623  1  0.099900  0.597000  0.310030  1
  C  C624  1  0.900100  0.403000  0.689970  1
  C  C625  1  0.185000  0.595100  0.236300  1
  C  C626  1  0.815000  0.404900  0.763700  1
  C  C627  1  0.215900  0.521500  0.243200  1
  C  C628  1  0.784100  0.478500  0.756800  1
  C  C629  1  0.235100  0.631700  0.256500  1
  C  C630  1  0.764900  0.368300  0.743500  1
  C  C631  1  0.183700  0.617000  0.187800  1
  C  C632  1  0.816300  0.383000  0.812200  1
  C  C633  1  0.541900  0.768300  0.241480  1
  C  C634  1  0.458100  0.231700  0.758520  1
  C  C635  1  0.532700  0.834000  0.256580  1
  C  C636  1  0.467300  0.166000  0.743420  1
  C  C637  1  0.464300  0.880800  0.252580  1
  C  C638  1  0.535700  0.119200  0.747420  1
  C  C639  1  0.414700  0.865800  0.226350  1
  C  C640  1  0.585300  0.134200  0.773650  1
  C  C641  1  0.428400  0.806300  0.205690  1
  C  C642  1  0.571600  0.193700  0.794310  1
  C  C643  1  0.491800  0.757400  0.215700  1
  C  C644  1  0.508200  0.242600  0.784300  1
  C  C645  1  0.376000  0.791600  0.175210  1
  C  C646  1  0.624000  0.208400  0.824790  1
  C  C647  1  0.356400  0.724200  0.194600  1
  C  C648  1  0.643600  0.275800  0.805400  1
  C  C649  1  0.415200  0.777500  0.127900  1
  C  C650  1  0.584800  0.222500  0.872100  1
  C  C651  1  0.305400  0.846000  0.174700  1
  C  C652  1  0.694600  0.154000  0.825300  1
  C  C653  1  0.441300  0.939900  0.277470  1
  C  C654  1  0.558700  0.060100  0.722530  1
  C  C655  1  0.453500  0.017200  0.330140  1
  C  C656  1  0.546500  0.982800  0.669860  1
  C  C657  1  0.379700  0.047300  0.341590  1
  C  C658  1  0.620300  0.952700  0.658410  1
  C  C659  1  0.358400  0.102900  0.367740  1
  C  C660  1  0.641600  0.897100  0.632260  1
  C  C661  1  0.412000  0.128800  0.382840  1
  C  C662  1  0.588000  0.871200  0.617160  1
  C  C663  1  0.483800  0.098700  0.372360  1
  C  C664  1  0.516200  0.901300  0.627640  1
  C  C665  1  0.505400  0.042000  0.345700  1
  C  C666  1  0.494600  0.958000  0.654300  1
  C  C667  1  0.233500  0.113400  0.362600  1
  C  C668  1  0.766500  0.886600  0.637400  1
  C  C669  1  0.435900  0.219000  0.418690  1
  C  C670  1  0.564100  0.781000  0.581310  1
  C  C671  1  0.633700  0.023300  0.343130  1
  C  C672  1  0.366300  0.976700  0.656870  1
  C  C673  1  0.708000  0.989900  0.332160  1
  C  C674  1  0.292000  0.010100  0.667840  1
  C  C675  1  0.731100  0.929900  0.307690  1
  C  C676  1  0.268900  0.070100  0.692310  1
  C  C677  1  0.807100  0.903000  0.297080  1
  C  C678  1  0.192900  0.097000  0.702920  1
  C  C679  1  0.854900  0.934300  0.311400  1
  C  C680  1  0.145100  0.065700  0.688600  1
  C  C681  1  0.833300  0.992900  0.336770  1
  C  C682  1  0.166700  0.007100  0.663230  1
  C  C683  1  0.760100  0.019900  0.345780  1
  C  C684  1  0.239900  0.980100  0.654220  1
  C  C685  1  0.890500  0.024000  0.351180  1
  C  C686  1  0.109500  0.976000  0.648820  1
  C  C687  1  0.857200  0.085600  0.378000  1
  C  C688  1  0.142800  0.914400  0.622000  1
  C  C689  1  0.937600  0.041800  0.308800  1
  C  C690  1  0.062400  0.958200  0.691200  1
  C  C691  1  0.941000  0.971600  0.379800  1
  C  C692  1  0.059000  0.028400  0.620200  1
  C  C693  1  0.907800  0.564100  0.178510  1
  C  C694  1  0.092200  0.435900  0.821490  1
  C  C695  1  0.979500  0.535300  0.197420  1
  C  C696  1  0.020500  0.464700  0.802580  1
  C  C697  1  0.968100  0.514100  0.247960  1
  C  C698  1  0.031900  0.485900  0.752040  1
  C  C699  1  0.924300  0.463000  0.259120  1
  C  C700  1  0.075700  0.537000  0.740880  1
  C  C701  1  0.912200  0.444600  0.310260  1
  C  C702  1  0.087800  0.555400  0.689740  1
  C  C703  1  0.867100  0.504900  0.337960  1
  C  C704  1  0.132900  0.495100  0.662040  1
  C  C705  1  0.790000  0.748800  0.442800  1
  C  C706  1  0.210000  0.251200  0.557200  1
  C  C707  1  0.767800  0.824800  0.435750  1
  C  C708  1  0.232200  0.175200  0.564250  1
  C  C709  1  0.708700  0.861300  0.471230  1
  C  C710  1  0.291300  0.138700  0.528770  1
  C  C711  1  0.638900  0.837700  0.477680  1
  C  C712  1  0.361100  0.162300  0.522320  1
  C  C713  1  0.609800  0.828800  0.433710  1
  C  C714  1  0.390200  0.171200  0.566290  1
  C  C715  1  0.598200  0.890000  0.401080  1
  C  C716  1  0.401800  0.110000  0.598920  1
  C  C717  1  0.576000  0.970200  0.196900  1
  C  C718  1  0.424000  0.029800  0.803100  1
  C  C719  1  0.629400  0.961700  0.154800  1
  C  C720  1  0.370600  0.038300  0.845200  1
  C  C721  1  0.662600  0.884500  0.139200  1
  C  C722  1  0.337400  0.115500  0.860800  1
  C  C723  1  0.619300  0.855000  0.108300  1
  C  C724  1  0.380700  0.145000  0.891700  1
  C  C725  1  0.657500  0.799500  0.082700  1
  C  C726  1  0.342500  0.200500  0.917300  1
  C  C727  1  0.678000  0.732600  0.108200  1
  C  C728  1  0.322000  0.267400  0.891800  1
  C  C729  1  0.150000  0.120300  0.188900  1
  C  C730  1  0.850000  0.879700  0.811100  1
  C  C731  1  0.104600  0.179400  0.206300  1
  C  C732  1  0.895400  0.820600  0.793700  1
  C  C733  1  0.131100  0.226200  0.225700  1
  C  C734  1  0.868900  0.773800  0.774300  1
  C  C735  1  0.204400  0.213900  0.229100  1
  C  C736  1  0.795600  0.786100  0.770900  1
  C  C737  1  0.252000  0.155100  0.212100  1
  C  C738  1  0.748000  0.844900  0.787900  1
  C  C739  1  0.225500  0.108900  0.192600  1
  C  C740  1  0.774500  0.891100  0.807400  1
  C  C741  1  0.077700  0.290200  0.241800  1
  C  C742  1  0.922300  0.709800  0.758200  1
  C  C743  1  0.330600  0.142400  0.213400  1
  C  C744  1  0.669400  0.857600  0.786600  1
  C  C745  1  0.122700  0.001800  0.206900  1
  C  C746  1  0.877300  0.998200  0.793100  1
  C  C747  1  0.155200  0.997400  0.247190  1
  C  C748  1  0.844800  0.002600  0.752810  1
  C  C749  1  0.157400  0.944800  0.279800  1
  C  C750  1  0.842600  0.055200  0.720200  1
  C  C751  1  0.126800  0.893400  0.273800  1
  C  C752  1  0.873200  0.106600  0.726200  1
  C  C753  1  0.093800  0.896500  0.234500  1
  C  C754  1  0.906200  0.103500  0.765500  1
  C  C755  1  0.092100  0.948900  0.202400  1
  C  C756  1  0.907900  0.051100  0.797600  1
  C  C757  1  0.190500  0.946200  0.321100  1
  C  C758  1  0.809500  0.053800  0.678900  1
  C  C759  1  0.059000  0.843700  0.226100  1
  C  C760  1  0.941000  0.156300  0.773900  1
  C  C761  1  0.173400  0.035300  0.121100  1
  C  C762  1  0.826600  0.964700  0.878900  1
  C  C763  1  0.210800  0.075300  0.094200  1
  C  C764  1  0.789200  0.924700  0.905800  1
  C  C765  1  0.254800  0.053000  0.053800  1
  C  C766  1  0.745200  0.947000  0.946200  1
  C  C767  1  0.261100  0.989500  0.039300  1
  C  C768  1  0.738900  0.010500  0.960700  1
  C  C769  1  0.222400  0.948400  0.064200  1
  C  C770  1  0.777600  0.051600  0.935800  1
  C  C771  1  0.181000  0.971000  0.104600  1
  C  C772  1  0.819000  0.029000  0.895400  1
  C  C773  1  0.293900  0.097600  0.027400  1
  C  C774  1  0.706100  0.902400  0.972600  1
  C  C775  1  0.224000  0.883300  0.048300  1
  C  C776  1  0.776000  0.116700  0.951700  1
  C  C777  1  0.038100  0.096000  0.154000  1
  C  C778  1  0.961900  0.904000  0.846000  1
  C  C779  1  0.975100  0.082300  0.177010  1
  C  C780  1  0.024900  0.917700  0.822990  1
  C  C781  1  0.906200  0.111600  0.163850  1
  C  C782  1  0.093800  0.888400  0.836150  1
  C  C783  1  0.896900  0.157500  0.127360  1
  C  C784  1  0.103100  0.842500  0.872640  1
  C  C785  1  0.957500  0.174600  0.105000  1
  C  C786  1  0.042500  0.825400  0.895000  1
  C  C787  1  0.026300  0.143600  0.117130  1
  C  C788  1  0.973700  0.856400  0.882870  1
  C  C789  1  0.842000  0.092500  0.189200  1
  C  C790  1  0.158000  0.907500  0.810800  1
  C  C791  1  0.946900  0.225900  0.066800  1
  C  C792  1  0.053100  0.774100  0.933200  1
  C  C793  1  0.242800  0.853600  0.493890  1
  C  C794  1  0.757200  0.146400  0.506110  1
  C  C795  1  0.183200  0.908600  0.488730  1
  C  C796  1  0.816800  0.091400  0.511270  1
  C  C797  1  0.189900  0.973400  0.479490  1
  C  C798  1  0.810100  0.026600  0.520510  1
  C  C799  1  0.257200  0.986300  0.474910  1
  C  C800  1  0.742800  0.013700  0.525090  1
  C  C801  1  0.317600  0.932600  0.480010  1
  C  C802  1  0.682400  0.067400  0.519990  1
  C  C803  1  0.310000  0.868700  0.489300  1
  C  C804  1  0.690000  0.131300  0.510700  1
  C  C805  1  0.123500  0.030600  0.474000  1
  C  C806  1  0.876500  0.969400  0.526000  1
  C  C807  1  0.391400  0.942900  0.469600  1
  C  C808  1  0.608600  0.057100  0.530400  1
  C  C809  1  0.281900  0.737200  0.544430  1
  C  C810  1  0.718100  0.262800  0.455570  1
  C  C811  1  0.304400  0.770000  0.577060  1
  C  C812  1  0.695600  0.230000  0.422940  1
  C  C813  1  0.338300  0.736200  0.614090  1
  C  C814  1  0.661700  0.263800  0.385910  1
  C  C815  1  0.350200  0.668300  0.621300  1
  C  C816  1  0.649800  0.331700  0.378700  1
  C  C817  1  0.327400  0.633600  0.590470  1
  C  C818  1  0.672600  0.366400  0.409530  1
  C  C819  1  0.294800  0.667600  0.553140  1
  C  C820  1  0.705200  0.332400  0.446860  1
  C  C821  1  0.361400  0.775700  0.647200  1
  C  C822  1  0.638600  0.224300  0.352800  1
  C  C823  1  0.336700  0.560400  0.597750  1
  C  C824  1  0.663300  0.439600  0.402250  1
  C  C825  1  0.269800  0.735000  0.454130  1
  C  C826  1  0.730200  0.265000  0.545870  1
  C  C827  1  0.257200  0.673600  0.448390  1
  C  C828  1  0.742800  0.326400  0.551610  1
  C  C829  1  0.285300  0.635900  0.409520  1
  C  C830  1  0.714700  0.364100  0.590480  1
  C  C831  1  0.326000  0.660900  0.373910  1
  C  C832  1  0.674000  0.339100  0.626090  1
  C  C833  1  0.337200  0.722900  0.378220  1
  C  C834  1  0.662800  0.277100  0.621780  1
  C  C835  1  0.309500  0.759200  0.417190  1
  C  C836  1  0.690500  0.240800  0.582810  1
  C  C837  1  0.272300  0.568200  0.408660  1
  C  C838  1  0.727700  0.431800  0.591340  1
  C  C839  1  0.379400  0.752000  0.339860  1
  C  C840  1  0.620600  0.248000  0.660140  1
  C  C841  1  0.152900  0.774100  0.514860  1
  C  C842  1  0.847100  0.225900  0.485140  1
  C  C843  1  0.108800  0.778700  0.481130  1
  C  C844  1  0.891200  0.221300  0.518870  1
  C  C845  1  0.035300  0.776300  0.491700  1
  C  C846  1  0.964700  0.223700  0.508300  1
  C  C847  1  0.007500  0.770300  0.536400  1
  C  C848  1  0.992500  0.229700  0.463600  1
  C  C849  1  0.049200  0.767200  0.570500  1
  C  C850  1  0.950800  0.232800  0.429500  1
  C  C851  1  0.120900  0.768900  0.559930  1
  C  C852  1  0.879100  0.231100  0.440070  1
  C  C853  1  0.993900  0.778800  0.454000  1
  C  C854  1  0.006100  0.221200  0.546000  1
  C  C855  1  0.018700  0.760300  0.619000  1
  C  C856  1  0.981300  0.239700  0.381000  1
  C  C857  1  0.456200  0.329600  0.188540  1
  C  C858  1  0.543800  0.670400  0.811460  1
  C  C859  1  0.512600  0.270500  0.193970  1
  C  C860  1  0.487400  0.729500  0.806030  1
  C  C861  1  0.511200  0.228900  0.232800  1
  C  C862  1  0.488800  0.771100  0.767200  1
  C  C863  1  0.454800  0.243700  0.268400  1
  C  C864  1  0.545200  0.756300  0.731600  1
  C  C865  1  0.399000  0.302100  0.263500  1
  C  C866  1  0.601000  0.697900  0.736500  1
  C  C867  1  0.400600  0.344100  0.225200  1
  C  C868  1  0.599400  0.655900  0.774800  1
  C  C869  1  0.572900  0.166700  0.235500  1
  C  C870  1  0.427100  0.833300  0.764500  1
  C  C871  1  0.339700  0.320200  0.301100  1
  C  C872  1  0.660300  0.679800  0.698900  1
  C  C873  1  0.490000  0.442600  0.158600  1
  C  C874  1  0.510000  0.557400  0.841400  1
  C  C875  1  0.522400  0.480900  0.125900  1
  C  C876  1  0.477600  0.519100  0.874100  1
  C  C877  1  0.545000  0.535100  0.137800  1
  C  C878  1  0.455000  0.464900  0.862200  1
  C  C879  1  0.536000  0.554000  0.183100  1
  C  C880  1  0.464000  0.446000  0.816900  1
  C  C881  1  0.503300  0.517400  0.215900  1
  C  C882  1  0.496700  0.482600  0.784100  1
  C  C883  1  0.480600  0.463000  0.204700  1
  C  C884  1  0.519400  0.537000  0.795300  1
  C  C885  1  0.578300  0.573800  0.100700  1
  C  C886  1  0.421700  0.426200  0.899300  1
  C  C887  1  0.491100  0.536900  0.265100  1
  C  C888  1  0.508900  0.463100  0.734900  1
  C  C889  1  0.513700  0.340900  0.101700  1
  C  C890  1  0.486300  0.659100  0.898300  1
  C  C891  1  0.587800  0.333800  0.095200  1
  C  C892  1  0.412200  0.666200  0.904800  1
  C  C893  1  0.632500  0.298800  0.058400  1
  C  C894  1  0.367500  0.701200  0.941600  1
  C  C895  1  0.603300  0.269100  0.028300  1
  C  C896  1  0.396700  0.730900  0.971700  1
  C  C897  1  0.528900  0.274000  0.034900  1
  C  C898  1  0.471100  0.726000  0.965100  1
  C  C899  1  0.485600  0.309000  0.070900  1
  C  C900  1  0.514400  0.691000  0.929100  1
  C  C901  1  0.711700  0.291000  0.053800  1
  C  C902  1  0.288300  0.709000  0.946200  1
  C  C903  1  0.501200  0.231700  0.009100  1
  C  C904  1  0.498800  0.768300  0.990900  1
  C  C905  1  0.382400  0.405000  0.122700  1
  C  C906  1  0.617600  0.595000  0.877300  1
  C  C907  1  0.365900  0.465800  0.096500  1
  C  C908  1  0.634100  0.534200  0.903500  1
  C  C909  1  0.304700  0.485200  0.072900  1
  C  C910  1  0.695300  0.514800  0.927100  1
  C  C911  1  0.257100  0.444800  0.075500  1
  C  C912  1  0.742900  0.555200  0.924500  1
  C  C913  1  0.272400  0.382800  0.102000  1
  C  C914  1  0.727600  0.617200  0.898000  1
  C  C915  1  0.333500  0.366000  0.125300  1
  C  C916  1  0.666500  0.634000  0.874700  1
  C  C917  1  0.291800  0.549700  0.043800  1
  C  C918  1  0.708200  0.450300  0.956200  1
  C  C919  1  0.225000  0.338700  0.101100  1
  C  C920  1  0.775000  0.661300  0.898900  1
  C  C921  1  0.820900  0.745300  0.569800  1
  C  C922  1  0.179100  0.254700  0.430200  1
  C  C923  1  0.089000  0.761800  0.097900  1
  C  C924  1  0.911000  0.238200  0.902100  1
  C  C925  1  0.240000  0.547700  0.260300  1
  C  C926  1  0.760000  0.452300  0.739700  1
  C  C927  1  0.211100  0.654700  0.216100  1
  C  C928  1  0.788900  0.345300  0.783900  1
  C  C929  1  0.173400  0.557200  0.193100  1
  C  C930  1  0.826600  0.442800  0.806900  1
  C  C931  1  0.393000  0.723500  0.160700  1
  C  C932  1  0.607000  0.276500  0.839300  1
  C  C933  1  0.381900  0.841000  0.129600  1
  C  C934  1  0.618100  0.159000  0.870400  1
  C  C935  1  0.299000  0.818900  0.193400  1
  C  C936  1  0.701000  0.181100  0.806600  1
  C  C937  1  0.634700  0.940200  0.202500  1
  C  C938  1  0.365300  0.059800  0.797500  1
  C  C939  1  0.593600  0.950100  0.161600  1
  C  C940  1  0.406400  0.049900  0.838400  1
  C  C941  1  0.628900  0.909300  0.122100  1
  C  C942  1  0.371100  0.090700  0.877900  1
  C  C943  1  0.612900  0.849000  0.134200  1
  C  C944  1  0.387100  0.151000  0.865800  1
  C  C945  1  0.650600  0.774600  0.122600  1
  C  C946  1  0.349400  0.225400  0.877400  1
  C  C947  1  0.690400  0.753100  0.079800  1
  C  C948  1  0.309600  0.246900  0.920200  1
  C  C949  1  0.392600  0.946500  0.490900  1
  C  C950  1  0.607400  0.053500  0.509100  1
  C  C951  1  0.490100  0.252400  0.000500  1
  C  C952  1  0.509900  0.747600  0.999500  1
  C  C953  1  0.378600  0.416500  0.128800  1
  C  C954  1  0.621400  0.583500  0.871200  1
  C  C955  1  0.363200  0.475500  0.100400  1
  C  C956  1  0.636800  0.524500  0.899600  1
  C  C957  1  0.294100  0.504600  0.087500  1
  C  C958  1  0.705900  0.495400  0.912500  1
  C  C959  1  0.236100  0.478900  0.104100  1
  C  C960  1  0.763900  0.521100  0.895900  1
  C  C961  1  0.250700  0.418300  0.131900  1
  C  C962  1  0.749300  0.581700  0.868100  1
  C  C963  1  0.321000  0.388100  0.142500  1
  C  C964  1  0.679000  0.611900  0.857500  1
  C  C965  1  0.280400  0.567500  0.056600  1
  C  C966  1  0.719600  0.432500  0.943400  1
  C  C967  1  0.190700  0.390700  0.151500  1
  C  C968  1  0.809300  0.609300  0.848500  1
  C  C969  1  0.375100  0.419600  0.136600  1
  C  C970  1  0.624900  0.580400  0.863400  1
  C  C971  1  0.366400  0.476100  0.106000  1
  C  C972  1  0.633600  0.523900  0.894000  1
  C  C973  1  0.305000  0.498100  0.082600  1
  C  C974  1  0.695000  0.501900  0.917400  1
  C  C975  1  0.248300  0.467900  0.090500  1
  C  C976  1  0.751700  0.532100  0.909500  1
  C  C977  1  0.258400  0.408500  0.119800  1
  C  C978  1  0.741600  0.591500  0.880200  1
  C  C979  1  0.319400  0.388000  0.143400  1
  C  C980  1  0.680600  0.612000  0.856600  1
  C  C981  1  0.300600  0.559900  0.051000  1
  C  C982  1  0.699400  0.440100  0.949000  1
  C  C983  1  0.199800  0.375300  0.129400  1
  C  C984  1  0.800200  0.624700  0.870600  1
  N  N985  1  0.827500  0.552300  0.076420  1
  N  N986  1  0.172500  0.447700  0.923580  1
  N  N987  1  0.872400  0.656320  0.048570  1
  N  N988  1  0.127600  0.343680  0.951430  1
  N  N989  1  0.842850  0.596440  0.451400  1
  N  N990  1  0.157150  0.403560  0.548600  1
  N  N991  1  0.965350  0.607380  0.410710  1
  N  N992  1  0.034650  0.392620  0.589290  1
  N  N993  1  0.481730  0.961000  0.302250  1
  N  N994  1  0.518270  0.039000  0.697750  1
  N  N995  1  0.578160  0.005930  0.332210  1
  N  N996  1  0.421840  0.994070  0.667790  1
  N  N997  1  0.913700  0.590640  0.130400  1
  N  N998  1  0.086300  0.409360  0.869600  1
  N  N999  1  0.908560  0.529840  0.367880  1
  N  N1000  1  0.091440  0.470160  0.632120  1
  N  N1001  1  0.840740  0.718160  0.403620  1
  N  N1002  1  0.159260  0.281840  0.596380  1
  N  N1003  1  0.577260  0.874460  0.357520  1
  N  N1004  1  0.422740  0.125540  0.642480  1
  N  N1005  1  0.598000  0.974000  0.240960  1
  N  N1006  1  0.402000  0.026000  0.759040  1
  N  N1007  1  0.728800  0.679400  0.080080  1
  N  N1008  1  0.271200  0.320600  0.919920  1
  O  O1009  1  0.763730  0.614040  0.157390  1
  O  O1010  1  0.236270  0.385960  0.842610  1
  O  O1011  1  0.950210  0.438710  0.935920  1
  O  O1012  1  0.049790  0.561290  0.064080  1
  O  O1013  1  0.996380  0.542300  0.908600  1
  O  O1014  1  0.003620  0.457700  0.091400  1
  O  O1015  1  0.826540  0.710760  0.133350  1
  O  O1016  1  0.173460  0.289240  0.866650  1
  O  O1017  1  0.780760  0.630900  0.369000  1
  O  O1018  1  0.219240  0.369100  0.631000  1
  O  O1019  1  0.945100  0.562760  0.598730  1
  O  O1020  1  0.054900  0.437240  0.401270  1
  O  O1021  1  0.066690  0.575750  0.557780  1
  O  O1022  1  0.933310  0.424250  0.442220  1
  O  O1023  1  0.901440  0.655190  0.332240  1
  O  O1024  1  0.098560  0.344810  0.667760  1
  O  O1025  1  0.586450  0.847360  0.273520  1
  O  O1026  1  0.413550  0.152640  0.726480  1
  O  O1027  1  0.288080  0.136340  0.380880  1
  O  O1028  1  0.711920  0.863660  0.619120  1
  O  O1029  1  0.384920  0.184680  0.408310  1
  O  O1030  1  0.615080  0.815320  0.591690  1
  O  O1031  1  0.686720  0.897230  0.296170  1
  O  O1032  1  0.313280  0.102770  0.703830  1
  O  O1033  1  0.727940  0.769380  0.338460  1
  O  O1034  1  0.272060  0.230620  0.661540  1
  O  O1035  1  0.714000  0.615300  0.573980  1
  O  O1036  1  0.286000  0.384700  0.426020  1
  O  O1037  1  0.755100  0.732610  0.566830  1
  O  O1038  1  0.244900  0.267390  0.433170  1
  O  O1039  1  0.036100  0.736200  0.122300  1
  O  O1040  1  0.963900  0.263800  0.877700  1
  F  F1041  1  0.017200  0.281600  0.264300  1
  F  F1042  1  0.982800  0.718400  0.735700  1
  F  F1043  1  0.103600  0.322700  0.267800  1
  F  F1044  1  0.896400  0.677300  0.732200  1
  F  F1045  1  0.055200  0.331400  0.206680  1
  F  F1046  1  0.944800  0.668600  0.793320  1
  F  F1047  1  0.366400  0.081000  0.213200  1
  F  F1048  1  0.633600  0.919000  0.786800  1
  F  F1049  1  0.361900  0.180000  0.188800  1
  F  F1050  1  0.638100  0.820000  0.811200  1
  F  F1051  1  0.343300  0.157700  0.256300  1
  F  F1052  1  0.656700  0.842300  0.743700  1
  F  F1053  1  0.259100  0.952400  0.313230  1
  F  F1054  1  0.740900  0.047600  0.686770  1
  F  F1055  1  0.155600  0.998800  0.346720  1
  F  F1056  1  0.844400  0.001200  0.653280  1
  F  F1057  1  0.194700  0.891900  0.349250  1
  F  F1058  1  0.805300  0.108100  0.650750  1
  F  F1059  1  0.995600  0.866900  0.210000  1
  F  F1060  1  0.004400  0.133100  0.790000  1
  F  F1061  1  0.100000  0.800100  0.197500  1
  F  F1062  1  0.900000  0.199900  0.802500  1
  F  F1063  1  0.044500  0.808500  0.265290  1
  F  F1064  1  0.955500  0.191500  0.734710  1
  F  F1065  1  0.247700  0.163700  0.020600  1
  F  F1066  1  0.752300  0.836300  0.979400  1
  F  F1067  1  0.343000  0.110400  0.045900  1
  F  F1068  1  0.657000  0.889600  0.954100  1
  F  F1069  1  0.317000  0.081500  0.985200  1
  F  F1070  1  0.683000  0.918500  0.014800  1
  F  F1071  1  0.232600  0.835100  0.077300  1
  F  F1072  1  0.767400  0.164900  0.922700  1
  F  F1073  1  0.164600  0.881600  0.031500  1
  F  F1074  1  0.835400  0.118400  0.968500  1
  F  F1075  1  0.271100  0.865900  0.012800  1
  F  F1076  1  0.728900  0.134100  0.987200  1
  F  F1077  1  0.854500  0.026980  0.199150  1
  F  F1078  1  0.145500  0.973020  0.800850  1
  F  F1079  1  0.820750  0.122540  0.229370  1
  F  F1080  1  0.179250  0.877460  0.770630  1
  F  F1081  1  0.783120  0.109500  0.166960  1
  F  F1082  1  0.216880  0.890500  0.833040  1
  F  F1083  1  0.007100  0.245380  0.051620  1
  F  F1084  1  0.992900  0.754620  0.948380  1
  F  F1085  1  0.925600  0.205100  0.030650  1
  F  F1086  1  0.074400  0.794900  0.969350  1
  F  F1087  1  0.896790  0.282170  0.078630  1
  F  F1088  1  0.103210  0.717830  0.921370  1
  F  F1089  1  0.066100  0.024300  0.501600  1
  F  F1090  1  0.933900  0.975700  0.498400  1
  F  F1091  1  0.132800  0.088700  0.485400  1
  F  F1092  1  0.867200  0.911300  0.514600  1
  F  F1093  1  0.107300  0.039300  0.434030  1
  F  F1094  1  0.892700  0.960700  0.565970  1
  F  F1095  1  0.435700  0.908600  0.499700  1
  F  F1096  1  0.564300  0.091400  0.500300  1
  F  F1097  1  0.428100  0.914300  0.429100  1
  F  F1098  1  0.571900  0.085700  0.570900  1
  F  F1099  1  0.396200  0.004300  0.468000  1
  F  F1100  1  0.603800  0.995700  0.532000  1
  F  F1101  1  0.386230  0.825710  0.625350  1
  F  F1102  1  0.613770  0.174290  0.374650  1
  F  F1103  1  0.307250  0.804600  0.677890  1
  F  F1104  1  0.692750  0.195400  0.322110  1
  F  F1105  1  0.415160  0.738730  0.670130  1
  F  F1106  1  0.584840  0.261270  0.329870  1
  F  F1107  1  0.320000  0.531600  0.564600  1
  F  F1108  1  0.680000  0.468400  0.435400  1
  F  F1109  1  0.401000  0.528600  0.607200  1
  F  F1110  1  0.599000  0.471400  0.392800  1
  F  F1111  1  0.291400  0.547000  0.634400  1
  F  F1112  1  0.708600  0.453000  0.365600  1
  F  F1113  1  0.296500  0.527520  0.443100  1
  F  F1114  1  0.703500  0.472480  0.556900  1
  F  F1115  1  0.201080  0.571240  0.413200  1
  F  F1116  1  0.798920  0.428760  0.586800  1
  F  F1117  1  0.299200  0.536620  0.371010  1
  F  F1118  1  0.700800  0.463380  0.628990  1
  F  F1119  1  0.422900  0.786100  0.354600  1
  F  F1120  1  0.577100  0.213900  0.645400  1
  F  F1121  1  0.426000  0.708000  0.314200  1
  F  F1122  1  0.574000  0.292000  0.685800  1
  F  F1123  1  0.338000  0.794400  0.313400  1
  F  F1124  1  0.662000  0.205600  0.686600  1
  F  F1125  1  0.024300  0.732580  0.421970  1
  F  F1126  1  0.975700  0.267420  0.578030  1
  F  F1127  1  0.929200  0.764800  0.467410  1
  F  F1128  1  0.070800  0.235200  0.532590  1
  F  F1129  1  0.979000  0.835800  0.430620  1
  F  F1130  1  0.021000  0.164200  0.569380  1
  F  F1131  1  0.064900  0.752900  0.649700  1
  F  F1132  1  0.935100  0.247100  0.350300  1
  F  F1133  1  0.964500  0.812200  0.628300  1
  F  F1134  1  0.035500  0.187800  0.371700  1
  F  F1135  1  0.990600  0.708300  0.625700  1
  F  F1136  1  0.009400  0.291700  0.374300  1
  F  F1137  1  0.640500  0.180000  0.228860  1
  F  F1138  1  0.359500  0.820000  0.771140  1
  F  F1139  1  0.575900  0.137300  0.275630  1
  F  F1140  1  0.424100  0.862700  0.724370  1
  F  F1141  1  0.578700  0.125800  0.204200  1
  F  F1142  1  0.421300  0.874200  0.795800  1
  F  F1143  1  0.272600  0.338500  0.284700  1
  F  F1144  1  0.727400  0.661500  0.715300  1
  F  F1145  1  0.337600  0.279700  0.334100  1
  F  F1146  1  0.662400  0.720300  0.665900  1
  F  F1147  1  0.337000  0.379000  0.320800  1
  F  F1148  1  0.663000  0.621000  0.679200  1
  F  F1149  1  0.533900  0.596900  0.068960  1
  F  F1150  1  0.466100  0.403100  0.931040  1
  F  F1151  1  0.593900  0.626100  0.115660  1
  F  F1152  1  0.406100  0.373900  0.884340  1
  F  F1153  1  0.639000  0.538500  0.079450  1
  F  F1154  1  0.361000  0.461500  0.920550  1
  F  F1155  1  0.423600  0.555400  0.280500  1
  F  F1156  1  0.576400  0.444600  0.719500  1
  F  F1157  1  0.519500  0.485200  0.293100  1
  F  F1158  1  0.480500  0.514800  0.706900  1
  F  F1159  1  0.518900  0.584700  0.272000  1
  F  F1160  1  0.481100  0.415300  0.728000  1
  F  F1161  1  0.729000  0.344600  0.066980  1
  F  F1162  1  0.271000  0.655400  0.933020  1
  F  F1163  1  0.746700  0.240400  0.078400  1
  F  F1164  1  0.253300  0.759600  0.921600  1
  F  F1165  1  0.743400  0.283300  0.011360  1
  F  F1166  1  0.256600  0.716700  0.988640  1
  F  F1167  1  0.441800  0.210200  0.028500  1
  F  F1168  1  0.558200  0.789800  0.971500  1
  F  F1169  1  0.469700  0.270700  0.974000  1
  F  F1170  1  0.530300  0.729300  0.026000  1
  F  F1171  1  0.548500  0.181700  0.986100  1
  F  F1172  1  0.451500  0.818300  0.013900  1
  F  F1173  1  0.251700  0.606300  0.068400  1
  F  F1174  1  0.748300  0.393700  0.931600  1
  F  F1175  1  0.350700  0.570400  0.029600  1
  F  F1176  1  0.649300  0.429600  0.970400  1
  F  F1177  1  0.260900  0.541000  0.007300  1
  F  F1178  1  0.739100  0.459000  0.992700  1
  F  F1179  1  0.220800  0.319500  0.058200  1
  F  F1180  1  0.779200  0.680500  0.941800  1
  F  F1181  1  0.249500  0.277900  0.123800  1
  F  F1182  1  0.750500  0.722100  0.876200  1
  F  F1183  1  0.158400  0.364900  0.119700  1
  F  F1184  1  0.841600  0.635100  0.880300  1
  F  F1185  1  0.085500  0.049400  0.506200  1
  F  F1186  1  0.914500  0.950600  0.493800  1
  F  F1187  1  0.135000  0.079200  0.444600  1
  F  F1188  1  0.865000  0.920800  0.555400  1
  F  F1189  1  0.075300  0.010200  0.446700  1
  F  F1190  1  0.924700  0.989800  0.553300  1
  F  F1191  1  0.441700  0.902000  0.468500  1
  F  F1192  1  0.558300  0.098000  0.531500  1
  F  F1193  1  0.392000  0.005600  0.459700  1
  F  F1194  1  0.608000  0.994400  0.540300  1
  F  F1195  1  0.403700  0.954200  0.530400  1
  F  F1196  1  0.596300  0.045800  0.469600  1
  F  F1197  1  0.360400  0.528200  0.557500  1
  F  F1198  1  0.639600  0.471800  0.442500  1
  F  F1199  1  0.384700  0.529700  0.626100  1
  F  F1200  1  0.615300  0.470300  0.373900  1
  F  F1201  1  0.277200  0.544400  0.610800  1
  F  F1202  1  0.722800  0.455600  0.389200  1
  F  F1203  1  0.375900  0.813200  0.344700  1
  F  F1204  1  0.624100  0.186800  0.655300  1
  F  F1205  1  0.442600  0.710200  0.332700  1
  F  F1206  1  0.557400  0.289800  0.667300  1
  F  F1207  1  0.354900  0.745900  0.300700  1
  F  F1208  1  0.645100  0.254100  0.699300  1
  F  F1209  1  0.060900  0.709300  0.640300  1
  F  F1210  1  0.939100  0.290700  0.359700  1
  F  F1211  1  0.003700  0.815700  0.640200  1
  F  F1212  1  0.996300  0.184300  0.359800  1
  F  F1213  1  0.955900  0.745700  0.622400  1
  F  F1214  1  0.044100  0.254300  0.377600  1
  F  F1215  1  0.288700  0.371400  0.299900  1
  F  F1216  1  0.711300  0.628600  0.700100  1
  F  F1217  1  0.317100  0.258900  0.313700  1
  F  F1218  1  0.682900  0.741100  0.686300  1
  F  F1219  1  0.369900  0.327800  0.339700  1
  F  F1220  1  0.630100  0.672200  0.660300  1
  F  F1221  1  0.438200  0.595900  0.268400  1
  F  F1222  1  0.561800  0.404100  0.731600  1
  F  F1223  1  0.460600  0.495000  0.290500  1
  F  F1224  1  0.539400  0.505000  0.709500  1
  F  F1225  1  0.544800  0.532300  0.282900  1
  F  F1226  1  0.455200  0.467700  0.717100  1
  F  F1227  1  0.420200  0.288100  0.994500  1
  F  F1228  1  0.579800  0.711900  0.005500  1
  F  F1229  1  0.525900  0.254000  0.957900  1
  F  F1230  1  0.474100  0.746000  0.042100  1
  F  F1231  1  0.496900  0.185600  0.013900  1
  F  F1232  1  0.503100  0.814400  0.986100  1
  F  F1233  1  0.341700  0.591900  0.047800  1
  F  F1234  1  0.658300  0.408100  0.952200  1
  F  F1235  1  0.258800  0.557700  0.017400  1
  F  F1236  1  0.741200  0.442300  0.982600  1
  F  F1237  1  0.226700  0.614400  0.078400  1
  F  F1238  1  0.773300  0.385600  0.921600  1
  F  F1239  1  0.132000  0.408500  0.128900  1
  F  F1240  1  0.868000  0.591500  0.871100  1
  F  F1241  1  0.213400  0.320100  0.149300  1
  F  F1242  1  0.786600  0.679900  0.850700  1
  F  F1243  1  0.168900  0.399400  0.195100  1
  F  F1244  1  0.831100  0.600600  0.804900  1
  F  F1245  1  0.298000  0.614400  0.077100  1
  F  F1246  1  0.702000  0.385600  0.922900  1
  F  F1247  1  0.242800  0.574400  0.029400  1
  F  F1248  1  0.757200  0.425600  0.970600  1
  F  F1249  1  0.357600  0.547700  0.017400  1
  F  F1250  1  0.642400  0.452300  0.982600  1
  F  F1251  1  0.191800  0.341100  0.094400  1
  F  F1252  1  0.808200  0.658900  0.905600  1
  F  F1253  1  0.134500  0.425500  0.139500  1
  F  F1254  1  0.865500  0.574500  0.860500  1
  F  F1255  1  0.200600  0.339700  0.169200  1
  F  F1256  1  0.799400  0.660300  0.830800  1
