
#######################################################################
#
#                 Cambridge Crystallographic Data Centre
#                                CCDC 
#
#######################################################################
#
# If this CIF has been generated from an entry in the Cambridge 
# Structural Database, then it will include bibliographic, chemical, 
# crystal, experimental, refinement or atomic coordinate data resulting 
# from the CCDC's data processing and validation procedures.
#
#######################################################################

data_TAXXEY
_chemical_formula_moiety         
'C120 H150 Co3 N12 O12 3+,3(C32 H12 B1 F24 1-),1.5(C1 H4 O1),2(H2 O1)'
_chemical_name_systematic        
'tris(\m-hexane-1,6-diamine)-(6,21,31,46,53,68-hexa-t-butyl-13,14,38,39,60,61-hexamethoxy-10,17,35,42,57,64-hexaazatridecacyclo[24.24.20.1^3,49^.1^4,8^.1^19,23^.1^24,28^.1^29,33^.1^44,48^.1^51,55^.1^66,70^.0^11,16^.0^36,41^.0^58,63^]octaheptaconta-1,3(73),4(78),5,7,9,11,13,15,17,19(77),20,22,24(76),25,27,29(75),30,32,34,36,38,40,42,44(74),45,47,49,51(72),52,54,56,58,60,62,64,66,68,70-nonatriacontaene-71,72,74,75,77,78-hexolato)-tri-cobalt tris(tetrakis(3,5-bis(trifluoromethyl)phenyl)borate) methanol solvate dihydrate'
_symmetry_cell_setting           triclinic
_symmetry_space_group_name_H-M   'P -1'
_symmetry_Int_Tables_number      2
_space_group_name_Hall           '-P 1'
loop_
_symmetry_equiv_pos_site_id
_symmetry_equiv_pos_as_xyz
1 x,y,z
2 -x,-y,-z
_cell_length_a                   19.2543(4)
_cell_length_b                   20.7309(4)
_cell_length_c                   29.5488(6)
_cell_angle_alpha                85.8030(10)
_cell_angle_beta                 82.6610(10)
_cell_angle_gamma                74.2470(10)
_cell_volume                     11249.5
_exptl_crystal_colour            'dark red'
_exptl_crystal_description       prismatic
_cell_formula_units_Z            2
_exptl_crystal_recrystallization_method methanol/ether
loop_
_atom_site_label
_atom_site_type_symbol
_atom_site_fract_x
_atom_site_fract_y
_atom_site_fract_z
Co1 Co 0.82240(3) 0.63365(3) 0.10441(2)
Co2 Co 0.87207(3) 0.62186(3) 0.390390(19)
Co3 Co 0.58377(3) 0.92812(3) 0.30044(2)
C1 C 0.6872(2) 0.6036(2) 0.24585(14)
C2 C 0.6942(2) 0.5972(2) 0.29242(14)
H1 H 0.7264 0.5581 0.3041
C3 C 0.6551(2) 0.6467(2) 0.32226(13)
C4 C 0.6079(2) 0.70299(19) 0.30426(14)
H2 H 0.5799 0.7367 0.3243
C5 C 0.6005(2) 0.7117(2) 0.25763(14)
C6 C 0.6412(2) 0.6616(2) 0.22894(14)
H3 H 0.6374 0.6671 0.1971
C7 C 0.8590(2) 0.7989(2) 0.19232(15)
C8 C 0.9077(2) 0.7412(2) 0.20909(14)
H4 H 0.9310 0.7059 0.1891
C9 C 0.9222(2) 0.7349(2) 0.25395(14)
C10 C 0.8863(2) 0.7873(2) 0.28305(15)
H5 H 0.8960 0.7837 0.3140
C11 C 0.8374(2) 0.8437(2) 0.26780(14)
C12 C 0.8235(2) 0.8494(2) 0.22228(15)
H6 H 0.7895 0.8881 0.2116
C13 C 0.7205(2) 0.5458(2) 0.21571(14)
C14 C 0.7534(2) 0.5555(2) 0.17047(15)
C15 C 0.7756(2) 0.4982(2) 0.14267(15)
C16 C 0.7682(3) 0.4352(2) 0.16010(16)
H7 H 0.7825 0.3985 0.1404
C17 C 0.7410(3) 0.4246(2) 0.20449(16)
C18 C 0.7158(2) 0.4823(2) 0.23114(15)
H8 H 0.6943 0.4770 0.2615
O1 O 0.76373(17) 0.61404(15) 0.15739(10)
C19 C 0.7358(3) 0.3563(2) 0.22558(17)
C20 C 0.6566(3) 0.3576(3) 0.2397(2)
H9 H 0.6537 0.3136 0.2531
H10 H 0.6299 0.3680 0.2128
H11 H 0.6353 0.3919 0.2623
C21 C 0.7765(3) 0.3402(3) 0.2678(2)
H12 H 0.7732 0.2963 0.2812
H13 H 0.7548 0.3746 0.2902
H14 H 0.8276 0.3392 0.2591
C22 C 0.7686(4) 0.3002(3) 0.1921(2)
H15 H 0.7643 0.2573 0.2068
H16 H 0.8199 0.2980 0.1831
H17 H 0.7425 0.3094 0.1650
C23 C 0.8076(2) 0.5021(2) 0.09666(15)
H18 H 0.8150 0.4637 0.0791
N1 N 0.8275(2) 0.55230(19) 0.07642(12)
C24 C 0.8670(2) 0.5477(2) 0.03228(15)
C25 C 0.8850(2) 0.4911(2) 0.00530(15)
H19 H 0.8675 0.4531 0.0152
C26 C 0.9281(3) 0.4913(2) -0.03568(15)
C27 C 0.9524(3) 0.5480(2) -0.05077(15)
C28 C 0.9342(2) 0.6041(2) -0.02468(15)
H20 H 0.9507 0.6424 -0.0351
C29 C 0.8911(2) 0.6036(2) 0.01739(14)
O2 O 0.95021(19) 0.43871(17) -0.06408(11)
C30 C 0.9322(3) 0.3773(3) -0.04861(19)
H21 H 0.9507 0.3441 -0.0722
H22 H 0.8793 0.3857 -0.0426
H23 H 0.9542 0.3601 -0.0205
O3 O 0.99638(18) 0.54230(17) -0.09140(10)
C31 C 1.0179(3) 0.6007(3) -0.10967(16)
H24 H 1.0491 0.5903 -0.1385
H25 H 1.0447 0.6148 -0.0879
H26 H 0.9747 0.6370 -0.1151
N2 N 0.8724(2) 0.65632(19) 0.04857(12)
C32 C 0.8807(2) 0.7153(2) 0.03667(15)
H27 H 0.8953 0.7235 0.0053
C33 C 0.8698(2) 0.7690(2) 0.06640(14)
C34 C 0.8500(2) 0.7603(2) 0.11418(15)
C35 C 0.8579(2) 0.8106(2) 0.14219(15)
C36 C 0.8730(2) 0.8681(2) 0.12257(15)
H28 H 0.8752 0.9016 0.1421
C37 C 0.8855(3) 0.8801(2) 0.07505(16)
C38 C 0.8853(3) 0.8291(2) 0.04807(16)
H29 H 0.8959 0.8343 0.0159
O4 O 0.82654(17) 0.71076(14) 0.13335(10)
C39 C 0.9009(3) 0.9470(3) 0.05766(18)
C40 C 0.9204(4) 0.9484(3) 0.00538(19)
H30 H 0.9649 0.9130 -0.0027
H31 H 0.9282 0.9921 -0.0050
H32 H 0.8807 0.9408 -0.0093
C41 C 0.9639(4) 0.9582(3) 0.0793(2)
H33 H 1.0077 0.9222 0.0712
H34 H 0.9523 0.9583 0.1126
H35 H 0.9723 1.0015 0.0682
C42 C 0.8311(4) 1.0032(3) 0.0701(2)
H36 H 0.7911 0.9956 0.0556
H37 H 0.8391 1.0466 0.0592
H38 H 0.8187 1.0029 0.1033
C43 C 0.6561(2) 0.63667(19) 0.37306(14)
C44 C 0.7214(2) 0.62537(19) 0.39383(14)
C45 C 0.7164(2) 0.6103(2) 0.44166(14)
C46 C 0.6487(2) 0.6123(2) 0.46731(14)
H39 H 0.6472 0.6022 0.4992
C47 C 0.5853(2) 0.62836(19) 0.44775(14)
C48 C 0.5912(2) 0.63929(19) 0.40011(14)
H40 H 0.5481 0.6491 0.3856
O5 O 0.78076(14) 0.63090(14) 0.36900(9)
C49 C 0.5112(2) 0.6356(2) 0.47592(14)
C50 C 0.4680(2) 0.5946(2) 0.45573(16)
H41 H 0.4210 0.5995 0.4742
H42 H 0.4953 0.5472 0.4558
H43 H 0.4603 0.6109 0.4243
C51 C 0.4690(2) 0.7101(2) 0.47474(17)
H44 H 0.4965 0.7365 0.4876
H45 H 0.4216 0.7156 0.4928
H46 H 0.4622 0.7256 0.4431
C52 C 0.5188(2) 0.6121(2) 0.52566(15)
H47 H 0.5464 0.6378 0.5390
H48 H 0.5444 0.5643 0.5271
H49 H 0.4705 0.6191 0.5428
C53 C 0.7766(2) 0.5959(2) 0.46707(14)
H50 H 0.7679 0.5847 0.4987
N3 N 0.84285(17) 0.59644(17) 0.45140(12)
C54 C 0.8974(2) 0.5894(2) 0.48071(14)
C55 C 0.8888(2) 0.5785(2) 0.52811(15)
H51 H 0.8436 0.5744 0.5434
C56 C 0.9466(2) 0.5738(2) 0.55259(15)
C57 C 1.0138(2) 0.5806(2) 0.53012(15)
C58 C 1.0218(2) 0.5924(2) 0.48371(15)
H52 H 1.0664 0.5982 0.4686
C59 C 0.9637(2) 0.5958(2) 0.45861(14)
O6 O 0.94510(16) 0.56276(16) 0.59873(10)
C60 C 0.8754(3) 0.5712(3) 0.62488(16)
H53 H 0.8818 0.5621 0.6573
H54 H 0.8509 0.5400 0.6149
H55 H 0.8460 0.6174 0.6203
O7 O 1.06669(16) 0.57575(16) 0.55778(10)
C61 C 1.1330(2) 0.5888(3) 0.53695(17)
H56 H 1.1663 0.5844 0.5601
H57 H 1.1228 0.6344 0.5232
H58 H 1.1553 0.5565 0.5132
N4 N 0.96535(18) 0.60738(18) 0.41071(12)
C62 C 1.0258(2) 0.5983(2) 0.38380(16)
H59 H 1.0699 0.5807 0.3970
C63 C 1.0305(2) 0.6129(2) 0.33600(15)
C64 C 0.9685(2) 0.6487(2) 0.31454(14)
C65 C 0.9811(2) 0.6799(2) 0.27097(15)
C66 C 1.0500(2) 0.6616(2) 0.24688(16)
H60 H 1.0570 0.6799 0.2168
C67 C 1.1102(2) 0.6168(2) 0.26527(17)
C68 C 1.0999(2) 0.5970(2) 0.31003(16)
H61 H 1.1407 0.5715 0.3244
O8 O 0.90144(14) 0.65519(14) 0.33224(9)
C69 C 1.1850(3) 0.5951(3) 0.2363(2)
C70 C 1.2159(8) 0.5215(6) 0.2432(5)
H62 H 1.1860 0.4975 0.2305
H63 H 1.2167 0.5101 0.2760
H64 H 1.2656 0.5085 0.2278
C71 C 1.2351(5) 0.6317(8) 0.2565(4)
H65 H 1.2436 0.6136 0.2875
H66 H 1.2113 0.6799 0.2575
H67 H 1.2816 0.6245 0.2372
C72 C 1.1837(5) 0.6170(6) 0.1878(3)
H68 H 1.1469 0.6016 0.1750
H69 H 1.2315 0.5980 0.1711
H70 H 1.1720 0.6661 0.1851
C73 C 0.5419(2) 0.7683(2) 0.24148(14)
C74 C 0.5327(2) 0.8340(2) 0.25658(14)
C75 C 0.4643(2) 0.8808(2) 0.25258(15)
C76 C 0.4147(2) 0.8658(2) 0.22635(15)
H71 H 0.3701 0.8985 0.2230
C77 C 0.4284(2) 0.8063(2) 0.20569(15)
C78 C 0.4918(2) 0.7574(2) 0.21570(14)
H72 H 0.5005 0.7142 0.2039
O9 O 0.58645(15) 0.84736(14) 0.27352(10)
C79 C 0.3760(3) 0.7916(3) 0.17521(18)
C80 C 0.3564(7) 0.7242(5) 0.1946(5)
H73 H 0.3228 0.7138 0.1758
H74 H 0.3336 0.7300 0.2262
H75 H 0.4009 0.6873 0.1938
C81 C 0.4152(6) 0.7775(7) 0.1279(3)
H76 H 0.3823 0.7678 0.1082
H77 H 0.4575 0.7387 0.1295
H78 H 0.4312 0.8168 0.1152
C82 C 0.3054(7) 0.8460(7) 0.1747(5)
H79 H 0.2743 0.8333 0.1550
H80 H 0.3156 0.8883 0.1629
H81 H 0.2805 0.8515 0.2058
C83 C 0.4413(2) 0.9399(2) 0.27747(16)
H82 H 0.3929 0.9664 0.2761
N5 N 0.48173(19) 0.96100(17) 0.30225(13)
C84 C 0.4535(2) 1.0172(2) 0.33014(16)
C85 C 0.3797(2) 1.0473(2) 0.34159(17)
H83 H 0.3442 1.0294 0.3313
C86 C 0.3584(2) 1.1029(2) 0.36774(17)
C87 C 0.4120(2) 1.1288(2) 0.38284(15)
C88 C 0.4838(2) 1.0987(2) 0.37236(15)
H84 H 0.5193 1.1161 0.3831
C89 C 0.5054(2) 1.0420(2) 0.34570(16)
O10 O 0.28808(17) 1.13634(17) 0.38088(13)
C90 C 0.2335(3) 1.1134(3) 0.3626(2)
H85 H 0.1852 1.1407 0.3739
H86 H 0.2381 1.0663 0.3722
H87 H 0.2403 1.1176 0.3291
O11 O 0.38492(17) 1.18468(15) 0.40831(11)
C91 C 0.4359(3) 1.2190(2) 0.41869(18)
H88 H 0.4103 1.2579 0.4368
H89 H 0.4601 1.2340 0.3902
H90 H 0.4723 1.1885 0.4362
N6 N 0.57816(19) 1.00593(17) 0.33221(12)
C92 C 0.6337(2) 1.0233(2) 0.34313(15)
H91 H 0.6233 1.0625 0.3603
C93 C 0.7080(2) 0.9899(2) 0.33216(15)
C94 C 0.7311(2) 0.9299(2) 0.30769(14)
C95 C 0.8071(2) 0.9030(2) 0.29708(14)
C96 C 0.8549(2) 0.9343(2) 0.31140(14)
H92 H 0.9054 0.9150 0.3037
C97 C 0.8333(2) 0.9929(2) 0.33677(15)
C98 C 0.7601(2) 1.0199(2) 0.34578(15)
H93 H 0.7432 1.0603 0.3618
O12 O 0.68672(15) 0.89723(14) 0.29617(10)
C99 C 0.8905(2) 1.0240(2) 0.35118(17)
C100 C 0.8572(3) 1.0856(3) 0.3780(2)
H94 H 0.8957 1.1037 0.3862
H95 H 0.8288 1.0740 0.4059
H96 H 0.8253 1.1192 0.3595
C101 C 0.9376(3) 1.0418(3) 0.3088(2)
H97 H 0.9737 1.0620 0.3182
H98 H 0.9067 1.0739 0.2889
H99 H 0.9623 1.0011 0.2923
C102 C 0.9410(3) 0.9716(3) 0.3798(2)
H100 H 0.9778 0.9909 0.3893
H101 H 0.9650 0.9324 0.3616
H102 H 0.9126 0.9579 0.4070
N7 N 0.9137(2) 0.59064(18) 0.13040(12)
H103 H 0.9393 0.5557 0.1124
H104 H 0.9408 0.6213 0.1285
C103 C 0.9078(3) 0.5641(2) 0.17851(15)
H105 H 0.8816 0.5288 0.1805
H106 H 0.8782 0.6008 0.1980
C104 C 0.9795(3) 0.5353(3) 0.19742(16)
H107 H 1.0076 0.5692 0.1939
H108 H 1.0079 0.4959 0.1799
C105 C 0.9681(3) 0.5141(3) 0.24796(17)
H109 H 1.0163 0.4955 0.2589
H110 H 0.9433 0.5547 0.2653
C106 C 0.9243(3) 0.4630(2) 0.25912(16)
H111 H 0.9497 0.4216 0.2427
H112 H 0.8765 0.4809 0.2476
C107 C 0.9122(3) 0.4446(2) 0.31026(16)
H113 H 0.9599 0.4271 0.3221
H114 H 0.8870 0.4085 0.3144
C108 C 0.8671(3) 0.5049(2) 0.33796(16)
H115 H 0.8459 0.5419 0.3165
H116 H 0.8264 0.4919 0.3569
N8 N 0.90856(19) 0.52984(18) 0.36788(12)
H117 H 0.9541 0.5263 0.3526
H118 H 0.9144 0.5009 0.3931
N9 N 0.84074(18) 0.71816(17) 0.40362(12)
H119 H 0.8827 0.7307 0.4050
H120 H 0.8214 0.7399 0.3780
C109 C 0.7900(2) 0.7488(2) 0.44280(15)
H121 H 0.8136 0.7364 0.4712
H122 H 0.7463 0.7316 0.4460
C110 C 0.7678(2) 0.8248(2) 0.43575(16)
H123 H 0.8112 0.8416 0.4359
H124 H 0.7507 0.8361 0.4052
C111 C 0.7087(2) 0.8613(2) 0.47123(16)
H125 H 0.6959 0.9098 0.4625
H126 H 0.7287 0.8560 0.5009
C112 C 0.6389(2) 0.8377(2) 0.47768(16)
H127 H 0.6483 0.7944 0.4954
H128 H 0.6008 0.8706 0.4961
C113 C 0.6098(2) 0.8288(2) 0.43371(15)
H129 H 0.6442 0.7905 0.4178
H130 H 0.5630 0.8172 0.4416
C114 C 0.5982(2) 0.8900(2) 0.40108(15)
H131 H 0.5595 0.9273 0.4152
H132 H 0.6434 0.9047 0.3951
N10 N 0.57726(19) 0.87446(18) 0.35752(12)
H133 H 0.5297 0.8728 0.3634
H134 H 0.6043 0.8315 0.3512
N11 N 0.5980(3) 0.9740(2) 0.24096(15)
H135 H 0.5807 1.0188 0.2471
H136 H 0.6476 0.9664 0.2353
C115 C 0.5760(8) 0.9702(7) 0.1969(4)
H137 H 0.5372 1.0117 0.1917
H138 H 0.5533 0.9325 0.1988
C116 C 0.6294(11) 0.9617(8) 0.1548(6)
H139 H 0.6700 0.9799 0.1600
H140 H 0.6053 0.9887 0.1293
C117 C 0.6626(9) 0.8845(8) 0.1392(6)
H141 H 0.7116 0.8808 0.1229
H142 H 0.6689 0.8553 0.1673
C118 C 0.6193(9) 0.8550(8) 0.1083(6)
H143 H 0.5792 0.8423 0.1282
H144 H 0.5968 0.8913 0.0869
C119 C 0.6575(8) 0.7995(7) 0.0827(5)
H145 H 0.7026 0.8090 0.0672
H146 H 0.6277 0.7954 0.0586
C120 C 0.6780(7) 0.7326(7) 0.1082(4)
H147 H 0.7009 0.7378 0.1354
H148 H 0.6334 0.7184 0.1190
N12 N 0.7288(2) 0.6794(2) 0.08008(15)
H149 H 0.7390 0.6982 0.0517
H150 H 0.7052 0.6474 0.0762
O13 O 0.72794(17) 0.76938(15) 0.33846(11)
H185 H 0.737(3) 0.7332(15) 0.3270(17)
H186 H 0.729(3) 0.797(2) 0.3167(13)
B1 B 1.1210(3) 0.0628(3) 0.1678(2)
C133 C 1.1500(3) 0.1203(3) 0.18890(19)
C134 C 1.1046(4) 0.1794(3) 0.2063(2)
H187 H 1.0538 0.1883 0.2051
C135 C 1.1311(5) 0.2262(4) 0.2257(2)
C136 C 1.2044(5) 0.2139(4) 0.2291(3)
H188 H 1.2223 0.2452 0.2430
C137 C 1.2520(4) 0.1551(4) 0.2121(3)
C138 C 1.2255(4) 0.1089(3) 0.1926(2)
H189 H 1.2585 0.0689 0.1815
C139 C 1.0777(6) 0.2902(4) 0.2418(3)
F1 F 1.0172(4) 0.2816(3) 0.2643(2)
F2 F 1.1036(4) 0.3227(3) 0.2678(3)
F3 F 1.0552(4) 0.3314(3) 0.20668(19)
C140 C 1.3306(6) 0.1424(5) 0.2134(4)
F4 F 1.3664(3) 0.0810(3) 0.2132(4)
F5 F 1.3619(3) 0.1800(4) 0.1888(2)
F6 F 1.3433(4) 0.1577(5) 0.2563(3)
C141 C 1.1227(3) 0.0018(3) 0.20690(19)
C142 C 1.1552(3) -0.0026(3) 0.24719(19)
H190 H 1.1767 0.0318 0.2526
C143 C 1.1574(3) -0.0552(3) 0.2798(2)
C144 C 1.1268(3) -0.1066(3) 0.2738(2)
H191 H 1.1283 -0.1426 0.2958
C145 C 1.0938(3) -0.1035(3) 0.2345(2)
C146 C 1.0921(3) -0.0511(3) 0.2024(2)
H192 H 1.0689 -0.0510 0.1759
C147 C 1.1905(4) -0.0538(4) 0.3211(2)
F7 F 1.2591(2) -0.0476(2) 0.31323(14)
F8 F 1.1556(2) -0.0012(3) 0.34672(14)
F9 F 1.1947(3) -0.1081(2) 0.34925(16)
C148 C 1.0590(4) -0.1563(4) 0.2261(3)
F10 F 0.9956(3) -0.1331(2) 0.2100(2)
F11 F 1.1000(3) -0.1999(3) 0.1975(2)
F12 F 1.0445(3) -0.1915(2) 0.26529(18)
C149 C 1.1734(3) 0.0353(3) 0.1211(2)
C150 C 1.2108(4) 0.0753(4) 0.0942(2)
H193 H 1.2066 0.1192 0.1035
C151 C 1.2548(4) 0.0530(6) 0.0538(3)
C152 C 1.2611(4) -0.0105(6) 0.0393(3)
H194 H 1.2919 -0.0260 0.0124
C153 C 1.2224(4) -0.0516(4) 0.0642(2)
C154 C 1.1810(3) -0.0290(3) 0.1046(2)
H195 H 1.1563 -0.0580 0.1221
C155 C 1.2939(7) 0.0976(8) 0.0274(5)
F13 F 1.2477(5) 0.1637(5) 0.0206(2)
F14 F 1.3430(4) 0.1104(6) 0.0459(3)
F15 F 1.3170(6) 0.0815(5) -0.0148(3)
C156 C 1.2240(5) -0.1167(5) 0.0483(3)
F16 F 1.2326(6) -0.1649(3) 0.0773(3)
F17 F 1.1646(4) -0.1184(3) 0.0315(2)
F18 F 1.2711(5) -0.1341(4) 0.0128(3)
C157 C 1.0381(3) 0.0960(3) 0.15400(19)
C158 C 0.9751(3) 0.0823(3) 0.17701(19)
H196 H 0.9796 0.0517 0.2027
C159 C 0.9062(3) 0.1116(3) 0.16385(19)
C160 C 0.8969(3) 0.1575(3) 0.12736(19)
H197 H 0.8501 0.1769 0.1178
C161 C 0.9575(3) 0.1746(3) 0.10500(19)
C162 C 1.0263(3) 0.1436(3) 0.11713(19)
H198 H 1.0670 0.1546 0.1000
C163 C 0.8420(3) 0.0925(3) 0.1892(2)
F19 F 0.85450(19) 0.02698(18) 0.19915(14)
F20 F 0.82075(19) 0.12254(19) 0.22937(12)
F21 F 0.78312(19) 0.1095(2) 0.16696(13)
C164 C 0.9469(3) 0.2259(3) 0.0668(2)
F22 F 1.0071(2) 0.24538(19) 0.05162(13)
F23 F 0.9256(3) 0.2051(2) 0.03065(14)
F24 F 0.89679(19) 0.28217(17) 0.07863(13)
B2 B 0.2372(3) 0.7762(2) 0.50203(18)
C165 C 0.2428(2) 0.8536(2) 0.49389(15)
C166 C 0.1832(2) 0.9086(2) 0.48873(15)
H199 H 0.1362 0.9013 0.4917
C167 C 0.1899(2) 0.9734(2) 0.47949(16)
C168 C 0.2572(2) 0.9863(2) 0.47491(17)
H200 H 0.2621 1.0306 0.4685
C169 C 0.3176(2) 0.9326(2) 0.48001(18)
C170 C 0.3100(2) 0.8687(2) 0.48930(17)
H201 H 0.3524 0.8332 0.4928
C171 C 0.1235(3) 1.0306(3) 0.4740(2)
F25 F 0.0661(3) 1.0243(3) 0.5016(2)
F26 F 0.1328(3) 1.0887(2) 0.4854(3)
F27 F 0.1073(4) 1.0393(4) 0.43403(19)
C172 C 0.3914(6) 0.9429(5) 0.4696(4)
F28 F 0.4357(5) 0.9086(5) 0.4997(3)
F29 F 0.4281(3) 0.9143(3) 0.4291(3)
F30 F 0.3962(16) 1.0043(10) 0.4680(7)
C173 C 0.2819(2) 0.7372(2) 0.54443(15)
C174 C 0.3044(2) 0.7700(2) 0.57706(15)
H202 H 0.2962 0.8173 0.5739
C175 C 0.3383(2) 0.7362(2) 0.61409(16)
C176 C 0.3502(2) 0.6683(2) 0.62130(16)
H203 H 0.3735 0.6458 0.6467
C177 C 0.3274(2) 0.6336(2) 0.59047(15)
C178 C 0.2948(2) 0.6676(2) 0.55314(15)
H204 H 0.2803 0.6424 0.5323
C179 C 0.3614(3) 0.7757(2) 0.64720(19)
F31 F 0.38623(17) 0.82571(14) 0.62535(11)
F32 F 0.30725(17) 0.80460(16) 0.67789(11)
F33 F 0.41516(18) 0.73873(15) 0.67013(12)
C180 C 0.3367(3) 0.5604(2) 0.59775(17)
F34 F 0.3200(14) 0.5316(6) 0.5646(6)
F35 F 0.4010(6) 0.5286(7) 0.6072(7)
F36 F 0.2914(10) 0.5470(6) 0.6344(7)
C181 C 0.2698(2) 0.7350(2) 0.45413(15)
C182 C 0.2572(2) 0.6736(2) 0.44839(15)
H205 H 0.2281 0.6562 0.4720
C183 C 0.2853(2) 0.6359(2) 0.40952(16)
C184 C 0.3260(2) 0.6609(3) 0.37391(16)
H206 H 0.3456 0.6360 0.3473
C185 C 0.3372(2) 0.7229(3) 0.37822(16)
C186 C 0.3095(2) 0.7592(2) 0.41719(16)
H207 H 0.3180 0.8020 0.4187
C187 C 0.2723(3) 0.5682(3) 0.40866(18)
F37 F 0.2965(2) 0.52752(16) 0.44310(14)
F38 F 0.20108(17) 0.57124(17) 0.41320(14)
F39 F 0.2992(2) 0.53662(19) 0.37101(13)
C188 C 0.3794(3) 0.7520(3) 0.33986(19)
F40 F 0.4229(5) 0.7861(4) 0.3546(2)
F41 F 0.4260(6) 0.7080(4) 0.3142(3)
F42 F 0.3380(4) 0.7944(6) 0.3134(3)
C189 C 0.1529(2) 0.7741(2) 0.51486(17)
C190 C 0.1088(2) 0.7787(2) 0.48113(18)
H208 H 0.1277 0.7836 0.4501
C191 C 0.0353(3) 0.7763(2) 0.4917(2)
C192 C 0.0075(3) 0.7703(2) 0.5364(2)
H209 H -0.0414 0.7683 0.5436
C193 C 0.0492(3) 0.7672(3) 0.5705(2)
C194 C 0.1209(2) 0.7689(2) 0.55993(18)
H210 H 0.1495 0.7666 0.5842
C195 C -0.0061(3) 0.7788(3) 0.4540(2)
F43 F 0.0243(2) 0.73258(19) 0.42197(13)
F44 F -0.0708(2) 0.7648(3) 0.46741(16)
F45 F -0.0210(3) 0.8358(2) 0.43062(17)
C196 C 0.0187(3) 0.7603(4) 0.6190(2)
F46 F 0.0649(5) 0.7529(10) 0.6497(3)
F47 F -0.0355(6) 0.8122(6) 0.6283(5)
F48 F -0.0094(9) 0.7083(6) 0.6257(3)
B3 B 0.4603(3) 0.3814(3) 0.1450(2)
C198 C 0.4562(3) 0.3296(3) 0.18854(19)
C199 C 0.5126(3) 0.2705(2) 0.19397(18)
H211 H 0.5521 0.2591 0.1706
C200 C 0.5112(4) 0.2289(3) 0.2328(2)
C201 C 0.4548(3) 0.2437(3) 0.2684(2)
H212 H 0.4544 0.2151 0.2949
C202 C 0.3990(3) 0.3021(3) 0.2635(2)
C203 C 0.4006(3) 0.3441(3) 0.2252(2)
H213 H 0.3628 0.3844 0.2234
C204 C 0.5729(5) 0.1667(3) 0.2355(3)
F64 F 0.6405(3) 0.1800(2) 0.22886(18)
F65 F 0.5759(2) 0.1373(2) 0.27563(14)
F66 F 0.5787(4) 0.1258(2) 0.20420(18)
C205 C 0.3397(4) 0.3202(4) 0.3011(2)
F67 F 0.2726(3) 0.3385(4) 0.2847(2)
F68 F 0.3376(5) 0.2797(5) 0.3341(3)
F69 F 0.3370(5) 0.3790(5) 0.3208(3)
C206 C 0.4900(3) 0.4426(3) 0.1586(2)
C207 C 0.5224(3) 0.4809(3) 0.1259(2)
H214 H 0.5291 0.4696 0.0947
C208 C 0.5450(3) 0.5351(3) 0.1378(3)
C209 C 0.5360(3) 0.5540(3) 0.1831(3)
H215 H 0.5519 0.5908 0.1911
C210 C 0.5033(3) 0.5174(3) 0.2159(2)
C211 C 0.4806(3) 0.4630(3) 0.2047(2)
H216 H 0.4584 0.4388 0.2281
C212 C 0.5783(4) 0.5738(4) 0.1007(3)
F70 F 0.5339(3) 0.5969(3) 0.06896(19)
F71 F 0.5939(3) 0.6261(3) 0.11566(19)
F72 F 0.6390(3) 0.5385(3) 0.07945(18)
C213 C 0.4911(4) 0.5369(3) 0.2651(3)
F73 F 0.4236(3) 0.5554(6) 0.2805(3)
F74 F 0.5195(6) 0.4852(4) 0.2931(2)
F75 F 0.5189(5) 0.5847(5) 0.2720(3)
C214 C 0.5137(3) 0.3409(3) 0.1017(2)
C215 C 0.5878(3) 0.3338(3) 0.09520(19)
H217 H 0.6092 0.3531 0.1161
C216 C 0.6325(4) 0.2988(4) 0.0584(2)
C217 C 0.6033(5) 0.2691(4) 0.0283(2)
H218 H 0.6331 0.2456 0.0033
C218 C 0.5289(5) 0.2740(5) 0.0349(3)
C219 C 0.4856(4) 0.3090(4) 0.0709(2)
H219 H 0.4351 0.3116 0.0749
C220 C 0.7117(4) 0.2910(5) 0.0538(3)
F76 F 0.7290(2) 0.3446(3) 0.06698(17)
F77 F 0.7467(3) 0.2404(3) 0.07840(19)
F78 F 0.7434(3) 0.2833(3) 0.01136(16)
C221 C 0.5012(8) 0.2317(8) 0.0091(6)
F79 F 0.4418(8) 0.2102(7) 0.0285(4)
F80 F 0.4697(10) 0.2707(8) -0.0260(5)
F81 F 0.5485(8) 0.1817(7) -0.0139(4)
C222 C 0.3824(9) 0.4050(10) 0.1227(8)
C223 C 0.3659(10) 0.4658(9) 0.0965(8)
H220 H 0.3973 0.4944 0.0950
C224 C 0.3047(8) 0.4852(8) 0.0729(6)
C225 C 0.2571(8) 0.4448(8) 0.0755(6)
H221 H 0.2150 0.4581 0.0598
C226 C 0.2724(8) 0.3828(8) 0.1020(6)
C227 C 0.3335(7) 0.3660(8) 0.1253(5)
H222 H 0.3423 0.3259 0.1439
C228 C 0.2918(10) 0.5497(7) 0.0438(5)
F82 F 0.2517(7) 0.6063(8) 0.0684(6)
F83 F 0.3507(6) 0.5704(7) 0.0296(5)
F84 F 0.2609(9) 0.5410(9) 0.0073(5)
C229 C 0.2250(10) 0.3387(9) 0.1011(7)
F85 F 0.2208(7) 0.3195(7) 0.0582(5)
F86 F 0.2495(9) 0.2779(8) 0.1238(6)
F87 F 0.1584(8) 0.3649(10) 0.1197(6)
O14 O 0.7140(2) 0.6153(2) 0.57398(15)
H229 H 0.729(4) 0.652(2) 0.572(3)
H230 H 0.688(4) 0.614(4) 0.6016(13)
O15 O 0.7551(2) 0.73261(19) 0.56683(14)
H231 H 0.7213 0.7651 0.5769
C247 C 0.8209(3) 0.7453(3) 0.5698(2)
H232 H 0.8201 0.7903 0.5568
H233 H 0.8596 0.7120 0.5528
H234 H 0.8297 0.7426 0.6019
O16 O 1.0361(5) 0.7362(5) 0.1223(3)
H235 H 1.0366 0.7401 0.1503
C248 C 1.0890(10) 0.7618(10) 0.0979(6)
H236 H 1.0888 0.7567 0.0652
H237 H 1.1366 0.7374 0.1071
H238 H 1.0795 0.8094 0.1039
loop_
_geom_bond_atom_site_label_1
_geom_bond_atom_site_label_2
_geom_bond_site_symmetry_1
_geom_bond_site_symmetry_2
Co1 O1 1_555 1_555
Co2 O5 1_555 1_555
Co3 O9 1_555 1_555
C1 C2 1_555 1_555
C2 H1 1_555 1_555
C3 C2 1_555 1_555
C4 C3 1_555 1_555
H2 C4 1_555 1_555
C5 C4 1_555 1_555
C6 C1 1_555 1_555
H3 C6 1_555 1_555
C7 C8 1_555 1_555
C8 H4 1_555 1_555
C9 C8 1_555 1_555
C10 C9 1_555 1_555
H5 C10 1_555 1_555
C11 C10 1_555 1_555
C12 C7 1_555 1_555
H6 C12 1_555 1_555
C13 C1 1_555 1_555
C14 C13 1_555 1_555
C15 C14 1_555 1_555
C16 C15 1_555 1_555
H7 C16 1_555 1_555
C17 C16 1_555 1_555
C18 C13 1_555 1_555
H8 C18 1_555 1_555
O1 C14 1_555 1_555
C19 C17 1_555 1_555
C20 C19 1_555 1_555
H9 C20 1_555 1_555
H10 C20 1_555 1_555
H11 C20 1_555 1_555
C21 C19 1_555 1_555
H12 C21 1_555 1_555
H13 C21 1_555 1_555
H14 C21 1_555 1_555
C22 C19 1_555 1_555
H15 C22 1_555 1_555
H16 C22 1_555 1_555
H17 C22 1_555 1_555
C23 C15 1_555 1_555
H18 C23 1_555 1_555
N1 Co1 1_555 1_555
C24 N1 1_555 1_555
C25 C24 1_555 1_555
H19 C25 1_555 1_555
C26 C25 1_555 1_555
C27 C26 1_555 1_555
C28 C27 1_555 1_555
H20 C28 1_555 1_555
C29 C24 1_555 1_555
O2 C26 1_555 1_555
C30 O2 1_555 1_555
H21 C30 1_555 1_555
H22 C30 1_555 1_555
H23 C30 1_555 1_555
O3 C27 1_555 1_555
C31 O3 1_555 1_555
H24 C31 1_555 1_555
H25 C31 1_555 1_555
H26 C31 1_555 1_555
N2 Co1 1_555 1_555
C32 N2 1_555 1_555
H27 C32 1_555 1_555
C33 C32 1_555 1_555
C34 C33 1_555 1_555
C35 C7 1_555 1_555
C36 C35 1_555 1_555
H28 C36 1_555 1_555
C37 C36 1_555 1_555
C38 C33 1_555 1_555
H29 C38 1_555 1_555
O4 Co1 1_555 1_555
C39 C37 1_555 1_555
C40 C39 1_555 1_555
H30 C40 1_555 1_555
H31 C40 1_555 1_555
H32 C40 1_555 1_555
C41 C39 1_555 1_555
H33 C41 1_555 1_555
H34 C41 1_555 1_555
H35 C41 1_555 1_555
C42 C39 1_555 1_555
H36 C42 1_555 1_555
H37 C42 1_555 1_555
H38 C42 1_555 1_555
C43 C3 1_555 1_555
C44 C43 1_555 1_555
C45 C44 1_555 1_555
C46 C45 1_555 1_555
H39 C46 1_555 1_555
C47 C46 1_555 1_555
C48 C43 1_555 1_555
H40 C48 1_555 1_555
O5 C44 1_555 1_555
C49 C47 1_555 1_555
C50 C49 1_555 1_555
H41 C50 1_555 1_555
H42 C50 1_555 1_555
H43 C50 1_555 1_555
C51 C49 1_555 1_555
H44 C51 1_555 1_555
H45 C51 1_555 1_555
H46 C51 1_555 1_555
C52 C49 1_555 1_555
H47 C52 1_555 1_555
H48 C52 1_555 1_555
H49 C52 1_555 1_555
C53 C45 1_555 1_555
H50 C53 1_555 1_555
N3 Co2 1_555 1_555
C54 N3 1_555 1_555
C55 C54 1_555 1_555
H51 C55 1_555 1_555
C56 C55 1_555 1_555
C57 C56 1_555 1_555
C58 C57 1_555 1_555
H52 C58 1_555 1_555
C59 C54 1_555 1_555
O6 C56 1_555 1_555
C60 O6 1_555 1_555
H53 C60 1_555 1_555
H54 C60 1_555 1_555
H55 C60 1_555 1_555
O7 C57 1_555 1_555
C61 O7 1_555 1_555
H56 C61 1_555 1_555
H57 C61 1_555 1_555
H58 C61 1_555 1_555
N4 Co2 1_555 1_555
C62 N4 1_555 1_555
H59 C62 1_555 1_555
C63 C62 1_555 1_555
C64 C63 1_555 1_555
C65 C9 1_555 1_555
C66 C65 1_555 1_555
H60 C66 1_555 1_555
C67 C66 1_555 1_555
C68 C63 1_555 1_555
H61 C68 1_555 1_555
O8 Co2 1_555 1_555
C69 C67 1_555 1_555
C70 C69 1_555 1_555
H62 C70 1_555 1_555
H63 C70 1_555 1_555
H64 C70 1_555 1_555
C71 C69 1_555 1_555
H65 C71 1_555 1_555
H66 C71 1_555 1_555
H67 C71 1_555 1_555
C72 C69 1_555 1_555
H68 C72 1_555 1_555
H69 C72 1_555 1_555
H70 C72 1_555 1_555
C73 C5 1_555 1_555
C74 C73 1_555 1_555
C75 C74 1_555 1_555
C76 C75 1_555 1_555
H71 C76 1_555 1_555
C77 C76 1_555 1_555
C78 C73 1_555 1_555
H72 C78 1_555 1_555
O9 C74 1_555 1_555
C79 C77 1_555 1_555
C80 C79 1_555 1_555
H73 C80 1_555 1_555
H74 C80 1_555 1_555
H75 C80 1_555 1_555
C81 C79 1_555 1_555
H76 C81 1_555 1_555
H77 C81 1_555 1_555
H78 C81 1_555 1_555
C82 C79 1_555 1_555
H79 C82 1_555 1_555
H80 C82 1_555 1_555
H81 C82 1_555 1_555
C83 C75 1_555 1_555
H82 C83 1_555 1_555
N5 Co3 1_555 1_555
C84 N5 1_555 1_555
C85 C84 1_555 1_555
H83 C85 1_555 1_555
C86 C85 1_555 1_555
C87 C86 1_555 1_555
C88 C87 1_555 1_555
H84 C88 1_555 1_555
C89 C84 1_555 1_555
O10 C86 1_555 1_555
C90 O10 1_555 1_555
H85 C90 1_555 1_555
H86 C90 1_555 1_555
H87 C90 1_555 1_555
O11 C87 1_555 1_555
C91 O11 1_555 1_555
H88 C91 1_555 1_555
H89 C91 1_555 1_555
H90 C91 1_555 1_555
N6 Co3 1_555 1_555
C92 N6 1_555 1_555
H91 C92 1_555 1_555
C93 C92 1_555 1_555
C94 C93 1_555 1_555
C95 C11 1_555 1_555
C96 C95 1_555 1_555
H92 C96 1_555 1_555
C97 C96 1_555 1_555
C98 C93 1_555 1_555
H93 C98 1_555 1_555
O12 Co3 1_555 1_555
C99 C97 1_555 1_555
C100 C99 1_555 1_555
H94 C100 1_555 1_555
H95 C100 1_555 1_555
H96 C100 1_555 1_555
C101 C99 1_555 1_555
H97 C101 1_555 1_555
H98 C101 1_555 1_555
H99 C101 1_555 1_555
C102 C99 1_555 1_555
H100 C102 1_555 1_555
H101 C102 1_555 1_555
H102 C102 1_555 1_555
N7 Co1 1_555 1_555
H103 N7 1_555 1_555
H104 N7 1_555 1_555
C103 N7 1_555 1_555
H105 C103 1_555 1_555
H106 C103 1_555 1_555
C104 C103 1_555 1_555
H107 C104 1_555 1_555
H108 C104 1_555 1_555
C105 C104 1_555 1_555
H109 C105 1_555 1_555
H110 C105 1_555 1_555
C106 C105 1_555 1_555
H111 C106 1_555 1_555
H112 C106 1_555 1_555
C107 C106 1_555 1_555
H113 C107 1_555 1_555
H114 C107 1_555 1_555
C108 C107 1_555 1_555
H115 C108 1_555 1_555
H116 C108 1_555 1_555
N8 Co2 1_555 1_555
H117 N8 1_555 1_555
H118 N8 1_555 1_555
N9 Co2 1_555 1_555
H119 N9 1_555 1_555
H120 N9 1_555 1_555
C109 N9 1_555 1_555
H121 C109 1_555 1_555
H122 C109 1_555 1_555
C110 C109 1_555 1_555
H123 C110 1_555 1_555
H124 C110 1_555 1_555
C111 C110 1_555 1_555
H125 C111 1_555 1_555
H126 C111 1_555 1_555
C112 C111 1_555 1_555
H127 C112 1_555 1_555
H128 C112 1_555 1_555
C113 C112 1_555 1_555
H129 C113 1_555 1_555
H130 C113 1_555 1_555
C114 C113 1_555 1_555
H131 C114 1_555 1_555
H132 C114 1_555 1_555
N10 Co3 1_555 1_555
H133 N10 1_555 1_555
H134 N10 1_555 1_555
N11 Co3 1_555 1_555
H135 N11 1_555 1_555
H136 N11 1_555 1_555
C115 N11 1_555 1_555
H137 C115 1_555 1_555
H138 C115 1_555 1_555
C116 C115 1_555 1_555
H139 C116 1_555 1_555
H140 C116 1_555 1_555
C117 C116 1_555 1_555
H141 C117 1_555 1_555
H142 C117 1_555 1_555
C118 C117 1_555 1_555
H143 C118 1_555 1_555
H144 C118 1_555 1_555
C119 C118 1_555 1_555
H145 C119 1_555 1_555
H146 C119 1_555 1_555
C120 C119 1_555 1_555
H147 C120 1_555 1_555
H148 C120 1_555 1_555
N12 Co1 1_555 1_555
H149 N12 1_555 1_555
H150 N12 1_555 1_555
O13 H185 1_555 1_555
H186 O13 1_555 1_555
B1 C133 1_555 1_555
C133 C134 1_555 1_555
C134 H187 1_555 1_555
C135 C134 1_555 1_555
C136 C135 1_555 1_555
H188 C136 1_555 1_555
C137 C136 1_555 1_555
C138 C133 1_555 1_555
H189 C138 1_555 1_555
C139 C135 1_555 1_555
F1 C139 1_555 1_555
F2 C139 1_555 1_555
F3 C139 1_555 1_555
C140 C137 1_555 1_555
F4 C140 1_555 1_555
F5 C140 1_555 1_555
F6 C140 1_555 1_555
C141 B1 1_555 1_555
C142 C141 1_555 1_555
H190 C142 1_555 1_555
C143 C142 1_555 1_555
C144 C143 1_555 1_555
H191 C144 1_555 1_555
C145 C144 1_555 1_555
C146 C141 1_555 1_555
H192 C146 1_555 1_555
C147 C143 1_555 1_555
F7 C147 1_555 1_555
F8 C147 1_555 1_555
F9 C147 1_555 1_555
C148 C145 1_555 1_555
F10 C148 1_555 1_555
F11 C148 1_555 1_555
F12 C148 1_555 1_555
C149 B1 1_555 1_555
C150 C149 1_555 1_555
H193 C150 1_555 1_555
C151 C150 1_555 1_555
C152 C151 1_555 1_555
H194 C152 1_555 1_555
C153 C152 1_555 1_555
C154 C149 1_555 1_555
H195 C154 1_555 1_555
C155 C151 1_555 1_555
F13 C155 1_555 1_555
F14 C155 1_555 1_555
F15 C155 1_555 1_555
C156 C153 1_555 1_555
F16 C156 1_555 1_555
F17 C156 1_555 1_555
F18 C156 1_555 1_555
C157 B1 1_555 1_555
C158 C157 1_555 1_555
H196 C158 1_555 1_555
C159 C158 1_555 1_555
C160 C159 1_555 1_555
H197 C160 1_555 1_555
C161 C160 1_555 1_555
C162 C157 1_555 1_555
H198 C162 1_555 1_555
C163 C159 1_555 1_555
F19 C163 1_555 1_555
F20 C163 1_555 1_555
F21 C163 1_555 1_555
C164 C161 1_555 1_555
F22 C164 1_555 1_555
F23 C164 1_555 1_555
F24 C164 1_555 1_555
B2 C165 1_555 1_555
C165 C166 1_555 1_555
C166 H199 1_555 1_555
C167 C166 1_555 1_555
C168 C167 1_555 1_555
H200 C168 1_555 1_555
C169 C168 1_555 1_555
C170 C165 1_555 1_555
H201 C170 1_555 1_555
C171 C167 1_555 1_555
F25 C171 1_555 1_555
F26 C171 1_555 1_555
F27 C171 1_555 1_555
C172 C169 1_555 1_555
F28 C172 1_555 1_555
F29 C172 1_555 1_555
F30 C172 1_555 1_555
C173 B2 1_555 1_555
C174 C173 1_555 1_555
H202 C174 1_555 1_555
C175 C174 1_555 1_555
C176 C175 1_555 1_555
H203 C176 1_555 1_555
C177 C176 1_555 1_555
C178 C173 1_555 1_555
H204 C178 1_555 1_555
C179 C175 1_555 1_555
F31 C179 1_555 1_555
F32 C179 1_555 1_555
F33 C179 1_555 1_555
C180 C177 1_555 1_555
F34 C180 1_555 1_555
F35 C180 1_555 1_555
F36 C180 1_555 1_555
C181 B2 1_555 1_555
C182 C181 1_555 1_555
H205 C182 1_555 1_555
C183 C182 1_555 1_555
C184 C183 1_555 1_555
H206 C184 1_555 1_555
C185 C184 1_555 1_555
C186 C181 1_555 1_555
H207 C186 1_555 1_555
C187 C183 1_555 1_555
F37 C187 1_555 1_555
F38 C187 1_555 1_555
F39 C187 1_555 1_555
C188 C185 1_555 1_555
F40 C188 1_555 1_555
F41 C188 1_555 1_555
F42 C188 1_555 1_555
C189 B2 1_555 1_555
C190 C189 1_555 1_555
H208 C190 1_555 1_555
C191 C190 1_555 1_555
C192 C191 1_555 1_555
H209 C192 1_555 1_555
C193 C192 1_555 1_555
C194 C189 1_555 1_555
H210 C194 1_555 1_555
C195 C191 1_555 1_555
F43 C195 1_555 1_555
F44 C195 1_555 1_555
F45 C195 1_555 1_555
C196 C193 1_555 1_555
F46 C196 1_555 1_555
F47 C196 1_555 1_555
F48 C196 1_555 1_555
B3 C198 1_555 1_555
C198 C199 1_555 1_555
C199 H211 1_555 1_555
C200 C199 1_555 1_555
C201 C200 1_555 1_555
H212 C201 1_555 1_555
C202 C201 1_555 1_555
C203 C198 1_555 1_555
H213 C203 1_555 1_555
C204 C200 1_555 1_555
F64 C204 1_555 1_555
F65 C204 1_555 1_555
F66 C204 1_555 1_555
C205 C202 1_555 1_555
F67 C205 1_555 1_555
F68 C205 1_555 1_555
F69 C205 1_555 1_555
C206 B3 1_555 1_555
C207 C206 1_555 1_555
H214 C207 1_555 1_555
C208 C207 1_555 1_555
C209 C208 1_555 1_555
H215 C209 1_555 1_555
C210 C209 1_555 1_555
C211 C206 1_555 1_555
H216 C211 1_555 1_555
C212 C208 1_555 1_555
F70 C212 1_555 1_555
F71 C212 1_555 1_555
F72 C212 1_555 1_555
C213 C210 1_555 1_555
F73 C213 1_555 1_555
F74 C213 1_555 1_555
F75 C213 1_555 1_555
C214 B3 1_555 1_555
C215 C214 1_555 1_555
H217 C215 1_555 1_555
C216 C215 1_555 1_555
C217 C216 1_555 1_555
H218 C217 1_555 1_555
C218 C217 1_555 1_555
C219 C214 1_555 1_555
H219 C219 1_555 1_555
C220 C216 1_555 1_555
F76 C220 1_555 1_555
F77 C220 1_555 1_555
F78 C220 1_555 1_555
C221 C218 1_555 1_555
F79 C221 1_555 1_555
F80 C221 1_555 1_555
F81 C221 1_555 1_555
C222 B3 1_555 1_555
C223 C222 1_555 1_555
H220 C223 1_555 1_555
C224 C223 1_555 1_555
C225 C224 1_555 1_555
H221 C225 1_555 1_555
C226 C225 1_555 1_555
C227 C222 1_555 1_555
H222 C227 1_555 1_555
C228 C224 1_555 1_555
F82 C228 1_555 1_555
F83 C228 1_555 1_555
F84 C228 1_555 1_555
C229 C226 1_555 1_555
F85 C229 1_555 1_555
F86 C229 1_555 1_555
F87 C229 1_555 1_555
O14 H229 1_555 1_555
H230 O14 1_555 1_555
O15 H231 1_555 1_555
C247 O15 1_555 1_555
H232 C247 1_555 1_555
H233 C247 1_555 1_555
H234 C247 1_555 1_555
O16 H235 1_555 1_555
C248 O16 1_555 1_555
H236 C248 1_555 1_555
H237 C248 1_555 1_555
H238 C248 1_555 1_555
C5 C6 1_555 1_555
C11 C12 1_555 1_555
C17 C18 1_555 1_555
C23 N1 1_555 1_555
C28 C29 1_555 1_555
C29 N2 1_555 1_555
C34 C35 1_555 1_555
C34 O4 1_555 1_555
C37 C38 1_555 1_555
C47 C48 1_555 1_555
C53 N3 1_555 1_555
C58 C59 1_555 1_555
C59 N4 1_555 1_555
C64 C65 1_555 1_555
C64 O8 1_555 1_555
C67 C68 1_555 1_555
C77 C78 1_555 1_555
C83 N5 1_555 1_555
C88 C89 1_555 1_555
C89 N6 1_555 1_555
C94 C95 1_555 1_555
C94 O12 1_555 1_555
C97 C98 1_555 1_555
C108 N8 1_555 1_555
C114 N10 1_555 1_555
C120 N12 1_555 1_555
C137 C138 1_555 1_555
C145 C146 1_555 1_555
C153 C154 1_555 1_555
C161 C162 1_555 1_555
C169 C170 1_555 1_555
C177 C178 1_555 1_555
C185 C186 1_555 1_555
C193 C194 1_555 1_555
C202 C203 1_555 1_555
C210 C211 1_555 1_555
C218 C219 1_555 1_555
C226 C227 1_555 1_555

#END
