
#######################################################################
#
#                 Cambridge Crystallographic Data Centre
#                                CCDC 
#
#######################################################################
#
# If this CIF has been generated from an entry in the Cambridge 
# Structural Database, then it will include bibliographic, chemical, 
# crystal, experimental, refinement or atomic coordinate data resulting 
# from the CCDC's data processing and validation procedures.
#
#######################################################################

data_TEBKOA
_chemical_formula_moiety         
'1.5(C48 H64 N16 Pd4 8+),1.5(C10 H8),12(N1 O3 1-),21(H2 O1)'
_chemical_name_systematic        
"tetrakis((\m~2~-(4,4'-Bipyridine))-(ethylenediamine)-palladium) octanitrate naphthalene clathrate hydrate"
_symmetry_cell_setting           triclinic
_symmetry_space_group_name_H-M   'P -1'
_symmetry_Int_Tables_number      2
_space_group_name_Hall           '-P 1'
loop_
_symmetry_equiv_pos_site_id
_symmetry_equiv_pos_as_xyz
1 x,y,z
2 -x,-y,-z
_cell_length_a                   19.105(7)
_cell_length_b                   22.164(5)
_cell_length_c                   19.161(9)
_cell_angle_alpha                109.53(3)
_cell_angle_beta                 97.19(4)
_cell_angle_gamma                107.38(3)
_cell_volume                     7065.61
_exptl_crystal_colour            colorless
_chemical_melting_point          'above 300deg.C'
_cell_formula_units_Z            2
loop_
_atom_site_label
_atom_site_type_symbol
_atom_site_fract_x
_atom_site_fract_y
_atom_site_fract_z
Pd3 Pd 0.6737(3) 0.2834(2) 0.1501(2)
Pd4 Pd 0.7082(3) 0.5030(2) 0.7636(3)
N9 N 0.671(4) 0.193(3) 0.036(3)
N10 N 0.557(3) 0.186(3) 0.116(3)
N11 N 0.681(2) 0.286(3) 0.269(3)
N12 N 0.786(3) 0.288(3) 0.170(3)
N13 N 0.694(2) 0.451(2) 0.653(2)
N14 N 0.716(3) 0.546(2) 0.876(2)
N15 N 0.590(3) 0.456(3) 0.754(3)
N16 N 0.816(2) 0.550(2) 0.780(2)
C25 C 0.809(3) 0.338(3) 0.152(3)
C26 C 0.882(6) 0.376(3) 0.166(4)
C27 C 0.942(4) 0.347(3) 0.190(3)
C28 C 0.916(3) 0.288(2) 0.201(3)
C29 C 0.833(6) 0.263(3) 0.194(3)
C30 C 1.024(4) 0.379(2) 0.202(3)
C31 C 1.075(3) 0.383(3) 0.257(3)
C32 C 1.050(4) 0.420(3) 0.152(4)
C33 C 0.587(3) 0.146(3) 0.003(3)
C34 C 0.537(3) 0.165(3) 0.029(3)
C35 C 0.672(3) 0.338(4) 0.290(4)
C36 C 0.684(5) 0.248(5) 0.301(4)
C37 C 0.678(3) 0.280(3) 0.389(3)
C38 C 0.685(3) 0.350(3) 0.423(3)
C39 C 0.679(4) 0.373(4) 0.363(4)
C40 C 0.691(3) 0.388(3) 0.501(3)
C41 C 0.659(3) 0.435(3) 0.519(4)
C42 C 0.728(3) 0.370(3) 0.554(3)
C43 C 0.728(5) 0.400(4) 0.622(4)
C44 C 0.666(3) 0.464(3) 0.597(3)
C45 C 1.156(3) 0.425(4) 0.264(5)
C46 C 0.630(2) 0.549(3) 0.879(3)
C47 C 0.589(4) 0.470(4) 0.843(4)
C48 C 1.132(3) 0.460(3) 0.169(2)
C45A C 0.844(3) 0.575(4) 0.736(5)
C31A C 0.925(3) 0.617(3) 0.743(3)
C30A C 0.976(4) 0.621(2) 0.798(3)
C27A C 1.058(4) 0.653(3) 0.810(3)
C26A C 1.118(6) 0.624(3) 0.834(4)
C25A C 1.191(3) 0.662(3) 0.848(3)
N12A N 1.214(3) 0.712(3) 0.830(3)
Pd3A Pd 1.3263(3) 0.7166(2) 0.8499(2)
N9A N 1.329(4) 0.807(3) 0.964(3)
C33A C 1.413(3) 0.854(3) 0.997(3)
C34A C 1.463(3) 0.835(3) 0.971(3)
N10A N 1.443(3) 0.814(3) 0.884(3)
N11A N 1.319(2) 0.714(3) 0.731(3)
C35A C 1.328(3) 0.662(4) 0.710(4)
C39A C 1.321(4) 0.627(4) 0.637(4)
C38A C 1.315(3) 0.650(3) 0.577(3)
C37A C 1.322(3) 0.720(3) 0.611(3)
C36A C 1.316(5) 0.752(5) 0.699(4)
C40A C 1.309(3) 0.612(3) 0.499(3)
C41A C 1.341(3) 0.565(3) 0.481(4)
C44A C 1.334(3) 0.536(3) 0.403(3)
N13A N 1.306(2) 0.549(2) 0.347(2)
Pd4A Pd 1.2918(3) 0.4970(2) 0.2364(3)
N14A N 1.284(3) 0.454(2) 0.124(2)
C46A C 1.370(2) 0.451(3) 0.121(3)
C47A C 1.411(4) 0.530(4) 0.157(4)
N15A N 1.410(3) 0.544(3) 0.246(3)
N16A N 1.184(2) 0.450(2) 0.220(2)
C43A C 1.272(5) 0.600(4) 0.378(4)
C42A C 1.272(3) 0.630(3) 0.446(3)
C29A C 1.167(6) 0.737(3) 0.806(3)
C28A C 1.084(3) 0.712(2) 0.799(3)
C32A C 0.950(4) 0.580(3) 0.848(4)
C48A C 0.868(3) 0.540(3) 0.831(2)
O1 O 0.293(2) 0.367(2) 0.288(2)
O2 O 0.281(4) 0.321(4) 0.167(5)
O3 O 0.312(2) 0.284(2) 0.225(2)
N17 N 0.291(6) 0.325(6) 0.217(7)
O4 O 0.659(2) 0.036(2) 0.534(3)
O5 O 0.552(3) -0.025(3) 0.433(3)
O6 O 0.575(1) -0.0791(10) 0.469(1)
N18 N 0.615(4) -0.003(3) 0.482(4)
O7 O 0.015(3) 0.101(3) 0.914(3)
O8 O 0.052(1) 0.0365(10) 0.936(1)
O9 O -0.030(2) -0.021(1) 0.854(2)
N19 N 0.009(3) 0.049(3) 0.894(3)
O10 O 0.226(3) 0.398(3) 0.415(3)
O11 O 0.240(5) 0.442(4) 0.533(5)
O12 O 0.135(8) 0.464(8) 0.460(8)
N20 N 0.189(7) 0.430(6) 0.474(7)
O13 O 0.491(3) 0.323(3) 0.713(3)
O14 O 0.422(3) 0.279(3) 0.593(4)
O15 O 0.425(3) 0.369(3) 0.648(3)
N21 N 0.449(9) 0.297(9) 0.64(1)
O16 O 0.813(5) 0.205(5) 0.977(5)
O17 O 0.946(3) 0.259(3) 1.009(3)
O18 O 0.912(3) 0.162(2) 1.013(3)
N22 N 0.905(4) 0.225(3) 1.005(3)
Pd5 Pd 0.3062(3) 0.2804(2) 0.4527(3)
Pd6 Pd 0.0829(2) -0.2876(2) 0.1640(3)
N23 N 0.268(3) 0.172(3) 0.402(3)
N24 N 0.133(2) -0.182(2) 0.210(2)
N25 N 0.351(3) 0.382(2) 0.506(3)
N26 N 0.391(3) 0.296(3) 0.400(3)
N27 N 0.234(2) 0.273(2) 0.516(2)
N28 N 0.155(3) -0.286(2) 0.088(3)
N29 N 0.037(3) -0.395(3) 0.114(3)
N30 N 0.012(3) -0.287(2) 0.237(3)
C49 C 0.229(5) 0.152(4) 0.353(6)
C50 C 0.182(3) 0.067(3) 0.299(3)
C51 C 0.213(3) 0.037(3) 0.330(4)
C52 C 0.264(3) 0.063(3) 0.384(2)
C53 C 0.299(3) 0.144(3) 0.426(3)
C54 C 0.183(3) -0.035(4) 0.285(4)
C55 C 0.117(3) -0.087(4) 0.214(3)
C56 C 0.100(3) -0.153(3) 0.178(3)
C57 C 0.179(2) -0.152(2) 0.277(3)
C58 C 0.212(3) -0.081(3) 0.308(3)
C59 C 0.404(5) 0.408(3) 0.467(3)
C60 C 0.448(4) 0.367(3) 0.447(4)
C61 C 0.042(4) -0.285(5) 0.311(5)
C62 C 0.166(3) 0.282(3) 0.501(3)
C63 C 0.123(3) 0.290(3) 0.550(3)
C64 C 0.133(3) 0.280(3) 0.613(3)
C65 C 0.076(3) 0.286(3) 0.662(3)
C66 C 0.069(5) -0.408(4) 0.047(4)
C67 C 0.119(4) -0.364(6) 0.022(6)
C68 C -0.058(4) -0.291(5) 0.206(4)
C69 C -0.002(5) -0.282(4) 0.345(4)
C70 C 0.240(3) 0.268(2) 0.584(2)
C71 C 0.199(3) 0.273(3) 0.632(3)
C72 C 0.104(3) 0.295(3) 0.739(3)
C65A C -0.076(3) -0.286(3) 0.338(3)
C64A C -0.133(3) -0.280(3) 0.387(3)
C63A C -0.123(3) -0.290(3) 0.450(3)
C62A C -0.166(3) -0.282(3) 0.499(3)
N27A N -0.234(2) -0.273(2) 0.484(2)
Pd5A Pd -0.3062(3) -0.2804(2) 0.5473(3)
N23A N -0.268(3) -0.172(3) 0.598(3)
C49A C -0.229(5) -0.152(4) 0.647(6)
C50A C -0.182(3) -0.067(3) 0.701(3)
C51A C -0.213(3) -0.037(3) 0.670(4)
C52A C -0.264(3) -0.063(3) 0.616(2)
C53A C -0.299(3) -0.144(3) 0.574(3)
C54A C -0.183(3) 0.035(4) 0.715(4)
C55A C -0.117(3) 0.087(4) 0.786(3)
C56A C -0.100(3) 0.153(3) 0.822(3)
N24A N -0.133(2) 0.182(2) 0.790(2)
Pd6A Pd -0.0829(2) 0.2876(2) 0.8360(3)
N28A N -0.155(3) 0.286(2) 0.912(3)
C67A C -0.119(4) 0.364(6) 0.978(6)
C66A C -0.069(5) 0.408(4) 0.953(4)
N29A N -0.037(3) 0.395(3) 0.886(3)
N30A N -0.012(3) 0.287(2) 0.763(3)
C61A C -0.042(4) 0.285(5) 0.689(5)
C69A C 0.002(5) 0.282(4) 0.655(4)
C68A C 0.058(4) 0.291(5) 0.794(4)
C57A C -0.179(2) 0.152(2) 0.723(3)
C58A C -0.212(3) 0.081(3) 0.692(3)
N25A N -0.351(3) -0.382(2) 0.494(3)
C59A C -0.404(5) -0.408(3) 0.533(3)
C60A C -0.448(4) -0.367(3) 0.553(4)
N26A N -0.391(3) -0.296(3) 0.600(3)
C70A C -0.240(3) -0.268(2) 0.416(2)
C71A C -0.199(3) -0.273(3) 0.368(3)
C72A C -0.104(3) -0.295(3) 0.261(3)
Pd1 Pd 0.1828(2) 0.1504(2) 0.0757(2)
Pd2 Pd 0.4342(2) -0.1517(2) 0.3143(2)
N1 N 0.501(2) -0.153(2) 0.245(2)
N2 N 0.362(2) -0.154(2) 0.381(2)
N3 N 0.395(2) -0.094(3) 0.270(2)
N4 N 0.477(3) -0.202(3) 0.364(3)
N5 N 0.127(3) 0.204(2) 0.035(3)
N6 N 0.251(2) 0.155(2) 0.002(2)
N7 N 0.230(3) 0.092(2) 0.114(2)
N8 N 0.111(2) 0.154(2) 0.146(2)
C1 C 0.428(3) -0.222(3) 0.412(3)
C2 C 0.401(3) -0.167(2) 0.443(3)
C3 C 0.502(3) -0.218(3) 0.192(4)
C4 C 0.344(3) -0.127(3) 0.198(2)
C5 C 0.413(3) -0.030(3) 0.303(3)
C6 C 0.317(3) -0.101(3) 0.163(4)
C7 C 0.390(3) 0.007(3) 0.279(3)
C8 C 0.330(3) -0.022(3) 0.203(3)
C9 C 0.297(3) 0.015(3) 0.165(3)
C10 C 0.338(3) 0.090(3) 0.193(2)
C11 C 0.052(3) 0.173(3) 0.114(3)
C12 C 0.092(3) 0.235(4) 0.097(4)
C13 C 0.196(3) 0.023(2) 0.090(3)
C14 C 0.230(3) -0.017(3) 0.117(3)
C15 C 0.550(3) -0.216(3) 0.147(3)
C16 C 0.595(2) -0.153(3) 0.144(3)
C17 C 0.606(3) -0.099(3) 0.198(3)
C18 C 0.549(3) -0.098(2) 0.249(3)
C19 C 0.645(2) -0.154(2) 0.089(3)
C20 C 0.638(3) -0.207(3) 0.024(3)
C21 C 0.717(4) -0.100(3) 0.106(4)
C22 C 0.320(3) 0.214(3) 0.024(3)
C23 C 0.239(4) 0.105(3) -0.063(3)
C24 C 0.302(4) 0.125(3) 0.158(4)
C20A C 0.362(3) 0.207(3) -0.024(3)
C19A C 0.355(2) 0.154(2) -0.089(3)
C16A C 0.405(2) 0.153(3) -0.144(3)
C15A C 0.450(3) 0.216(3) -0.147(3)
C3A C 0.498(3) 0.218(3) -0.192(4)
N1A N 0.499(2) 0.153(2) -0.245(2)
Pd2A Pd 0.5658(2) 0.1517(2) -0.3143(2)
N2A N 0.638(2) 0.154(2) -0.381(2)
C2A C 0.599(3) 0.167(2) -0.443(3)
C1A C 0.572(3) 0.222(3) -0.412(3)
N4A N 0.523(3) 0.202(3) -0.364(3)
N3A N 0.605(2) 0.094(3) -0.270(2)
C4A C 0.656(3) 0.127(3) -0.198(2)
C6A C 0.683(3) 0.101(3) -0.163(4)
C8A C 0.670(3) 0.022(3) -0.203(3)
C7A C 0.610(3) -0.007(3) -0.279(3)
C5A C 0.587(3) 0.030(3) -0.303(3)
C9A C 0.703(3) -0.015(3) -0.165(3)
C10A C 0.662(3) -0.090(3) -0.193(2)
C24A C 0.698(4) -0.125(3) -0.158(4)
N7A N 0.770(3) -0.092(2) -0.114(2)
Pd1A Pd 0.8172(2) -0.1504(2) -0.0757(2)
N5A N 0.873(3) -0.204(2) -0.035(3)
C12A C 0.908(3) -0.235(4) -0.097(4)
C11A C 0.948(3) -0.173(3) -0.114(3)
N8A N 0.889(2) -0.154(2) -0.146(2)
N6A N 0.749(2) -0.155(2) -0.002(2)
C22A C 0.680(3) -0.214(3) -0.024(3)
C23A C 0.761(4) -0.105(3) 0.063(3)
C13A C 0.804(3) -0.023(2) -0.090(3)
C14A C 0.770(3) 0.017(3) -0.117(3)
C18A C 0.451(3) 0.098(2) -0.249(3)
C17A C 0.394(3) 0.099(3) -0.198(3)
C21A C 0.283(4) 0.100(3) -0.106(4)
O19? O 0.493(1) 0.500(1) 0.358(1)
O20? O 0.53(1) 0.42(1) 0.21(1)
O21? O 0.547(1) 0.487(1) 0.335(1)
N31? N 0.48(1) 0.458(10) 0.26(1)
loop_
_geom_bond_atom_site_label_1
_geom_bond_atom_site_label_2
_geom_bond_site_symmetry_1
_geom_bond_site_symmetry_2
Pd1 N5 1_555 1_555
Pd2 N1 1_555 1_555
N1 C3 1_555 1_555
N2 Pd2 1_555 1_555
N3 Pd2 1_555 1_555
N4 Pd2 1_555 1_555
N5 C12 1_555 1_555
N6 Pd1 1_555 1_555
N7 Pd1 1_555 1_555
N8 Pd1 1_555 1_555
C1 N4 1_555 1_555
C2 N2 1_555 1_555
C3 C15 1_555 1_555
C4 N3 1_555 1_555
C5 N3 1_555 1_555
C6 C4 1_555 1_555
C7 C5 1_555 1_555
C8 C6 1_555 1_555
C9 C8 1_555 1_555
C10 C9 1_555 1_555
C11 N8 1_555 1_555
C12 C11 1_555 1_555
C13 N7 1_555 1_555
C14 C9 1_555 1_555
C15 C16 1_555 1_555
C16 C17 1_555 1_555
C17 C18 1_555 1_555
C18 N1 1_555 1_555
C19 C16 1_555 1_555
C20 C19 1_555 1_555
C21 C19 1_555 1_555
C22 N6 1_555 1_555
C23 N6 1_555 1_555
C24 N7 1_555 1_555
Pd3 N9 1_555 1_555
Pd4 N13 1_555 1_555
N9 C33 1_555 1_555
N10 Pd3 1_555 1_555
N11 Pd3 1_555 1_555
N12 Pd3 1_555 1_555
N13 C43 1_555 1_555
N14 Pd4 1_555 1_555
N15 Pd4 1_555 1_555
N16 Pd4 1_555 1_555
C25 N12 1_555 1_555
C26 C25 1_555 1_555
C27 C26 1_555 1_555
C28 C27 1_555 1_555
C29 N12 1_555 1_555
C30 C27 1_555 1_555
C31 C30 1_555 1_555
C32 C30 1_555 1_555
C33 C34 1_555 1_555
C34 N10 1_555 1_555
C35 N11 1_555 1_555
C36 N11 1_555 1_555
C37 C36 1_555 1_555
C38 C37 1_555 1_555
C39 C35 1_555 1_555
C40 C38 1_555 1_555
C41 C40 1_555 1_555
C42 C40 1_555 1_555
C43 C42 1_555 1_555
C44 N13 1_555 1_555
C45 C31 1_555 1_555
C46 N14 1_555 1_555
C47 N15 1_555 1_555
C48 C32 1_555 1_555
O1 N17 1_555 1_555
O2 N17 1_555 1_555
O3 N17 1_555 1_555
O4 N18 1_555 1_555
O5 N18 1_555 1_555
O6 N18 1_555 1_555
O7 N19 1_555 1_555
O8 N19 1_555 1_555
O9 N19 1_555 1_555
O10 N20 1_555 1_555
O11 N20 1_555 1_555
O12 N20 1_555 1_555
O13 N21 1_555 1_555
O14 N21 1_555 1_555
O15 N21 1_555 1_555
O16 N22 1_555 1_555
O17 N22 1_555 1_555
O18 N22 1_555 1_555
Pd5 N23 1_555 1_555
Pd6 N24 1_555 1_555
N23 C49 1_555 1_555
N24 C56 1_555 1_555
N25 Pd5 1_555 1_555
N26 Pd5 1_555 1_555
N27 Pd5 1_555 1_555
N28 Pd6 1_555 1_555
N29 Pd6 1_555 1_555
N30 Pd6 1_555 1_555
C49 C50 1_555 1_555
C50 C51 1_555 1_555
C51 C52 1_555 1_555
C52 C53 1_555 1_555
C53 N23 1_555 1_555
C54 C51 1_555 1_555
C55 C54 1_555 1_555
C56 C55 1_555 1_555
C57 N24 1_555 1_555
C58 C54 1_555 1_555
C59 N25 1_555 1_555
C60 N26 1_555 1_555
C61 N30 1_555 1_555
C62 N27 1_555 1_555
C63 C62 1_555 1_555
C64 C63 1_555 1_555
C65 C64 1_555 1_555
C66 N29 1_555 1_555
C67 N28 1_555 1_555
C68 N30 1_555 1_555
C69 C61 1_555 1_555
C70 N27 1_555 1_555
C71 C64 1_555 1_555
C72 C65 1_555 1_555
C20A C22 1_555 1_555
C19A C20A 1_555 1_555
C16A C19A 1_555 1_555
C15A C16A 1_555 1_555
C3A C15A 1_555 1_555
N1A C3A 1_555 1_555
Pd2A N1A 1_555 1_555
N2A Pd2A 1_555 1_555
C2A N2A 1_555 1_555
C1A C2A 1_555 1_555
N4A Pd2A 1_555 1_555
N3A Pd2A 1_555 1_555
C4A N3A 1_555 1_555
C6A C4A 1_555 1_555
C8A C6A 1_555 1_555
C7A C8A 1_555 1_555
C5A N3A 1_555 1_555
C9A C8A 1_555 1_555
C10A C9A 1_555 1_555
C24A C10A 1_555 1_555
N7A C24A 1_555 1_555
Pd1A N7A 1_555 1_555
N5A Pd1A 1_555 1_555
C12A N5A 1_555 1_555
C11A C12A 1_555 1_555
N8A Pd1A 1_555 1_555
N6A Pd1A 1_555 1_555
C22A C20 1_555 1_555
C23A C21 1_555 1_555
C13A N7A 1_555 1_555
C14A C9A 1_555 1_555
C18A N1A 1_555 1_555
C17A C16A 1_555 1_555
C21A C23 1_555 1_555
C45A N16 1_555 1_555
C31A C45A 1_555 1_555
C30A C31A 1_555 1_555
C27A C30A 1_555 1_555
C26A C27A 1_555 1_555
C25A C26A 1_555 1_555
N12A C25A 1_555 1_555
Pd3A N12A 1_555 1_555
N9A Pd3A 1_555 1_555
C33A N9A 1_555 1_555
C34A C33A 1_555 1_555
N10A Pd3A 1_555 1_555
N11A Pd3A 1_555 1_555
C35A N11A 1_555 1_555
C39A C35A 1_555 1_555
C38A C39A 1_555 1_555
C37A C38A 1_555 1_555
C36A N11A 1_555 1_555
C40A C38A 1_555 1_555
C41A C40A 1_555 1_555
C44A C41A 1_555 1_555
N13A C44A 1_555 1_555
Pd4A N13A 1_555 1_555
N14A Pd4A 1_555 1_555
C46A N14A 1_555 1_555
C47A C46A 1_555 1_555
N15A Pd4A 1_555 1_555
N16A C45 1_555 1_555
C43A N13A 1_555 1_555
C42A C40A 1_555 1_555
C29A N12A 1_555 1_555
C28A C27A 1_555 1_555
C32A C30A 1_555 1_555
C48A N16 1_555 1_555
C65A C69 1_555 1_555
C64A C65A 1_555 1_555
C63A C64A 1_555 1_555
C62A C63A 1_555 1_555
N27A C62A 1_555 1_555
Pd5A N27A 1_555 1_555
N23A Pd5A 1_555 1_555
C49A N23A 1_555 1_555
C50A C49A 1_555 1_555
C51A C50A 1_555 1_555
C52A C51A 1_555 1_555
C53A N23A 1_555 1_555
C54A C51A 1_555 1_555
C55A C54A 1_555 1_555
C56A C55A 1_555 1_555
N24A C56A 1_555 1_555
Pd6A N24A 1_555 1_555
N28A Pd6A 1_555 1_555
C67A N28A 1_555 1_555
C66A C67A 1_555 1_555
N29A Pd6A 1_555 1_555
N30A Pd6A 1_555 1_555
C61A N30A 1_555 1_555
C69A C65 1_555 1_555
C68A C72 1_555 1_555
C57A N24A 1_555 1_555
C58A C54A 1_555 1_555
N25A Pd5A 1_555 1_555
C59A N25A 1_555 1_555
C60A C59A 1_555 1_555
N26A Pd5A 1_555 1_555
C70A N27A 1_555 1_555
C71A C64A 1_555 1_555
C72A C68 1_555 1_555
C1 C2 1_555 1_555
C7 C8 1_555 1_555
C10 C24 1_555 1_555
C13 C14 1_555 1_555
C28 C29 1_555 1_555
C38 C39 1_555 1_555
C41 C44 1_555 1_555
C46 C47 1_555 1_555
C48 N16A 1_555 1_555
C57 C58 1_555 1_555
C59 C60 1_555 1_555
C66 C67 1_555 1_555
C70 C71 1_555 1_555
C19A C21A 1_555 1_555
C1A N4A 1_555 1_555
C7A C5A 1_555 1_555
C11A N8A 1_555 1_555
N6A C22A 1_555 1_555
N6A C23A 1_555 1_555
C13A C14A 1_555 1_555
C18A C17A 1_555 1_555
C34A N10A 1_555 1_555
C37A C36A 1_555 1_555
Pd4A N16A 1_555 1_555
C47A N15A 1_555 1_555
C43A C42A 1_555 1_555
C29A C28A 1_555 1_555
C32A C48A 1_555 1_555
C65A C72A 1_555 1_555
C52A C53A 1_555 1_555
C66A N29A 1_555 1_555
N30A C68A 1_555 1_555
C61A C69A 1_555 1_555
C57A C58A 1_555 1_555
C60A N26A 1_555 1_555
C70A C71A 1_555 1_555

#END
