
#######################################################################
#
#                 Cambridge Crystallographic Data Centre
#                                CCDC 
#
#######################################################################
#
# If this CIF has been generated from an entry in the Cambridge 
# Structural Database, then it will include bibliographic, chemical, 
# crystal, experimental, refinement or atomic coordinate data resulting 
# from the CCDC's data processing and validation procedures.
#
#######################################################################

data_TEFKOG01
_chemical_formula_moiety         'C98 H74 B4 Co2 Fe4 N54,2(C3 H8 O1),4(H2 O1)'
_chemical_name_systematic        
"hexakis(\m~2~-Cyano)-tetrakis(2,2'-pyridine-2,6-diylbis(1H-benzimidazole))-bis(1,1',1'',1'''-\l^5^-boranetetrayltetrakis(1H-pyrazole))-di-cobalt-tetra-iron propanol solvate tetrahydrate"
_symmetry_cell_setting           triclinic
_symmetry_space_group_name_H-M   'P -1'
_symmetry_Int_Tables_number      2
_space_group_name_Hall           '-P 1'
loop_
_symmetry_equiv_pos_site_id
_symmetry_equiv_pos_as_xyz
1 x,y,z
2 -x,-y,-z
_cell_length_a                   12.287(5)
_cell_length_b                   13.963(5)
_cell_length_c                   17.757(7)
_cell_angle_alpha                72.968(4)
_cell_angle_beta                 69.944(5)
_cell_angle_gamma                84.053(5)
_cell_volume                     2736.18
_exptl_crystal_colour            red
_exptl_crystal_description       plate
_cell_formula_units_Z            1
loop_
_atom_site_label
_atom_site_type_symbol
_atom_site_fract_x
_atom_site_fract_y
_atom_site_fract_z
Co1 Co 0.77947(5) 0.67301(4) 0.52846(3)
Fe1 Fe 1.10574(5) 0.63170(5) 0.28936(4)
Fe2 Fe 0.45473(6) 0.76265(5) 0.75058(4)
N1 N 0.9252(3) 0.6587(3) 0.4484(2)
N2 N 0.8131(3) 0.5602(3) 0.6081(2)
N3 N 1.2893(4) 0.7542(3) 0.2992(3)
N4 N 0.6337(3) 0.6896(3) 0.6099(2)
N5 N 0.2763(4) 0.7992(3) 0.6600(3)
N6 N 0.3415(4) 0.5569(4) 0.8459(3)
N7 N 1.2140(3) 0.6212(3) 0.1791(2)
N8 N 1.0456(3) 0.7571(3) 0.2268(2)
N9 N 0.9919(3) 0.5564(3) 0.2718(2)
N10 N 1.1773(3) 0.6421(3) 0.1119(2)
N11 N 1.0215(3) 0.7633(3) 0.1563(2)
N12 N 0.9760(3) 0.5816(3) 0.1963(2)
N13 N 1.0224(5) 0.6786(4) 0.0452(3)
N14 N 0.9507(5) 0.7509(4) 0.0169(3)
N15 N 0.5244(3) 0.8950(3) 0.6913(3)
N16 N 0.5629(4) 0.7356(3) 0.8142(2)
N17 N 0.3490(3) 0.8265(3) 0.8348(2)
N18 N 0.5514(4) 0.9501(3) 0.7353(3)
N19 N 0.5806(4) 0.8050(4) 0.8488(3)
N20 N 0.3902(4) 0.8893(3) 0.8652(3)
N21 N 0.5650(6) 0.9780(5) 0.8658(4)
C1 C 0.6803(8) 0.9978(7) 0.8539(5)
H1 H 0.7459 0.9622 0.8283
N22 N 0.7085(3) 0.6041(3) 0.4755(2)
N23 N 0.7493(3) 0.7857(3) 0.4457(2)
N24 N 0.8377(3) 0.7796(3) 0.5562(2)
N25 N 0.6293(3) 0.6177(3) 0.3770(2)
H2 H 0.6043 0.6447 0.3346
N26 N 0.8559(3) 0.9442(3) 0.5311(2)
H3 H 0.8563 1.0088 0.5064
C2 C 0.9967(4) 0.6463(3) 0.3887(3)
C3 C 0.8414(4) 0.4878(3) 0.6488(3)
C4 C 1.2182(4) 0.7075(4) 0.2965(3)
C5 C 0.5622(4) 0.7104(3) 0.6641(3)
C6 C 0.3447(4) 0.7854(3) 0.6925(3)
C7 C 0.3839(4) 0.6333(4) 0.8092(3)
C8 C 1.3276(4) 0.6064(4) 0.1517(3)
H4 H 1.3757 0.5903 0.1857
C9 C 1.3661(5) 0.6177(4) 0.0668(3)
H5 H 1.4432 0.6111 0.0320
C10 C 1.2696(5) 0.6403(4) 0.0436(3)
H6 H 1.2675 0.6527 -0.0114
C11 C 1.0189(4) 0.8457(3) 0.2418(3)
H7 H 1.0275 0.8630 0.2874
C12 C 0.9769(4) 0.9097(4) 0.1820(3)
H8 H 0.9520 0.9771 0.1785
C13 C 0.9789(4) 0.8551(4) 0.1290(3)
H9 H 0.9547 0.8778 0.0814
C14 C 0.9211(4) 0.4802(3) 0.3198(3)
H10 H 0.9140 0.4471 0.3763
C15 C 0.8589(4) 0.4556(4) 0.2758(3)
H11 H 0.8030 0.4040 0.2954
C16 C 0.8957(4) 0.5216(4) 0.1982(3)
H12 H 0.8691 0.5246 0.1532
C17 C 1.0527(7) 0.6151(6) -0.0035(4)
H13 H 1.1029 0.5590 0.0029
C18 C 1.0003(7) 0.6435(6) -0.0629(4)
H14 H 1.0062 0.6133 -0.1056
C19 C 0.9361(7) 0.7278(6) -0.0463(4)
H15 H 0.8875 0.7643 -0.0766
C20 C 0.5532(4) 0.9504(4) 0.6119(3)
H16 H 0.5445 0.9305 0.5675
C21 C 0.5980(4) 1.0419(4) 0.6042(4)
H17 H 0.6245 1.0954 0.5549
C22 C 0.5956(4) 1.0386(4) 0.6829(4)
H18 H 0.6211 1.0903 0.6977
C23 C 0.6166(4) 0.6519(4) 0.8435(3)
H19 H 0.6194 0.5909 0.8294
C24 C 0.6673(5) 0.6672(5) 0.8972(3)
H20 H 0.7109 0.6201 0.9263
C25 C 0.6422(5) 0.7632(5) 0.9002(4)
H21 H 0.6643 0.7955 0.9330
C26 C 0.2349(4) 0.8249(4) 0.8692(3)
H22 H 0.1840 0.7868 0.8594
C27 C 0.2008(5) 0.8866(4) 0.9215(3)
H23 H 0.1238 0.8993 0.9533
C28 C 0.3000(5) 0.9255(5) 0.9181(4)
H24 H 0.3048 0.9705 0.9480
N27 N 0.4956(8) 1.0477(7) 0.9010(6)
C29 C 0.5670(11) 1.1075(10) 0.9116(7)
H25 H 0.5422 1.1630 0.9342
C30 C 0.6839(8) 1.0749(7) 0.8840(5)
H26 H 0.7503 1.1018 0.8864
C31 C 0.6766(4) 0.5096(3) 0.4814(3)
C32 C 0.6868(4) 0.4166(3) 0.5357(3)
H27 H 0.7217 0.4095 0.5772
C33 C 0.6434(4) 0.3352(4) 0.5260(3)
H28 H 0.6484 0.2707 0.5621
C34 C 0.5923(4) 0.3446(4) 0.4647(3)
H29 H 0.5640 0.2864 0.4603
C35 C 0.5821(4) 0.4357(4) 0.4109(3)
H30 H 0.5473 0.4422 0.3694
C36 C 0.6257(4) 0.5182(3) 0.4205(3)
C37 C 0.6789(4) 0.6654(3) 0.4125(3)
C38 C 0.7023(4) 0.7720(3) 0.3924(3)
C39 C 0.6835(4) 0.8509(3) 0.3296(3)
H31 H 0.6503 0.8406 0.2915
C40 C 0.7151(4) 0.9456(3) 0.3244(3)
H32 H 0.7026 1.0014 0.2823
C41 C 0.7646(4) 0.9607(3) 0.3798(3)
H33 H 0.7865 1.0258 0.3758
C42 C 0.7812(4) 0.8778(3) 0.4410(3)
C43 C 0.8276(4) 0.8706(3) 0.5070(3)
C44 C 0.8847(4) 0.8984(4) 0.6026(3)
C45 C 0.9191(4) 0.9390(4) 0.6534(3)
H34 H 0.9251 1.0093 0.6432
C46 C 0.9442(5) 0.8711(4) 0.7196(3)
H35 H 0.9687 0.8953 0.7559
C47 C 0.9344(5) 0.7677(4) 0.7345(3)
H36 H 0.9533 0.7239 0.7805
C48 C 0.8987(4) 0.7275(4) 0.6854(3)
H37 H 0.8912 0.6572 0.6969
C49 C 0.8739(4) 0.7941(3) 0.6179(3)
B1 B 1.0478(5) 0.6679(4) 0.1249(3)
B2 B 0.5209(6) 0.9082(5) 0.8306(4)
Co1A Co 1.22053(5) 0.32699(4) 0.47154(3)
Fe1A Fe 0.89426(5) 0.36830(5) 0.71064(4)
Fe2A Fe 1.54527(6) 0.23735(5) 0.24942(4)
N1A N 1.0748(3) 0.3413(3) 0.5516(2)
N2A N 1.1869(3) 0.4398(3) 0.3919(2)
N3A N 0.7107(4) 0.2458(3) 0.7008(3)
N4A N 1.3663(3) 0.3104(3) 0.3901(2)
N5A N 1.7237(4) 0.2008(3) 0.3400(3)
N6A N 1.6585(4) 0.4431(4) 0.1541(3)
N7A N 0.7860(3) 0.3788(3) 0.8209(2)
N8A N 0.9544(3) 0.2429(3) 0.7732(2)
N9A N 1.0081(3) 0.4436(3) 0.7282(2)
N10A N 0.8227(3) 0.3579(3) 0.8881(2)
N11A N 0.9785(3) 0.2367(3) 0.8437(2)
N12A N 1.0240(3) 0.4184(3) 0.8037(2)
N13A N 0.9776(5) 0.3214(4) 0.9548(3)
N14A N 1.0493(5) 0.2491(4) 0.9831(3)
N15A N 1.4756(3) 0.1050(3) 0.3087(3)
N16A N 1.4371(4) 0.2644(3) 0.1858(2)
N17A N 1.6510(3) 0.1735(3) 0.1652(2)
N18A N 1.4486(4) 0.0499(3) 0.2647(3)
N19A N 1.4194(4) 0.1950(4) 0.1512(3)
N20A N 1.6098(4) 0.1107(3) 0.1348(3)
N21A N 1.4350(6) 0.0220(5) 0.1342(4)
C1A C 1.3197(8) 0.0022(7) 0.1461(5)
H1A H 1.2541 0.0378 0.1717
N22A N 1.2915(3) 0.3959(3) 0.5245(2)
N23A N 1.2507(3) 0.2143(3) 0.5543(2)
N24A N 1.1623(3) 0.2204(3) 0.4438(2)
N25A N 1.3707(3) 0.3823(3) 0.6230(2)
H2A H 1.3957 0.3553 0.6654
N26A N 1.1441(3) 0.0558(3) 0.4689(2)
H3A H 1.1437 -0.0088 0.4936
C2A C 1.0033(4) 0.3537(3) 0.6113(3)
C3A C 1.1586(4) 0.5122(3) 0.3512(3)
C4A C 0.7818(4) 0.2925(4) 0.7035(3)
C5A C 1.4378(4) 0.2896(3) 0.3359(3)
C6A C 1.6553(4) 0.2146(3) 0.3075(3)
C7A C 1.6161(4) 0.3667(4) 0.1908(3)
C8A C 0.6724(4) 0.3936(4) 0.8483(3)
H4A H 0.6243 0.4097 0.8143
C9A C 0.6339(5) 0.3823(4) 0.9332(3)
H5A H 0.5568 0.3889 0.9680
C10A C 0.7304(5) 0.3597(4) 0.9564(3)
H6A H 0.7325 0.3473 1.0114
C11A C 0.9811(4) 0.1543(3) 0.7582(3)
H7A H 0.9725 0.1370 0.7126
C12A C 1.0231(4) 0.0903(4) 0.8180(3)
H8A H 1.0480 0.0229 0.8215
C13A C 1.0211(4) 0.1449(4) 0.8710(3)
H9A H 1.0453 0.1222 0.9186
C14A C 1.0789(4) 0.5198(3) 0.6802(3)
H10A H 1.0860 0.5529 0.6237
C15A C 1.1411(4) 0.5444(4) 0.7242(3)
H11A H 1.1970 0.5960 0.7046
C16A C 1.1043(4) 0.4784(4) 0.8018(3)
H12A H 1.1309 0.4754 0.8468
C17A C 0.9473(7) 0.3849(6) 1.0035(4)
H13A H 0.8971 0.4410 0.9971
C18A C 0.9997(7) 0.3565(6) 1.0629(4)
H14A H 0.9938 0.3867 1.1056
C19A C 1.0639(7) 0.2722(6) 1.0463(4)
H15A H 1.1125 0.2357 1.0766
C20A C 1.4468(4) 0.0496(4) 0.3881(3)
H16A H 1.4555 0.0695 0.4325
C21A C 1.4020(4) -0.0419(4) 0.3958(4)
H17A H 1.3755 -0.0954 0.4451
C22A C 1.4044(4) -0.0386(4) 0.3171(4)
H18A H 1.3789 -0.0903 0.3023
C23A C 1.3834(4) 0.3481(4) 0.1565(3)
H19A H 1.3806 0.4091 0.1706
C24A C 1.3327(5) 0.3328(5) 0.1028(3)
H20A H 1.2891 0.3799 0.0737
C25A C 1.3578(5) 0.2368(5) 0.0998(4)
H21A H 1.3357 0.2045 0.0670
C26A C 1.7651(4) 0.1751(4) 0.1308(3)
H22A H 1.8160 0.2132 0.1406
C27A C 1.7992(5) 0.1134(4) 0.0785(3)
H23A H 1.8762 0.1007 0.0467
C28A C 1.7000(5) 0.0745(5) 0.0819(4)
H24A H 1.6952 0.0295 0.0520
N27A N 1.5044(8) -0.0477(7) 0.0990(6)
C29A C 1.4330(11) -0.1075(10) 0.0884(7)
H25A H 1.4578 -0.1630 0.0658
C30A C 1.3161(8) -0.0749(7) 0.1160(5)
H26A H 1.2497 -0.1018 0.1136
C31A C 1.3234(4) 0.4904(3) 0.5186(3)
C32A C 1.3132(4) 0.5834(3) 0.4643(3)
H27A H 1.2783 0.5905 0.4228
C33A C 1.3566(4) 0.6648(4) 0.4740(3)
H28A H 1.3516 0.7293 0.4379
C34A C 1.4077(4) 0.6554(4) 0.5353(3)
H29A H 1.4360 0.7136 0.5397
C35A C 1.4179(4) 0.5643(4) 0.5891(3)
H30A H 1.4527 0.5578 0.6306
C36A C 1.3743(4) 0.4818(3) 0.5795(3)
C37A C 1.3211(4) 0.3346(3) 0.5875(3)
C38A C 1.2977(4) 0.2280(3) 0.6076(3)
C39A C 1.3165(4) 0.1491(3) 0.6704(3)
H31A H 1.3497 0.1594 0.7085
C40A C 1.2849(4) 0.0544(3) 0.6756(3)
H32A H 1.2974 -0.0014 0.7177
C41A C 1.2354(4) 0.0393(3) 0.6202(3)
H33A H 1.2135 -0.0258 0.6242
C42A C 1.2188(4) 0.1222(3) 0.5590(3)
C43A C 1.1724(4) 0.1294(3) 0.4930(3)
C44A C 1.1153(4) 0.1016(4) 0.3974(3)
C45A C 1.0809(4) 0.0610(4) 0.3466(3)
H34A H 1.0749 -0.0093 0.3568
C46A C 1.0558(5) 0.1289(4) 0.2804(3)
H35A H 1.0313 0.1047 0.2441
C47A C 1.0656(5) 0.2323(4) 0.2655(3)
H36A H 1.0467 0.2761 0.2195
C48A C 1.1013(4) 0.2725(4) 0.3146(3)
H37A H 1.1088 0.3428 0.3031
C49A C 1.1261(4) 0.2059(3) 0.3821(3)
B1A B 0.9522(5) 0.3321(4) 0.8751(3)
B2A B 1.4791(6) 0.0918(5) 0.1694(4)
O1 O 0.5319(3) 0.7193(3) 0.2632(2)
C50 C 0.5796(12) 0.6865(13) 0.1886(9)
C51 C 0.6791(19) 0.731(2) 0.1286(13)
C52 C 0.7081(15) 0.8277(9) 0.0636(12)
O2 O 0.1667(3) 0.8594(3) 0.5406(3)
O3 O 0.0974(4) 0.8092(4) 0.4349(3)
loop_
_geom_bond_atom_site_label_1
_geom_bond_atom_site_label_2
_geom_bond_site_symmetry_1
_geom_bond_site_symmetry_2
Co1 N1 1_555 1_555
Fe1 N7 1_555 1_555
Fe2 N15 1_555 1_555
N1 C2 1_555 1_555
N2 Co1 1_555 1_555
N3 C4 1_555 1_555
N4 Co1 1_555 1_555
N5 C6 1_555 1_555
N6 C7 1_555 1_555
N7 N10 1_555 1_555
N8 Fe1 1_555 1_555
N9 Fe1 1_555 1_555
N10 C10 1_555 1_555
N11 N8 1_555 1_555
N12 N9 1_555 1_555
N13 N14 1_555 1_555
N14 C19 1_555 1_555
N15 N18 1_555 1_555
N16 Fe2 1_555 1_555
N17 Fe2 1_555 1_555
N18 C22 1_555 1_555
N19 N16 1_555 1_555
N20 N17 1_555 1_555
N21 C1 1_555 1_555
C1 H1 1_555 1_555
N22 Co1 1_555 1_555
N23 Co1 1_555 1_555
N24 Co1 1_555 1_555
N25 H2 1_555 1_555
N26 H3 1_555 1_555
C2 Fe1 1_555 1_555
C3 N2 1_555 1_555
C4 Fe1 1_555 1_555
C5 Fe2 1_555 1_555
C6 Fe2 1_555 1_555
C7 Fe2 1_555 1_555
C8 N7 1_555 1_555
H4 C8 1_555 1_555
C9 C8 1_555 1_555
H5 C9 1_555 1_555
C10 C9 1_555 1_555
H6 C10 1_555 1_555
C11 N8 1_555 1_555
H7 C11 1_555 1_555
C12 C11 1_555 1_555
H8 C12 1_555 1_555
C13 N11 1_555 1_555
H9 C13 1_555 1_555
C14 N9 1_555 1_555
H10 C14 1_555 1_555
C15 C14 1_555 1_555
H11 C15 1_555 1_555
C16 N12 1_555 1_555
H12 C16 1_555 1_555
C17 N13 1_555 1_555
H13 C17 1_555 1_555
C18 C17 1_555 1_555
H14 C18 1_555 1_555
C19 C18 1_555 1_555
H15 C19 1_555 1_555
C20 N15 1_555 1_555
H16 C20 1_555 1_555
C21 C20 1_555 1_555
H17 C21 1_555 1_555
C22 C21 1_555 1_555
H18 C22 1_555 1_555
C23 N16 1_555 1_555
H19 C23 1_555 1_555
C24 C23 1_555 1_555
H20 C24 1_555 1_555
C25 N19 1_555 1_555
H21 C25 1_555 1_555
C26 N17 1_555 1_555
H22 C26 1_555 1_555
C27 C26 1_555 1_555
H23 C27 1_555 1_555
C28 N20 1_555 1_555
H24 C28 1_555 1_555
N27 N21 1_555 1_555
C29 N27 1_555 1_555
H25 C29 1_555 1_555
C30 C1 1_555 1_555
H26 C30 1_555 1_555
C31 N22 1_555 1_555
C32 C31 1_555 1_555
H27 C32 1_555 1_555
C33 C32 1_555 1_555
H28 C33 1_555 1_555
C34 C33 1_555 1_555
H29 C34 1_555 1_555
C35 C34 1_555 1_555
H30 C35 1_555 1_555
C36 N25 1_555 1_555
C37 N22 1_555 1_555
C38 N23 1_555 1_555
C39 C38 1_555 1_555
H31 C39 1_555 1_555
C40 C39 1_555 1_555
H32 C40 1_555 1_555
C41 C40 1_555 1_555
H33 C41 1_555 1_555
C42 N23 1_555 1_555
C43 N24 1_555 1_555
C44 N26 1_555 1_555
C45 C44 1_555 1_555
H34 C45 1_555 1_555
C46 C45 1_555 1_555
H35 C46 1_555 1_555
C47 C46 1_555 1_555
H36 C47 1_555 1_555
C48 C47 1_555 1_555
H37 C48 1_555 1_555
C49 N24 1_555 1_555
B1 N10 1_555 1_555
B2 N18 1_555 1_555
O1 C50 1_555 1_555
C50 C51 1_555 1_555
C51 C52 1_555 1_555
Co1A N1A 1_555 1_555
Fe1A C3 1_555 1_555
Fe2A N15A 1_555 1_555
N1A C2A 1_555 1_555
N2A Co1A 1_555 1_555
N3A C4A 1_555 1_555
N4A Co1A 1_555 1_555
N5A C6A 1_555 1_555
N6A C7A 1_555 1_555
N7A Fe1A 1_555 1_555
N8A Fe1A 1_555 1_555
N9A Fe1A 1_555 1_555
N10A N7A 1_555 1_555
N11A N8A 1_555 1_555
N12A N9A 1_555 1_555
N13A N14A 1_555 1_555
N14A C19A 1_555 1_555
N15A N18A 1_555 1_555
N16A Fe2A 1_555 1_555
N17A Fe2A 1_555 1_555
N18A C22A 1_555 1_555
N19A N16A 1_555 1_555
N20A N17A 1_555 1_555
N21A C1A 1_555 1_555
C1A H1A 1_555 1_555
N22A Co1A 1_555 1_555
N23A Co1A 1_555 1_555
N24A Co1A 1_555 1_555
N25A H2A 1_555 1_555
N26A H3A 1_555 1_555
C2A Fe1A 1_555 1_555
C3A Fe1 1_555 1_555
C4A Fe1A 1_555 1_555
C5A Fe2A 1_555 1_555
C6A Fe2A 1_555 1_555
C7A Fe2A 1_555 1_555
C8A N7A 1_555 1_555
H4A C8A 1_555 1_555
C9A C8A 1_555 1_555
H5A C9A 1_555 1_555
C10A N10A 1_555 1_555
H6A C10A 1_555 1_555
C11A N8A 1_555 1_555
H7A C11A 1_555 1_555
C12A C11A 1_555 1_555
H8A C12A 1_555 1_555
C13A N11A 1_555 1_555
H9A C13A 1_555 1_555
C14A N9A 1_555 1_555
H10A C14A 1_555 1_555
C15A C14A 1_555 1_555
H11A C15A 1_555 1_555
C16A N12A 1_555 1_555
H12A C16A 1_555 1_555
C17A N13A 1_555 1_555
H13A C17A 1_555 1_555
C18A C17A 1_555 1_555
H14A C18A 1_555 1_555
C19A C18A 1_555 1_555
H15A C19A 1_555 1_555
C20A N15A 1_555 1_555
H16A C20A 1_555 1_555
C21A C20A 1_555 1_555
H17A C21A 1_555 1_555
C22A C21A 1_555 1_555
H18A C22A 1_555 1_555
C23A N16A 1_555 1_555
H19A C23A 1_555 1_555
C24A C23A 1_555 1_555
H20A C24A 1_555 1_555
C25A N19A 1_555 1_555
H21A C25A 1_555 1_555
C26A N17A 1_555 1_555
H22A C26A 1_555 1_555
C27A C26A 1_555 1_555
H23A C27A 1_555 1_555
C28A N20A 1_555 1_555
H24A C28A 1_555 1_555
N27A N21A 1_555 1_555
C29A N27A 1_555 1_555
H25A C29A 1_555 1_555
C30A C1A 1_555 1_555
H26A C30A 1_555 1_555
C31A N22A 1_555 1_555
C32A C31A 1_555 1_555
H27A C32A 1_555 1_555
C33A C32A 1_555 1_555
H28A C33A 1_555 1_555
C34A C33A 1_555 1_555
H29A C34A 1_555 1_555
C35A C34A 1_555 1_555
H30A C35A 1_555 1_555
C36A N25A 1_555 1_555
C37A N22A 1_555 1_555
C38A N23A 1_555 1_555
C39A C38A 1_555 1_555
H31A C39A 1_555 1_555
C40A C39A 1_555 1_555
H32A C40A 1_555 1_555
C41A C40A 1_555 1_555
H33A C41A 1_555 1_555
C42A N23A 1_555 1_555
C43A N24A 1_555 1_555
C44A N26A 1_555 1_555
C45A C44A 1_555 1_555
H34A C45A 1_555 1_555
C46A C45A 1_555 1_555
H35A C46A 1_555 1_555
C47A C46A 1_555 1_555
H36A C47A 1_555 1_555
C48A C47A 1_555 1_555
H37A C48A 1_555 1_555
C49A N24A 1_555 1_555
B1A N10A 1_555 1_555
B2A N18A 1_555 1_555
N4 C5 1_555 1_555
N11 B1 1_555 1_555
N12 B1 1_555 1_555
N13 B1 1_555 1_555
N19 B2 1_555 1_555
N20 B2 1_555 1_555
N21 B2 1_555 1_555
N25 C37 1_555 1_555
N26 C43 1_555 1_555
C12 C13 1_555 1_555
C15 C16 1_555 1_555
C24 C25 1_555 1_555
C27 C28 1_555 1_555
C29 C30 1_555 1_555
C31 C36 1_555 1_555
C35 C36 1_555 1_555
C37 C38 1_555 1_555
C41 C42 1_555 1_555
C42 C43 1_555 1_555
C44 C49 1_555 1_555
C48 C49 1_555 1_555
N2A C3A 1_555 1_555
N4A C5A 1_555 1_555
N11A B1A 1_555 1_555
N12A B1A 1_555 1_555
N13A B1A 1_555 1_555
N19A B2A 1_555 1_555
N20A B2A 1_555 1_555
N21A B2A 1_555 1_555
N25A C37A 1_555 1_555
N26A C43A 1_555 1_555
C9A C10A 1_555 1_555
C12A C13A 1_555 1_555
C15A C16A 1_555 1_555
C24A C25A 1_555 1_555
C27A C28A 1_555 1_555
C29A C30A 1_555 1_555
C31A C36A 1_555 1_555
C35A C36A 1_555 1_555
C37A C38A 1_555 1_555
C41A C42A 1_555 1_555
C42A C43A 1_555 1_555
C44A C49A 1_555 1_555
C48A C49A 1_555 1_555

#END
