
#######################################################################
#
#                 Cambridge Crystallographic Data Centre
#                                CCDC 
#
#######################################################################
#
# If this CIF has been generated from an entry in the Cambridge 
# Structural Database, then it will include bibliographic, chemical, 
# crystal, experimental, refinement or atomic coordinate data resulting 
# from the CCDC's data processing and validation procedures.
#
#######################################################################

data_TEFKOG03
_chemical_formula_moiety         'C98 H74 B4 Co2 Fe4 N54,2(C3 H8 O1),4(H2 O1)'
_chemical_name_systematic        
"hexakis(\m~2~-Cyano)-tetrakis(2,2'-pyridine-2,6-diylbis(1H-benzimidazole))-bis(1,1',1'',1'''-\l^5^-boranetetrayltetrakis(1H-pyrazole))-di-cobalt-tetra-iron propanol solvate tetrahydrate"
_symmetry_cell_setting           triclinic
_symmetry_space_group_name_H-M   'P -1'
_symmetry_Int_Tables_number      2
_space_group_name_Hall           '-P 1'
loop_
_symmetry_equiv_pos_site_id
_symmetry_equiv_pos_as_xyz
1 x,y,z
2 -x,-y,-z
_cell_length_a                   12.338(11)
_cell_length_b                   13.959(12)
_cell_length_c                   17.820(16)
_cell_angle_alpha                73.242(12)
_cell_angle_beta                 70.214(11)
_cell_angle_gamma                85.398(13)
_cell_volume                     2764.72
_exptl_crystal_colour            red
_exptl_crystal_description       plate
_cell_formula_units_Z            1
_exptl_crystal_preparation       'irradiated product'
loop_
_atom_site_label
_atom_site_type_symbol
_atom_site_fract_x
_atom_site_fract_y
_atom_site_fract_z
B1 B 0.4576(18) 0.8311(11) 0.8764(9)
B2 B 0.9822(18) 0.5896(14) 0.1665(12)
C1 C 0.2829(13) 0.7875(9) 0.7061(9)
C2 C 0.3429(10) 0.9849(10) 0.6549(9)
C3 C 0.1405(17) 0.8807(11) 0.9383(11)
H1 H 0.0646 0.8869 0.9738
C4 C 0.2348(16) 0.8612(11) 0.9567(9)
H2 H 0.2383 0.8532 1.0106
C5 C 0.4992(11) 0.8479(8) 0.6132(8)
C6 C 0.4854(14) 0.6493(10) 0.7608(9)
H3 H 0.4783 0.6306 0.7154
C7 C 0.5282(13) 0.5899(10) 0.8190(9)
H4 H 0.5551 0.5237 0.8216
C8 C 0.5804(11) 1.0155(9) 0.6822(8)
H5 H 0.5875 1.0465 0.6258
C9 C 0.6419(11) 1.0442(9) 0.7246(9)
H6 H 0.6956 1.0985 0.7035
C10 C 0.6104(12) 0.9796(9) 0.8026(9)
H7 H 0.6389 0.9789 0.8461
C11 C 0.1779(13) 0.8899(9) 0.8550(9)
H8 H 0.1298 0.9067 0.8215
C12 C 0.5253(12) 0.6440(9) 0.8739(8)
H9 H 0.5492 0.6217 0.9214
C13 C 0.8272(10) 0.9898(8) 0.5212(7)
C14 C 0.8158(10) 1.0838(8) 0.4691(8)
H10 H 0.7787 1.0926 0.4288
C15 C 0.8625(12) 1.1629(8) 0.4808(9)
H11 H 0.8610 1.2284 0.4458
C16 C 0.9110(11) 1.1487(10) 0.5421(8)
H12 H 0.9400 1.2060 0.5483
C17 C 0.9200(11) 1.0610(9) 0.5926(8)
H13 H 0.9560 1.0541 0.6332
C18 C 0.8735(11) 0.9776(9) 0.5833(7)
C19 C 0.8201(11) 0.8321(9) 0.5885(8)
C20 C 0.7953(11) 0.7242(8) 0.6061(7)
C21 C 0.8154(11) 0.6477(9) 0.6676(8)
H14 H 0.8503 0.6593 0.7043
C22 C 0.7822(11) 0.5518(9) 0.6739(8)
H15 H 0.7913 0.4963 0.7170
C23 C 0.7352(11) 0.5375(8) 0.6162(8)
H16 H 0.7145 0.4722 0.6190
C24 C 0.7196(11) 0.6177(8) 0.5565(8)
C25 C 0.6745(11) 0.6210(8) 0.4909(7)
C26 C 0.6142(13) 0.5799(11) 0.4010(8)
C27 C 0.5806(16) 0.5372(15) 0.3535(11)
H17 H 0.5765 0.4663 0.3676
C28 C 0.5536(18) 0.5884(16) 0.2897(12)
H18 H 0.5296 0.5562 0.2575
C29 C 0.5613(16) 0.6969(17) 0.2684(10)
H19 H 0.5390 0.7359 0.2229
C30 C 0.6012(14) 0.7463(14) 0.3140(9)
H20 H 0.6099 0.8170 0.2987
C31 C 0.6257(13) 0.6865(11) 0.3799(9)
C32 C 0.9508(12) 0.5511(10) 0.3858(11)
H21 H 0.9637 0.5716 0.4286
C33 C 0.8991(13) 0.4581(8) 0.3974(10)
H22 H 0.8684 0.4062 0.4473
C34 C 0.9049(14) 0.4626(10) 0.3174(11)
H23 H 0.8793 0.4102 0.3029
C35 C 0.8946(15) 0.8396(13) 0.1530(10)
H24 H 0.8917 0.9001 0.1678
C36 C 0.8416(14) 0.8275(12) 0.0991(10)
H25 H 0.7992 0.8746 0.0702
C37 C 0.8655(16) 0.7312(14) 0.0979(10)
H26 H 0.8428 0.6975 0.0662
C38 C 1.2056(15) 0.5671(11) 0.0832(11)
H27 H 1.2021 0.5204 0.0544
C39 C 1.3007(14) 0.6092(11) 0.0803(8)
H28 H 1.3778 0.5989 0.0492
C40 C 1.2640(16) 0.6707(10) 0.1317(9)
H29 H 1.3150 0.7107 0.1404
C41 C 1.1566(14) 0.7153(8) 0.3060(9)
C42 C 1.1260(13) 0.8652(10) 0.1853(9)
C43 C 0.9458(12) 0.7906(8) 0.3283(8)
C44 C 0.5733(19) 0.7639(14) 1.0474(12)
H30 H 0.6178 0.7243 1.0788
C45 C 0.4578(17) 0.8845(12) 1.0010(11)
H31 H 0.4109 0.9416 0.9939
C46 C 0.5084(18) 0.8560(13) 1.0620(11)
H32 H 0.5034 0.8875 1.1037
Co1 Co 0.71786(15) 0.82790(11) 0.46556(11)
Fe1 Fe 0.39508(17) 0.86257(12) 0.71654(12)
Fe2 Fe 1.05220(18) 0.73622(13) 0.24527(12)
N1 N 0.5608(9) 0.8374(6) 0.5519(6)
N2 N 0.3162(10) 1.0582(7) 0.6147(7)
N3 N 0.8750(10) 0.8157(6) 0.3786(6)
N4 N 0.2904(10) 0.8724(7) 0.8265(7)
N5 N 0.3268(11) 0.8537(7) 0.8915(7)
N6 N 0.5107(10) 0.9391(7) 0.7310(6)
N7 N 0.5284(10) 0.9153(7) 0.8054(6)
N8 N 0.4534(9) 0.7417(6) 0.7768(6)
N9 N 0.4823(10) 0.7338(7) 0.8470(7)
N10 N 0.7907(9) 0.8939(7) 0.5262(6)
N11 N 0.8683(9) 0.8779(7) 0.6260(6)
H33 H 0.8918 0.8502 0.6687
N12 N 0.6624(9) 0.7065(7) 0.4393(6)
N13 N 0.6445(9) 0.5444(8) 0.4689(7)
H34 H 0.6449 0.4807 0.4955
N14 N 0.9495(11) 0.7604(8) 0.1820(7)
N15 N 0.9246(11) 0.6926(9) 0.1472(8)
N16 N 1.1553(11) 0.6692(7) 0.1666(7)
N17 N 1.1134(11) 0.6040(8) 0.1359(8)
N18 N 0.9789(11) 0.6060(7) 0.3063(7)
N19 N 0.9506(11) 0.5487(8) 0.2636(8)
N20 N 1.2228(12) 0.7005(7) 0.3441(8)
N21 N 1.1739(13) 0.9418(9) 0.1447(8)
N22 N 0.2097(12) 0.7460(8) 0.7014(8)
N23 N 0.4828(14) 0.8213(10) 0.9521(8)
N24 N 0.5557(16) 0.7478(12) 0.9789(10)
N25 N 0.7497(9) 0.7100(6) 0.5520(6)
N26 N 0.9341(16) 0.5206(12) 0.1333(11)
N27 N 1.0051(18) 0.4594(16) 0.0891(14)
C48 C 0.8220(16) 0.4953(17) 0.1486(14)
H36 H 0.7566 0.5214 0.1828
C49 C 0.8173(19) 0.4274(14) 0.1079(12)
H37 H 0.7525 0.4088 0.0976
C50 C 0.938(2) 0.388(2) 0.0830(17)
H38 H 0.9631 0.3289 0.0669
B1A B 0.5424(18) 1.1689(11) 0.1236(9)
B2A B 0.0178(18) 1.4104(14) 0.8335(12)
C1A C 0.7171(13) 1.2125(9) 0.2939(9)
C2A C 0.6571(10) 1.0151(10) 0.3451(9)
C3A C 0.8595(17) 1.1193(11) 0.0617(11)
H1A H 0.9354 1.1131 0.0262
C4A C 0.7652(16) 1.1388(11) 0.0433(9)
H2A H 0.7617 1.1468 -0.0106
C5A C 0.5008(11) 1.1521(8) 0.3868(8)
C6A C 0.5146(14) 1.3507(10) 0.2392(9)
H3A H 0.5217 1.3694 0.2846
C7A C 0.4718(13) 1.4101(10) 0.1810(9)
H4A H 0.4449 1.4763 0.1784
C8A C 0.4196(11) 0.9845(9) 0.3178(8)
H5A H 0.4125 0.9535 0.3742
C9A C 0.3581(11) 0.9558(9) 0.2754(9)
H6A H 0.3044 0.9015 0.2965
C10A C 0.3896(12) 1.0204(9) 0.1974(9)
H7A H 0.3611 1.0211 0.1539
C11A C 0.8221(13) 1.1101(9) 0.1450(9)
H8A H 0.8702 1.0933 0.1785
C12A C 0.4747(12) 1.3560(9) 0.1261(8)
H9A H 0.4508 1.3783 0.0786
C13A C 0.1728(10) 1.0102(8) 0.4788(7)
C14A C 0.1842(10) 0.9162(8) 0.5309(8)
H10A H 0.2213 0.9074 0.5712
C15A C 0.1375(12) 0.8371(8) 0.5192(9)
H11A H 0.1390 0.7716 0.5542
C16A C 0.0890(11) 0.8513(10) 0.4579(8)
H12A H 0.0600 0.7940 0.4517
C17A C 0.0800(11) 0.9390(9) 0.4074(8)
H13A H 0.0440 0.9459 0.3668
C18A C 0.1265(11) 1.0224(9) 0.4167(7)
C19A C 0.1799(11) 1.1679(9) 0.4115(8)
C20A C 0.2047(11) 1.2758(8) 0.3939(7)
C21A C 0.1846(11) 1.3523(9) 0.3324(8)
H14A H 0.1497 1.3407 0.2957
C22A C 0.2178(11) 1.4482(9) 0.3261(8)
H15A H 0.2087 1.5037 0.2830
C23A C 0.2648(11) 1.4625(8) 0.3838(8)
H16A H 0.2855 1.5278 0.3810
C24A C 0.2804(11) 1.3823(8) 0.4435(8)
C25A C 0.3255(11) 1.3790(8) 0.5091(7)
C26A C 0.3858(13) 1.4201(11) 0.5990(8)
C27A C 0.4194(16) 1.4628(15) 0.6465(11)
H17A H 0.4235 1.5337 0.6324
C28A C 0.4464(18) 1.4116(16) 0.7103(12)
H18A H 0.4704 1.4438 0.7425
C29A C 0.4387(16) 1.3031(17) 0.7316(10)
H19A H 0.4610 1.2641 0.7771
C30A C 0.3988(14) 1.2537(14) 0.6860(9)
H20A H 0.3901 1.1830 0.7013
C31A C 0.3743(13) 1.3135(11) 0.6201(9)
C32A C 0.0492(12) 1.4489(10) 0.6142(11)
H21A H 0.0363 1.4284 0.5714
C33A C 0.1009(13) 1.5419(8) 0.6026(10)
H22A H 0.1316 1.5938 0.5527
C34A C 0.0951(14) 1.5374(10) 0.6826(11)
H23A H 0.1207 1.5898 0.6971
C35A C 0.1054(15) 1.1604(13) 0.8470(10)
H24A H 0.1083 1.0999 0.8322
C36A C 0.1584(14) 1.1725(12) 0.9009(10)
H25A H 0.2008 1.1254 0.9298
C37A C 0.1345(16) 1.2688(14) 0.9021(10)
H26A H 0.1572 1.3025 0.9338
C38A C -0.2056(15) 1.4329(11) 0.9168(11)
H27A H -0.2021 1.4796 0.9456
C39A C -0.3007(14) 1.3908(11) 0.9197(8)
H28A H -0.3778 1.4011 0.9508
C40A C -0.2640(16) 1.3293(10) 0.8683(9)
H29A H -0.3150 1.2893 0.8596
C41A C -0.1566(14) 1.2847(8) 0.6940(9)
C42A C -0.1260(13) 1.1348(10) 0.8147(9)
C43A C 0.0542(12) 1.2094(8) 0.6717(8)
C44A C 0.4267(19) 1.2361(14) -0.0474(12)
H30A H 0.3822 1.2757 -0.0788
C45A C 0.5422(17) 1.1155(12) -0.0010(11)
H31A H 0.5891 1.0584 0.0061
C46A C 0.4916(18) 1.1440(13) -0.0620(11)
H32A H 0.4966 1.1125 -0.1037
Co1A Co 0.28214(15) 1.17210(11) 0.53444(11)
Fe1A Fe 0.60492(17) 1.13743(12) 0.28346(12)
Fe2A Fe -0.05220(18) 1.26378(13) 0.75473(12)
N1A N 0.4392(9) 1.1626(6) 0.4481(6)
N2A N 0.6838(10) 0.9418(7) 0.3853(7)
N3A N 0.1250(10) 1.1843(6) 0.6214(6)
N4A N 0.7096(10) 1.1276(7) 0.1735(7)
N5A N 0.6732(11) 1.1463(7) 0.1085(7)
N6A N 0.4893(10) 1.0609(7) 0.2690(6)
N7A N 0.4716(10) 1.0847(7) 0.1946(6)
N8A N 0.5466(9) 1.2583(6) 0.2232(6)
N9A N 0.5177(10) 1.2662(7) 0.1530(7)
N10A N 0.2093(9) 1.1061(7) 0.4738(6)
N11A N 0.1317(9) 1.1221(7) 0.3740(6)
H33A H 0.1082 1.1498 0.3313
N12A N 0.3376(9) 1.2935(7) 0.5607(6)
N13A N 0.3555(9) 1.4556(8) 0.5311(7)
H34A H 0.3551 1.5193 0.5045
N14A N 0.0505(11) 1.2396(8) 0.8180(7)
N15A N 0.0754(11) 1.3074(9) 0.8528(8)
N16A N -0.1553(11) 1.3308(7) 0.8334(7)
N17A N -0.1134(11) 1.3960(8) 0.8641(8)
N18A N 0.0211(11) 1.3940(7) 0.6937(7)
N19A N 0.0494(11) 1.4513(8) 0.7364(8)
N20A N -0.2228(12) 1.2995(7) 0.6559(8)
N21A N -0.1739(13) 1.0582(9) 0.8553(8)
N22A N 0.7903(12) 1.2540(8) 0.2986(8)
N23A N 0.5172(14) 1.1787(10) 0.0479(8)
N24A N 0.4443(16) 1.2522(12) 0.0211(10)
N25A N 0.2503(9) 1.2900(6) 0.4480(6)
N26A N 0.0659(16) 1.4794(12) 0.8667(11)
N27A N -0.0051(18) 1.5406(16) 0.9109(14)
C48A C 0.1780(16) 1.5047(17) 0.8514(14)
H36A H 0.2434 1.4786 0.8172
C49A C 0.1827(19) 1.5726(14) 0.8921(12)
H37A H 0.2475 1.5912 0.9024
C50A C 0.062(2) 1.612(2) 0.9170(17)
H38A H 0.0369 1.6711 0.9331
O1 O 0.9661(10) 0.7769(8) 0.7390(6)
H35 H 1.0383 0.7826 0.7211
C47 C 0.914(4) 0.823(3) 0.819(2)
C51 C 0.830(3) 0.828(2) 0.8928(18)
C52 C 0.790(8) 0.728(4) 0.928(5)
O2 O 0.6624(9) 0.3413(6) 0.5415(6)
O3 O 0.567(5) 0.317(5) 0.441(3)
C53? C 0.809(4) 0.772(4) 0.855(4)
C54? C 0.836(6) 0.681(3) 0.902(4)
loop_
_geom_bond_atom_site_label_1
_geom_bond_atom_site_label_2
_geom_bond_site_symmetry_1
_geom_bond_site_symmetry_2
B1 N5 1_555 1_555
B2 N15 1_555 1_555
C1 Fe1 1_555 1_555
C2 Fe1 1_555 1_555
C3 H1 1_555 1_555
C4 C3 1_555 1_555
H2 C4 1_555 1_555
C5 Fe1 1_555 1_555
C6 H3 1_555 1_555
C7 C6 1_555 1_555
H4 C7 1_555 1_555
C8 H5 1_555 1_555
C9 C8 1_555 1_555
H6 C9 1_555 1_555
C10 C9 1_555 1_555
H7 C10 1_555 1_555
C11 C3 1_555 1_555
H8 C11 1_555 1_555
C12 C7 1_555 1_555
H9 C12 1_555 1_555
C13 C14 1_555 1_555
C14 H10 1_555 1_555
C15 C14 1_555 1_555
H11 C15 1_555 1_555
C16 C15 1_555 1_555
H12 C16 1_555 1_555
C17 C16 1_555 1_555
H13 C17 1_555 1_555
C18 C13 1_555 1_555
C19 C20 1_555 1_555
C20 C21 1_555 1_555
C21 H14 1_555 1_555
C22 C21 1_555 1_555
H15 C22 1_555 1_555
C23 C22 1_555 1_555
H16 C23 1_555 1_555
C24 C23 1_555 1_555
C25 C24 1_555 1_555
C26 C27 1_555 1_555
C27 H17 1_555 1_555
C28 C27 1_555 1_555
H18 C28 1_555 1_555
C29 C28 1_555 1_555
H19 C29 1_555 1_555
C30 C29 1_555 1_555
H20 C30 1_555 1_555
C31 C26 1_555 1_555
C32 H21 1_555 1_555
C33 C32 1_555 1_555
H22 C33 1_555 1_555
C34 C33 1_555 1_555
H23 C34 1_555 1_555
C35 H24 1_555 1_555
C36 C35 1_555 1_555
H25 C36 1_555 1_555
C37 C36 1_555 1_555
H26 C37 1_555 1_555
C38 H27 1_555 1_555
C39 C38 1_555 1_555
H28 C39 1_555 1_555
C40 C39 1_555 1_555
H29 C40 1_555 1_555
C41 Fe2 1_555 1_555
C42 Fe2 1_555 1_555
C43 Fe2 1_555 1_555
C44 H30 1_555 1_555
C45 H31 1_555 1_555
C46 C44 1_555 1_555
H32 C46 1_555 1_555
Co1 N1 1_555 1_555
Fe1 N4 1_555 1_555
Fe2 N14 1_555 1_555
N1 C5 1_555 1_555
N2 C2 1_555 1_555
N3 C43 1_555 1_555
N4 C11 1_555 1_555
N5 C4 1_555 1_555
N6 C8 1_555 1_555
N7 B1 1_555 1_555
N8 C6 1_555 1_555
N9 B1 1_555 1_555
N10 C13 1_555 1_555
N11 C18 1_555 1_555
H33 N11 1_555 1_555
N12 C25 1_555 1_555
N13 C25 1_555 1_555
H34 N13 1_555 1_555
N14 C35 1_555 1_555
N15 C37 1_555 1_555
N16 C40 1_555 1_555
N17 B2 1_555 1_555
N18 C32 1_555 1_555
N19 B2 1_555 1_555
N20 C41 1_555 1_555
N21 C42 1_555 1_555
N22 C1 1_555 1_555
N23 B1 1_555 1_555
N24 C44 1_555 1_555
N25 C20 1_555 1_555
O1 H35 1_555 1_555
C47 O1 1_555 1_555
N26 B2 1_555 1_555
N27 N26 1_555 1_555
C48 N26 1_555 1_555
H36 C48 1_555 1_555
C49 C48 1_555 1_555
H37 C49 1_555 1_555
C50 N27 1_555 1_555
H38 C50 1_555 1_555
C51 C47 1_555 1_555
C52 C51 1_555 1_555
B1A N5A 1_555 1_555
B2A N15A 1_555 1_555
C1A Fe1A 1_555 1_555
C2A Fe1A 1_555 1_555
C3A H1A 1_555 1_555
C4A C3A 1_555 1_555
H2A C4A 1_555 1_555
C5A Fe1A 1_555 1_555
C6A H3A 1_555 1_555
C7A C6A 1_555 1_555
H4A C7A 1_555 1_555
C8A H5A 1_555 1_555
C9A C8A 1_555 1_555
H6A C9A 1_555 1_555
C10A C9A 1_555 1_555
H7A C10A 1_555 1_555
C11A C3A 1_555 1_555
H8A C11A 1_555 1_555
C12A C7A 1_555 1_555
H9A C12A 1_555 1_555
C13A C14A 1_555 1_555
C14A H10A 1_555 1_555
C15A C14A 1_555 1_555
H11A C15A 1_555 1_555
C16A C15A 1_555 1_555
H12A C16A 1_555 1_555
C17A C16A 1_555 1_555
H13A C17A 1_555 1_555
C18A C13A 1_555 1_555
C19A C20A 1_555 1_555
C20A C21A 1_555 1_555
C21A H14A 1_555 1_555
C22A C21A 1_555 1_555
H15A C22A 1_555 1_555
C23A C22A 1_555 1_555
H16A C23A 1_555 1_555
C24A C23A 1_555 1_555
C25A C24A 1_555 1_555
C26A C27A 1_555 1_555
C27A H17A 1_555 1_555
C28A C27A 1_555 1_555
H18A C28A 1_555 1_555
C29A C28A 1_555 1_555
H19A C29A 1_555 1_555
C30A C29A 1_555 1_555
H20A C30A 1_555 1_555
C31A C26A 1_555 1_555
C32A H21A 1_555 1_555
C33A C32A 1_555 1_555
H22A C33A 1_555 1_555
C34A C33A 1_555 1_555
H23A C34A 1_555 1_555
C35A H24A 1_555 1_555
C36A C35A 1_555 1_555
H25A C36A 1_555 1_555
C37A C36A 1_555 1_555
H26A C37A 1_555 1_555
C38A H27A 1_555 1_555
C39A C38A 1_555 1_555
H28A C39A 1_555 1_555
C40A C39A 1_555 1_555
H29A C40A 1_555 1_555
C41A Fe2A 1_555 1_555
C42A Fe2A 1_555 1_555
C43A Fe2A 1_555 1_555
C44A H30A 1_555 1_555
C45A H31A 1_555 1_555
C46A C44A 1_555 1_555
H32A C46A 1_555 1_555
Co1A N2 1_555 1_555
Fe1A N4A 1_555 1_555
Fe2A N14A 1_555 1_555
N1A C5A 1_555 1_555
N2A Co1 1_555 1_555
N3A C43A 1_555 1_555
N4A C11A 1_555 1_555
N5A C4A 1_555 1_555
N6A C8A 1_555 1_555
N7A B1A 1_555 1_555
N8A C6A 1_555 1_555
N9A B1A 1_555 1_555
N10A C13A 1_555 1_555
N11A C18A 1_555 1_555
H33A N11A 1_555 1_555
N12A C25A 1_555 1_555
N13A C25A 1_555 1_555
H34A N13A 1_555 1_555
N14A C35A 1_555 1_555
N15A C37A 1_555 1_555
N16A C40A 1_555 1_555
N17A B2A 1_555 1_555
N18A C32A 1_555 1_555
N19A B2A 1_555 1_555
N20A C41A 1_555 1_555
N21A C42A 1_555 1_555
N22A C1A 1_555 1_555
N23A B1A 1_555 1_555
N24A C44A 1_555 1_555
N25A C20A 1_555 1_555
N26A B2A 1_555 1_555
N27A N26A 1_555 1_555
C48A N26A 1_555 1_555
H36A C48A 1_555 1_555
C49A C48A 1_555 1_555
H37A C49A 1_555 1_555
C50A N27A 1_555 1_555
H38A C50A 1_555 1_555
C10 N7 1_555 1_555
C12 N9 1_555 1_555
C17 C18 1_555 1_555
C19 N10 1_555 1_555
C19 N11 1_555 1_555
C24 N25 1_555 1_555
C26 N13 1_555 1_555
C30 C31 1_555 1_555
C31 N12 1_555 1_555
C34 N19 1_555 1_555
C38 N17 1_555 1_555
C45 C46 1_555 1_555
C45 N23 1_555 1_555
Co1 N3 1_555 1_555
Co1 N10 1_555 1_555
Co1 N12 1_555 1_555
Co1 N25 1_555 1_555
Fe1 N6 1_555 1_555
Fe1 N8 1_555 1_555
Fe2 N16 1_555 1_555
Fe2 N18 1_555 1_555
N4 N5 1_555 1_555
N6 N7 1_555 1_555
N8 N9 1_555 1_555
N14 N15 1_555 1_555
N16 N17 1_555 1_555
N18 N19 1_555 1_555
N23 N24 1_555 1_555
C49 C50 1_555 1_555
C2A N2A 1_555 1_555
C10A N7A 1_555 1_555
C12A N9A 1_555 1_555
C17A C18A 1_555 1_555
C19A N10A 1_555 1_555
C19A N11A 1_555 1_555
C24A N25A 1_555 1_555
C26A N13A 1_555 1_555
C30A C31A 1_555 1_555
C31A N12A 1_555 1_555
C34A N19A 1_555 1_555
C38A N17A 1_555 1_555
C45A C46A 1_555 1_555
C45A N23A 1_555 1_555
Co1A N1A 1_555 1_555
Co1A N3A 1_555 1_555
Co1A N10A 1_555 1_555
Co1A N12A 1_555 1_555
Co1A N25A 1_555 1_555
Fe1A N6A 1_555 1_555
Fe1A N8A 1_555 1_555
Fe2A N16A 1_555 1_555
Fe2A N18A 1_555 1_555
N4A N5A 1_555 1_555
N6A N7A 1_555 1_555
N8A N9A 1_555 1_555
N14A N15A 1_555 1_555
N16A N17A 1_555 1_555
N18A N19A 1_555 1_555
N23A N24A 1_555 1_555
C49A C50A 1_555 1_555

#END
