# generated using pymatgen
data_Fe4H120C148S12(N12O19)3
_symmetry_space_group_name_H-M   'P 1'
_cell_length_a   34.64000000
_cell_length_b   34.64000000
_cell_length_c   34.64000000
_cell_angle_alpha   90.00000000
_cell_angle_beta   90.00000000
_cell_angle_gamma   90.00000000
_symmetry_Int_Tables_number   1
_chemical_formula_structural   Fe4H120C148S12(N12O19)3
_chemical_formula_sum   'Fe32 H960 C1184 S96 N288 O456'
_cell_volume   41565.56134400
_cell_formula_units_Z   8
loop_
 _symmetry_equiv_pos_site_id
 _symmetry_equiv_pos_as_xyz
  1  'x, y, z'
loop_
 _atom_site_type_symbol
 _atom_site_label
 _atom_site_symmetry_multiplicity
 _atom_site_fract_x
 _atom_site_fract_y
 _atom_site_fract_z
 _atom_site_occupancy
  Fe  Fe1  1  0.760840  0.739160  0.260840  1
  Fe  Fe2  1  0.739160  0.260840  0.760840  1
  Fe  Fe3  1  0.239160  0.239160  0.239160  1
  Fe  Fe4  1  0.260840  0.760840  0.739160  1
  Fe  Fe5  1  0.239160  0.260840  0.739160  1
  Fe  Fe6  1  0.260840  0.739160  0.239160  1
  Fe  Fe7  1  0.760840  0.760840  0.760840  1
  Fe  Fe8  1  0.739160  0.239160  0.260840  1
  Fe  Fe9  1  0.758400  0.024950  0.023830  1.0
  Fe  Fe10  1  0.741600  0.975050  0.523830  1.0
  Fe  Fe11  1  0.241600  0.524950  0.476170  1.0
  Fe  Fe12  1  0.258400  0.475050  0.976170  1.0
  Fe  Fe13  1  0.023830  0.758400  0.024950  1.0
  Fe  Fe14  1  0.523830  0.741600  0.975050  1.0
  Fe  Fe15  1  0.476170  0.241600  0.524950  1.0
  Fe  Fe16  1  0.976170  0.258400  0.475050  1.0
  Fe  Fe17  1  0.024950  0.023830  0.758400  1.0
  Fe  Fe18  1  0.975050  0.523830  0.741600  1.0
  Fe  Fe19  1  0.524950  0.476170  0.241600  1.0
  Fe  Fe20  1  0.475050  0.976170  0.258400  1.0
  Fe  Fe21  1  0.241600  0.975050  0.976170  1.0
  Fe  Fe22  1  0.258400  0.024950  0.476170  1.0
  Fe  Fe23  1  0.758400  0.475050  0.523830  1.0
  Fe  Fe24  1  0.741600  0.524950  0.023830  1.0
  Fe  Fe25  1  0.976170  0.241600  0.975050  1.0
  Fe  Fe26  1  0.476170  0.258400  0.024950  1.0
  Fe  Fe27  1  0.523830  0.758400  0.475050  1.0
  Fe  Fe28  1  0.023830  0.741600  0.524950  1.0
  Fe  Fe29  1  0.975050  0.976170  0.241600  1.0
  Fe  Fe30  1  0.024950  0.476170  0.258400  1.0
  Fe  Fe31  1  0.475050  0.523830  0.758400  1.0
  Fe  Fe32  1  0.524950  0.023830  0.741600  1.0
  H  H33  1  0.692300  0.755300  0.920300  1
  H  H34  1  0.807700  0.244700  0.420300  1
  H  H35  1  0.307700  0.255300  0.579700  1
  H  H36  1  0.192300  0.744700  0.079700  1
  H  H37  1  0.920300  0.692300  0.755300  1
  H  H38  1  0.420300  0.807700  0.244700  1
  H  H39  1  0.579700  0.307700  0.255300  1
  H  H40  1  0.079700  0.192300  0.744700  1
  H  H41  1  0.755300  0.920300  0.692300  1
  H  H42  1  0.244700  0.420300  0.807700  1
  H  H43  1  0.255300  0.579700  0.307700  1
  H  H44  1  0.744700  0.079700  0.192300  1
  H  H45  1  0.307700  0.244700  0.079700  1
  H  H46  1  0.192300  0.755300  0.579700  1
  H  H47  1  0.692300  0.744700  0.420300  1
  H  H48  1  0.807700  0.255300  0.920300  1
  H  H49  1  0.079700  0.307700  0.244700  1
  H  H50  1  0.579700  0.192300  0.755300  1
  H  H51  1  0.420300  0.692300  0.744700  1
  H  H52  1  0.920300  0.807700  0.255300  1
  H  H53  1  0.244700  0.079700  0.307700  1
  H  H54  1  0.755300  0.579700  0.192300  1
  H  H55  1  0.744700  0.420300  0.692300  1
  H  H56  1  0.255300  0.920300  0.807700  1
  H  H57  1  0.688600  0.799100  0.918800  1
  H  H58  1  0.811400  0.200900  0.418800  1
  H  H59  1  0.311400  0.299100  0.581200  1
  H  H60  1  0.188600  0.700900  0.081200  1
  H  H61  1  0.918800  0.688600  0.799100  1
  H  H62  1  0.418800  0.811400  0.200900  1
  H  H63  1  0.581200  0.311400  0.299100  1
  H  H64  1  0.081200  0.188600  0.700900  1
  H  H65  1  0.799100  0.918800  0.688600  1
  H  H66  1  0.200900  0.418800  0.811400  1
  H  H67  1  0.299100  0.581200  0.311400  1
  H  H68  1  0.700900  0.081200  0.188600  1
  H  H69  1  0.311400  0.200900  0.081200  1
  H  H70  1  0.188600  0.799100  0.581200  1
  H  H71  1  0.688600  0.700900  0.418800  1
  H  H72  1  0.811400  0.299100  0.918800  1
  H  H73  1  0.081200  0.311400  0.200900  1
  H  H74  1  0.581200  0.188600  0.799100  1
  H  H75  1  0.418800  0.688600  0.700900  1
  H  H76  1  0.918800  0.811400  0.299100  1
  H  H77  1  0.200900  0.081200  0.311400  1
  H  H78  1  0.799100  0.581200  0.188600  1
  H  H79  1  0.700900  0.418800  0.688600  1
  H  H80  1  0.299100  0.918800  0.811400  1
  H  H81  1  0.628700  0.735700  0.849900  1
  H  H82  1  0.871300  0.264300  0.349900  1
  H  H83  1  0.371300  0.235700  0.650100  1
  H  H84  1  0.128700  0.764300  0.150100  1
  H  H85  1  0.849900  0.628700  0.735700  1
  H  H86  1  0.349900  0.871300  0.264300  1
  H  H87  1  0.650100  0.371300  0.235700  1
  H  H88  1  0.150100  0.128700  0.764300  1
  H  H89  1  0.735700  0.849900  0.628700  1
  H  H90  1  0.264300  0.349900  0.871300  1
  H  H91  1  0.235700  0.650100  0.371300  1
  H  H92  1  0.764300  0.150100  0.128700  1
  H  H93  1  0.371300  0.264300  0.150100  1
  H  H94  1  0.128700  0.735700  0.650100  1
  H  H95  1  0.628700  0.764300  0.349900  1
  H  H96  1  0.871300  0.235700  0.849900  1
  H  H97  1  0.150100  0.371300  0.264300  1
  H  H98  1  0.650100  0.128700  0.735700  1
  H  H99  1  0.349900  0.628700  0.764300  1
  H  H100  1  0.849900  0.871300  0.235700  1
  H  H101  1  0.264300  0.150100  0.371300  1
  H  H102  1  0.735700  0.650100  0.128700  1
  H  H103  1  0.764300  0.349900  0.628700  1
  H  H104  1  0.235700  0.849900  0.871300  1
  H  H105  1  0.655600  0.717000  0.879200  1
  H  H106  1  0.844400  0.283000  0.379200  1
  H  H107  1  0.344400  0.217000  0.620800  1
  H  H108  1  0.155600  0.783000  0.120800  1
  H  H109  1  0.879200  0.655600  0.717000  1
  H  H110  1  0.379200  0.844400  0.283000  1
  H  H111  1  0.620800  0.344400  0.217000  1
  H  H112  1  0.120800  0.155600  0.783000  1
  H  H113  1  0.717000  0.879200  0.655600  1
  H  H114  1  0.283000  0.379200  0.844400  1
  H  H115  1  0.217000  0.620800  0.344400  1
  H  H116  1  0.783000  0.120800  0.155600  1
  H  H117  1  0.344400  0.283000  0.120800  1
  H  H118  1  0.155600  0.717000  0.620800  1
  H  H119  1  0.655600  0.783000  0.379200  1
  H  H120  1  0.844400  0.217000  0.879200  1
  H  H121  1  0.120800  0.344400  0.283000  1
  H  H122  1  0.620800  0.155600  0.717000  1
  H  H123  1  0.379200  0.655600  0.783000  1
  H  H124  1  0.879200  0.844400  0.217000  1
  H  H125  1  0.283000  0.120800  0.344400  1
  H  H126  1  0.717000  0.620800  0.155600  1
  H  H127  1  0.783000  0.379200  0.655600  1
  H  H128  1  0.217000  0.879200  0.844400  1
  H  H129  1  0.623300  0.802400  0.846900  1
  H  H130  1  0.876700  0.197600  0.346900  1
  H  H131  1  0.376700  0.302400  0.653100  1
  H  H132  1  0.123300  0.697600  0.153100  1
  H  H133  1  0.846900  0.623300  0.802400  1
  H  H134  1  0.346900  0.876700  0.197600  1
  H  H135  1  0.653100  0.376700  0.302400  1
  H  H136  1  0.153100  0.123300  0.697600  1
  H  H137  1  0.802400  0.846900  0.623300  1
  H  H138  1  0.197600  0.346900  0.876700  1
  H  H139  1  0.302400  0.653100  0.376700  1
  H  H140  1  0.697600  0.153100  0.123300  1
  H  H141  1  0.376700  0.197600  0.153100  1
  H  H142  1  0.123300  0.802400  0.653100  1
  H  H143  1  0.623300  0.697600  0.346900  1
  H  H144  1  0.876700  0.302400  0.846900  1
  H  H145  1  0.153100  0.376700  0.197600  1
  H  H146  1  0.653100  0.123300  0.802400  1
  H  H147  1  0.346900  0.623300  0.697600  1
  H  H148  1  0.846900  0.876700  0.302400  1
  H  H149  1  0.197600  0.153100  0.376700  1
  H  H150  1  0.802400  0.653100  0.123300  1
  H  H151  1  0.697600  0.346900  0.623300  1
  H  H152  1  0.302400  0.846900  0.876700  1
  H  H153  1  0.646800  0.827600  0.874300  1
  H  H154  1  0.853200  0.172400  0.374300  1
  H  H155  1  0.353200  0.327600  0.625700  1
  H  H156  1  0.146800  0.672400  0.125700  1
  H  H157  1  0.874300  0.646800  0.827600  1
  H  H158  1  0.374300  0.853200  0.172400  1
  H  H159  1  0.625700  0.353200  0.327600  1
  H  H160  1  0.125700  0.146800  0.672400  1
  H  H161  1  0.827600  0.874300  0.646800  1
  H  H162  1  0.172400  0.374300  0.853200  1
  H  H163  1  0.327600  0.625700  0.353200  1
  H  H164  1  0.672400  0.125700  0.146800  1
  H  H165  1  0.353200  0.172400  0.125700  1
  H  H166  1  0.146800  0.827600  0.625700  1
  H  H167  1  0.646800  0.672400  0.374300  1
  H  H168  1  0.853200  0.327600  0.874300  1
  H  H169  1  0.125700  0.353200  0.172400  1
  H  H170  1  0.625700  0.146800  0.827600  1
  H  H171  1  0.374300  0.646800  0.672400  1
  H  H172  1  0.874300  0.853200  0.327600  1
  H  H173  1  0.172400  0.125700  0.353200  1
  H  H174  1  0.827600  0.625700  0.146800  1
  H  H175  1  0.672400  0.374300  0.646800  1
  H  H176  1  0.327600  0.874300  0.853200  1
  H  H177  1  0.570900  0.982700  0.991300  1.0
  H  H178  1  0.929100  0.017300  0.491300  1.0
  H  H179  1  0.429100  0.482700  0.508700  1.0
  H  H180  1  0.070900  0.517300  0.008700  1.0
  H  H181  1  0.991300  0.570900  0.982700  1.0
  H  H182  1  0.491300  0.929100  0.017300  1.0
  H  H183  1  0.508700  0.429100  0.482700  1.0
  H  H184  1  0.008700  0.070900  0.517300  1.0
  H  H185  1  0.982700  0.991300  0.570900  1.0
  H  H186  1  0.017300  0.491300  0.929100  1.0
  H  H187  1  0.482700  0.508700  0.429100  1.0
  H  H188  1  0.517300  0.008700  0.070900  1.0
  H  H189  1  0.429100  0.017300  0.008700  1.0
  H  H190  1  0.070900  0.982700  0.508700  1.0
  H  H191  1  0.570900  0.517300  0.491300  1.0
  H  H192  1  0.929100  0.482700  0.991300  1.0
  H  H193  1  0.008700  0.429100  0.017300  1.0
  H  H194  1  0.508700  0.070900  0.982700  1.0
  H  H195  1  0.491300  0.570900  0.517300  1.0
  H  H196  1  0.991300  0.929100  0.482700  1.0
  H  H197  1  0.017300  0.008700  0.429100  1.0
  H  H198  1  0.982700  0.508700  0.070900  1.0
  H  H199  1  0.517300  0.491300  0.570900  1.0
  H  H200  1  0.482700  0.991300  0.929100  1.0
  H  H201  1  0.570900  0.010300  0.025600  1.0
  H  H202  1  0.929100  0.989700  0.525600  1.0
  H  H203  1  0.429100  0.510300  0.474400  1.0
  H  H204  1  0.070900  0.489700  0.974400  1.0
  H  H205  1  0.025600  0.570900  0.010300  1.0
  H  H206  1  0.525600  0.929100  0.989700  1.0
  H  H207  1  0.474400  0.429100  0.510300  1.0
  H  H208  1  0.974400  0.070900  0.489700  1.0
  H  H209  1  0.010300  0.025600  0.570900  1.0
  H  H210  1  0.989700  0.525600  0.929100  1.0
  H  H211  1  0.510300  0.474400  0.429100  1.0
  H  H212  1  0.489700  0.974400  0.070900  1.0
  H  H213  1  0.429100  0.989700  0.974400  1.0
  H  H214  1  0.070900  0.010300  0.474400  1.0
  H  H215  1  0.570900  0.489700  0.525600  1.0
  H  H216  1  0.929100  0.510300  0.025600  1.0
  H  H217  1  0.974400  0.429100  0.989700  1.0
  H  H218  1  0.474400  0.070900  0.010300  1.0
  H  H219  1  0.525600  0.570900  0.489700  1.0
  H  H220  1  0.025600  0.929100  0.510300  1.0
  H  H221  1  0.989700  0.974400  0.429100  1.0
  H  H222  1  0.010300  0.474400  0.070900  1.0
  H  H223  1  0.489700  0.525600  0.570900  1.0
  H  H224  1  0.510300  0.025600  0.929100  1.0
  H  H225  1  0.763400  0.065700  0.943900  1.0
  H  H226  1  0.736600  0.934300  0.443900  1.0
  H  H227  1  0.236600  0.565700  0.556100  1.0
  H  H228  1  0.263400  0.434300  0.056100  1.0
  H  H229  1  0.943900  0.763400  0.065700  1.0
  H  H230  1  0.443900  0.736600  0.934300  1.0
  H  H231  1  0.556100  0.236600  0.565700  1.0
  H  H232  1  0.056100  0.263400  0.434300  1.0
  H  H233  1  0.065700  0.943900  0.763400  1.0
  H  H234  1  0.934300  0.443900  0.736600  1.0
  H  H235  1  0.565700  0.556100  0.236600  1.0
  H  H236  1  0.434300  0.056100  0.263400  1.0
  H  H237  1  0.236600  0.934300  0.056100  1.0
  H  H238  1  0.263400  0.065700  0.556100  1.0
  H  H239  1  0.763400  0.434300  0.443900  1.0
  H  H240  1  0.736600  0.565700  0.943900  1.0
  H  H241  1  0.056100  0.236600  0.934300  1.0
  H  H242  1  0.556100  0.263400  0.065700  1.0
  H  H243  1  0.443900  0.763400  0.434300  1.0
  H  H244  1  0.943900  0.736600  0.565700  1.0
  H  H245  1  0.934300  0.056100  0.236600  1.0
  H  H246  1  0.065700  0.556100  0.263400  1.0
  H  H247  1  0.434300  0.443900  0.763400  1.0
  H  H248  1  0.565700  0.943900  0.736600  1.0
  H  H249  1  0.788100  0.049800  0.884200  1.0
  H  H250  1  0.711900  0.950200  0.384200  1.0
  H  H251  1  0.211900  0.549800  0.615800  1.0
  H  H252  1  0.288100  0.450200  0.115800  1.0
  H  H253  1  0.884200  0.788100  0.049800  1.0
  H  H254  1  0.384200  0.711900  0.950200  1.0
  H  H255  1  0.615800  0.211900  0.549800  1.0
  H  H256  1  0.115800  0.288100  0.450200  1.0
  H  H257  1  0.049800  0.884200  0.788100  1.0
  H  H258  1  0.950200  0.384200  0.711900  1.0
  H  H259  1  0.549800  0.615800  0.211900  1.0
  H  H260  1  0.450200  0.115800  0.288100  1.0
  H  H261  1  0.211900  0.950200  0.115800  1.0
  H  H262  1  0.288100  0.049800  0.615800  1.0
  H  H263  1  0.788100  0.450200  0.384200  1.0
  H  H264  1  0.711900  0.549800  0.884200  1.0
  H  H265  1  0.115800  0.211900  0.950200  1.0
  H  H266  1  0.615800  0.288100  0.049800  1.0
  H  H267  1  0.384200  0.788100  0.450200  1.0
  H  H268  1  0.884200  0.711900  0.549800  1.0
  H  H269  1  0.950200  0.115800  0.211900  1.0
  H  H270  1  0.049800  0.615800  0.288100  1.0
  H  H271  1  0.450200  0.384200  0.788100  1.0
  H  H272  1  0.549800  0.884200  0.711900  1.0
  H  H273  1  0.816500  0.990500  0.873800  1.0
  H  H274  1  0.683500  0.009500  0.373800  1.0
  H  H275  1  0.183500  0.490500  0.626200  1.0
  H  H276  1  0.316500  0.509500  0.126200  1.0
  H  H277  1  0.873800  0.816500  0.990500  1.0
  H  H278  1  0.373800  0.683500  0.009500  1.0
  H  H279  1  0.626200  0.183500  0.490500  1.0
  H  H280  1  0.126200  0.316500  0.509500  1.0
  H  H281  1  0.990500  0.873800  0.816500  1.0
  H  H282  1  0.009500  0.373800  0.683500  1.0
  H  H283  1  0.490500  0.626200  0.183500  1.0
  H  H284  1  0.509500  0.126200  0.316500  1.0
  H  H285  1  0.183500  0.009500  0.126200  1.0
  H  H286  1  0.316500  0.990500  0.626200  1.0
  H  H287  1  0.816500  0.509500  0.373800  1.0
  H  H288  1  0.683500  0.490500  0.873800  1.0
  H  H289  1  0.126200  0.183500  0.009500  1.0
  H  H290  1  0.626200  0.316500  0.990500  1.0
  H  H291  1  0.373800  0.816500  0.509500  1.0
  H  H292  1  0.873800  0.683500  0.490500  1.0
  H  H293  1  0.009500  0.126200  0.183500  1.0
  H  H294  1  0.990500  0.626200  0.316500  1.0
  H  H295  1  0.509500  0.373800  0.816500  1.0
  H  H296  1  0.490500  0.873800  0.683500  1.0
  H  H297  1  0.819300  0.946000  0.924300  1.0
  H  H298  1  0.680700  0.054000  0.424300  1.0
  H  H299  1  0.180700  0.446000  0.575700  1.0
  H  H300  1  0.319300  0.554000  0.075700  1.0
  H  H301  1  0.924300  0.819300  0.946000  1.0
  H  H302  1  0.424300  0.680700  0.054000  1.0
  H  H303  1  0.575700  0.180700  0.446000  1.0
  H  H304  1  0.075700  0.319300  0.554000  1.0
  H  H305  1  0.946000  0.924300  0.819300  1.0
  H  H306  1  0.054000  0.424300  0.680700  1.0
  H  H307  1  0.446000  0.575700  0.180700  1.0
  H  H308  1  0.554000  0.075700  0.319300  1.0
  H  H309  1  0.180700  0.054000  0.075700  1.0
  H  H310  1  0.319300  0.946000  0.575700  1.0
  H  H311  1  0.819300  0.554000  0.424300  1.0
  H  H312  1  0.680700  0.446000  0.924300  1.0
  H  H313  1  0.075700  0.180700  0.054000  1.0
  H  H314  1  0.575700  0.319300  0.946000  1.0
  H  H315  1  0.424300  0.819300  0.554000  1.0
  H  H316  1  0.924300  0.680700  0.446000  1.0
  H  H317  1  0.054000  0.075700  0.180700  1.0
  H  H318  1  0.946000  0.575700  0.319300  1.0
  H  H319  1  0.554000  0.424300  0.819300  1.0
  H  H320  1  0.446000  0.924300  0.680700  1.0
  H  H321  1  0.803800  0.931600  0.995400  1.0
  H  H322  1  0.696200  0.068400  0.495400  1.0
  H  H323  1  0.196200  0.431600  0.504600  1.0
  H  H324  1  0.303800  0.568400  0.004600  1.0
  H  H325  1  0.995400  0.803800  0.931600  1.0
  H  H326  1  0.495400  0.696200  0.068400  1.0
  H  H327  1  0.504600  0.196200  0.431600  1.0
  H  H328  1  0.004600  0.303800  0.568400  1.0
  H  H329  1  0.931600  0.995400  0.803800  1.0
  H  H330  1  0.068400  0.495400  0.696200  1.0
  H  H331  1  0.431600  0.504600  0.196200  1.0
  H  H332  1  0.568400  0.004600  0.303800  1.0
  H  H333  1  0.196200  0.068400  0.004600  1.0
  H  H334  1  0.303800  0.931600  0.504600  1.0
  H  H335  1  0.803800  0.568400  0.495400  1.0
  H  H336  1  0.696200  0.431600  0.995400  1.0
  H  H337  1  0.004600  0.196200  0.068400  1.0
  H  H338  1  0.504600  0.303800  0.931600  1.0
  H  H339  1  0.495400  0.803800  0.568400  1.0
  H  H340  1  0.995400  0.696200  0.431600  1.0
  H  H341  1  0.068400  0.004600  0.196200  1.0
  H  H342  1  0.931600  0.504600  0.303800  1.0
  H  H343  1  0.568400  0.495400  0.803800  1.0
  H  H344  1  0.431600  0.995400  0.696200  1.0
  H  H345  1  0.806700  0.980100  0.097600  1.0
  H  H346  1  0.693300  0.019900  0.597600  1.0
  H  H347  1  0.193300  0.480100  0.402400  1.0
  H  H348  1  0.306700  0.519900  0.902400  1.0
  H  H349  1  0.097600  0.806700  0.980100  1.0
  H  H350  1  0.597600  0.693300  0.019900  1.0
  H  H351  1  0.402400  0.193300  0.480100  1.0
  H  H352  1  0.902400  0.306700  0.519900  1.0
  H  H353  1  0.980100  0.097600  0.806700  1.0
  H  H354  1  0.019900  0.597600  0.693300  1.0
  H  H355  1  0.480100  0.402400  0.193300  1.0
  H  H356  1  0.519900  0.902400  0.306700  1.0
  H  H357  1  0.193300  0.019900  0.902400  1.0
  H  H358  1  0.306700  0.980100  0.402400  1.0
  H  H359  1  0.806700  0.519900  0.597600  1.0
  H  H360  1  0.693300  0.480100  0.097600  1.0
  H  H361  1  0.902400  0.193300  0.019900  1.0
  H  H362  1  0.402400  0.306700  0.980100  1.0
  H  H363  1  0.597600  0.806700  0.519900  1.0
  H  H364  1  0.097600  0.693300  0.480100  1.0
  H  H365  1  0.019900  0.902400  0.193300  1.0
  H  H366  1  0.980100  0.402400  0.306700  1.0
  H  H367  1  0.519900  0.597600  0.806700  1.0
  H  H368  1  0.480100  0.097600  0.693300  1.0
  H  H369  1  0.742300  0.862100  0.086900  1.0
  H  H370  1  0.757700  0.137900  0.586900  1.0
  H  H371  1  0.257700  0.362100  0.413100  1.0
  H  H372  1  0.242300  0.637900  0.913100  1.0
  H  H373  1  0.086900  0.742300  0.862100  1.0
  H  H374  1  0.586900  0.757700  0.137900  1.0
  H  H375  1  0.413100  0.257700  0.362100  1.0
  H  H376  1  0.913100  0.242300  0.637900  1.0
  H  H377  1  0.862100  0.086900  0.742300  1.0
  H  H378  1  0.137900  0.586900  0.757700  1.0
  H  H379  1  0.362100  0.413100  0.257700  1.0
  H  H380  1  0.637900  0.913100  0.242300  1.0
  H  H381  1  0.257700  0.137900  0.913100  1.0
  H  H382  1  0.242300  0.862100  0.413100  1.0
  H  H383  1  0.742300  0.637900  0.586900  1.0
  H  H384  1  0.757700  0.362100  0.086900  1.0
  H  H385  1  0.913100  0.257700  0.137900  1.0
  H  H386  1  0.413100  0.242300  0.862100  1.0
  H  H387  1  0.586900  0.742300  0.637900  1.0
  H  H388  1  0.086900  0.757700  0.362100  1.0
  H  H389  1  0.137900  0.913100  0.257700  1.0
  H  H390  1  0.862100  0.413100  0.242300  1.0
  H  H391  1  0.637900  0.586900  0.742300  1.0
  H  H392  1  0.362100  0.086900  0.757700  1.0
  H  H393  1  0.741900  0.904400  0.036400  1.0
  H  H394  1  0.758100  0.095600  0.536400  1.0
  H  H395  1  0.258100  0.404400  0.463600  1.0
  H  H396  1  0.241900  0.595600  0.963600  1.0
  H  H397  1  0.036400  0.741900  0.904400  1.0
  H  H398  1  0.536400  0.758100  0.095600  1.0
  H  H399  1  0.463600  0.258100  0.404400  1.0
  H  H400  1  0.963600  0.241900  0.595600  1.0
  H  H401  1  0.904400  0.036400  0.741900  1.0
  H  H402  1  0.095600  0.536400  0.758100  1.0
  H  H403  1  0.404400  0.463600  0.258100  1.0
  H  H404  1  0.595600  0.963600  0.241900  1.0
  H  H405  1  0.258100  0.095600  0.963600  1.0
  H  H406  1  0.241900  0.904400  0.463600  1.0
  H  H407  1  0.741900  0.595600  0.536400  1.0
  H  H408  1  0.758100  0.404400  0.036400  1.0
  H  H409  1  0.963600  0.258100  0.095600  1.0
  H  H410  1  0.463600  0.241900  0.904400  1.0
  H  H411  1  0.536400  0.741900  0.595600  1.0
  H  H412  1  0.036400  0.758100  0.404400  1.0
  H  H413  1  0.095600  0.963600  0.258100  1.0
  H  H414  1  0.904400  0.463600  0.241900  1.0
  H  H415  1  0.595600  0.536400  0.741900  1.0
  H  H416  1  0.404400  0.036400  0.758100  1.0
  H  H417  1  0.815500  0.795000  0.198500  1.0
  H  H418  1  0.684500  0.205000  0.698500  1.0
  H  H419  1  0.184500  0.295000  0.301500  1.0
  H  H420  1  0.315500  0.705000  0.801500  1.0
  H  H421  1  0.198500  0.815500  0.795000  1.0
  H  H422  1  0.698500  0.684500  0.205000  1.0
  H  H423  1  0.301500  0.184500  0.295000  1.0
  H  H424  1  0.801500  0.315500  0.705000  1.0
  H  H425  1  0.795000  0.198500  0.815500  1.0
  H  H426  1  0.205000  0.698500  0.684500  1.0
  H  H427  1  0.295000  0.301500  0.184500  1.0
  H  H428  1  0.705000  0.801500  0.315500  1.0
  H  H429  1  0.184500  0.205000  0.801500  1.0
  H  H430  1  0.315500  0.795000  0.301500  1.0
  H  H431  1  0.815500  0.705000  0.698500  1.0
  H  H432  1  0.684500  0.295000  0.198500  1.0
  H  H433  1  0.801500  0.184500  0.205000  1.0
  H  H434  1  0.301500  0.315500  0.795000  1.0
  H  H435  1  0.698500  0.815500  0.705000  1.0
  H  H436  1  0.198500  0.684500  0.295000  1.0
  H  H437  1  0.205000  0.801500  0.184500  1.0
  H  H438  1  0.795000  0.301500  0.315500  1.0
  H  H439  1  0.705000  0.698500  0.815500  1.0
  H  H440  1  0.295000  0.198500  0.684500  1.0
  H  H441  1  0.722700  0.850800  0.237800  1.0
  H  H442  1  0.777300  0.149200  0.737800  1.0
  H  H443  1  0.277300  0.350800  0.262200  1.0
  H  H444  1  0.222700  0.649200  0.762200  1.0
  H  H445  1  0.237800  0.722700  0.850800  1.0
  H  H446  1  0.737800  0.777300  0.149200  1.0
  H  H447  1  0.262200  0.277300  0.350800  1.0
  H  H448  1  0.762200  0.222700  0.649200  1.0
  H  H449  1  0.850800  0.237800  0.722700  1.0
  H  H450  1  0.149200  0.737800  0.777300  1.0
  H  H451  1  0.350800  0.262200  0.277300  1.0
  H  H452  1  0.649200  0.762200  0.222700  1.0
  H  H453  1  0.277300  0.149200  0.762200  1.0
  H  H454  1  0.222700  0.850800  0.262200  1.0
  H  H455  1  0.722700  0.649200  0.737800  1.0
  H  H456  1  0.777300  0.350800  0.237800  1.0
  H  H457  1  0.762200  0.277300  0.149200  1.0
  H  H458  1  0.262200  0.222700  0.850800  1.0
  H  H459  1  0.737800  0.722700  0.649200  1.0
  H  H460  1  0.237800  0.777300  0.350800  1.0
  H  H461  1  0.149200  0.762200  0.277300  1.0
  H  H462  1  0.850800  0.262200  0.222700  1.0
  H  H463  1  0.649200  0.737800  0.722700  1.0
  H  H464  1  0.350800  0.237800  0.777300  1.0
  H  H465  1  0.725200  0.891400  0.184000  1.0
  H  H466  1  0.774800  0.108600  0.684000  1.0
  H  H467  1  0.274800  0.391400  0.316000  1.0
  H  H468  1  0.225200  0.608600  0.816000  1.0
  H  H469  1  0.184000  0.725200  0.891400  1.0
  H  H470  1  0.684000  0.774800  0.108600  1.0
  H  H471  1  0.316000  0.274800  0.391400  1.0
  H  H472  1  0.816000  0.225200  0.608600  1.0
  H  H473  1  0.891400  0.184000  0.725200  1.0
  H  H474  1  0.108600  0.684000  0.774800  1.0
  H  H475  1  0.391400  0.316000  0.274800  1.0
  H  H476  1  0.608600  0.816000  0.225200  1.0
  H  H477  1  0.274800  0.108600  0.816000  1.0
  H  H478  1  0.225200  0.891400  0.316000  1.0
  H  H479  1  0.725200  0.608600  0.684000  1.0
  H  H480  1  0.774800  0.391400  0.184000  1.0
  H  H481  1  0.816000  0.274800  0.108600  1.0
  H  H482  1  0.316000  0.225200  0.891400  1.0
  H  H483  1  0.684000  0.725200  0.608600  1.0
  H  H484  1  0.184000  0.774800  0.391400  1.0
  H  H485  1  0.108600  0.816000  0.274800  1.0
  H  H486  1  0.891400  0.316000  0.225200  1.0
  H  H487  1  0.608600  0.684000  0.725200  1.0
  H  H488  1  0.391400  0.184000  0.774800  1.0
  H  H489  1  0.787200  0.838000  0.287600  1.0
  H  H490  1  0.712800  0.162000  0.787600  1.0
  H  H491  1  0.212800  0.338000  0.212400  1.0
  H  H492  1  0.287200  0.662000  0.712400  1.0
  H  H493  1  0.287600  0.787200  0.838000  1.0
  H  H494  1  0.787600  0.712800  0.162000  1.0
  H  H495  1  0.212400  0.212800  0.338000  1.0
  H  H496  1  0.712400  0.287200  0.662000  1.0
  H  H497  1  0.838000  0.287600  0.787200  1.0
  H  H498  1  0.162000  0.787600  0.712800  1.0
  H  H499  1  0.338000  0.212400  0.212800  1.0
  H  H500  1  0.662000  0.712400  0.287200  1.0
  H  H501  1  0.212800  0.162000  0.712400  1.0
  H  H502  1  0.287200  0.838000  0.212400  1.0
  H  H503  1  0.787200  0.662000  0.787600  1.0
  H  H504  1  0.712800  0.338000  0.287600  1.0
  H  H505  1  0.712400  0.212800  0.162000  1.0
  H  H506  1  0.212400  0.287200  0.838000  1.0
  H  H507  1  0.787600  0.787200  0.662000  1.0
  H  H508  1  0.287600  0.712800  0.338000  1.0
  H  H509  1  0.162000  0.712400  0.212800  1.0
  H  H510  1  0.838000  0.212400  0.287200  1.0
  H  H511  1  0.662000  0.787600  0.787200  1.0
  H  H512  1  0.338000  0.287600  0.712800  1.0
  H  H513  1  0.764300  0.699200  0.340400  1.0
  H  H514  1  0.735700  0.300800  0.840400  1.0
  H  H515  1  0.235700  0.199200  0.159600  1.0
  H  H516  1  0.264300  0.800800  0.659600  1.0
  H  H517  1  0.340400  0.764300  0.699200  1.0
  H  H518  1  0.840400  0.735700  0.300800  1.0
  H  H519  1  0.159600  0.235700  0.199200  1.0
  H  H520  1  0.659600  0.264300  0.800800  1.0
  H  H521  1  0.699200  0.340400  0.764300  1.0
  H  H522  1  0.300800  0.840400  0.735700  1.0
  H  H523  1  0.199200  0.159600  0.235700  1.0
  H  H524  1  0.800800  0.659600  0.264300  1.0
  H  H525  1  0.235700  0.300800  0.659600  1.0
  H  H526  1  0.264300  0.699200  0.159600  1.0
  H  H527  1  0.764300  0.800800  0.840400  1.0
  H  H528  1  0.735700  0.199200  0.340400  1.0
  H  H529  1  0.659600  0.235700  0.300800  1.0
  H  H530  1  0.159600  0.264300  0.699200  1.0
  H  H531  1  0.840400  0.764300  0.800800  1.0
  H  H532  1  0.340400  0.735700  0.199200  1.0
  H  H533  1  0.300800  0.659600  0.235700  1.0
  H  H534  1  0.699200  0.159600  0.264300  1.0
  H  H535  1  0.800800  0.840400  0.764300  1.0
  H  H536  1  0.199200  0.340400  0.735700  1.0
  H  H537  1  0.778200  0.719300  0.403300  1.0
  H  H538  1  0.721800  0.280700  0.903300  1.0
  H  H539  1  0.221800  0.219300  0.096700  1.0
  H  H540  1  0.278200  0.780700  0.596700  1.0
  H  H541  1  0.403300  0.778200  0.719300  1.0
  H  H542  1  0.903300  0.721800  0.280700  1.0
  H  H543  1  0.096700  0.221800  0.219300  1.0
  H  H544  1  0.596700  0.278200  0.780700  1.0
  H  H545  1  0.719300  0.403300  0.778200  1.0
  H  H546  1  0.280700  0.903300  0.721800  1.0
  H  H547  1  0.219300  0.096700  0.221800  1.0
  H  H548  1  0.780700  0.596700  0.278200  1.0
  H  H549  1  0.221800  0.280700  0.596700  1.0
  H  H550  1  0.278200  0.719300  0.096700  1.0
  H  H551  1  0.778200  0.780700  0.903300  1.0
  H  H552  1  0.721800  0.219300  0.403300  1.0
  H  H553  1  0.596700  0.221800  0.280700  1.0
  H  H554  1  0.096700  0.278200  0.719300  1.0
  H  H555  1  0.903300  0.778200  0.780700  1.0
  H  H556  1  0.403300  0.721800  0.219300  1.0
  H  H557  1  0.280700  0.596700  0.221800  1.0
  H  H558  1  0.719300  0.096700  0.278200  1.0
  H  H559  1  0.780700  0.903300  0.778200  1.0
  H  H560  1  0.219300  0.403300  0.721800  1.0
  H  H561  1  0.793400  0.784000  0.415600  1.0
  H  H562  1  0.706600  0.216000  0.915600  1.0
  H  H563  1  0.206600  0.284000  0.084400  1.0
  H  H564  1  0.293400  0.716000  0.584400  1.0
  H  H565  1  0.415600  0.793400  0.784000  1.0
  H  H566  1  0.915600  0.706600  0.216000  1.0
  H  H567  1  0.084400  0.206600  0.284000  1.0
  H  H568  1  0.584400  0.293400  0.716000  1.0
  H  H569  1  0.784000  0.415600  0.793400  1.0
  H  H570  1  0.216000  0.915600  0.706600  1.0
  H  H571  1  0.284000  0.084400  0.206600  1.0
  H  H572  1  0.716000  0.584400  0.293400  1.0
  H  H573  1  0.206600  0.216000  0.584400  1.0
  H  H574  1  0.293400  0.784000  0.084400  1.0
  H  H575  1  0.793400  0.716000  0.915600  1.0
  H  H576  1  0.706600  0.284000  0.415600  1.0
  H  H577  1  0.584400  0.206600  0.216000  1.0
  H  H578  1  0.084400  0.293400  0.784000  1.0
  H  H579  1  0.915600  0.793400  0.716000  1.0
  H  H580  1  0.415600  0.706600  0.284000  1.0
  H  H581  1  0.216000  0.584400  0.206600  1.0
  H  H582  1  0.784000  0.084400  0.293400  1.0
  H  H583  1  0.716000  0.915600  0.793400  1.0
  H  H584  1  0.284000  0.415600  0.706600  1.0
  H  H585  1  0.794800  0.828500  0.364800  1.0
  H  H586  1  0.705200  0.171500  0.864800  1.0
  H  H587  1  0.205200  0.328500  0.135200  1.0
  H  H588  1  0.294800  0.671500  0.635200  1.0
  H  H589  1  0.364800  0.794800  0.828500  1.0
  H  H590  1  0.864800  0.705200  0.171500  1.0
  H  H591  1  0.135200  0.205200  0.328500  1.0
  H  H592  1  0.635200  0.294800  0.671500  1.0
  H  H593  1  0.828500  0.364800  0.794800  1.0
  H  H594  1  0.171500  0.864800  0.705200  1.0
  H  H595  1  0.328500  0.135200  0.205200  1.0
  H  H596  1  0.671500  0.635200  0.294800  1.0
  H  H597  1  0.205200  0.171500  0.635200  1.0
  H  H598  1  0.294800  0.828500  0.135200  1.0
  H  H599  1  0.794800  0.671500  0.864800  1.0
  H  H600  1  0.705200  0.328500  0.364800  1.0
  H  H601  1  0.635200  0.205200  0.171500  1.0
  H  H602  1  0.135200  0.294800  0.828500  1.0
  H  H603  1  0.864800  0.794800  0.671500  1.0
  H  H604  1  0.364800  0.705200  0.328500  1.0
  H  H605  1  0.171500  0.635200  0.205200  1.0
  H  H606  1  0.828500  0.135200  0.294800  1.0
  H  H607  1  0.671500  0.864800  0.794800  1.0
  H  H608  1  0.328500  0.364800  0.705200  1.0
  H  H609  1  0.778600  0.114700  0.030800  1.0
  H  H610  1  0.721400  0.885300  0.530800  1.0
  H  H611  1  0.221400  0.614700  0.469200  1.0
  H  H612  1  0.278600  0.385300  0.969200  1.0
  H  H613  1  0.030800  0.778600  0.114700  1.0
  H  H614  1  0.530800  0.721400  0.885300  1.0
  H  H615  1  0.469200  0.221400  0.614700  1.0
  H  H616  1  0.969200  0.278600  0.385300  1.0
  H  H617  1  0.114700  0.030800  0.778600  1.0
  H  H618  1  0.885300  0.530800  0.721400  1.0
  H  H619  1  0.614700  0.469200  0.221400  1.0
  H  H620  1  0.385300  0.969200  0.278600  1.0
  H  H621  1  0.221400  0.885300  0.969200  1.0
  H  H622  1  0.278600  0.114700  0.469200  1.0
  H  H623  1  0.778600  0.385300  0.530800  1.0
  H  H624  1  0.721400  0.614700  0.030800  1.0
  H  H625  1  0.969200  0.221400  0.885300  1.0
  H  H626  1  0.469200  0.278600  0.114700  1.0
  H  H627  1  0.530800  0.778600  0.385300  1.0
  H  H628  1  0.030800  0.721400  0.614700  1.0
  H  H629  1  0.885300  0.969200  0.221400  1.0
  H  H630  1  0.114700  0.469200  0.278600  1.0
  H  H631  1  0.385300  0.530800  0.778600  1.0
  H  H632  1  0.614700  0.030800  0.721400  1.0
  H  H633  1  0.746900  0.171100  0.014700  1.0
  H  H634  1  0.753100  0.828900  0.514700  1.0
  H  H635  1  0.253100  0.671100  0.485300  1.0
  H  H636  1  0.246900  0.328900  0.985300  1.0
  H  H637  1  0.014700  0.746900  0.171100  1.0
  H  H638  1  0.514700  0.753100  0.828900  1.0
  H  H639  1  0.485300  0.253100  0.671100  1.0
  H  H640  1  0.985300  0.246900  0.328900  1.0
  H  H641  1  0.171100  0.014700  0.746900  1.0
  H  H642  1  0.828900  0.514700  0.753100  1.0
  H  H643  1  0.671100  0.485300  0.253100  1.0
  H  H644  1  0.328900  0.985300  0.246900  1.0
  H  H645  1  0.253100  0.828900  0.985300  1.0
  H  H646  1  0.246900  0.171100  0.485300  1.0
  H  H647  1  0.746900  0.328900  0.514700  1.0
  H  H648  1  0.753100  0.671100  0.014700  1.0
  H  H649  1  0.985300  0.253100  0.828900  1.0
  H  H650  1  0.485300  0.246900  0.171100  1.0
  H  H651  1  0.514700  0.746900  0.328900  1.0
  H  H652  1  0.014700  0.753100  0.671100  1.0
  H  H653  1  0.828900  0.985300  0.253100  1.0
  H  H654  1  0.171100  0.485300  0.246900  1.0
  H  H655  1  0.328900  0.514700  0.746900  1.0
  H  H656  1  0.671100  0.014700  0.753100  1.0
  H  H657  1  0.682200  0.169300  0.994100  1.0
  H  H658  1  0.817800  0.830700  0.494100  1.0
  H  H659  1  0.317800  0.669300  0.505900  1.0
  H  H660  1  0.182200  0.330700  0.005900  1.0
  H  H661  1  0.994100  0.682200  0.169300  1.0
  H  H662  1  0.494100  0.817800  0.830700  1.0
  H  H663  1  0.505900  0.317800  0.669300  1.0
  H  H664  1  0.005900  0.182200  0.330700  1.0
  H  H665  1  0.169300  0.994100  0.682200  1.0
  H  H666  1  0.830700  0.494100  0.817800  1.0
  H  H667  1  0.669300  0.505900  0.317800  1.0
  H  H668  1  0.330700  0.005900  0.182200  1.0
  H  H669  1  0.317800  0.830700  0.005900  1.0
  H  H670  1  0.182200  0.169300  0.505900  1.0
  H  H671  1  0.682200  0.330700  0.494100  1.0
  H  H672  1  0.817800  0.669300  0.994100  1.0
  H  H673  1  0.005900  0.317800  0.830700  1.0
  H  H674  1  0.505900  0.182200  0.169300  1.0
  H  H675  1  0.494100  0.682200  0.330700  1.0
  H  H676  1  0.994100  0.817800  0.669300  1.0
  H  H677  1  0.830700  0.005900  0.317800  1.0
  H  H678  1  0.169300  0.505900  0.182200  1.0
  H  H679  1  0.330700  0.494100  0.682200  1.0
  H  H680  1  0.669300  0.994100  0.817800  1.0
  H  H681  1  0.655300  0.108500  0.981200  1.0
  H  H682  1  0.844700  0.891500  0.481200  1.0
  H  H683  1  0.344700  0.608500  0.518800  1.0
  H  H684  1  0.155300  0.391500  0.018800  1.0
  H  H685  1  0.981200  0.655300  0.108500  1.0
  H  H686  1  0.481200  0.844700  0.891500  1.0
  H  H687  1  0.518800  0.344700  0.608500  1.0
  H  H688  1  0.018800  0.155300  0.391500  1.0
  H  H689  1  0.108500  0.981200  0.655300  1.0
  H  H690  1  0.891500  0.481200  0.844700  1.0
  H  H691  1  0.608500  0.518800  0.344700  1.0
  H  H692  1  0.391500  0.018800  0.155300  1.0
  H  H693  1  0.344700  0.891500  0.018800  1.0
  H  H694  1  0.155300  0.108500  0.518800  1.0
  H  H695  1  0.655300  0.391500  0.481200  1.0
  H  H696  1  0.844700  0.608500  0.981200  1.0
  H  H697  1  0.018800  0.344700  0.891500  1.0
  H  H698  1  0.518800  0.155300  0.108500  1.0
  H  H699  1  0.481200  0.655300  0.391500  1.0
  H  H700  1  0.981200  0.844700  0.608500  1.0
  H  H701  1  0.891500  0.018800  0.344700  1.0
  H  H702  1  0.108500  0.518800  0.155300  1.0
  H  H703  1  0.391500  0.481200  0.655300  1.0
  H  H704  1  0.608500  0.981200  0.844700  1.0
  H  H705  1  0.659700  0.034500  0.983000  1.0
  H  H706  1  0.840300  0.965500  0.483000  1.0
  H  H707  1  0.340300  0.534500  0.517000  1.0
  H  H708  1  0.159700  0.465500  0.017000  1.0
  H  H709  1  0.983000  0.659700  0.034500  1.0
  H  H710  1  0.483000  0.840300  0.965500  1.0
  H  H711  1  0.517000  0.340300  0.534500  1.0
  H  H712  1  0.017000  0.159700  0.465500  1.0
  H  H713  1  0.034500  0.983000  0.659700  1.0
  H  H714  1  0.965500  0.483000  0.840300  1.0
  H  H715  1  0.534500  0.517000  0.340300  1.0
  H  H716  1  0.465500  0.017000  0.159700  1.0
  H  H717  1  0.340300  0.965500  0.017000  1.0
  H  H718  1  0.159700  0.034500  0.517000  1.0
  H  H719  1  0.659700  0.465500  0.483000  1.0
  H  H720  1  0.840300  0.534500  0.983000  1.0
  H  H721  1  0.017000  0.340300  0.965500  1.0
  H  H722  1  0.517000  0.159700  0.034500  1.0
  H  H723  1  0.483000  0.659700  0.465500  1.0
  H  H724  1  0.983000  0.840300  0.534500  1.0
  H  H725  1  0.965500  0.017000  0.340300  1.0
  H  H726  1  0.034500  0.517000  0.159700  1.0
  H  H727  1  0.465500  0.483000  0.659700  1.0
  H  H728  1  0.534500  0.983000  0.840300  1.0
  H  H729  1  0.724000  0.953400  0.959200  1.0
  H  H730  1  0.776000  0.046600  0.459200  1.0
  H  H731  1  0.276000  0.453400  0.540800  1.0
  H  H732  1  0.224000  0.546600  0.040800  1.0
  H  H733  1  0.959200  0.724000  0.953400  1.0
  H  H734  1  0.459200  0.776000  0.046600  1.0
  H  H735  1  0.540800  0.276000  0.453400  1.0
  H  H736  1  0.040800  0.224000  0.546600  1.0
  H  H737  1  0.953400  0.959200  0.724000  1.0
  H  H738  1  0.046600  0.459200  0.776000  1.0
  H  H739  1  0.453400  0.540800  0.276000  1.0
  H  H740  1  0.546600  0.040800  0.224000  1.0
  H  H741  1  0.276000  0.046600  0.040800  1.0
  H  H742  1  0.224000  0.953400  0.540800  1.0
  H  H743  1  0.724000  0.546600  0.459200  1.0
  H  H744  1  0.776000  0.453400  0.959200  1.0
  H  H745  1  0.040800  0.276000  0.046600  1.0
  H  H746  1  0.540800  0.224000  0.953400  1.0
  H  H747  1  0.459200  0.724000  0.546600  1.0
  H  H748  1  0.959200  0.776000  0.453400  1.0
  H  H749  1  0.046600  0.040800  0.276000  1.0
  H  H750  1  0.953400  0.540800  0.224000  1.0
  H  H751  1  0.546600  0.459200  0.724000  1.0
  H  H752  1  0.453400  0.959200  0.776000  1.0
  H  H753  1  0.620700  0.917500  0.033900  1.0
  H  H754  1  0.879300  0.082500  0.533900  1.0
  H  H755  1  0.379300  0.417500  0.466100  1.0
  H  H756  1  0.120700  0.582500  0.966100  1.0
  H  H757  1  0.033900  0.620700  0.917500  1.0
  H  H758  1  0.533900  0.879300  0.082500  1.0
  H  H759  1  0.466100  0.379300  0.417500  1.0
  H  H760  1  0.966100  0.120700  0.582500  1.0
  H  H761  1  0.917500  0.033900  0.620700  1.0
  H  H762  1  0.082500  0.533900  0.879300  1.0
  H  H763  1  0.417500  0.466100  0.379300  1.0
  H  H764  1  0.582500  0.966100  0.120700  1.0
  H  H765  1  0.379300  0.082500  0.966100  1.0
  H  H766  1  0.120700  0.917500  0.466100  1.0
  H  H767  1  0.620700  0.582500  0.533900  1.0
  H  H768  1  0.879300  0.417500  0.033900  1.0
  H  H769  1  0.966100  0.379300  0.082500  1.0
  H  H770  1  0.466100  0.120700  0.917500  1.0
  H  H771  1  0.533900  0.620700  0.582500  1.0
  H  H772  1  0.033900  0.879300  0.417500  1.0
  H  H773  1  0.082500  0.966100  0.379300  1.0
  H  H774  1  0.917500  0.466100  0.120700  1.0
  H  H775  1  0.582500  0.533900  0.620700  1.0
  H  H776  1  0.417500  0.033900  0.879300  1.0
  H  H777  1  0.648900  0.977600  0.044300  1.0
  H  H778  1  0.851100  0.022400  0.544300  1.0
  H  H779  1  0.351100  0.477600  0.455700  1.0
  H  H780  1  0.148900  0.522400  0.955700  1.0
  H  H781  1  0.044300  0.648900  0.977600  1.0
  H  H782  1  0.544300  0.851100  0.022400  1.0
  H  H783  1  0.455700  0.351100  0.477600  1.0
  H  H784  1  0.955700  0.148900  0.522400  1.0
  H  H785  1  0.977600  0.044300  0.648900  1.0
  H  H786  1  0.022400  0.544300  0.851100  1.0
  H  H787  1  0.477600  0.455700  0.351100  1.0
  H  H788  1  0.522400  0.955700  0.148900  1.0
  H  H789  1  0.351100  0.022400  0.955700  1.0
  H  H790  1  0.148900  0.977600  0.455700  1.0
  H  H791  1  0.648900  0.522400  0.544300  1.0
  H  H792  1  0.851100  0.477600  0.044300  1.0
  H  H793  1  0.955700  0.351100  0.022400  1.0
  H  H794  1  0.455700  0.148900  0.977600  1.0
  H  H795  1  0.544300  0.648900  0.522400  1.0
  H  H796  1  0.044300  0.851100  0.477600  1.0
  H  H797  1  0.022400  0.955700  0.351100  1.0
  H  H798  1  0.977600  0.455700  0.148900  1.0
  H  H799  1  0.522400  0.544300  0.648900  1.0
  H  H800  1  0.477600  0.044300  0.851100  1.0
  H  H801  1  0.841100  0.049800  0.994400  1.0
  H  H802  1  0.658900  0.950200  0.494400  1.0
  H  H803  1  0.158900  0.549800  0.505600  1.0
  H  H804  1  0.341100  0.450200  0.005600  1.0
  H  H805  1  0.994400  0.841100  0.049800  1.0
  H  H806  1  0.494400  0.658900  0.950200  1.0
  H  H807  1  0.505600  0.158900  0.549800  1.0
  H  H808  1  0.005600  0.341100  0.450200  1.0
  H  H809  1  0.049800  0.994400  0.841100  1.0
  H  H810  1  0.950200  0.494400  0.658900  1.0
  H  H811  1  0.549800  0.505600  0.158900  1.0
  H  H812  1  0.450200  0.005600  0.341100  1.0
  H  H813  1  0.158900  0.950200  0.005600  1.0
  H  H814  1  0.341100  0.049800  0.505600  1.0
  H  H815  1  0.841100  0.450200  0.494400  1.0
  H  H816  1  0.658900  0.549800  0.994400  1.0
  H  H817  1  0.005600  0.158900  0.950200  1.0
  H  H818  1  0.505600  0.341100  0.049800  1.0
  H  H819  1  0.494400  0.841100  0.450200  1.0
  H  H820  1  0.994400  0.658900  0.549800  1.0
  H  H821  1  0.950200  0.005600  0.158900  1.0
  H  H822  1  0.049800  0.505600  0.341100  1.0
  H  H823  1  0.450200  0.494400  0.841100  1.0
  H  H824  1  0.549800  0.994400  0.658900  1.0
  H  H825  1  0.894300  0.079200  0.023800  1.0
  H  H826  1  0.605700  0.920800  0.523800  1.0
  H  H827  1  0.105700  0.579200  0.476200  1.0
  H  H828  1  0.394300  0.420800  0.976200  1.0
  H  H829  1  0.023800  0.894300  0.079200  1.0
  H  H830  1  0.523800  0.605700  0.920800  1.0
  H  H831  1  0.476200  0.105700  0.579200  1.0
  H  H832  1  0.976200  0.394300  0.420800  1.0
  H  H833  1  0.079200  0.023800  0.894300  1.0
  H  H834  1  0.920800  0.523800  0.605700  1.0
  H  H835  1  0.579200  0.476200  0.105700  1.0
  H  H836  1  0.420800  0.976200  0.394300  1.0
  H  H837  1  0.105700  0.920800  0.976200  1.0
  H  H838  1  0.394300  0.079200  0.476200  1.0
  H  H839  1  0.894300  0.420800  0.523800  1.0
  H  H840  1  0.605700  0.579200  0.023800  1.0
  H  H841  1  0.976200  0.105700  0.920800  1.0
  H  H842  1  0.476200  0.394300  0.079200  1.0
  H  H843  1  0.523800  0.894300  0.420800  1.0
  H  H844  1  0.023800  0.605700  0.579200  1.0
  H  H845  1  0.920800  0.976200  0.105700  1.0
  H  H846  1  0.079200  0.476200  0.394300  1.0
  H  H847  1  0.420800  0.523800  0.894300  1.0
  H  H848  1  0.579200  0.023800  0.605700  1.0
  H  H849  1  0.892900  0.093300  0.089800  1.0
  H  H850  1  0.607100  0.906700  0.589800  1.0
  H  H851  1  0.107100  0.593300  0.410200  1.0
  H  H852  1  0.392900  0.406700  0.910200  1.0
  H  H853  1  0.089800  0.892900  0.093300  1.0
  H  H854  1  0.589800  0.607100  0.906700  1.0
  H  H855  1  0.410200  0.107100  0.593300  1.0
  H  H856  1  0.910200  0.392900  0.406700  1.0
  H  H857  1  0.093300  0.089800  0.892900  1.0
  H  H858  1  0.906700  0.589800  0.607100  1.0
  H  H859  1  0.593300  0.410200  0.107100  1.0
  H  H860  1  0.406700  0.910200  0.392900  1.0
  H  H861  1  0.107100  0.906700  0.910200  1.0
  H  H862  1  0.392900  0.093300  0.410200  1.0
  H  H863  1  0.892900  0.406700  0.589800  1.0
  H  H864  1  0.607100  0.593300  0.089800  1.0
  H  H865  1  0.910200  0.107100  0.906700  1.0
  H  H866  1  0.410200  0.392900  0.093300  1.0
  H  H867  1  0.589800  0.892900  0.406700  1.0
  H  H868  1  0.089800  0.607100  0.593300  1.0
  H  H869  1  0.906700  0.910200  0.107100  1.0
  H  H870  1  0.093300  0.410200  0.392900  1.0
  H  H871  1  0.406700  0.589800  0.892900  1.0
  H  H872  1  0.593300  0.089800  0.607100  1.0
  H  H873  1  0.838300  0.077900  0.126500  1.0
  H  H874  1  0.661700  0.922100  0.626500  1.0
  H  H875  1  0.161700  0.577900  0.373500  1.0
  H  H876  1  0.338300  0.422100  0.873500  1.0
  H  H877  1  0.126500  0.838300  0.077900  1.0
  H  H878  1  0.626500  0.661700  0.922100  1.0
  H  H879  1  0.373500  0.161700  0.577900  1.0
  H  H880  1  0.873500  0.338300  0.422100  1.0
  H  H881  1  0.077900  0.126500  0.838300  1.0
  H  H882  1  0.922100  0.626500  0.661700  1.0
  H  H883  1  0.577900  0.373500  0.161700  1.0
  H  H884  1  0.422100  0.873500  0.338300  1.0
  H  H885  1  0.161700  0.922100  0.873500  1.0
  H  H886  1  0.338300  0.077900  0.373500  1.0
  H  H887  1  0.838300  0.422100  0.626500  1.0
  H  H888  1  0.661700  0.577900  0.126500  1.0
  H  H889  1  0.873500  0.161700  0.922100  1.0
  H  H890  1  0.373500  0.338300  0.077900  1.0
  H  H891  1  0.626500  0.838300  0.422100  1.0
  H  H892  1  0.126500  0.661700  0.577900  1.0
  H  H893  1  0.922100  0.873500  0.161700  1.0
  H  H894  1  0.077900  0.373500  0.338300  1.0
  H  H895  1  0.422100  0.626500  0.838300  1.0
  H  H896  1  0.577900  0.126500  0.661700  1.0
  H  H897  1  0.767900  0.050000  0.126600  1.0
  H  H898  1  0.732100  0.950000  0.626600  1.0
  H  H899  1  0.232100  0.550000  0.373400  1.0
  H  H900  1  0.267900  0.450000  0.873400  1.0
  H  H901  1  0.126600  0.767900  0.050000  1.0
  H  H902  1  0.626600  0.732100  0.950000  1.0
  H  H903  1  0.373400  0.232100  0.550000  1.0
  H  H904  1  0.873400  0.267900  0.450000  1.0
  H  H905  1  0.050000  0.126600  0.767900  1.0
  H  H906  1  0.950000  0.626600  0.732100  1.0
  H  H907  1  0.550000  0.373400  0.232100  1.0
  H  H908  1  0.450000  0.873400  0.267900  1.0
  H  H909  1  0.232100  0.950000  0.873400  1.0
  H  H910  1  0.267900  0.050000  0.373400  1.0
  H  H911  1  0.767900  0.450000  0.626600  1.0
  H  H912  1  0.732100  0.550000  0.126600  1.0
  H  H913  1  0.873400  0.232100  0.950000  1.0
  H  H914  1  0.373400  0.267900  0.050000  1.0
  H  H915  1  0.626600  0.767900  0.450000  1.0
  H  H916  1  0.126600  0.732100  0.550000  1.0
  H  H917  1  0.950000  0.873400  0.232100  1.0
  H  H918  1  0.050000  0.373400  0.267900  1.0
  H  H919  1  0.450000  0.626600  0.767900  1.0
  H  H920  1  0.550000  0.126600  0.732100  1.0
  H  H921  1  0.568300  0.818500  0.933600  1.0
  H  H922  1  0.931700  0.181500  0.433600  1.0
  H  H923  1  0.431700  0.318500  0.566400  1.0
  H  H924  1  0.068300  0.681500  0.066400  1.0
  H  H925  1  0.933600  0.568300  0.818500  1.0
  H  H926  1  0.433600  0.931700  0.181500  1.0
  H  H927  1  0.566400  0.431700  0.318500  1.0
  H  H928  1  0.066400  0.068300  0.681500  1.0
  H  H929  1  0.818500  0.933600  0.568300  1.0
  H  H930  1  0.181500  0.433600  0.931700  1.0
  H  H931  1  0.318500  0.566400  0.431700  1.0
  H  H932  1  0.681500  0.066400  0.068300  1.0
  H  H933  1  0.431700  0.181500  0.066400  1.0
  H  H934  1  0.068300  0.818500  0.566400  1.0
  H  H935  1  0.568300  0.681500  0.433600  1.0
  H  H936  1  0.931700  0.318500  0.933600  1.0
  H  H937  1  0.066400  0.431700  0.181500  1.0
  H  H938  1  0.566400  0.068300  0.818500  1.0
  H  H939  1  0.433600  0.568300  0.681500  1.0
  H  H940  1  0.933600  0.931700  0.318500  1.0
  H  H941  1  0.181500  0.066400  0.431700  1.0
  H  H942  1  0.818500  0.566400  0.068300  1.0
  H  H943  1  0.681500  0.433600  0.568300  1.0
  H  H944  1  0.318500  0.933600  0.931700  1.0
  H  H945  1  0.661400  0.833400  0.026100  1.0
  H  H946  1  0.838600  0.166600  0.526100  1.0
  H  H947  1  0.338600  0.333400  0.473900  1.0
  H  H948  1  0.161400  0.666600  0.973900  1.0
  H  H949  1  0.026100  0.661400  0.833400  1.0
  H  H950  1  0.526100  0.838600  0.166600  1.0
  H  H951  1  0.473900  0.338600  0.333400  1.0
  H  H952  1  0.973900  0.161400  0.666600  1.0
  H  H953  1  0.833400  0.026100  0.661400  1.0
  H  H954  1  0.166600  0.526100  0.838600  1.0
  H  H955  1  0.333400  0.473900  0.338600  1.0
  H  H956  1  0.666600  0.973900  0.161400  1.0
  H  H957  1  0.338600  0.166600  0.973900  1.0
  H  H958  1  0.161400  0.833400  0.473900  1.0
  H  H959  1  0.661400  0.666600  0.526100  1.0
  H  H960  1  0.838600  0.333400  0.026100  1.0
  H  H961  1  0.973900  0.338600  0.166600  1.0
  H  H962  1  0.473900  0.161400  0.833400  1.0
  H  H963  1  0.526100  0.661400  0.666600  1.0
  H  H964  1  0.026100  0.838600  0.333400  1.0
  H  H965  1  0.166600  0.973900  0.338600  1.0
  H  H966  1  0.833400  0.473900  0.161400  1.0
  H  H967  1  0.666600  0.526100  0.661400  1.0
  H  H968  1  0.333400  0.026100  0.838600  1.0
  H  H969  1  0.632200  0.774100  0.018500  1.0
  H  H970  1  0.867800  0.225900  0.518500  1.0
  H  H971  1  0.367800  0.274100  0.481500  1.0
  H  H972  1  0.132200  0.725900  0.981500  1.0
  H  H973  1  0.018500  0.632200  0.774100  1.0
  H  H974  1  0.518500  0.867800  0.225900  1.0
  H  H975  1  0.481500  0.367800  0.274100  1.0
  H  H976  1  0.981500  0.132200  0.725900  1.0
  H  H977  1  0.774100  0.018500  0.632200  1.0
  H  H978  1  0.225900  0.518500  0.867800  1.0
  H  H979  1  0.274100  0.481500  0.367800  1.0
  H  H980  1  0.725900  0.981500  0.132200  1.0
  H  H981  1  0.367800  0.225900  0.981500  1.0
  H  H982  1  0.132200  0.774100  0.481500  1.0
  H  H983  1  0.632200  0.725900  0.518500  1.0
  H  H984  1  0.867800  0.274100  0.018500  1.0
  H  H985  1  0.981500  0.367800  0.225900  1.0
  H  H986  1  0.481500  0.132200  0.774100  1.0
  H  H987  1  0.518500  0.632200  0.725900  1.0
  H  H988  1  0.018500  0.867800  0.274100  1.0
  H  H989  1  0.225900  0.981500  0.367800  1.0
  H  H990  1  0.774100  0.481500  0.132200  1.0
  H  H991  1  0.725900  0.518500  0.632200  1.0
  H  H992  1  0.274100  0.018500  0.867800  1.0
  C  C993  1  0.529200  0.970800  0.029200  1
  C  C994  1  0.970800  0.029200  0.529200  1
  C  C995  1  0.470800  0.470800  0.470800  1
  C  C996  1  0.029200  0.529200  0.970800  1
  C  C997  1  0.470800  0.029200  0.970800  1
  C  C998  1  0.029200  0.970800  0.470800  1
  C  C999  1  0.529200  0.529200  0.529200  1
  C  C1000  1  0.970800  0.470800  0.029200  1
  C  C1001  1  0.655700  0.772900  0.881800  1
  C  C1002  1  0.844300  0.227100  0.381800  1
  C  C1003  1  0.344300  0.272900  0.618200  1
  C  C1004  1  0.155700  0.727100  0.118200  1
  C  C1005  1  0.881800  0.655700  0.772900  1
  C  C1006  1  0.381800  0.844300  0.227100  1
  C  C1007  1  0.618200  0.344300  0.272900  1
  C  C1008  1  0.118200  0.155700  0.727100  1
  C  C1009  1  0.772900  0.881800  0.655700  1
  C  C1010  1  0.227100  0.381800  0.844300  1
  C  C1011  1  0.272900  0.618200  0.344300  1
  C  C1012  1  0.727100  0.118200  0.155700  1
  C  C1013  1  0.344300  0.227100  0.118200  1
  C  C1014  1  0.155700  0.772900  0.618200  1
  C  C1015  1  0.655700  0.727100  0.381800  1
  C  C1016  1  0.844300  0.272900  0.881800  1
  C  C1017  1  0.118200  0.344300  0.227100  1
  C  C1018  1  0.618200  0.155700  0.772900  1
  C  C1019  1  0.381800  0.655700  0.727100  1
  C  C1020  1  0.881800  0.844300  0.272900  1
  C  C1021  1  0.227100  0.118200  0.344300  1
  C  C1022  1  0.772900  0.618200  0.155700  1
  C  C1023  1  0.727100  0.381800  0.655700  1
  C  C1024  1  0.272900  0.881800  0.844300  1
  C  C1025  1  0.793500  0.983100  0.964200  1.0
  C  C1026  1  0.706500  0.016900  0.464200  1.0
  C  C1027  1  0.206500  0.483100  0.535800  1.0
  C  C1028  1  0.293500  0.516900  0.035800  1.0
  C  C1029  1  0.964200  0.793500  0.983100  1.0
  C  C1030  1  0.464200  0.706500  0.016900  1.0
  C  C1031  1  0.535800  0.206500  0.483100  1.0
  C  C1032  1  0.035800  0.293500  0.516900  1.0
  C  C1033  1  0.983100  0.964200  0.793500  1.0
  C  C1034  1  0.016900  0.464200  0.706500  1.0
  C  C1035  1  0.483100  0.535800  0.206500  1.0
  C  C1036  1  0.516900  0.035800  0.293500  1.0
  C  C1037  1  0.206500  0.016900  0.035800  1.0
  C  C1038  1  0.293500  0.983100  0.535800  1.0
  C  C1039  1  0.793500  0.516900  0.464200  1.0
  C  C1040  1  0.706500  0.483100  0.964200  1.0
  C  C1041  1  0.035800  0.206500  0.016900  1.0
  C  C1042  1  0.535800  0.293500  0.983100  1.0
  C  C1043  1  0.464200  0.793500  0.516900  1.0
  C  C1044  1  0.964200  0.706500  0.483100  1.0
  C  C1045  1  0.016900  0.035800  0.206500  1.0
  C  C1046  1  0.983100  0.535800  0.293500  1.0
  C  C1047  1  0.516900  0.464200  0.793500  1.0
  C  C1048  1  0.483100  0.964200  0.706500  1.0
  C  C1049  1  0.775300  0.041200  0.940400  1.0
  C  C1050  1  0.724700  0.958800  0.440400  1.0
  C  C1051  1  0.224700  0.541200  0.559600  1.0
  C  C1052  1  0.275300  0.458800  0.059600  1.0
  C  C1053  1  0.940400  0.775300  0.041200  1.0
  C  C1054  1  0.440400  0.724700  0.958800  1.0
  C  C1055  1  0.559600  0.224700  0.541200  1.0
  C  C1056  1  0.059600  0.275300  0.458800  1.0
  C  C1057  1  0.041200  0.940400  0.775300  1.0
  C  C1058  1  0.958800  0.440400  0.724700  1.0
  C  C1059  1  0.541200  0.559600  0.224700  1.0
  C  C1060  1  0.458800  0.059600  0.275300  1.0
  C  C1061  1  0.224700  0.958800  0.059600  1.0
  C  C1062  1  0.275300  0.041200  0.559600  1.0
  C  C1063  1  0.775300  0.458800  0.440400  1.0
  C  C1064  1  0.724700  0.541200  0.940400  1.0
  C  C1065  1  0.059600  0.224700  0.958800  1.0
  C  C1066  1  0.559600  0.275300  0.041200  1.0
  C  C1067  1  0.440400  0.775300  0.458800  1.0
  C  C1068  1  0.940400  0.724700  0.541200  1.0
  C  C1069  1  0.958800  0.059600  0.224700  1.0
  C  C1070  1  0.041200  0.559600  0.275300  1.0
  C  C1071  1  0.458800  0.440400  0.775300  1.0
  C  C1072  1  0.541200  0.940400  0.724700  1.0
  C  C1073  1  0.789700  0.031700  0.904800  1.0
  C  C1074  1  0.710300  0.968300  0.404800  1.0
  C  C1075  1  0.210300  0.531700  0.595200  1.0
  C  C1076  1  0.289700  0.468300  0.095200  1.0
  C  C1077  1  0.904800  0.789700  0.031700  1.0
  C  C1078  1  0.404800  0.710300  0.968300  1.0
  C  C1079  1  0.595200  0.210300  0.531700  1.0
  C  C1080  1  0.095200  0.289700  0.468300  1.0
  C  C1081  1  0.031700  0.904800  0.789700  1.0
  C  C1082  1  0.968300  0.404800  0.710300  1.0
  C  C1083  1  0.531700  0.595200  0.210300  1.0
  C  C1084  1  0.468300  0.095200  0.289700  1.0
  C  C1085  1  0.210300  0.968300  0.095200  1.0
  C  C1086  1  0.289700  0.031700  0.595200  1.0
  C  C1087  1  0.789700  0.468300  0.404800  1.0
  C  C1088  1  0.710300  0.531700  0.904800  1.0
  C  C1089  1  0.095200  0.210300  0.968300  1.0
  C  C1090  1  0.595200  0.289700  0.031700  1.0
  C  C1091  1  0.404800  0.789700  0.468300  1.0
  C  C1092  1  0.904800  0.710300  0.531700  1.0
  C  C1093  1  0.968300  0.095200  0.210300  1.0
  C  C1094  1  0.031700  0.595200  0.289700  1.0
  C  C1095  1  0.468300  0.404800  0.789700  1.0
  C  C1096  1  0.531700  0.904800  0.710300  1.0
  C  C1097  1  0.806400  0.996800  0.898500  1.0
  C  C1098  1  0.693600  0.003200  0.398500  1.0
  C  C1099  1  0.193600  0.496800  0.601500  1.0
  C  C1100  1  0.306400  0.503200  0.101500  1.0
  C  C1101  1  0.898500  0.806400  0.996800  1.0
  C  C1102  1  0.398500  0.693600  0.003200  1.0
  C  C1103  1  0.601500  0.193600  0.496800  1.0
  C  C1104  1  0.101500  0.306400  0.503200  1.0
  C  C1105  1  0.996800  0.898500  0.806400  1.0
  C  C1106  1  0.003200  0.398500  0.693600  1.0
  C  C1107  1  0.496800  0.601500  0.193600  1.0
  C  C1108  1  0.503200  0.101500  0.306400  1.0
  C  C1109  1  0.193600  0.003200  0.101500  1.0
  C  C1110  1  0.306400  0.996800  0.601500  1.0
  C  C1111  1  0.806400  0.503200  0.398500  1.0
  C  C1112  1  0.693600  0.496800  0.898500  1.0
  C  C1113  1  0.101500  0.193600  0.003200  1.0
  C  C1114  1  0.601500  0.306400  0.996800  1.0
  C  C1115  1  0.398500  0.806400  0.503200  1.0
  C  C1116  1  0.898500  0.693600  0.496800  1.0
  C  C1117  1  0.003200  0.101500  0.193600  1.0
  C  C1118  1  0.996800  0.601500  0.306400  1.0
  C  C1119  1  0.503200  0.398500  0.806400  1.0
  C  C1120  1  0.496800  0.898500  0.693600  1.0
  C  C1121  1  0.808400  0.971000  0.927800  1.0
  C  C1122  1  0.691600  0.029000  0.427800  1.0
  C  C1123  1  0.191600  0.471000  0.572200  1.0
  C  C1124  1  0.308400  0.529000  0.072200  1.0
  C  C1125  1  0.927800  0.808400  0.971000  1.0
  C  C1126  1  0.427800  0.691600  0.029000  1.0
  C  C1127  1  0.572200  0.191600  0.471000  1.0
  C  C1128  1  0.072200  0.308400  0.529000  1.0
  C  C1129  1  0.971000  0.927800  0.808400  1.0
  C  C1130  1  0.029000  0.427800  0.691600  1.0
  C  C1131  1  0.471000  0.572200  0.191600  1.0
  C  C1132  1  0.529000  0.072200  0.308400  1.0
  C  C1133  1  0.191600  0.029000  0.072200  1.0
  C  C1134  1  0.308400  0.971000  0.572200  1.0
  C  C1135  1  0.808400  0.529000  0.427800  1.0
  C  C1136  1  0.691600  0.471000  0.927800  1.0
  C  C1137  1  0.072200  0.191600  0.029000  1.0
  C  C1138  1  0.572200  0.308400  0.971000  1.0
  C  C1139  1  0.427800  0.808400  0.529000  1.0
  C  C1140  1  0.927800  0.691600  0.471000  1.0
  C  C1141  1  0.029000  0.072200  0.191600  1.0
  C  C1142  1  0.971000  0.572200  0.308400  1.0
  C  C1143  1  0.529000  0.427800  0.808400  1.0
  C  C1144  1  0.471000  0.927800  0.691600  1.0
  C  C1145  1  0.793500  0.957000  0.996700  1.0
  C  C1146  1  0.706500  0.043000  0.496700  1.0
  C  C1147  1  0.206500  0.457000  0.503300  1.0
  C  C1148  1  0.293500  0.543000  0.003300  1.0
  C  C1149  1  0.996700  0.793500  0.957000  1.0
  C  C1150  1  0.496700  0.706500  0.043000  1.0
  C  C1151  1  0.503300  0.206500  0.457000  1.0
  C  C1152  1  0.003300  0.293500  0.543000  1.0
  C  C1153  1  0.957000  0.996700  0.793500  1.0
  C  C1154  1  0.043000  0.496700  0.706500  1.0
  C  C1155  1  0.457000  0.503300  0.206500  1.0
  C  C1156  1  0.543000  0.003300  0.293500  1.0
  C  C1157  1  0.206500  0.043000  0.003300  1.0
  C  C1158  1  0.293500  0.957000  0.503300  1.0
  C  C1159  1  0.793500  0.543000  0.496700  1.0
  C  C1160  1  0.706500  0.457000  0.996700  1.0
  C  C1161  1  0.003300  0.206500  0.043000  1.0
  C  C1162  1  0.503300  0.293500  0.957000  1.0
  C  C1163  1  0.496700  0.793500  0.543000  1.0
  C  C1164  1  0.996700  0.706500  0.457000  1.0
  C  C1165  1  0.043000  0.003300  0.206500  1.0
  C  C1166  1  0.957000  0.503300  0.293500  1.0
  C  C1167  1  0.543000  0.496700  0.793500  1.0
  C  C1168  1  0.457000  0.996700  0.706500  1.0
  C  C1169  1  0.775300  0.946200  0.059600  1.0
  C  C1170  1  0.724700  0.053800  0.559600  1.0
  C  C1171  1  0.224700  0.446200  0.440400  1.0
  C  C1172  1  0.275300  0.553800  0.940400  1.0
  C  C1173  1  0.059600  0.775300  0.946200  1.0
  C  C1174  1  0.559600  0.724700  0.053800  1.0
  C  C1175  1  0.440400  0.224700  0.446200  1.0
  C  C1176  1  0.940400  0.275300  0.553800  1.0
  C  C1177  1  0.946200  0.059600  0.775300  1.0
  C  C1178  1  0.053800  0.559600  0.724700  1.0
  C  C1179  1  0.446200  0.440400  0.224700  1.0
  C  C1180  1  0.553800  0.940400  0.275300  1.0
  C  C1181  1  0.224700  0.053800  0.940400  1.0
  C  C1182  1  0.275300  0.946200  0.440400  1.0
  C  C1183  1  0.775300  0.553800  0.559600  1.0
  C  C1184  1  0.724700  0.446200  0.059600  1.0
  C  C1185  1  0.940400  0.224700  0.053800  1.0
  C  C1186  1  0.440400  0.275300  0.946200  1.0
  C  C1187  1  0.559600  0.775300  0.553800  1.0
  C  C1188  1  0.059600  0.724700  0.446200  1.0
  C  C1189  1  0.053800  0.940400  0.224700  1.0
  C  C1190  1  0.946200  0.440400  0.275300  1.0
  C  C1191  1  0.553800  0.559600  0.775300  1.0
  C  C1192  1  0.446200  0.059600  0.724700  1.0
  C  C1193  1  0.793500  0.956100  0.095300  1.0
  C  C1194  1  0.706500  0.043900  0.595300  1.0
  C  C1195  1  0.206500  0.456100  0.404700  1.0
  C  C1196  1  0.293500  0.543900  0.904700  1.0
  C  C1197  1  0.095300  0.793500  0.956100  1.0
  C  C1198  1  0.595300  0.706500  0.043900  1.0
  C  C1199  1  0.404700  0.206500  0.456100  1.0
  C  C1200  1  0.904700  0.293500  0.543900  1.0
  C  C1201  1  0.956100  0.095300  0.793500  1.0
  C  C1202  1  0.043900  0.595300  0.706500  1.0
  C  C1203  1  0.456100  0.404700  0.206500  1.0
  C  C1204  1  0.543900  0.904700  0.293500  1.0
  C  C1205  1  0.206500  0.043900  0.904700  1.0
  C  C1206  1  0.293500  0.956100  0.404700  1.0
  C  C1207  1  0.793500  0.543900  0.595300  1.0
  C  C1208  1  0.706500  0.456100  0.095300  1.0
  C  C1209  1  0.904700  0.206500  0.043900  1.0
  C  C1210  1  0.404700  0.293500  0.956100  1.0
  C  C1211  1  0.595300  0.793500  0.543900  1.0
  C  C1212  1  0.095300  0.706500  0.456100  1.0
  C  C1213  1  0.043900  0.904700  0.206500  1.0
  C  C1214  1  0.956100  0.404700  0.293500  1.0
  C  C1215  1  0.543900  0.595300  0.793500  1.0
  C  C1216  1  0.456100  0.095300  0.706500  1.0
  C  C1217  1  0.792100  0.930700  0.127300  1.0
  C  C1218  1  0.707900  0.069300  0.627300  1.0
  C  C1219  1  0.207900  0.430700  0.372700  1.0
  C  C1220  1  0.292100  0.569300  0.872700  1.0
  C  C1221  1  0.127300  0.792100  0.930700  1.0
  C  C1222  1  0.627300  0.707900  0.069300  1.0
  C  C1223  1  0.372700  0.207900  0.430700  1.0
  C  C1224  1  0.872700  0.292100  0.569300  1.0
  C  C1225  1  0.930700  0.127300  0.792100  1.0
  C  C1226  1  0.069300  0.627300  0.707900  1.0
  C  C1227  1  0.430700  0.372700  0.207900  1.0
  C  C1228  1  0.569300  0.872700  0.292100  1.0
  C  C1229  1  0.207900  0.069300  0.872700  1.0
  C  C1230  1  0.292100  0.930700  0.372700  1.0
  C  C1231  1  0.792100  0.569300  0.627300  1.0
  C  C1232  1  0.707900  0.430700  0.127300  1.0
  C  C1233  1  0.872700  0.207900  0.069300  1.0
  C  C1234  1  0.372700  0.292100  0.930700  1.0
  C  C1235  1  0.627300  0.792100  0.569300  1.0
  C  C1236  1  0.127300  0.707900  0.430700  1.0
  C  C1237  1  0.069300  0.872700  0.207900  1.0
  C  C1238  1  0.930700  0.372700  0.292100  1.0
  C  C1239  1  0.569300  0.627300  0.792100  1.0
  C  C1240  1  0.430700  0.127300  0.707900  1.0
  C  C1241  1  0.773600  0.895300  0.122900  1.0
  C  C1242  1  0.726400  0.104700  0.622900  1.0
  C  C1243  1  0.226400  0.395300  0.377100  1.0
  C  C1244  1  0.273600  0.604700  0.877100  1.0
  C  C1245  1  0.122900  0.773600  0.895300  1.0
  C  C1246  1  0.622900  0.726400  0.104700  1.0
  C  C1247  1  0.377100  0.226400  0.395300  1.0
  C  C1248  1  0.877100  0.273600  0.604700  1.0
  C  C1249  1  0.895300  0.122900  0.773600  1.0
  C  C1250  1  0.104700  0.622900  0.726400  1.0
  C  C1251  1  0.395300  0.377100  0.226400  1.0
  C  C1252  1  0.604700  0.877100  0.273600  1.0
  C  C1253  1  0.226400  0.104700  0.877100  1.0
  C  C1254  1  0.273600  0.895300  0.377100  1.0
  C  C1255  1  0.773600  0.604700  0.622900  1.0
  C  C1256  1  0.726400  0.395300  0.122900  1.0
  C  C1257  1  0.877100  0.226400  0.104700  1.0
  C  C1258  1  0.377100  0.273600  0.895300  1.0
  C  C1259  1  0.622900  0.773600  0.604700  1.0
  C  C1260  1  0.122900  0.726400  0.395300  1.0
  C  C1261  1  0.104700  0.877100  0.226400  1.0
  C  C1262  1  0.895300  0.377100  0.273600  1.0
  C  C1263  1  0.604700  0.622900  0.773600  1.0
  C  C1264  1  0.395300  0.122900  0.726400  1.0
  C  C1265  1  0.755400  0.886100  0.089300  1.0
  C  C1266  1  0.744600  0.113900  0.589300  1.0
  C  C1267  1  0.244600  0.386100  0.410700  1.0
  C  C1268  1  0.255400  0.613900  0.910700  1.0
  C  C1269  1  0.089300  0.755400  0.886100  1.0
  C  C1270  1  0.589300  0.744600  0.113900  1.0
  C  C1271  1  0.410700  0.244600  0.386100  1.0
  C  C1272  1  0.910700  0.255400  0.613900  1.0
  C  C1273  1  0.886100  0.089300  0.755400  1.0
  C  C1274  1  0.113900  0.589300  0.744600  1.0
  C  C1275  1  0.386100  0.410700  0.244600  1.0
  C  C1276  1  0.613900  0.910700  0.255400  1.0
  C  C1277  1  0.244600  0.113900  0.910700  1.0
  C  C1278  1  0.255400  0.886100  0.410700  1.0
  C  C1279  1  0.755400  0.613900  0.589300  1.0
  C  C1280  1  0.744600  0.386100  0.089300  1.0
  C  C1281  1  0.910700  0.244600  0.113900  1.0
  C  C1282  1  0.410700  0.255400  0.886100  1.0
  C  C1283  1  0.589300  0.755400  0.613900  1.0
  C  C1284  1  0.089300  0.744600  0.386100  1.0
  C  C1285  1  0.113900  0.910700  0.244600  1.0
  C  C1286  1  0.886100  0.410700  0.255400  1.0
  C  C1287  1  0.613900  0.589300  0.755400  1.0
  C  C1288  1  0.386100  0.089300  0.744600  1.0
  C  C1289  1  0.755800  0.911200  0.059100  1.0
  C  C1290  1  0.744200  0.088800  0.559100  1.0
  C  C1291  1  0.244200  0.411200  0.440900  1.0
  C  C1292  1  0.255800  0.588800  0.940900  1.0
  C  C1293  1  0.059100  0.755800  0.911200  1.0
  C  C1294  1  0.559100  0.744200  0.088800  1.0
  C  C1295  1  0.440900  0.244200  0.411200  1.0
  C  C1296  1  0.940900  0.255800  0.588800  1.0
  C  C1297  1  0.911200  0.059100  0.755800  1.0
  C  C1298  1  0.088800  0.559100  0.744200  1.0
  C  C1299  1  0.411200  0.440900  0.244200  1.0
  C  C1300  1  0.588800  0.940900  0.255800  1.0
  C  C1301  1  0.244200  0.088800  0.940900  1.0
  C  C1302  1  0.255800  0.911200  0.440900  1.0
  C  C1303  1  0.755800  0.588800  0.559100  1.0
  C  C1304  1  0.744200  0.411200  0.059100  1.0
  C  C1305  1  0.940900  0.244200  0.088800  1.0
  C  C1306  1  0.440900  0.255800  0.911200  1.0
  C  C1307  1  0.559100  0.755800  0.588800  1.0
  C  C1308  1  0.059100  0.744200  0.411200  1.0
  C  C1309  1  0.088800  0.940900  0.244200  1.0
  C  C1310  1  0.911200  0.440900  0.255800  1.0
  C  C1311  1  0.588800  0.559100  0.755800  1.0
  C  C1312  1  0.411200  0.059100  0.744200  1.0
  C  C1313  1  0.771600  0.867300  0.158100  1.0
  C  C1314  1  0.728400  0.132700  0.658100  1.0
  C  C1315  1  0.228400  0.367300  0.341900  1.0
  C  C1316  1  0.271600  0.632700  0.841900  1.0
  C  C1317  1  0.158100  0.771600  0.867300  1.0
  C  C1318  1  0.658100  0.728400  0.132700  1.0
  C  C1319  1  0.341900  0.228400  0.367300  1.0
  C  C1320  1  0.841900  0.271600  0.632700  1.0
  C  C1321  1  0.867300  0.158100  0.771600  1.0
  C  C1322  1  0.132700  0.658100  0.728400  1.0
  C  C1323  1  0.367300  0.341900  0.228400  1.0
  C  C1324  1  0.632700  0.841900  0.271600  1.0
  C  C1325  1  0.228400  0.132700  0.841900  1.0
  C  C1326  1  0.271600  0.867300  0.341900  1.0
  C  C1327  1  0.771600  0.632700  0.658100  1.0
  C  C1328  1  0.728400  0.367300  0.158100  1.0
  C  C1329  1  0.841900  0.228400  0.132700  1.0
  C  C1330  1  0.341900  0.271600  0.867300  1.0
  C  C1331  1  0.658100  0.771600  0.632700  1.0
  C  C1332  1  0.158100  0.728400  0.367300  1.0
  C  C1333  1  0.132700  0.841900  0.228400  1.0
  C  C1334  1  0.867300  0.341900  0.271600  1.0
  C  C1335  1  0.632700  0.658100  0.771600  1.0
  C  C1336  1  0.367300  0.158100  0.728400  1.0
  C  C1337  1  0.799000  0.837900  0.162500  1.0
  C  C1338  1  0.701000  0.162100  0.662500  1.0
  C  C1339  1  0.201000  0.337900  0.337500  1.0
  C  C1340  1  0.299000  0.662100  0.837500  1.0
  C  C1341  1  0.162500  0.799000  0.837900  1.0
  C  C1342  1  0.662500  0.701000  0.162100  1.0
  C  C1343  1  0.337500  0.201000  0.337900  1.0
  C  C1344  1  0.837500  0.299000  0.662100  1.0
  C  C1345  1  0.837900  0.162500  0.799000  1.0
  C  C1346  1  0.162100  0.662500  0.701000  1.0
  C  C1347  1  0.337900  0.337500  0.201000  1.0
  C  C1348  1  0.662100  0.837500  0.299000  1.0
  C  C1349  1  0.201000  0.162100  0.837500  1.0
  C  C1350  1  0.299000  0.837900  0.337500  1.0
  C  C1351  1  0.799000  0.662100  0.662500  1.0
  C  C1352  1  0.701000  0.337900  0.162500  1.0
  C  C1353  1  0.837500  0.201000  0.162100  1.0
  C  C1354  1  0.337500  0.299000  0.837900  1.0
  C  C1355  1  0.662500  0.799000  0.662100  1.0
  C  C1356  1  0.162500  0.701000  0.337900  1.0
  C  C1357  1  0.162100  0.837500  0.201000  1.0
  C  C1358  1  0.837900  0.337500  0.299000  1.0
  C  C1359  1  0.662100  0.662500  0.799000  1.0
  C  C1360  1  0.337900  0.162500  0.701000  1.0
  C  C1361  1  0.796900  0.814900  0.195200  1.0
  C  C1362  1  0.703100  0.185100  0.695200  1.0
  C  C1363  1  0.203100  0.314900  0.304800  1.0
  C  C1364  1  0.296900  0.685100  0.804800  1.0
  C  C1365  1  0.195200  0.796900  0.814900  1.0
  C  C1366  1  0.695200  0.703100  0.185100  1.0
  C  C1367  1  0.304800  0.203100  0.314900  1.0
  C  C1368  1  0.804800  0.296900  0.685100  1.0
  C  C1369  1  0.814900  0.195200  0.796900  1.0
  C  C1370  1  0.185100  0.695200  0.703100  1.0
  C  C1371  1  0.314900  0.304800  0.203100  1.0
  C  C1372  1  0.685100  0.804800  0.296900  1.0
  C  C1373  1  0.203100  0.185100  0.804800  1.0
  C  C1374  1  0.296900  0.814900  0.304800  1.0
  C  C1375  1  0.796900  0.685100  0.695200  1.0
  C  C1376  1  0.703100  0.314900  0.195200  1.0
  C  C1377  1  0.804800  0.203100  0.185100  1.0
  C  C1378  1  0.304800  0.296900  0.814900  1.0
  C  C1379  1  0.695200  0.796900  0.685100  1.0
  C  C1380  1  0.195200  0.703100  0.314900  1.0
  C  C1381  1  0.185100  0.804800  0.203100  1.0
  C  C1382  1  0.814900  0.304800  0.296900  1.0
  C  C1383  1  0.685100  0.695200  0.796900  1.0
  C  C1384  1  0.314900  0.195200  0.703100  1.0
  C  C1385  1  0.770000  0.819500  0.222000  1.0
  C  C1386  1  0.730000  0.180500  0.722000  1.0
  C  C1387  1  0.230000  0.319500  0.278000  1.0
  C  C1388  1  0.270000  0.680500  0.778000  1.0
  C  C1389  1  0.222000  0.770000  0.819500  1.0
  C  C1390  1  0.722000  0.730000  0.180500  1.0
  C  C1391  1  0.278000  0.230000  0.319500  1.0
  C  C1392  1  0.778000  0.270000  0.680500  1.0
  C  C1393  1  0.819500  0.222000  0.770000  1.0
  C  C1394  1  0.180500  0.722000  0.730000  1.0
  C  C1395  1  0.319500  0.278000  0.230000  1.0
  C  C1396  1  0.680500  0.778000  0.270000  1.0
  C  C1397  1  0.230000  0.180500  0.778000  1.0
  C  C1398  1  0.270000  0.819500  0.278000  1.0
  C  C1399  1  0.770000  0.680500  0.722000  1.0
  C  C1400  1  0.730000  0.319500  0.222000  1.0
  C  C1401  1  0.778000  0.230000  0.180500  1.0
  C  C1402  1  0.278000  0.270000  0.819500  1.0
  C  C1403  1  0.722000  0.770000  0.680500  1.0
  C  C1404  1  0.222000  0.730000  0.319500  1.0
  C  C1405  1  0.180500  0.778000  0.230000  1.0
  C  C1406  1  0.819500  0.278000  0.270000  1.0
  C  C1407  1  0.680500  0.722000  0.770000  1.0
  C  C1408  1  0.319500  0.222000  0.730000  1.0
  C  C1409  1  0.742200  0.847700  0.218800  1.0
  C  C1410  1  0.757800  0.152300  0.718800  1.0
  C  C1411  1  0.257800  0.347700  0.281200  1.0
  C  C1412  1  0.242200  0.652300  0.781200  1.0
  C  C1413  1  0.218800  0.742200  0.847700  1.0
  C  C1414  1  0.718800  0.757800  0.152300  1.0
  C  C1415  1  0.281200  0.257800  0.347700  1.0
  C  C1416  1  0.781200  0.242200  0.652300  1.0
  C  C1417  1  0.847700  0.218800  0.742200  1.0
  C  C1418  1  0.152300  0.718800  0.757800  1.0
  C  C1419  1  0.347700  0.281200  0.257800  1.0
  C  C1420  1  0.652300  0.781200  0.242200  1.0
  C  C1421  1  0.257800  0.152300  0.781200  1.0
  C  C1422  1  0.242200  0.847700  0.281200  1.0
  C  C1423  1  0.742200  0.652300  0.718800  1.0
  C  C1424  1  0.757800  0.347700  0.218800  1.0
  C  C1425  1  0.781200  0.257800  0.152300  1.0
  C  C1426  1  0.281200  0.242200  0.847700  1.0
  C  C1427  1  0.718800  0.742200  0.652300  1.0
  C  C1428  1  0.218800  0.757800  0.347700  1.0
  C  C1429  1  0.152300  0.781200  0.257800  1.0
  C  C1430  1  0.847700  0.281200  0.242200  1.0
  C  C1431  1  0.652300  0.718800  0.742200  1.0
  C  C1432  1  0.347700  0.218800  0.757800  1.0
  C  C1433  1  0.743900  0.871500  0.186600  1.0
  C  C1434  1  0.756100  0.128500  0.686600  1.0
  C  C1435  1  0.256100  0.371500  0.313400  1.0
  C  C1436  1  0.243900  0.628500  0.813400  1.0
  C  C1437  1  0.186600  0.743900  0.871500  1.0
  C  C1438  1  0.686600  0.756100  0.128500  1.0
  C  C1439  1  0.313400  0.256100  0.371500  1.0
  C  C1440  1  0.813400  0.243900  0.628500  1.0
  C  C1441  1  0.871500  0.186600  0.743900  1.0
  C  C1442  1  0.128500  0.686600  0.756100  1.0
  C  C1443  1  0.371500  0.313400  0.256100  1.0
  C  C1444  1  0.628500  0.813400  0.243900  1.0
  C  C1445  1  0.256100  0.128500  0.813400  1.0
  C  C1446  1  0.243900  0.871500  0.313400  1.0
  C  C1447  1  0.743900  0.628500  0.686600  1.0
  C  C1448  1  0.756100  0.371500  0.186600  1.0
  C  C1449  1  0.813400  0.256100  0.128500  1.0
  C  C1450  1  0.313400  0.243900  0.871500  1.0
  C  C1451  1  0.686600  0.743900  0.628500  1.0
  C  C1452  1  0.186600  0.756100  0.371500  1.0
  C  C1453  1  0.128500  0.813400  0.256100  1.0
  C  C1454  1  0.871500  0.313400  0.243900  1.0
  C  C1455  1  0.628500  0.686600  0.743900  1.0
  C  C1456  1  0.371500  0.186600  0.756100  1.0
  C  C1457  1  0.779900  0.811500  0.287700  1.0
  C  C1458  1  0.720100  0.188500  0.787700  1.0
  C  C1459  1  0.220100  0.311500  0.212300  1.0
  C  C1460  1  0.279900  0.688500  0.712300  1.0
  C  C1461  1  0.287700  0.779900  0.811500  1.0
  C  C1462  1  0.787700  0.720100  0.188500  1.0
  C  C1463  1  0.212300  0.220100  0.311500  1.0
  C  C1464  1  0.712300  0.279900  0.688500  1.0
  C  C1465  1  0.811500  0.287700  0.779900  1.0
  C  C1466  1  0.188500  0.787700  0.720100  1.0
  C  C1467  1  0.311500  0.212300  0.220100  1.0
  C  C1468  1  0.688500  0.712300  0.279900  1.0
  C  C1469  1  0.220100  0.188500  0.712300  1.0
  C  C1470  1  0.279900  0.811500  0.212300  1.0
  C  C1471  1  0.779900  0.688500  0.787700  1.0
  C  C1472  1  0.720100  0.311500  0.287700  1.0
  C  C1473  1  0.712300  0.220100  0.188500  1.0
  C  C1474  1  0.212300  0.279900  0.811500  1.0
  C  C1475  1  0.787700  0.779900  0.688500  1.0
  C  C1476  1  0.287700  0.720100  0.311500  1.0
  C  C1477  1  0.188500  0.712300  0.220100  1.0
  C  C1478  1  0.811500  0.212300  0.279900  1.0
  C  C1479  1  0.688500  0.787700  0.779900  1.0
  C  C1480  1  0.311500  0.287700  0.720100  1.0
  C  C1481  1  0.780300  0.790300  0.322400  1.0
  C  C1482  1  0.719700  0.209700  0.822400  1.0
  C  C1483  1  0.219700  0.290300  0.177600  1.0
  C  C1484  1  0.280300  0.709700  0.677600  1.0
  C  C1485  1  0.322400  0.780300  0.790300  1.0
  C  C1486  1  0.822400  0.719700  0.209700  1.0
  C  C1487  1  0.177600  0.219700  0.290300  1.0
  C  C1488  1  0.677600  0.280300  0.709700  1.0
  C  C1489  1  0.790300  0.322400  0.780300  1.0
  C  C1490  1  0.209700  0.822400  0.719700  1.0
  C  C1491  1  0.290300  0.177600  0.219700  1.0
  C  C1492  1  0.709700  0.677600  0.280300  1.0
  C  C1493  1  0.219700  0.209700  0.677600  1.0
  C  C1494  1  0.280300  0.790300  0.177600  1.0
  C  C1495  1  0.780300  0.709700  0.822400  1.0
  C  C1496  1  0.719700  0.290300  0.322400  1.0
  C  C1497  1  0.677600  0.219700  0.209700  1.0
  C  C1498  1  0.177600  0.280300  0.790300  1.0
  C  C1499  1  0.822400  0.780300  0.709700  1.0
  C  C1500  1  0.322400  0.719700  0.290300  1.0
  C  C1501  1  0.209700  0.677600  0.219700  1.0
  C  C1502  1  0.790300  0.177600  0.280300  1.0
  C  C1503  1  0.709700  0.822400  0.780300  1.0
  C  C1504  1  0.290300  0.322400  0.719700  1.0
  C  C1505  1  0.770500  0.725400  0.345300  1.0
  C  C1506  1  0.729500  0.274600  0.845300  1.0
  C  C1507  1  0.229500  0.225400  0.154700  1.0
  C  C1508  1  0.270500  0.774600  0.654700  1.0
  C  C1509  1  0.345300  0.770500  0.725400  1.0
  C  C1510  1  0.845300  0.729500  0.274600  1.0
  C  C1511  1  0.154700  0.229500  0.225400  1.0
  C  C1512  1  0.654700  0.270500  0.774600  1.0
  C  C1513  1  0.725400  0.345300  0.770500  1.0
  C  C1514  1  0.274600  0.845300  0.729500  1.0
  C  C1515  1  0.225400  0.154700  0.229500  1.0
  C  C1516  1  0.774600  0.654700  0.270500  1.0
  C  C1517  1  0.229500  0.274600  0.654700  1.0
  C  C1518  1  0.270500  0.725400  0.154700  1.0
  C  C1519  1  0.770500  0.774600  0.845300  1.0
  C  C1520  1  0.729500  0.225400  0.345300  1.0
  C  C1521  1  0.654700  0.229500  0.274600  1.0
  C  C1522  1  0.154700  0.270500  0.725400  1.0
  C  C1523  1  0.845300  0.770500  0.774600  1.0
  C  C1524  1  0.345300  0.729500  0.225400  1.0
  C  C1525  1  0.274600  0.654700  0.229500  1.0
  C  C1526  1  0.725400  0.154700  0.270500  1.0
  C  C1527  1  0.774600  0.845300  0.770500  1.0
  C  C1528  1  0.225400  0.345300  0.729500  1.0
  C  C1529  1  0.778800  0.737400  0.382700  1.0
  C  C1530  1  0.721200  0.262600  0.882700  1.0
  C  C1531  1  0.221200  0.237400  0.117300  1.0
  C  C1532  1  0.278800  0.762600  0.617300  1.0
  C  C1533  1  0.382700  0.778800  0.737400  1.0
  C  C1534  1  0.882700  0.721200  0.262600  1.0
  C  C1535  1  0.117300  0.221200  0.237400  1.0
  C  C1536  1  0.617300  0.278800  0.762600  1.0
  C  C1537  1  0.737400  0.382700  0.778800  1.0
  C  C1538  1  0.262600  0.882700  0.721200  1.0
  C  C1539  1  0.237400  0.117300  0.221200  1.0
  C  C1540  1  0.762600  0.617300  0.278800  1.0
  C  C1541  1  0.221200  0.262600  0.617300  1.0
  C  C1542  1  0.278800  0.737400  0.117300  1.0
  C  C1543  1  0.778800  0.762600  0.882700  1.0
  C  C1544  1  0.721200  0.237400  0.382700  1.0
  C  C1545  1  0.617300  0.221200  0.262600  1.0
  C  C1546  1  0.117300  0.278800  0.737400  1.0
  C  C1547  1  0.882700  0.778800  0.762600  1.0
  C  C1548  1  0.382700  0.721200  0.237400  1.0
  C  C1549  1  0.262600  0.617300  0.221200  1.0
  C  C1550  1  0.737400  0.117300  0.278800  1.0
  C  C1551  1  0.762600  0.882700  0.778800  1.0
  C  C1552  1  0.237400  0.382700  0.721200  1.0
  C  C1553  1  0.787800  0.775800  0.390000  1.0
  C  C1554  1  0.712200  0.224200  0.890000  1.0
  C  C1555  1  0.212200  0.275800  0.110000  1.0
  C  C1556  1  0.287800  0.724200  0.610000  1.0
  C  C1557  1  0.390000  0.787800  0.775800  1.0
  C  C1558  1  0.890000  0.712200  0.224200  1.0
  C  C1559  1  0.110000  0.212200  0.275800  1.0
  C  C1560  1  0.610000  0.287800  0.724200  1.0
  C  C1561  1  0.775800  0.390000  0.787800  1.0
  C  C1562  1  0.224200  0.890000  0.712200  1.0
  C  C1563  1  0.275800  0.110000  0.212200  1.0
  C  C1564  1  0.724200  0.610000  0.287800  1.0
  C  C1565  1  0.212200  0.224200  0.610000  1.0
  C  C1566  1  0.287800  0.775800  0.110000  1.0
  C  C1567  1  0.787800  0.724200  0.890000  1.0
  C  C1568  1  0.712200  0.275800  0.390000  1.0
  C  C1569  1  0.610000  0.212200  0.224200  1.0
  C  C1570  1  0.110000  0.287800  0.775800  1.0
  C  C1571  1  0.890000  0.787800  0.724200  1.0
  C  C1572  1  0.390000  0.712200  0.275800  1.0
  C  C1573  1  0.224200  0.610000  0.212200  1.0
  C  C1574  1  0.775800  0.110000  0.287800  1.0
  C  C1575  1  0.724200  0.890000  0.787800  1.0
  C  C1576  1  0.275800  0.390000  0.712200  1.0
  C  C1577  1  0.788600  0.802300  0.359800  1.0
  C  C1578  1  0.711400  0.197700  0.859800  1.0
  C  C1579  1  0.211400  0.302300  0.140200  1.0
  C  C1580  1  0.288600  0.697700  0.640200  1.0
  C  C1581  1  0.359800  0.788600  0.802300  1.0
  C  C1582  1  0.859800  0.711400  0.197700  1.0
  C  C1583  1  0.140200  0.211400  0.302300  1.0
  C  C1584  1  0.640200  0.288600  0.697700  1.0
  C  C1585  1  0.802300  0.359800  0.788600  1.0
  C  C1586  1  0.197700  0.859800  0.711400  1.0
  C  C1587  1  0.302300  0.140200  0.211400  1.0
  C  C1588  1  0.697700  0.640200  0.288600  1.0
  C  C1589  1  0.211400  0.197700  0.640200  1.0
  C  C1590  1  0.288600  0.802300  0.140200  1.0
  C  C1591  1  0.788600  0.697700  0.859800  1.0
  C  C1592  1  0.711400  0.302300  0.359800  1.0
  C  C1593  1  0.640200  0.211400  0.197700  1.0
  C  C1594  1  0.140200  0.288600  0.802300  1.0
  C  C1595  1  0.859800  0.788600  0.697700  1.0
  C  C1596  1  0.359800  0.711400  0.302300  1.0
  C  C1597  1  0.197700  0.640200  0.211400  1.0
  C  C1598  1  0.802300  0.140200  0.288600  1.0
  C  C1599  1  0.697700  0.859800  0.788600  1.0
  C  C1600  1  0.302300  0.359800  0.711400  1.0
  C  C1601  1  0.701300  0.077500  0.998900  1.0
  C  C1602  1  0.798700  0.922500  0.498900  1.0
  C  C1603  1  0.298700  0.577500  0.501100  1.0
  C  C1604  1  0.201300  0.422500  0.001100  1.0
  C  C1605  1  0.998900  0.701300  0.077500  1.0
  C  C1606  1  0.498900  0.798700  0.922500  1.0
  C  C1607  1  0.501100  0.298700  0.577500  1.0
  C  C1608  1  0.001100  0.201300  0.422500  1.0
  C  C1609  1  0.077500  0.998900  0.701300  1.0
  C  C1610  1  0.922500  0.498900  0.798700  1.0
  C  C1611  1  0.577500  0.501100  0.298700  1.0
  C  C1612  1  0.422500  0.001100  0.201300  1.0
  C  C1613  1  0.298700  0.922500  0.001100  1.0
  C  C1614  1  0.201300  0.077500  0.501100  1.0
  C  C1615  1  0.701300  0.422500  0.498900  1.0
  C  C1616  1  0.798700  0.577500  0.998900  1.0
  C  C1617  1  0.001100  0.298700  0.922500  1.0
  C  C1618  1  0.501100  0.201300  0.077500  1.0
  C  C1619  1  0.498900  0.701300  0.422500  1.0
  C  C1620  1  0.998900  0.798700  0.577500  1.0
  C  C1621  1  0.922500  0.001100  0.298700  1.0
  C  C1622  1  0.077500  0.501100  0.201300  1.0
  C  C1623  1  0.422500  0.498900  0.701300  1.0
  C  C1624  1  0.577500  0.998900  0.798700  1.0
  C  C1625  1  0.753500  0.113300  0.019900  1.0
  C  C1626  1  0.746500  0.886700  0.519900  1.0
  C  C1627  1  0.246500  0.613300  0.480100  1.0
  C  C1628  1  0.253500  0.386700  0.980100  1.0
  C  C1629  1  0.019900  0.753500  0.113300  1.0
  C  C1630  1  0.519900  0.746500  0.886700  1.0
  C  C1631  1  0.480100  0.246500  0.613300  1.0
  C  C1632  1  0.980100  0.253500  0.386700  1.0
  C  C1633  1  0.113300  0.019900  0.753500  1.0
  C  C1634  1  0.886700  0.519900  0.746500  1.0
  C  C1635  1  0.613300  0.480100  0.246500  1.0
  C  C1636  1  0.386700  0.980100  0.253500  1.0
  C  C1637  1  0.246500  0.886700  0.980100  1.0
  C  C1638  1  0.253500  0.113300  0.480100  1.0
  C  C1639  1  0.753500  0.386700  0.519900  1.0
  C  C1640  1  0.746500  0.613300  0.019900  1.0
  C  C1641  1  0.980100  0.246500  0.886700  1.0
  C  C1642  1  0.480100  0.253500  0.113300  1.0
  C  C1643  1  0.519900  0.753500  0.386700  1.0
  C  C1644  1  0.019900  0.746500  0.613300  1.0
  C  C1645  1  0.886700  0.980100  0.246500  1.0
  C  C1646  1  0.113300  0.480100  0.253500  1.0
  C  C1647  1  0.386700  0.519900  0.753500  1.0
  C  C1648  1  0.613300  0.019900  0.746500  1.0
  C  C1649  1  0.734200  0.147000  0.011400  1.0
  C  C1650  1  0.765800  0.853000  0.511400  1.0
  C  C1651  1  0.265800  0.647000  0.488600  1.0
  C  C1652  1  0.234200  0.353000  0.988600  1.0
  C  C1653  1  0.011400  0.734200  0.147000  1.0
  C  C1654  1  0.511400  0.765800  0.853000  1.0
  C  C1655  1  0.488600  0.265800  0.647000  1.0
  C  C1656  1  0.988600  0.234200  0.353000  1.0
  C  C1657  1  0.147000  0.011400  0.734200  1.0
  C  C1658  1  0.853000  0.511400  0.765800  1.0
  C  C1659  1  0.647000  0.488600  0.265800  1.0
  C  C1660  1  0.353000  0.988600  0.234200  1.0
  C  C1661  1  0.265800  0.853000  0.988600  1.0
  C  C1662  1  0.234200  0.147000  0.488600  1.0
  C  C1663  1  0.734200  0.353000  0.511400  1.0
  C  C1664  1  0.765800  0.647000  0.011400  1.0
  C  C1665  1  0.988600  0.265800  0.853000  1.0
  C  C1666  1  0.488600  0.234200  0.147000  1.0
  C  C1667  1  0.511400  0.734200  0.353000  1.0
  C  C1668  1  0.011400  0.765800  0.647000  1.0
  C  C1669  1  0.853000  0.988600  0.265800  1.0
  C  C1670  1  0.147000  0.488600  0.234200  1.0
  C  C1671  1  0.353000  0.511400  0.734200  1.0
  C  C1672  1  0.647000  0.011400  0.765800  1.0
  C  C1673  1  0.696500  0.146300  0.998200  1.0
  C  C1674  1  0.803500  0.853700  0.498200  1.0
  C  C1675  1  0.303500  0.646300  0.501800  1.0
  C  C1676  1  0.196500  0.353700  0.001800  1.0
  C  C1677  1  0.998200  0.696500  0.146300  1.0
  C  C1678  1  0.498200  0.803500  0.853700  1.0
  C  C1679  1  0.501800  0.303500  0.646300  1.0
  C  C1680  1  0.001800  0.196500  0.353700  1.0
  C  C1681  1  0.146300  0.998200  0.696500  1.0
  C  C1682  1  0.853700  0.498200  0.803500  1.0
  C  C1683  1  0.646300  0.501800  0.303500  1.0
  C  C1684  1  0.353700  0.001800  0.196500  1.0
  C  C1685  1  0.303500  0.853700  0.001800  1.0
  C  C1686  1  0.196500  0.146300  0.501800  1.0
  C  C1687  1  0.696500  0.353700  0.498200  1.0
  C  C1688  1  0.803500  0.646300  0.998200  1.0
  C  C1689  1  0.001800  0.303500  0.853700  1.0
  C  C1690  1  0.501800  0.196500  0.146300  1.0
  C  C1691  1  0.498200  0.696500  0.353700  1.0
  C  C1692  1  0.998200  0.803500  0.646300  1.0
  C  C1693  1  0.853700  0.001800  0.303500  1.0
  C  C1694  1  0.146300  0.501800  0.196500  1.0
  C  C1695  1  0.353700  0.498200  0.696500  1.0
  C  C1696  1  0.646300  0.998200  0.803500  1.0
  C  C1697  1  0.680800  0.110400  0.991300  1.0
  C  C1698  1  0.819200  0.889600  0.491300  1.0
  C  C1699  1  0.319200  0.610400  0.508700  1.0
  C  C1700  1  0.180800  0.389600  0.008700  1.0
  C  C1701  1  0.991300  0.680800  0.110400  1.0
  C  C1702  1  0.491300  0.819200  0.889600  1.0
  C  C1703  1  0.508700  0.319200  0.610400  1.0
  C  C1704  1  0.008700  0.180800  0.389600  1.0
  C  C1705  1  0.110400  0.991300  0.680800  1.0
  C  C1706  1  0.889600  0.491300  0.819200  1.0
  C  C1707  1  0.610400  0.508700  0.319200  1.0
  C  C1708  1  0.389600  0.008700  0.180800  1.0
  C  C1709  1  0.319200  0.889600  0.008700  1.0
  C  C1710  1  0.180800  0.110400  0.508700  1.0
  C  C1711  1  0.680800  0.389600  0.491300  1.0
  C  C1712  1  0.819200  0.610400  0.991300  1.0
  C  C1713  1  0.008700  0.319200  0.889600  1.0
  C  C1714  1  0.508700  0.180800  0.110400  1.0
  C  C1715  1  0.491300  0.680800  0.389600  1.0
  C  C1716  1  0.991300  0.819200  0.610400  1.0
  C  C1717  1  0.889600  0.008700  0.319200  1.0
  C  C1718  1  0.110400  0.508700  0.180800  1.0
  C  C1719  1  0.389600  0.491300  0.680800  1.0
  C  C1720  1  0.610400  0.991300  0.819200  1.0
  C  C1721  1  0.684500  0.038400  0.993900  1.0
  C  C1722  1  0.815500  0.961600  0.493900  1.0
  C  C1723  1  0.315500  0.538400  0.506100  1.0
  C  C1724  1  0.184500  0.461600  0.006100  1.0
  C  C1725  1  0.993900  0.684500  0.038400  1.0
  C  C1726  1  0.493900  0.815500  0.961600  1.0
  C  C1727  1  0.506100  0.315500  0.538400  1.0
  C  C1728  1  0.006100  0.184500  0.461600  1.0
  C  C1729  1  0.038400  0.993900  0.684500  1.0
  C  C1730  1  0.961600  0.493900  0.815500  1.0
  C  C1731  1  0.538400  0.506100  0.315500  1.0
  C  C1732  1  0.461600  0.006100  0.184500  1.0
  C  C1733  1  0.315500  0.961600  0.006100  1.0
  C  C1734  1  0.184500  0.038400  0.506100  1.0
  C  C1735  1  0.684500  0.461600  0.493900  1.0
  C  C1736  1  0.815500  0.538400  0.993900  1.0
  C  C1737  1  0.006100  0.315500  0.961600  1.0
  C  C1738  1  0.506100  0.184500  0.038400  1.0
  C  C1739  1  0.493900  0.684500  0.461600  1.0
  C  C1740  1  0.993900  0.815500  0.538400  1.0
  C  C1741  1  0.961600  0.006100  0.315500  1.0
  C  C1742  1  0.038400  0.506100  0.184500  1.0
  C  C1743  1  0.461600  0.493900  0.684500  1.0
  C  C1744  1  0.538400  0.993900  0.815500  1.0
  C  C1745  1  0.689500  0.972100  0.002600  1.0
  C  C1746  1  0.810500  0.027900  0.502600  1.0
  C  C1747  1  0.310500  0.472100  0.497400  1.0
  C  C1748  1  0.189500  0.527900  0.997400  1.0
  C  C1749  1  0.002600  0.689500  0.972100  1.0
  C  C1750  1  0.502600  0.810500  0.027900  1.0
  C  C1751  1  0.497400  0.310500  0.472100  1.0
  C  C1752  1  0.997400  0.189500  0.527900  1.0
  C  C1753  1  0.972100  0.002600  0.689500  1.0
  C  C1754  1  0.027900  0.502600  0.810500  1.0
  C  C1755  1  0.472100  0.497400  0.310500  1.0
  C  C1756  1  0.527900  0.997400  0.189500  1.0
  C  C1757  1  0.310500  0.027900  0.997400  1.0
  C  C1758  1  0.189500  0.972100  0.497400  1.0
  C  C1759  1  0.689500  0.527900  0.502600  1.0
  C  C1760  1  0.810500  0.472100  0.002600  1.0
  C  C1761  1  0.997400  0.310500  0.027900  1.0
  C  C1762  1  0.497400  0.189500  0.972100  1.0
  C  C1763  1  0.502600  0.689500  0.527900  1.0
  C  C1764  1  0.002600  0.810500  0.472100  1.0
  C  C1765  1  0.027900  0.997400  0.310500  1.0
  C  C1766  1  0.972100  0.497400  0.189500  1.0
  C  C1767  1  0.527900  0.502600  0.689500  1.0
  C  C1768  1  0.472100  0.002600  0.810500  1.0
  C  C1769  1  0.702900  0.946000  0.975100  1.0
  C  C1770  1  0.797100  0.054000  0.475100  1.0
  C  C1771  1  0.297100  0.446000  0.524900  1.0
  C  C1772  1  0.202900  0.554000  0.024900  1.0
  C  C1773  1  0.975100  0.702900  0.946000  1.0
  C  C1774  1  0.475100  0.797100  0.054000  1.0
  C  C1775  1  0.524900  0.297100  0.446000  1.0
  C  C1776  1  0.024900  0.202900  0.554000  1.0
  C  C1777  1  0.946000  0.975100  0.702900  1.0
  C  C1778  1  0.054000  0.475100  0.797100  1.0
  C  C1779  1  0.446000  0.524900  0.297100  1.0
  C  C1780  1  0.554000  0.024900  0.202900  1.0
  C  C1781  1  0.297100  0.054000  0.024900  1.0
  C  C1782  1  0.202900  0.946000  0.524900  1.0
  C  C1783  1  0.702900  0.554000  0.475100  1.0
  C  C1784  1  0.797100  0.446000  0.975100  1.0
  C  C1785  1  0.024900  0.297100  0.054000  1.0
  C  C1786  1  0.524900  0.202900  0.946000  1.0
  C  C1787  1  0.475100  0.702900  0.554000  1.0
  C  C1788  1  0.975100  0.797100  0.446000  1.0
  C  C1789  1  0.054000  0.024900  0.297100  1.0
  C  C1790  1  0.946000  0.524900  0.202900  1.0
  C  C1791  1  0.554000  0.475100  0.702900  1.0
  C  C1792  1  0.446000  0.975100  0.797100  1.0
  C  C1793  1  0.687300  0.910300  0.969900  1.0
  C  C1794  1  0.812700  0.089700  0.469900  1.0
  C  C1795  1  0.312700  0.410300  0.530100  1.0
  C  C1796  1  0.187300  0.589700  0.030100  1.0
  C  C1797  1  0.969900  0.687300  0.910300  1.0
  C  C1798  1  0.469900  0.812700  0.089700  1.0
  C  C1799  1  0.530100  0.312700  0.410300  1.0
  C  C1800  1  0.030100  0.187300  0.589700  1.0
  C  C1801  1  0.910300  0.969900  0.687300  1.0
  C  C1802  1  0.089700  0.469900  0.812700  1.0
  C  C1803  1  0.410300  0.530100  0.312700  1.0
  C  C1804  1  0.589700  0.030100  0.187300  1.0
  C  C1805  1  0.312700  0.089700  0.030100  1.0
  C  C1806  1  0.187300  0.910300  0.530100  1.0
  C  C1807  1  0.687300  0.589700  0.469900  1.0
  C  C1808  1  0.812700  0.410300  0.969900  1.0
  C  C1809  1  0.030100  0.312700  0.089700  1.0
  C  C1810  1  0.530100  0.187300  0.910300  1.0
  C  C1811  1  0.469900  0.687300  0.589700  1.0
  C  C1812  1  0.969900  0.812700  0.410300  1.0
  C  C1813  1  0.089700  0.030100  0.312700  1.0
  C  C1814  1  0.910300  0.530100  0.187300  1.0
  C  C1815  1  0.589700  0.469900  0.687300  1.0
  C  C1816  1  0.410300  0.969900  0.812700  1.0
  C  C1817  1  0.654300  0.899900  0.990700  1.0
  C  C1818  1  0.845700  0.100100  0.490700  1.0
  C  C1819  1  0.345700  0.399900  0.509300  1.0
  C  C1820  1  0.154300  0.600100  0.009300  1.0
  C  C1821  1  0.990700  0.654300  0.899900  1.0
  C  C1822  1  0.490700  0.845700  0.100100  1.0
  C  C1823  1  0.509300  0.345700  0.399900  1.0
  C  C1824  1  0.009300  0.154300  0.600100  1.0
  C  C1825  1  0.899900  0.990700  0.654300  1.0
  C  C1826  1  0.100100  0.490700  0.845700  1.0
  C  C1827  1  0.399900  0.509300  0.345700  1.0
  C  C1828  1  0.600100  0.009300  0.154300  1.0
  C  C1829  1  0.345700  0.100100  0.009300  1.0
  C  C1830  1  0.154300  0.899900  0.509300  1.0
  C  C1831  1  0.654300  0.600100  0.490700  1.0
  C  C1832  1  0.845700  0.399900  0.990700  1.0
  C  C1833  1  0.009300  0.345700  0.100100  1.0
  C  C1834  1  0.509300  0.154300  0.899900  1.0
  C  C1835  1  0.490700  0.654300  0.600100  1.0
  C  C1836  1  0.990700  0.845700  0.399900  1.0
  C  C1837  1  0.100100  0.009300  0.345700  1.0
  C  C1838  1  0.899900  0.509300  0.154300  1.0
  C  C1839  1  0.600100  0.490700  0.654300  1.0
  C  C1840  1  0.399900  0.990700  0.845700  1.0
  C  C1841  1  0.641900  0.925000  0.018200  1.0
  C  C1842  1  0.858100  0.075000  0.518200  1.0
  C  C1843  1  0.358100  0.425000  0.481800  1.0
  C  C1844  1  0.141900  0.575000  0.981800  1.0
  C  C1845  1  0.018200  0.641900  0.925000  1.0
  C  C1846  1  0.518200  0.858100  0.075000  1.0
  C  C1847  1  0.481800  0.358100  0.425000  1.0
  C  C1848  1  0.981800  0.141900  0.575000  1.0
  C  C1849  1  0.925000  0.018200  0.641900  1.0
  C  C1850  1  0.075000  0.518200  0.858100  1.0
  C  C1851  1  0.425000  0.481800  0.358100  1.0
  C  C1852  1  0.575000  0.981800  0.141900  1.0
  C  C1853  1  0.358100  0.075000  0.981800  1.0
  C  C1854  1  0.141900  0.925000  0.481800  1.0
  C  C1855  1  0.641900  0.575000  0.518200  1.0
  C  C1856  1  0.858100  0.425000  0.018200  1.0
  C  C1857  1  0.981800  0.358100  0.075000  1.0
  C  C1858  1  0.481800  0.141900  0.925000  1.0
  C  C1859  1  0.518200  0.641900  0.575000  1.0
  C  C1860  1  0.018200  0.858100  0.425000  1.0
  C  C1861  1  0.075000  0.981800  0.358100  1.0
  C  C1862  1  0.925000  0.481800  0.141900  1.0
  C  C1863  1  0.575000  0.518200  0.641900  1.0
  C  C1864  1  0.425000  0.018200  0.858100  1.0
  C  C1865  1  0.658700  0.961000  0.024800  1.0
  C  C1866  1  0.841300  0.039000  0.524800  1.0
  C  C1867  1  0.341300  0.461000  0.475200  1.0
  C  C1868  1  0.158700  0.539000  0.975200  1.0
  C  C1869  1  0.024800  0.658700  0.961000  1.0
  C  C1870  1  0.524800  0.841300  0.039000  1.0
  C  C1871  1  0.475200  0.341300  0.461000  1.0
  C  C1872  1  0.975200  0.158700  0.539000  1.0
  C  C1873  1  0.961000  0.024800  0.658700  1.0
  C  C1874  1  0.039000  0.524800  0.841300  1.0
  C  C1875  1  0.461000  0.475200  0.341300  1.0
  C  C1876  1  0.539000  0.975200  0.158700  1.0
  C  C1877  1  0.341300  0.039000  0.975200  1.0
  C  C1878  1  0.158700  0.961000  0.475200  1.0
  C  C1879  1  0.658700  0.539000  0.524800  1.0
  C  C1880  1  0.841300  0.461000  0.024800  1.0
  C  C1881  1  0.975200  0.341300  0.039000  1.0
  C  C1882  1  0.475200  0.158700  0.961000  1.0
  C  C1883  1  0.524800  0.658700  0.539000  1.0
  C  C1884  1  0.024800  0.841300  0.461000  1.0
  C  C1885  1  0.039000  0.975200  0.341300  1.0
  C  C1886  1  0.961000  0.475200  0.158700  1.0
  C  C1887  1  0.539000  0.524800  0.658700  1.0
  C  C1888  1  0.461000  0.024800  0.841300  1.0
  C  C1889  1  0.807200  0.054700  0.082200  1.0
  C  C1890  1  0.692800  0.945300  0.582200  1.0
  C  C1891  1  0.192800  0.554700  0.417800  1.0
  C  C1892  1  0.307200  0.445300  0.917800  1.0
  C  C1893  1  0.082200  0.807200  0.054700  1.0
  C  C1894  1  0.582200  0.692800  0.945300  1.0
  C  C1895  1  0.417800  0.192800  0.554700  1.0
  C  C1896  1  0.917800  0.307200  0.445300  1.0
  C  C1897  1  0.054700  0.082200  0.807200  1.0
  C  C1898  1  0.945300  0.582200  0.692800  1.0
  C  C1899  1  0.554700  0.417800  0.192800  1.0
  C  C1900  1  0.445300  0.917800  0.307200  1.0
  C  C1901  1  0.192800  0.945300  0.917800  1.0
  C  C1902  1  0.307200  0.054700  0.417800  1.0
  C  C1903  1  0.807200  0.445300  0.582200  1.0
  C  C1904  1  0.692800  0.554700  0.082200  1.0
  C  C1905  1  0.917800  0.192800  0.945300  1.0
  C  C1906  1  0.417800  0.307200  0.054700  1.0
  C  C1907  1  0.582200  0.807200  0.445300  1.0
  C  C1908  1  0.082200  0.692800  0.554700  1.0
  C  C1909  1  0.945300  0.917800  0.192800  1.0
  C  C1910  1  0.054700  0.417800  0.307200  1.0
  C  C1911  1  0.445300  0.582200  0.807200  1.0
  C  C1912  1  0.554700  0.082200  0.692800  1.0
  C  C1913  1  0.840500  0.055500  0.021200  1.0
  C  C1914  1  0.659500  0.944500  0.521200  1.0
  C  C1915  1  0.159500  0.555500  0.478800  1.0
  C  C1916  1  0.340500  0.444500  0.978800  1.0
  C  C1917  1  0.021200  0.840500  0.055500  1.0
  C  C1918  1  0.521200  0.659500  0.944500  1.0
  C  C1919  1  0.478800  0.159500  0.555500  1.0
  C  C1920  1  0.978800  0.340500  0.444500  1.0
  C  C1921  1  0.055500  0.021200  0.840500  1.0
  C  C1922  1  0.944500  0.521200  0.659500  1.0
  C  C1923  1  0.555500  0.478800  0.159500  1.0
  C  C1924  1  0.444500  0.978800  0.340500  1.0
  C  C1925  1  0.159500  0.944500  0.978800  1.0
  C  C1926  1  0.340500  0.055500  0.478800  1.0
  C  C1927  1  0.840500  0.444500  0.521200  1.0
  C  C1928  1  0.659500  0.555500  0.021200  1.0
  C  C1929  1  0.978800  0.159500  0.944500  1.0
  C  C1930  1  0.478800  0.340500  0.055500  1.0
  C  C1931  1  0.521200  0.840500  0.444500  1.0
  C  C1932  1  0.021200  0.659500  0.555500  1.0
  C  C1933  1  0.944500  0.978800  0.159500  1.0
  C  C1934  1  0.055500  0.478800  0.340500  1.0
  C  C1935  1  0.444500  0.521200  0.840500  1.0
  C  C1936  1  0.555500  0.021200  0.659500  1.0
  C  C1937  1  0.872100  0.073000  0.038600  1.0
  C  C1938  1  0.627900  0.927000  0.538600  1.0
  C  C1939  1  0.127900  0.573000  0.461400  1.0
  C  C1940  1  0.372100  0.427000  0.961400  1.0
  C  C1941  1  0.038600  0.872100  0.073000  1.0
  C  C1942  1  0.538600  0.627900  0.927000  1.0
  C  C1943  1  0.461400  0.127900  0.573000  1.0
  C  C1944  1  0.961400  0.372100  0.427000  1.0
  C  C1945  1  0.073000  0.038600  0.872100  1.0
  C  C1946  1  0.927000  0.538600  0.627900  1.0
  C  C1947  1  0.573000  0.461400  0.127900  1.0
  C  C1948  1  0.427000  0.961400  0.372100  1.0
  C  C1949  1  0.127900  0.927000  0.961400  1.0
  C  C1950  1  0.372100  0.073000  0.461400  1.0
  C  C1951  1  0.872100  0.427000  0.538600  1.0
  C  C1952  1  0.627900  0.573000  0.038600  1.0
  C  C1953  1  0.961400  0.127900  0.927000  1.0
  C  C1954  1  0.461400  0.372100  0.073000  1.0
  C  C1955  1  0.538600  0.872100  0.427000  1.0
  C  C1956  1  0.038600  0.627900  0.573000  1.0
  C  C1957  1  0.927000  0.961400  0.127900  1.0
  C  C1958  1  0.073000  0.461400  0.372100  1.0
  C  C1959  1  0.427000  0.538600  0.872100  1.0
  C  C1960  1  0.573000  0.038600  0.627900  1.0
  C  C1961  1  0.871300  0.081300  0.077900  1.0
  C  C1962  1  0.628700  0.918700  0.577900  1.0
  C  C1963  1  0.128700  0.581300  0.422100  1.0
  C  C1964  1  0.371300  0.418700  0.922100  1.0
  C  C1965  1  0.077900  0.871300  0.081300  1.0
  C  C1966  1  0.577900  0.628700  0.918700  1.0
  C  C1967  1  0.422100  0.128700  0.581300  1.0
  C  C1968  1  0.922100  0.371300  0.418700  1.0
  C  C1969  1  0.081300  0.077900  0.871300  1.0
  C  C1970  1  0.918700  0.577900  0.628700  1.0
  C  C1971  1  0.581300  0.422100  0.128700  1.0
  C  C1972  1  0.418700  0.922100  0.371300  1.0
  C  C1973  1  0.128700  0.918700  0.922100  1.0
  C  C1974  1  0.371300  0.081300  0.422100  1.0
  C  C1975  1  0.871300  0.418700  0.577900  1.0
  C  C1976  1  0.628700  0.581300  0.077900  1.0
  C  C1977  1  0.922100  0.128700  0.918700  1.0
  C  C1978  1  0.422100  0.371300  0.081300  1.0
  C  C1979  1  0.577900  0.871300  0.418700  1.0
  C  C1980  1  0.077900  0.628700  0.581300  1.0
  C  C1981  1  0.918700  0.922100  0.128700  1.0
  C  C1982  1  0.081300  0.422100  0.371300  1.0
  C  C1983  1  0.418700  0.577900  0.871300  1.0
  C  C1984  1  0.581300  0.077900  0.628700  1.0
  C  C1985  1  0.838900  0.072200  0.099700  1.0
  C  C1986  1  0.661100  0.927800  0.599700  1.0
  C  C1987  1  0.161100  0.572200  0.400300  1.0
  C  C1988  1  0.338900  0.427800  0.900300  1.0
  C  C1989  1  0.099700  0.838900  0.072200  1.0
  C  C1990  1  0.599700  0.661100  0.927800  1.0
  C  C1991  1  0.400300  0.161100  0.572200  1.0
  C  C1992  1  0.900300  0.338900  0.427800  1.0
  C  C1993  1  0.072200  0.099700  0.838900  1.0
  C  C1994  1  0.927800  0.599700  0.661100  1.0
  C  C1995  1  0.572200  0.400300  0.161100  1.0
  C  C1996  1  0.427800  0.900300  0.338900  1.0
  C  C1997  1  0.161100  0.927800  0.900300  1.0
  C  C1998  1  0.338900  0.072200  0.400300  1.0
  C  C1999  1  0.838900  0.427800  0.599700  1.0
  C  C2000  1  0.661100  0.572200  0.099700  1.0
  C  C2001  1  0.900300  0.161100  0.927800  1.0
  C  C2002  1  0.400300  0.338900  0.072200  1.0
  C  C2003  1  0.599700  0.838900  0.427800  1.0
  C  C2004  1  0.099700  0.661100  0.572200  1.0
  C  C2005  1  0.927800  0.900300  0.161100  1.0
  C  C2006  1  0.072200  0.400300  0.338900  1.0
  C  C2007  1  0.427800  0.599700  0.838900  1.0
  C  C2008  1  0.572200  0.099700  0.661100  1.0
  C  C2009  1  0.771800  0.045800  0.099800  1.0
  C  C2010  1  0.728200  0.954200  0.599800  1.0
  C  C2011  1  0.228200  0.545800  0.400200  1.0
  C  C2012  1  0.271800  0.454200  0.900200  1.0
  C  C2013  1  0.099800  0.771800  0.045800  1.0
  C  C2014  1  0.599800  0.728200  0.954200  1.0
  C  C2015  1  0.400200  0.228200  0.545800  1.0
  C  C2016  1  0.900200  0.271800  0.454200  1.0
  C  C2017  1  0.045800  0.099800  0.771800  1.0
  C  C2018  1  0.954200  0.599800  0.728200  1.0
  C  C2019  1  0.545800  0.400200  0.228200  1.0
  C  C2020  1  0.454200  0.900200  0.271800  1.0
  C  C2021  1  0.228200  0.954200  0.900200  1.0
  C  C2022  1  0.271800  0.045800  0.400200  1.0
  C  C2023  1  0.771800  0.454200  0.599800  1.0
  C  C2024  1  0.728200  0.545800  0.099800  1.0
  C  C2025  1  0.900200  0.228200  0.954200  1.0
  C  C2026  1  0.400200  0.271800  0.045800  1.0
  C  C2027  1  0.599800  0.771800  0.454200  1.0
  C  C2028  1  0.099800  0.728200  0.545800  1.0
  C  C2029  1  0.954200  0.900200  0.228200  1.0
  C  C2030  1  0.045800  0.400200  0.271800  1.0
  C  C2031  1  0.454200  0.599800  0.771800  1.0
  C  C2032  1  0.545800  0.099800  0.728200  1.0
  C  C2033  1  0.597100  0.791000  0.975300  1.0
  C  C2034  1  0.902900  0.209000  0.475300  1.0
  C  C2035  1  0.402900  0.291000  0.524700  1.0
  C  C2036  1  0.097100  0.709000  0.024700  1.0
  C  C2037  1  0.975300  0.597100  0.791000  1.0
  C  C2038  1  0.475300  0.902900  0.209000  1.0
  C  C2039  1  0.524700  0.402900  0.291000  1.0
  C  C2040  1  0.024700  0.097100  0.709000  1.0
  C  C2041  1  0.791000  0.975300  0.597100  1.0
  C  C2042  1  0.209000  0.475300  0.902900  1.0
  C  C2043  1  0.291000  0.524700  0.402900  1.0
  C  C2044  1  0.709000  0.024700  0.097100  1.0
  C  C2045  1  0.402900  0.209000  0.024700  1.0
  C  C2046  1  0.097100  0.791000  0.524700  1.0
  C  C2047  1  0.597100  0.709000  0.475300  1.0
  C  C2048  1  0.902900  0.291000  0.975300  1.0
  C  C2049  1  0.024700  0.402900  0.209000  1.0
  C  C2050  1  0.524700  0.097100  0.791000  1.0
  C  C2051  1  0.475300  0.597100  0.709000  1.0
  C  C2052  1  0.975300  0.902900  0.291000  1.0
  C  C2053  1  0.209000  0.024700  0.402900  1.0
  C  C2054  1  0.791000  0.524700  0.097100  1.0
  C  C2055  1  0.709000  0.475300  0.597100  1.0
  C  C2056  1  0.291000  0.975300  0.902900  1.0
  C  C2057  1  0.587200  0.822000  0.953200  1.0
  C  C2058  1  0.912800  0.178000  0.453200  1.0
  C  C2059  1  0.412800  0.322000  0.546800  1.0
  C  C2060  1  0.087200  0.678000  0.046800  1.0
  C  C2061  1  0.953200  0.587200  0.822000  1.0
  C  C2062  1  0.453200  0.912800  0.178000  1.0
  C  C2063  1  0.546800  0.412800  0.322000  1.0
  C  C2064  1  0.046800  0.087200  0.678000  1.0
  C  C2065  1  0.822000  0.953200  0.587200  1.0
  C  C2066  1  0.178000  0.453200  0.912800  1.0
  C  C2067  1  0.322000  0.546800  0.412800  1.0
  C  C2068  1  0.678000  0.046800  0.087200  1.0
  C  C2069  1  0.412800  0.178000  0.046800  1.0
  C  C2070  1  0.087200  0.822000  0.546800  1.0
  C  C2071  1  0.587200  0.678000  0.453200  1.0
  C  C2072  1  0.912800  0.322000  0.953200  1.0
  C  C2073  1  0.046800  0.412800  0.178000  1.0
  C  C2074  1  0.546800  0.087200  0.822000  1.0
  C  C2075  1  0.453200  0.587200  0.678000  1.0
  C  C2076  1  0.953200  0.912800  0.322000  1.0
  C  C2077  1  0.178000  0.046800  0.412800  1.0
  C  C2078  1  0.822000  0.546800  0.087200  1.0
  C  C2079  1  0.678000  0.453200  0.587200  1.0
  C  C2080  1  0.322000  0.953200  0.912800  1.0
  C  C2081  1  0.603500  0.858800  0.957900  1.0
  C  C2082  1  0.896500  0.141200  0.457900  1.0
  C  C2083  1  0.396500  0.358800  0.542100  1.0
  C  C2084  1  0.103500  0.641200  0.042100  1.0
  C  C2085  1  0.957900  0.603500  0.858800  1.0
  C  C2086  1  0.457900  0.896500  0.141200  1.0
  C  C2087  1  0.542100  0.396500  0.358800  1.0
  C  C2088  1  0.042100  0.103500  0.641200  1.0
  C  C2089  1  0.858800  0.957900  0.603500  1.0
  C  C2090  1  0.141200  0.457900  0.896500  1.0
  C  C2091  1  0.358800  0.542100  0.396500  1.0
  C  C2092  1  0.641200  0.042100  0.103500  1.0
  C  C2093  1  0.396500  0.141200  0.042100  1.0
  C  C2094  1  0.103500  0.858800  0.542100  1.0
  C  C2095  1  0.603500  0.641200  0.457900  1.0
  C  C2096  1  0.896500  0.358800  0.957900  1.0
  C  C2097  1  0.042100  0.396500  0.141200  1.0
  C  C2098  1  0.542100  0.103500  0.858800  1.0
  C  C2099  1  0.457900  0.603500  0.641200  1.0
  C  C2100  1  0.957900  0.896500  0.358800  1.0
  C  C2101  1  0.141200  0.042100  0.396500  1.0
  C  C2102  1  0.858800  0.542100  0.103500  1.0
  C  C2103  1  0.641200  0.457900  0.603500  1.0
  C  C2104  1  0.358800  0.957900  0.896500  1.0
  C  C2105  1  0.633500  0.863900  0.985200  1.0
  C  C2106  1  0.866500  0.136100  0.485200  1.0
  C  C2107  1  0.366500  0.363900  0.514800  1.0
  C  C2108  1  0.133500  0.636100  0.014800  1.0
  C  C2109  1  0.985200  0.633500  0.863900  1.0
  C  C2110  1  0.485200  0.866500  0.136100  1.0
  C  C2111  1  0.514800  0.366500  0.363900  1.0
  C  C2112  1  0.014800  0.133500  0.636100  1.0
  C  C2113  1  0.863900  0.985200  0.633500  1.0
  C  C2114  1  0.136100  0.485200  0.866500  1.0
  C  C2115  1  0.363900  0.514800  0.366500  1.0
  C  C2116  1  0.636100  0.014800  0.133500  1.0
  C  C2117  1  0.366500  0.136100  0.014800  1.0
  C  C2118  1  0.133500  0.863900  0.514800  1.0
  C  C2119  1  0.633500  0.636100  0.485200  1.0
  C  C2120  1  0.866500  0.363900  0.985200  1.0
  C  C2121  1  0.014800  0.366500  0.136100  1.0
  C  C2122  1  0.514800  0.133500  0.863900  1.0
  C  C2123  1  0.485200  0.633500  0.636100  1.0
  C  C2124  1  0.985200  0.866500  0.363900  1.0
  C  C2125  1  0.136100  0.014800  0.366500  1.0
  C  C2126  1  0.863900  0.514800  0.133500  1.0
  C  C2127  1  0.636100  0.485200  0.633500  1.0
  C  C2128  1  0.363900  0.985200  0.866500  1.0
  C  C2129  1  0.642100  0.831000  0.006800  1.0
  C  C2130  1  0.857900  0.169000  0.506800  1.0
  C  C2131  1  0.357900  0.331000  0.493200  1.0
  C  C2132  1  0.142100  0.669000  0.993200  1.0
  C  C2133  1  0.006800  0.642100  0.831000  1.0
  C  C2134  1  0.506800  0.857900  0.169000  1.0
  C  C2135  1  0.493200  0.357900  0.331000  1.0
  C  C2136  1  0.993200  0.142100  0.669000  1.0
  C  C2137  1  0.831000  0.006800  0.642100  1.0
  C  C2138  1  0.169000  0.506800  0.857900  1.0
  C  C2139  1  0.331000  0.493200  0.357900  1.0
  C  C2140  1  0.669000  0.993200  0.142100  1.0
  C  C2141  1  0.357900  0.169000  0.993200  1.0
  C  C2142  1  0.142100  0.831000  0.493200  1.0
  C  C2143  1  0.642100  0.669000  0.506800  1.0
  C  C2144  1  0.857900  0.331000  0.006800  1.0
  C  C2145  1  0.993200  0.357900  0.169000  1.0
  C  C2146  1  0.493200  0.142100  0.831000  1.0
  C  C2147  1  0.506800  0.642100  0.669000  1.0
  C  C2148  1  0.006800  0.857900  0.331000  1.0
  C  C2149  1  0.169000  0.993200  0.357900  1.0
  C  C2150  1  0.831000  0.493200  0.142100  1.0
  C  C2151  1  0.669000  0.506800  0.642100  1.0
  C  C2152  1  0.331000  0.006800  0.857900  1.0
  C  C2153  1  0.624800  0.795200  0.002600  1.0
  C  C2154  1  0.875200  0.204800  0.502600  1.0
  C  C2155  1  0.375200  0.295200  0.497400  1.0
  C  C2156  1  0.124800  0.704800  0.997400  1.0
  C  C2157  1  0.002600  0.624800  0.795200  1.0
  C  C2158  1  0.502600  0.875200  0.204800  1.0
  C  C2159  1  0.497400  0.375200  0.295200  1.0
  C  C2160  1  0.997400  0.124800  0.704800  1.0
  C  C2161  1  0.795200  0.002600  0.624800  1.0
  C  C2162  1  0.204800  0.502600  0.875200  1.0
  C  C2163  1  0.295200  0.497400  0.375200  1.0
  C  C2164  1  0.704800  0.997400  0.124800  1.0
  C  C2165  1  0.375200  0.204800  0.997400  1.0
  C  C2166  1  0.124800  0.795200  0.497400  1.0
  C  C2167  1  0.624800  0.704800  0.502600  1.0
  C  C2168  1  0.875200  0.295200  0.002600  1.0
  C  C2169  1  0.997400  0.375200  0.204800  1.0
  C  C2170  1  0.497400  0.124800  0.795200  1.0
  C  C2171  1  0.502600  0.624800  0.704800  1.0
  C  C2172  1  0.002600  0.875200  0.295200  1.0
  C  C2173  1  0.204800  0.997400  0.375200  1.0
  C  C2174  1  0.795200  0.497400  0.124800  1.0
  C  C2175  1  0.704800  0.502600  0.624800  1.0
  C  C2176  1  0.295200  0.002600  0.875200  1.0
  S  S2177  1  0.812060  0.949260  0.172420  1.0
  S  S2178  1  0.687940  0.050740  0.672420  1.0
  S  S2179  1  0.187940  0.449260  0.327580  1.0
  S  S2180  1  0.312060  0.550740  0.827580  1.0
  S  S2181  1  0.172420  0.812060  0.949260  1.0
  S  S2182  1  0.672420  0.687940  0.050740  1.0
  S  S2183  1  0.327580  0.187940  0.449260  1.0
  S  S2184  1  0.827580  0.312060  0.550740  1.0
  S  S2185  1  0.949260  0.172420  0.812060  1.0
  S  S2186  1  0.050740  0.672420  0.687940  1.0
  S  S2187  1  0.449260  0.327580  0.187940  1.0
  S  S2188  1  0.550740  0.827580  0.312060  1.0
  S  S2189  1  0.187940  0.050740  0.827580  1.0
  S  S2190  1  0.312060  0.949260  0.327580  1.0
  S  S2191  1  0.812060  0.550740  0.672420  1.0
  S  S2192  1  0.687940  0.449260  0.172420  1.0
  S  S2193  1  0.827580  0.187940  0.050740  1.0
  S  S2194  1  0.327580  0.312060  0.949260  1.0
  S  S2195  1  0.672420  0.812060  0.550740  1.0
  S  S2196  1  0.172420  0.687940  0.449260  1.0
  S  S2197  1  0.050740  0.827580  0.187940  1.0
  S  S2198  1  0.949260  0.327580  0.312060  1.0
  S  S2199  1  0.550740  0.672420  0.812060  1.0
  S  S2200  1  0.449260  0.172420  0.687940  1.0
  S  S2201  1  0.835370  0.826100  0.127980  1.0
  S  S2202  1  0.664630  0.173900  0.627980  1.0
  S  S2203  1  0.164630  0.326100  0.372020  1.0
  S  S2204  1  0.335370  0.673900  0.872020  1.0
  S  S2205  1  0.127980  0.835370  0.826100  1.0
  S  S2206  1  0.627980  0.664630  0.173900  1.0
  S  S2207  1  0.372020  0.164630  0.326100  1.0
  S  S2208  1  0.872020  0.335370  0.673900  1.0
  S  S2209  1  0.826100  0.127980  0.835370  1.0
  S  S2210  1  0.173900  0.627980  0.664630  1.0
  S  S2211  1  0.326100  0.372020  0.164630  1.0
  S  S2212  1  0.673900  0.872020  0.335370  1.0
  S  S2213  1  0.164630  0.173900  0.872020  1.0
  S  S2214  1  0.335370  0.826100  0.372020  1.0
  S  S2215  1  0.835370  0.673900  0.627980  1.0
  S  S2216  1  0.664630  0.326100  0.127980  1.0
  S  S2217  1  0.872020  0.164630  0.173900  1.0
  S  S2218  1  0.372020  0.335370  0.826100  1.0
  S  S2219  1  0.627980  0.835370  0.673900  1.0
  S  S2220  1  0.127980  0.664630  0.326100  1.0
  S  S2221  1  0.173900  0.872020  0.164630  1.0
  S  S2222  1  0.826100  0.372020  0.335370  1.0
  S  S2223  1  0.673900  0.627980  0.835370  1.0
  S  S2224  1  0.326100  0.127980  0.664630  1.0
  S  S2225  1  0.709330  0.878310  0.937100  1.0
  S  S2226  1  0.790670  0.121690  0.437100  1.0
  S  S2227  1  0.290670  0.378310  0.562900  1.0
  S  S2228  1  0.209330  0.621690  0.062900  1.0
  S  S2229  1  0.937100  0.709330  0.878310  1.0
  S  S2230  1  0.437100  0.790670  0.121690  1.0
  S  S2231  1  0.562900  0.290670  0.378310  1.0
  S  S2232  1  0.062900  0.209330  0.621690  1.0
  S  S2233  1  0.878310  0.937100  0.709330  1.0
  S  S2234  1  0.121690  0.437100  0.790670  1.0
  S  S2235  1  0.378310  0.562900  0.290670  1.0
  S  S2236  1  0.621690  0.062900  0.209330  1.0
  S  S2237  1  0.290670  0.121690  0.062900  1.0
  S  S2238  1  0.209330  0.878310  0.562900  1.0
  S  S2239  1  0.709330  0.621690  0.437100  1.0
  S  S2240  1  0.790670  0.378310  0.937100  1.0
  S  S2241  1  0.062900  0.290670  0.121690  1.0
  S  S2242  1  0.562900  0.209330  0.878310  1.0
  S  S2243  1  0.437100  0.709330  0.621690  1.0
  S  S2244  1  0.937100  0.790670  0.378310  1.0
  S  S2245  1  0.121690  0.062900  0.290670  1.0
  S  S2246  1  0.878310  0.562900  0.209330  1.0
  S  S2247  1  0.621690  0.437100  0.709330  1.0
  S  S2248  1  0.378310  0.937100  0.790670  1.0
  S  S2249  1  0.584380  0.896240  0.930390  1.0
  S  S2250  1  0.915620  0.103760  0.430390  1.0
  S  S2251  1  0.415620  0.396240  0.569610  1.0
  S  S2252  1  0.084380  0.603760  0.069610  1.0
  S  S2253  1  0.930390  0.584380  0.896240  1.0
  S  S2254  1  0.430390  0.915620  0.103760  1.0
  S  S2255  1  0.569610  0.415620  0.396240  1.0
  S  S2256  1  0.069610  0.084380  0.603760  1.0
  S  S2257  1  0.896240  0.930390  0.584380  1.0
  S  S2258  1  0.103760  0.430390  0.915620  1.0
  S  S2259  1  0.396240  0.569610  0.415620  1.0
  S  S2260  1  0.603760  0.069610  0.084380  1.0
  S  S2261  1  0.415620  0.103760  0.069610  1.0
  S  S2262  1  0.084380  0.896240  0.569610  1.0
  S  S2263  1  0.584380  0.603760  0.430390  1.0
  S  S2264  1  0.915620  0.396240  0.930390  1.0
  S  S2265  1  0.069610  0.415620  0.103760  1.0
  S  S2266  1  0.569610  0.084380  0.896240  1.0
  S  S2267  1  0.430390  0.584380  0.603760  1.0
  S  S2268  1  0.930390  0.915620  0.396240  1.0
  S  S2269  1  0.103760  0.069610  0.415620  1.0
  S  S2270  1  0.896240  0.569610  0.084380  1.0
  S  S2271  1  0.603760  0.430390  0.584380  1.0
  S  S2272  1  0.396240  0.930390  0.915620  1.0
  N  N2273  1  0.681900  0.776100  0.910200  1
  N  N2274  1  0.818100  0.223900  0.410200  1
  N  N2275  1  0.318100  0.276100  0.589800  1
  N  N2276  1  0.181900  0.723900  0.089800  1
  N  N2277  1  0.910200  0.681900  0.776100  1
  N  N2278  1  0.410200  0.818100  0.223900  1
  N  N2279  1  0.589800  0.318100  0.276100  1
  N  N2280  1  0.089800  0.181900  0.723900  1
  N  N2281  1  0.776100  0.910200  0.681900  1
  N  N2282  1  0.223900  0.410200  0.818100  1
  N  N2283  1  0.276100  0.589800  0.318100  1
  N  N2284  1  0.723900  0.089800  0.181900  1
  N  N2285  1  0.318100  0.223900  0.089800  1
  N  N2286  1  0.181900  0.776100  0.589800  1
  N  N2287  1  0.681900  0.723900  0.410200  1
  N  N2288  1  0.818100  0.276100  0.910200  1
  N  N2289  1  0.089800  0.318100  0.223900  1
  N  N2290  1  0.589800  0.181900  0.776100  1
  N  N2291  1  0.410200  0.681900  0.723900  1
  N  N2292  1  0.910200  0.818100  0.276100  1
  N  N2293  1  0.223900  0.089800  0.318100  1
  N  N2294  1  0.776100  0.589800  0.181900  1
  N  N2295  1  0.723900  0.410200  0.681900  1
  N  N2296  1  0.276100  0.910200  0.818100  1
  N  N2297  1  0.645500  0.737900  0.868800  1
  N  N2298  1  0.854500  0.262100  0.368800  1
  N  N2299  1  0.354500  0.237900  0.631200  1
  N  N2300  1  0.145500  0.762100  0.131200  1
  N  N2301  1  0.868800  0.645500  0.737900  1
  N  N2302  1  0.368800  0.854500  0.262100  1
  N  N2303  1  0.631200  0.354500  0.237900  1
  N  N2304  1  0.131200  0.145500  0.762100  1
  N  N2305  1  0.737900  0.868800  0.645500  1
  N  N2306  1  0.262100  0.368800  0.854500  1
  N  N2307  1  0.237900  0.631200  0.354500  1
  N  N2308  1  0.762100  0.131200  0.145500  1
  N  N2309  1  0.354500  0.262100  0.131200  1
  N  N2310  1  0.145500  0.737900  0.631200  1
  N  N2311  1  0.645500  0.762100  0.368800  1
  N  N2312  1  0.854500  0.237900  0.868800  1
  N  N2313  1  0.131200  0.354500  0.262100  1
  N  N2314  1  0.631200  0.145500  0.737900  1
  N  N2315  1  0.368800  0.645500  0.762100  1
  N  N2316  1  0.868800  0.854500  0.237900  1
  N  N2317  1  0.262100  0.131200  0.354500  1
  N  N2318  1  0.737900  0.631200  0.145500  1
  N  N2319  1  0.762100  0.368800  0.645500  1
  N  N2320  1  0.237900  0.868800  0.854500  1
  N  N2321  1  0.640200  0.804600  0.865900  1
  N  N2322  1  0.859800  0.195400  0.365900  1
  N  N2323  1  0.359800  0.304600  0.634100  1
  N  N2324  1  0.140200  0.695400  0.134100  1
  N  N2325  1  0.865900  0.640200  0.804600  1
  N  N2326  1  0.365900  0.859800  0.195400  1
  N  N2327  1  0.634100  0.359800  0.304600  1
  N  N2328  1  0.134100  0.140200  0.695400  1
  N  N2329  1  0.804600  0.865900  0.640200  1
  N  N2330  1  0.195400  0.365900  0.859800  1
  N  N2331  1  0.304600  0.634100  0.359800  1
  N  N2332  1  0.695400  0.134100  0.140200  1
  N  N2333  1  0.359800  0.195400  0.134100  1
  N  N2334  1  0.140200  0.804600  0.634100  1
  N  N2335  1  0.640200  0.695400  0.365900  1
  N  N2336  1  0.859800  0.304600  0.865900  1
  N  N2337  1  0.134100  0.359800  0.195400  1
  N  N2338  1  0.634100  0.140200  0.804600  1
  N  N2339  1  0.365900  0.640200  0.695400  1
  N  N2340  1  0.865900  0.859800  0.304600  1
  N  N2341  1  0.195400  0.134100  0.359800  1
  N  N2342  1  0.804600  0.634100  0.140200  1
  N  N2343  1  0.695400  0.365900  0.640200  1
  N  N2344  1  0.304600  0.865900  0.859800  1
  N  N2345  1  0.561000  0.990400  0.013400  1.0
  N  N2346  1  0.939000  0.009600  0.513400  1.0
  N  N2347  1  0.439000  0.490400  0.486600  1.0
  N  N2348  1  0.061000  0.509600  0.986600  1.0
  N  N2349  1  0.013400  0.561000  0.990400  1.0
  N  N2350  1  0.513400  0.939000  0.009600  1.0
  N  N2351  1  0.486600  0.439000  0.490400  1.0
  N  N2352  1  0.986600  0.061000  0.509600  1.0
  N  N2353  1  0.990400  0.013400  0.561000  1.0
  N  N2354  1  0.009600  0.513400  0.939000  1.0
  N  N2355  1  0.490400  0.486600  0.439000  1.0
  N  N2356  1  0.509600  0.986600  0.061000  1.0
  N  N2357  1  0.439000  0.009600  0.986600  1.0
  N  N2358  1  0.061000  0.990400  0.486600  1.0
  N  N2359  1  0.561000  0.509600  0.513400  1.0
  N  N2360  1  0.939000  0.490400  0.013400  1.0
  N  N2361  1  0.986600  0.439000  0.009600  1.0
  N  N2362  1  0.486600  0.061000  0.990400  1.0
  N  N2363  1  0.513400  0.561000  0.509600  1.0
  N  N2364  1  0.013400  0.939000  0.490400  1.0
  N  N2365  1  0.009600  0.986600  0.439000  1.0
  N  N2366  1  0.990400  0.486600  0.061000  1.0
  N  N2367  1  0.509600  0.513400  0.561000  1.0
  N  N2368  1  0.490400  0.013400  0.939000  1.0
  N  N2369  1  0.771300  0.751900  0.315190  1.0
  N  N2370  1  0.728700  0.248100  0.815190  1.0
  N  N2371  1  0.228700  0.251900  0.184810  1.0
  N  N2372  1  0.271300  0.748100  0.684810  1.0
  N  N2373  1  0.315190  0.771300  0.751900  1.0
  N  N2374  1  0.815190  0.728700  0.248100  1.0
  N  N2375  1  0.184810  0.228700  0.251900  1.0
  N  N2376  1  0.684810  0.271300  0.748100  1.0
  N  N2377  1  0.751900  0.315190  0.771300  1.0
  N  N2378  1  0.248100  0.815190  0.728700  1.0
  N  N2379  1  0.251900  0.184810  0.228700  1.0
  N  N2380  1  0.748100  0.684810  0.271300  1.0
  N  N2381  1  0.228700  0.248100  0.684810  1.0
  N  N2382  1  0.271300  0.751900  0.184810  1.0
  N  N2383  1  0.771300  0.748100  0.815190  1.0
  N  N2384  1  0.728700  0.251900  0.315190  1.0
  N  N2385  1  0.684810  0.228700  0.248100  1.0
  N  N2386  1  0.184810  0.271300  0.751900  1.0
  N  N2387  1  0.815190  0.771300  0.748100  1.0
  N  N2388  1  0.315190  0.728700  0.251900  1.0
  N  N2389  1  0.248100  0.684810  0.228700  1.0
  N  N2390  1  0.751900  0.184810  0.271300  1.0
  N  N2391  1  0.748100  0.815190  0.771300  1.0
  N  N2392  1  0.251900  0.315190  0.728700  1.0
  N  N2393  1  0.808100  0.046300  0.043000  1.0
  N  N2394  1  0.691900  0.953700  0.543000  1.0
  N  N2395  1  0.191900  0.546300  0.457000  1.0
  N  N2396  1  0.308100  0.453700  0.957000  1.0
  N  N2397  1  0.043000  0.808100  0.046300  1.0
  N  N2398  1  0.543000  0.691900  0.953700  1.0
  N  N2399  1  0.457000  0.191900  0.546300  1.0
  N  N2400  1  0.957000  0.308100  0.453700  1.0
  N  N2401  1  0.046300  0.043000  0.808100  1.0
  N  N2402  1  0.953700  0.543000  0.691900  1.0
  N  N2403  1  0.546300  0.457000  0.191900  1.0
  N  N2404  1  0.453700  0.957000  0.308100  1.0
  N  N2405  1  0.191900  0.953700  0.957000  1.0
  N  N2406  1  0.308100  0.046300  0.457000  1.0
  N  N2407  1  0.808100  0.453700  0.543000  1.0
  N  N2408  1  0.691900  0.546300  0.043000  1.0
  N  N2409  1  0.957000  0.191900  0.953700  1.0
  N  N2410  1  0.457000  0.308100  0.046300  1.0
  N  N2411  1  0.543000  0.808100  0.453700  1.0
  N  N2412  1  0.043000  0.691900  0.546300  1.0
  N  N2413  1  0.953700  0.957000  0.191900  1.0
  N  N2414  1  0.046300  0.457000  0.308100  1.0
  N  N2415  1  0.453700  0.543000  0.808100  1.0
  N  N2416  1  0.546300  0.043000  0.691900  1.0
  N  N2417  1  0.777400  0.017200  0.970300  1.0
  N  N2418  1  0.722600  0.982800  0.470300  1.0
  N  N2419  1  0.222600  0.517200  0.529700  1.0
  N  N2420  1  0.277400  0.482800  0.029700  1.0
  N  N2421  1  0.970300  0.777400  0.017200  1.0
  N  N2422  1  0.470300  0.722600  0.982800  1.0
  N  N2423  1  0.529700  0.222600  0.517200  1.0
  N  N2424  1  0.029700  0.277400  0.482800  1.0
  N  N2425  1  0.017200  0.970300  0.777400  1.0
  N  N2426  1  0.982800  0.470300  0.722600  1.0
  N  N2427  1  0.517200  0.529700  0.222600  1.0
  N  N2428  1  0.482800  0.029700  0.277400  1.0
  N  N2429  1  0.222600  0.982800  0.029700  1.0
  N  N2430  1  0.277400  0.017200  0.529700  1.0
  N  N2431  1  0.777400  0.482800  0.470300  1.0
  N  N2432  1  0.722600  0.517200  0.970300  1.0
  N  N2433  1  0.029700  0.222600  0.982800  1.0
  N  N2434  1  0.529700  0.277400  0.017200  1.0
  N  N2435  1  0.470300  0.777400  0.482800  1.0
  N  N2436  1  0.970300  0.722600  0.517200  1.0
  N  N2437  1  0.982800  0.029700  0.222600  1.0
  N  N2438  1  0.017200  0.529700  0.277400  1.0
  N  N2439  1  0.482800  0.470300  0.777400  1.0
  N  N2440  1  0.517200  0.970300  0.722600  1.0
  N  N2441  1  0.778200  0.971400  0.028100  1.0
  N  N2442  1  0.721800  0.028600  0.528100  1.0
  N  N2443  1  0.221800  0.471400  0.471900  1.0
  N  N2444  1  0.278200  0.528600  0.971900  1.0
  N  N2445  1  0.028100  0.778200  0.971400  1.0
  N  N2446  1  0.528100  0.721800  0.028600  1.0
  N  N2447  1  0.471900  0.221800  0.471400  1.0
  N  N2448  1  0.971900  0.278200  0.528600  1.0
  N  N2449  1  0.971400  0.028100  0.778200  1.0
  N  N2450  1  0.028600  0.528100  0.721800  1.0
  N  N2451  1  0.471400  0.471900  0.221800  1.0
  N  N2452  1  0.528600  0.971900  0.278200  1.0
  N  N2453  1  0.221800  0.028600  0.971900  1.0
  N  N2454  1  0.278200  0.971400  0.471900  1.0
  N  N2455  1  0.778200  0.528600  0.528100  1.0
  N  N2456  1  0.721800  0.471400  0.028100  1.0
  N  N2457  1  0.971900  0.221800  0.028600  1.0
  N  N2458  1  0.471900  0.278200  0.971400  1.0
  N  N2459  1  0.528100  0.778200  0.528600  1.0
  N  N2460  1  0.028100  0.721800  0.471400  1.0
  N  N2461  1  0.028600  0.971900  0.221800  1.0
  N  N2462  1  0.971400  0.471900  0.278200  1.0
  N  N2463  1  0.528600  0.528100  0.778200  1.0
  N  N2464  1  0.471400  0.028100  0.721800  1.0
  N  N2465  1  0.769800  0.794900  0.256400  1.0
  N  N2466  1  0.730200  0.205100  0.756400  1.0
  N  N2467  1  0.230200  0.294900  0.243600  1.0
  N  N2468  1  0.269800  0.705100  0.743600  1.0
  N  N2469  1  0.256400  0.769800  0.794900  1.0
  N  N2470  1  0.756400  0.730200  0.205100  1.0
  N  N2471  1  0.243600  0.230200  0.294900  1.0
  N  N2472  1  0.743600  0.269800  0.705100  1.0
  N  N2473  1  0.794900  0.256400  0.769800  1.0
  N  N2474  1  0.205100  0.756400  0.730200  1.0
  N  N2475  1  0.294900  0.243600  0.230200  1.0
  N  N2476  1  0.705100  0.743600  0.269800  1.0
  N  N2477  1  0.230200  0.205100  0.743600  1.0
  N  N2478  1  0.269800  0.794900  0.243600  1.0
  N  N2479  1  0.769800  0.705100  0.756400  1.0
  N  N2480  1  0.730200  0.294900  0.256400  1.0
  N  N2481  1  0.743600  0.230200  0.205100  1.0
  N  N2482  1  0.243600  0.269800  0.794900  1.0
  N  N2483  1  0.756400  0.769800  0.705100  1.0
  N  N2484  1  0.256400  0.730200  0.294900  1.0
  N  N2485  1  0.205100  0.743600  0.230200  1.0
  N  N2486  1  0.794900  0.243600  0.269800  1.0
  N  N2487  1  0.705100  0.756400  0.769800  1.0
  N  N2488  1  0.294900  0.256400  0.730200  1.0
  N  N2489  1  0.737400  0.077200  0.012900  1.0
  N  N2490  1  0.762600  0.922800  0.512900  1.0
  N  N2491  1  0.262600  0.577200  0.487100  1.0
  N  N2492  1  0.237400  0.422800  0.987100  1.0
  N  N2493  1  0.012900  0.737400  0.077200  1.0
  N  N2494  1  0.512900  0.762600  0.922800  1.0
  N  N2495  1  0.487100  0.262600  0.577200  1.0
  N  N2496  1  0.987100  0.237400  0.422800  1.0
  N  N2497  1  0.077200  0.012900  0.737400  1.0
  N  N2498  1  0.922800  0.512900  0.762600  1.0
  N  N2499  1  0.577200  0.487100  0.262600  1.0
  N  N2500  1  0.422800  0.987100  0.237400  1.0
  N  N2501  1  0.262600  0.922800  0.987100  1.0
  N  N2502  1  0.237400  0.077200  0.487100  1.0
  N  N2503  1  0.737400  0.422800  0.512900  1.0
  N  N2504  1  0.762600  0.577200  0.012900  1.0
  N  N2505  1  0.987100  0.262600  0.922800  1.0
  N  N2506  1  0.487100  0.237400  0.077200  1.0
  N  N2507  1  0.512900  0.737400  0.422800  1.0
  N  N2508  1  0.012900  0.762600  0.577200  1.0
  N  N2509  1  0.922800  0.987100  0.262600  1.0
  N  N2510  1  0.077200  0.487100  0.237400  1.0
  N  N2511  1  0.422800  0.512900  0.737400  1.0
  N  N2512  1  0.577200  0.012900  0.762600  1.0
  N  N2513  1  0.705600  0.010300  0.005300  1.0
  N  N2514  1  0.794400  0.989700  0.505300  1.0
  N  N2515  1  0.294400  0.510300  0.494700  1.0
  N  N2516  1  0.205600  0.489700  0.994700  1.0
  N  N2517  1  0.005300  0.705600  0.010300  1.0
  N  N2518  1  0.505300  0.794400  0.989700  1.0
  N  N2519  1  0.494700  0.294400  0.510300  1.0
  N  N2520  1  0.994700  0.205600  0.489700  1.0
  N  N2521  1  0.010300  0.005300  0.705600  1.0
  N  N2522  1  0.989700  0.505300  0.794400  1.0
  N  N2523  1  0.510300  0.494700  0.294400  1.0
  N  N2524  1  0.489700  0.994700  0.205600  1.0
  N  N2525  1  0.294400  0.989700  0.994700  1.0
  N  N2526  1  0.205600  0.010300  0.494700  1.0
  N  N2527  1  0.705600  0.489700  0.505300  1.0
  N  N2528  1  0.794400  0.510300  0.005300  1.0
  N  N2529  1  0.994700  0.294400  0.989700  1.0
  N  N2530  1  0.494700  0.205600  0.010300  1.0
  N  N2531  1  0.505300  0.705600  0.489700  1.0
  N  N2532  1  0.005300  0.794400  0.510300  1.0
  N  N2533  1  0.989700  0.994700  0.294400  1.0
  N  N2534  1  0.010300  0.494700  0.205600  1.0
  N  N2535  1  0.489700  0.505300  0.705600  1.0
  N  N2536  1  0.510300  0.005300  0.794400  1.0
  N  N2537  1  0.745000  0.031900  0.078900  1.0
  N  N2538  1  0.755000  0.968100  0.578900  1.0
  N  N2539  1  0.255000  0.531900  0.421100  1.0
  N  N2540  1  0.245000  0.468100  0.921100  1.0
  N  N2541  1  0.078900  0.745000  0.031900  1.0
  N  N2542  1  0.578900  0.755000  0.968100  1.0
  N  N2543  1  0.421100  0.255000  0.531900  1.0
  N  N2544  1  0.921100  0.245000  0.468100  1.0
  N  N2545  1  0.031900  0.078900  0.745000  1.0
  N  N2546  1  0.968100  0.578900  0.755000  1.0
  N  N2547  1  0.531900  0.421100  0.255000  1.0
  N  N2548  1  0.468100  0.921100  0.245000  1.0
  N  N2549  1  0.255000  0.968100  0.921100  1.0
  N  N2550  1  0.245000  0.031900  0.421100  1.0
  N  N2551  1  0.745000  0.468100  0.578900  1.0
  N  N2552  1  0.755000  0.531900  0.078900  1.0
  N  N2553  1  0.921100  0.255000  0.968100  1.0
  N  N2554  1  0.421100  0.245000  0.031900  1.0
  N  N2555  1  0.578900  0.745000  0.468100  1.0
  N  N2556  1  0.078900  0.755000  0.531900  1.0
  N  N2557  1  0.968100  0.921100  0.255000  1.0
  N  N2558  1  0.031900  0.421100  0.245000  1.0
  N  N2559  1  0.468100  0.578900  0.745000  1.0
  N  N2560  1  0.531900  0.078900  0.755000  1.0
  O  O2561  1  0.614500  0.002600  0.938200  1
  O  O2562  1  0.885500  0.997400  0.438200  1
  O  O2563  1  0.385500  0.502600  0.561800  1
  O  O2564  1  0.114500  0.497400  0.061800  1
  O  O2565  1  0.938200  0.614500  0.002600  1
  O  O2566  1  0.438200  0.885500  0.997400  1
  O  O2567  1  0.561800  0.385500  0.502600  1
  O  O2568  1  0.061800  0.114500  0.497400  1
  O  O2569  1  0.002600  0.938200  0.614500  1
  O  O2570  1  0.997400  0.438200  0.885500  1
  O  O2571  1  0.502600  0.561800  0.385500  1
  O  O2572  1  0.497400  0.061800  0.114500  1
  O  O2573  1  0.385500  0.997400  0.061800  1
  O  O2574  1  0.114500  0.002600  0.561800  1
  O  O2575  1  0.614500  0.497400  0.438200  1
  O  O2576  1  0.885500  0.502600  0.938200  1
  O  O2577  1  0.061800  0.385500  0.997400  1
  O  O2578  1  0.561800  0.114500  0.002600  1
  O  O2579  1  0.438200  0.614500  0.497400  1
  O  O2580  1  0.938200  0.885500  0.502600  1
  O  O2581  1  0.997400  0.061800  0.385500  1
  O  O2582  1  0.002600  0.561800  0.114500  1
  O  O2583  1  0.497400  0.438200  0.614500  1
  O  O2584  1  0.502600  0.938200  0.885500  1
  O  O2585  1  0.636000  0.214700  0.958900  1
  O  O2586  1  0.864000  0.785300  0.458900  1
  O  O2587  1  0.364000  0.714700  0.541100  1
  O  O2588  1  0.136000  0.285300  0.041100  1
  O  O2589  1  0.958900  0.636000  0.214700  1
  O  O2590  1  0.458900  0.864000  0.785300  1
  O  O2591  1  0.541100  0.364000  0.714700  1
  O  O2592  1  0.041100  0.136000  0.285300  1
  O  O2593  1  0.214700  0.958900  0.636000  1
  O  O2594  1  0.785300  0.458900  0.864000  1
  O  O2595  1  0.714700  0.541100  0.364000  1
  O  O2596  1  0.285300  0.041100  0.136000  1
  O  O2597  1  0.364000  0.785300  0.041100  1
  O  O2598  1  0.136000  0.214700  0.541100  1
  O  O2599  1  0.636000  0.285300  0.458900  1
  O  O2600  1  0.864000  0.714700  0.958900  1
  O  O2601  1  0.041100  0.364000  0.785300  1
  O  O2602  1  0.541100  0.136000  0.214700  1
  O  O2603  1  0.458900  0.636000  0.285300  1
  O  O2604  1  0.958900  0.864000  0.714700  1
  O  O2605  1  0.785300  0.041100  0.364000  1
  O  O2606  1  0.214700  0.541100  0.136000  1
  O  O2607  1  0.285300  0.458900  0.636000  1
  O  O2608  1  0.714700  0.958900  0.864000  1
  O  O2609  1  0.597200  0.189900  0.020600  1
  O  O2610  1  0.902800  0.810100  0.520600  1
  O  O2611  1  0.402800  0.689900  0.479400  1
  O  O2612  1  0.097200  0.310100  0.979400  1
  O  O2613  1  0.020600  0.597200  0.189900  1
  O  O2614  1  0.520600  0.902800  0.810100  1
  O  O2615  1  0.479400  0.402800  0.689900  1
  O  O2616  1  0.979400  0.097200  0.310100  1
  O  O2617  1  0.189900  0.020600  0.597200  1
  O  O2618  1  0.810100  0.520600  0.902800  1
  O  O2619  1  0.689900  0.479400  0.402800  1
  O  O2620  1  0.310100  0.979400  0.097200  1
  O  O2621  1  0.402800  0.810100  0.979400  1
  O  O2622  1  0.097200  0.189900  0.479400  1
  O  O2623  1  0.597200  0.310100  0.520600  1
  O  O2624  1  0.902800  0.689900  0.020600  1
  O  O2625  1  0.979400  0.402800  0.810100  1
  O  O2626  1  0.479400  0.097200  0.189900  1
  O  O2627  1  0.520600  0.597200  0.310100  1
  O  O2628  1  0.020600  0.902800  0.689900  1
  O  O2629  1  0.810100  0.979400  0.402800  1
  O  O2630  1  0.189900  0.479400  0.097200  1
  O  O2631  1  0.310100  0.520600  0.597200  1
  O  O2632  1  0.689900  0.020600  0.902800  1
  O  O2633  1  0.861200  0.889400  0.039500  1
  O  O2634  1  0.638800  0.110600  0.539500  1
  O  O2635  1  0.138800  0.389400  0.460500  1
  O  O2636  1  0.361200  0.610600  0.960500  1
  O  O2637  1  0.039500  0.861200  0.889400  1
  O  O2638  1  0.539500  0.638800  0.110600  1
  O  O2639  1  0.460500  0.138800  0.389400  1
  O  O2640  1  0.960500  0.361200  0.610600  1
  O  O2641  1  0.889400  0.039500  0.861200  1
  O  O2642  1  0.110600  0.539500  0.638800  1
  O  O2643  1  0.389400  0.460500  0.138800  1
  O  O2644  1  0.610600  0.960500  0.361200  1
  O  O2645  1  0.138800  0.110600  0.960500  1
  O  O2646  1  0.361200  0.889400  0.460500  1
  O  O2647  1  0.861200  0.610600  0.539500  1
  O  O2648  1  0.638800  0.389400  0.039500  1
  O  O2649  1  0.960500  0.138800  0.110600  1
  O  O2650  1  0.460500  0.361200  0.889400  1
  O  O2651  1  0.539500  0.861200  0.610600  1
  O  O2652  1  0.039500  0.638800  0.389400  1
  O  O2653  1  0.110600  0.960500  0.138800  1
  O  O2654  1  0.889400  0.460500  0.361200  1
  O  O2655  1  0.610600  0.539500  0.861200  1
  O  O2656  1  0.389400  0.039500  0.638800  1
  O  O2657  1  0.703500  0.948200  0.228200  1
  O  O2658  1  0.796500  0.051800  0.728200  1
  O  O2659  1  0.296500  0.448200  0.271800  1
  O  O2660  1  0.203500  0.551800  0.771800  1
  O  O2661  1  0.228200  0.703500  0.948200  1
  O  O2662  1  0.728200  0.796500  0.051800  1
  O  O2663  1  0.271800  0.296500  0.448200  1
  O  O2664  1  0.771800  0.203500  0.551800  1
  O  O2665  1  0.948200  0.228200  0.703500  1
  O  O2666  1  0.051800  0.728200  0.796500  1
  O  O2667  1  0.448200  0.271800  0.296500  1
  O  O2668  1  0.551800  0.771800  0.203500  1
  O  O2669  1  0.296500  0.051800  0.771800  1
  O  O2670  1  0.203500  0.948200  0.271800  1
  O  O2671  1  0.703500  0.551800  0.728200  1
  O  O2672  1  0.796500  0.448200  0.228200  1
  O  O2673  1  0.771800  0.296500  0.051800  1
  O  O2674  1  0.271800  0.203500  0.948200  1
  O  O2675  1  0.728200  0.703500  0.551800  1
  O  O2676  1  0.228200  0.796500  0.448200  1
  O  O2677  1  0.051800  0.771800  0.296500  1
  O  O2678  1  0.948200  0.271800  0.203500  1
  O  O2679  1  0.551800  0.728200  0.703500  1
  O  O2680  1  0.448200  0.228200  0.796500  1
  O  O2681  1  0.698800  0.252400  0.986100  1
  O  O2682  1  0.801200  0.747600  0.486100  1
  O  O2683  1  0.301200  0.752400  0.513900  1
  O  O2684  1  0.198800  0.247600  0.013900  1
  O  O2685  1  0.986100  0.698800  0.252400  1
  O  O2686  1  0.486100  0.801200  0.747600  1
  O  O2687  1  0.513900  0.301200  0.752400  1
  O  O2688  1  0.013900  0.198800  0.247600  1
  O  O2689  1  0.252400  0.986100  0.698800  1
  O  O2690  1  0.747600  0.486100  0.801200  1
  O  O2691  1  0.752400  0.513900  0.301200  1
  O  O2692  1  0.247600  0.013900  0.198800  1
  O  O2693  1  0.301200  0.747600  0.013900  1
  O  O2694  1  0.198800  0.252400  0.513900  1
  O  O2695  1  0.698800  0.247600  0.486100  1
  O  O2696  1  0.801200  0.752400  0.986100  1
  O  O2697  1  0.013900  0.301200  0.747600  1
  O  O2698  1  0.513900  0.198800  0.252400  1
  O  O2699  1  0.486100  0.698800  0.247600  1
  O  O2700  1  0.986100  0.801200  0.752400  1
  O  O2701  1  0.747600  0.013900  0.301200  1
  O  O2702  1  0.252400  0.513900  0.198800  1
  O  O2703  1  0.247600  0.486100  0.698800  1
  O  O2704  1  0.752400  0.986100  0.801200  1
  O  O2705  1  0.833600  0.109000  0.959000  1
  O  O2706  1  0.666400  0.891000  0.459000  1
  O  O2707  1  0.166400  0.609000  0.541000  1
  O  O2708  1  0.333600  0.391000  0.041000  1
  O  O2709  1  0.959000  0.833600  0.109000  1
  O  O2710  1  0.459000  0.666400  0.891000  1
  O  O2711  1  0.541000  0.166400  0.609000  1
  O  O2712  1  0.041000  0.333600  0.391000  1
  O  O2713  1  0.109000  0.959000  0.833600  1
  O  O2714  1  0.891000  0.459000  0.666400  1
  O  O2715  1  0.609000  0.541000  0.166400  1
  O  O2716  1  0.391000  0.041000  0.333600  1
  O  O2717  1  0.166400  0.891000  0.041000  1
  O  O2718  1  0.333600  0.109000  0.541000  1
  O  O2719  1  0.833600  0.391000  0.459000  1
  O  O2720  1  0.666400  0.609000  0.959000  1
  O  O2721  1  0.041000  0.166400  0.891000  1
  O  O2722  1  0.541000  0.333600  0.109000  1
  O  O2723  1  0.459000  0.833600  0.391000  1
  O  O2724  1  0.959000  0.666400  0.609000  1
  O  O2725  1  0.891000  0.041000  0.166400  1
  O  O2726  1  0.109000  0.541000  0.333600  1
  O  O2727  1  0.391000  0.459000  0.833600  1
  O  O2728  1  0.609000  0.959000  0.666400  1
  O  O2729  1  0.833200  0.982600  0.162700  1.0
  O  O2730  1  0.666800  0.017400  0.662700  1.0
  O  O2731  1  0.166800  0.482600  0.337300  1.0
  O  O2732  1  0.333200  0.517400  0.837300  1.0
  O  O2733  1  0.162700  0.833200  0.982600  1.0
  O  O2734  1  0.662700  0.666800  0.017400  1.0
  O  O2735  1  0.337300  0.166800  0.482600  1.0
  O  O2736  1  0.837300  0.333200  0.517400  1.0
  O  O2737  1  0.982600  0.162700  0.833200  1.0
  O  O2738  1  0.017400  0.662700  0.666800  1.0
  O  O2739  1  0.482600  0.337300  0.166800  1.0
  O  O2740  1  0.517400  0.837300  0.333200  1.0
  O  O2741  1  0.166800  0.017400  0.837300  1.0
  O  O2742  1  0.333200  0.982600  0.337300  1.0
  O  O2743  1  0.833200  0.517400  0.662700  1.0
  O  O2744  1  0.666800  0.482600  0.162700  1.0
  O  O2745  1  0.837300  0.166800  0.017400  1.0
  O  O2746  1  0.337300  0.333200  0.982600  1.0
  O  O2747  1  0.662700  0.833200  0.517400  1.0
  O  O2748  1  0.162700  0.666800  0.482600  1.0
  O  O2749  1  0.017400  0.837300  0.166800  1.0
  O  O2750  1  0.982600  0.337300  0.333200  1.0
  O  O2751  1  0.517400  0.662700  0.833200  1.0
  O  O2752  1  0.482600  0.162700  0.666800  1.0
  O  O2753  1  0.778700  0.958700  0.196000  1.0
  O  O2754  1  0.721300  0.041300  0.696000  1.0
  O  O2755  1  0.221300  0.458700  0.304000  1.0
  O  O2756  1  0.278700  0.541300  0.804000  1.0
  O  O2757  1  0.196000  0.778700  0.958700  1.0
  O  O2758  1  0.696000  0.721300  0.041300  1.0
  O  O2759  1  0.304000  0.221300  0.458700  1.0
  O  O2760  1  0.804000  0.278700  0.541300  1.0
  O  O2761  1  0.958700  0.196000  0.778700  1.0
  O  O2762  1  0.041300  0.696000  0.721300  1.0
  O  O2763  1  0.458700  0.304000  0.221300  1.0
  O  O2764  1  0.541300  0.804000  0.278700  1.0
  O  O2765  1  0.221300  0.041300  0.804000  1.0
  O  O2766  1  0.278700  0.958700  0.304000  1.0
  O  O2767  1  0.778700  0.541300  0.696000  1.0
  O  O2768  1  0.721300  0.458700  0.196000  1.0
  O  O2769  1  0.804000  0.221300  0.041300  1.0
  O  O2770  1  0.304000  0.278700  0.958700  1.0
  O  O2771  1  0.696000  0.778700  0.541300  1.0
  O  O2772  1  0.196000  0.721300  0.458700  1.0
  O  O2773  1  0.041300  0.804000  0.221300  1.0
  O  O2774  1  0.958700  0.304000  0.278700  1.0
  O  O2775  1  0.541300  0.696000  0.778700  1.0
  O  O2776  1  0.458700  0.196000  0.721300  1.0
  O  O2777  1  0.835400  0.919000  0.188000  1.0
  O  O2778  1  0.664600  0.081000  0.688000  1.0
  O  O2779  1  0.164600  0.419000  0.312000  1.0
  O  O2780  1  0.335400  0.581000  0.812000  1.0
  O  O2781  1  0.188000  0.835400  0.919000  1.0
  O  O2782  1  0.688000  0.664600  0.081000  1.0
  O  O2783  1  0.312000  0.164600  0.419000  1.0
  O  O2784  1  0.812000  0.335400  0.581000  1.0
  O  O2785  1  0.919000  0.188000  0.835400  1.0
  O  O2786  1  0.081000  0.688000  0.664600  1.0
  O  O2787  1  0.419000  0.312000  0.164600  1.0
  O  O2788  1  0.581000  0.812000  0.335400  1.0
  O  O2789  1  0.164600  0.081000  0.812000  1.0
  O  O2790  1  0.335400  0.919000  0.312000  1.0
  O  O2791  1  0.835400  0.581000  0.688000  1.0
  O  O2792  1  0.664600  0.419000  0.188000  1.0
  O  O2793  1  0.812000  0.164600  0.081000  1.0
  O  O2794  1  0.312000  0.335400  0.919000  1.0
  O  O2795  1  0.688000  0.835400  0.581000  1.0
  O  O2796  1  0.188000  0.664600  0.419000  1.0
  O  O2797  1  0.081000  0.812000  0.164600  1.0
  O  O2798  1  0.919000  0.312000  0.335400  1.0
  O  O2799  1  0.581000  0.688000  0.835400  1.0
  O  O2800  1  0.419000  0.188000  0.664600  1.0
  O  O2801  1  0.848700  0.859500  0.109800  1.0
  O  O2802  1  0.651300  0.140500  0.609800  1.0
  O  O2803  1  0.151300  0.359500  0.390200  1.0
  O  O2804  1  0.348700  0.640500  0.890200  1.0
  O  O2805  1  0.109800  0.848700  0.859500  1.0
  O  O2806  1  0.609800  0.651300  0.140500  1.0
  O  O2807  1  0.390200  0.151300  0.359500  1.0
  O  O2808  1  0.890200  0.348700  0.640500  1.0
  O  O2809  1  0.859500  0.109800  0.848700  1.0
  O  O2810  1  0.140500  0.609800  0.651300  1.0
  O  O2811  1  0.359500  0.390200  0.151300  1.0
  O  O2812  1  0.640500  0.890200  0.348700  1.0
  O  O2813  1  0.151300  0.140500  0.890200  1.0
  O  O2814  1  0.348700  0.859500  0.390200  1.0
  O  O2815  1  0.848700  0.640500  0.609800  1.0
  O  O2816  1  0.651300  0.359500  0.109800  1.0
  O  O2817  1  0.890200  0.151300  0.140500  1.0
  O  O2818  1  0.390200  0.348700  0.859500  1.0
  O  O2819  1  0.609800  0.848700  0.640500  1.0
  O  O2820  1  0.109800  0.651300  0.359500  1.0
  O  O2821  1  0.140500  0.890200  0.151300  1.0
  O  O2822  1  0.859500  0.390200  0.348700  1.0
  O  O2823  1  0.640500  0.609800  0.848700  1.0
  O  O2824  1  0.359500  0.109800  0.651300  1.0
  O  O2825  1  0.812300  0.804900  0.100200  1.0
  O  O2826  1  0.687700  0.195100  0.600200  1.0
  O  O2827  1  0.187700  0.304900  0.399800  1.0
  O  O2828  1  0.312300  0.695100  0.899800  1.0
  O  O2829  1  0.100200  0.812300  0.804900  1.0
  O  O2830  1  0.600200  0.687700  0.195100  1.0
  O  O2831  1  0.399800  0.187700  0.304900  1.0
  O  O2832  1  0.899800  0.312300  0.695100  1.0
  O  O2833  1  0.804900  0.100200  0.812300  1.0
  O  O2834  1  0.195100  0.600200  0.687700  1.0
  O  O2835  1  0.304900  0.399800  0.187700  1.0
  O  O2836  1  0.695100  0.899800  0.312300  1.0
  O  O2837  1  0.187700  0.195100  0.899800  1.0
  O  O2838  1  0.312300  0.804900  0.399800  1.0
  O  O2839  1  0.812300  0.695100  0.600200  1.0
  O  O2840  1  0.687700  0.304900  0.100200  1.0
  O  O2841  1  0.899800  0.187700  0.195100  1.0
  O  O2842  1  0.399800  0.312300  0.804900  1.0
  O  O2843  1  0.600200  0.812300  0.695100  1.0
  O  O2844  1  0.100200  0.687700  0.304900  1.0
  O  O2845  1  0.195100  0.899800  0.187700  1.0
  O  O2846  1  0.804900  0.399800  0.312300  1.0
  O  O2847  1  0.695100  0.600200  0.812300  1.0
  O  O2848  1  0.304900  0.100200  0.687700  1.0
  O  O2849  1  0.860000  0.805100  0.146300  1.0
  O  O2850  1  0.640000  0.194900  0.646300  1.0
  O  O2851  1  0.140000  0.305100  0.353700  1.0
  O  O2852  1  0.360000  0.694900  0.853700  1.0
  O  O2853  1  0.146300  0.860000  0.805100  1.0
  O  O2854  1  0.646300  0.640000  0.194900  1.0
  O  O2855  1  0.353700  0.140000  0.305100  1.0
  O  O2856  1  0.853700  0.360000  0.694900  1.0
  O  O2857  1  0.805100  0.146300  0.860000  1.0
  O  O2858  1  0.194900  0.646300  0.640000  1.0
  O  O2859  1  0.305100  0.353700  0.140000  1.0
  O  O2860  1  0.694900  0.853700  0.360000  1.0
  O  O2861  1  0.140000  0.194900  0.853700  1.0
  O  O2862  1  0.360000  0.805100  0.353700  1.0
  O  O2863  1  0.860000  0.694900  0.646300  1.0
  O  O2864  1  0.640000  0.305100  0.146300  1.0
  O  O2865  1  0.853700  0.140000  0.194900  1.0
  O  O2866  1  0.353700  0.360000  0.805100  1.0
  O  O2867  1  0.646300  0.860000  0.694900  1.0
  O  O2868  1  0.146300  0.640000  0.305100  1.0
  O  O2869  1  0.194900  0.853700  0.140000  1.0
  O  O2870  1  0.805100  0.353700  0.360000  1.0
  O  O2871  1  0.694900  0.646300  0.860000  1.0
  O  O2872  1  0.305100  0.146300  0.640000  1.0
  O  O2873  1  0.680600  0.869000  0.910400  1.0
  O  O2874  1  0.819400  0.131000  0.410400  1.0
  O  O2875  1  0.319400  0.369000  0.589600  1.0
  O  O2876  1  0.180600  0.631000  0.089600  1.0
  O  O2877  1  0.910400  0.680600  0.869000  1.0
  O  O2878  1  0.410400  0.819400  0.131000  1.0
  O  O2879  1  0.589600  0.319400  0.369000  1.0
  O  O2880  1  0.089600  0.180600  0.631000  1.0
  O  O2881  1  0.869000  0.910400  0.680600  1.0
  O  O2882  1  0.131000  0.410400  0.819400  1.0
  O  O2883  1  0.369000  0.589600  0.319400  1.0
  O  O2884  1  0.631000  0.089600  0.180600  1.0
  O  O2885  1  0.319400  0.131000  0.089600  1.0
  O  O2886  1  0.180600  0.869000  0.589600  1.0
  O  O2887  1  0.680600  0.631000  0.410400  1.0
  O  O2888  1  0.819400  0.369000  0.910400  1.0
  O  O2889  1  0.089600  0.319400  0.131000  1.0
  O  O2890  1  0.589600  0.180600  0.869000  1.0
  O  O2891  1  0.410400  0.680600  0.631000  1.0
  O  O2892  1  0.910400  0.819400  0.369000  1.0
  O  O2893  1  0.131000  0.089600  0.319400  1.0
  O  O2894  1  0.869000  0.589600  0.180600  1.0
  O  O2895  1  0.631000  0.410400  0.680600  1.0
  O  O2896  1  0.369000  0.910400  0.819400  1.0
  O  O2897  1  0.738400  0.901200  0.916800  1.0
  O  O2898  1  0.761600  0.098800  0.416800  1.0
  O  O2899  1  0.261600  0.401200  0.583200  1.0
  O  O2900  1  0.238400  0.598800  0.083200  1.0
  O  O2901  1  0.916800  0.738400  0.901200  1.0
  O  O2902  1  0.416800  0.761600  0.098800  1.0
  O  O2903  1  0.583200  0.261600  0.401200  1.0
  O  O2904  1  0.083200  0.238400  0.598800  1.0
  O  O2905  1  0.901200  0.916800  0.738400  1.0
  O  O2906  1  0.098800  0.416800  0.761600  1.0
  O  O2907  1  0.401200  0.583200  0.261600  1.0
  O  O2908  1  0.598800  0.083200  0.238400  1.0
  O  O2909  1  0.261600  0.098800  0.083200  1.0
  O  O2910  1  0.238400  0.901200  0.583200  1.0
  O  O2911  1  0.738400  0.598800  0.416800  1.0
  O  O2912  1  0.761600  0.401200  0.916800  1.0
  O  O2913  1  0.083200  0.261600  0.098800  1.0
  O  O2914  1  0.583200  0.238400  0.901200  1.0
  O  O2915  1  0.416800  0.738400  0.598800  1.0
  O  O2916  1  0.916800  0.761600  0.401200  1.0
  O  O2917  1  0.098800  0.083200  0.261600  1.0
  O  O2918  1  0.901200  0.583200  0.238400  1.0
  O  O2919  1  0.598800  0.416800  0.738400  1.0
  O  O2920  1  0.401200  0.916800  0.761600  1.0
  O  O2921  1  0.722000  0.845500  0.957400  1.0
  O  O2922  1  0.778000  0.154500  0.457400  1.0
  O  O2923  1  0.278000  0.345500  0.542600  1.0
  O  O2924  1  0.222000  0.654500  0.042600  1.0
  O  O2925  1  0.957400  0.722000  0.845500  1.0
  O  O2926  1  0.457400  0.778000  0.154500  1.0
  O  O2927  1  0.542600  0.278000  0.345500  1.0
  O  O2928  1  0.042600  0.222000  0.654500  1.0
  O  O2929  1  0.845500  0.957400  0.722000  1.0
  O  O2930  1  0.154500  0.457400  0.778000  1.0
  O  O2931  1  0.345500  0.542600  0.278000  1.0
  O  O2932  1  0.654500  0.042600  0.222000  1.0
  O  O2933  1  0.278000  0.154500  0.042600  1.0
  O  O2934  1  0.222000  0.845500  0.542600  1.0
  O  O2935  1  0.722000  0.654500  0.457400  1.0
  O  O2936  1  0.778000  0.345500  0.957400  1.0
  O  O2937  1  0.042600  0.278000  0.154500  1.0
  O  O2938  1  0.542600  0.222000  0.845500  1.0
  O  O2939  1  0.457400  0.722000  0.654500  1.0
  O  O2940  1  0.957400  0.778000  0.345500  1.0
  O  O2941  1  0.154500  0.042600  0.278000  1.0
  O  O2942  1  0.845500  0.542600  0.222000  1.0
  O  O2943  1  0.654500  0.457400  0.722000  1.0
  O  O2944  1  0.345500  0.957400  0.778000  1.0
  O  O2945  1  0.588500  0.879000  0.887900  1.0
  O  O2946  1  0.911500  0.121000  0.387900  1.0
  O  O2947  1  0.411500  0.379000  0.612100  1.0
  O  O2948  1  0.088500  0.621000  0.112100  1.0
  O  O2949  1  0.887900  0.588500  0.879000  1.0
  O  O2950  1  0.387900  0.911500  0.121000  1.0
  O  O2951  1  0.612100  0.411500  0.379000  1.0
  O  O2952  1  0.112100  0.088500  0.621000  1.0
  O  O2953  1  0.879000  0.887900  0.588500  1.0
  O  O2954  1  0.121000  0.387900  0.911500  1.0
  O  O2955  1  0.379000  0.612100  0.411500  1.0
  O  O2956  1  0.621000  0.112100  0.088500  1.0
  O  O2957  1  0.411500  0.121000  0.112100  1.0
  O  O2958  1  0.088500  0.879000  0.612100  1.0
  O  O2959  1  0.588500  0.621000  0.387900  1.0
  O  O2960  1  0.911500  0.379000  0.887900  1.0
  O  O2961  1  0.112100  0.411500  0.121000  1.0
  O  O2962  1  0.612100  0.088500  0.879000  1.0
  O  O2963  1  0.387900  0.588500  0.621000  1.0
  O  O2964  1  0.887900  0.911500  0.379000  1.0
  O  O2965  1  0.121000  0.112100  0.411500  1.0
  O  O2966  1  0.879000  0.612100  0.088500  1.0
  O  O2967  1  0.621000  0.387900  0.588500  1.0
  O  O2968  1  0.379000  0.887900  0.911500  1.0
  O  O2969  1  0.607600  0.928200  0.930900  1.0
  O  O2970  1  0.892400  0.071800  0.430900  1.0
  O  O2971  1  0.392400  0.428200  0.569100  1.0
  O  O2972  1  0.107600  0.571800  0.069100  1.0
  O  O2973  1  0.930900  0.607600  0.928200  1.0
  O  O2974  1  0.430900  0.892400  0.071800  1.0
  O  O2975  1  0.569100  0.392400  0.428200  1.0
  O  O2976  1  0.069100  0.107600  0.571800  1.0
  O  O2977  1  0.928200  0.930900  0.607600  1.0
  O  O2978  1  0.071800  0.430900  0.892400  1.0
  O  O2979  1  0.428200  0.569100  0.392400  1.0
  O  O2980  1  0.571800  0.069100  0.107600  1.0
  O  O2981  1  0.392400  0.071800  0.069100  1.0
  O  O2982  1  0.107600  0.928200  0.569100  1.0
  O  O2983  1  0.607600  0.571800  0.430900  1.0
  O  O2984  1  0.892400  0.428200  0.930900  1.0
  O  O2985  1  0.069100  0.392400  0.071800  1.0
  O  O2986  1  0.569100  0.107600  0.928200  1.0
  O  O2987  1  0.430900  0.607600  0.571800  1.0
  O  O2988  1  0.930900  0.892400  0.428200  1.0
  O  O2989  1  0.071800  0.069100  0.392400  1.0
  O  O2990  1  0.928200  0.569100  0.107600  1.0
  O  O2991  1  0.571800  0.430900  0.607600  1.0
  O  O2992  1  0.428200  0.930900  0.892400  1.0
  O  O2993  1  0.547200  0.897400  0.938800  1.0
  O  O2994  1  0.952800  0.102600  0.438800  1.0
  O  O2995  1  0.452800  0.397400  0.561200  1.0
  O  O2996  1  0.047200  0.602600  0.061200  1.0
  O  O2997  1  0.938800  0.547200  0.897400  1.0
  O  O2998  1  0.438800  0.952800  0.102600  1.0
  O  O2999  1  0.561200  0.452800  0.397400  1.0
  O  O3000  1  0.061200  0.047200  0.602600  1.0
  O  O3001  1  0.897400  0.938800  0.547200  1.0
  O  O3002  1  0.102600  0.438800  0.952800  1.0
  O  O3003  1  0.397400  0.561200  0.452800  1.0
  O  O3004  1  0.602600  0.061200  0.047200  1.0
  O  O3005  1  0.452800  0.102600  0.061200  1.0
  O  O3006  1  0.047200  0.897400  0.561200  1.0
  O  O3007  1  0.547200  0.602600  0.438800  1.0
  O  O3008  1  0.952800  0.397400  0.938800  1.0
  O  O3009  1  0.061200  0.452800  0.102600  1.0
  O  O3010  1  0.561200  0.047200  0.897400  1.0
  O  O3011  1  0.438800  0.547200  0.602600  1.0
  O  O3012  1  0.938800  0.952800  0.397400  1.0
  O  O3013  1  0.102600  0.061200  0.452800  1.0
  O  O3014  1  0.897400  0.561200  0.047200  1.0
  O  O3015  1  0.602600  0.438800  0.547200  1.0
  O  O3016  1  0.397400  0.938800  0.952800  1.0
