
#######################################################################
#
#                 Cambridge Crystallographic Data Centre
#                                CCDC 
#
#######################################################################
#
# If this CIF has been generated from an entry in the Cambridge 
# Structural Database, then it will include bibliographic, chemical, 
# crystal, experimental, refinement or atomic coordinate data resulting 
# from the CCDC's data processing and validation procedures.
#
#######################################################################

data_TEFXIN
_chemical_formula_moiety         
'C144 H96 Fe4 N24 O36 S12 4-,4(C1 H6 N3 1+),7(C3 H6 O1),21(H2 O1)'
_chemical_name_systematic        
"hexakis(\m~2~4,4'-bis((pyridin-2-ylmethylene)amino)biphenyl-2,2'-disulfonate)-tetra-iron tetrakis(guanidinium) acetone clathrate henicosahydrate"
_symmetry_cell_setting           cubic
_symmetry_space_group_name_H-M   'P a -3'
_symmetry_Int_Tables_number      205
_space_group_name_Hall           '-P 2ac 2ab 3'
loop_
_symmetry_equiv_pos_site_id
_symmetry_equiv_pos_as_xyz
1 x,y,z
2 1/2-x,-y,1/2+z
3 -x,1/2+y,1/2-z
4 1/2+x,1/2-y,-z
5 z,x,y
6 1/2+z,1/2-x,-y
7 1/2-z,-x,1/2+y
8 -z,1/2+x,1/2-y
9 y,z,x
10 -y,1/2+z,1/2-x
11 1/2+y,1/2-z,-x
12 1/2-y,-z,1/2+x
13 -x,-y,-z
14 1/2+x,y,1/2-z
15 x,1/2-y,1/2+z
16 1/2-x,1/2+y,z
17 -z,-x,-y
18 1/2-z,1/2+x,y
19 1/2+z,x,1/2-y
20 z,1/2-x,1/2+y
21 -y,-z,-x
22 y,1/2-z,1/2+x
23 1/2-y,1/2+z,x
24 1/2+y,z,1/2-x
_cell_length_a                   34.640(2)
_cell_length_b                   34.640(2)
_cell_length_c                   34.640(2)
_cell_angle_alpha                90
_cell_angle_beta                 90
_cell_angle_gamma                90
_cell_volume                     41565.6
_exptl_crystal_colour            purple
_exptl_crystal_description       block
_cell_formula_units_Z            8
loop_
_atom_site_label
_atom_site_type_symbol
_atom_site_fract_x
_atom_site_fract_y
_atom_site_fract_z
C49 C 0.5292(4) -0.0292(4) 0.0292(4)
N9 N 0.5610(3) -0.0096(5) 0.0134(4)
H33 H 0.5709 -0.0173 -0.0087
H34 H 0.5709 0.0103 0.0256
N9E N 0.5134(4) -0.0610(3) 0.0096(5)
N9K N 0.5096(5) -0.0134(4) 0.0610(3)
H33E H 0.4913 -0.0709 0.0173
H33K H 0.5173 0.0087 0.0709
H34E H 0.5256 -0.0709 -0.0103
H34K H 0.4897 -0.0256 0.0709
C50 C 0.6557(8) -0.2271(4) -0.1182(7)
N10 N 0.6819(5) -0.2239(3) -0.0898(5)
H35 H 0.6923 -0.2447 -0.0797
H36 H 0.6886 -0.2009 -0.0812
N11 N 0.6455(7) -0.2621(5) -0.1312(5)
H37 H 0.6287 -0.2643 -0.1501
H38 H 0.6556 -0.2830 -0.1208
N12 N 0.6402(6) -0.1954(7) -0.1341(5)
H39 H 0.6233 -0.1976 -0.1531
H40 H 0.6468 -0.1724 -0.1257
O13 O 0.6145(4) 0.0026(3) -0.0618(4)
O14 O 0.6360(4) 0.2147(4) -0.0411(4)
O15 O 0.5972(4) 0.1899(4) 0.0206(5)
O16 O 0.8612(5) -0.1106(5) 0.0395(3)
O17 O 0.7035(4) -0.0518(5) 0.2282(5)
O18 O 0.6988(4) 0.2524(4) -0.0139(4)
O19 O 0.8336(5) 0.1090(5) -0.0410(5)
C1 C 0.7935(3) -0.0169(3) -0.0358(3)
C2 C 0.7753(3) 0.0412(4) -0.0596(5)
H1 H 0.7634 0.0657 -0.0561
C3 C 0.7897(4) 0.0317(4) -0.0952(4)
H2 H 0.7881 0.0498 -0.1158
C4 C 0.8064(3) -0.0032(5) -0.1015(4)
H3 H 0.8165 -0.0095 -0.1262
C5 C 0.8084(3) -0.0290(3) -0.0722(4)
H4 H 0.8193 -0.0540 -0.0757
C6 C 0.7935(3) -0.0430(3) -0.0033(4)
H5 H 0.8038 -0.0684 -0.0046
C7 C 0.7753(3) -0.0538(4) 0.0596(4)
C8 C 0.7935(3) -0.0439(4) 0.0953(5)
H6 H 0.8067 -0.0199 0.0976
C9 C 0.7921(3) -0.0693(4) 0.1273(4)
C10 C 0.7736(3) -0.1047(4) 0.1229(4)
C11 C 0.7554(3) -0.1139(4) 0.0893(4)
H7 H 0.7423 -0.1379 0.0869
C12 C 0.7558(3) -0.0888(4) 0.0591(3)
H8 H 0.7419 -0.0956 0.0364
C13 C 0.7716(3) -0.1327(4) 0.1581(4)
C14 C 0.7990(3) -0.1621(4) 0.1625(4)
C15 C 0.7969(4) -0.1851(4) 0.1952(4)
H9 H 0.8155 -0.2050 0.1985
C16 C 0.7700(4) -0.1805(4) 0.2220(4)
C17 C 0.7422(4) -0.1523(4) 0.2188(4)
H10 H 0.7227 -0.1492 0.2378
C18 C 0.7439(4) -0.1285(4) 0.1866(4)
H11 H 0.7252 -0.1086 0.1840
C19 C 0.7799(4) -0.1885(4) 0.2877(4)
H12 H 0.7872 -0.1620 0.2876
C20 C 0.7803(3) -0.2097(3) 0.3224(3)
N1 N 0.7713(2) -0.2481(3) 0.31519(19)
C21 C 0.7705(3) -0.2746(2) 0.3453(3)
H13 H 0.7643 -0.3008 0.3404
C22 C 0.7788(3) -0.2626(3) 0.3827(2)
H14 H 0.7782 -0.2807 0.4033
C23 C 0.7878(3) -0.2242(4) 0.3900(2)
H15 H 0.7934 -0.2160 0.4156
C24 C 0.7886(3) -0.1977(2) 0.3598(3)
H16 H 0.7948 -0.1715 0.3648
C25 C 0.7013(3) 0.0775(3) -0.0011(3)
C26 C 0.7535(3) 0.1133(4) 0.0199(4)
H17 H 0.7786 0.1147 0.0308
C27 C 0.7342(4) 0.1470(4) 0.0114(5)
H18 H 0.7469 0.1711 0.0147
C28 C 0.6965(5) 0.1463(3) -0.0018(5)
H19 H 0.6822 0.1693 -0.0059
C29 C 0.6808(4) 0.1104(4) -0.0087(5)
H20 H 0.6553 0.1085 -0.0188
C30 C 0.6845(3) 0.0384(3) -0.0061(3)
H21 H 0.6597 0.0345 -0.0170
C31 C 0.6895(3) -0.0279(3) 0.0026(3)
C32 C 0.7029(3) -0.0540(3) -0.0249(3)
H22 H 0.7240 -0.0466 -0.0408
C33 C 0.6873(3) -0.0897(3) -0.0301(3)
C34 C 0.6543(3) -0.1001(3) -0.0093(4)
C35 C 0.6419(3) -0.0750(4) 0.0182(3)
H23 H 0.6207 -0.0825 0.0339
C36 C 0.6587(3) -0.0390(3) 0.0248(3)
H24 H 0.6489 -0.0224 0.0443
C37 C 0.8072(2) 0.0547(3) 0.0822(3)
N2 N 0.80810(17) 0.0463(2) 0.0430(3)
C38 C 0.8405(2) 0.0555(3) 0.0212(3)
H25 H 0.8411 0.0498 -0.0056
C39 C 0.8721(2) 0.0730(3) 0.0386(4)
H26 H 0.8943 0.0792 0.0238
C40 C 0.8713(2) 0.0813(3) 0.0779(4)
H27 H 0.8929 0.0933 0.0898
C41 C 0.8389(3) 0.0722(3) 0.0997(3)
H28 H 0.8383 0.0779 0.1265
C42 C 0.7718(3) 0.0458(3) 0.0998(5)
H29 H 0.7679 0.0500 0.1266
C43 C 0.5971(3) -0.2090(3) -0.0247(3)
C44 C 0.5872(3) -0.1780(3) -0.0468(3)
H30 H 0.5683 -0.1815 -0.0664
C45 C 0.6035(3) -0.1412(3) -0.0421(3)
C46 C 0.6335(3) -0.1361(3) -0.0148(3)
C47 C 0.6421(3) -0.1690(4) 0.0068(4)
H31 H 0.6614 -0.1666 0.0261
C48 C 0.6248(3) -0.2048(4) 0.0026(4)
H32 H 0.6322 -0.2259 0.0185
N3 N 0.7774(2) 0.0172(3) -0.0297(3)
N4 N 0.7782(2) -0.0286(2) 0.0281(3)
N5 N 0.7698(3) -0.2051(3) 0.2564(3)
N6 N 0.7374(2) 0.0772(2) 0.0129(3)
N7 N 0.7056(2) 0.0103(2) 0.0053(2)
N8 N 0.7450(3) 0.0319(2) 0.0789(3)
O1 O 0.8332(4) -0.0174(4) 0.1627(4)
O2 O 0.7787(3) -0.0413(4) 0.1960(3)
O3 O 0.8354(3) -0.0810(3) 0.1880(3)
O4 O 0.8487(3) -0.1405(3) 0.1098(3)
O5 O 0.8123(5) -0.1951(4) 0.1002(5)
O6 O 0.8600(5) -0.1949(6) 0.1463(5)
O7 O 0.6806(4) -0.1310(4) -0.0896(4)
O8 O 0.7384(3) -0.0988(3) -0.0832(4)
O9 O 0.7220(4) -0.1545(3) -0.0426(6)
O10 O 0.5885(3) -0.1210(3) -0.1121(4)
O11 O 0.6076(3) -0.0718(4) -0.0691(3)
O12 O 0.5472(3) -0.1026(4) -0.0612(3)
S1 S 0.81206(11) -0.05074(13) 0.17242(12)
S2 S 0.83537(18) -0.1739(2) 0.12798(16)
S3 S 0.70933(14) -0.12169(12) -0.0629(2)
S4 S 0.58438(9) -0.10376(13) -0.06961(13)
Fe1 Fe 0.75840(4) 0.02495(5) 0.02383(5)
Fe2 Fe 0.76084(5) -0.26084(5) 0.26084(5)
C1K C 0.5169(3) 0.0358(3) 0.2935(3)
C1E C 0.4642(3) -0.2935(3) 0.0169(3)
C2K C 0.4588(4) 0.0596(5) 0.2753(3)
C2E C 0.4404(5) -0.2753(3) -0.0412(4)
H1K H 0.4343 0.0561 0.2634
H1E H 0.4439 -0.2634 -0.0657
C3K C 0.4683(4) 0.0952(4) 0.2897(4)
C3E C 0.4048(4) -0.2897(4) -0.0317(4)
H2E H 0.3842 -0.2881 -0.0498
H2K H 0.4502 0.1158 0.2881
C4K C 0.5032(5) 0.1015(4) 0.3064(3)
C4E C 0.3985(4) -0.3064(3) 0.0032(5)
H3E H 0.3738 -0.3165 0.0095
H3K H 0.5095 0.1262 0.3165
C5K C 0.5290(3) 0.0722(4) 0.3084(3)
C5E C 0.4278(4) -0.3084(3) 0.0290(3)
H4E H 0.4243 -0.3193 0.0540
H4K H 0.5540 0.0757 0.3193
C6K C 0.5430(3) 0.0033(4) 0.2935(3)
C6E C 0.4967(4) -0.2935(3) 0.0430(3)
H5E H 0.4954 -0.3038 0.0684
H5K H 0.5684 0.0046 0.3038
C7K C 0.5538(4) -0.0596(4) 0.2753(3)
C7E C 0.5596(4) -0.2753(3) 0.0538(4)
C8K C 0.5439(4) -0.0953(5) 0.2935(3)
C8E C 0.5953(5) -0.2935(3) 0.0439(4)
H6E H 0.5976 -0.3067 0.0199
H6K H 0.5199 -0.0976 0.3067
C9K C 0.5693(4) -0.1273(4) 0.2921(3)
C9E C 0.6273(4) -0.2921(3) 0.0693(4)
C10K C 0.6047(4) -0.1229(4) 0.2736(3)
C10E C 0.6229(4) -0.2736(3) 0.1047(4)
C11K C 0.6139(4) -0.0893(4) 0.2554(3)
C11E C 0.5893(4) -0.2554(3) 0.1139(4)
H7K H 0.6379 -0.0869 0.2423
H7E H 0.5869 -0.2423 0.1379
C12K C 0.5888(4) -0.0591(3) 0.2558(3)
C12E C 0.5591(3) -0.2558(3) 0.0888(4)
H8K H 0.5956 -0.0364 0.2419
H8E H 0.5364 -0.2419 0.0956
C13K C 0.6327(4) -0.1581(4) 0.2716(3)
C13E C 0.6581(4) -0.2716(3) 0.1327(4)
C14K C 0.6621(4) -0.1625(4) 0.2990(3)
C14E C 0.6625(4) -0.2990(3) 0.1621(4)
C15K C 0.6851(4) -0.1952(4) 0.2969(4)
C15E C 0.6952(4) -0.2969(4) 0.1851(4)
H9E H 0.6985 -0.3155 0.2050
H9K H 0.7050 -0.1985 0.3155
C16K C 0.6805(4) -0.2220(4) 0.2700(4)
C16E C 0.7220(4) -0.2700(4) 0.1805(4)
C17E C 0.7188(4) -0.2422(4) 0.1523(4)
C17K C 0.6523(4) -0.2188(4) 0.2422(4)
H10E H 0.7378 -0.2227 0.1492
H10K H 0.6492 -0.2378 0.2227
C18E C 0.6866(4) -0.2439(4) 0.1285(4)
C18K C 0.6285(4) -0.1866(4) 0.2439(4)
H11E H 0.6840 -0.2252 0.1086
H11K H 0.6086 -0.1840 0.2252
C19K C 0.6885(4) -0.2877(4) 0.2799(4)
C19E C 0.7877(4) -0.2799(4) 0.1885(4)
H12K H 0.6620 -0.2876 0.2872
H12E H 0.7876 -0.2872 0.1620
C20K C 0.7097(3) -0.3224(3) 0.2803(3)
C20E C 0.8224(3) -0.2803(3) 0.2097(3)
N1K N 0.7481(3) -0.31519(19) 0.2713(2)
N1E N 0.81519(19) -0.2713(2) 0.2481(3)
C21E C 0.8453(3) -0.2705(3) 0.2746(2)
C21K C 0.7746(2) -0.3453(3) 0.2705(3)
H13E H 0.8404 -0.2643 0.3008
H13K H 0.8008 -0.3404 0.2643
C22E C 0.8827(2) -0.2788(3) 0.2626(3)
C22K C 0.7626(3) -0.3827(2) 0.2788(3)
H14E H 0.9033 -0.2782 0.2807
H14K H 0.7807 -0.4033 0.2782
C23E C 0.8900(2) -0.2878(3) 0.2242(4)
C23K C 0.7242(4) -0.3900(2) 0.2878(3)
H15E H 0.9156 -0.2934 0.2160
H15K H 0.7160 -0.4156 0.2934
C24E C 0.8598(3) -0.2886(3) 0.1977(2)
C24K C 0.6977(2) -0.3598(3) 0.2886(3)
H16E H 0.8648 -0.2948 0.1715
H16K H 0.6715 -0.3648 0.2948
C25E C 0.4989(3) -0.2013(3) -0.0775(3)
C25K C 0.4225(3) 0.0011(3) 0.2013(3)
C26E C 0.5199(4) -0.2535(3) -0.1133(4)
C26K C 0.3867(4) -0.0199(4) 0.2535(3)
H17E H 0.5308 -0.2786 -0.1147
H17K H 0.3853 -0.0308 0.2786
C27E C 0.5114(5) -0.2342(4) -0.1470(4)
C27K C 0.3530(4) -0.0114(5) 0.2342(4)
H18K H 0.3289 -0.0147 0.2469
H18E H 0.5147 -0.2469 -0.1711
C28E C 0.4982(5) -0.1965(5) -0.1463(3)
C28K C 0.3537(3) 0.0018(5) 0.1965(5)
H19K H 0.3307 0.0059 0.1822
H19E H 0.4941 -0.1822 -0.1693
C29E C 0.4913(5) -0.1808(4) -0.1104(4)
C29K C 0.3896(4) 0.0087(5) 0.1808(4)
H20K H 0.3915 0.0188 0.1553
H20E H 0.4812 -0.1553 -0.1085
C30E C 0.4939(3) -0.1845(3) -0.0384(3)
C30K C 0.4616(3) 0.0061(3) 0.1845(3)
H21K H 0.4655 0.0170 0.1597
H21E H 0.4830 -0.1597 -0.0345
C31E C 0.5026(3) -0.1895(3) 0.0279(3)
C31K C 0.5279(3) -0.0026(3) 0.1895(3)
C32E C 0.4751(3) -0.2029(3) 0.0540(3)
C32K C 0.5540(3) 0.0249(3) 0.2029(3)
H22K H 0.5466 0.0408 0.2240
H22E H 0.4592 -0.2240 0.0466
C33E C 0.4699(3) -0.1873(3) 0.0897(3)
C33K C 0.5897(3) 0.0301(3) 0.1873(3)
C34E C 0.4907(4) -0.1543(3) 0.1001(3)
C34K C 0.6001(3) 0.0093(4) 0.1543(3)
C35E C 0.5182(3) -0.1419(3) 0.0750(4)
C35K C 0.5750(4) -0.0182(3) 0.1419(3)
H23E H 0.5339 -0.1207 0.0825
H23K H 0.5825 -0.0339 0.1207
C36E C 0.5248(3) -0.1587(3) 0.0390(3)
C36K C 0.5390(3) -0.0248(3) 0.1587(3)
H24E H 0.5443 -0.1489 0.0224
H24K H 0.5224 -0.0443 0.1489
C37K C 0.4453(3) -0.0822(3) 0.3072(2)
C37E C 0.5822(3) -0.3072(2) -0.0547(3)
N2K N 0.4537(2) -0.0430(3) 0.30810(17)
N2E N 0.5430(3) -0.30810(17) -0.0463(2)
C38K C 0.4445(3) -0.0212(3) 0.3405(2)
C38E C 0.5212(3) -0.3405(2) -0.0555(3)
H25K H 0.4502 0.0056 0.3411
H25E H 0.4944 -0.3411 -0.0498
C39K C 0.4270(3) -0.0386(4) 0.3721(2)
C39E C 0.5386(4) -0.3721(2) -0.0730(3)
H26K H 0.4208 -0.0238 0.3943
H26E H 0.5238 -0.3943 -0.0792
C40K C 0.4187(3) -0.0779(4) 0.3713(2)
C40E C 0.5779(4) -0.3713(2) -0.0813(3)
H27K H 0.4067 -0.0898 0.3929
H27E H 0.5898 -0.3929 -0.0933
C41K C 0.4278(3) -0.0997(3) 0.3389(3)
C41E C 0.5997(3) -0.3389(3) -0.0722(3)
H28K H 0.4221 -0.1265 0.3383
H28E H 0.6265 -0.3383 -0.0779
C42K C 0.4542(3) -0.0998(5) 0.2718(3)
C42E C 0.5998(5) -0.2718(3) -0.0458(3)
H29K H 0.4500 -0.1266 0.2679
H29E H 0.6266 -0.2679 -0.0500
C43E C 0.4753(3) -0.0971(3) 0.2090(3)
C43K C 0.7090(3) 0.0247(3) 0.0971(3)
C44E C 0.4532(3) -0.0872(3) 0.1780(3)
C44K C 0.6780(3) 0.0468(3) 0.0872(3)
H30E H 0.4336 -0.0683 0.1815
H30K H 0.6815 0.0664 0.0683
C45E C 0.4579(3) -0.1035(3) 0.1412(3)
C45K C 0.6412(3) 0.0421(3) 0.1035(3)
C46E C 0.4852(3) -0.1335(3) 0.1361(3)
C46K C 0.6361(3) 0.0148(3) 0.1335(3)
C47K C 0.6690(4) -0.0068(4) 0.1421(3)
C47E C 0.5068(4) -0.1421(3) 0.1690(4)
H31K H 0.6666 -0.0261 0.1614
H31E H 0.5261 -0.1614 0.1666
C48K C 0.7048(4) -0.0026(4) 0.1248(3)
C48E C 0.5026(4) -0.1248(3) 0.2048(4)
H32K H 0.7259 -0.0185 0.1322
H32E H 0.5185 -0.1322 0.2259
N3K N 0.4828(3) 0.0297(3) 0.2774(2)
N3E N 0.4703(3) -0.2774(2) -0.0172(3)
N4K N 0.5286(2) -0.0281(3) 0.2782(2)
N4E N 0.5281(3) -0.2782(2) 0.0286(2)
N5K N 0.7051(3) -0.2564(3) 0.2698(3)
N5E N 0.7564(3) -0.2698(3) 0.2051(3)
N6E N 0.5129(3) -0.2374(2) -0.0772(2)
N6K N 0.4228(2) -0.0129(3) 0.2374(2)
N7E N 0.5053(2) -0.2056(2) -0.0103(2)
N7K N 0.4897(2) -0.0053(2) 0.2056(2)
N8K N 0.4681(2) -0.0789(3) 0.2450(3)
N8E N 0.5789(3) -0.2450(3) -0.0319(2)
O1E O 0.6627(4) -0.3332(4) 0.0174(4)
O1K O 0.5174(4) -0.1627(4) 0.3332(4)
O2E O 0.6960(3) -0.2787(3) 0.0413(4)
O2K O 0.5413(4) -0.1960(3) 0.2787(3)
O3E O 0.6880(3) -0.3354(3) 0.0810(3)
O3K O 0.5810(3) -0.1880(3) 0.3354(3)
O4E O 0.6098(3) -0.3487(3) 0.1405(3)
O4K O 0.6405(3) -0.1098(3) 0.3487(3)
O5E O 0.6002(5) -0.3123(5) 0.1951(4)
O5K O 0.6951(4) -0.1002(5) 0.3123(5)
O6E O 0.6463(5) -0.3600(5) 0.1949(6)
O6K O 0.6949(6) -0.1463(5) 0.3600(5)
O7K O 0.6310(4) 0.0896(4) 0.1806(4)
O7E O 0.4104(4) -0.1806(4) 0.1310(4)
O8K O 0.5988(3) 0.0832(4) 0.2384(3)
O8E O 0.4168(4) -0.2384(3) 0.0988(3)
O9K O 0.6545(3) 0.0426(6) 0.2220(4)
O9E O 0.4574(6) -0.2220(4) 0.1545(3)
O10K O 0.6210(3) 0.1121(4) 0.0885(3)
O10E O 0.3879(4) -0.0885(3) 0.1210(3)
O11K O 0.5718(4) 0.0691(3) 0.1076(3)
O11E O 0.4309(3) -0.1076(3) 0.0718(4)
O12K O 0.6026(4) 0.0612(3) 0.0472(3)
O12E O 0.4388(3) -0.0472(3) 0.1026(4)
S1E S 0.67242(12) -0.31206(11) 0.05074(13)
S1K S 0.55074(13) -0.17242(12) 0.31206(11)
S2E S 0.62798(16) -0.33537(18) 0.1739(2)
S2K S 0.6739(2) -0.12798(16) 0.33537(18)
S3K S 0.62169(12) 0.0629(2) 0.20933(14)
S3E S 0.4371(2) -0.20933(14) 0.12169(12)
S4K S 0.60376(13) 0.06961(13) 0.08438(9)
S4E S 0.43039(13) -0.08438(9) 0.10376(13)
Fe1K Fe 0.47505(5) -0.02383(5) 0.25840(4)
Fe1E Fe 0.52383(5) -0.25840(4) -0.02495(5)
loop_
_geom_bond_atom_site_label_1
_geom_bond_atom_site_label_2
_geom_bond_site_symmetry_1
_geom_bond_site_symmetry_2
C1 C5 1_555 1_555
C2 H1 1_555 1_555
C3 C2 1_555 1_555
H2 C3 1_555 1_555
C4 C3 1_555 1_555
H3 C4 1_555 1_555
C5 C4 1_555 1_555
H4 C5 1_555 1_555
C6 C1 1_555 1_555
H5 C6 1_555 1_555
C7 C8 1_555 1_555
C8 H6 1_555 1_555
C9 C8 1_555 1_555
C10 C9 1_555 1_555
C11 C10 1_555 1_555
H7 C11 1_555 1_555
C12 C7 1_555 1_555
H8 C12 1_555 1_555
C13 C10 1_555 1_555
C14 C13 1_555 1_555
C15 C14 1_555 1_555
H9 C15 1_555 1_555
C16 C15 1_555 1_555
C17 C16 1_555 1_555
H10 C17 1_555 1_555
C18 C13 1_555 1_555
H11 C18 1_555 1_555
C19 H12 1_555 1_555
C20 C19 1_555 1_555
N1 C20 1_555 1_555
C21 N1 1_555 1_555
H13 C21 1_555 1_555
C22 C21 1_555 1_555
H14 C22 1_555 1_555
C23 C22 1_555 1_555
H15 C23 1_555 1_555
C24 C20 1_555 1_555
H16 C24 1_555 1_555
C25 C29 1_555 1_555
C26 H17 1_555 1_555
C27 C26 1_555 1_555
H18 C27 1_555 1_555
C28 C27 1_555 1_555
H19 C28 1_555 1_555
C29 C28 1_555 1_555
H20 C29 1_555 1_555
C30 C25 1_555 1_555
H21 C30 1_555 1_555
C31 C32 1_555 1_555
C32 H22 1_555 1_555
C33 C32 1_555 1_555
C34 C33 1_555 1_555
C35 C34 1_555 1_555
H23 C35 1_555 1_555
C36 C31 1_555 1_555
H24 C36 1_555 1_555
C37 N2 1_555 1_555
N2 C38 1_555 1_555
C38 H25 1_555 1_555
C39 C38 1_555 1_555
H26 C39 1_555 1_555
C40 C39 1_555 1_555
H27 C40 1_555 1_555
C41 C37 1_555 1_555
H28 C41 1_555 1_555
C42 C37 1_555 1_555
H29 C42 1_555 1_555
C43 C44 1_555 1_555
C44 H30 1_555 1_555
C45 C44 1_555 1_555
C46 C34 1_555 1_555
C47 C46 1_555 1_555
H31 C47 1_555 1_555
C48 C43 1_555 1_555
H32 C48 1_555 1_555
C49 N9 1_555 1_555
C50 N10 1_555 1_555
N3 C1 1_555 1_555
N4 C6 1_555 1_555
N5 C16 1_555 1_555
N6 C25 1_555 1_555
N7 C30 1_555 1_555
N8 C42 1_555 1_555
N9 H33 1_555 1_555
H34 N9 1_555 1_555
N10 H35 1_555 1_555
H36 N10 1_555 1_555
N11 C50 1_555 1_555
H37 N11 1_555 1_555
H38 N11 1_555 1_555
N12 C50 1_555 1_555
H39 N12 1_555 1_555
H40 N12 1_555 1_555
O1 S1 1_555 1_555
O2 S1 1_555 1_555
O3 S1 1_555 1_555
O4 S2 1_555 1_555
O5 S2 1_555 1_555
O6 S2 1_555 1_555
O7 S3 1_555 1_555
O8 S3 1_555 1_555
O9 S3 1_555 1_555
O10 S4 1_555 1_555
O11 S4 1_555 1_555
O12 S4 1_555 1_555
S1 C9 1_555 1_555
S2 C14 1_555 1_555
S3 C33 1_555 1_555
S4 C45 1_555 1_555
Fe1 N2 1_555 1_555
Fe2 N1 1_555 1_555
C1K C5K 1_555 1_555
C1E C5E 1_555 1_555
C2K H1K 1_555 1_555
C2E H1E 1_555 1_555
C3K C2K 1_555 1_555
C3E C2E 1_555 1_555
H2E C3E 1_555 1_555
H2K C3K 1_555 1_555
C4K C3K 1_555 1_555
C4E C3E 1_555 1_555
H3E C4E 1_555 1_555
H3K C4K 1_555 1_555
C5K C4K 1_555 1_555
C5E C4E 1_555 1_555
H4E C5E 1_555 1_555
H4K C5K 1_555 1_555
C6K C1K 1_555 1_555
C6E C1E 1_555 1_555
H5E C6E 1_555 1_555
H5K C6K 1_555 1_555
C7K C8K 1_555 1_555
C7E C8E 1_555 1_555
C8K H6K 1_555 1_555
C8E H6E 1_555 1_555
C9K C8K 1_555 1_555
C9E C8E 1_555 1_555
C10K C9K 1_555 1_555
C10E C9E 1_555 1_555
C11K C10K 1_555 1_555
C11E C10E 1_555 1_555
H7K C11K 1_555 1_555
H7E C11E 1_555 1_555
C12K C7K 1_555 1_555
C12E C7E 1_555 1_555
H8K C12K 1_555 1_555
H8E C12E 1_555 1_555
C13K C10K 1_555 1_555
C13E C10E 1_555 1_555
C14K C13K 1_555 1_555
C14E C13E 1_555 1_555
C15K C14K 1_555 1_555
C15E C14E 1_555 1_555
H9E C15E 1_555 1_555
H9K C15K 1_555 1_555
C16K C15K 1_555 1_555
C16E C15E 1_555 1_555
C17E C16E 1_555 1_555
C17K C16K 1_555 1_555
H10E C17E 1_555 1_555
H10K C17K 1_555 1_555
C18E C13E 1_555 1_555
C18K C13K 1_555 1_555
H11E C18E 1_555 1_555
H11K C18K 1_555 1_555
C19K H12K 1_555 1_555
C19E H12E 1_555 1_555
C20K C19K 1_555 1_555
C20E C19E 1_555 1_555
N1K Fe2 1_555 1_555
N1E Fe2 1_555 1_555
C21E N1E 1_555 1_555
C21K N1K 1_555 1_555
H13E C21E 1_555 1_555
H13K C21K 1_555 1_555
C22E C21E 1_555 1_555
C22K C21K 1_555 1_555
H14E C22E 1_555 1_555
H14K C22K 1_555 1_555
C23E C22E 1_555 1_555
C23K C22K 1_555 1_555
H15E C23E 1_555 1_555
H15K C23K 1_555 1_555
C24E C20E 1_555 1_555
C24K C20K 1_555 1_555
H16E C24E 1_555 1_555
H16K C24K 1_555 1_555
C25E C29E 1_555 1_555
C25K C29K 1_555 1_555
C26E H17E 1_555 1_555
C26K H17K 1_555 1_555
C27E C26E 1_555 1_555
C27K C26K 1_555 1_555
H18K C27K 1_555 1_555
H18E C27E 1_555 1_555
C28E C27E 1_555 1_555
C28K C27K 1_555 1_555
H19K C28K 1_555 1_555
H19E C28E 1_555 1_555
C29E C28E 1_555 1_555
C29K C28K 1_555 1_555
H20K C29K 1_555 1_555
H20E C29E 1_555 1_555
C30E C25E 1_555 1_555
C30K C25K 1_555 1_555
H21K C30K 1_555 1_555
H21E C30E 1_555 1_555
C31E C32E 1_555 1_555
C31K C32K 1_555 1_555
C32E H22E 1_555 1_555
C32K H22K 1_555 1_555
C33E C32E 1_555 1_555
C33K C32K 1_555 1_555
C34E C33E 1_555 1_555
C34K C33K 1_555 1_555
C35E C34E 1_555 1_555
C35K C34K 1_555 1_555
H23E C35E 1_555 1_555
H23K C35K 1_555 1_555
C36E C31E 1_555 1_555
C36K C31K 1_555 1_555
H24E C36E 1_555 1_555
H24K C36K 1_555 1_555
C37K N2K 1_555 1_555
C37E N2E 1_555 1_555
N2K C38K 1_555 1_555
N2E C38E 1_555 1_555
C38K H25K 1_555 1_555
C38E H25E 1_555 1_555
C39K C38K 1_555 1_555
C39E C38E 1_555 1_555
H26K C39K 1_555 1_555
H26E C39E 1_555 1_555
C40K C39K 1_555 1_555
C40E C39E 1_555 1_555
H27K C40K 1_555 1_555
H27E C40E 1_555 1_555
C41K C37K 1_555 1_555
C41E C37E 1_555 1_555
H28K C41K 1_555 1_555
H28E C41E 1_555 1_555
C42K C37K 1_555 1_555
C42E C37E 1_555 1_555
H29K C42K 1_555 1_555
H29E C42E 1_555 1_555
C43E C44E 1_555 1_555
C43K N8 1_555 1_555
C44E H30E 1_555 1_555
C44K C43K 1_555 1_555
H30K C44K 1_555 1_555
C45E C44E 1_555 1_555
C45K C44K 1_555 1_555
C46E C34E 1_555 1_555
C46K C34K 1_555 1_555
C47K C46K 1_555 1_555
C47E C46E 1_555 1_555
H31K C47K 1_555 1_555
H31E C47E 1_555 1_555
C48K C43K 1_555 1_555
C48E C43E 1_555 1_555
H32K C48K 1_555 1_555
H32E C48E 1_555 1_555
N3K C1K 1_555 1_555
N3E C1E 1_555 1_555
N4K C6K 1_555 1_555
N4E C6E 1_555 1_555
N5K Fe2 1_555 1_555
N5E Fe2 1_555 1_555
N6E C25E 1_555 1_555
N6K C25K 1_555 1_555
N7E C30E 1_555 1_555
N7K C30K 1_555 1_555
N8K C42K 1_555 1_555
N8E C43 1_555 1_555
N9E C49 1_555 1_555
N9K C49 1_555 1_555
H33E N9E 1_555 1_555
H33K N9K 1_555 1_555
H34E N9E 1_555 1_555
H34K N9K 1_555 1_555
O1E S1E 1_555 1_555
O1K S1K 1_555 1_555
O2E S1E 1_555 1_555
O2K S1K 1_555 1_555
O3E S1E 1_555 1_555
O3K S1K 1_555 1_555
O4E S2E 1_555 1_555
O4K S2K 1_555 1_555
O5E S2E 1_555 1_555
O5K S2K 1_555 1_555
O6E S2E 1_555 1_555
O6K S2K 1_555 1_555
O7K S3K 1_555 1_555
O7E S3E 1_555 1_555
O8K S3K 1_555 1_555
O8E S3E 1_555 1_555
O9K S3K 1_555 1_555
O9E S3E 1_555 1_555
O10K S4K 1_555 1_555
O10E S4E 1_555 1_555
O11K S4K 1_555 1_555
O11E S4E 1_555 1_555
O12K S4K 1_555 1_555
O12E S4E 1_555 1_555
S1E C9E 1_555 1_555
S1K C9K 1_555 1_555
S2E C14E 1_555 1_555
S2K C14K 1_555 1_555
S3K C33K 1_555 1_555
S3E C33E 1_555 1_555
S4K C45K 1_555 1_555
S4E C45E 1_555 1_555
Fe1K N2K 1_555 1_555
Fe1E N2E 1_555 1_555
C2 N3 1_555 1_555
C7 N4 1_555 1_555
C11 C12 1_555 1_555
C17 C18 1_555 1_555
C19 N5 1_555 1_555
C23 C24 1_555 1_555
C26 N6 1_555 1_555
C31 N7 1_555 1_555
C35 C36 1_555 1_555
C40 C41 1_555 1_555
C45 C46 1_555 1_555
C47 C48 1_555 1_555
N3 Fe1 1_555 1_555
N4 Fe1 1_555 1_555
N5 Fe2 1_555 1_555
N6 Fe1 1_555 1_555
N7 Fe1 1_555 1_555
N8 Fe1 1_555 1_555
C2K N3K 1_555 1_555
C2E N3E 1_555 1_555
C7K N4K 1_555 1_555
C7E N4E 1_555 1_555
C11K C12K 1_555 1_555
C11E C12E 1_555 1_555
C16K N5K 1_555 1_555
C16E N5E 1_555 1_555
C17E C18E 1_555 1_555
C17K C18K 1_555 1_555
C19K N5K 1_555 1_555
C19E N5E 1_555 1_555
C20K N1K 1_555 1_555
C20E N1E 1_555 1_555
C23E C24E 1_555 1_555
C23K C24K 1_555 1_555
C26E N6E 1_555 1_555
C26K N6K 1_555 1_555
C31E N7E 1_555 1_555
C31K N7K 1_555 1_555
C35E C36E 1_555 1_555
C35K C36K 1_555 1_555
C40K C41K 1_555 1_555
C40E C41E 1_555 1_555
C42E N8E 1_555 1_555
C43E N8K 1_555 1_555
C45E C46E 1_555 1_555
C45K C46K 1_555 1_555
C47K C48K 1_555 1_555
C47E C48E 1_555 1_555
N3K Fe1K 1_555 1_555
N3E Fe1E 1_555 1_555
N4K Fe1K 1_555 1_555
N4E Fe1E 1_555 1_555
N6E Fe1E 1_555 1_555
N6K Fe1K 1_555 1_555
N7E Fe1E 1_555 1_555
N7K Fe1K 1_555 1_555
N8K Fe1K 1_555 1_555
N8E Fe1E 1_555 1_555

#END
