
#######################################################################
#
#                 Cambridge Crystallographic Data Centre
#                                CCDC 
#
#######################################################################
#
# If this CIF has been generated from an entry in the Cambridge 
# Structural Database, then it will include bibliographic, chemical, 
# crystal, experimental, refinement or atomic coordinate data resulting 
# from the CCDC's data processing and validation procedures.
#
#######################################################################

data_TEKBES
_chemical_formula_moiety         
'C114 H98 N6 O10 Ru4 4+,4(C1 F3 O3 S1 1-),2(C1 H3 N1 O2),2(C4 H10 O1),2(C1 H4 O1)'
_chemical_name_systematic        
'bis(\m~2~-tetracene-5,6,11,12-tetrolato)-bis(\m~2~-N-(4-(pyridin-4-ylethynyl)phenyl)isonicotinamide)-tetrakis(\h^6^-1-isopropyl-4-methylbenzene)-tetra-ruthenium tetrakis(trifluoromethanesulfonate) diethyl ether methanol nitromethane solvate'
_symmetry_cell_setting           monoclinic
_symmetry_space_group_name_H-M   'P 21/c'
_symmetry_Int_Tables_number      14
_space_group_name_Hall           '-P 2ybc'
loop_
_symmetry_equiv_pos_site_id
_symmetry_equiv_pos_as_xyz
1 x,y,z
2 -x,1/2+y,1/2-z
3 -x,-y,-z
4 x,1/2-y,1/2+z
_cell_length_a                   18.232(4)
_cell_length_b                   20.125(4)
_cell_length_c                   18.433(4)
_cell_angle_alpha                90
_cell_angle_beta                 106.85(3)
_cell_angle_gamma                90
_cell_volume                     6473.04
_cell_formula_units_Z            2
loop_
_atom_site_label
_atom_site_type_symbol
_atom_site_fract_x
_atom_site_fract_y
_atom_site_fract_z
Ru1 Ru 0.04806(5) 0.37090(4) 0.89337(4)
Ru2 Ru 0.50402(5) 0.28137(5) 0.91727(5)
O1 O 0.1293(5) 0.3043(3) 0.9490(4)
O2 O 0.1223(4) 0.3935(3) 0.8330(3)
O3 O 0.4241(4) 0.2488(3) 0.9680(4)
O4 O 0.4223(5) 0.3464(3) 0.8595(4)
N1 N 0.0110(5) 0.2945(4) 0.8128(4)
N2 N -0.4492(5) -0.2150(4) 0.1707(5)
C1 C 0.3263(9) 0.1606(7) 1.1112(7)
H1 H 0.3552 0.1300 1.1477
C2 C 0.2542(8) 0.1750(6) 1.1089(7)
H2 H 0.2326 0.1555 1.1450
C3 C 0.3589(8) 0.1901(5) 1.0605(6)
H3 H 0.4102 0.1799 1.0621
C4 C 0.2101(7) 0.2182(5) 1.0542(6)
H4 H 0.1579 0.2259 1.0512
C5 C 0.3170(6) 0.2342(5) 1.0076(6)
C6 C 0.2432(6) 0.2504(5) 1.0036(5)
C7 C 0.3534(6) 0.2679(5) 0.9571(6)
C8 C 0.1997(6) 0.2974(5) 0.9488(6)
C9 C 0.3143(6) 0.3174(5) 0.9066(5)
C10 C 0.2339(6) 0.3311(5) 0.8993(5)
C11 C 0.3528(5) 0.3545(5) 0.8614(5)
C12 C 0.1939(6) 0.3788(4) 0.8466(5)
C13 C 0.3106(6) 0.4054(4) 0.8093(5)
C14 C 0.2335(6) 0.4162(4) 0.8013(5)
C15 C 0.3473(7) 0.4440(5) 0.7666(5)
H5 H 0.4000 0.4366 0.7715
C16 C 0.1937(7) 0.4638(5) 0.7502(5)
H6 H 0.1407 0.4707 0.7442
C17 C 0.3087(8) 0.4915(5) 0.7184(6)
H7 H 0.3351 0.5182 0.6915
C18 C 0.2305(8) 0.5017(5) 0.7078(5)
H8 H 0.2029 0.5338 0.6725
C19 C -0.0398(8) 0.4472(6) 0.8572(7)
C20 C -0.0710(7) 0.3915(6) 0.8843(7)
H9 H -0.1167 0.3713 0.8538
C21 C -0.0332(7) 0.3652(5) 0.9587(6)
H10 H -0.0530 0.3271 0.9771
C22 C 0.0325(8) 0.3963(7) 1.0031(6)
C23 C 0.0595(8) 0.4505(7) 0.9745(9)
H11 H 0.1036 0.4723 1.0059
C24 C 0.0253(8) 0.4766(6) 0.8995(9)
H12 H 0.0475 0.5130 0.8806
C25 C 0.0763(8) 0.3658(9) 1.0768(6)
H13 H 0.0478 0.3276 1.0877
H14 H 0.0833 0.3987 1.1175
H15 H 0.1265 0.3510 1.0737
C26 C -0.0124(7) 0.2361(6) 0.8334(6)
H16 H -0.0002 0.2265 0.8860
C27 C -0.0013(8) 0.3045(7) 0.7401(7)
H17 H 0.0162 0.3452 0.7250
C28 C -0.0527(7) 0.1898(6) 0.7838(6)
H18 H -0.0726 0.1512 0.8009
C29 C -0.0383(7) 0.2599(6) 0.6829(6)
H19 H -0.0456 0.2695 0.6308
C30 C -0.0633(6) 0.2015(7) 0.7061(7)
O5 O -0.0933(9) 0.0841(8) 0.6872(8)
N3 N -0.1517(7) 0.1456(5) 0.5978(6)
H20 H -0.1558 0.1864 0.5799
C31 C -0.1117(9) 0.1453(8) 0.6575(8)
C32 C -0.3218(7) -0.0345(5) 0.3724(7)
C33 C -0.3378(12) -0.0810(7) 0.3430(8)
C34 C -0.1998(5) 0.1000(5) 0.5389(6)
C35 C -0.2236(8) 0.0422(6) 0.5582(8)
H21 H -0.2121 0.0312 0.6105
C36 C -0.2201(6) 0.1178(5) 0.4644(6)
H22 H -0.2082 0.1610 0.4503
C37 C -0.2617(7) 0.0003(6) 0.5084(7)
H23 H -0.2759 -0.0411 0.5252
C38 C -0.2603(6) 0.0706(5) 0.4062(6)
H24 H -0.2694 0.0805 0.3539
C39 C -0.2836(6) 0.0141(5) 0.4280(6)
C40 C -0.3736(9) -0.1280(5) 0.2868(7)
C41 C -0.3907(10) -0.1110(7) 0.2032(7)
H25 H -0.3775 -0.0685 0.1885
C42 C -0.3964(8) -0.1854(5) 0.3010(6)
H26 H -0.3871 -0.1982 0.3525
C43 C -0.4224(9) -0.1535(6) 0.1530(9)
H27 H -0.4283 -0.1432 0.1013
C44 C -0.4355(8) -0.2321(6) 0.2426(6)
H28 H -0.4512 -0.2743 0.2558
C45 C 0.6150(7) 0.2636(11) 0.8958(8)
C46 C 0.5986(9) 0.3288(10) 0.8907(8)
H29 H 0.5967 0.3522 0.8455
C47 C 0.5840(8) 0.3626(8) 0.9521(10)
H30 H 0.5757 0.4092 0.9486
C48 C 0.5813(8) 0.3279(7) 1.0212(7)
C49 C 0.5574(10) 0.3594(7) 1.0856(7)
H31 H 0.5260 0.3259 1.1034
C50 C 0.5924(7) 0.2559(7) 1.0197(7)
H32 H 0.5871 0.2295 1.0606
C51 C 0.6105(7) 0.2258(7) 0.9600(7)
H33 H 0.6202 0.1793 0.9616
C52 C 0.6283(14) 0.3727(11) 1.1509(10)
H34 H 0.6589 0.3320 1.1633
H35 H 0.6131 0.3871 1.1953
H36 H 0.6588 0.4077 1.1366
C53 C 0.5084(11) 0.4209(9) 1.0623(10)
H37 H 0.4631 0.4099 1.0203
H38 H 0.5382 0.4554 1.0461
H39 H 0.4923 0.4371 1.1054
C54 C -0.0867(10) 0.4686(9) 0.7773(10)
H40 H -0.0966 0.4273 0.7459
C55 C 0.6331(12) 0.2233(10) 0.8364(12)
H41 H 0.6367 0.2522 0.7948
H42 H 0.5926 0.1903 0.8171
H43 H 0.6822 0.2005 0.8578
C56 C -0.1612(9) 0.4974(9) 0.7710(10)
H44 H -0.1895 0.4685 0.7962
H45 H -0.1900 0.5020 0.7173
H46 H -0.1545 0.5413 0.7951
C57 C -0.0394(11) 0.5181(10) 0.7377(11)
H47 H 0.0094 0.4974 0.7383
H48 H -0.0295 0.5602 0.7657
H49 H -0.0695 0.5267 0.6852
Ru1B Ru -0.04806(5) -0.37090(4) 0.10663(4)
Ru2B Ru -0.50402(5) -0.28137(5) 0.08273(5)
O1B O -0.1293(5) -0.3043(3) 0.0510(4)
O2B O -0.1223(4) -0.3935(3) 0.1670(3)
O3B O -0.4241(4) -0.2488(3) 0.0320(4)
O4B O -0.4223(5) -0.3464(3) 0.1405(4)
N1B N -0.0110(5) -0.2945(4) 0.1872(4)
N2B N 0.4492(5) 0.2150(4) 0.8293(5)
C1B C -0.3263(9) -0.1606(7) -0.1112(7)
H1B H -0.3552 -0.1300 -0.1477
C2B C -0.2542(8) -0.1750(6) -0.1089(7)
H2B H -0.2326 -0.1555 -0.1450
C3B C -0.3589(8) -0.1901(5) -0.0605(6)
H3B H -0.4102 -0.1799 -0.0621
C4B C -0.2101(7) -0.2182(5) -0.0542(6)
H4B H -0.1579 -0.2259 -0.0512
C5B C -0.3170(6) -0.2342(5) -0.0076(6)
C6B C -0.2432(6) -0.2504(5) -0.0036(5)
C7B C -0.3534(6) -0.2679(5) 0.0429(6)
C8B C -0.1997(6) -0.2974(5) 0.0512(6)
C9B C -0.3143(6) -0.3174(5) 0.0934(5)
C10B C -0.2339(6) -0.3311(5) 0.1007(5)
C11B C -0.3528(5) -0.3545(5) 0.1386(5)
C12B C -0.1939(6) -0.3788(4) 0.1534(5)
C13B C -0.3106(6) -0.4054(4) 0.1907(5)
C14B C -0.2335(6) -0.4162(4) 0.1987(5)
C15B C -0.3473(7) -0.4440(5) 0.2334(5)
H5B H -0.4000 -0.4366 0.2285
C16B C -0.1937(7) -0.4638(5) 0.2498(5)
H6B H -0.1407 -0.4707 0.2558
C17B C -0.3087(8) -0.4915(5) 0.2816(6)
H7B H -0.3351 -0.5182 0.3085
C18B C -0.2305(8) -0.5017(5) 0.2922(5)
H8B H -0.2029 -0.5338 0.3275
C19B C 0.0398(8) -0.4472(6) 0.1428(7)
C20B C 0.0710(7) -0.3915(6) 0.1157(7)
H9B H 0.1167 -0.3713 0.1462
C21B C 0.0332(7) -0.3652(5) 0.0413(6)
H10B H 0.0530 -0.3271 0.0229
C22B C -0.0325(8) -0.3963(7) -0.0031(6)
C23B C -0.0595(8) -0.4505(7) 0.0255(9)
H11B H -0.1036 -0.4723 -0.0059
C24B C -0.0253(8) -0.4766(6) 0.1005(9)
H12B H -0.0475 -0.5130 0.1194
C25B C -0.0763(8) -0.3658(9) -0.0768(6)
H13B H -0.0478 -0.3276 -0.0877
H14B H -0.0833 -0.3987 -0.1175
H15B H -0.1265 -0.3510 -0.0737
C26B C 0.0124(7) -0.2361(6) 0.1666(6)
H16B H 0.0002 -0.2265 0.1140
C27B C 0.0013(8) -0.3045(7) 0.2599(7)
H17B H -0.0162 -0.3452 0.2750
C28B C 0.0527(7) -0.1898(6) 0.2162(6)
H18B H 0.0726 -0.1512 0.1991
C29B C 0.0383(7) -0.2599(6) 0.3171(6)
H19B H 0.0456 -0.2695 0.3692
C30B C 0.0633(6) -0.2015(7) 0.2939(7)
O5B O 0.0933(9) -0.0841(8) 0.3128(8)
N3B N 0.1517(7) -0.1456(5) 0.4022(6)
H20B H 0.1558 -0.1864 0.4201
C31B C 0.1117(9) -0.1453(8) 0.3425(8)
C32B C 0.3218(7) 0.0345(5) 0.6276(7)
C33B C 0.3378(12) 0.0810(7) 0.6570(8)
C34B C 0.1998(5) -0.1000(5) 0.4611(6)
C35B C 0.2236(8) -0.0422(6) 0.4418(8)
H21B H 0.2121 -0.0312 0.3895
C36B C 0.2201(6) -0.1178(5) 0.5356(6)
H22B H 0.2082 -0.1610 0.5497
C37B C 0.2617(7) -0.0003(6) 0.4916(7)
H23B H 0.2759 0.0411 0.4748
C38B C 0.2603(6) -0.0706(5) 0.5938(6)
H24B H 0.2694 -0.0805 0.6461
C39B C 0.2836(6) -0.0141(5) 0.5720(6)
C40B C 0.3736(9) 0.1280(5) 0.7132(7)
C41B C 0.3907(10) 0.1110(7) 0.7968(7)
H25B H 0.3775 0.0685 0.8115
C42B C 0.3964(8) 0.1854(5) 0.6990(6)
H26B H 0.3871 0.1982 0.6475
C43B C 0.4224(9) 0.1535(6) 0.8470(9)
H27B H 0.4283 0.1432 0.8987
C44B C 0.4355(8) 0.2321(6) 0.7574(6)
H28B H 0.4512 0.2743 0.7442
C45B C -0.6150(7) -0.2636(11) 0.1042(8)
C46B C -0.5986(9) -0.3288(10) 0.1093(8)
H29B H -0.5967 -0.3522 0.1545
C47B C -0.5840(8) -0.3626(8) 0.0479(10)
H30B H -0.5757 -0.4092 0.0514
C48B C -0.5813(8) -0.3279(7) -0.0212(7)
C49B C -0.5574(10) -0.3594(7) -0.0856(7)
H31B H -0.5260 -0.3259 -0.1034
C50B C -0.5924(7) -0.2559(7) -0.0197(7)
H32B H -0.5871 -0.2295 -0.0606
C51B C -0.6105(7) -0.2258(7) 0.0400(7)
H33B H -0.6202 -0.1793 0.0384
C52B C -0.6283(14) -0.3727(11) -0.1509(10)
H34B H -0.6589 -0.3320 -0.1633
H35B H -0.6131 -0.3871 -0.1953
H36B H -0.6588 -0.4077 -0.1366
C53B C -0.5084(11) -0.4209(9) -0.0623(10)
H37B H -0.4631 -0.4099 -0.0203
H38B H -0.5382 -0.4554 -0.0461
H39B H -0.4923 -0.4371 -0.1054
C54B C 0.0867(10) -0.4686(9) 0.2227(10)
H40B H 0.0966 -0.4273 0.2541
C55B C -0.6331(12) -0.2233(10) 0.1636(12)
H41B H -0.6367 -0.2522 0.2052
H42B H -0.5926 -0.1903 0.1829
H43B H -0.6822 -0.2005 0.1422
C56B C 0.1612(9) -0.4974(9) 0.2290(10)
H44B H 0.1895 -0.4685 0.2038
H45B H 0.1900 -0.5020 0.2827
H46B H 0.1545 -0.5413 0.2049
C57B C 0.0394(11) -0.5181(10) 0.2623(11)
H47B H -0.0094 -0.4974 0.2617
H48B H 0.0295 -0.5602 0.2343
H49B H 0.0695 -0.5267 0.3148
S1 S -0.4442(2) 0.0944(2) 0.1791(2)
F1 F -0.4427(7) 0.0025(5) 0.0827(5)
F2 F -0.4898(7) 0.0994(5) 0.0364(5)
F3 F -0.3681(10) 0.0961(8) 0.0847(9)
O6 O -0.4483(7) 0.1659(6) 0.1769(6)
O7 O -0.3795(7) 0.0690(6) 0.2291(7)
O8 O -0.5128(11) 0.0628(10) 0.1735(10)
C58 C -0.4350(13) 0.0763(12) 0.0864(12)
S2 S -0.1341(2) 0.3276(2) 0.4513(2)
O9 O -0.0655(7) 0.2988(6) 0.5012(6)
O10 O -0.1071(8) 0.3906(6) 0.4204(7)
O11 O -0.1851(7) 0.2954(6) 0.3879(7)
F4 F -0.1467(7) 0.3952(6) 0.5659(6)
F5 F -0.2131(9) 0.2981(8) 0.5342(9)
F6 F -0.2492(7) 0.3978(6) 0.4670(7)
C59 C -0.1892(13) 0.3609(10) 0.5006(12)
O12 O 0.0778(8) 0.1430(6) 1.1132(7)
O13 O 0.0196(9) 0.0520(8) 1.1074(7)
N4 N 0.0556(8) 0.0871(12) 1.0831(9)
C60 C 0.0781(12) 0.0668(11) 1.0199(12)
H50 H 0.0593 0.0217 1.0053
H51 H 0.1342 0.0673 1.0327
H52 H 0.0566 0.0973 0.9775
O14 O -0.2168(10) 0.3153(9) 0.7793(9)
C61 C -0.2401(11) 0.2957(10) 0.7163(12)
H53 H -0.2437 0.3328 0.6810
H54 H -0.2910 0.2760 0.7087
H55 H -0.2051 0.2620 0.7072
O15 O 0.2286(7) 0.3666(6) 1.3462(7)
C62 C 0.1681(12) 0.3232(9) 1.2989(12)
H56 H 0.1501 0.2921 1.3318
H57 H 0.1240 0.3505 1.2706
C63 C 0.1953(11) 0.2885(9) 1.2500(10)
H58 H 0.2216 0.3187 1.2240
H59 H 0.1527 0.2667 1.2126
H60 H 0.2315 0.2548 1.2777
C64 C 0.2109(14) 0.4035(12) 1.3984(12)
H61 H 0.1970 0.3734 1.4348
H62 H 0.1647 0.4299 1.3732
C65 C 0.2733(15) 0.4512(12) 1.4431(14)
H63 H 0.3177 0.4255 1.4724
H64 H 0.2533 0.4778 1.4777
H65 H 0.2887 0.4807 1.4078
loop_
_geom_bond_atom_site_label_1
_geom_bond_atom_site_label_2
_geom_bond_site_symmetry_1
_geom_bond_site_symmetry_2
Ru1 O1 1_555 1_555
Ru2 O3 1_555 1_555
O1 C8 1_555 1_555
O2 Ru1 1_555 1_555
O3 C7 1_555 1_555
O4 Ru2 1_555 1_555
N1 Ru1 1_555 1_555
N2 C43 1_555 1_555
C1 H1 1_555 1_555
C2 C1 1_555 1_555
H2 C2 1_555 1_555
C3 C1 1_555 1_555
H3 C3 1_555 1_555
C4 C2 1_555 1_555
H4 C4 1_555 1_555
C5 C3 1_555 1_555
C6 C4 1_555 1_555
C7 C5 1_555 1_555
C8 C6 1_555 1_555
C9 C7 1_555 1_555
C10 C8 1_555 1_555
C11 O4 1_555 1_555
C12 O2 1_555 1_555
C13 C11 1_555 1_555
C14 C12 1_555 1_555
C15 C13 1_555 1_555
H5 C15 1_555 1_555
C16 C14 1_555 1_555
H6 C16 1_555 1_555
C17 C15 1_555 1_555
H7 C17 1_555 1_555
C18 C16 1_555 1_555
H8 C18 1_555 1_555
C19 Ru1 1_555 1_555
C20 Ru1 1_555 1_555
H9 C20 1_555 1_555
C21 Ru1 1_555 1_555
H10 C21 1_555 1_555
C22 Ru1 1_555 1_555
C23 Ru1 1_555 1_555
H11 C23 1_555 1_555
C24 Ru1 1_555 1_555
H12 C24 1_555 1_555
C25 C22 1_555 1_555
H13 C25 1_555 1_555
H14 C25 1_555 1_555
H15 C25 1_555 1_555
C26 N1 1_555 1_555
H16 C26 1_555 1_555
C27 N1 1_555 1_555
H17 C27 1_555 1_555
C28 C26 1_555 1_555
H18 C28 1_555 1_555
C29 C27 1_555 1_555
H19 C29 1_555 1_555
C30 C28 1_555 1_555
O5 C31 1_555 1_555
N3 H20 1_555 1_555
C31 C30 1_555 1_555
C32 C33 1_555 1_555
C33 C40 1_555 1_555
C34 N3 1_555 1_555
C35 C34 1_555 1_555
H21 C35 1_555 1_555
C36 C34 1_555 1_555
H22 C36 1_555 1_555
C37 C35 1_555 1_555
H23 C37 1_555 1_555
C38 C36 1_555 1_555
H24 C38 1_555 1_555
C39 C32 1_555 1_555
C40 C41 1_555 1_555
C41 H25 1_555 1_555
C42 C40 1_555 1_555
H26 C42 1_555 1_555
C43 C41 1_555 1_555
H27 C43 1_555 1_555
C44 N2 1_555 1_555
H28 C44 1_555 1_555
C45 Ru2 1_555 1_555
C46 Ru2 1_555 1_555
H29 C46 1_555 1_555
C47 Ru2 1_555 1_555
H30 C47 1_555 1_555
C48 Ru2 1_555 1_555
C49 C48 1_555 1_555
H31 C49 1_555 1_555
C50 Ru2 1_555 1_555
H32 C50 1_555 1_555
C51 Ru2 1_555 1_555
H33 C51 1_555 1_555
C52 C49 1_555 1_555
H34 C52 1_555 1_555
H35 C52 1_555 1_555
H36 C52 1_555 1_555
C53 C49 1_555 1_555
H37 C53 1_555 1_555
H38 C53 1_555 1_555
H39 C53 1_555 1_555
C54 C19 1_555 1_555
H40 C54 1_555 1_555
C55 C45 1_555 1_555
H41 C55 1_555 1_555
H42 C55 1_555 1_555
H43 C55 1_555 1_555
C56 C54 1_555 1_555
H44 C56 1_555 1_555
H45 C56 1_555 1_555
H46 C56 1_555 1_555
C57 C54 1_555 1_555
H47 C57 1_555 1_555
H48 C57 1_555 1_555
H49 C57 1_555 1_555
S1 O6 1_555 1_555
F1 C58 1_555 1_555
F2 C58 1_555 1_555
F3 C58 1_555 1_555
O7 S1 1_555 1_555
O8 S1 1_555 1_555
C58 S1 1_555 1_555
S2 O9 1_555 1_555
O10 S2 1_555 1_555
O11 S2 1_555 1_555
F4 C59 1_555 1_555
F5 C59 1_555 1_555
F6 C59 1_555 1_555
C59 S2 1_555 1_555
O12 N4 1_555 1_555
O13 N4 1_555 1_555
N4 C60 1_555 1_555
C60 H50 1_555 1_555
H51 C60 1_555 1_555
H52 C60 1_555 1_555
O14 C61 1_555 1_555
C61 H53 1_555 1_555
H54 C61 1_555 1_555
H55 C61 1_555 1_555
O15 C62 1_555 1_555
C62 H56 1_555 1_555
H57 C62 1_555 1_555
C63 C62 1_555 1_555
H58 C63 1_555 1_555
H59 C63 1_555 1_555
H60 C63 1_555 1_555
C64 O15 1_555 1_555
H61 C64 1_555 1_555
H62 C64 1_555 1_555
C65 C64 1_555 1_555
H63 C65 1_555 1_555
H64 C65 1_555 1_555
H65 C65 1_555 1_555
Ru1B O1B 1_555 1_555
Ru2B N2 1_555 1_555
O1B C8B 1_555 1_555
O2B Ru1B 1_555 1_555
O3B Ru2B 1_555 1_555
O4B Ru2B 1_555 1_555
N1B Ru1B 1_555 1_555
N2B Ru2 1_555 1_555
C1B H1B 1_555 1_555
C2B C1B 1_555 1_555
H2B C2B 1_555 1_555
C3B C1B 1_555 1_555
H3B C3B 1_555 1_555
C4B C2B 1_555 1_555
H4B C4B 1_555 1_555
C5B C3B 1_555 1_555
C6B C4B 1_555 1_555
C7B O3B 1_555 1_555
C8B C6B 1_555 1_555
C9B C7B 1_555 1_555
C10B C8B 1_555 1_555
C11B O4B 1_555 1_555
C12B O2B 1_555 1_555
C13B C11B 1_555 1_555
C14B C12B 1_555 1_555
C15B C13B 1_555 1_555
H5B C15B 1_555 1_555
C16B C14B 1_555 1_555
H6B C16B 1_555 1_555
C17B C15B 1_555 1_555
H7B C17B 1_555 1_555
C18B C16B 1_555 1_555
H8B C18B 1_555 1_555
C19B Ru1B 1_555 1_555
C20B Ru1B 1_555 1_555
H9B C20B 1_555 1_555
C21B Ru1B 1_555 1_555
H10B C21B 1_555 1_555
C22B Ru1B 1_555 1_555
C23B Ru1B 1_555 1_555
H11B C23B 1_555 1_555
C24B Ru1B 1_555 1_555
H12B C24B 1_555 1_555
C25B C22B 1_555 1_555
H13B C25B 1_555 1_555
H14B C25B 1_555 1_555
H15B C25B 1_555 1_555
C26B N1B 1_555 1_555
H16B C26B 1_555 1_555
C27B N1B 1_555 1_555
H17B C27B 1_555 1_555
C28B C26B 1_555 1_555
H18B C28B 1_555 1_555
C29B C27B 1_555 1_555
H19B C29B 1_555 1_555
C30B C28B 1_555 1_555
O5B C31B 1_555 1_555
N3B H20B 1_555 1_555
C31B C30B 1_555 1_555
C32B C33B 1_555 1_555
C33B C40B 1_555 1_555
C34B N3B 1_555 1_555
C35B C34B 1_555 1_555
H21B C35B 1_555 1_555
C36B C34B 1_555 1_555
H22B C36B 1_555 1_555
C37B C35B 1_555 1_555
H23B C37B 1_555 1_555
C38B C36B 1_555 1_555
H24B C38B 1_555 1_555
C39B C32B 1_555 1_555
C40B C41B 1_555 1_555
C41B H25B 1_555 1_555
C42B C40B 1_555 1_555
H26B C42B 1_555 1_555
C43B N2B 1_555 1_555
H27B C43B 1_555 1_555
C44B N2B 1_555 1_555
H28B C44B 1_555 1_555
C45B Ru2B 1_555 1_555
C46B Ru2B 1_555 1_555
H29B C46B 1_555 1_555
C47B Ru2B 1_555 1_555
H30B C47B 1_555 1_555
C48B Ru2B 1_555 1_555
C49B C48B 1_555 1_555
H31B C49B 1_555 1_555
C50B Ru2B 1_555 1_555
H32B C50B 1_555 1_555
C51B Ru2B 1_555 1_555
H33B C51B 1_555 1_555
C52B C49B 1_555 1_555
H34B C52B 1_555 1_555
H35B C52B 1_555 1_555
H36B C52B 1_555 1_555
C53B C49B 1_555 1_555
H37B C53B 1_555 1_555
H38B C53B 1_555 1_555
H39B C53B 1_555 1_555
C54B C19B 1_555 1_555
H40B C54B 1_555 1_555
C55B C45B 1_555 1_555
H41B C55B 1_555 1_555
H42B C55B 1_555 1_555
H43B C55B 1_555 1_555
C56B C54B 1_555 1_555
H44B C56B 1_555 1_555
H45B C56B 1_555 1_555
H46B C56B 1_555 1_555
C57B C54B 1_555 1_555
H47B C57B 1_555 1_555
H48B C57B 1_555 1_555
H49B C57B 1_555 1_555
C5 C6 1_555 1_555
C9 C10 1_555 1_555
C9 C11 1_555 1_555
C10 C12 1_555 1_555
C13 C14 1_555 1_555
C17 C18 1_555 1_555
C19 C20 1_555 1_555
C19 C24 1_555 1_555
C20 C21 1_555 1_555
C21 C22 1_555 1_555
C22 C23 1_555 1_555
C23 C24 1_555 1_555
C29 C30 1_555 1_555
N3 C31 1_555 1_555
C37 C39 1_555 1_555
C38 C39 1_555 1_555
C42 C44 1_555 1_555
C45 C46 1_555 1_555
C45 C51 1_555 1_555
C46 C47 1_555 1_555
C47 C48 1_555 1_555
C48 C50 1_555 1_555
C50 C51 1_555 1_555
C5B C6B 1_555 1_555
C5B C7B 1_555 1_555
C9B C10B 1_555 1_555
C9B C11B 1_555 1_555
C10B C12B 1_555 1_555
C13B C14B 1_555 1_555
C17B C18B 1_555 1_555
C19B C20B 1_555 1_555
C19B C24B 1_555 1_555
C20B C21B 1_555 1_555
C21B C22B 1_555 1_555
C22B C23B 1_555 1_555
C23B C24B 1_555 1_555
C29B C30B 1_555 1_555
N3B C31B 1_555 1_555
C37B C39B 1_555 1_555
C38B C39B 1_555 1_555
C41B C43B 1_555 1_555
C42B C44B 1_555 1_555
C45B C46B 1_555 1_555
C45B C51B 1_555 1_555
C46B C47B 1_555 1_555
C47B C48B 1_555 1_555
C48B C50B 1_555 1_555
C50B C51B 1_555 1_555

#END
