
#######################################################################
#
#                 Cambridge Crystallographic Data Centre
#                                CCDC 
#
#######################################################################
#
# If this CIF has been generated from an entry in the Cambridge 
# Structural Database, then it will include bibliographic, chemical, 
# crystal, experimental, refinement or atomic coordinate data resulting 
# from the CCDC's data processing and validation procedures.
#
#######################################################################

data_TEPTOA
_chemical_formula_moiety         
'C178 H170 Co2 N8 O16 Ru8 8+,6(C1 H1 Cl3),8(C1 F3 O3 S1 1-)'
_chemical_name_systematic        
"bis(\m-4,4',4'',4'''-(cyclobuta-1,3-diene-1,2,3,4-tetrayl)tetrapyridine)-tetrakis(\m-5,8-dioxo-5,8-dihydronaphthalene-1,4-bis(olato))-octakis(p-cymene)-bis(\h^5^-cyclopentadienyl)-di-cobalt-octa-ruthenium octakis(trifluoromethanesulfonate) chloroform unknown solvate"
_symmetry_cell_setting           monoclinic
_symmetry_space_group_name_H-M   'P 21/n'
_symmetry_Int_Tables_number      14
_space_group_name_Hall           '-P 2yn'
loop_
_symmetry_equiv_pos_site_id
_symmetry_equiv_pos_as_xyz
1 x,y,z
2 1/2-x,1/2+y,1/2-z
3 -x,-y,-z
4 1/2+x,1/2-y,1/2+z
_cell_length_a                   18.0715(16)
_cell_length_b                   29.974(3)
_cell_length_c                   22.6967(18)
_cell_angle_alpha                90
_cell_angle_beta                 109.807(4)
_cell_angle_gamma                90
_cell_volume                     11566.9
_exptl_crystal_description       block
_cell_formula_units_Z            2
loop_
_atom_site_label
_atom_site_type_symbol
_atom_site_fract_x
_atom_site_fract_y
_atom_site_fract_z
Cl1 Cl 0.7716(5) 0.4781(3) 0.6190(4)
Cl2 Cl 0.7750(5) 0.5410(3) 0.5235(4)
Cl3 Cl 0.7322(5) 0.4512(2) 0.4906(3)
C90 C 0.7277(14) 0.4936(8) 0.5400(11)
Cl4 Cl 0.3903(5) 0.9798(3) 0.8851(4)
C91 C 0.4528(14) 0.9342(11) 0.9160(14)
Cl5 Cl 0.5510(5) 0.9550(4) 0.9387(5)
Cl6 Cl 0.4395(4) 0.9140(3) 0.9843(4)
C1 C 0.5207(10) 0.2216(7) 0.9031(11)
C2 C 0.5491(15) 0.2125(6) 0.9669(12)
C3 C 0.6214(16) 0.2295(8) 1.0041(7)
C4 C 0.6652(11) 0.2558(8) 0.9775(12)
C5 C 0.6367(13) 0.2649(6) 0.9137(12)
C6 C 0.5645(14) 0.2478(7) 0.8765(8)
Ru1 Ru 0.63536(17) 0.19372(8) 0.92554(13)
C7 C 1.3272(13) 0.2915(8) 0.9898(13)
C8 C 1.3460(12) 0.2789(10) 1.0521(13)
C9 C 1.2900(18) 0.2824(10) 1.0814(10)
C10 C 1.2153(15) 0.2985(8) 1.0484(13)
C11 C 1.0255(11) -0.2030(6) 0.7876(8)
H1 H 1.0662 -0.2194 0.8174
C12 C 0.9436(12) -0.2074(6) 0.7765(9)
H2 H 0.9199 -0.2272 0.7975
C13 C 0.9034(9) -0.1769(7) 0.7284(9)
H3 H 0.8481 -0.1728 0.7115
C14 C 0.9604(12) -0.1537(6) 0.7098(8)
H4 H 0.9500 -0.1314 0.6784
C15 C 1.0359(9) -0.1699(6) 0.7465(9)
H5 H 1.0848 -0.1602 0.7439
C16 C 0.9123(17) -0.2148(8) 0.9735(13)
H6 H 0.9387 -0.2400 0.9966
Ru2 Ru 1.21505(11) 0.04799(6) 0.72379(9)
Ru3 Ru 0.62011(14) 0.00232(10) 0.65346(10)
Co1 Co 0.9824(2) -0.14293(10) 0.80334(16)
Ru4 Ru 1.1999(2) 0.24955(13) 0.9772(2)
C17 C 1.2158(14) 0.1275(7) 0.8361(11)
C18 C 1.2753(14) 0.0971(8) 0.8488(12)
C19 C 1.3412(15) 0.1328(8) 0.9501(13)
H7 H 1.3843 0.1349 0.9882
C20 C 1.2796(15) 0.1635(7) 0.9382(13)
C21 C 1.1543(17) 0.1279(7) 0.7786(15)
C22 C 1.2140(16) 0.1617(7) 0.8797(12)
C23 C 1.3412(12) 0.0998(7) 0.9083(11)
H8 H 1.3832 0.0790 0.9177
C24 C 1.150(2) 0.1930(8) 0.8645(15)
C25 C 1.0917(17) 0.1623(11) 0.7623(13)
H9 H 1.0515 0.1627 0.7224
N1 N 1.1476(10) 0.0101(5) 0.7667(10)
C26 C 1.0671(18) -0.0493(7) 0.8132(13)
C27 C 1.0342(14) -0.0353(7) 0.7511(12)
H10 H 0.9841 -0.0454 0.7247
C28 C 1.0769(13) -0.0073(7) 0.7317(11)
H11 H 1.0565 0.0017 0.6890
C29 C 1.1741(13) -0.0044(7) 0.8265(11)
H12 H 1.2236 0.0066 0.8529
C30 C 1.1375(13) -0.0321(7) 0.8506(12)
H13 H 1.1590 -0.0403 0.8935
C31 C 0.6315(12) 0.1114(10) 0.8155(13)
C32 C 0.5894(15) 0.0368(10) 0.7639(13)
C33 C 0.7050(16) 0.1605(10) 0.7688(16)
H14 H 0.7319 0.1877 0.7683
C34 C 0.6249(15) 0.0761(10) 0.7661(11)
C35 C 0.6634(15) 0.0859(11) 0.7232(13)
C36 C 0.7032(16) 0.1303(14) 0.7243(13)
H15 H 0.7269 0.1370 0.6938
C37 C 0.5482(12) 0.0365(11) 0.8137(14)
H16 H 0.5154 0.0114 0.8120
C38 C 0.6707(17) 0.1558(11) 0.8168(14)
O1 O 1.1403(9) 0.0990(5) 0.7319(8)
O2 O 1.2825(8) 0.0639(5) 0.8137(7)
O3 O 1.1455(14) 0.2246(6) 0.8993(8)
O4 O 1.2907(11) 0.1908(6) 0.9834(8)
O5 O 0.6739(9) 0.0627(7) 0.6822(9)
O6 O 0.5842(9) 0.0054(6) 0.7283(8)
N2 N 1.2627(14) -0.1628(6) 1.0154(10)
C39 C 1.1161(19) -0.1313(6) 0.9276(12)
C40 C 1.1969(17) -0.1588(8) 1.0324(13)
H17 H 1.2013 -0.1661 1.0742
C41 C 1.1260(17) -0.1450(7) 0.9930(11)
H18 H 1.0822 -0.1441 1.0071
C42 C 1.194(2) -0.1363(7) 0.9189(16)
H19 H 1.1945 -0.1277 0.8789
C43 C 1.262(2) -0.1510(9) 0.9585(15)
H20 H 1.3078 -0.1529 0.9469
C44 C 1.0408(17) -0.1163(7) 0.8859(11)
C45 C 0.9315(13) -0.0889(7) 0.8274(10)
C46 C 1.0162(12) -0.0830(7) 0.8361(10)
C47 C 0.9562(15) -0.1242(8) 0.8797(13)
C48 C 0.795(2) -0.0039(9) 0.7395(12)
H21 H 0.7977 0.0268 0.7302
N3 N 0.7201(14) -0.0239(8) 0.7164(9)
N4 N 0.8419(16) -0.2033(6) 0.9765(9)
C49 C 0.5979(18) -0.0595(10) 0.5916(13)
C50 C 1.3085(16) 0.0644(9) 0.6884(13)
C51 C 1.3199(14) 0.0185(9) 0.7079(11)
C52 C 1.2393(19) 0.0822(10) 0.6443(14)
C53 C 1.1800(18) 0.0046(10) 0.6367(12)
O7 O 0.6817(13) 0.1860(7) 0.8558(10)
O8 O 0.5893(12) 0.1288(7) 0.9035(10)
C54 C 0.435(2) 0.1887(11) 0.7915(18)
C55 C 0.748(2) 0.2715(13) 1.0178(18)
C56 C 0.8605(12) -0.0678(7) 0.7903(9)
C57 C 1.094(2) 0.1923(10) 0.8053(16)
H22 H 1.0544 0.2148 0.7951
C58 C 1.273(3) -0.0594(18) 0.708(2)
C59 C 1.237(5) -0.074(3) 0.714(4)
C60 C 0.5234(16) -0.0408(9) 0.5983(12)
C61 C 0.535(2) 0.0340(10) 0.5659(15)
C62 C 0.484(2) 0.0017(13) 0.5898(17)
C63 C 0.7222(16) -0.0647(11) 0.7382(12)
H23 H 0.6729 -0.0793 0.7285
C64 C 0.784(2) -0.0878(10) 0.7720(13)
H24 H 0.7785 -0.1176 0.7841
C65 C 0.8624(14) -0.0243(7) 0.7739(11)
H25 H 0.9107 -0.0084 0.7865
C66 C 0.5516(19) 0.0659(14) 0.8587(16)
H26 H 0.5267 0.0596 0.8885
C67 C 0.8510(14) -0.1358(7) 0.9208(10)
H27 H 0.8274 -0.1082 0.9038
C68 C 0.9187(15) -0.1500(8) 0.9140(10)
C69 C 1.2511(18) -0.0126(10) 0.6792(14)
C70 C 0.8176(15) -0.1636(9) 0.9542(11)
H28 H 0.7723 -0.1526 0.9615
C71 C 0.9472(15) -0.1917(7) 0.9386(12)
H29 H 0.9915 -0.2040 0.9309
C72 C 0.641(2) -0.0279(13) 0.5697(15)
C73 C 0.4463(18) 0.2012(10) 0.8579(16)
C74 C 0.376(3) 0.2328(15) 0.864(2)
C75 C 1.231(3) 0.1374(13) 0.6320(19)
C76 C 0.5935(13) 0.1073(12) 0.8618(15)
C77 C 0.6106(18) 0.0119(11) 0.5605(14)
C78 C 0.491(3) -0.0715(19) 0.629(3)
C79 C 0.435(4) -0.103(2) 0.582(3)
C80 C 1.339(4) 0.261(2) 1.152(3)
C81 C 0.453(5) -0.060(3) 0.669(4)
C82 C 1.1724(17) 0.0498(11) 0.6222(13)
C83 C 1.273(3) 0.2480(18) 1.174(3)
C84 C 0.627(5) 0.069(3) 0.550(4)
C85 C 1.265(3) -0.0796(19) 0.637(3)
C86 C 1.2525(16) 0.3076(9) 0.9568(10)
C87 C 1.1965(11) 0.3111(9) 0.9861(13)
C88 C 1.377(3) 0.3101(17) 1.179(3)
C89 C 1.229(3) 0.3168(19) 0.915(3)
C1B C 1.4793(10) -0.2216(7) 1.0969(11)
C2B C 1.4509(15) -0.2125(6) 1.0331(12)
C3B C 1.3786(16) -0.2295(8) 0.9959(7)
C4B C 1.3348(11) -0.2558(8) 1.0225(12)
C5B C 1.3633(13) -0.2649(6) 1.0863(12)
C6B C 1.4355(14) -0.2478(7) 1.1235(8)
Ru1B Ru 1.36464(17) -0.19372(8) 1.07446(13)
C7B C 0.6728(13) -0.2915(8) 1.0102(13)
C8B C 0.6540(12) -0.2789(10) 0.9479(13)
C9B C 0.7100(18) -0.2824(10) 0.9186(10)
C10B C 0.7847(15) -0.2985(8) 0.9516(13)
C11B C 0.9745(11) 0.2030(6) 1.2124(8)
H1B H 0.9338 0.2194 1.1826
C12B C 1.0564(12) 0.2074(6) 1.2235(9)
H2B H 1.0801 0.2272 1.2025
C13B C 1.0966(9) 0.1769(7) 1.2716(9)
H3B H 1.1519 0.1728 1.2885
C14B C 1.0396(12) 0.1537(6) 1.2902(8)
H4B H 1.0500 0.1314 1.3216
C15B C 0.9641(9) 0.1699(6) 1.2535(9)
H5B H 0.9152 0.1602 1.2561
C16B C 1.0877(17) 0.2148(8) 1.0265(13)
H6B H 1.0613 0.2400 1.0034
Ru2B Ru 0.78495(11) -0.04799(6) 1.27621(9)
Ru3B Ru 1.37989(14) -0.00232(10) 1.34654(10)
Co1B Co 1.0176(2) 0.14293(10) 1.19666(16)
Ru4B Ru 0.8001(2) -0.24955(13) 1.0228(2)
C17B C 0.7842(14) -0.1275(7) 1.1639(11)
C18B C 0.7247(14) -0.0971(8) 1.1512(12)
C19B C 0.6588(15) -0.1328(8) 1.0499(13)
H7B H 0.6157 -0.1349 1.0118
C20B C 0.7204(15) -0.1635(7) 1.0618(13)
C21B C 0.8457(17) -0.1279(7) 1.2214(15)
C22B C 0.7860(16) -0.1617(7) 1.1203(12)
C23B C 0.6588(12) -0.0998(7) 1.0917(11)
H8B H 0.6168 -0.0790 1.0823
C24B C 0.850(2) -0.1930(8) 1.1355(15)
C25B C 0.9083(17) -0.1623(11) 1.2377(13)
H9B H 0.9485 -0.1627 1.2776
N1B N 0.8524(10) -0.0101(5) 1.2333(10)
C26B C 0.9329(18) 0.0493(7) 1.1868(13)
C27B C 0.9658(14) 0.0353(7) 1.2489(12)
H10B H 1.0159 0.0454 1.2753
C28B C 0.9231(13) 0.0073(7) 1.2683(11)
H11B H 0.9435 -0.0017 1.3110
C29B C 0.8259(13) 0.0044(7) 1.1735(11)
H12B H 0.7764 -0.0066 1.1471
C30B C 0.8625(13) 0.0321(7) 1.1494(12)
H13B H 0.8410 0.0403 1.1065
C31B C 1.3685(12) -0.1114(10) 1.1845(13)
C32B C 1.4106(15) -0.0368(10) 1.2361(13)
C33B C 1.2950(16) -0.1605(10) 1.2312(16)
H14B H 1.2681 -0.1877 1.2317
C34B C 1.3751(15) -0.0761(10) 1.2339(11)
C35B C 1.3366(15) -0.0859(11) 1.2768(13)
C36B C 1.2968(16) -0.1303(14) 1.2757(13)
H15B H 1.2731 -0.1370 1.3062
C37B C 1.4518(12) -0.0365(11) 1.1863(14)
H16B H 1.4846 -0.0114 1.1880
C38B C 1.3293(17) -0.1558(11) 1.1832(14)
O1B O 0.8597(9) -0.0990(5) 1.2681(8)
O2B O 0.7175(8) -0.0639(5) 1.1863(7)
O3B O 0.8545(14) -0.2246(6) 1.1007(8)
O4B O 0.7093(11) -0.1908(6) 1.0166(8)
O5B O 1.3261(9) -0.0627(7) 1.3178(9)
O6B O 1.4158(9) -0.0054(6) 1.2717(8)
N2B N 0.7373(14) 0.1628(6) 0.9846(10)
C39B C 0.8839(19) 0.1313(6) 1.0724(12)
C40B C 0.8031(17) 0.1588(8) 0.9676(13)
H17B H 0.7987 0.1661 0.9258
C41B C 0.8740(17) 0.1450(7) 1.0070(11)
H18B H 0.9178 0.1441 0.9929
C42B C 0.806(2) 0.1363(7) 1.0811(16)
H19B H 0.8055 0.1277 1.1211
C43B C 0.738(2) 0.1510(9) 1.0415(15)
H20B H 0.6922 0.1529 1.0531
C44B C 0.9592(17) 0.1163(7) 1.1141(11)
C45B C 1.0685(13) 0.0889(7) 1.1726(10)
C46B C 0.9838(12) 0.0830(7) 1.1639(10)
C47B C 1.0438(15) 0.1242(8) 1.1203(13)
C48B C 1.205(2) 0.0039(9) 1.2605(12)
H21B H 1.2023 -0.0268 1.2698
N3B N 1.2799(14) 0.0239(8) 1.2836(9)
N4B N 1.1581(16) 0.2033(6) 1.0235(9)
C49B C 1.4021(18) 0.0595(10) 1.4084(13)
C50B C 0.6915(16) -0.0644(9) 1.3116(13)
C51B C 0.6801(14) -0.0185(9) 1.2921(11)
C52B C 0.7607(19) -0.0822(10) 1.3557(14)
C53B C 0.8200(18) -0.0046(10) 1.3633(12)
O7B O 1.3183(13) -0.1860(7) 1.1442(10)
O8B O 1.4107(12) -0.1288(7) 1.0965(10)
C54B C 1.565(2) -0.1887(11) 1.2085(18)
C55B C 1.252(2) -0.2715(13) 0.9822(18)
C56B C 1.1395(12) 0.0678(7) 1.2097(9)
C57B C 0.906(2) -0.1923(10) 1.1947(16)
H22B H 0.9456 -0.2148 1.2049
C58B C 0.727(3) 0.0594(18) 1.292(2)
C59B C 0.763(5) 0.074(3) 1.286(4)
C60B C 1.4766(16) 0.0408(9) 1.4017(12)
C61B C 1.465(2) -0.0340(10) 1.4341(15)
C62B C 1.516(2) -0.0017(13) 1.4102(17)
C63B C 1.2778(16) 0.0647(11) 1.2618(12)
H23B H 1.3271 0.0793 1.2715
C64B C 1.216(2) 0.0878(10) 1.2280(13)
H24B H 1.2215 0.1176 1.2159
C65B C 1.1376(14) 0.0243(7) 1.2261(11)
H25B H 1.0893 0.0084 1.2135
C66B C 1.4484(19) -0.0659(14) 1.1413(16)
H26B H 1.4733 -0.0596 1.1115
C67B C 1.1490(14) 0.1358(7) 1.0792(10)
H27B H 1.1726 0.1082 1.0962
C68B C 1.0813(15) 0.1500(8) 1.0860(10)
C69B C 0.7489(18) 0.0126(10) 1.3208(14)
C70B C 1.1824(15) 0.1636(9) 1.0458(11)
H28B H 1.2277 0.1526 1.0385
C71B C 1.0528(15) 0.1917(7) 1.0614(12)
H29B H 1.0085 0.2040 1.0691
C72B C 1.359(2) 0.0279(13) 1.4303(15)
C73B C 1.5537(18) -0.2012(10) 1.1421(16)
C74B C 1.624(3) -0.2328(15) 1.136(2)
C75B C 0.769(3) -0.1374(13) 1.3680(19)
C76B C 1.4065(13) -0.1073(12) 1.1382(15)
C77B C 1.3894(18) -0.0119(11) 1.4395(14)
C78B C 1.509(3) 0.0715(19) 1.371(3)
C79B C 1.565(4) 0.103(2) 1.418(3)
C80B C 0.661(4) -0.261(2) 0.848(3)
C81B C 1.547(5) 0.060(3) 1.331(4)
C82B C 0.8276(17) -0.0498(11) 1.3778(13)
C83B C 0.727(3) -0.2480(18) 0.826(3)
C84B C 1.373(5) -0.069(3) 1.450(4)
C85B C 0.735(3) 0.0796(19) 1.363(3)
C86B C 0.7475(16) -0.3076(9) 1.0432(10)
C87B C 0.8035(11) -0.3111(9) 1.0139(13)
C88B C 0.623(3) -0.3101(17) 0.821(3)
C89B C 0.771(3) -0.3168(19) 1.085(3)
loop_
_geom_bond_atom_site_label_1
_geom_bond_atom_site_label_2
_geom_bond_site_symmetry_1
_geom_bond_site_symmetry_2
C1 C2 1_555 1_555
C2 C3 1_555 1_555
C3 C4 1_555 1_555
C4 C5 1_555 1_555
C5 C6 1_555 1_555
C6 C1 1_555 1_555
Ru1 C1 1_555 1_555
C7 C8 1_555 1_555
C8 C9 1_555 1_555
C9 C10 1_555 1_555
C10 Ru4 1_555 1_555
C11 H1 1_555 1_555
C12 C11 1_555 1_555
H2 C12 1_555 1_555
C13 C12 1_555 1_555
H3 C13 1_555 1_555
C14 C13 1_555 1_555
H4 C14 1_555 1_555
C15 C11 1_555 1_555
H5 C15 1_555 1_555
C16 H6 1_555 1_555
Ru2 N1 1_555 1_555
Ru3 O5 1_555 1_555
Co1 C11 1_555 1_555
Ru4 C7 1_555 1_555
C17 C18 1_555 1_555
C18 C23 1_555 1_555
C19 H7 1_555 1_555
C20 C19 1_555 1_555
C21 C17 1_555 1_555
C22 C17 1_555 1_555
C23 C19 1_555 1_555
H8 C23 1_555 1_555
C24 C22 1_555 1_555
C25 C21 1_555 1_555
H9 C25 1_555 1_555
N1 C28 1_555 1_555
C26 C27 1_555 1_555
C27 H10 1_555 1_555
C28 C27 1_555 1_555
H11 C28 1_555 1_555
C29 N1 1_555 1_555
H12 C29 1_555 1_555
C30 C26 1_555 1_555
H13 C30 1_555 1_555
C31 C34 1_555 1_555
C32 C34 1_555 1_555
C33 H14 1_555 1_555
C34 C35 1_555 1_555
C35 C36 1_555 1_555
C36 C33 1_555 1_555
H15 C36 1_555 1_555
C37 C32 1_555 1_555
H16 C37 1_555 1_555
C38 C31 1_555 1_555
O1 Ru2 1_555 1_555
O2 Ru2 1_555 1_555
O3 Ru4 1_555 1_555
O4 Ru4 1_555 1_555
O5 C35 1_555 1_555
O6 Ru3 1_555 1_555
N2 C40 1_555 1_555
C39 C41 1_555 1_555
C40 H17 1_555 1_555
C41 C40 1_555 1_555
H18 C41 1_555 1_555
C42 C39 1_555 1_555
H19 C42 1_555 1_555
C43 N2 1_555 1_555
H20 C43 1_555 1_555
C44 Co1 1_555 1_555
C45 Co1 1_555 1_555
C46 Co1 1_555 1_555
C47 Co1 1_555 1_555
C48 H21 1_555 1_555
N3 Ru3 1_555 1_555
N4 C16 1_555 1_555
C49 Ru3 1_555 1_555
C50 Ru2 1_555 1_555
C51 Ru2 1_555 1_555
C52 Ru2 1_555 1_555
C53 Ru2 1_555 1_555
O7 Ru1 1_555 1_555
O8 Ru1 1_555 1_555
C54 C73 1_555 1_555
C55 C4 1_555 1_555
C56 C45 1_555 1_555
C57 C24 1_555 1_555
H22 C57 1_555 1_555
C58 C59 1_555 1_555
C60 Ru3 1_555 1_555
C61 Ru3 1_555 1_555
C62 Ru3 1_555 1_555
C63 N3 1_555 1_555
H23 C63 1_555 1_555
C64 C56 1_555 1_555
H24 C64 1_555 1_555
C65 C48 1_555 1_555
H25 C65 1_555 1_555
C66 C37 1_555 1_555
H26 C66 1_555 1_555
C67 H27 1_555 1_555
C68 C47 1_555 1_555
C69 Ru2 1_555 1_555
C70 N4 1_555 1_555
H28 C70 1_555 1_555
C71 C16 1_555 1_555
H29 C71 1_555 1_555
C72 Ru3 1_555 1_555
C73 C1 1_555 1_555
C74 C73 1_555 1_555
C75 C52 1_555 1_555
C76 C31 1_555 1_555
C77 Ru3 1_555 1_555
C78 C60 1_555 1_555
C79 C78 1_555 1_555
C80 C9 1_555 1_555
C81 C78 1_555 1_555
C82 Ru2 1_555 1_555
C83 C80 1_555 1_555
C84 C77 1_555 1_555
C85 C58 1_555 1_555
C86 C7 1_555 1_555
C87 C10 1_555 1_555
C88 C80 1_555 1_555
C89 C86 1_555 1_555
Cl1 C90 1_555 1_555
Cl2 C90 1_555 1_555
Cl3 C90 1_555 1_555
Cl4 C91 1_555 1_555
C91 Cl5 1_555 1_555
Cl6 C91 1_555 1_555
C1B C2B 1_555 1_555
C2B C3B 1_555 1_555
C3B C4B 1_555 1_555
C4B C5B 1_555 1_555
C5B C6B 1_555 1_555
C6B C1B 1_555 1_555
Ru1B N2 1_555 1_555
C7B C8B 1_555 1_555
C8B C9B 1_555 1_555
C9B C10B 1_555 1_555
C10B Ru4B 1_555 1_555
C11B H1B 1_555 1_555
C12B C11B 1_555 1_555
H2B C12B 1_555 1_555
C13B C12B 1_555 1_555
H3B C13B 1_555 1_555
C14B C13B 1_555 1_555
H4B C14B 1_555 1_555
C15B C11B 1_555 1_555
H5B C15B 1_555 1_555
C16B H6B 1_555 1_555
Ru2B N1B 1_555 1_555
Ru3B O5B 1_555 1_555
Co1B C11B 1_555 1_555
Ru4B N4 1_555 1_555
C17B C18B 1_555 1_555
C18B C23B 1_555 1_555
C19B H7B 1_555 1_555
C20B C19B 1_555 1_555
C21B C17B 1_555 1_555
C22B C17B 1_555 1_555
C23B C19B 1_555 1_555
H8B C23B 1_555 1_555
C24B C22B 1_555 1_555
C25B C21B 1_555 1_555
H9B C25B 1_555 1_555
N1B C28B 1_555 1_555
C26B C27B 1_555 1_555
C27B H10B 1_555 1_555
C28B C27B 1_555 1_555
H11B C28B 1_555 1_555
C29B N1B 1_555 1_555
H12B C29B 1_555 1_555
C30B C26B 1_555 1_555
H13B C30B 1_555 1_555
C31B C34B 1_555 1_555
C32B C34B 1_555 1_555
C33B H14B 1_555 1_555
C34B C35B 1_555 1_555
C35B C36B 1_555 1_555
C36B C33B 1_555 1_555
H15B C36B 1_555 1_555
C37B C32B 1_555 1_555
H16B C37B 1_555 1_555
C38B C31B 1_555 1_555
O1B Ru2B 1_555 1_555
O2B Ru2B 1_555 1_555
O3B Ru4B 1_555 1_555
O4B Ru4B 1_555 1_555
O5B C35B 1_555 1_555
O6B Ru3B 1_555 1_555
N2B Ru1 1_555 1_555
C39B C41B 1_555 1_555
C40B N2B 1_555 1_555
H17B C40B 1_555 1_555
C41B C40B 1_555 1_555
H18B C41B 1_555 1_555
C42B C39B 1_555 1_555
H19B C42B 1_555 1_555
C43B N2B 1_555 1_555
H20B C43B 1_555 1_555
C44B Co1B 1_555 1_555
C45B Co1B 1_555 1_555
C46B Co1B 1_555 1_555
C47B Co1B 1_555 1_555
C48B H21B 1_555 1_555
N3B Ru3B 1_555 1_555
N4B Ru4 1_555 1_555
C49B Ru3B 1_555 1_555
C50B Ru2B 1_555 1_555
C51B Ru2B 1_555 1_555
C52B Ru2B 1_555 1_555
C53B Ru2B 1_555 1_555
O7B Ru1B 1_555 1_555
O8B Ru1B 1_555 1_555
C54B C73B 1_555 1_555
C55B C4B 1_555 1_555
C56B C45B 1_555 1_555
C57B C24B 1_555 1_555
H22B C57B 1_555 1_555
C58B C59B 1_555 1_555
C60B Ru3B 1_555 1_555
C61B Ru3B 1_555 1_555
C62B Ru3B 1_555 1_555
C63B N3B 1_555 1_555
H23B C63B 1_555 1_555
C64B C56B 1_555 1_555
H24B C64B 1_555 1_555
C65B C48B 1_555 1_555
H25B C65B 1_555 1_555
C66B C37B 1_555 1_555
H26B C66B 1_555 1_555
C67B H27B 1_555 1_555
C68B C47B 1_555 1_555
C69B Ru2B 1_555 1_555
C70B N4B 1_555 1_555
H28B C70B 1_555 1_555
C71B C16B 1_555 1_555
H29B C71B 1_555 1_555
C72B Ru3B 1_555 1_555
C73B C1B 1_555 1_555
C74B C73B 1_555 1_555
C75B C52B 1_555 1_555
C76B C31B 1_555 1_555
C77B Ru3B 1_555 1_555
C78B C60B 1_555 1_555
C79B C78B 1_555 1_555
C80B C9B 1_555 1_555
C81B C78B 1_555 1_555
C82B Ru2B 1_555 1_555
C83B C80B 1_555 1_555
C84B C77B 1_555 1_555
C85B C58B 1_555 1_555
C86B C7B 1_555 1_555
C87B C10B 1_555 1_555
C88B C80B 1_555 1_555
C89B C86B 1_555 1_555
C2 Ru1 1_555 1_555
C3 Ru1 1_555 1_555
C4 Ru1 1_555 1_555
C5 Ru1 1_555 1_555
C6 Ru1 1_555 1_555
C8 Ru4 1_555 1_555
C9 Ru4 1_555 1_555
C12 Co1 1_555 1_555
C13 Co1 1_555 1_555
C14 C15 1_555 1_555
C14 Co1 1_555 1_555
C15 Co1 1_555 1_555
Ru4 C86 1_555 1_555
Ru4 C87 1_555 1_555
C18 O2 1_555 1_555
C20 C22 1_555 1_555
C20 O4 1_555 1_555
C21 O1 1_555 1_555
C24 O3 1_555 1_555
C25 C57 1_555 1_555
C26 C46 1_555 1_555
C29 C30 1_555 1_555
C32 O6 1_555 1_555
C33 C38 1_555 1_555
C38 O7 1_555 1_555
C39 C44 1_555 1_555
C42 C43 1_555 1_555
C44 C46 1_555 1_555
C44 C47 1_555 1_555
C45 C46 1_555 1_555
C45 C47 1_555 1_555
C48 N3 1_555 1_555
C49 C60 1_555 1_555
C49 C72 1_555 1_555
C50 C51 1_555 1_555
C50 C52 1_555 1_555
C51 C69 1_555 1_555
C52 C82 1_555 1_555
C53 C69 1_555 1_555
C53 C82 1_555 1_555
O8 C76 1_555 1_555
C56 C65 1_555 1_555
C58 C69 1_555 1_555
C60 C62 1_555 1_555
C61 C62 1_555 1_555
C61 C77 1_555 1_555
C63 C64 1_555 1_555
C66 C76 1_555 1_555
C67 C68 1_555 1_555
C67 C70 1_555 1_555
C68 C71 1_555 1_555
C72 C77 1_555 1_555
C86 C87 1_555 1_555
C1B Ru1B 1_555 1_555
C2B Ru1B 1_555 1_555
C3B Ru1B 1_555 1_555
C4B Ru1B 1_555 1_555
C5B Ru1B 1_555 1_555
C6B Ru1B 1_555 1_555
C7B Ru4B 1_555 1_555
C8B Ru4B 1_555 1_555
C9B Ru4B 1_555 1_555
C12B Co1B 1_555 1_555
C13B Co1B 1_555 1_555
C14B C15B 1_555 1_555
C14B Co1B 1_555 1_555
C15B Co1B 1_555 1_555
C16B N4B 1_555 1_555
Ru4B C86B 1_555 1_555
Ru4B C87B 1_555 1_555
C18B O2B 1_555 1_555
C20B C22B 1_555 1_555
C20B O4B 1_555 1_555
C21B O1B 1_555 1_555
C24B O3B 1_555 1_555
C25B C57B 1_555 1_555
C26B C46B 1_555 1_555
C29B C30B 1_555 1_555
C32B O6B 1_555 1_555
C33B C38B 1_555 1_555
C38B O7B 1_555 1_555
C39B C44B 1_555 1_555
C42B C43B 1_555 1_555
C44B C46B 1_555 1_555
C44B C47B 1_555 1_555
C45B C46B 1_555 1_555
C45B C47B 1_555 1_555
C48B N3B 1_555 1_555
C49B C60B 1_555 1_555
C49B C72B 1_555 1_555
C50B C51B 1_555 1_555
C50B C52B 1_555 1_555
C51B C69B 1_555 1_555
C52B C82B 1_555 1_555
C53B C69B 1_555 1_555
C53B C82B 1_555 1_555
O8B C76B 1_555 1_555
C56B C65B 1_555 1_555
C58B C69B 1_555 1_555
C60B C62B 1_555 1_555
C61B C62B 1_555 1_555
C61B C77B 1_555 1_555
C63B C64B 1_555 1_555
C66B C76B 1_555 1_555
C67B C68B 1_555 1_555
C67B C70B 1_555 1_555
C68B C71B 1_555 1_555
C72B C77B 1_555 1_555
C86B C87B 1_555 1_555

#END
