
#######################################################################
#
#                 Cambridge Crystallographic Data Centre
#                                CCDC 
#
#######################################################################
#
# If this CIF has been generated from an entry in the Cambridge 
# Structural Database, then it will include bibliographic, chemical, 
# crystal, experimental, refinement or atomic coordinate data resulting 
# from the CCDC's data processing and validation procedures.
#
#######################################################################

data_TEPTIU
_chemical_formula_moiety         'C162 H162 Co2 N8 O16 Ru8 8+,8(C1 F3 O3 S1 1-)'
_chemical_name_systematic        
"bis(\m-4,4',4'',4'''-(cyclobuta-1,3-diene-1,2,3,4-tetrayl)tetrapyridine)-tetrakis(\m-3,6-dioxocyclohexa-1,4-diene-1,4-bis(olato))-octakis(p-cymene)-bis(\h^5^-cyclopentadienyl)-di-cobalt-octa-ruthenium octakis(trifluoromethanesulfonate) unknown solvate"
_symmetry_cell_setting           triclinic
_symmetry_space_group_name_H-M   'P -1'
_symmetry_Int_Tables_number      2
_space_group_name_Hall           '-P 1'
loop_
_symmetry_equiv_pos_site_id
_symmetry_equiv_pos_as_xyz
1 x,y,z
2 -x,-y,-z
_cell_length_a                   17.5488(19)
_cell_length_b                   34.335(3)
_cell_length_c                   38.963(4)
_cell_angle_alpha                115.029(6)
_cell_angle_beta                 98.486(6)
_cell_angle_gamma                90.104(6)
_cell_volume                     20985.1
_exptl_crystal_description       block
_cell_formula_units_Z            4
loop_
_atom_site_label
_atom_site_type_symbol
_atom_site_fract_x
_atom_site_fract_y
_atom_site_fract_z
S1 S 0.8088(13) 0.8329(7) 0.2851(7)
C1 C 0.749(2) 0.8364(12) 0.2594(11)
C2 C 0.835(4) 0.783(2) 0.2555(19)
F1 F 0.847(3) 0.7894(14) 0.2213(13)
C3 C 0.797(2) 0.0626(9) -0.0361(13)
C4 C 0.7397(19) 0.0844(10) -0.0162(11)
C5 C 0.7292(16) 0.1268(10) -0.0102(8)
C6 C 0.776(2) 0.1474(9) -0.0240(12)
C7 C 0.834(2) 0.1255(12) -0.0439(11)
C8 C 0.8447(17) 0.0832(12) -0.0499(10)
C9 C 1.3890(18) 0.2206(7) 0.0946(9)
C10 C 1.4286(16) 0.1936(10) 0.1083(7)
C11 C 1.4223(18) 0.1493(9) 0.0859(10)
C12 C 1.376(2) 0.1320(7) 0.0499(9)
C13 C 1.3366(18) 0.1590(11) 0.0363(7)
C14 C 1.3430(18) 0.2032(10) 0.0586(10)
N1 N 0.8168(14) 0.3464(7) 0.2612(7)
C15 C 0.8512(16) 0.3196(10) 0.2304(8)
C16 C 0.830(2) 0.2756(9) 0.2123(9)
C17 C 0.774(2) 0.2585(7) 0.2249(11)
C18 C 0.7394(18) 0.2853(10) 0.2556(10)
C19 C 0.7609(15) 0.3292(9) 0.2738(7)
C20 C 0.7600(18) 0.2118(9) 0.2102(9)
N2 N 1.184(2) 0.0131(8) 0.2164(11)
C21 C 1.243(2) 0.0302(10) 0.2476(11)
C22 C 1.2683(17) 0.0735(11) 0.2630(8)
C23 C 1.234(2) 0.0999(8) 0.2471(10)
C24 C 1.174(2) 0.0828(13) 0.2159(12)
C25 C 1.149(2) 0.0394(14) 0.2005(10)
O1 O 1.1188(13) 0.4111(7) 0.3892(7)
C26 C 0.9510(15) 0.1093(9) 0.4292(8)
C27 C 0.9525(17) 0.1492(10) 0.4279(10)
C28 C 1.019(2) 0.1769(8) 0.4437(11)
C29 C 1.0839(17) 0.1647(11) 0.4607(10)
C30 C 1.0825(16) 0.1249(13) 0.4620(11)
C31 C 1.016(2) 0.0972(9) 0.4463(11)
C32 C 0.709(2) 0.4496(12) 0.3032(9)
C33 C 0.772(2) 0.4789(10) 0.3142(7)
C34 C 0.8156(16) 0.4785(9) 0.2870(10)
C35 C 0.7957(19) 0.4488(11) 0.2489(9)
C36 C 0.7322(19) 0.4194(9) 0.2380(7)
C37 C 0.6886(17) 0.4198(10) 0.2651(10)
C38 C 0.648(2) 0.2440(11) 0.4197(11)
C39 C 0.6024(16) 0.2111(13) 0.4199(11)
C40 C 0.636(2) 0.1808(10) 0.4312(10)
C41 C 0.716(2) 0.1836(12) 0.4421(12)
C42 C 0.7616(16) 0.2165(14) 0.4418(12)
C43 C 0.728(2) 0.2468(11) 0.4306(11)
Co1 Co 1.3394(4) 0.1842(2) 0.29447(19)
N3 N 0.8291(19) 0.1446(11) 0.0701(7)
C44 C 0.849(3) 0.1150(9) 0.0849(12)
C45 C 0.844(3) 0.1246(13) 0.1229(13)
C46 C 0.818(2) 0.1640(14) 0.1460(8)
C47 C 0.7979(17) 0.1936(9) 0.1312(8)
C48 C 0.8034(18) 0.1840(9) 0.0933(9)
C49 C 0.568(3) 0.1364(9) 0.1432(11)
C50 C 0.556(2) 0.1657(13) 0.1804(10)
C51 C 0.574(3) 0.2081(10) 0.1851(10)
C52 C 0.598(3) 0.2051(12) 0.1508(13)
C53 C 0.594(2) 0.1608(14) 0.1249(9)
C54 C 0.7910(18) -0.0724(10) 0.1495(8)
C55 C 0.8480(13) -0.0739(10) 0.1777(9)
C56 C 0.8284(17) -0.0867(11) 0.2048(8)
C57 C 0.7517(19) -0.0980(10) 0.2038(8)
C58 C 0.6946(14) -0.0965(12) 0.1757(11)
C59 C 0.7143(16) -0.0837(13) 0.1485(10)
Ru1 Ru 0.8521(3) 0.12246(14) 0.01062(13)
C60 C 1.0839(15) 0.1668(12) 0.3534(10)
N4 N 1.1194(15) 0.1473(9) 0.3758(8)
C61 C 1.1953(16) 0.1363(9) 0.3737(8)
C62 C 1.2358(14) 0.1448(11) 0.3493(9)
C63 C 1.200(2) 0.1643(13) 0.3269(10)
C64 C 1.124(2) 0.1753(14) 0.3289(11)
C65 C 1.1082(17) -0.1186(9) 0.1763(9)
C66 C 1.0812(13) -0.0988(10) 0.1527(9)
C67 C 1.133(2) -0.0787(10) 0.1406(9)
C68 C 1.2121(18) -0.0783(10) 0.1521(9)
C69 C 1.2391(13) -0.0981(10) 0.1757(9)
C70 C 1.1871(19) -0.1182(10) 0.1878(9)
C71 C 1.421(2) 0.2274(8) 0.3255(9)
C72 C 1.419(2) 0.1914(11) 0.3345(7)
C73 C 1.4335(18) 0.1544(8) 0.3020(9)
C74 C 1.4451(18) 0.1675(9) 0.2731(7)
C75 C 1.4376(19) 0.2126(9) 0.2876(10)
C76 C 0.7046(18) 0.0221(10) 0.2696(9)
C77 C 0.7837(16) 0.0326(8) 0.2810(8)
C78 C 0.8110(14) 0.0704(9) 0.3133(8)
C79 C 0.759(2) 0.0977(8) 0.3341(8)
C80 C 0.680(2) 0.0871(13) 0.3226(13)
C81 C 0.6530(13) 0.0493(15) 0.2904(14)
N5 N 1.2748(15) 0.1765(8) 0.1436(5)
C82 C 1.2372(14) 0.2084(7) 0.1697(7)
C83 C 1.2338(13) 0.2090(6) 0.2053(6)
C84 C 1.2680(14) 0.1775(7) 0.2148(5)
C85 C 1.3056(14) 0.1456(7) 0.1886(7)
C86 C 1.3090(14) 0.1451(7) 0.1530(6)
N6 N 0.6996(18) 0.1902(9) 0.3362(7)
C87 C 0.7718(15) 0.2045(10) 0.3336(7)
C88 C 0.7842(13) 0.2066(10) 0.3000(9)
C89 C 0.7245(18) 0.1944(9) 0.2690(7)
C90 C 0.6523(15) 0.1800(11) 0.2716(8)
C91 C 0.6399(14) 0.1780(12) 0.3052(9)
Ru2 Ru 1.0504(2) 0.11319(13) 0.39987(12)
Ru3 Ru 1.2987(2) 0.17105(12) 0.08886(12)
Ru4 Ru 0.8153(2) 0.41577(13) 0.28262(12)
Ru5 Ru 0.7551(3) -0.03285(11) 0.20531(12)
C92 C 1.1260(17) -0.0153(9) 0.2752(9)
C93 C 1.1490(14) 0.0064(10) 0.3147(9)
C94 C 1.1044(16) 0.0379(9) 0.3367(6)
C95 C 1.0370(14) 0.0476(8) 0.3193(7)
C96 C 1.0140(13) 0.0259(9) 0.2798(8)
C97 C 1.0586(19) -0.0056(10) 0.2577(6)
N7 N 1.2300(14) 0.3493(6) 0.3514(7)
C98 C 1.2473(17) 0.3353(9) 0.3145(8)
C99 C 1.245(2) 0.2914(10) 0.2910(6)
C100 C 1.226(2) 0.2616(7) 0.3043(8)
C101 C 1.2086(16) 0.2757(7) 0.3412(9)
C102 C 1.2106(14) 0.3195(8) 0.3647(6)
Ru6 Ru 1.1518(3) -0.05332(11) 0.20273(12)
C103 C 1.1415(13) 0.1331(9) 0.0615(8)
C104 C 1.0770(17) 0.1039(7) 0.0457(9)
C105 C 1.0046(14) 0.1181(9) 0.0393(8)
C106 C 0.9966(15) 0.1615(10) 0.0485(10)
C107 C 1.061(2) 0.1907(7) 0.0643(11)
C108 C 1.1336(16) 0.1765(8) 0.0708(9)
Ru7 Ru 1.2426(2) 0.41539(13) 0.38252(12)
Ru8 Ru 0.6867(3) 0.17734(13) 0.38472(13)
N8 N 0.7459(16) 0.0211(6) 0.1919(7)
C109 C 0.6783(13) 0.0425(10) 0.1956(10)
C110 C 0.6773(14) 0.0831(10) 0.1957(12)
C111 C 0.7438(17) 0.1022(7) 0.1922(9)
C112 C 0.8114(13) 0.0807(7) 0.1885(8)
C113 C 0.8124(12) 0.0402(7) 0.1884(8)
Co2 Co 0.6655(4) 0.18143(19) 0.1823(2)
C114 C 0.973(3) 0.4145(14) 0.3011(14)
C115 C 1.093(3) 0.4089(14) 0.3251(14)
C116 C 1.060(2) 0.4125(11) 0.2984(11)
C117 C 0.741(2) 0.1467(13) 0.1954(12)
C118 C 0.782(3) 0.1715(14) 0.1785(11)
O2 O 1.1876(17) 0.4163(9) 0.3321(9)
O3 O 0.8153(16) 0.0121(9) 0.2528(8)
O4 O 0.9288(16) 0.4153(9) 0.2729(8)
O5 O 1.0492(15) -0.0258(8) 0.2245(8)
C119 C 0.753(5) 0.1863(14) 0.2331(12)
C120 C 1.253(2) 0.1774(11) 0.2491(10)
C121 C 1.250(2) 0.1503(13) 0.2641(12)
C122 C 1.225(2) 0.1740(12) 0.2971(9)
O6 O 1.1148(15) 0.0654(8) 0.3789(8)
O7 O 1.0018(16) 0.0773(9) 0.3454(8)
C123 C 1.2377(18) 0.2133(10) 0.2886(9)
O8 O 0.677(2) -0.0037(11) 0.2394(10)
O9 O 1.1901(13) 0.2055(7) 0.0898(7)
O10 O 1.2118(16) 0.1186(9) 0.0717(8)
C124 C 1.391(4) 0.269(2) 0.1194(19)
O11 O 0.9344(16) 0.1744(9) 0.0360(8)
O12 O 0.9430(16) 0.0967(9) 0.0302(8)
O13 O 0.8746(19) 0.4128(10) 0.3265(9)
C125 C 0.952(3) 0.4110(13) 0.3317(13)
O14 O 1.178(2) -0.0328(11) 0.2559(10)
C126 C 0.882(3) -0.0770(16) 0.2452(15)
C127 C 0.994(3) 0.4075(16) 0.3618(15)
C128 C 0.838(3) 0.4453(15) 0.2135(14)
O15 O 0.6253(17) 0.1163(9) 0.3389(9)
C129 C 1.273(3) -0.0586(15) 0.1364(14)
O16 O 0.784(3) 0.1525(16) 0.3699(14)
C130 C 1.060(5) 0.419(2) 0.357(2)
C131 C 1.356(2) 0.4120(13) 0.4156(13)
C132 C 1.340(3) 0.4660(16) 0.3890(14)
C133 C 1.350(3) 0.4204(17) 0.3869(16)
S2 S 0.2483(16) 0.5131(9) 0.1273(8)
O17 O 0.2671(18) 0.4865(10) 0.1460(9)
S3 S 0.5965(13) 0.6859(8) 0.5481(7)
C134 C 0.624(6) 0.736(3) 0.538(3)
C135 C 0.272(2) 0.9129(11) 0.3027(8)
C136 C 0.2420(17) 0.9146(13) 0.3342(11)
C137 C 0.291(3) 0.9156(12) 0.3661(9)
C138 C 0.370(2) 0.9149(15) 0.3665(11)
C139 C 0.4006(17) 0.913(2) 0.3349(15)
C140 C 0.352(2) 0.9122(17) 0.3030(11)
O18 O -0.0221(15) 0.7068(8) 0.0935(8)
O19 O -0.0424(15) 0.6271(8) 0.0744(8)
Co3 Co -0.0184(4) 0.6876(2) 0.29988(19)
C141 C 0.111(2) 0.4200(16) 0.1483(13)
C142 C 0.1541(17) 0.3986(14) 0.1670(12)
C143 C 0.1215(19) 0.3865(11) 0.1918(10)
C144 C 0.046(2) 0.3959(15) 0.1978(12)
C145 C 0.0036(16) 0.4173(14) 0.1790(12)
C146 C 0.036(2) 0.4294(11) 0.1543(10)
C147 C 0.515(2) 0.9468(14) 0.2524(12)
C148 C 0.520(2) 0.9804(11) 0.2888(14)
C149 C 0.576(3) 0.9817(12) 0.3186(10)
C150 C 0.627(3) 0.9495(16) 0.3120(10)
C151 C 0.622(2) 0.9159(12) 0.2755(12)
C152 C 0.566(2) 0.9145(10) 0.2457(8)
Ru9 Ru 0.3402(3) 0.61913(14) 0.40635(14)
C153 C -0.0685(19) 0.6922(11) 0.3407(7)
C154 C -0.079(2) 0.7276(7) 0.3311(9)
C155 C -0.1227(17) 0.7122(9) 0.2937(9)
C156 C -0.1397(18) 0.6672(9) 0.2801(7)
C157 C -0.1062(18) 0.6548(7) 0.3092(9)
N9 N 0.117(2) 0.8519(7) 0.3541(9)
C158 C 0.0518(19) 0.8350(10) 0.3259(10)
C159 C 0.0344(14) 0.7907(10) 0.3074(8)
C160 C 0.0819(16) 0.7633(7) 0.3171(8)
C161 C 0.1467(15) 0.7803(9) 0.3454(8)
C162 C 0.1641(15) 0.8246(9) 0.3639(7)
Ru10 Ru 0.2814(3) 0.62880(15) 0.01901(13)
Ru11 Ru 0.5011(3) 0.92052(12) 0.29232(15)
C163 C 0.317(2) 0.6449(10) -0.0264(11)
C164 C 0.3864(18) 0.6361(10) -0.0094(10)
C165 C 0.3921(17) 0.5974(12) -0.0062(9)
C166 C 0.329(2) 0.5674(9) -0.0200(11)
C167 C 0.2597(18) 0.5763(11) -0.0371(11)
C168 C 0.2541(18) 0.6150(13) -0.0403(10)
Ru12 Ru -0.1167(2) 0.67554(14) 0.09660(13)
Ru13 Ru 0.1241(4) 0.92105(13) 0.38724(14)
C169 C 0.3092(16) 0.5331(10) 0.2875(9)
C170 C 0.3139(17) 0.5519(10) 0.3272(9)
C171 C 0.257(2) 0.5415(11) 0.3438(7)
C172 C 0.1952(17) 0.5123(11) 0.3207(10)
C173 C 0.1905(16) 0.4935(10) 0.2810(9)
C174 C 0.248(2) 0.5039(10) 0.2644(7)
N10 N 0.0964(17) 0.5165(6) 0.2233(8)
C175 C 0.051(2) 0.5309(9) 0.2520(9)
C176 C 0.0318(17) 0.5736(9) 0.2672(8)
C177 C 0.0582(16) 0.6017(6) 0.2537(8)
C178 C 0.1038(17) 0.5873(8) 0.2250(8)
C179 C 0.1229(15) 0.5446(9) 0.2098(7)
N11 N 0.3335(12) 0.6470(7) 0.0763(5)
C180 C 0.3638(14) 0.6891(6) 0.0989(7)
C181 C 0.4033(15) 0.7004(6) 0.1358(7)
C182 C 0.4127(16) 0.6696(10) 0.1501(6)
C183 C 0.3824(17) 0.6274(8) 0.1275(8)
C184 C 0.3429(14) 0.6161(6) 0.0906(7)
Ru14 Ru 0.1215(2) 0.45216(12) 0.20375(11)
N12 N -0.0591(17) 0.6810(10) 0.1503(7)
C185 C -0.0899(16) 0.6525(9) 0.1623(8)
C186 C -0.0622(19) 0.6548(9) 0.1985(9)
C187 C -0.0036(18) 0.6856(10) 0.2226(7)
C188 C 0.0273(16) 0.7141(9) 0.2106(9)
C189 C -0.0005(18) 0.7119(9) 0.1745(9)
C190 C 0.1468(17) 0.6278(10) 0.0462(9)
C191 C 0.081(2) 0.6127(8) 0.0541(10)
C192 C 0.0261(16) 0.6410(11) 0.0703(10)
C193 C 0.0370(18) 0.6844(10) 0.0785(9)
C194 C 0.103(2) 0.6994(8) 0.0706(12)
C195 C 0.1577(19) 0.6711(11) 0.0544(12)
O20 O 0.1935(15) 0.5981(8) 0.0312(7)
O21 O 0.166(2) 0.9188(13) 0.3384(11)
O22 O 0.3844(14) 0.9176(7) 0.2827(7)
O23 O 0.483(3) 0.9117(14) 0.3359(13)
C196 C -0.013(3) 0.9279(16) 0.3923(15)
C197 C 0.051(5) 1.003(3) 0.384(3)
O24 O 0.230(2) 0.4712(13) 0.2250(12)
N13 N 0.2567(17) 0.6480(8) 0.3808(8)
C198 C -0.2056(19) 0.7244(10) 0.1101(9)
C199 C -0.199(2) 0.7011(13) 0.0610(12)
O25 O 0.2448(18) 0.9160(10) 0.3923(9)
C200 C 0.436(3) 0.9516(15) 0.2252(14)
N14 N 0.482(3) 0.8465(16) 0.2693(14)
C201 C 0.077(2) 0.6482(12) 0.2724(11)
C202 C 0.424(3) 0.6086(14) 0.4468(13)
O26 O 0.3662(19) 0.5895(11) 0.3508(10)
C203 C -0.233(2) 0.6990(11) 0.1232(11)
C204 C 0.147(3) 0.6726(14) 0.3305(13)
O27 O 0.211(2) 0.6865(12) 0.0466(11)
O28 O 0.2491(18) 0.5688(10) 0.3826(9)
C205 C 0.366(2) 0.6177(13) 0.4638(12)
C206 C 0.465(3) 0.6340(16) 0.4280(14)
C207 C -0.189(3) 0.6649(17) 0.0453(15)
C208 C 0.193(4) 0.961(2) 0.4450(18)
C209 C 0.092(3) 0.7163(14) 0.2934(13)
C210 C -0.228(3) 0.6455(15) 0.0972(14)
C211 C 0.041(2) 0.6822(12) 0.2543(12)
O29 O 0.124(3) 0.4655(14) 0.2660(13)
C212 C 0.405(3) 0.5496(16) -0.0065(14)
C213 C 0.197(4) 0.370(2) 0.1896(17)
C214 C 0.112(3) 0.9853(16) 0.4221(15)
C215 C 0.277(5) 0.668(3) -0.011(2)
C216 C 0.270(2) 0.6741(13) 0.3657(12)
C217 C 0.433(3) 0.6659(14) 0.4312(13)
C218 C 0.354(5) 0.659(3) 0.454(2)
C219 C 0.205(4) 0.6483(18) 0.3874(16)
C220 C -0.002(4) 0.962(2) 0.344(2)
C221 C 0.086(2) 0.6798(12) 0.3065(11)
C222 C 0.679(3) 0.9440(15) 0.3517(15)
C223 C 0.213(5) 0.317(3) 0.155(2)
C224 C 0.009(4) 0.952(2) 0.373(2)
C225 C 0.667(4) 0.966(2) 0.386(2)
C226 C 0.506(2) 0.6562(12) 0.2090(13)
Co4 Co 0.5756(4) 0.6873(2) 0.1915(2)
N15 N 0.6483(17) 0.6817(9) 0.3358(7)
C227 C 0.5742(17) 0.6958(10) 0.3346(7)
C228 C 0.5383(13) 0.7000(10) 0.3022(9)
C229 C 0.5767(15) 0.6902(8) 0.2710(7)
C230 C 0.6508(16) 0.6762(11) 0.2723(8)
C231 C 0.6866(14) 0.6719(12) 0.3047(10)
Ru15 Ru 0.6947(3) 0.67284(13) 0.38729(13)
C232 C 0.5927(16) 0.5962(7) 0.3410(6)
C233 C 0.5284(12) 0.5687(8) 0.3188(7)
C234 C 0.5350(12) 0.5345(7) 0.2839(7)
C235 C 0.6059(15) 0.5279(7) 0.2713(6)
C236 C 0.6703(11) 0.5554(9) 0.2935(8)
C237 C 0.6637(13) 0.5896(9) 0.3283(8)
Ru16 Ru 0.5000(2) 0.46800(11) 0.20660(11)
C238 C 0.504(3) 0.6567(18) 0.1862(18)
C239 C 0.484(2) 0.7206(14) 0.2221(12)
C240 C 0.549(3) 0.6861(16) 0.2371(15)
C241 C 0.503(2) 0.6053(12) 0.1966(11)
C242 C 0.4342(18) 0.5819(10) 0.1917(9)
C243 C 0.444(3) 0.5437(15) 0.1925(14)
C244 C 0.562(3) 0.5400(18) 0.1922(16)
C245 C 0.487(3) 0.7684(17) 0.2389(15)
N16 N 0.495(2) 0.5260(10) 0.1919(9)
O30 O 0.474(2) 0.5114(12) 0.2578(10)
C246 C 0.636(5) 0.706(3) 0.156(2)
C247 C 0.567(5) 0.410(3) 0.178(2)
C248 C 0.450(2) 0.4279(13) 0.1549(12)
O31 O 0.606(2) 0.4912(12) 0.2367(11)
C249 C 0.534(5) 0.405(3) 0.164(3)
C250 C 0.665(2) 0.7273(11) 0.1948(11)
C251 C 0.680(4) 0.685(3) 0.185(2)
O32 O 0.5972(19) 0.6321(10) 0.3679(9)
C252 C 0.790(4) 0.674(2) 0.4424(18)
C253 C 0.794(3) 0.7096(18) 0.4057(16)
C254 C 0.433(3) 0.7914(15) 0.2345(14)
C255 C 0.596(5) 0.663(3) 0.137(2)
O33 O 0.7220(18) 0.6151(10) 0.3419(9)
C256 C 0.5013(19) 0.4034(11) 0.2059(10)
C257 C 0.683(2) 0.7419(12) 0.4332(11)
C258 C 0.562(3) 0.5883(15) 0.2001(13)
C259 C 0.695(4) 0.692(2) 0.4452(18)
C260 C 0.669(4) 0.783(2) 0.430(2)
C261 C 0.381(3) 0.4372(15) 0.1809(14)
C262 C 0.001(3) 0.8206(15) 0.3991(14)
S4 S -0.0015(15) 0.8188(8) 0.4462(7)
C263 C 0.869(2) 0.5620(11) 0.1979(10)
C264 C 0.8006(15) 0.5599(8) 0.1944(8)
C265 C 0.773(3) 0.5986(17) 0.1919(15)
C266 C 0.418(5) 0.362(3) 0.115(2)
C267 C 0.906(4) 0.495(3) 0.208(2)
C268 C 0.186(9) 0.499(5) 0.438(4)
C269 C 0.688(5) 0.520(3) 0.138(2)
C270 C 0.700(3) 0.5272(16) 0.1266(15)
C271 C 0.538(4) 0.853(2) 0.329(2)
C272 C 0.398(6) 0.023(3) 0.384(3)
C273 C 0.4160(15) 0.7680(8) 0.3775(8)
C274 C 0.354(9) 0.803(5) 0.400(4)
C275 C 0.418(3) 0.7307(18) 0.3810(17)
C276 C 0.396(13) 0.739(8) 0.401(6)
S5 S 0.4859(10) 0.3288(6) 0.2742(5)
O34 O 0.441(3) 0.2882(18) 0.2480(16)
C277 C 0.985(4) 0.989(2) 0.1165(18)
C278 C 0.9654(19) 1.0048(11) 0.1206(10)
C279 C 0.952(4) 0.973(2) 0.1301(19)
C280 C 0.4579(15) 0.8245(8) 0.1400(8)
C281 C 0.4366(18) 0.8387(10) 0.1150(9)
C282 C 0.459(3) 0.7827(19) 0.1180(17)
C283 C 0.412(4) 0.850(2) 0.166(2)
C284 C 0.703(4) 0.284(2) 0.394(2)
C285 C 0.920(3) 0.9677(16) 0.0578(15)
C286 C 0.841(4) 1.010(2) 0.0726(18)
S6 S 0.9535(12) 0.5730(7) 0.3632(6)
C287 C 0.881(3) 0.5541(14) 0.3846(13)
C288 C 0.263(3) 0.4364(17) 0.4837(16)
C289 C 0.502(3) 0.3832(18) 0.0765(16)
C290 C 0.099(3) 0.9866(17) 0.5023(16)
C291 C 0.882(4) 0.060(2) 0.402(2)
C292 C 0.8732(19) 0.3177(10) 0.1380(10)
C293 C 0.7650(19) 0.3403(10) 0.1271(9)
C294 C 0.696(4) 0.330(2) 0.132(2)
O35 O 0.417(7) 0.409(4) 0.242(3)
C295 C 0.572(3) 0.3031(17) 0.3043(15)
C296 C 0.559(3) 0.3814(19) 0.3597(17)
O36 O 0.584(4) 0.341(2) 0.326(2)
C297 C 0.944(2) 0.2707(11) 0.4110(10)
C298 C 0.959(4) 0.249(2) 0.3751(19)
C299 C 0.438(4) 0.484(2) 0.986(2)
C300 C 0.998(2) 0.7388(13) 0.0181(12)
C301 C 0.589(6) 0.601(3) 0.042(3)
C302 C 0.088(4) 0.296(2) 0.5051(19)
C303 C 1.071(3) 0.3147(17) 0.4429(16)
C304 C -0.007(3) 0.4715(15) 0.1410(13)
S7 S 0.4506(10) 0.0539(5) 0.1882(5)
O37 O 0.361(3) 0.0643(18) 0.1931(16)
F2 F 0.413(2) -0.0089(12) 0.1197(12)
C305 C 0.435(3) -0.0090(18) 0.1466(18)
C306 C 0.484(3) 0.0990(19) 0.1914(17)
C307 C 0.921(3) 0.5972(15) 0.1026(14)
C308 C -0.007(3) 0.5518(15) 0.1072(14)
C309 C 0.240(3) 0.5154(19) 0.0619(17)
C310 C 0.579(5) 0.351(3) 0.189(2)
C311 C 0.407(2) 0.1357(13) 0.3886(12)
C312 C 0.520(3) 0.0776(16) 0.3768(14)
S8 S 0.4291(19) 0.0848(11) 0.3661(9)
C313 C 0.764(5) 0.791(3) 0.316(2)
C314 C 0.376(3) 0.0258(18) 0.5043(16)
C315 C 0.268(3) 0.0764(17) 0.4186(16)
C316 C 0.678(4) 0.832(2) 0.1858(18)
C317 C 0.963(9) 0.803(5) 0.129(4)
C318 C 0.205(3) 0.9638(16) 0.4939(15)
O38 O 0.580(3) 0.7533(19) 0.6048(17)
C319 C 1.353(3) 0.0785(14) 0.0106(13)
C320 C 0.228(3) 0.5768(16) 0.4957(15)
C321 C 0.462(4) 0.121(2) 0.149(2)
F3 F 0.533(2) 0.0309(12) 0.1247(10)
F4 F 0.389(4) 0.063(2) 0.1102(17)
C322 C 0.987(3) 0.1113(19) 0.2740(17)
C323 C 0.075(4) 0.163(2) 0.9976(18)
C324 C 0.211(3) 0.4240(15) 0.9995(14)
C325 C 0.394(4) 0.413(2) 0.5105(19)
C326 C 0.699(4) 0.092(2) 0.4230(18)
C327 C 0.669(5) 0.113(3) 0.434(2)
C328 C 0.774(4) 0.131(2) 0.466(2)
C329 C 0.470(3) 0.5610(16) 0.4829(14)
C330 C 0.453(5) 0.531(2) 0.499(2)
C331 C 0.530(5) 0.526(3) 0.488(2)
C332 C 0.318(3) 0.2707(17) 0.0659(15)
C333 C 0.885(3) 0.1134(17) 0.5001(15)
C334 C 0.940(3) 0.9212(15) 0.0095(14)
C335 C 0.241(3) 0.6219(19) 0.5798(17)
C336 C 0.195(3) 0.4874(18) 0.0103(16)
C337 C 0.636(6) 0.604(3) -0.001(3)
C338 C 0.698(4) 0.967(2) 0.0456(19)
C339 C 0.854(4) 0.866(2) 0.416(2)
C340 C 0.993(3) 0.5756(15) 0.4314(14)
C341 C 0.997(3) 0.5056(17) 0.3661(15)
C342 C 0.820(6) 0.601(3) 0.318(3)
C343 C 1.035(5) -0.140(3) 0.198(2)
C344 C 0.499(4) 0.560(2) 0.4147(19)
C345 C 0.085(8) 0.885(4) 0.259(4)
C346 C 0.064(3) 0.7802(16) 0.4707(14)
F5 F 0.485(2) 0.3154(13) 0.3375(12)
S9 S 0.435(3) 0.9854(19) 0.9744(15)
C347 C 0.407(3) 0.9364(19) 0.9668(17)
C348 C 1.364(2) 0.4519(12) 0.3394(12)
C349 C 0.426(2) 0.0747(13) 0.4326(12)
F6 F 0.189(6) 0.560(3) 0.553(3)
F7 F 0.067(3) 0.505(2) 0.4989(18)
C350 C 0.023(6) 0.235(3) 0.183(3)
C351 C 0.091(3) 0.2661(19) 0.2359(17)
C352 C 1.282(6) 0.165(4) 0.407(3)
C353 C 0.983(9) 0.056(5) 0.227(4)
C354 C 0.282(4) 0.512(2) 0.602(2)
C355 C 0.006(4) 0.331(2) 0.3932(18)
C356 C 0.516(3) 0.4388(15) 0.3584(13)
C357 C 0.664(3) 0.3146(19) 0.0714(17)
C358 C 0.562(5) 0.195(3) 0.027(2)
C359 C 0.969(4) 0.593(2) 0.986(2)
C360 C 0.028(4) 0.160(2) 0.9365(18)
C361 C 0.548(4) 0.509(2) 0.944(2)
C362 C 0.026(6) 0.091(3) 0.170(3)
loop_
_geom_bond_atom_site_label_1
_geom_bond_atom_site_label_2
_geom_bond_site_symmetry_1
_geom_bond_site_symmetry_2
S1 C1 1_555 1_555
C2 S1 1_555 1_555
F1 C2 1_555 1_555
C3 C4 1_555 1_555
C4 C5 1_555 1_555
C5 C6 1_555 1_555
C6 C7 1_555 1_555
C7 C8 1_555 1_555
C8 C3 1_555 1_555
C9 C10 1_555 1_555
C10 C11 1_555 1_555
C11 C12 1_555 1_555
C12 C13 1_555 1_555
C13 C14 1_555 1_555
C14 C9 1_555 1_555
N1 C15 1_555 1_555
C15 C16 1_555 1_555
C16 C17 1_555 1_555
C17 C18 1_555 1_555
C18 C19 1_555 1_555
C19 N1 1_555 1_555
C20 C17 1_555 1_555
N2 C21 1_555 1_555
C21 C22 1_555 1_555
C22 C23 1_555 1_555
C23 C24 1_555 1_555
C24 C25 1_555 1_555
C25 N2 1_555 1_555
O1 Ru7 1_555 1_555
C26 C27 1_555 1_555
C27 C28 1_555 1_555
C28 C29 1_555 1_555
C29 C30 1_555 1_555
C30 C31 1_555 1_555
C31 C26 1_555 1_555
C32 C33 1_555 1_555
C33 C34 1_555 1_555
C34 C35 1_555 1_555
C35 C36 1_555 1_555
C36 C37 1_555 1_555
C37 C32 1_555 1_555
C38 C39 1_555 1_555
C39 C40 1_555 1_555
C40 C41 1_555 1_555
C41 C42 1_555 1_555
C42 C43 1_555 1_555
C43 C38 1_555 1_555
Co1 C71 1_555 1_555
N3 C44 1_555 1_555
C44 C45 1_555 1_555
C45 C46 1_555 1_555
C46 C47 1_555 1_555
C47 C48 1_555 1_555
C48 N3 1_555 1_555
C49 C50 1_555 1_555
C50 C51 1_555 1_555
C51 C52 1_555 1_555
C52 C53 1_555 1_555
C53 C49 1_555 1_555
C54 C55 1_555 1_555
C55 C56 1_555 1_555
C56 C57 1_555 1_555
C57 C58 1_555 1_555
C58 C59 1_555 1_555
C59 C54 1_555 1_555
Ru1 C3 1_555 1_555
C60 N4 1_555 1_555
N4 C61 1_555 1_555
C61 C62 1_555 1_555
C62 C63 1_555 1_555
C63 C64 1_555 1_555
C64 C60 1_555 1_555
C65 C66 1_555 1_555
C66 C67 1_555 1_555
C67 C68 1_555 1_555
C68 C69 1_555 1_555
C69 C70 1_555 1_555
C70 C65 1_555 1_555
C71 C72 1_555 1_555
C72 Co1 1_555 1_555
C73 Co1 1_555 1_555
C74 Co1 1_555 1_555
C75 Co1 1_555 1_555
C76 C77 1_555 1_555
C77 C78 1_555 1_555
C78 C79 1_555 1_555
C79 C80 1_555 1_555
C80 C81 1_555 1_555
C81 C76 1_555 1_555
N5 C82 1_555 1_555
C82 C83 1_555 1_555
C83 C84 1_555 1_555
C84 C85 1_555 1_555
C85 C86 1_555 1_555
C86 N5 1_555 1_555
N6 C87 1_555 1_555
C87 C88 1_555 1_555
C88 C89 1_555 1_555
C89 C90 1_555 1_555
C90 C91 1_555 1_555
C91 N6 1_555 1_555
Ru2 C26 1_555 1_555
Ru3 C9 1_555 1_555
Ru4 N1 1_555 1_555
Ru5 C54 1_555 1_555
C92 C93 1_555 1_555
C93 C94 1_555 1_555
C94 C95 1_555 1_555
C95 C96 1_555 1_555
C96 C97 1_555 1_555
C97 C92 1_555 1_555
N7 C98 1_555 1_555
C98 C99 1_555 1_555
C99 C100 1_555 1_555
C100 C101 1_555 1_555
C101 C102 1_555 1_555
C102 N7 1_555 1_555
Ru6 N2 1_555 1_555
C103 C104 1_555 1_555
C104 C105 1_555 1_555
C105 C106 1_555 1_555
C106 C107 1_555 1_555
C107 C108 1_555 1_555
C108 C103 1_555 1_555
Ru7 N7 1_555 1_555
Ru8 C38 1_555 1_555
N8 Ru5 1_555 1_555
C109 N8 1_555 1_555
C110 C109 1_555 1_555
C111 C110 1_555 1_555
C112 C111 1_555 1_555
C113 N8 1_555 1_555
Co2 C20 1_555 1_555
C114 C116 1_555 1_555
C115 C116 1_555 1_555
C117 C111 1_555 1_555
C118 C20 1_555 1_555
O2 Ru7 1_555 1_555
O3 C77 1_555 1_555
O4 Ru4 1_555 1_555
O5 C97 1_555 1_555
C119 C20 1_555 1_555
C120 Co1 1_555 1_555
C121 C23 1_555 1_555
C122 Co1 1_555 1_555
O6 Ru2 1_555 1_555
O7 Ru2 1_555 1_555
C123 Co1 1_555 1_555
O8 C76 1_555 1_555
O9 Ru3 1_555 1_555
O10 Ru3 1_555 1_555
C124 C9 1_555 1_555
O11 Ru1 1_555 1_555
O12 Ru1 1_555 1_555
O13 Ru4 1_555 1_555
C125 C114 1_555 1_555
O14 C92 1_555 1_555
C126 C56 1_555 1_555
C127 C125 1_555 1_555
C128 C35 1_555 1_555
O15 C80 1_555 1_555
C129 C68 1_555 1_555
O16 C79 1_555 1_555
C130 O1 1_555 1_555
C131 Ru7 1_555 1_555
C132 Ru7 1_555 1_555
C133 Ru7 1_555 1_555
S2 O17 1_555 1_555
S3 C134 1_555 1_555
C135 C136 1_555 1_555
C136 C137 1_555 1_555
C137 C138 1_555 1_555
C138 C139 1_555 1_555
C139 C140 1_555 1_555
C140 C135 1_555 1_555
O18 Ru12 1_555 1_555
O19 Ru12 1_555 1_555
Co3 C153 1_555 1_555
C141 C142 1_555 1_555
C142 C143 1_555 1_555
C143 C144 1_555 1_555
C144 C145 1_555 1_555
C145 C146 1_555 1_555
C146 C141 1_555 1_555
C147 C148 1_555 1_555
C148 C149 1_555 1_555
C149 C150 1_555 1_555
C150 C151 1_555 1_555
C151 C152 1_555 1_555
C152 C147 1_555 1_555
Ru9 N13 1_555 1_555
C153 C154 1_555 1_555
C154 Co3 1_555 1_555
C155 Co3 1_555 1_555
C156 Co3 1_555 1_555
C157 Co3 1_555 1_555
N9 C158 1_555 1_555
C158 C159 1_555 1_555
C159 C160 1_555 1_555
C160 C161 1_555 1_555
C161 C162 1_555 1_555
C162 N9 1_555 1_555
Ru10 C164 1_555 1_555
Ru11 C147 1_555 1_555
C163 C164 1_555 1_555
C164 C165 1_555 1_555
C165 Ru10 1_555 1_555
C166 Ru10 1_555 1_555
C167 Ru10 1_555 1_555
C168 Ru10 1_555 1_555
Ru12 N12 1_555 1_555
Ru13 N9 1_555 1_555
C169 C170 1_555 1_555
C170 C171 1_555 1_555
C171 C172 1_555 1_555
C172 C173 1_555 1_555
C173 C174 1_555 1_555
C174 C169 1_555 1_555
N10 C175 1_555 1_555
C175 C176 1_555 1_555
C176 C177 1_555 1_555
C177 C178 1_555 1_555
C178 C179 1_555 1_555
C179 N10 1_555 1_555
N11 Ru10 1_555 1_555
C180 N11 1_555 1_555
C181 C180 1_555 1_555
C182 C181 1_555 1_555
C183 C182 1_555 1_555
C184 N11 1_555 1_555
Ru14 C141 1_555 1_555
N12 C185 1_555 1_555
C185 C186 1_555 1_555
C186 C187 1_555 1_555
C187 C188 1_555 1_555
C188 C189 1_555 1_555
C189 N12 1_555 1_555
C190 C191 1_555 1_555
C191 C192 1_555 1_555
C192 O19 1_555 1_555
C193 O18 1_555 1_555
C194 C193 1_555 1_555
C195 C190 1_555 1_555
O20 Ru10 1_555 1_555
O21 C136 1_555 1_555
O22 C140 1_555 1_555
O23 C139 1_555 1_555
C196 Ru13 1_555 1_555
C197 C220 1_555 1_555
O24 C174 1_555 1_555
N13 C216 1_555 1_555
C198 Ru12 1_555 1_555
C199 Ru12 1_555 1_555
O25 C137 1_555 1_555
C200 C147 1_555 1_555
N14 Ru11 1_555 1_555
C201 Co3 1_555 1_555
C202 Ru9 1_555 1_555
O26 Ru9 1_555 1_555
C203 Ru12 1_555 1_555
C204 C221 1_555 1_555
O27 Ru10 1_555 1_555
O28 Ru9 1_555 1_555
C205 Ru9 1_555 1_555
C206 Ru9 1_555 1_555
C207 Ru12 1_555 1_555
C208 Ru13 1_555 1_555
C209 C160 1_555 1_555
C210 Ru12 1_555 1_555
C211 Co3 1_555 1_555
O29 C173 1_555 1_555
C212 C165 1_555 1_555
C213 C142 1_555 1_555
C214 Ru13 1_555 1_555
C215 Ru10 1_555 1_555
C217 Ru9 1_555 1_555
C218 Ru9 1_555 1_555
C219 N13 1_555 1_555
C220 C224 1_555 1_555
C221 Co3 1_555 1_555
C222 C150 1_555 1_555
C223 C213 1_555 1_555
C224 Ru13 1_555 1_555
C225 C222 1_555 1_555
C226 C238 1_555 1_555
Co4 C238 1_555 1_555
N15 C227 1_555 1_555
C227 C228 1_555 1_555
C228 C229 1_555 1_555
C229 C230 1_555 1_555
C230 C231 1_555 1_555
C231 N15 1_555 1_555
Ru15 N15 1_555 1_555
C232 C233 1_555 1_555
C233 C234 1_555 1_555
C234 C235 1_555 1_555
C235 C236 1_555 1_555
C236 C237 1_555 1_555
C237 C232 1_555 1_555
Ru16 N16 1_555 1_555
C239 Co4 1_555 1_555
C240 C226 1_555 1_555
C241 C226 1_555 1_555
C242 C241 1_555 1_555
C243 C242 1_555 1_555
C244 N16 1_555 1_555
C245 C239 1_555 1_555
N16 C243 1_555 1_555
O30 C234 1_555 1_555
C246 C250 1_555 1_555
C247 Ru16 1_555 1_555
C248 Ru16 1_555 1_555
O31 C235 1_555 1_555
C249 Ru16 1_555 1_555
C250 Co4 1_555 1_555
C251 Co4 1_555 1_555
O32 Ru15 1_555 1_555
C252 Ru15 1_555 1_555
C253 Ru15 1_555 1_555
C254 C245 1_555 1_555
C255 Co4 1_555 1_555
O33 Ru15 1_555 1_555
C256 Ru16 1_555 1_555
C257 Ru15 1_555 1_555
C258 C241 1_555 1_555
C259 Ru15 1_555 1_555
C260 C257 1_555 1_555
C261 Ru16 1_555 1_555
C262 S4 1_555 1_555
C263 C264 1_555 1_555
C264 C265 1_555 1_555
C269 C270 1_555 1_555
C273 C274 1_555 1_555
C275 C273 1_555 1_555
C276 C273 1_555 1_555
S5 O34 1_555 1_555
C277 C278 1_555 1_555
C278 C279 1_555 1_555
C279 C277 1_555 1_555
C280 C281 1_555 1_555
C282 C280 1_555 1_555
C283 C280 1_555 1_555
S6 C287 1_555 1_555
C293 C294 1_555 1_555
C295 O36 1_555 1_555
C296 O36 1_555 1_555
C297 C298 1_555 1_555
S7 O37 1_555 1_555
F2 C305 1_555 1_555
C305 S7 1_555 1_555
C306 S7 1_555 1_555
C311 S8 1_555 1_555
C312 S8 1_555 1_555
C326 C327 1_555 1_555
C329 C330 1_555 1_555
C330 C331 1_555 1_555
C331 C329 1_555 1_555
S9 C347 1_555 1_555
C4 Ru1 1_555 1_555
C5 Ru1 1_555 1_555
C6 Ru1 1_555 1_555
C7 Ru1 1_555 1_555
C8 Ru1 1_555 1_555
C10 Ru3 1_555 1_555
C11 Ru3 1_555 1_555
C12 Ru3 1_555 1_555
C13 Ru3 1_555 1_555
C14 Ru3 1_555 1_555
C27 Ru2 1_555 1_555
C28 Ru2 1_555 1_555
C29 Ru2 1_555 1_555
C30 Ru2 1_555 1_555
C31 Ru2 1_555 1_555
C32 Ru4 1_555 1_555
C33 Ru4 1_555 1_555
C34 Ru4 1_555 1_555
C35 Ru4 1_555 1_555
C36 Ru4 1_555 1_555
C37 Ru4 1_555 1_555
C39 Ru8 1_555 1_555
C40 Ru8 1_555 1_555
C41 Ru8 1_555 1_555
C42 Ru8 1_555 1_555
C43 Ru8 1_555 1_555
Co1 C121 1_555 1_555
N3 Ru1 1_555 1_555
C46 C118 1_555 1_555
C49 Co2 1_555 1_555
C50 Co2 1_555 1_555
C51 Co2 1_555 1_555
C52 Co2 1_555 1_555
C53 Co2 1_555 1_555
C55 Ru5 1_555 1_555
C56 Ru5 1_555 1_555
C57 Ru5 1_555 1_555
C58 Ru5 1_555 1_555
C59 Ru5 1_555 1_555
N4 Ru2 1_555 1_555
C63 C122 1_555 1_555
C65 Ru6 1_555 1_555
C66 Ru6 1_555 1_555
C67 Ru6 1_555 1_555
C68 Ru6 1_555 1_555
C69 Ru6 1_555 1_555
C70 Ru6 1_555 1_555
C71 C75 1_555 1_555
C72 C73 1_555 1_555
C73 C74 1_555 1_555
C74 C75 1_555 1_555
N5 Ru3 1_555 1_555
C84 C120 1_555 1_555
N6 Ru8 1_555 1_555
C89 C119 1_555 1_555
Ru5 O3 1_555 1_555
Ru5 O8 1_555 1_555
C94 O6 1_555 1_555
C95 O7 1_555 1_555
C100 C123 1_555 1_555
Ru6 O5 1_555 1_555
Ru6 O14 1_555 1_555
C103 O10 1_555 1_555
C105 O12 1_555 1_555
C106 O11 1_555 1_555
C108 O9 1_555 1_555
Ru8 O15 1_555 1_555
Ru8 O16 1_555 1_555
C112 C113 1_555 1_555
Co2 C117 1_555 1_555
Co2 C118 1_555 1_555
Co2 C119 1_555 1_555
C114 O4 1_555 1_555
C115 O2 1_555 1_555
C115 C130 1_555 1_555
C117 C118 1_555 1_555
C117 C119 1_555 1_555
C120 C121 1_555 1_555
C120 C123 1_555 1_555
C121 C122 1_555 1_555
C122 C123 1_555 1_555
O13 C125 1_555 1_555
C127 C130 1_555 1_555
C131 C133 1_555 1_555
C132 C133 1_555 1_555
C142 Ru14 1_555 1_555
C143 Ru14 1_555 1_555
C143 C213 1_555 1_555
C144 Ru14 1_555 1_555
C145 Ru14 1_555 1_555
C146 Ru14 1_555 1_555
C148 Ru11 1_555 1_555
C149 Ru11 1_555 1_555
C150 Ru11 1_555 1_555
C151 Ru11 1_555 1_555
C152 Ru11 1_555 1_555
C153 C157 1_555 1_555
C154 C155 1_555 1_555
C155 C156 1_555 1_555
C156 C157 1_555 1_555
Ru11 O22 1_555 1_555
Ru11 O23 1_555 1_555
C163 C168 1_555 1_555
C163 C215 1_555 1_555
C165 C166 1_555 1_555
C166 C167 1_555 1_555
C166 C212 1_555 1_555
C167 C168 1_555 1_555
C168 C215 1_555 1_555
Ru13 O21 1_555 1_555
Ru13 O25 1_555 1_555
C170 O26 1_555 1_555
C171 O28 1_555 1_555
N10 Ru14 1_555 1_555
C177 C201 1_555 1_555
C183 C184 1_555 1_555
Ru14 O24 1_555 1_555
Ru14 O29 1_555 1_555
C187 C211 1_555 1_555
C190 O20 1_555 1_555
C192 C193 1_555 1_555
C194 C195 1_555 1_555
C195 O27 1_555 1_555
C196 C224 1_555 1_555
C197 C224 1_555 1_555
C198 C199 1_555 1_555
C198 C203 1_555 1_555
C199 C207 1_555 1_555
C201 C211 1_555 1_555
C201 C221 1_555 1_555
C202 C205 1_555 1_555
C202 C206 1_555 1_555
C203 C210 1_555 1_555
C205 C218 1_555 1_555
C206 C217 1_555 1_555
C209 C211 1_555 1_555
C209 C221 1_555 1_555
Co4 C240 1_555 1_555
C229 C240 1_555 1_555
C232 O32 1_555 1_555
C237 O33 1_555 1_555
Ru16 O30 1_555 1_555
Ru16 O31 1_555 1_555
C244 C258 1_555 1_555
C246 C251 1_555 1_555
C246 C255 1_555 1_555
C247 C249 1_555 1_555
C247 C256 1_555 1_555
C248 C249 1_555 1_555
C248 C261 1_555 1_555
C250 C251 1_555 1_555
C252 C259 1_555 1_555
C275 C276 1_555 1_555

#END
