# generated using pymatgen
data_Co4Ru16C362S9N16O38F7
_symmetry_space_group_name_H-M   'P 1'
_cell_length_a   17.54880000
_cell_length_b   34.33500000
_cell_length_c   38.96300000
_cell_angle_alpha   115.02900000
_cell_angle_beta   98.48600000
_cell_angle_gamma   90.10400000
_symmetry_Int_Tables_number   1
_chemical_formula_structural   Co4Ru16C362S9N16O38F7
_chemical_formula_sum   'Co8 Ru32 C724 S18 N32 O76 F14'
_cell_volume   20985.05832307
_cell_formula_units_Z   2
loop_
 _symmetry_equiv_pos_site_id
 _symmetry_equiv_pos_as_xyz
  1  'x, y, z'
loop_
 _atom_site_type_symbol
 _atom_site_label
 _atom_site_symmetry_multiplicity
 _atom_site_fract_x
 _atom_site_fract_y
 _atom_site_fract_z
 _atom_site_occupancy
  Co  Co1  1  0.339400  0.184200  0.294470  1
  Co  Co2  1  0.660600  0.815800  0.705530  1
  Co  Co3  1  0.665500  0.181430  0.182300  1
  Co  Co4  1  0.334500  0.818570  0.817700  1
  Co  Co5  1  0.981600  0.687600  0.299880  1
  Co  Co6  1  0.018400  0.312400  0.700120  1
  Co  Co7  1  0.575600  0.687300  0.191500  1
  Co  Co8  1  0.424400  0.312700  0.808500  1
  Ru  Ru9  1  0.852100  0.122460  0.010620  1
  Ru  Ru10  1  0.147900  0.877540  0.989380  1
  Ru  Ru11  1  0.050400  0.113190  0.399870  1
  Ru  Ru12  1  0.949600  0.886810  0.600130  1
  Ru  Ru13  1  0.298700  0.171050  0.088860  1
  Ru  Ru14  1  0.701300  0.828950  0.911140  1
  Ru  Ru15  1  0.815300  0.415770  0.282620  1
  Ru  Ru16  1  0.184700  0.584230  0.717380  1
  Ru  Ru17  1  0.755100  0.967150  0.205310  1
  Ru  Ru18  1  0.244900  0.032850  0.794690  1
  Ru  Ru19  1  0.151800  0.946680  0.202730  1
  Ru  Ru20  1  0.848200  0.053320  0.797270  1
  Ru  Ru21  1  0.242600  0.415390  0.382520  1
  Ru  Ru22  1  0.757400  0.584610  0.617480  1
  Ru  Ru23  1  0.686700  0.177340  0.384720  1
  Ru  Ru24  1  0.313300  0.822660  0.615280  1
  Ru  Ru25  1  0.340200  0.619130  0.406350  1
  Ru  Ru26  1  0.659800  0.380870  0.593650  1
  Ru  Ru27  1  0.281400  0.628800  0.019010  1
  Ru  Ru28  1  0.718600  0.371200  0.980990  1
  Ru  Ru29  1  0.501100  0.920520  0.292320  1
  Ru  Ru30  1  0.498900  0.079480  0.707680  1
  Ru  Ru31  1  0.883300  0.675540  0.096600  1
  Ru  Ru32  1  0.116700  0.324460  0.903400  1
  Ru  Ru33  1  0.124100  0.921050  0.387240  1
  Ru  Ru34  1  0.875900  0.078950  0.612760  1
  Ru  Ru35  1  0.121500  0.452160  0.203750  1
  Ru  Ru36  1  0.878500  0.547840  0.796250  1
  Ru  Ru37  1  0.694700  0.672840  0.387290  1
  Ru  Ru38  1  0.305300  0.327160  0.612710  1
  Ru  Ru39  1  0.500000  0.468000  0.206600  1
  Ru  Ru40  1  0.500000  0.532000  0.793400  1
  C  C41  1  0.749000  0.836400  0.259400  1
  C  C42  1  0.251000  0.163600  0.740600  1
  C  C43  1  0.835000  0.783000  0.255500  1
  C  C44  1  0.165000  0.217000  0.744500  1
  C  C45  1  0.797000  0.062600  0.963900  1
  C  C46  1  0.203000  0.937400  0.036100  1
  C  C47  1  0.739700  0.084400  0.983800  1
  C  C48  1  0.260300  0.915600  0.016200  1
  C  C49  1  0.729200  0.126800  0.989800  1
  C  C50  1  0.270800  0.873200  0.010200  1
  C  C51  1  0.776000  0.147400  0.976000  1
  C  C52  1  0.224000  0.852600  0.024000  1
  C  C53  1  0.834000  0.125500  0.956100  1
  C  C54  1  0.166000  0.874500  0.043900  1
  C  C55  1  0.844700  0.083200  0.950100  1
  C  C56  1  0.155300  0.916800  0.049900  1
  C  C57  1  0.389000  0.220600  0.094600  1
  C  C58  1  0.611000  0.779400  0.905400  1
  C  C59  1  0.428600  0.193600  0.108300  1
  C  C60  1  0.571400  0.806400  0.891700  1
  C  C61  1  0.422300  0.149300  0.085900  1
  C  C62  1  0.577700  0.850700  0.914100  1
  C  C63  1  0.376000  0.132000  0.049900  1
  C  C64  1  0.624000  0.868000  0.950100  1
  C  C65  1  0.336600  0.159000  0.036300  1
  C  C66  1  0.663400  0.841000  0.963700  1
  C  C67  1  0.343000  0.203200  0.058600  1
  C  C68  1  0.657000  0.796800  0.941400  1
  C  C69  1  0.851200  0.319600  0.230400  1
  C  C70  1  0.148800  0.680400  0.769600  1
  C  C71  1  0.830000  0.275600  0.212300  1
  C  C72  1  0.170000  0.724400  0.787700  1
  C  C73  1  0.774000  0.258500  0.224900  1
  C  C74  1  0.226000  0.741500  0.775100  1
  C  C75  1  0.739400  0.285300  0.255600  1
  C  C76  1  0.260600  0.714700  0.744400  1
  C  C77  1  0.760900  0.329200  0.273800  1
  C  C78  1  0.239100  0.670800  0.726200  1
  C  C79  1  0.760000  0.211800  0.210200  1
  C  C80  1  0.240000  0.788200  0.789800  1
  C  C81  1  0.243000  0.030200  0.247600  1
  C  C82  1  0.757000  0.969800  0.752400  1
  C  C83  1  0.268300  0.073500  0.263000  1
  C  C84  1  0.731700  0.926500  0.737000  1
  C  C85  1  0.234000  0.099900  0.247100  1
  C  C86  1  0.766000  0.900100  0.752900  1
  C  C87  1  0.174000  0.082800  0.215900  1
  C  C88  1  0.826000  0.917200  0.784100  1
  C  C89  1  0.149000  0.039400  0.200500  1
  C  C90  1  0.851000  0.960600  0.799500  1
  C  C91  1  0.951000  0.109300  0.429200  1
  C  C92  1  0.049000  0.890700  0.570800  1
  C  C93  1  0.952500  0.149200  0.427900  1
  C  C94  1  0.047500  0.850800  0.572100  1
  C  C95  1  0.019000  0.176900  0.443700  1
  C  C96  1  0.981000  0.823100  0.556300  1
  C  C97  1  0.083900  0.164700  0.460700  1
  C  C98  1  0.916100  0.835300  0.539300  1
  C  C99  1  0.082500  0.124900  0.462000  1
  C  C100  1  0.917500  0.875100  0.538000  1
  C  C101  1  0.016000  0.097200  0.446300  1
  C  C102  1  0.984000  0.902800  0.553700  1
  C  C103  1  0.709000  0.449600  0.303200  1
  C  C104  1  0.291000  0.550400  0.696800  1
  C  C105  1  0.772000  0.478900  0.314200  1
  C  C106  1  0.228000  0.521100  0.685800  1
  C  C107  1  0.815600  0.478500  0.287000  1
  C  C108  1  0.184400  0.521500  0.713000  1
  C  C109  1  0.795700  0.448800  0.248900  1
  C  C110  1  0.204300  0.551200  0.751100  1
  C  C111  1  0.732200  0.419400  0.238000  1
  C  C112  1  0.267800  0.580600  0.762000  1
  C  C113  1  0.688600  0.419800  0.265100  1
  C  C114  1  0.311400  0.580200  0.734900  1
  C  C115  1  0.648000  0.244000  0.419700  1
  C  C116  1  0.352000  0.756000  0.580300  1
  C  C117  1  0.602400  0.211100  0.419900  1
  C  C118  1  0.397600  0.788900  0.580100  1
  C  C119  1  0.636000  0.180800  0.431200  1
  C  C120  1  0.364000  0.819200  0.568800  1
  C  C121  1  0.716000  0.183600  0.442100  1
  C  C122  1  0.284000  0.816400  0.557900  1
  C  C123  1  0.761600  0.216500  0.441800  1
  C  C124  1  0.238400  0.783500  0.558200  1
  C  C125  1  0.728000  0.246800  0.430600  1
  C  C126  1  0.272000  0.753200  0.569400  1
  C  C127  1  0.849000  0.115000  0.084900  1
  C  C128  1  0.151000  0.885000  0.915100  1
  C  C129  1  0.844000  0.124600  0.122900  1
  C  C130  1  0.156000  0.875400  0.877100  1
  C  C131  1  0.818000  0.164000  0.146000  1
  C  C132  1  0.182000  0.836000  0.854000  1
  C  C133  1  0.797900  0.193600  0.131200  1
  C  C134  1  0.202100  0.806400  0.868800  1
  C  C135  1  0.803400  0.184000  0.093300  1
  C  C136  1  0.196600  0.816000  0.906700  1
  C  C137  1  0.568000  0.136400  0.143200  1
  C  C138  1  0.432000  0.863600  0.856800  1
  C  C139  1  0.556000  0.165700  0.180400  1
  C  C140  1  0.444000  0.834300  0.819600  1
  C  C141  1  0.574000  0.208100  0.185100  1
  C  C142  1  0.426000  0.791900  0.814900  1
  C  C143  1  0.598000  0.205100  0.150800  1
  C  C144  1  0.402000  0.794900  0.849200  1
  C  C145  1  0.594000  0.160800  0.124900  1
  C  C146  1  0.406000  0.839200  0.875100  1
  C  C147  1  0.791000  0.927600  0.149500  1
  C  C148  1  0.209000  0.072400  0.850500  1
  C  C149  1  0.848000  0.926100  0.177700  1
  C  C150  1  0.152000  0.073900  0.822300  1
  C  C151  1  0.828400  0.913300  0.204800  1
  C  C152  1  0.171600  0.086700  0.795200  1
  C  C153  1  0.751700  0.902000  0.203800  1
  C  C154  1  0.248300  0.098000  0.796200  1
  C  C155  1  0.694600  0.903500  0.175700  1
  C  C156  1  0.305400  0.096500  0.824300  1
  C  C157  1  0.714300  0.916300  0.148500  1
  C  C158  1  0.285700  0.083700  0.851500  1
  C  C159  1  0.083900  0.166800  0.353400  1
  C  C160  1  0.916100  0.833200  0.646600  1
  C  C161  1  0.195300  0.136300  0.373700  1
  C  C162  1  0.804700  0.863700  0.626300  1
  C  C163  1  0.235800  0.144800  0.349300  1
  C  C164  1  0.764200  0.855200  0.650700  1
  C  C165  1  0.200000  0.164300  0.326900  1
  C  C166  1  0.800000  0.835700  0.673100  1
  C  C167  1  0.124000  0.175300  0.328900  1
  C  C168  1  0.876000  0.824700  0.671100  1
  C  C169  1  0.108200  0.881400  0.176300  1
  C  C170  1  0.891800  0.118600  0.823700  1
  C  C171  1  0.081200  0.901200  0.152700  1
  C  C172  1  0.918800  0.098800  0.847300  1
  C  C173  1  0.133000  0.921300  0.140600  1
  C  C174  1  0.867000  0.078700  0.859400  1
  C  C175  1  0.212100  0.921700  0.152100  1
  C  C176  1  0.787900  0.078300  0.847900  1
  C  C177  1  0.239100  0.901900  0.175700  1
  C  C178  1  0.760900  0.098100  0.824300  1
  C  C179  1  0.187100  0.881800  0.187800  1
  C  C180  1  0.812900  0.118200  0.812200  1
  C  C181  1  0.421000  0.227400  0.325500  1
  C  C182  1  0.579000  0.772600  0.674500  1
  C  C183  1  0.419000  0.191400  0.334500  1
  C  C184  1  0.581000  0.808600  0.665500  1
  C  C185  1  0.433500  0.154400  0.302000  1
  C  C186  1  0.566500  0.845600  0.698000  1
  C  C187  1  0.445100  0.167500  0.273100  1
  C  C188  1  0.554900  0.832500  0.726900  1
  C  C189  1  0.437600  0.212600  0.287600  1
  C  C190  1  0.562400  0.787400  0.712400  1
  C  C191  1  0.704600  0.022100  0.269600  1
  C  C192  1  0.295400  0.977900  0.730400  1
  C  C193  1  0.783700  0.032600  0.281000  1
  C  C194  1  0.216300  0.967400  0.719000  1
  C  C195  1  0.811000  0.070400  0.313300  1
  C  C196  1  0.189000  0.929600  0.686700  1
  C  C197  1  0.759000  0.097700  0.334100  1
  C  C198  1  0.241000  0.902300  0.665900  1
  C  C199  1  0.680000  0.087100  0.322600  1
  C  C200  1  0.320000  0.912900  0.677400  1
  C  C201  1  0.653000  0.049300  0.290400  1
  C  C202  1  0.347000  0.950700  0.709600  1
  C  C203  1  0.237200  0.208400  0.169700  1
  C  C204  1  0.762800  0.791600  0.830300  1
  C  C205  1  0.233800  0.209000  0.205300  1
  C  C206  1  0.766200  0.791000  0.794700  1
  C  C207  1  0.268000  0.177500  0.214800  1
  C  C208  1  0.732000  0.822500  0.785200  1
  C  C209  1  0.305600  0.145600  0.188600  1
  C  C210  1  0.694400  0.854400  0.811400  1
  C  C211  1  0.309000  0.145100  0.153000  1
  C  C212  1  0.691000  0.854900  0.847000  1
  C  C213  1  0.771800  0.204500  0.333600  1
  C  C214  1  0.228200  0.795500  0.666400  1
  C  C215  1  0.784200  0.206600  0.300000  1
  C  C216  1  0.215800  0.793400  0.700000  1
  C  C217  1  0.724500  0.194400  0.269000  1
  C  C218  1  0.275500  0.805600  0.731000  1
  C  C219  1  0.652300  0.180000  0.271600  1
  C  C220  1  0.347700  0.820000  0.728400  1
  C  C221  1  0.639900  0.178000  0.305200  1
  C  C222  1  0.360100  0.822000  0.694800  1
  C  C223  1  0.126000  0.984700  0.275200  1
  C  C224  1  0.874000  0.015300  0.724800  1
  C  C225  1  0.149000  0.006400  0.314700  1
  C  C226  1  0.851000  0.993600  0.685300  1
  C  C227  1  0.104400  0.037900  0.336700  1
  C  C228  1  0.895600  0.962100  0.663300  1
  C  C229  1  0.037000  0.047600  0.319300  1
  C  C230  1  0.963000  0.952400  0.680700  1
  C  C231  1  0.014000  0.025900  0.279800  1
  C  C232  1  0.986000  0.974100  0.720200  1
  C  C233  1  0.058600  0.994400  0.257700  1
  C  C234  1  0.941400  0.005600  0.742300  1
  C  C235  1  0.247300  0.335300  0.314500  1
  C  C236  1  0.752700  0.664700  0.685500  1
  C  C237  1  0.245000  0.291400  0.291000  1
  C  C238  1  0.755000  0.708600  0.709000  1
  C  C239  1  0.226000  0.261600  0.304300  1
  C  C240  1  0.774000  0.738400  0.695700  1
  C  C241  1  0.208600  0.275700  0.341200  1
  C  C242  1  0.791400  0.724300  0.658800  1
  C  C243  1  0.210600  0.319500  0.364700  1
  C  C244  1  0.789400  0.680500  0.635300  1
  C  C245  1  0.141500  0.133100  0.061500  1
  C  C246  1  0.858500  0.866900  0.938500  1
  C  C247  1  0.077000  0.103900  0.045700  1
  C  C248  1  0.923000  0.896100  0.954300  1
  C  C249  1  0.004600  0.118100  0.039300  1
  C  C250  1  0.995400  0.881900  0.960700  1
  C  C251  1  0.996600  0.161500  0.048500  1
  C  C252  1  0.003400  0.838500  0.951500  1
  C  C253  1  0.061000  0.190700  0.064300  1
  C  C254  1  0.939000  0.809300  0.935700  1
  C  C255  1  0.133600  0.176500  0.070800  1
  C  C256  1  0.866400  0.823500  0.929200  1
  C  C257  1  0.678300  0.042500  0.195600  1
  C  C258  1  0.321700  0.957500  0.804400  1
  C  C259  1  0.677300  0.083100  0.195700  1
  C  C260  1  0.322700  0.916900  0.804300  1
  C  C261  1  0.743800  0.102200  0.192200  1
  C  C262  1  0.256200  0.897800  0.807800  1
  C  C263  1  0.811400  0.080700  0.188500  1
  C  C264  1  0.188600  0.919300  0.811500  1
  C  C265  1  0.812400  0.040200  0.188400  1
  C  C266  1  0.187600  0.959800  0.811600  1
  C  C267  1  0.973000  0.414500  0.301100  1
  C  C268  1  0.027000  0.585500  0.698900  1
  C  C269  1  0.093000  0.408900  0.325100  1
  C  C270  1  0.907000  0.591100  0.674900  1
  C  C271  1  0.060000  0.412500  0.298400  1
  C  C272  1  0.940000  0.587500  0.701600  1
  C  C273  1  0.741000  0.146700  0.195400  1
  C  C274  1  0.259000  0.853300  0.804600  1
  C  C275  1  0.782000  0.171500  0.178500  1
  C  C276  1  0.218000  0.828500  0.821500  1
  C  C277  1  0.753000  0.186300  0.233100  1
  C  C278  1  0.247000  0.813700  0.766900  1
  C  C279  1  0.253000  0.177400  0.249100  1
  C  C280  1  0.747000  0.822600  0.750900  1
  C  C281  1  0.250000  0.150300  0.264100  1
  C  C282  1  0.750000  0.849700  0.735900  1
  C  C283  1  0.225000  0.174000  0.297100  1
  C  C284  1  0.775000  0.826000  0.702900  1
  C  C285  1  0.237700  0.213300  0.288600  1
  C  C286  1  0.762300  0.786700  0.711400  1
  C  C287  1  0.391000  0.269000  0.119400  1
  C  C288  1  0.609000  0.731000  0.880600  1
  C  C289  1  0.952000  0.411000  0.331700  1
  C  C290  1  0.048000  0.589000  0.668300  1
  C  C291  1  0.882000  0.923000  0.245200  1
  C  C292  1  0.118000  0.077000  0.754800  1
  C  C293  1  0.994000  0.407500  0.361800  1
  C  C294  1  0.006000  0.592500  0.638200  1
  C  C295  1  0.838000  0.445300  0.213500  1
  C  C296  1  0.162000  0.554700  0.786500  1
  C  C297  1  0.273000  0.941400  0.136400  1
  C  C298  1  0.727000  0.058600  0.863600  1
  C  C299  1  0.060000  0.419000  0.357000  1
  C  C300  1  0.940000  0.581000  0.643000  1
  C  C301  1  0.356000  0.412000  0.415600  1
  C  C302  1  0.644000  0.588000  0.584400  1
  C  C303  1  0.340000  0.466000  0.389000  1
  C  C304  1  0.660000  0.534000  0.611000  1
  C  C305  1  0.350000  0.420400  0.386900  1
  C  C306  1  0.650000  0.579600  0.613100  1
  C  C307  1  0.624000  0.736000  0.538000  1
  C  C308  1  0.376000  0.264000  0.462000  1
  C  C309  1  0.272000  0.912900  0.302700  1
  C  C310  1  0.728000  0.087100  0.697300  1
  C  C311  1  0.242000  0.914600  0.334200  1
  C  C312  1  0.758000  0.085400  0.665800  1
  C  C313  1  0.291000  0.915600  0.366100  1
  C  C314  1  0.709000  0.084400  0.633900  1
  C  C315  1  0.370000  0.914900  0.366500  1
  C  C316  1  0.630000  0.085100  0.633500  1
  C  C317  1  0.400600  0.913000  0.334900  1
  C  C318  1  0.599400  0.087000  0.665100  1
  C  C319  1  0.352000  0.912200  0.303000  1
  C  C320  1  0.648000  0.087800  0.697000  1
  C  C321  1  0.111000  0.420000  0.148300  1
  C  C322  1  0.889000  0.580000  0.851700  1
  C  C323  1  0.154100  0.398600  0.167000  1
  C  C324  1  0.845900  0.601400  0.833000  1
  C  C325  1  0.121500  0.386500  0.191800  1
  C  C326  1  0.878500  0.613500  0.808200  1
  C  C327  1  0.046000  0.395900  0.197800  1
  C  C328  1  0.954000  0.604100  0.802200  1
  C  C329  1  0.003600  0.417300  0.179000  1
  C  C330  1  0.996400  0.582700  0.821000  1
  C  C331  1  0.036000  0.429400  0.154300  1
  C  C332  1  0.964000  0.570600  0.845700  1
  C  C333  1  0.515000  0.946800  0.252400  1
  C  C334  1  0.485000  0.053200  0.747600  1
  C  C335  1  0.520000  0.980400  0.288800  1
  C  C336  1  0.480000  0.019600  0.711200  1
  C  C337  1  0.576000  0.981700  0.318600  1
  C  C338  1  0.424000  0.018300  0.681400  1
  C  C339  1  0.627000  0.949500  0.312000  1
  C  C340  1  0.373000  0.050500  0.688000  1
  C  C341  1  0.622000  0.915900  0.275500  1
  C  C342  1  0.378000  0.084100  0.724500  1
  C  C343  1  0.566000  0.914500  0.245700  1
  C  C344  1  0.434000  0.085500  0.754300  1
  C  C345  1  0.931500  0.692200  0.340700  1
  C  C346  1  0.068500  0.307800  0.659300  1
  C  C347  1  0.921000  0.727600  0.331100  1
  C  C348  1  0.079000  0.272400  0.668900  1
  C  C349  1  0.877300  0.712200  0.293700  1
  C  C350  1  0.122700  0.287800  0.706300  1
  C  C351  1  0.860300  0.667200  0.280100  1
  C  C352  1  0.139700  0.332800  0.719900  1
  C  C353  1  0.893800  0.654800  0.309200  1
  C  C354  1  0.106200  0.345200  0.690800  1
  C  C355  1  0.051800  0.835000  0.325900  1
  C  C356  1  0.948200  0.165000  0.674100  1
  C  C357  1  0.034400  0.790700  0.307400  1
  C  C358  1  0.965600  0.209300  0.692600  1
  C  C359  1  0.081900  0.763300  0.317100  1
  C  C360  1  0.918100  0.236700  0.682900  1
  C  C361  1  0.146700  0.780300  0.345400  1
  C  C362  1  0.853300  0.219700  0.654600  1
  C  C363  1  0.164100  0.824600  0.363900  1
  C  C364  1  0.835900  0.175400  0.636100  1
  C  C365  1  0.317000  0.644900  0.973600  1
  C  C366  1  0.683000  0.355100  0.026400  1
  C  C367  1  0.386400  0.636100  0.990600  1
  C  C368  1  0.613600  0.363900  0.009400  1
  C  C369  1  0.392100  0.597400  0.993800  1
  C  C370  1  0.607900  0.402600  0.006200  1
  C  C371  1  0.329000  0.567400  0.980000  1
  C  C372  1  0.671000  0.432600  0.020000  1
  C  C373  1  0.259700  0.576300  0.962900  1
  C  C374  1  0.740300  0.423700  0.037100  1
  C  C375  1  0.254100  0.615000  0.959700  1
  C  C376  1  0.745900  0.385000  0.040300  1
  C  C377  1  0.309200  0.533100  0.287500  1
  C  C378  1  0.690800  0.466900  0.712500  1
  C  C379  1  0.313900  0.551900  0.327200  1
  C  C380  1  0.686100  0.448100  0.672800  1
  C  C381  1  0.257000  0.541500  0.343800  1
  C  C382  1  0.743000  0.458500  0.656200  1
  C  C383  1  0.195200  0.512300  0.320700  1
  C  C384  1  0.804800  0.487700  0.679300  1
  C  C385  1  0.190500  0.493500  0.281000  1
  C  C386  1  0.809500  0.506500  0.719000  1
  C  C387  1  0.248000  0.503900  0.264400  1
  C  C388  1  0.752000  0.496100  0.735600  1
  C  C389  1  0.051000  0.530900  0.252000  1
  C  C390  1  0.949000  0.469100  0.748000  1
  C  C391  1  0.031800  0.573600  0.267200  1
  C  C392  1  0.968200  0.426400  0.732800  1
  C  C393  1  0.058200  0.601700  0.253700  1
  C  C394  1  0.941800  0.398300  0.746300  1
  C  C395  1  0.103800  0.587300  0.225000  1
  C  C396  1  0.896200  0.412700  0.775000  1
  C  C397  1  0.122900  0.544600  0.209800  1
  C  C398  1  0.877100  0.455400  0.790200  1
  C  C399  1  0.363800  0.689100  0.098900  1
  C  C400  1  0.636200  0.310900  0.901100  1
  C  C401  1  0.403300  0.700400  0.135800  1
  C  C402  1  0.596700  0.299600  0.864200  1
  C  C403  1  0.412700  0.669600  0.150100  1
  C  C404  1  0.587300  0.330400  0.849900  1
  C  C405  1  0.382400  0.627400  0.127500  1
  C  C406  1  0.617600  0.372600  0.872500  1
  C  C407  1  0.342900  0.616100  0.090600  1
  C  C408  1  0.657100  0.383900  0.909400  1
  C  C409  1  0.910100  0.652500  0.162300  1
  C  C410  1  0.089900  0.347500  0.837700  1
  C  C411  1  0.937800  0.654800  0.198500  1
  C  C412  1  0.062200  0.345200  0.801500  1
  C  C413  1  0.996400  0.685600  0.222600  1
  C  C414  1  0.003600  0.314400  0.777400  1
  C  C415  1  0.027300  0.714100  0.210600  1
  C  C416  1  0.972700  0.285900  0.789400  1
  C  C417  1  0.999500  0.711900  0.174500  1
  C  C418  1  0.000500  0.288100  0.825500  1
  C  C419  1  0.146800  0.627800  0.046200  1
  C  C420  1  0.853200  0.372200  0.953800  1
  C  C421  1  0.081000  0.612700  0.054100  1
  C  C422  1  0.919000  0.387300  0.945900  1
  C  C423  1  0.026100  0.641000  0.070300  1
  C  C424  1  0.973900  0.359000  0.929700  1
  C  C425  1  0.037000  0.684400  0.078500  1
  C  C426  1  0.963000  0.315600  0.921500  1
  C  C427  1  0.103000  0.699400  0.070600  1
  C  C428  1  0.897000  0.300600  0.929400  1
  C  C429  1  0.157700  0.671100  0.054400  1
  C  C430  1  0.842300  0.328900  0.945600  1
  C  C431  1  0.987000  0.927900  0.392300  1
  C  C432  1  0.013000  0.072100  0.607700  1
  C  C433  1  0.051000  0.003000  0.384000  1
  C  C434  1  0.949000  0.997000  0.616000  1
  C  C435  1  0.794400  0.724400  0.110100  1
  C  C436  1  0.205600  0.275600  0.889900  1
  C  C437  1  0.801000  0.701100  0.061000  1
  C  C438  1  0.199000  0.298900  0.939000  1
  C  C439  1  0.436000  0.951600  0.225200  1
  C  C440  1  0.564000  0.048400  0.774800  1
  C  C441  1  0.077000  0.648200  0.272400  1
  C  C442  1  0.923000  0.351800  0.727600  1
  C  C443  1  0.424000  0.608600  0.446800  1
  C  C444  1  0.576000  0.391400  0.553200  1
  C  C445  1  0.767000  0.699000  0.123200  1
  C  C446  1  0.233000  0.301000  0.876800  1
  C  C447  1  0.147000  0.672600  0.330500  1
  C  C448  1  0.853000  0.327400  0.669500  1
  C  C449  1  0.366000  0.617700  0.463800  1
  C  C450  1  0.634000  0.382300  0.536200  1
  C  C451  1  0.465000  0.634000  0.428000  1
  C  C452  1  0.535000  0.366000  0.572000  1
  C  C453  1  0.811000  0.664900  0.045300  1
  C  C454  1  0.189000  0.335100  0.954700  1
  C  C455  1  0.193000  0.961000  0.445000  1
  C  C456  1  0.807000  0.039000  0.555000  1
  C  C457  1  0.092000  0.716300  0.293400  1
  C  C458  1  0.908000  0.283700  0.706600  1
  C  C459  1  0.772000  0.645500  0.097200  1
  C  C460  1  0.228000  0.354500  0.902800  1
  C  C461  1  0.041000  0.682200  0.254300  1
  C  C462  1  0.959000  0.317800  0.745700  1
  C  C463  1  0.405000  0.549600  0.993500  1
  C  C464  1  0.595000  0.450400  0.006500  1
  C  C465  1  0.197000  0.370000  0.189600  1
  C  C466  1  0.803000  0.630000  0.810400  1
  C  C467  1  0.112000  0.985300  0.422100  1
  C  C468  1  0.888000  0.014700  0.577900  1
  C  C469  1  0.277000  0.668000  0.989000  1
  C  C470  1  0.723000  0.332000  0.011000  1
  C  C471  1  0.270000  0.674100  0.365700  1
  C  C472  1  0.730000  0.325900  0.634300  1
  C  C473  1  0.433000  0.665900  0.431200  1
  C  C474  1  0.567000  0.334100  0.568800  1
  C  C475  1  0.354000  0.659000  0.454000  1
  C  C476  1  0.646000  0.341000  0.546000  1
  C  C477  1  0.205000  0.648300  0.387400  1
  C  C478  1  0.795000  0.351700  0.612600  1
  C  C479  1  0.998000  0.962000  0.344000  1
  C  C480  1  0.002000  0.038000  0.656000  1
  C  C481  1  0.086000  0.679800  0.306500  1
  C  C482  1  0.914000  0.320200  0.693500  1
  C  C483  1  0.679000  0.944000  0.351700  1
  C  C484  1  0.321000  0.056000  0.648300  1
  C  C485  1  0.213000  0.317000  0.155000  1
  C  C486  1  0.787000  0.683000  0.845000  1
  C  C487  1  0.009000  0.952000  0.373000  1
  C  C488  1  0.991000  0.048000  0.627000  1
  C  C489  1  0.667000  0.966000  0.386000  1
  C  C490  1  0.333000  0.034000  0.614000  1
  C  C491  1  0.506000  0.656200  0.209000  1
  C  C492  1  0.494000  0.343800  0.791000  1
  C  C493  1  0.574200  0.695800  0.334600  1
  C  C494  1  0.425800  0.304200  0.665400  1
  C  C495  1  0.538300  0.700000  0.302200  1
  C  C496  1  0.461700  0.300000  0.697800  1
  C  C497  1  0.576700  0.690200  0.271000  1
  C  C498  1  0.423300  0.309800  0.729000  1
  C  C499  1  0.650800  0.676200  0.272300  1
  C  C500  1  0.349200  0.323800  0.727700  1
  C  C501  1  0.686600  0.671900  0.304700  1
  C  C502  1  0.313400  0.328100  0.695300  1
  C  C503  1  0.592700  0.596200  0.341000  1
  C  C504  1  0.407300  0.403800  0.659000  1
  C  C505  1  0.528400  0.568700  0.318800  1
  C  C506  1  0.471600  0.431300  0.681200  1
  C  C507  1  0.535000  0.534500  0.283900  1
  C  C508  1  0.465000  0.465500  0.716100  1
  C  C509  1  0.605900  0.527900  0.271300  1
  C  C510  1  0.394100  0.472100  0.728700  1
  C  C511  1  0.670300  0.555400  0.293500  1
  C  C512  1  0.329700  0.444600  0.706500  1
  C  C513  1  0.663700  0.589600  0.328300  1
  C  C514  1  0.336300  0.410400  0.671700  1
  C  C515  1  0.504000  0.656700  0.186200  1
  C  C516  1  0.496000  0.343300  0.813800  1
  C  C517  1  0.484000  0.720600  0.222100  1
  C  C518  1  0.516000  0.279400  0.777900  1
  C  C519  1  0.549000  0.686100  0.237100  1
  C  C520  1  0.451000  0.313900  0.762900  1
  C  C521  1  0.503000  0.605300  0.196600  1
  C  C522  1  0.497000  0.394700  0.803400  1
  C  C523  1  0.434200  0.581900  0.191700  1
  C  C524  1  0.565800  0.418100  0.808300  1
  C  C525  1  0.444000  0.543700  0.192500  1
  C  C526  1  0.556000  0.456300  0.807500  1
  C  C527  1  0.562000  0.540000  0.192200  1
  C  C528  1  0.438000  0.460000  0.807800  1
  C  C529  1  0.487000  0.768400  0.238900  1
  C  C530  1  0.513000  0.231600  0.761100  1
  C  C531  1  0.636000  0.706000  0.156000  1
  C  C532  1  0.364000  0.294000  0.844000  1
  C  C533  1  0.567000  0.410000  0.178000  1
  C  C534  1  0.433000  0.590000  0.822000  1
  C  C535  1  0.450000  0.427900  0.154900  1
  C  C536  1  0.550000  0.572100  0.845100  1
  C  C537  1  0.534000  0.405000  0.164000  1
  C  C538  1  0.466000  0.595000  0.836000  1
  C  C539  1  0.665000  0.727300  0.194800  1
  C  C540  1  0.335000  0.272700  0.805200  1
  C  C541  1  0.680000  0.685000  0.185000  1
  C  C542  1  0.320000  0.315000  0.815000  1
  C  C543  1  0.790000  0.674000  0.442400  1
  C  C544  1  0.210000  0.326000  0.557600  1
  C  C545  1  0.794000  0.709600  0.405700  1
  C  C546  1  0.206000  0.290400  0.594300  1
  C  C547  1  0.433000  0.791400  0.234500  1
  C  C548  1  0.567000  0.208600  0.765500  1
  C  C549  1  0.596000  0.663000  0.137000  1
  C  C550  1  0.404000  0.337000  0.863000  1
  C  C551  1  0.501300  0.403400  0.205900  1
  C  C552  1  0.498700  0.596600  0.794100  1
  C  C553  1  0.683000  0.741900  0.433200  1
  C  C554  1  0.317000  0.258100  0.566800  1
  C  C555  1  0.562000  0.588300  0.200100  1
  C  C556  1  0.438000  0.411700  0.799900  1
  C  C557  1  0.695000  0.692000  0.445200  1
  C  C558  1  0.305000  0.308000  0.554800  1
  C  C559  1  0.669000  0.783000  0.430000  1
  C  C560  1  0.331000  0.217000  0.570000  1
  C  C561  1  0.381000  0.437200  0.180900  1
  C  C562  1  0.619000  0.562800  0.819100  1
  C  C563  1  0.001000  0.820600  0.399100  1
  C  C564  1  0.999000  0.179400  0.600900  1
  C  C565  1  0.869000  0.562000  0.197900  1
  C  C566  1  0.131000  0.438000  0.802100  1
  C  C567  1  0.800600  0.559900  0.194400  1
  C  C568  1  0.199400  0.440100  0.805600  1
  C  C569  1  0.773000  0.598600  0.191900  1
  C  C570  1  0.227000  0.401400  0.808100  1
  C  C571  1  0.418000  0.362000  0.115000  1
  C  C572  1  0.582000  0.638000  0.885000  1
  C  C573  1  0.906000  0.495000  0.208000  1
  C  C574  1  0.094000  0.505000  0.792000  1
  C  C575  1  0.186000  0.499000  0.438000  1
  C  C576  1  0.814000  0.501000  0.562000  1
  C  C577  1  0.688000  0.520000  0.138000  1
  C  C578  1  0.312000  0.480000  0.862000  1
  C  C579  1  0.700000  0.527200  0.126600  1
  C  C580  1  0.300000  0.472800  0.873400  1
  C  C581  1  0.538000  0.853000  0.329000  1
  C  C582  1  0.462000  0.147000  0.671000  1
  C  C583  1  0.398000  0.023000  0.384000  1
  C  C584  1  0.602000  0.977000  0.616000  1
  C  C585  1  0.416000  0.768000  0.377500  1
  C  C586  1  0.584000  0.232000  0.622500  1
  C  C587  1  0.354000  0.803000  0.400000  1
  C  C588  1  0.646000  0.197000  0.600000  1
  C  C589  1  0.418000  0.730700  0.381000  1
  C  C590  1  0.582000  0.269300  0.619000  1
  C  C591  1  0.396000  0.739000  0.401000  1
  C  C592  1  0.604000  0.261000  0.599000  1
  C  C593  1  0.985000  0.989000  0.116500  1
  C  C594  1  0.015000  0.011000  0.883500  1
  C  C595  1  0.965400  0.004800  0.120600  1
  C  C596  1  0.034600  0.995200  0.879400  1
  C  C597  1  0.952000  0.973000  0.130100  1
  C  C598  1  0.048000  0.027000  0.869900  1
  C  C599  1  0.457900  0.824500  0.140000  1
  C  C600  1  0.542100  0.175500  0.860000  1
  C  C601  1  0.436600  0.838700  0.115000  1
  C  C602  1  0.563400  0.161300  0.885000  1
  C  C603  1  0.459000  0.782700  0.118000  1
  C  C604  1  0.541000  0.217300  0.882000  1
  C  C605  1  0.412000  0.850000  0.166000  1
  C  C606  1  0.588000  0.150000  0.834000  1
  C  C607  1  0.703000  0.284000  0.394000  1
  C  C608  1  0.297000  0.716000  0.606000  1
  C  C609  1  0.920000  0.967700  0.057800  1
  C  C610  1  0.080000  0.032300  0.942200  1
  C  C611  1  0.841000  0.010000  0.072600  1
  C  C612  1  0.159000  0.990000  0.927400  1
  C  C613  1  0.881000  0.554100  0.384600  1
  C  C614  1  0.119000  0.445900  0.615400  1
  C  C615  1  0.263000  0.436400  0.483700  1
  C  C616  1  0.737000  0.563600  0.516300  1
  C  C617  1  0.502000  0.383200  0.076500  1
  C  C618  1  0.498000  0.616800  0.923500  1
  C  C619  1  0.099000  0.986600  0.502300  1
  C  C620  1  0.901000  0.013400  0.497700  1
  C  C621  1  0.882000  0.060000  0.402000  1
  C  C622  1  0.118000  0.940000  0.598000  1
  C  C623  1  0.873200  0.317700  0.138000  1
  C  C624  1  0.126800  0.682300  0.862000  1
  C  C625  1  0.765000  0.340300  0.127100  1
  C  C626  1  0.235000  0.659700  0.872900  1
  C  C627  1  0.696000  0.330000  0.132000  1
  C  C628  1  0.304000  0.670000  0.868000  1
  C  C629  1  0.572000  0.303100  0.304300  1
  C  C630  1  0.428000  0.696900  0.695700  1
  C  C631  1  0.559000  0.381400  0.359700  1
  C  C632  1  0.441000  0.618600  0.640300  1
  C  C633  1  0.944000  0.270700  0.411000  1
  C  C634  1  0.056000  0.729300  0.589000  1
  C  C635  1  0.959000  0.249000  0.375100  1
  C  C636  1  0.041000  0.751000  0.624900  1
  C  C637  1  0.438000  0.484000  0.986000  1
  C  C638  1  0.562000  0.516000  0.014000  1
  C  C639  1  0.998000  0.738800  0.018100  1
  C  C640  1  0.002000  0.261200  0.981900  1
  C  C641  1  0.589000  0.601000  0.042000  1
  C  C642  1  0.411000  0.399000  0.958000  1
  C  C643  1  0.088000  0.296000  0.505100  1
  C  C644  1  0.912000  0.704000  0.494900  1
  C  C645  1  0.071000  0.314700  0.442900  1
  C  C646  1  0.929000  0.685300  0.557100  1
  C  C647  1  0.993000  0.471500  0.141000  1
  C  C648  1  0.007000  0.528500  0.859000  1
  C  C649  1  0.435000  0.991000  0.146600  1
  C  C650  1  0.565000  0.009000  0.853400  1
  C  C651  1  0.484000  0.099000  0.191400  1
  C  C652  1  0.516000  0.901000  0.808600  1
  C  C653  1  0.921000  0.597200  0.102600  1
  C  C654  1  0.079000  0.402800  0.897400  1
  C  C655  1  0.993000  0.551800  0.107200  1
  C  C656  1  0.007000  0.448200  0.892800  1
  C  C657  1  0.240000  0.515400  0.061900  1
  C  C658  1  0.760000  0.484600  0.938100  1
  C  C659  1  0.579000  0.351000  0.189000  1
  C  C660  1  0.421000  0.649000  0.811000  1
  C  C661  1  0.407000  0.135700  0.388600  1
  C  C662  1  0.593000  0.864300  0.611400  1
  C  C663  1  0.520000  0.077600  0.376800  1
  C  C664  1  0.480000  0.922400  0.623200  1
  C  C665  1  0.764000  0.791000  0.316000  1
  C  C666  1  0.236000  0.209000  0.684000  1
  C  C667  1  0.376000  0.025800  0.504300  1
  C  C668  1  0.624000  0.974200  0.495700  1
  C  C669  1  0.268000  0.076400  0.418600  1
  C  C670  1  0.732000  0.923600  0.581400  1
  C  C671  1  0.678000  0.832000  0.185800  1
  C  C672  1  0.322000  0.168000  0.814200  1
  C  C673  1  0.963000  0.803000  0.129000  1
  C  C674  1  0.037000  0.197000  0.871000  1
  C  C675  1  0.205000  0.963800  0.493900  1
  C  C676  1  0.795000  0.036200  0.506100  1
  C  C677  1  0.353000  0.078500  0.010600  1
  C  C678  1  0.647000  0.921500  0.989400  1
  C  C679  1  0.228000  0.576800  0.495700  1
  C  C680  1  0.772000  0.423200  0.504300  1
  C  C681  1  0.462000  0.121000  0.149000  1
  C  C682  1  0.538000  0.879000  0.851000  1
  C  C683  1  0.987000  0.111300  0.274000  1
  C  C684  1  0.013000  0.888700  0.726000  1
  C  C685  1  0.075000  0.163000  0.997600  1
  C  C686  1  0.925000  0.837000  0.002400  1
  C  C687  1  0.211000  0.424000  0.999500  1
  C  C688  1  0.789000  0.576000  0.000500  1
  C  C689  1  0.394000  0.413000  0.510500  1
  C  C690  1  0.606000  0.587000  0.489500  1
  C  C691  1  0.699000  0.092000  0.423000  1
  C  C692  1  0.301000  0.908000  0.577000  1
  C  C693  1  0.669000  0.113000  0.434000  1
  C  C694  1  0.331000  0.887000  0.566000  1
  C  C695  1  0.774000  0.131000  0.466000  1
  C  C696  1  0.226000  0.869000  0.534000  1
  C  C697  1  0.470000  0.561000  0.482900  1
  C  C698  1  0.530000  0.439000  0.517100  1
  C  C699  1  0.453000  0.531000  0.499000  1
  C  C700  1  0.547000  0.469000  0.501000  1
  C  C701  1  0.530000  0.526000  0.488000  1
  C  C702  1  0.470000  0.474000  0.512000  1
  C  C703  1  0.318000  0.270700  0.065900  1
  C  C704  1  0.682000  0.729300  0.934100  1
  C  C705  1  0.885000  0.113400  0.500100  1
  C  C706  1  0.115000  0.886600  0.499900  1
  C  C707  1  0.940000  0.921200  0.009500  1
  C  C708  1  0.060000  0.078800  0.990500  1
  C  C709  1  0.241000  0.621900  0.579800  1
  C  C710  1  0.759000  0.378100  0.420200  1
  C  C711  1  0.195000  0.487400  0.010300  1
  C  C712  1  0.805000  0.512600  0.989700  1
  C  C713  1  0.636000  0.604000  0.999000  1
  C  C714  1  0.364000  0.396000  0.001000  1
  C  C715  1  0.698000  0.967000  0.045600  1
  C  C716  1  0.302000  0.033000  0.954400  1
  C  C717  1  0.854000  0.866000  0.416000  1
  C  C718  1  0.146000  0.134000  0.584000  1
  C  C719  1  0.993000  0.575600  0.431400  1
  C  C720  1  0.007000  0.424400  0.568600  1
  C  C721  1  0.997000  0.505600  0.366100  1
  C  C722  1  0.003000  0.494400  0.633900  1
  C  C723  1  0.820000  0.601000  0.318000  1
  C  C724  1  0.180000  0.399000  0.682000  1
  C  C725  1  0.035000  0.860000  0.198000  1
  C  C726  1  0.965000  0.140000  0.802000  1
  C  C727  1  0.499000  0.560000  0.414700  1
  C  C728  1  0.501000  0.440000  0.585300  1
  C  C729  1  0.085000  0.885000  0.259000  1
  C  C730  1  0.915000  0.115000  0.741000  1
  C  C731  1  0.064000  0.780200  0.470700  1
  C  C732  1  0.936000  0.219800  0.529300  1
  C  C733  1  0.407000  0.936400  0.966800  1
  C  C734  1  0.593000  0.063600  0.033200  1
  C  C735  1  0.364000  0.451900  0.339400  1
  C  C736  1  0.636000  0.548100  0.660600  1
  C  C737  1  0.426000  0.074700  0.432600  1
  C  C738  1  0.574000  0.925300  0.567400  1
  C  C739  1  0.023000  0.235000  0.183000  1
  C  C740  1  0.977000  0.765000  0.817000  1
  C  C741  1  0.091000  0.266100  0.235900  1
  C  C742  1  0.909000  0.733900  0.764100  1
  C  C743  1  0.282000  0.165000  0.407000  1
  C  C744  1  0.718000  0.835000  0.593000  1
  C  C745  1  0.983000  0.056000  0.227000  1
  C  C746  1  0.017000  0.944000  0.773000  1
  C  C747  1  0.282000  0.512000  0.602000  1
  C  C748  1  0.718000  0.488000  0.398000  1
  C  C749  1  0.006000  0.331000  0.393200  1
  C  C750  1  0.994000  0.669000  0.606800  1
  C  C751  1  0.516000  0.438800  0.358400  1
  C  C752  1  0.484000  0.561200  0.641600  1
  C  C753  1  0.664000  0.314600  0.071400  1
  C  C754  1  0.336000  0.685400  0.928600  1
  C  C755  1  0.562000  0.195000  0.027000  1
  C  C756  1  0.438000  0.805000  0.973000  1
  C  C757  1  0.969000  0.593000  0.986000  1
  C  C758  1  0.031000  0.407000  0.014000  1
  C  C759  1  0.028000  0.160000  0.936500  1
  C  C760  1  0.972000  0.840000  0.063500  1
  C  C761  1  0.548000  0.509000  0.944000  1
  C  C762  1  0.452000  0.491000  0.056000  1
  C  C763  1  0.026000  0.091000  0.170000  1
  C  C764  1  0.974000  0.909000  0.830000  1
  S  S765  1  0.808800  0.832900  0.285100  1
  S  S766  1  0.191200  0.167100  0.714900  1
  S  S767  1  0.248300  0.513100  0.127300  1
  S  S768  1  0.751700  0.486900  0.872700  1
  S  S769  1  0.596500  0.685900  0.548100  1
  S  S770  1  0.403500  0.314100  0.451900  1
  S  S771  1  0.998500  0.818800  0.446200  1
  S  S772  1  0.001500  0.181200  0.553800  1
  S  S773  1  0.485900  0.328800  0.274200  1
  S  S774  1  0.514100  0.671200  0.725800  1
  S  S775  1  0.953500  0.573000  0.363200  1
  S  S776  1  0.046500  0.427000  0.636800  1
  S  S777  1  0.450600  0.053900  0.188200  1
  S  S778  1  0.549400  0.946100  0.811800  1
  S  S779  1  0.429100  0.084800  0.366100  1
  S  S780  1  0.570900  0.915200  0.633900  1
  S  S781  1  0.435000  0.985400  0.974400  1
  S  S782  1  0.565000  0.014600  0.025600  1
  N  N783  1  0.816800  0.346400  0.261200  1
  N  N784  1  0.183200  0.653600  0.738800  1
  N  N785  1  0.184000  0.013100  0.216400  1
  N  N786  1  0.816000  0.986900  0.783600  1
  N  N787  1  0.829100  0.144600  0.070100  1
  N  N788  1  0.170900  0.855400  0.929900  1
  N  N789  1  0.119400  0.147300  0.375800  1
  N  N790  1  0.880600  0.852700  0.624200  1
  N  N791  1  0.274800  0.176500  0.143600  1
  N  N792  1  0.725200  0.823500  0.856400  1
  N  N793  1  0.699600  0.190200  0.336200  1
  N  N794  1  0.300400  0.809800  0.663800  1
  N  N795  1  0.230000  0.349300  0.351400  1
  N  N796  1  0.770000  0.650700  0.648600  1
  N  N797  1  0.745900  0.021100  0.191900  1
  N  N798  1  0.254100  0.978900  0.808100  1
  N  N799  1  0.117000  0.851900  0.354100  1
  N  N800  1  0.883000  0.148100  0.645900  1
  N  N801  1  0.096400  0.516500  0.223300  1
  N  N802  1  0.903600  0.483500  0.776700  1
  N  N803  1  0.333500  0.647000  0.076300  1
  N  N804  1  0.666500  0.353000  0.923700  1
  N  N805  1  0.940900  0.681000  0.150300  1
  N  N806  1  0.059100  0.319000  0.849700  1
  N  N807  1  0.256700  0.648000  0.380800  1
  N  N808  1  0.743300  0.352000  0.619200  1
  N  N809  1  0.482000  0.846500  0.269300  1
  N  N810  1  0.518000  0.153500  0.730700  1
  N  N811  1  0.648300  0.681700  0.335800  1
  N  N812  1  0.351700  0.318300  0.664200  1
  N  N813  1  0.495000  0.526000  0.191900  1
  N  N814  1  0.505000  0.474000  0.808100  1
  O  O815  1  0.118800  0.411100  0.389200  1
  O  O816  1  0.881200  0.588900  0.610800  1
  O  O817  1  0.187600  0.416300  0.332100  1
  O  O818  1  0.812400  0.583700  0.667900  1
  O  O819  1  0.815300  0.012100  0.252800  1
  O  O820  1  0.184700  0.987900  0.747200  1
  O  O821  1  0.928800  0.415300  0.272900  1
  O  O822  1  0.071200  0.584700  0.727100  1
  O  O823  1  0.049200  0.974200  0.224500  1
  O  O824  1  0.950800  0.025800  0.775500  1
  O  O825  1  0.114800  0.065400  0.378900  1
  O  O826  1  0.885200  0.934600  0.621100  1
  O  O827  1  0.001800  0.077300  0.345400  1
  O  O828  1  0.998200  0.922700  0.654600  1
  O  O829  1  0.677000  0.996300  0.239400  1
  O  O830  1  0.323000  0.003700  0.760600  1
  O  O831  1  0.190100  0.205500  0.089800  1
  O  O832  1  0.809900  0.794500  0.910200  1
  O  O833  1  0.211800  0.118600  0.071700  1
  O  O834  1  0.788200  0.881400  0.928300  1
  O  O835  1  0.934400  0.174400  0.036000  1
  O  O836  1  0.065600  0.825600  0.964000  1
  O  O837  1  0.943000  0.096700  0.030200  1
  O  O838  1  0.057000  0.903300  0.969800  1
  O  O839  1  0.874600  0.412800  0.326500  1
  O  O840  1  0.125400  0.587200  0.673500  1
  O  O841  1  0.178000  0.967200  0.255900  1
  O  O842  1  0.822000  0.032800  0.744100  1
  O  O843  1  0.625300  0.116300  0.338900  1
  O  O844  1  0.374700  0.883700  0.661100  1
  O  O845  1  0.784000  0.152500  0.369900  1
  O  O846  1  0.216000  0.847500  0.630100  1
  O  O847  1  0.267100  0.486500  0.146000  1
  O  O848  1  0.732900  0.513500  0.854000  1
  O  O849  1  0.977900  0.706800  0.093500  1
  O  O850  1  0.022100  0.293200  0.906500  1
  O  O851  1  0.957600  0.627100  0.074400  1
  O  O852  1  0.042400  0.372900  0.925600  1
  O  O853  1  0.193500  0.598100  0.031200  1
  O  O854  1  0.806500  0.401900  0.968800  1
  O  O855  1  0.166000  0.918800  0.338400  1
  O  O856  1  0.834000  0.081200  0.661600  1
  O  O857  1  0.384400  0.917600  0.282700  1
  O  O858  1  0.615600  0.082400  0.717300  1
  O  O859  1  0.483000  0.911700  0.335900  1
  O  O860  1  0.517000  0.088300  0.664100  1
  O  O861  1  0.230000  0.471200  0.225000  1
  O  O862  1  0.770000  0.528800  0.775000  1
  O  O863  1  0.244800  0.916000  0.392300  1
  O  O864  1  0.755200  0.084000  0.607700  1
  O  O865  1  0.366200  0.589500  0.350800  1
  O  O866  1  0.633800  0.410500  0.649200  1
  O  O867  1  0.211000  0.686500  0.046600  1
  O  O868  1  0.789000  0.313500  0.953400  1
  O  O869  1  0.249100  0.568800  0.382600  1
  O  O870  1  0.750900  0.431200  0.617400  1
  O  O871  1  0.124000  0.465500  0.266000  1
  O  O872  1  0.876000  0.534500  0.734000  1
  O  O873  1  0.474000  0.511400  0.257800  1
  O  O874  1  0.526000  0.488600  0.742200  1
  O  O875  1  0.606000  0.491200  0.236700  1
  O  O876  1  0.394000  0.508800  0.763300  1
  O  O877  1  0.597200  0.632100  0.367900  1
  O  O878  1  0.402800  0.367900  0.632100  1
  O  O879  1  0.722000  0.615100  0.341900  1
  O  O880  1  0.278000  0.384900  0.658100  1
  O  O881  1  0.441000  0.288200  0.248000  1
  O  O882  1  0.559000  0.711800  0.752000  1
  O  O883  1  0.417000  0.409000  0.242000  1
  O  O884  1  0.583000  0.591000  0.758000  1
  O  O885  1  0.584000  0.341000  0.326000  1
  O  O886  1  0.416000  0.659000  0.674000  1
  O  O887  1  0.361000  0.064300  0.193100  1
  O  O888  1  0.639000  0.935700  0.806900  1
  O  O889  1  0.580000  0.753300  0.604800  1
  O  O890  1  0.420000  0.246700  0.395200  1
  F  F891  1  0.847000  0.789400  0.221300  1
  F  F892  1  0.153000  0.210600  0.778700  1
  F  F893  1  0.413000  0.991100  0.119700  1
  F  F894  1  0.587000  0.008900  0.880300  1
  F  F895  1  0.533000  0.030900  0.124700  1
  F  F896  1  0.467000  0.969100  0.875300  1
  F  F897  1  0.389000  0.063000  0.110200  1
  F  F898  1  0.611000  0.937000  0.889800  1
  F  F899  1  0.485000  0.315400  0.337500  1
  F  F900  1  0.515000  0.684600  0.662500  1
  F  F901  1  0.189000  0.560000  0.553000  1
  F  F902  1  0.811000  0.440000  0.447000  1
  F  F903  1  0.067000  0.505000  0.498900  1
  F  F904  1  0.933000  0.495000  0.501100  1
