# generated using pymatgen
data_Cu2H55C96(N3O5)2
_symmetry_space_group_name_H-M   'P 1'
_cell_length_a   32.32200000
_cell_length_b   32.32200000
_cell_length_c   78.50500000
_cell_angle_alpha   90.00000000
_cell_angle_beta   90.00000000
_cell_angle_gamma   120.00000000
_symmetry_Int_Tables_number   1
_chemical_formula_structural   Cu2H55C96(N3O5)2
_chemical_formula_sum   'Cu72 H1980 C3456 N216 O360'
_cell_volume   71027.15208528
_cell_formula_units_Z   36
loop_
 _symmetry_equiv_pos_site_id
 _symmetry_equiv_pos_as_xyz
  1  'x, y, z'
loop_
 _atom_site_type_symbol
 _atom_site_label
 _atom_site_symmetry_multiplicity
 _atom_site_fract_x
 _atom_site_fract_y
 _atom_site_fract_z
 _atom_site_occupancy
  Cu  Cu1  1  0.828250  0.796970  0.916720  1.0
  Cu  Cu2  1  0.968720  0.171750  0.916720  1.0
  Cu  Cu3  1  0.203030  0.031280  0.916720  1.0
  Cu  Cu4  1  0.161583  0.463637  0.583387  1.0
  Cu  Cu5  1  0.302053  0.838417  0.583387  1.0
  Cu  Cu6  1  0.536363  0.697947  0.583387  1.0
  Cu  Cu7  1  0.494917  0.130303  0.250053  1.0
  Cu  Cu8  1  0.635387  0.505083  0.250053  1.0
  Cu  Cu9  1  0.869697  0.364613  0.250053  1.0
  Cu  Cu10  1  0.031280  0.203030  0.583280  1.0
  Cu  Cu11  1  0.171750  0.968720  0.583280  1.0
  Cu  Cu12  1  0.796970  0.828250  0.583280  1.0
  Cu  Cu13  1  0.364613  0.869697  0.249947  1.0
  Cu  Cu14  1  0.505083  0.635387  0.249947  1.0
  Cu  Cu15  1  0.130303  0.494917  0.249947  1.0
  Cu  Cu16  1  0.697947  0.536363  0.916613  1.0
  Cu  Cu17  1  0.838417  0.302053  0.916613  1.0
  Cu  Cu18  1  0.463637  0.161583  0.916613  1.0
  Cu  Cu19  1  0.171750  0.203030  0.083280  1.0
  Cu  Cu20  1  0.031280  0.828250  0.083280  1.0
  Cu  Cu21  1  0.796970  0.968720  0.083280  1.0
  Cu  Cu22  1  0.838417  0.536363  0.416613  1.0
  Cu  Cu23  1  0.697947  0.161583  0.416613  1.0
  Cu  Cu24  1  0.463637  0.302053  0.416613  1.0
  Cu  Cu25  1  0.505083  0.869697  0.749947  1.0
  Cu  Cu26  1  0.364613  0.494917  0.749947  1.0
  Cu  Cu27  1  0.130303  0.635387  0.749947  1.0
  Cu  Cu28  1  0.968720  0.796970  0.416720  1.0
  Cu  Cu29  1  0.828250  0.031280  0.416720  1.0
  Cu  Cu30  1  0.203030  0.171750  0.416720  1.0
  Cu  Cu31  1  0.635387  0.130303  0.750053  1.0
  Cu  Cu32  1  0.494917  0.364613  0.750053  1.0
  Cu  Cu33  1  0.869697  0.505083  0.750053  1.0
  Cu  Cu34  1  0.302053  0.463637  0.083387  1.0
  Cu  Cu35  1  0.161583  0.697947  0.083387  1.0
  Cu  Cu36  1  0.536363  0.838417  0.083387  1.0
  Cu  Cu37  1  0.871040  0.846850  0.944360  1.0
  Cu  Cu38  1  0.975810  0.128960  0.944360  1.0
  Cu  Cu39  1  0.153150  0.024190  0.944360  1.0
  Cu  Cu40  1  0.204373  0.513517  0.611027  1.0
  Cu  Cu41  1  0.309143  0.795627  0.611027  1.0
  Cu  Cu42  1  0.486483  0.690857  0.611027  1.0
  Cu  Cu43  1  0.537707  0.180183  0.277693  1.0
  Cu  Cu44  1  0.642477  0.462293  0.277693  1.0
  Cu  Cu45  1  0.819817  0.357523  0.277693  1.0
  Cu  Cu46  1  0.024190  0.153150  0.555640  1.0
  Cu  Cu47  1  0.128960  0.975810  0.555640  1.0
  Cu  Cu48  1  0.846850  0.871040  0.555640  1.0
  Cu  Cu49  1  0.357523  0.819817  0.222307  1.0
  Cu  Cu50  1  0.462293  0.642477  0.222307  1.0
  Cu  Cu51  1  0.180183  0.537707  0.222307  1.0
  Cu  Cu52  1  0.690857  0.486483  0.888973  1.0
  Cu  Cu53  1  0.795627  0.309143  0.888973  1.0
  Cu  Cu54  1  0.513517  0.204373  0.888973  1.0
  Cu  Cu55  1  0.128960  0.153150  0.055640  1.0
  Cu  Cu56  1  0.024190  0.871040  0.055640  1.0
  Cu  Cu57  1  0.846850  0.975810  0.055640  1.0
  Cu  Cu58  1  0.795627  0.486483  0.388973  1.0
  Cu  Cu59  1  0.690857  0.204373  0.388973  1.0
  Cu  Cu60  1  0.513517  0.309143  0.388973  1.0
  Cu  Cu61  1  0.462293  0.819817  0.722307  1.0
  Cu  Cu62  1  0.357523  0.537707  0.722307  1.0
  Cu  Cu63  1  0.180183  0.642477  0.722307  1.0
  Cu  Cu64  1  0.975810  0.846850  0.444360  1.0
  Cu  Cu65  1  0.871040  0.024190  0.444360  1.0
  Cu  Cu66  1  0.153150  0.128960  0.444360  1.0
  Cu  Cu67  1  0.642477  0.180183  0.777693  1.0
  Cu  Cu68  1  0.537707  0.357523  0.777693  1.0
  Cu  Cu69  1  0.819817  0.462293  0.777693  1.0
  Cu  Cu70  1  0.309143  0.513517  0.111027  1.0
  Cu  Cu71  1  0.204373  0.690857  0.111027  1.0
  Cu  Cu72  1  0.486483  0.795627  0.111027  1.0
  H  H73  1  0.916169  0.636040  0.890600  1
  H  H74  1  0.719871  0.083831  0.890600  1
  H  H75  1  0.363960  0.280129  0.890600  1
  H  H76  1  0.249502  0.302707  0.557267  1
  H  H77  1  0.053204  0.750498  0.557267  1
  H  H78  1  0.697293  0.946796  0.557267  1
  H  H79  1  0.582836  0.969373  0.223933  1
  H  H80  1  0.386538  0.417164  0.223933  1
  H  H81  1  0.030627  0.613462  0.223933  1
  H  H82  1  0.280129  0.363960  0.609400  1
  H  H83  1  0.083831  0.719871  0.609400  1
  H  H84  1  0.636040  0.916169  0.609400  1
  H  H85  1  0.613462  0.030627  0.276067  1
  H  H86  1  0.417164  0.386538  0.276067  1
  H  H87  1  0.969373  0.582836  0.276067  1
  H  H88  1  0.946796  0.697293  0.942733  1
  H  H89  1  0.750498  0.053204  0.942733  1
  H  H90  1  0.302707  0.249502  0.942733  1
  H  H91  1  0.083831  0.363960  0.109400  1
  H  H92  1  0.280129  0.916169  0.109400  1
  H  H93  1  0.636040  0.719871  0.109400  1
  H  H94  1  0.750498  0.697293  0.442733  1
  H  H95  1  0.946796  0.249502  0.442733  1
  H  H96  1  0.302707  0.053204  0.442733  1
  H  H97  1  0.417164  0.030627  0.776067  1
  H  H98  1  0.613462  0.582836  0.776067  1
  H  H99  1  0.969373  0.386538  0.776067  1
  H  H100  1  0.719871  0.636040  0.390600  1
  H  H101  1  0.916169  0.280129  0.390600  1
  H  H102  1  0.363960  0.083831  0.390600  1
  H  H103  1  0.386538  0.969373  0.723933  1
  H  H104  1  0.582836  0.613462  0.723933  1
  H  H105  1  0.030627  0.417164  0.723933  1
  H  H106  1  0.053204  0.302707  0.057267  1
  H  H107  1  0.249502  0.946796  0.057267  1
  H  H108  1  0.697293  0.750498  0.057267  1
  H  H109  1  0.859883  0.565854  0.903673  1
  H  H110  1  0.705971  0.140117  0.903673  1
  H  H111  1  0.434146  0.294029  0.903673  1
  H  H112  1  0.193216  0.232521  0.570340  1
  H  H113  1  0.039304  0.806784  0.570340  1
  H  H114  1  0.767479  0.960696  0.570340  1
  H  H115  1  0.526550  0.899187  0.237006  1
  H  H116  1  0.372638  0.473450  0.237006  1
  H  H117  1  0.100813  0.627362  0.237006  1
  H  H118  1  0.294029  0.434146  0.596327  1
  H  H119  1  0.140117  0.705971  0.596327  1
  H  H120  1  0.565854  0.859883  0.596327  1
  H  H121  1  0.627362  0.100813  0.262994  1
  H  H122  1  0.473450  0.372638  0.262994  1
  H  H123  1  0.899187  0.526550  0.262994  1
  H  H124  1  0.960696  0.767479  0.929660  1
  H  H125  1  0.806784  0.039304  0.929660  1
  H  H126  1  0.232521  0.193216  0.929660  1
  H  H127  1  0.140117  0.434146  0.096327  1
  H  H128  1  0.294029  0.859883  0.096327  1
  H  H129  1  0.565854  0.705971  0.096327  1
  H  H130  1  0.806784  0.767479  0.429660  1
  H  H131  1  0.960696  0.193216  0.429660  1
  H  H132  1  0.232521  0.039304  0.429660  1
  H  H133  1  0.473450  0.100813  0.762994  1
  H  H134  1  0.627362  0.526550  0.762994  1
  H  H135  1  0.899187  0.372638  0.762994  1
  H  H136  1  0.705971  0.565854  0.403673  1
  H  H137  1  0.859883  0.294029  0.403673  1
  H  H138  1  0.434146  0.140117  0.403673  1
  H  H139  1  0.372638  0.899187  0.737006  1
  H  H140  1  0.526550  0.627362  0.737006  1
  H  H141  1  0.100813  0.473450  0.737006  1
  H  H142  1  0.039304  0.232521  0.070340  1
  H  H143  1  0.193216  0.960696  0.070340  1
  H  H144  1  0.767479  0.806784  0.070340  1
  H  H145  1  0.867313  0.498168  0.902218  1
  H  H146  1  0.630855  0.132687  0.902218  1
  H  H147  1  0.501832  0.369145  0.902218  1
  H  H148  1  0.200646  0.164835  0.568885  1
  H  H149  1  0.964188  0.799354  0.568885  1
  H  H150  1  0.835165  0.035812  0.568885  1
  H  H151  1  0.533980  0.831501  0.235551  1
  H  H152  1  0.297522  0.466020  0.235551  1
  H  H153  1  0.168499  0.702478  0.235551  1
  H  H154  1  0.369145  0.501832  0.597782  1
  H  H155  1  0.132687  0.630855  0.597782  1
  H  H156  1  0.498168  0.867313  0.597782  1
  H  H157  1  0.702478  0.168499  0.264449  1
  H  H158  1  0.466020  0.297522  0.264449  1
  H  H159  1  0.831501  0.533980  0.264449  1
  H  H160  1  0.035812  0.835165  0.931115  1
  H  H161  1  0.799354  0.964188  0.931115  1
  H  H162  1  0.164835  0.200646  0.931115  1
  H  H163  1  0.132687  0.501832  0.097782  1
  H  H164  1  0.369145  0.867313  0.097782  1
  H  H165  1  0.498168  0.630855  0.097782  1
  H  H166  1  0.799354  0.835165  0.431115  1
  H  H167  1  0.035812  0.200646  0.431115  1
  H  H168  1  0.164835  0.964188  0.431115  1
  H  H169  1  0.466020  0.168499  0.764449  1
  H  H170  1  0.702478  0.533980  0.764449  1
  H  H171  1  0.831501  0.297522  0.764449  1
  H  H172  1  0.630855  0.498168  0.402218  1
  H  H173  1  0.867313  0.369145  0.402218  1
  H  H174  1  0.501832  0.132687  0.402218  1
  H  H175  1  0.297522  0.831501  0.735551  1
  H  H176  1  0.533980  0.702478  0.735551  1
  H  H177  1  0.168499  0.466020  0.735551  1
  H  H178  1  0.964188  0.164835  0.068885  1
  H  H179  1  0.200646  0.035812  0.068885  1
  H  H180  1  0.835165  0.799354  0.068885  1
  H  H181  1  0.931029  0.500668  0.887688  1
  H  H182  1  0.569639  0.068971  0.887688  1
  H  H183  1  0.499332  0.430361  0.887688  1
  H  H184  1  0.264362  0.167335  0.554355  1
  H  H185  1  0.902972  0.735638  0.554355  1
  H  H186  1  0.832665  0.097028  0.554355  1
  H  H187  1  0.597696  0.834001  0.221021  1
  H  H188  1  0.236306  0.402304  0.221021  1
  H  H189  1  0.165999  0.763694  0.221021  1
  H  H190  1  0.430361  0.499332  0.612312  1
  H  H191  1  0.068971  0.569639  0.612312  1
  H  H192  1  0.500668  0.931029  0.612312  1
  H  H193  1  0.763694  0.165999  0.278979  1
  H  H194  1  0.402304  0.236306  0.278979  1
  H  H195  1  0.834001  0.597696  0.278979  1
  H  H196  1  0.097028  0.832665  0.945645  1
  H  H197  1  0.735638  0.902972  0.945645  1
  H  H198  1  0.167335  0.264362  0.945645  1
  H  H199  1  0.068971  0.499332  0.112312  1
  H  H200  1  0.430361  0.931029  0.112312  1
  H  H201  1  0.500668  0.569639  0.112312  1
  H  H202  1  0.735638  0.832665  0.445645  1
  H  H203  1  0.097028  0.264362  0.445645  1
  H  H204  1  0.167335  0.902972  0.445645  1
  H  H205  1  0.402304  0.165999  0.778979  1
  H  H206  1  0.763694  0.597696  0.778979  1
  H  H207  1  0.834001  0.236306  0.778979  1
  H  H208  1  0.569639  0.500668  0.387688  1
  H  H209  1  0.931029  0.430361  0.387688  1
  H  H210  1  0.499332  0.068971  0.387688  1
  H  H211  1  0.236306  0.834001  0.721021  1
  H  H212  1  0.597696  0.763694  0.721021  1
  H  H213  1  0.165999  0.402304  0.721021  1
  H  H214  1  0.902972  0.167335  0.054355  1
  H  H215  1  0.264362  0.097028  0.054355  1
  H  H216  1  0.832665  0.735638  0.054355  1
  H  H217  1  0.014017  0.526325  0.866703  1
  H  H218  1  0.512308  0.985983  0.866703  1
  H  H219  1  0.473675  0.487692  0.866703  1
  H  H220  1  0.347350  0.192992  0.533370  1
  H  H221  1  0.845641  0.652650  0.533370  1
  H  H222  1  0.807008  0.154359  0.533370  1
  H  H223  1  0.680684  0.859658  0.200036  1
  H  H224  1  0.178975  0.319316  0.200036  1
  H  H225  1  0.140342  0.821025  0.200036  1
  H  H226  1  0.487692  0.473675  0.633297  1
  H  H227  1  0.985983  0.512308  0.633297  1
  H  H228  1  0.526325  0.014017  0.633297  1
  H  H229  1  0.821025  0.140342  0.299964  1
  H  H230  1  0.319316  0.178975  0.299964  1
  H  H231  1  0.859658  0.680684  0.299964  1
  H  H232  1  0.154359  0.807008  0.966630  1
  H  H233  1  0.652650  0.845641  0.966630  1
  H  H234  1  0.192992  0.347350  0.966630  1
  H  H235  1  0.985983  0.473675  0.133297  1
  H  H236  1  0.487692  0.014017  0.133297  1
  H  H237  1  0.526325  0.512308  0.133297  1
  H  H238  1  0.652650  0.807008  0.466630  1
  H  H239  1  0.154359  0.347350  0.466630  1
  H  H240  1  0.192992  0.845641  0.466630  1
  H  H241  1  0.319316  0.140342  0.799964  1
  H  H242  1  0.821025  0.680684  0.799964  1
  H  H243  1  0.859658  0.178975  0.799964  1
  H  H244  1  0.512308  0.526325  0.366703  1
  H  H245  1  0.014017  0.487692  0.366703  1
  H  H246  1  0.473675  0.985983  0.366703  1
  H  H247  1  0.178975  0.859658  0.700036  1
  H  H248  1  0.680684  0.821025  0.700036  1
  H  H249  1  0.140342  0.319316  0.700036  1
  H  H250  1  0.845641  0.192992  0.033370  1
  H  H251  1  0.347350  0.154359  0.033370  1
  H  H252  1  0.807008  0.652650  0.033370  1
  H  H253  1  0.083486  0.565267  0.850678  1
  H  H254  1  0.481781  0.916514  0.850678  1
  H  H255  1  0.434733  0.518219  0.850678  1
  H  H256  1  0.416819  0.231934  0.517345  1
  H  H257  1  0.815114  0.583181  0.517345  1
  H  H258  1  0.768066  0.184886  0.517345  1
  H  H259  1  0.750153  0.898600  0.184011  1
  H  H260  1  0.148448  0.249847  0.184011  1
  H  H261  1  0.101400  0.851552  0.184011  1
  H  H262  1  0.518219  0.434733  0.649322  1
  H  H263  1  0.916514  0.481781  0.649322  1
  H  H264  1  0.565267  0.083486  0.649322  1
  H  H265  1  0.851552  0.101400  0.315989  1
  H  H266  1  0.249847  0.148448  0.315989  1
  H  H267  1  0.898600  0.750153  0.315989  1
  H  H268  1  0.184886  0.768066  0.982655  1
  H  H269  1  0.583181  0.815114  0.982655  1
  H  H270  1  0.231934  0.416819  0.982655  1
  H  H271  1  0.916514  0.434733  0.149322  1
  H  H272  1  0.518219  0.083486  0.149322  1
  H  H273  1  0.565267  0.481781  0.149322  1
  H  H274  1  0.583181  0.768066  0.482655  1
  H  H275  1  0.184886  0.416819  0.482655  1
  H  H276  1  0.231934  0.815114  0.482655  1
  H  H277  1  0.249847  0.101400  0.815989  1
  H  H278  1  0.851552  0.750153  0.815989  1
  H  H279  1  0.898600  0.148448  0.815989  1
  H  H280  1  0.481781  0.565267  0.350678  1
  H  H281  1  0.083486  0.518219  0.350678  1
  H  H282  1  0.434733  0.916514  0.350678  1
  H  H283  1  0.148448  0.898600  0.684011  1
  H  H284  1  0.750153  0.851552  0.684011  1
  H  H285  1  0.101400  0.249847  0.684011  1
  H  H286  1  0.815114  0.231934  0.017345  1
  H  H287  1  0.416819  0.184886  0.017345  1
  H  H288  1  0.768066  0.583181  0.017345  1
  H  H289  1  0.115603  0.645466  0.843984  1
  H  H290  1  0.529863  0.884397  0.843984  1
  H  H291  1  0.354534  0.470137  0.843984  1
  H  H292  1  0.448936  0.312133  0.510651  1
  H  H293  1  0.863196  0.551064  0.510651  1
  H  H294  1  0.687867  0.136804  0.510651  1
  H  H295  1  0.782270  0.978799  0.177317  1
  H  H296  1  0.196530  0.217730  0.177317  1
  H  H297  1  0.021201  0.803470  0.177317  1
  H  H298  1  0.470137  0.354534  0.656016  1
  H  H299  1  0.884397  0.529863  0.656016  1
  H  H300  1  0.645466  0.115603  0.656016  1
  H  H301  1  0.803470  0.021201  0.322683  1
  H  H302  1  0.217730  0.196530  0.322683  1
  H  H303  1  0.978799  0.782270  0.322683  1
  H  H304  1  0.136804  0.687867  0.989349  1
  H  H305  1  0.551064  0.863196  0.989349  1
  H  H306  1  0.312133  0.448936  0.989349  1
  H  H307  1  0.884397  0.354534  0.156016  1
  H  H308  1  0.470137  0.115603  0.156016  1
  H  H309  1  0.645466  0.529863  0.156016  1
  H  H310  1  0.551064  0.687867  0.489349  1
  H  H311  1  0.136804  0.448936  0.489349  1
  H  H312  1  0.312133  0.863196  0.489349  1
  H  H313  1  0.217730  0.021201  0.822683  1
  H  H314  1  0.803470  0.782270  0.822683  1
  H  H315  1  0.978799  0.196530  0.822683  1
  H  H316  1  0.529863  0.645466  0.343984  1
  H  H317  1  0.115603  0.470137  0.343984  1
  H  H318  1  0.354534  0.884397  0.343984  1
  H  H319  1  0.196530  0.978799  0.677317  1
  H  H320  1  0.782270  0.803470  0.677317  1
  H  H321  1  0.021201  0.217730  0.677317  1
  H  H322  1  0.863196  0.312133  0.010651  1
  H  H323  1  0.448936  0.136804  0.010651  1
  H  H324  1  0.687867  0.551064  0.010651  1
  H  H325  1  0.078251  0.686724  0.853314  1
  H  H326  1  0.608473  0.921749  0.853314  1
  H  H327  1  0.313276  0.391527  0.853314  1
  H  H328  1  0.411584  0.353391  0.519981  1
  H  H329  1  0.941806  0.588416  0.519981  1
  H  H330  1  0.646609  0.058194  0.519981  1
  H  H331  1  0.744918  0.020057  0.186647  1
  H  H332  1  0.275140  0.255082  0.186647  1
  H  H333  1  0.979943  0.724860  0.186647  1
  H  H334  1  0.391527  0.313276  0.646686  1
  H  H335  1  0.921749  0.608473  0.646686  1
  H  H336  1  0.686724  0.078251  0.646686  1
  H  H337  1  0.724860  0.979943  0.313353  1
  H  H338  1  0.255082  0.275140  0.313353  1
  H  H339  1  0.020057  0.744918  0.313353  1
  H  H340  1  0.058194  0.646609  0.980019  1
  H  H341  1  0.588416  0.941806  0.980019  1
  H  H342  1  0.353391  0.411584  0.980019  1
  H  H343  1  0.921749  0.313276  0.146686  1
  H  H344  1  0.391527  0.078251  0.146686  1
  H  H345  1  0.686724  0.608473  0.146686  1
  H  H346  1  0.588416  0.646609  0.480019  1
  H  H347  1  0.058194  0.411584  0.480019  1
  H  H348  1  0.353391  0.941806  0.480019  1
  H  H349  1  0.255082  0.979943  0.813353  1
  H  H350  1  0.724860  0.744918  0.813353  1
  H  H351  1  0.020057  0.275140  0.813353  1
  H  H352  1  0.608473  0.686724  0.353314  1
  H  H353  1  0.078251  0.391527  0.353314  1
  H  H354  1  0.313276  0.921749  0.353314  1
  H  H355  1  0.275140  0.020057  0.686647  1
  H  H356  1  0.744918  0.724860  0.686647  1
  H  H357  1  0.979943  0.255082  0.686647  1
  H  H358  1  0.941806  0.353391  0.019981  1
  H  H359  1  0.411584  0.058194  0.019981  1
  H  H360  1  0.646609  0.588416  0.019981  1
  H  H361  1  0.127135  0.924663  0.814753  1
  H  H362  1  0.797528  0.872865  0.814753  1
  H  H363  1  0.075337  0.202472  0.814753  1
  H  H364  1  0.460468  0.591330  0.481420  1
  H  H365  1  0.130861  0.539532  0.481420  1
  H  H366  1  0.408670  0.869139  0.481420  1
  H  H367  1  0.793802  0.257996  0.148086  1
  H  H368  1  0.464195  0.206198  0.148086  1
  H  H369  1  0.742004  0.535805  0.148086  1
  H  H370  1  0.202472  0.075337  0.685247  1
  H  H371  1  0.872865  0.797528  0.685247  1
  H  H372  1  0.924663  0.127135  0.685247  1
  H  H373  1  0.535805  0.742004  0.351914  1
  H  H374  1  0.206198  0.464195  0.351914  1
  H  H375  1  0.257996  0.793802  0.351914  1
  H  H376  1  0.869139  0.408670  0.018580  1
  H  H377  1  0.539532  0.130861  0.018580  1
  H  H378  1  0.591330  0.460468  0.018580  1
  H  H379  1  0.872865  0.075337  0.185247  1
  H  H380  1  0.202472  0.127135  0.185247  1
  H  H381  1  0.924663  0.797528  0.185247  1
  H  H382  1  0.539532  0.408670  0.518580  1
  H  H383  1  0.869139  0.460468  0.518580  1
  H  H384  1  0.591330  0.130861  0.518580  1
  H  H385  1  0.206198  0.742004  0.851914  1
  H  H386  1  0.535805  0.793802  0.851914  1
  H  H387  1  0.257996  0.464195  0.851914  1
  H  H388  1  0.797528  0.924663  0.314753  1
  H  H389  1  0.127135  0.202472  0.314753  1
  H  H390  1  0.075337  0.872865  0.314753  1
  H  H391  1  0.464195  0.257996  0.648086  1
  H  H392  1  0.793802  0.535805  0.648086  1
  H  H393  1  0.742004  0.206198  0.648086  1
  H  H394  1  0.130861  0.591330  0.981420  1
  H  H395  1  0.460468  0.869139  0.981420  1
  H  H396  1  0.408670  0.539532  0.981420  1
  H  H397  1  0.183144  0.981985  0.796621  1
  H  H398  1  0.798841  0.816856  0.796621  1
  H  H399  1  0.018015  0.201159  0.796621  1
  H  H400  1  0.516477  0.648652  0.463288  1
  H  H401  1  0.132174  0.483523  0.463288  1
  H  H402  1  0.351348  0.867826  0.463288  1
  H  H403  1  0.849811  0.315318  0.129954  1
  H  H404  1  0.465508  0.150189  0.129954  1
  H  H405  1  0.684682  0.534492  0.129954  1
  H  H406  1  0.201159  0.018015  0.703379  1
  H  H407  1  0.816856  0.798841  0.703379  1
  H  H408  1  0.981985  0.183144  0.703379  1
  H  H409  1  0.534492  0.684682  0.370046  1
  H  H410  1  0.150189  0.465508  0.370046  1
  H  H411  1  0.315318  0.849811  0.370046  1
  H  H412  1  0.867826  0.351348  0.036712  1
  H  H413  1  0.483523  0.132174  0.036712  1
  H  H414  1  0.648652  0.516477  0.036712  1
  H  H415  1  0.816856  0.018015  0.203379  1
  H  H416  1  0.201159  0.183144  0.203379  1
  H  H417  1  0.981985  0.798841  0.203379  1
  H  H418  1  0.483523  0.351348  0.536712  1
  H  H419  1  0.867826  0.516477  0.536712  1
  H  H420  1  0.648652  0.132174  0.536712  1
  H  H421  1  0.150189  0.684682  0.870046  1
  H  H422  1  0.534492  0.849811  0.870046  1
  H  H423  1  0.315318  0.465508  0.870046  1
  H  H424  1  0.798841  0.981985  0.296621  1
  H  H425  1  0.183144  0.201159  0.296621  1
  H  H426  1  0.018015  0.816856  0.296621  1
  H  H427  1  0.465508  0.315318  0.629954  1
  H  H428  1  0.849811  0.534492  0.629954  1
  H  H429  1  0.684682  0.150189  0.629954  1
  H  H430  1  0.132174  0.648652  0.963288  1
  H  H431  1  0.516477  0.867826  0.963288  1
  H  H432  1  0.351348  0.483523  0.963288  1
  H  H433  1  0.160331  0.993194  0.769779  1
  H  H434  1  0.832863  0.839669  0.769779  1
  H  H435  1  0.006806  0.167137  0.769779  1
  H  H436  1  0.493664  0.659861  0.436446  1
  H  H437  1  0.166196  0.506336  0.436446  1
  H  H438  1  0.340139  0.833804  0.436446  1
  H  H439  1  0.826998  0.326527  0.103112  1
  H  H440  1  0.499530  0.173002  0.103112  1
  H  H441  1  0.673473  0.500470  0.103112  1
  H  H442  1  0.167137  0.006806  0.730221  1
  H  H443  1  0.839669  0.832863  0.730221  1
  H  H444  1  0.993194  0.160331  0.730221  1
  H  H445  1  0.500470  0.673473  0.396888  1
  H  H446  1  0.173002  0.499530  0.396888  1
  H  H447  1  0.326527  0.826998  0.396888  1
  H  H448  1  0.833804  0.340139  0.063554  1
  H  H449  1  0.506336  0.166196  0.063554  1
  H  H450  1  0.659861  0.493664  0.063554  1
  H  H451  1  0.839669  0.006806  0.230221  1
  H  H452  1  0.167137  0.160331  0.230221  1
  H  H453  1  0.993194  0.832863  0.230221  1
  H  H454  1  0.506336  0.340139  0.563554  1
  H  H455  1  0.833804  0.493664  0.563554  1
  H  H456  1  0.659861  0.166196  0.563554  1
  H  H457  1  0.173002  0.673473  0.896888  1
  H  H458  1  0.500470  0.826998  0.896888  1
  H  H459  1  0.326527  0.499530  0.896888  1
  H  H460  1  0.832863  0.993194  0.269779  1
  H  H461  1  0.160331  0.167137  0.269779  1
  H  H462  1  0.006806  0.839669  0.269779  1
  H  H463  1  0.499530  0.326527  0.603112  1
  H  H464  1  0.826998  0.500470  0.603112  1
  H  H465  1  0.673473  0.173002  0.603112  1
  H  H466  1  0.166196  0.659861  0.936446  1
  H  H467  1  0.493664  0.833804  0.936446  1
  H  H468  1  0.340139  0.506336  0.936446  1
  H  H469  1  0.081510  0.947080  0.761070  1
  H  H470  1  0.865570  0.918490  0.761070  1
  H  H471  1  0.052920  0.134430  0.761070  1
  H  H472  1  0.414843  0.613747  0.427737  1
  H  H473  1  0.198903  0.585157  0.427737  1
  H  H474  1  0.386253  0.801097  0.427737  1
  H  H475  1  0.748177  0.280413  0.094403  1
  H  H476  1  0.532237  0.251823  0.094403  1
  H  H477  1  0.719587  0.467763  0.094403  1
  H  H478  1  0.134430  0.052920  0.738930  1
  H  H479  1  0.918490  0.865570  0.738930  1
  H  H480  1  0.947080  0.081510  0.738930  1
  H  H481  1  0.467763  0.719587  0.405597  1
  H  H482  1  0.251823  0.532237  0.405597  1
  H  H483  1  0.280413  0.748177  0.405597  1
  H  H484  1  0.801097  0.386253  0.072263  1
  H  H485  1  0.585157  0.198903  0.072263  1
  H  H486  1  0.613747  0.414843  0.072263  1
  H  H487  1  0.918490  0.052920  0.238930  1
  H  H488  1  0.134430  0.081510  0.238930  1
  H  H489  1  0.947080  0.865570  0.238930  1
  H  H490  1  0.585157  0.386253  0.572263  1
  H  H491  1  0.801097  0.414843  0.572263  1
  H  H492  1  0.613747  0.198903  0.572263  1
  H  H493  1  0.251823  0.719587  0.905597  1
  H  H494  1  0.467763  0.748177  0.905597  1
  H  H495  1  0.280413  0.532237  0.905597  1
  H  H496  1  0.865570  0.947080  0.261070  1
  H  H497  1  0.081510  0.134430  0.261070  1
  H  H498  1  0.052920  0.918490  0.261070  1
  H  H499  1  0.532237  0.280413  0.594403  1
  H  H500  1  0.748177  0.467763  0.594403  1
  H  H501  1  0.719587  0.251823  0.594403  1
  H  H502  1  0.198903  0.613747  0.927737  1
  H  H503  1  0.414843  0.801097  0.927737  1
  H  H504  1  0.386253  0.585157  0.927737  1
  H  H505  1  0.981240  0.880464  0.758271  1
  H  H506  1  0.899224  0.018760  0.758271  1
  H  H507  1  0.119536  0.100776  0.758271  1
  H  H508  1  0.314573  0.547131  0.424938  1
  H  H509  1  0.232557  0.685427  0.424938  1
  H  H510  1  0.452869  0.767443  0.424938  1
  H  H511  1  0.647907  0.213797  0.091604  1
  H  H512  1  0.565891  0.352093  0.091604  1
  H  H513  1  0.786203  0.434109  0.091604  1
  H  H514  1  0.100776  0.119536  0.741729  1
  H  H515  1  0.018760  0.899224  0.741729  1
  H  H516  1  0.880464  0.981240  0.741729  1
  H  H517  1  0.434109  0.786203  0.408396  1
  H  H518  1  0.352093  0.565891  0.408396  1
  H  H519  1  0.213797  0.647907  0.408396  1
  H  H520  1  0.767443  0.452869  0.075062  1
  H  H521  1  0.685427  0.232557  0.075062  1
  H  H522  1  0.547131  0.314573  0.075062  1
  H  H523  1  0.018760  0.119536  0.241729  1
  H  H524  1  0.100776  0.981240  0.241729  1
  H  H525  1  0.880464  0.899224  0.241729  1
  H  H526  1  0.685427  0.452869  0.575062  1
  H  H527  1  0.767443  0.314573  0.575062  1
  H  H528  1  0.547131  0.232557  0.575062  1
  H  H529  1  0.352093  0.786203  0.908396  1
  H  H530  1  0.434109  0.647907  0.908396  1
  H  H531  1  0.213797  0.565891  0.908396  1
  H  H532  1  0.899224  0.880464  0.258271  1
  H  H533  1  0.981240  0.100776  0.258271  1
  H  H534  1  0.119536  0.018760  0.258271  1
  H  H535  1  0.565891  0.213797  0.591604  1
  H  H536  1  0.647907  0.434109  0.591604  1
  H  H537  1  0.786203  0.352093  0.591604  1
  H  H538  1  0.232557  0.547131  0.924938  1
  H  H539  1  0.314573  0.767443  0.924938  1
  H  H540  1  0.452869  0.685427  0.924938  1
  H  H541  1  0.902716  0.821719  0.763277  1
  H  H542  1  0.919003  0.097284  0.763277  1
  H  H543  1  0.178281  0.080997  0.763277  1
  H  H544  1  0.236049  0.488386  0.429944  1
  H  H545  1  0.252336  0.763951  0.429944  1
  H  H546  1  0.511614  0.747664  0.429944  1
  H  H547  1  0.569383  0.155052  0.096610  1
  H  H548  1  0.585670  0.430617  0.096610  1
  H  H549  1  0.844948  0.414330  0.096610  1
  H  H550  1  0.080997  0.178281  0.736723  1
  H  H551  1  0.097284  0.919003  0.736723  1
  H  H552  1  0.821719  0.902716  0.736723  1
  H  H553  1  0.414330  0.844948  0.403390  1
  H  H554  1  0.430617  0.585670  0.403390  1
  H  H555  1  0.155052  0.569383  0.403390  1
  H  H556  1  0.747664  0.511614  0.070056  1
  H  H557  1  0.763951  0.252336  0.070056  1
  H  H558  1  0.488386  0.236049  0.070056  1
  H  H559  1  0.097284  0.178281  0.236723  1
  H  H560  1  0.080997  0.902716  0.236723  1
  H  H561  1  0.821719  0.919003  0.236723  1
  H  H562  1  0.763951  0.511614  0.570056  1
  H  H563  1  0.747664  0.236049  0.570056  1
  H  H564  1  0.488386  0.252336  0.570056  1
  H  H565  1  0.430617  0.844948  0.903390  1
  H  H566  1  0.414330  0.569383  0.903390  1
  H  H567  1  0.155052  0.585670  0.903390  1
  H  H568  1  0.919003  0.821719  0.263277  1
  H  H569  1  0.902716  0.080997  0.263277  1
  H  H570  1  0.178281  0.097284  0.263277  1
  H  H571  1  0.585670  0.155052  0.596610  1
  H  H572  1  0.569383  0.414330  0.596610  1
  H  H573  1  0.844948  0.430617  0.596610  1
  H  H574  1  0.252336  0.488386  0.929944  1
  H  H575  1  0.236049  0.747664  0.929944  1
  H  H576  1  0.511614  0.763951  0.929944  1
  H  H577  1  0.881862  0.781186  0.789053  1
  H  H578  1  0.899324  0.118138  0.789053  1
  H  H579  1  0.218814  0.100676  0.789053  1
  H  H580  1  0.215195  0.447853  0.455720  1
  H  H581  1  0.232657  0.784805  0.455720  1
  H  H582  1  0.552147  0.767343  0.455720  1
  H  H583  1  0.548529  0.114519  0.122386  1
  H  H584  1  0.565991  0.451471  0.122386  1
  H  H585  1  0.885481  0.434009  0.122386  1
  H  H586  1  0.100676  0.218814  0.710947  1
  H  H587  1  0.118138  0.899324  0.710947  1
  H  H588  1  0.781186  0.881862  0.710947  1
  H  H589  1  0.434009  0.885481  0.377614  1
  H  H590  1  0.451471  0.565991  0.377614  1
  H  H591  1  0.114519  0.548529  0.377614  1
  H  H592  1  0.767343  0.552147  0.044280  1
  H  H593  1  0.784805  0.232657  0.044280  1
  H  H594  1  0.447853  0.215195  0.044280  1
  H  H595  1  0.118138  0.218814  0.210947  1
  H  H596  1  0.100676  0.881862  0.210947  1
  H  H597  1  0.781186  0.899324  0.210947  1
  H  H598  1  0.784805  0.552147  0.544280  1
  H  H599  1  0.767343  0.215195  0.544280  1
  H  H600  1  0.447853  0.232657  0.544280  1
  H  H601  1  0.451471  0.885481  0.877614  1
  H  H602  1  0.434009  0.548529  0.877614  1
  H  H603  1  0.114519  0.565991  0.877614  1
  H  H604  1  0.899324  0.781186  0.289053  1
  H  H605  1  0.881862  0.100676  0.289053  1
  H  H606  1  0.218814  0.118138  0.289053  1
  H  H607  1  0.565991  0.114519  0.622386  1
  H  H608  1  0.548529  0.434009  0.622386  1
  H  H609  1  0.885481  0.451471  0.622386  1
  H  H610  1  0.232657  0.447853  0.955720  1
  H  H611  1  0.215195  0.767343  0.955720  1
  H  H612  1  0.552147  0.784805  0.955720  1
  H  H613  1  0.939531  0.799399  0.809823  1
  H  H614  1  0.859868  0.060469  0.809823  1
  H  H615  1  0.200601  0.140132  0.809823  1
  H  H616  1  0.272864  0.466066  0.476490  1
  H  H617  1  0.193201  0.727136  0.476490  1
  H  H618  1  0.533934  0.806799  0.476490  1
  H  H619  1  0.606198  0.132732  0.143156  1
  H  H620  1  0.526535  0.393802  0.143156  1
  H  H621  1  0.867268  0.473465  0.143156  1
  H  H622  1  0.140132  0.200601  0.690177  1
  H  H623  1  0.060469  0.859868  0.690177  1
  H  H624  1  0.799399  0.939531  0.690177  1
  H  H625  1  0.473465  0.867268  0.356844  1
  H  H626  1  0.393802  0.526535  0.356844  1
  H  H627  1  0.132732  0.606198  0.356844  1
  H  H628  1  0.806799  0.533934  0.023510  1
  H  H629  1  0.727136  0.193201  0.023510  1
  H  H630  1  0.466066  0.272864  0.023510  1
  H  H631  1  0.060469  0.200601  0.190177  1
  H  H632  1  0.140132  0.939531  0.190177  1
  H  H633  1  0.799399  0.859868  0.190177  1
  H  H634  1  0.727136  0.533934  0.523510  1
  H  H635  1  0.806799  0.272864  0.523510  1
  H  H636  1  0.466066  0.193201  0.523510  1
  H  H637  1  0.393802  0.867268  0.856844  1
  H  H638  1  0.473465  0.606198  0.856844  1
  H  H639  1  0.132732  0.526535  0.856844  1
  H  H640  1  0.859868  0.799399  0.309823  1
  H  H641  1  0.939531  0.140132  0.309823  1
  H  H642  1  0.200601  0.060469  0.309823  1
  H  H643  1  0.526535  0.132732  0.643156  1
  H  H644  1  0.606198  0.473465  0.643156  1
  H  H645  1  0.867268  0.393802  0.643156  1
  H  H646  1  0.193201  0.466066  0.976490  1
  H  H647  1  0.272864  0.806799  0.976490  1
  H  H648  1  0.533934  0.727136  0.976490  1
  H  H649  1  0.043435  0.912437  0.860499  1
  H  H650  1  0.869002  0.956565  0.860499  1
  H  H651  1  0.087563  0.130998  0.860499  1
  H  H652  1  0.376768  0.579104  0.527166  1
  H  H653  1  0.202335  0.623232  0.527166  1
  H  H654  1  0.420896  0.797665  0.527166  1
  H  H655  1  0.710102  0.245770  0.193832  1
  H  H656  1  0.535669  0.289898  0.193832  1
  H  H657  1  0.754230  0.464331  0.193832  1
  H  H658  1  0.130998  0.087563  0.639501  1
  H  H659  1  0.956565  0.869002  0.639501  1
  H  H660  1  0.912437  0.043435  0.639501  1
  H  H661  1  0.464331  0.754230  0.306168  1
  H  H662  1  0.289898  0.535669  0.306168  1
  H  H663  1  0.245770  0.710102  0.306168  1
  H  H664  1  0.797665  0.420896  0.972834  1
  H  H665  1  0.623232  0.202335  0.972834  1
  H  H666  1  0.579104  0.376768  0.972834  1
  H  H667  1  0.956565  0.087563  0.139501  1
  H  H668  1  0.130998  0.043435  0.139501  1
  H  H669  1  0.912437  0.869002  0.139501  1
  H  H670  1  0.623232  0.420896  0.472834  1
  H  H671  1  0.797665  0.376768  0.472834  1
  H  H672  1  0.579104  0.202335  0.472834  1
  H  H673  1  0.289898  0.754230  0.806168  1
  H  H674  1  0.464331  0.710102  0.806168  1
  H  H675  1  0.245770  0.535669  0.806168  1
  H  H676  1  0.869002  0.912437  0.360499  1
  H  H677  1  0.043435  0.130998  0.360499  1
  H  H678  1  0.087563  0.956565  0.360499  1
  H  H679  1  0.535669  0.245770  0.693832  1
  H  H680  1  0.710102  0.464331  0.693832  1
  H  H681  1  0.754230  0.289898  0.693832  1
  H  H682  1  0.202335  0.579104  0.027166  1
  H  H683  1  0.376768  0.797665  0.027166  1
  H  H684  1  0.420896  0.623232  0.027166  1
  H  H685  1  0.044320  0.923849  0.831296  1
  H  H686  1  0.879529  0.955680  0.831296  1
  H  H687  1  0.076151  0.120471  0.831296  1
  H  H688  1  0.377653  0.590516  0.497963  1
  H  H689  1  0.212862  0.622347  0.497963  1
  H  H690  1  0.409484  0.787138  0.497963  1
  H  H691  1  0.710987  0.257182  0.164629  1
  H  H692  1  0.546196  0.289013  0.164629  1
  H  H693  1  0.742818  0.453804  0.164629  1
  H  H694  1  0.120471  0.076151  0.668704  1
  H  H695  1  0.955680  0.879529  0.668704  1
  H  H696  1  0.923849  0.044320  0.668704  1
  H  H697  1  0.453804  0.742818  0.335371  1
  H  H698  1  0.289013  0.546196  0.335371  1
  H  H699  1  0.257182  0.710987  0.335371  1
  H  H700  1  0.787138  0.409484  0.002037  1
  H  H701  1  0.622347  0.212862  0.002037  1
  H  H702  1  0.590516  0.377653  0.002037  1
  H  H703  1  0.955680  0.076151  0.168704  1
  H  H704  1  0.120471  0.044320  0.168704  1
  H  H705  1  0.923849  0.879529  0.168704  1
  H  H706  1  0.622347  0.409484  0.502037  1
  H  H707  1  0.787138  0.377653  0.502037  1
  H  H708  1  0.590516  0.212862  0.502037  1
  H  H709  1  0.289013  0.742818  0.835371  1
  H  H710  1  0.453804  0.710987  0.835371  1
  H  H711  1  0.257182  0.546196  0.835371  1
  H  H712  1  0.879529  0.923849  0.331296  1
  H  H713  1  0.044320  0.120471  0.331296  1
  H  H714  1  0.076151  0.955680  0.331296  1
  H  H715  1  0.546196  0.257182  0.664629  1
  H  H716  1  0.710987  0.453804  0.664629  1
  H  H717  1  0.742818  0.289013  0.664629  1
  H  H718  1  0.212862  0.590516  0.997963  1
  H  H719  1  0.377653  0.787138  0.997963  1
  H  H720  1  0.409484  0.622347  0.997963  1
  H  H721  1  0.017323  0.789719  0.823511  1
  H  H722  1  0.772396  0.982677  0.823511  1
  H  H723  1  0.210281  0.227604  0.823511  1
  H  H724  1  0.350656  0.456386  0.490178  1
  H  H725  1  0.105729  0.649344  0.490178  1
  H  H726  1  0.543614  0.894271  0.490178  1
  H  H727  1  0.683990  0.123052  0.156844  1
  H  H728  1  0.439063  0.316010  0.156844  1
  H  H729  1  0.876948  0.560937  0.156844  1
  H  H730  1  0.227604  0.210281  0.676489  1
  H  H731  1  0.982677  0.772396  0.676489  1
  H  H732  1  0.789719  0.017323  0.676489  1
  H  H733  1  0.560937  0.876948  0.343156  1
  H  H734  1  0.316010  0.439063  0.343156  1
  H  H735  1  0.123052  0.683990  0.343156  1
  H  H736  1  0.894271  0.543614  0.009822  1
  H  H737  1  0.649344  0.105729  0.009822  1
  H  H738  1  0.456386  0.350656  0.009822  1
  H  H739  1  0.982677  0.210281  0.176489  1
  H  H740  1  0.227604  0.017323  0.176489  1
  H  H741  1  0.789719  0.772396  0.176489  1
  H  H742  1  0.649344  0.543614  0.509822  1
  H  H743  1  0.894271  0.350656  0.509822  1
  H  H744  1  0.456386  0.105729  0.509822  1
  H  H745  1  0.316010  0.876948  0.843156  1
  H  H746  1  0.560937  0.683990  0.843156  1
  H  H747  1  0.123052  0.439063  0.843156  1
  H  H748  1  0.772396  0.789719  0.323511  1
  H  H749  1  0.017323  0.227604  0.323511  1
  H  H750  1  0.210281  0.982677  0.323511  1
  H  H751  1  0.439063  0.123052  0.656844  1
  H  H752  1  0.683990  0.560937  0.656844  1
  H  H753  1  0.876948  0.316010  0.656844  1
  H  H754  1  0.105729  0.456386  0.990178  1
  H  H755  1  0.350656  0.894271  0.990178  1
  H  H756  1  0.543614  0.649344  0.990178  1
  H  H757  1  0.998675  0.705667  0.847297  1
  H  H758  1  0.706992  0.001325  0.847297  1
  H  H759  1  0.294333  0.293008  0.847297  1
  H  H760  1  0.332008  0.372334  0.513964  1
  H  H761  1  0.040325  0.667992  0.513964  1
  H  H762  1  0.627666  0.959675  0.513964  1
  H  H763  1  0.665342  0.039000  0.180630  1
  H  H764  1  0.373659  0.334658  0.180630  1
  H  H765  1  0.961000  0.626341  0.180630  1
  H  H766  1  0.293008  0.294333  0.652703  1
  H  H767  1  0.001325  0.706992  0.652703  1
  H  H768  1  0.705667  0.998675  0.652703  1
  H  H769  1  0.626341  0.961000  0.319370  1
  H  H770  1  0.334658  0.373659  0.319370  1
  H  H771  1  0.039000  0.665342  0.319370  1
  H  H772  1  0.959675  0.627666  0.986036  1
  H  H773  1  0.667992  0.040325  0.986036  1
  H  H774  1  0.372334  0.332008  0.986036  1
  H  H775  1  0.001325  0.294333  0.152703  1
  H  H776  1  0.293008  0.998675  0.152703  1
  H  H777  1  0.705667  0.706992  0.152703  1
  H  H778  1  0.667992  0.627666  0.486036  1
  H  H779  1  0.959675  0.332008  0.486036  1
  H  H780  1  0.372334  0.040325  0.486036  1
  H  H781  1  0.334658  0.961000  0.819370  1
  H  H782  1  0.626341  0.665342  0.819370  1
  H  H783  1  0.039000  0.373659  0.819370  1
  H  H784  1  0.706992  0.705667  0.347297  1
  H  H785  1  0.998675  0.293008  0.347297  1
  H  H786  1  0.294333  0.001325  0.347297  1
  H  H787  1  0.373659  0.039000  0.680630  1
  H  H788  1  0.665342  0.626341  0.680630  1
  H  H789  1  0.961000  0.334658  0.680630  1
  H  H790  1  0.040325  0.372334  0.013964  1
  H  H791  1  0.332008  0.959675  0.013964  1
  H  H792  1  0.627666  0.667992  0.013964  1
  H  H793  1  0.002692  0.694187  0.898161  1
  H  H794  1  0.691495  0.997308  0.898161  1
  H  H795  1  0.305813  0.308505  0.898161  1
  H  H796  1  0.336025  0.360854  0.564828  1
  H  H797  1  0.024828  0.663975  0.564828  1
  H  H798  1  0.639146  0.975172  0.564828  1
  H  H799  1  0.669359  0.027520  0.231494  1
  H  H800  1  0.358162  0.330641  0.231494  1
  H  H801  1  0.972480  0.641838  0.231494  1
  H  H802  1  0.308505  0.305813  0.601839  1
  H  H803  1  0.997308  0.691495  0.601839  1
  H  H804  1  0.694187  0.002692  0.601839  1
  H  H805  1  0.641838  0.972480  0.268506  1
  H  H806  1  0.330641  0.358162  0.268506  1
  H  H807  1  0.027520  0.669359  0.268506  1
  H  H808  1  0.975172  0.639146  0.935172  1
  H  H809  1  0.663975  0.024828  0.935172  1
  H  H810  1  0.360854  0.336025  0.935172  1
  H  H811  1  0.997308  0.305813  0.101839  1
  H  H812  1  0.308505  0.002692  0.101839  1
  H  H813  1  0.694187  0.691495  0.101839  1
  H  H814  1  0.663975  0.639146  0.435172  1
  H  H815  1  0.975172  0.336025  0.435172  1
  H  H816  1  0.360854  0.024828  0.435172  1
  H  H817  1  0.330641  0.972480  0.768506  1
  H  H818  1  0.641838  0.669359  0.768506  1
  H  H819  1  0.027520  0.358162  0.768506  1
  H  H820  1  0.691495  0.694187  0.398161  1
  H  H821  1  0.002692  0.308505  0.398161  1
  H  H822  1  0.305813  0.997308  0.398161  1
  H  H823  1  0.358162  0.027520  0.731494  1
  H  H824  1  0.669359  0.641838  0.731494  1
  H  H825  1  0.972480  0.330641  0.731494  1
  H  H826  1  0.024828  0.360854  0.064828  1
  H  H827  1  0.336025  0.975172  0.064828  1
  H  H828  1  0.639146  0.663975  0.064828  1
  H  H829  1  0.019070  0.772364  0.901142  1
  H  H830  1  0.753294  0.980930  0.901142  1
  H  H831  1  0.227636  0.246706  0.901142  1
  H  H832  1  0.352403  0.439031  0.567809  1
  H  H833  1  0.086627  0.647597  0.567809  1
  H  H834  1  0.560969  0.913373  0.567809  1
  H  H835  1  0.685737  0.105697  0.234475  1
  H  H836  1  0.419961  0.314263  0.234475  1
  H  H837  1  0.894303  0.580039  0.234475  1
  H  H838  1  0.246706  0.227636  0.598858  1
  H  H839  1  0.980930  0.753294  0.598858  1
  H  H840  1  0.772364  0.019070  0.598858  1
  H  H841  1  0.580039  0.894303  0.265525  1
  H  H842  1  0.314263  0.419961  0.265525  1
  H  H843  1  0.105697  0.685737  0.265525  1
  H  H844  1  0.913373  0.560969  0.932191  1
  H  H845  1  0.647597  0.086627  0.932191  1
  H  H846  1  0.439031  0.352403  0.932191  1
  H  H847  1  0.980930  0.227636  0.098858  1
  H  H848  1  0.246706  0.019070  0.098858  1
  H  H849  1  0.772364  0.753294  0.098858  1
  H  H850  1  0.647597  0.560969  0.432191  1
  H  H851  1  0.913373  0.352403  0.432191  1
  H  H852  1  0.439031  0.086627  0.432191  1
  H  H853  1  0.314263  0.894303  0.765525  1
  H  H854  1  0.580039  0.685737  0.765525  1
  H  H855  1  0.105697  0.419961  0.765525  1
  H  H856  1  0.753294  0.772364  0.401142  1
  H  H857  1  0.019070  0.246706  0.401142  1
  H  H858  1  0.227636  0.980930  0.401142  1
  H  H859  1  0.419961  0.105697  0.734475  1
  H  H860  1  0.685737  0.580039  0.734475  1
  H  H861  1  0.894303  0.314263  0.734475  1
  H  H862  1  0.086627  0.439031  0.067809  1
  H  H863  1  0.352403  0.913373  0.067809  1
  H  H864  1  0.560969  0.647597  0.067809  1
  H  H865  1  0.062790  0.677533  0.852704  1.0
  H  H866  1  0.614743  0.937210  0.852704  1.0
  H  H867  1  0.322467  0.385257  0.852704  1.0
  H  H868  1  0.396123  0.344200  0.519371  1.0
  H  H869  1  0.948076  0.603877  0.519371  1.0
  H  H870  1  0.655800  0.051924  0.519371  1.0
  H  H871  1  0.729457  0.010866  0.186037  1.0
  H  H872  1  0.281410  0.270543  0.186037  1.0
  H  H873  1  0.989134  0.718590  0.186037  1.0
  H  H874  1  0.385257  0.322467  0.647296  1.0
  H  H875  1  0.937210  0.614743  0.647296  1.0
  H  H876  1  0.677533  0.062790  0.647296  1.0
  H  H877  1  0.718590  0.989134  0.313963  1.0
  H  H878  1  0.270543  0.281410  0.313963  1.0
  H  H879  1  0.010866  0.729457  0.313963  1.0
  H  H880  1  0.051924  0.655800  0.980629  1.0
  H  H881  1  0.603877  0.948076  0.980629  1.0
  H  H882  1  0.344200  0.396123  0.980629  1.0
  H  H883  1  0.937210  0.322467  0.147296  1.0
  H  H884  1  0.385257  0.062790  0.147296  1.0
  H  H885  1  0.677533  0.614743  0.147296  1.0
  H  H886  1  0.603877  0.655800  0.480629  1.0
  H  H887  1  0.051924  0.396123  0.480629  1.0
  H  H888  1  0.344200  0.948076  0.480629  1.0
  H  H889  1  0.270543  0.989134  0.813963  1.0
  H  H890  1  0.718590  0.729457  0.813963  1.0
  H  H891  1  0.010866  0.281410  0.813963  1.0
  H  H892  1  0.614743  0.677533  0.352704  1.0
  H  H893  1  0.062790  0.385257  0.352704  1.0
  H  H894  1  0.322467  0.937210  0.352704  1.0
  H  H895  1  0.281410  0.010866  0.686037  1.0
  H  H896  1  0.729457  0.718590  0.686037  1.0
  H  H897  1  0.989134  0.270543  0.686037  1.0
  H  H898  1  0.948076  0.344200  0.019371  1.0
  H  H899  1  0.396123  0.051924  0.019371  1.0
  H  H900  1  0.655800  0.603877  0.019371  1.0
  H  H901  1  0.099791  0.638339  0.841084  1.0
  H  H902  1  0.538548  0.900209  0.841084  1.0
  H  H903  1  0.361661  0.461452  0.841084  1.0
  H  H904  1  0.433124  0.305006  0.507751  1.0
  H  H905  1  0.871881  0.566876  0.507751  1.0
  H  H906  1  0.694994  0.128119  0.507751  1.0
  H  H907  1  0.766458  0.971672  0.174417  1.0
  H  H908  1  0.205215  0.233542  0.174417  1.0
  H  H909  1  0.028328  0.794785  0.174417  1.0
  H  H910  1  0.461452  0.361661  0.658916  1.0
  H  H911  1  0.900209  0.538548  0.658916  1.0
  H  H912  1  0.638339  0.099791  0.658916  1.0
  H  H913  1  0.794785  0.028328  0.325583  1.0
  H  H914  1  0.233542  0.205215  0.325583  1.0
  H  H915  1  0.971672  0.766458  0.325583  1.0
  H  H916  1  0.128119  0.694994  0.992249  1.0
  H  H917  1  0.566876  0.871881  0.992249  1.0
  H  H918  1  0.305006  0.433124  0.992249  1.0
  H  H919  1  0.900209  0.361661  0.158916  1.0
  H  H920  1  0.461452  0.099791  0.158916  1.0
  H  H921  1  0.638339  0.538548  0.158916  1.0
  H  H922  1  0.566876  0.694994  0.492249  1.0
  H  H923  1  0.128119  0.433124  0.492249  1.0
  H  H924  1  0.305006  0.871881  0.492249  1.0
  H  H925  1  0.233542  0.028328  0.825583  1.0
  H  H926  1  0.794785  0.766458  0.825583  1.0
  H  H927  1  0.971672  0.205215  0.825583  1.0
  H  H928  1  0.538548  0.638339  0.341084  1.0
  H  H929  1  0.099791  0.461452  0.341084  1.0
  H  H930  1  0.361661  0.900209  0.341084  1.0
  H  H931  1  0.205215  0.971672  0.674417  1.0
  H  H932  1  0.766458  0.794785  0.674417  1.0
  H  H933  1  0.028328  0.233542  0.674417  1.0
  H  H934  1  0.871881  0.305006  0.007751  1.0
  H  H935  1  0.433124  0.128119  0.007751  1.0
  H  H936  1  0.694994  0.566876  0.007751  1.0
  H  H937  1  0.065562  0.556315  0.844279  1.0
  H  H938  1  0.490753  0.934438  0.844279  1.0
  H  H939  1  0.443685  0.509247  0.844279  1.0
  H  H940  1  0.398895  0.222982  0.510946  1.0
  H  H941  1  0.824086  0.601105  0.510946  1.0
  H  H942  1  0.777018  0.175914  0.510946  1.0
  H  H943  1  0.732229  0.889648  0.177612  1.0
  H  H944  1  0.157420  0.267771  0.177612  1.0
  H  H945  1  0.110352  0.842580  0.177612  1.0
  H  H946  1  0.509247  0.443685  0.655721  1.0
  H  H947  1  0.934438  0.490753  0.655721  1.0
  H  H948  1  0.556315  0.065562  0.655721  1.0
  H  H949  1  0.842580  0.110352  0.322388  1.0
  H  H950  1  0.267771  0.157420  0.322388  1.0
  H  H951  1  0.889648  0.732229  0.322388  1.0
  H  H952  1  0.175914  0.777018  0.989054  1.0
  H  H953  1  0.601105  0.824086  0.989054  1.0
  H  H954  1  0.222982  0.398895  0.989054  1.0
  H  H955  1  0.934438  0.443685  0.155721  1.0
  H  H956  1  0.509247  0.065562  0.155721  1.0
  H  H957  1  0.556315  0.490753  0.155721  1.0
  H  H958  1  0.601105  0.777018  0.489054  1.0
  H  H959  1  0.175914  0.398895  0.489054  1.0
  H  H960  1  0.222982  0.824086  0.489054  1.0
  H  H961  1  0.267771  0.110352  0.822388  1.0
  H  H962  1  0.842580  0.732229  0.822388  1.0
  H  H963  1  0.889648  0.157420  0.822388  1.0
  H  H964  1  0.490753  0.556315  0.344279  1.0
  H  H965  1  0.065562  0.509247  0.344279  1.0
  H  H966  1  0.443685  0.934438  0.344279  1.0
  H  H967  1  0.157420  0.889648  0.677612  1.0
  H  H968  1  0.732229  0.842580  0.677612  1.0
  H  H969  1  0.110352  0.267771  0.677612  1.0
  H  H970  1  0.824086  0.222982  0.010946  1.0
  H  H971  1  0.398895  0.175914  0.010946  1.0
  H  H972  1  0.777018  0.601105  0.010946  1.0
  H  H973  1  0.994333  0.513487  0.859094  1.0
  H  H974  1  0.519154  0.005667  0.859094  1.0
  H  H975  1  0.486513  0.480846  0.859094  1.0
  H  H976  1  0.327666  0.180154  0.525761  1.0
  H  H977  1  0.852487  0.672334  0.525761  1.0
  H  H978  1  0.819846  0.147513  0.525761  1.0
  H  H979  1  0.661000  0.846820  0.192427  1.0
  H  H980  1  0.185821  0.339000  0.192427  1.0
  H  H981  1  0.153180  0.814179  0.192427  1.0
  H  H982  1  0.480846  0.486513  0.640906  1.0
  H  H983  1  0.005667  0.519154  0.640906  1.0
  H  H984  1  0.513487  0.994333  0.640906  1.0
  H  H985  1  0.814179  0.153180  0.307573  1.0
  H  H986  1  0.339000  0.185821  0.307573  1.0
  H  H987  1  0.846820  0.661000  0.307573  1.0
  H  H988  1  0.147513  0.819846  0.974239  1.0
  H  H989  1  0.672334  0.852487  0.974239  1.0
  H  H990  1  0.180154  0.327666  0.974239  1.0
  H  H991  1  0.005667  0.486513  0.140906  1.0
  H  H992  1  0.480846  0.994333  0.140906  1.0
  H  H993  1  0.513487  0.519154  0.140906  1.0
  H  H994  1  0.672334  0.819846  0.474239  1.0
  H  H995  1  0.147513  0.327666  0.474239  1.0
  H  H996  1  0.180154  0.852487  0.474239  1.0
  H  H997  1  0.339000  0.153180  0.807573  1.0
  H  H998  1  0.814179  0.661000  0.807573  1.0
  H  H999  1  0.846820  0.185821  0.807573  1.0
  H  H1000  1  0.519154  0.513487  0.359094  1.0
  H  H1001  1  0.994333  0.480846  0.359094  1.0
  H  H1002  1  0.486513  0.005667  0.359094  1.0
  H  H1003  1  0.185821  0.846820  0.692427  1.0
  H  H1004  1  0.661000  0.814179  0.692427  1.0
  H  H1005  1  0.153180  0.339000  0.692427  1.0
  H  H1006  1  0.852487  0.180154  0.025761  1.0
  H  H1007  1  0.327666  0.147513  0.025761  1.0
  H  H1008  1  0.819846  0.672334  0.025761  1.0
  H  H1009  1  0.908791  0.480973  0.878582  1.0
  H  H1010  1  0.572182  0.091209  0.878582  1.0
  H  H1011  1  0.519027  0.427818  0.878582  1.0
  H  H1012  1  0.242124  0.147640  0.545249  1.0
  H  H1013  1  0.905515  0.757876  0.545249  1.0
  H  H1014  1  0.852360  0.094485  0.545249  1.0
  H  H1015  1  0.575458  0.814306  0.211915  1.0
  H  H1016  1  0.238849  0.424542  0.211915  1.0
  H  H1017  1  0.185694  0.761151  0.211915  1.0
  H  H1018  1  0.427818  0.519027  0.621418  1.0
  H  H1019  1  0.091209  0.572182  0.621418  1.0
  H  H1020  1  0.480973  0.908791  0.621418  1.0
  H  H1021  1  0.761151  0.185694  0.288085  1.0
  H  H1022  1  0.424542  0.238849  0.288085  1.0
  H  H1023  1  0.814306  0.575458  0.288085  1.0
  H  H1024  1  0.094485  0.852360  0.954751  1.0
  H  H1025  1  0.757876  0.905515  0.954751  1.0
  H  H1026  1  0.147640  0.242124  0.954751  1.0
  H  H1027  1  0.091209  0.519027  0.121418  1.0
  H  H1028  1  0.427818  0.908791  0.121418  1.0
  H  H1029  1  0.480973  0.572182  0.121418  1.0
  H  H1030  1  0.757876  0.852360  0.454751  1.0
  H  H1031  1  0.094485  0.242124  0.454751  1.0
  H  H1032  1  0.147640  0.905515  0.454751  1.0
  H  H1033  1  0.424542  0.185694  0.788085  1.0
  H  H1034  1  0.761151  0.575458  0.788085  1.0
  H  H1035  1  0.814306  0.238849  0.788085  1.0
  H  H1036  1  0.572182  0.480973  0.378582  1.0
  H  H1037  1  0.908791  0.427818  0.378582  1.0
  H  H1038  1  0.519027  0.091209  0.378582  1.0
  H  H1039  1  0.238849  0.814306  0.711915  1.0
  H  H1040  1  0.575458  0.761151  0.711915  1.0
  H  H1041  1  0.185694  0.424542  0.711915  1.0
  H  H1042  1  0.905515  0.147640  0.045249  1.0
  H  H1043  1  0.242124  0.094485  0.045249  1.0
  H  H1044  1  0.852360  0.757876  0.045249  1.0
  H  H1045  1  0.842912  0.474953  0.892679  1.0
  H  H1046  1  0.632041  0.157088  0.892679  1.0
  H  H1047  1  0.525047  0.367959  0.892679  1.0
  H  H1048  1  0.176245  0.141620  0.559346  1.0
  H  H1049  1  0.965374  0.823755  0.559346  1.0
  H  H1050  1  0.858380  0.034626  0.559346  1.0
  H  H1051  1  0.509579  0.808286  0.226012  1.0
  H  H1052  1  0.298708  0.490421  0.226012  1.0
  H  H1053  1  0.191714  0.701292  0.226012  1.0
  H  H1054  1  0.367959  0.525047  0.607321  1.0
  H  H1055  1  0.157088  0.632041  0.607321  1.0
  H  H1056  1  0.474953  0.842912  0.607321  1.0
  H  H1057  1  0.701292  0.191714  0.273988  1.0
  H  H1058  1  0.490421  0.298708  0.273988  1.0
  H  H1059  1  0.808286  0.509579  0.273988  1.0
  H  H1060  1  0.034626  0.858380  0.940654  1.0
  H  H1061  1  0.823755  0.965374  0.940654  1.0
  H  H1062  1  0.141620  0.176245  0.940654  1.0
  H  H1063  1  0.157088  0.525047  0.107321  1.0
  H  H1064  1  0.367959  0.842912  0.107321  1.0
  H  H1065  1  0.474953  0.632041  0.107321  1.0
  H  H1066  1  0.823755  0.858380  0.440654  1.0
  H  H1067  1  0.034626  0.176245  0.440654  1.0
  H  H1068  1  0.141620  0.965374  0.440654  1.0
  H  H1069  1  0.490421  0.191714  0.773988  1.0
  H  H1070  1  0.701292  0.509579  0.773988  1.0
  H  H1071  1  0.808286  0.298708  0.773988  1.0
  H  H1072  1  0.632041  0.474953  0.392679  1.0
  H  H1073  1  0.842912  0.367959  0.392679  1.0
  H  H1074  1  0.525047  0.157088  0.392679  1.0
  H  H1075  1  0.298708  0.808286  0.726012  1.0
  H  H1076  1  0.509579  0.701292  0.726012  1.0
  H  H1077  1  0.191714  0.490421  0.726012  1.0
  H  H1078  1  0.965374  0.141620  0.059346  1.0
  H  H1079  1  0.176245  0.034626  0.059346  1.0
  H  H1080  1  0.858380  0.823755  0.059346  1.0
  H  H1081  1  0.837490  0.542875  0.897569  1.0
  H  H1082  1  0.705385  0.162510  0.897569  1.0
  H  H1083  1  0.457125  0.294615  0.897569  1.0
  H  H1084  1  0.170823  0.209542  0.564236  1.0
  H  H1085  1  0.038718  0.829177  0.564236  1.0
  H  H1086  1  0.790458  0.961282  0.564236  1.0
  H  H1087  1  0.504157  0.876208  0.230902  1.0
  H  H1088  1  0.372052  0.495843  0.230902  1.0
  H  H1089  1  0.123792  0.627948  0.230902  1.0
  H  H1090  1  0.294615  0.457125  0.602431  1.0
  H  H1091  1  0.162510  0.705385  0.602431  1.0
  H  H1092  1  0.542875  0.837490  0.602431  1.0
  H  H1093  1  0.627948  0.123792  0.269098  1.0
  H  H1094  1  0.495843  0.372052  0.269098  1.0
  H  H1095  1  0.876208  0.504157  0.269098  1.0
  H  H1096  1  0.961282  0.790458  0.935764  1.0
  H  H1097  1  0.829177  0.038718  0.935764  1.0
  H  H1098  1  0.209542  0.170823  0.935764  1.0
  H  H1099  1  0.162510  0.457125  0.102431  1.0
  H  H1100  1  0.294615  0.837490  0.102431  1.0
  H  H1101  1  0.542875  0.705385  0.102431  1.0
  H  H1102  1  0.829177  0.790458  0.435764  1.0
  H  H1103  1  0.961282  0.170823  0.435764  1.0
  H  H1104  1  0.209542  0.038718  0.435764  1.0
  H  H1105  1  0.495843  0.123792  0.769098  1.0
  H  H1106  1  0.627948  0.504157  0.769098  1.0
  H  H1107  1  0.876208  0.372052  0.769098  1.0
  H  H1108  1  0.705385  0.542875  0.397569  1.0
  H  H1109  1  0.837490  0.294615  0.397569  1.0
  H  H1110  1  0.457125  0.162510  0.397569  1.0
  H  H1111  1  0.372052  0.876208  0.730902  1.0
  H  H1112  1  0.504157  0.627948  0.730902  1.0
  H  H1113  1  0.123792  0.495843  0.730902  1.0
  H  H1114  1  0.038718  0.209542  0.064236  1.0
  H  H1115  1  0.170823  0.961282  0.064236  1.0
  H  H1116  1  0.790458  0.829177  0.064236  1.0
  H  H1117  1  0.897945  0.616814  0.888363  1.0
  H  H1118  1  0.718869  0.102055  0.888363  1.0
  H  H1119  1  0.383186  0.281131  0.888363  1.0
  H  H1120  1  0.231278  0.283481  0.555030  1.0
  H  H1121  1  0.052202  0.768722  0.555030  1.0
  H  H1122  1  0.716519  0.947798  0.555030  1.0
  H  H1123  1  0.564612  0.950147  0.221696  1.0
  H  H1124  1  0.385536  0.435388  0.221696  1.0
  H  H1125  1  0.049853  0.614464  0.221696  1.0
  H  H1126  1  0.281131  0.383186  0.611637  1.0
  H  H1127  1  0.102055  0.718869  0.611637  1.0
  H  H1128  1  0.616814  0.897945  0.611637  1.0
  H  H1129  1  0.614464  0.049853  0.278304  1.0
  H  H1130  1  0.435388  0.385536  0.278304  1.0
  H  H1131  1  0.950147  0.564612  0.278304  1.0
  H  H1132  1  0.947798  0.716519  0.944970  1.0
  H  H1133  1  0.768722  0.052202  0.944970  1.0
  H  H1134  1  0.283481  0.231278  0.944970  1.0
  H  H1135  1  0.102055  0.383186  0.111637  1.0
  H  H1136  1  0.281131  0.897945  0.111637  1.0
  H  H1137  1  0.616814  0.718869  0.111637  1.0
  H  H1138  1  0.768722  0.716519  0.444970  1.0
  H  H1139  1  0.947798  0.231278  0.444970  1.0
  H  H1140  1  0.283481  0.052202  0.444970  1.0
  H  H1141  1  0.435388  0.049853  0.778304  1.0
  H  H1142  1  0.614464  0.564612  0.778304  1.0
  H  H1143  1  0.950147  0.385536  0.778304  1.0
  H  H1144  1  0.718869  0.616814  0.388363  1.0
  H  H1145  1  0.897945  0.281131  0.388363  1.0
  H  H1146  1  0.383186  0.102055  0.388363  1.0
  H  H1147  1  0.385536  0.950147  0.721696  1.0
  H  H1148  1  0.564612  0.614464  0.721696  1.0
  H  H1149  1  0.049853  0.435388  0.721696  1.0
  H  H1150  1  0.052202  0.283481  0.055030  1.0
  H  H1151  1  0.231278  0.947798  0.055030  1.0
  H  H1152  1  0.716519  0.768722  0.055030  1.0
  H  H1153  1  0.995594  0.695796  0.848416  1.0
  H  H1154  1  0.700202  0.004406  0.848416  1.0
  H  H1155  1  0.304204  0.299798  0.848416  1.0
  H  H1156  1  0.328927  0.362463  0.515083  1.0
  H  H1157  1  0.033535  0.671073  0.515083  1.0
  H  H1158  1  0.637537  0.966465  0.515083  1.0
  H  H1159  1  0.662261  0.029129  0.181749  1.0
  H  H1160  1  0.366869  0.337739  0.181749  1.0
  H  H1161  1  0.970871  0.633131  0.181749  1.0
  H  H1162  1  0.299798  0.304204  0.651584  1.0
  H  H1163  1  0.004406  0.700202  0.651584  1.0
  H  H1164  1  0.695796  0.995594  0.651584  1.0
  H  H1165  1  0.633131  0.970871  0.318251  1.0
  H  H1166  1  0.337739  0.366869  0.318251  1.0
  H  H1167  1  0.029129  0.662261  0.318251  1.0
  H  H1168  1  0.966465  0.637537  0.984917  1.0
  H  H1169  1  0.671073  0.033535  0.984917  1.0
  H  H1170  1  0.362463  0.328927  0.984917  1.0
  H  H1171  1  0.004406  0.304204  0.151584  1.0
  H  H1172  1  0.299798  0.995594  0.151584  1.0
  H  H1173  1  0.695796  0.700202  0.151584  1.0
  H  H1174  1  0.671073  0.637537  0.484917  1.0
  H  H1175  1  0.966465  0.328927  0.484917  1.0
  H  H1176  1  0.362463  0.033535  0.484917  1.0
  H  H1177  1  0.337739  0.970871  0.818251  1.0
  H  H1178  1  0.633131  0.662261  0.818251  1.0
  H  H1179  1  0.029129  0.366869  0.818251  1.0
  H  H1180  1  0.700202  0.695796  0.348416  1.0
  H  H1181  1  0.995594  0.299798  0.348416  1.0
  H  H1182  1  0.304204  0.004406  0.348416  1.0
  H  H1183  1  0.366869  0.029129  0.681749  1.0
  H  H1184  1  0.662261  0.633131  0.681749  1.0
  H  H1185  1  0.970871  0.337739  0.681749  1.0
  H  H1186  1  0.033535  0.362463  0.015083  1.0
  H  H1187  1  0.328927  0.966465  0.015083  1.0
  H  H1188  1  0.637537  0.671073  0.015083  1.0
  H  H1189  1  0.998094  0.685999  0.899391  1.0
  H  H1190  1  0.687905  0.001906  0.899391  1.0
  H  H1191  1  0.314001  0.312095  0.899391  1.0
  H  H1192  1  0.331427  0.352666  0.566058  1.0
  H  H1193  1  0.021238  0.668573  0.566058  1.0
  H  H1194  1  0.647334  0.978762  0.566058  1.0
  H  H1195  1  0.664761  0.019332  0.232724  1.0
  H  H1196  1  0.354572  0.335239  0.232724  1.0
  H  H1197  1  0.980668  0.645428  0.232724  1.0
  H  H1198  1  0.312095  0.314001  0.600609  1.0
  H  H1199  1  0.001906  0.687905  0.600609  1.0
  H  H1200  1  0.685999  0.998094  0.600609  1.0
  H  H1201  1  0.645428  0.980668  0.267276  1.0
  H  H1202  1  0.335239  0.354572  0.267276  1.0
  H  H1203  1  0.019332  0.664761  0.267276  1.0
  H  H1204  1  0.978762  0.647334  0.933942  1.0
  H  H1205  1  0.668573  0.021238  0.933942  1.0
  H  H1206  1  0.352666  0.331427  0.933942  1.0
  H  H1207  1  0.001906  0.314001  0.100609  1.0
  H  H1208  1  0.312095  0.998094  0.100609  1.0
  H  H1209  1  0.685999  0.687905  0.100609  1.0
  H  H1210  1  0.668573  0.647334  0.433942  1.0
  H  H1211  1  0.978762  0.331427  0.433942  1.0
  H  H1212  1  0.352666  0.021238  0.433942  1.0
  H  H1213  1  0.335239  0.980668  0.767276  1.0
  H  H1214  1  0.645428  0.664761  0.767276  1.0
  H  H1215  1  0.019332  0.354572  0.767276  1.0
  H  H1216  1  0.687905  0.685999  0.399391  1.0
  H  H1217  1  0.998094  0.312095  0.399391  1.0
  H  H1218  1  0.314001  0.001906  0.399391  1.0
  H  H1219  1  0.354572  0.019332  0.732724  1.0
  H  H1220  1  0.664761  0.645428  0.732724  1.0
  H  H1221  1  0.980668  0.335239  0.732724  1.0
  H  H1222  1  0.021238  0.352666  0.066058  1.0
  H  H1223  1  0.331427  0.978762  0.066058  1.0
  H  H1224  1  0.647334  0.668573  0.066058  1.0
  H  H1225  1  0.019093  0.765687  0.901802  1.0
  H  H1226  1  0.746594  0.980907  0.901802  1.0
  H  H1227  1  0.234313  0.253406  0.901802  1.0
  H  H1228  1  0.352426  0.432354  0.568469  1.0
  H  H1229  1  0.079927  0.647574  0.568469  1.0
  H  H1230  1  0.567646  0.920073  0.568469  1.0
  H  H1231  1  0.685760  0.099020  0.235135  1.0
  H  H1232  1  0.413261  0.314240  0.235135  1.0
  H  H1233  1  0.900980  0.586739  0.235135  1.0
  H  H1234  1  0.253406  0.234313  0.598198  1.0
  H  H1235  1  0.980907  0.746594  0.598198  1.0
  H  H1236  1  0.765687  0.019093  0.598198  1.0
  H  H1237  1  0.586739  0.900980  0.264865  1.0
  H  H1238  1  0.314240  0.413261  0.264865  1.0
  H  H1239  1  0.099020  0.685760  0.264865  1.0
  H  H1240  1  0.920073  0.567646  0.931531  1.0
  H  H1241  1  0.647574  0.079927  0.931531  1.0
  H  H1242  1  0.432354  0.352426  0.931531  1.0
  H  H1243  1  0.980907  0.234313  0.098198  1.0
  H  H1244  1  0.253406  0.019093  0.098198  1.0
  H  H1245  1  0.765687  0.746594  0.098198  1.0
  H  H1246  1  0.647574  0.567646  0.431531  1.0
  H  H1247  1  0.920073  0.352426  0.431531  1.0
  H  H1248  1  0.432354  0.079927  0.431531  1.0
  H  H1249  1  0.314240  0.900980  0.764865  1.0
  H  H1250  1  0.586739  0.685760  0.764865  1.0
  H  H1251  1  0.099020  0.413261  0.764865  1.0
  H  H1252  1  0.746594  0.765687  0.401802  1.0
  H  H1253  1  0.019093  0.253406  0.401802  1.0
  H  H1254  1  0.234313  0.980907  0.401802  1.0
  H  H1255  1  0.413261  0.099020  0.735135  1.0
  H  H1256  1  0.685760  0.586739  0.735135  1.0
  H  H1257  1  0.900980  0.314240  0.735135  1.0
  H  H1258  1  0.079927  0.432354  0.068469  1.0
  H  H1259  1  0.352426  0.920073  0.068469  1.0
  H  H1260  1  0.567646  0.647574  0.068469  1.0
  H  H1261  1  0.003725  0.762513  0.824641  1.0
  H  H1262  1  0.758788  0.996275  0.824641  1.0
  H  H1263  1  0.237487  0.241212  0.824641  1.0
  H  H1264  1  0.337058  0.429180  0.491308  1.0
  H  H1265  1  0.092121  0.662942  0.491308  1.0
  H  H1266  1  0.570820  0.907879  0.491308  1.0
  H  H1267  1  0.670392  0.095846  0.157974  1.0
  H  H1268  1  0.425455  0.329608  0.157974  1.0
  H  H1269  1  0.904154  0.574545  0.157974  1.0
  H  H1270  1  0.241212  0.237487  0.675359  1.0
  H  H1271  1  0.996275  0.758788  0.675359  1.0
  H  H1272  1  0.762513  0.003725  0.675359  1.0
  H  H1273  1  0.574545  0.904154  0.342026  1.0
  H  H1274  1  0.329608  0.425455  0.342026  1.0
  H  H1275  1  0.095846  0.670392  0.342026  1.0
  H  H1276  1  0.907879  0.570820  0.008692  1.0
  H  H1277  1  0.662942  0.092121  0.008692  1.0
  H  H1278  1  0.429180  0.337058  0.008692  1.0
  H  H1279  1  0.996275  0.237487  0.175359  1.0
  H  H1280  1  0.241212  0.003725  0.175359  1.0
  H  H1281  1  0.762513  0.758788  0.175359  1.0
  H  H1282  1  0.662942  0.570820  0.508692  1.0
  H  H1283  1  0.907879  0.337058  0.508692  1.0
  H  H1284  1  0.429180  0.092121  0.508692  1.0
  H  H1285  1  0.329608  0.904154  0.842026  1.0
  H  H1286  1  0.574545  0.670392  0.842026  1.0
  H  H1287  1  0.095846  0.425455  0.842026  1.0
  H  H1288  1  0.758788  0.762513  0.324641  1.0
  H  H1289  1  0.003725  0.241212  0.324641  1.0
  H  H1290  1  0.237487  0.996275  0.324641  1.0
  H  H1291  1  0.425455  0.095846  0.657974  1.0
  H  H1292  1  0.670392  0.574545  0.657974  1.0
  H  H1293  1  0.904154  0.329608  0.657974  1.0
  H  H1294  1  0.092121  0.429180  0.991308  1.0
  H  H1295  1  0.337058  0.907879  0.991308  1.0
  H  H1296  1  0.570820  0.662942  0.991308  1.0
  H  H1297  1  0.029945  0.897853  0.824887  1.0
  H  H1298  1  0.867908  0.970055  0.824887  1.0
  H  H1299  1  0.102147  0.132092  0.824887  1.0
  H  H1300  1  0.363278  0.564520  0.491554  1.0
  H  H1301  1  0.201241  0.636722  0.491554  1.0
  H  H1302  1  0.435480  0.798759  0.491554  1.0
  H  H1303  1  0.696612  0.231186  0.158220  1.0
  H  H1304  1  0.534575  0.303388  0.158220  1.0
  H  H1305  1  0.768814  0.465425  0.158220  1.0
  H  H1306  1  0.132092  0.102147  0.675113  1.0
  H  H1307  1  0.970055  0.867908  0.675113  1.0
  H  H1308  1  0.897853  0.029945  0.675113  1.0
  H  H1309  1  0.465425  0.768814  0.341780  1.0
  H  H1310  1  0.303388  0.534575  0.341780  1.0
  H  H1311  1  0.231186  0.696612  0.341780  1.0
  H  H1312  1  0.798759  0.435480  0.008446  1.0
  H  H1313  1  0.636722  0.201241  0.008446  1.0
  H  H1314  1  0.564520  0.363278  0.008446  1.0
  H  H1315  1  0.970055  0.102147  0.175113  1.0
  H  H1316  1  0.132092  0.029945  0.175113  1.0
  H  H1317  1  0.897853  0.867908  0.175113  1.0
  H  H1318  1  0.636722  0.435480  0.508446  1.0
  H  H1319  1  0.798759  0.363278  0.508446  1.0
  H  H1320  1  0.564520  0.201241  0.508446  1.0
  H  H1321  1  0.303388  0.768814  0.841780  1.0
  H  H1322  1  0.465425  0.696612  0.841780  1.0
  H  H1323  1  0.231186  0.534575  0.841780  1.0
  H  H1324  1  0.867908  0.897853  0.324887  1.0
  H  H1325  1  0.029945  0.132092  0.324887  1.0
  H  H1326  1  0.102147  0.970055  0.324887  1.0
  H  H1327  1  0.534575  0.231186  0.658220  1.0
  H  H1328  1  0.696612  0.465425  0.658220  1.0
  H  H1329  1  0.768814  0.303388  0.658220  1.0
  H  H1330  1  0.201241  0.564520  0.991554  1.0
  H  H1331  1  0.363278  0.798759  0.991554  1.0
  H  H1332  1  0.435480  0.636722  0.991554  1.0
  H  H1333  1  0.037167  0.899953  0.854320  1.0
  H  H1334  1  0.862786  0.962833  0.854320  1.0
  H  H1335  1  0.100047  0.137214  0.854320  1.0
  H  H1336  1  0.370500  0.566620  0.520987  1.0
  H  H1337  1  0.196119  0.629500  0.520987  1.0
  H  H1338  1  0.433380  0.803881  0.520987  1.0
  H  H1339  1  0.703834  0.233286  0.187653  1.0
  H  H1340  1  0.529453  0.296166  0.187653  1.0
  H  H1341  1  0.766714  0.470547  0.187653  1.0
  H  H1342  1  0.137214  0.100047  0.645680  1.0
  H  H1343  1  0.962833  0.862786  0.645680  1.0
  H  H1344  1  0.899953  0.037167  0.645680  1.0
  H  H1345  1  0.470547  0.766714  0.312347  1.0
  H  H1346  1  0.296166  0.529453  0.312347  1.0
  H  H1347  1  0.233286  0.703834  0.312347  1.0
  H  H1348  1  0.803881  0.433380  0.979013  1.0
  H  H1349  1  0.629500  0.196119  0.979013  1.0
  H  H1350  1  0.566620  0.370500  0.979013  1.0
  H  H1351  1  0.962833  0.100047  0.145680  1.0
  H  H1352  1  0.137214  0.037167  0.145680  1.0
  H  H1353  1  0.899953  0.862786  0.145680  1.0
  H  H1354  1  0.629500  0.433380  0.479013  1.0
  H  H1355  1  0.803881  0.370500  0.479013  1.0
  H  H1356  1  0.566620  0.196119  0.479013  1.0
  H  H1357  1  0.296166  0.766714  0.812347  1.0
  H  H1358  1  0.470547  0.703834  0.812347  1.0
  H  H1359  1  0.233286  0.529453  0.812347  1.0
  H  H1360  1  0.862786  0.899953  0.354320  1.0
  H  H1361  1  0.037167  0.137214  0.354320  1.0
  H  H1362  1  0.100047  0.962833  0.354320  1.0
  H  H1363  1  0.529453  0.233286  0.687653  1.0
  H  H1364  1  0.703834  0.470547  0.687653  1.0
  H  H1365  1  0.766714  0.296166  0.687653  1.0
  H  H1366  1  0.196119  0.566620  0.020987  1.0
  H  H1367  1  0.370500  0.803881  0.020987  1.0
  H  H1368  1  0.433380  0.629500  0.020987  1.0
  H  H1369  1  0.082733  0.810400  0.804634  1.0
  H  H1370  1  0.727667  0.917267  0.804634  1.0
  H  H1371  1  0.189600  0.272333  0.804634  1.0
  H  H1372  1  0.416066  0.477067  0.471301  1.0
  H  H1373  1  0.061000  0.583934  0.471301  1.0
  H  H1374  1  0.522933  0.939000  0.471301  1.0
  H  H1375  1  0.749400  0.143733  0.137967  1.0
  H  H1376  1  0.394334  0.250600  0.137967  1.0
  H  H1377  1  0.856267  0.605666  0.137967  1.0
  H  H1378  1  0.272333  0.189600  0.695366  1.0
  H  H1379  1  0.917267  0.727667  0.695366  1.0
  H  H1380  1  0.810400  0.082733  0.695366  1.0
  H  H1381  1  0.605666  0.856267  0.362033  1.0
  H  H1382  1  0.250600  0.394334  0.362033  1.0
  H  H1383  1  0.143733  0.749400  0.362033  1.0
  H  H1384  1  0.939000  0.522933  0.028699  1.0
  H  H1385  1  0.583934  0.061000  0.028699  1.0
  H  H1386  1  0.477067  0.416066  0.028699  1.0
  H  H1387  1  0.917267  0.189600  0.195366  1.0
  H  H1388  1  0.272333  0.082733  0.195366  1.0
  H  H1389  1  0.810400  0.727667  0.195366  1.0
  H  H1390  1  0.583934  0.522933  0.528699  1.0
  H  H1391  1  0.939000  0.416066  0.528699  1.0
  H  H1392  1  0.477067  0.061000  0.528699  1.0
  H  H1393  1  0.250600  0.856267  0.862033  1.0
  H  H1394  1  0.605666  0.749400  0.862033  1.0
  H  H1395  1  0.143733  0.394334  0.862033  1.0
  H  H1396  1  0.727667  0.810400  0.304634  1.0
  H  H1397  1  0.082733  0.272333  0.304634  1.0
  H  H1398  1  0.189600  0.917267  0.304634  1.0
  H  H1399  1  0.394334  0.143733  0.637967  1.0
  H  H1400  1  0.749400  0.605666  0.637967  1.0
  H  H1401  1  0.856267  0.250600  0.637967  1.0
  H  H1402  1  0.061000  0.477067  0.971301  1.0
  H  H1403  1  0.416066  0.939000  0.971301  1.0
  H  H1404  1  0.522933  0.583934  0.971301  1.0
  H  H1405  1  0.115168  0.795065  0.780742  1.0
  H  H1406  1  0.679897  0.884832  0.780742  1.0
  H  H1407  1  0.204935  0.320103  0.780742  1.0
  H  H1408  1  0.448501  0.461732  0.447409  1.0
  H  H1409  1  0.013230  0.551499  0.447409  1.0
  H  H1410  1  0.538268  0.986770  0.447409  1.0
  H  H1411  1  0.781835  0.128398  0.114075  1.0
  H  H1412  1  0.346564  0.218165  0.114075  1.0
  H  H1413  1  0.871602  0.653436  0.114075  1.0
  H  H1414  1  0.320103  0.204935  0.719258  1.0
  H  H1415  1  0.884832  0.679897  0.719258  1.0
  H  H1416  1  0.795065  0.115168  0.719258  1.0
  H  H1417  1  0.653436  0.871602  0.385925  1.0
  H  H1418  1  0.218165  0.346564  0.385925  1.0
  H  H1419  1  0.128398  0.781835  0.385925  1.0
  H  H1420  1  0.986770  0.538268  0.052591  1.0
  H  H1421  1  0.551499  0.013230  0.052591  1.0
  H  H1422  1  0.461732  0.448501  0.052591  1.0
  H  H1423  1  0.884832  0.204935  0.219258  1.0
  H  H1424  1  0.320103  0.115168  0.219258  1.0
  H  H1425  1  0.795065  0.679897  0.219258  1.0
  H  H1426  1  0.551499  0.538268  0.552591  1.0
  H  H1427  1  0.986770  0.448501  0.552591  1.0
  H  H1428  1  0.461732  0.013230  0.552591  1.0
  H  H1429  1  0.218165  0.871602  0.885925  1.0
  H  H1430  1  0.653436  0.781835  0.885925  1.0
  H  H1431  1  0.128398  0.346564  0.885925  1.0
  H  H1432  1  0.679897  0.795065  0.280742  1.0
  H  H1433  1  0.115168  0.320103  0.280742  1.0
  H  H1434  1  0.204935  0.884832  0.280742  1.0
  H  H1435  1  0.346564  0.128398  0.614075  1.0
  H  H1436  1  0.781835  0.653436  0.614075  1.0
  H  H1437  1  0.871602  0.218165  0.614075  1.0
  H  H1438  1  0.013230  0.461732  0.947409  1.0
  H  H1439  1  0.448501  0.986770  0.947409  1.0
  H  H1440  1  0.538268  0.551499  0.947409  1.0
  H  H1441  1  0.083939  0.793320  0.753970  1.0
  H  H1442  1  0.709381  0.916061  0.753970  1.0
  H  H1443  1  0.206680  0.290619  0.753970  1.0
  H  H1444  1  0.417272  0.459987  0.420637  1.0
  H  H1445  1  0.042714  0.582728  0.420637  1.0
  H  H1446  1  0.540013  0.957286  0.420637  1.0
  H  H1447  1  0.750606  0.126653  0.087303  1.0
  H  H1448  1  0.376048  0.249394  0.087303  1.0
  H  H1449  1  0.873347  0.623952  0.087303  1.0
  H  H1450  1  0.290619  0.206680  0.746030  1.0
  H  H1451  1  0.916061  0.709381  0.746030  1.0
  H  H1452  1  0.793320  0.083939  0.746030  1.0
  H  H1453  1  0.623952  0.873347  0.412697  1.0
  H  H1454  1  0.249394  0.376048  0.412697  1.0
  H  H1455  1  0.126653  0.750606  0.412697  1.0
  H  H1456  1  0.957286  0.540013  0.079363  1.0
  H  H1457  1  0.582728  0.042714  0.079363  1.0
  H  H1458  1  0.459987  0.417272  0.079363  1.0
  H  H1459  1  0.916061  0.206680  0.246030  1.0
  H  H1460  1  0.290619  0.083939  0.246030  1.0
  H  H1461  1  0.793320  0.709381  0.246030  1.0
  H  H1462  1  0.582728  0.540013  0.579363  1.0
  H  H1463  1  0.957286  0.417272  0.579363  1.0
  H  H1464  1  0.459987  0.042714  0.579363  1.0
  H  H1465  1  0.249394  0.873347  0.912697  1.0
  H  H1466  1  0.623952  0.750606  0.912697  1.0
  H  H1467  1  0.126653  0.376048  0.912697  1.0
  H  H1468  1  0.709381  0.793320  0.253970  1.0
  H  H1469  1  0.083939  0.290619  0.253970  1.0
  H  H1470  1  0.206680  0.916061  0.253970  1.0
  H  H1471  1  0.376048  0.126653  0.587303  1.0
  H  H1472  1  0.750606  0.623952  0.587303  1.0
  H  H1473  1  0.873347  0.249394  0.587303  1.0
  H  H1474  1  0.042714  0.459987  0.920637  1.0
  H  H1475  1  0.417272  0.957286  0.920637  1.0
  H  H1476  1  0.540013  0.582728  0.920637  1.0
  H  H1477  1  0.020275  0.806911  0.751090  1.0
  H  H1478  1  0.786636  0.979725  0.751090  1.0
  H  H1479  1  0.193089  0.213364  0.751090  1.0
  H  H1480  1  0.353608  0.473578  0.417757  1.0
  H  H1481  1  0.119969  0.646392  0.417757  1.0
  H  H1482  1  0.526422  0.880031  0.417757  1.0
  H  H1483  1  0.686942  0.140244  0.084423  1.0
  H  H1484  1  0.453303  0.313058  0.084423  1.0
  H  H1485  1  0.859756  0.546697  0.084423  1.0
  H  H1486  1  0.213364  0.193089  0.748910  1.0
  H  H1487  1  0.979725  0.786636  0.748910  1.0
  H  H1488  1  0.806911  0.020275  0.748910  1.0
  H  H1489  1  0.546697  0.859756  0.415577  1.0
  H  H1490  1  0.313058  0.453303  0.415577  1.0
  H  H1491  1  0.140244  0.686942  0.415577  1.0
  H  H1492  1  0.880031  0.526422  0.082243  1.0
  H  H1493  1  0.646392  0.119969  0.082243  1.0
  H  H1494  1  0.473578  0.353608  0.082243  1.0
  H  H1495  1  0.979725  0.193089  0.248910  1.0
  H  H1496  1  0.213364  0.020275  0.248910  1.0
  H  H1497  1  0.806911  0.786636  0.248910  1.0
  H  H1498  1  0.646392  0.526422  0.582243  1.0
  H  H1499  1  0.880031  0.353608  0.582243  1.0
  H  H1500  1  0.473578  0.119969  0.582243  1.0
  H  H1501  1  0.313058  0.859756  0.915577  1.0
  H  H1502  1  0.546697  0.686942  0.915577  1.0
  H  H1503  1  0.140244  0.453303  0.915577  1.0
  H  H1504  1  0.786636  0.806911  0.251090  1.0
  H  H1505  1  0.020275  0.213364  0.251090  1.0
  H  H1506  1  0.193089  0.979725  0.251090  1.0
  H  H1507  1  0.453303  0.140244  0.584423  1.0
  H  H1508  1  0.686942  0.546697  0.584423  1.0
  H  H1509  1  0.859756  0.313058  0.584423  1.0
  H  H1510  1  0.119969  0.473578  0.917757  1.0
  H  H1511  1  0.353608  0.880031  0.917757  1.0
  H  H1512  1  0.526422  0.646392  0.917757  1.0
  H  H1513  1  0.940868  0.821635  0.756258  1.0
  H  H1514  1  0.880767  0.059132  0.756258  1.0
  H  H1515  1  0.178365  0.119233  0.756258  1.0
  H  H1516  1  0.274201  0.488302  0.422925  1.0
  H  H1517  1  0.214100  0.725799  0.422925  1.0
  H  H1518  1  0.511698  0.785900  0.422925  1.0
  H  H1519  1  0.607535  0.154968  0.089591  1.0
  H  H1520  1  0.547434  0.392465  0.089591  1.0
  H  H1521  1  0.845032  0.452566  0.089591  1.0
  H  H1522  1  0.119233  0.178365  0.743742  1.0
  H  H1523  1  0.059132  0.880767  0.743742  1.0
  H  H1524  1  0.821635  0.940868  0.743742  1.0
  H  H1525  1  0.452566  0.845032  0.410409  1.0
  H  H1526  1  0.392465  0.547434  0.410409  1.0
  H  H1527  1  0.154968  0.607535  0.410409  1.0
  H  H1528  1  0.785900  0.511698  0.077075  1.0
  H  H1529  1  0.725799  0.214100  0.077075  1.0
  H  H1530  1  0.488302  0.274201  0.077075  1.0
  H  H1531  1  0.059132  0.178365  0.243742  1.0
  H  H1532  1  0.119233  0.940868  0.243742  1.0
  H  H1533  1  0.821635  0.880767  0.243742  1.0
  H  H1534  1  0.725799  0.511698  0.577075  1.0
  H  H1535  1  0.785900  0.274201  0.577075  1.0
  H  H1536  1  0.488302  0.214100  0.577075  1.0
  H  H1537  1  0.392465  0.845032  0.910409  1.0
  H  H1538  1  0.452566  0.607535  0.910409  1.0
  H  H1539  1  0.154968  0.547434  0.910409  1.0
  H  H1540  1  0.880767  0.821635  0.256258  1.0
  H  H1541  1  0.940868  0.119233  0.256258  1.0
  H  H1542  1  0.178365  0.059132  0.256258  1.0
  H  H1543  1  0.547434  0.154968  0.589591  1.0
  H  H1544  1  0.607535  0.452566  0.589591  1.0
  H  H1545  1  0.845032  0.392465  0.589591  1.0
  H  H1546  1  0.214100  0.488302  0.922925  1.0
  H  H1547  1  0.274201  0.785900  0.922925  1.0
  H  H1548  1  0.511698  0.725799  0.922925  1.0
  H  H1549  1  0.883591  0.836722  0.767754  1.0
  H  H1550  1  0.953131  0.116409  0.767754  1.0
  H  H1551  1  0.163278  0.046869  0.767754  1.0
  H  H1552  1  0.216924  0.503389  0.434421  1.0
  H  H1553  1  0.286464  0.783076  0.434421  1.0
  H  H1554  1  0.496611  0.713536  0.434421  1.0
  H  H1555  1  0.550258  0.170055  0.101087  1.0
  H  H1556  1  0.619798  0.449742  0.101087  1.0
  H  H1557  1  0.829945  0.380202  0.101087  1.0
  H  H1558  1  0.046869  0.163278  0.732246  1.0
  H  H1559  1  0.116409  0.953131  0.732246  1.0
  H  H1560  1  0.836722  0.883591  0.732246  1.0
  H  H1561  1  0.380202  0.829945  0.398913  1.0
  H  H1562  1  0.449742  0.619798  0.398913  1.0
  H  H1563  1  0.170055  0.550258  0.398913  1.0
  H  H1564  1  0.713536  0.496611  0.065579  1.0
  H  H1565  1  0.783076  0.286464  0.065579  1.0
  H  H1566  1  0.503389  0.216924  0.065579  1.0
  H  H1567  1  0.116409  0.163278  0.232246  1.0
  H  H1568  1  0.046869  0.883591  0.232246  1.0
  H  H1569  1  0.836722  0.953131  0.232246  1.0
  H  H1570  1  0.783076  0.496611  0.565579  1.0
  H  H1571  1  0.713536  0.216924  0.565579  1.0
  H  H1572  1  0.503389  0.286464  0.565579  1.0
  H  H1573  1  0.449742  0.829945  0.898913  1.0
  H  H1574  1  0.380202  0.550258  0.898913  1.0
  H  H1575  1  0.170055  0.619798  0.898913  1.0
  H  H1576  1  0.953131  0.836722  0.267754  1.0
  H  H1577  1  0.883591  0.046869  0.267754  1.0
  H  H1578  1  0.163278  0.116409  0.267754  1.0
  H  H1579  1  0.619798  0.170055  0.601087  1.0
  H  H1580  1  0.550258  0.380202  0.601087  1.0
  H  H1581  1  0.829945  0.449742  0.601087  1.0
  H  H1582  1  0.286464  0.503389  0.934421  1.0
  H  H1583  1  0.216924  0.713536  0.934421  1.0
  H  H1584  1  0.496611  0.783076  0.934421  1.0
  H  H1585  1  0.882573  0.849033  0.796828  1.0
  H  H1586  1  0.966460  0.117427  0.796828  1.0
  H  H1587  1  0.150967  0.033540  0.796828  1.0
  H  H1588  1  0.215906  0.515700  0.463495  1.0
  H  H1589  1  0.299793  0.784094  0.463495  1.0
  H  H1590  1  0.484300  0.700207  0.463495  1.0
  H  H1591  1  0.549240  0.182366  0.130161  1.0
  H  H1592  1  0.633127  0.450760  0.130161  1.0
  H  H1593  1  0.817634  0.366873  0.130161  1.0
  H  H1594  1  0.033540  0.150967  0.703172  1.0
  H  H1595  1  0.117427  0.966460  0.703172  1.0
  H  H1596  1  0.849033  0.882573  0.703172  1.0
  H  H1597  1  0.366873  0.817634  0.369839  1.0
  H  H1598  1  0.450760  0.633127  0.369839  1.0
  H  H1599  1  0.182366  0.549240  0.369839  1.0
  H  H1600  1  0.700207  0.484300  0.036505  1.0
  H  H1601  1  0.784094  0.299793  0.036505  1.0
  H  H1602  1  0.515700  0.215906  0.036505  1.0
  H  H1603  1  0.117427  0.150967  0.203172  1.0
  H  H1604  1  0.033540  0.882573  0.203172  1.0
  H  H1605  1  0.849033  0.966460  0.203172  1.0
  H  H1606  1  0.784094  0.484300  0.536505  1.0
  H  H1607  1  0.700207  0.215906  0.536505  1.0
  H  H1608  1  0.515700  0.299793  0.536505  1.0
  H  H1609  1  0.450760  0.817634  0.869839  1.0
  H  H1610  1  0.366873  0.549240  0.869839  1.0
  H  H1611  1  0.182366  0.633127  0.869839  1.0
  H  H1612  1  0.966460  0.849033  0.296828  1.0
  H  H1613  1  0.882573  0.033540  0.296828  1.0
  H  H1614  1  0.150967  0.117427  0.296828  1.0
  H  H1615  1  0.633127  0.182366  0.630161  1.0
  H  H1616  1  0.549240  0.366873  0.630161  1.0
  H  H1617  1  0.817634  0.450760  0.630161  1.0
  H  H1618  1  0.299793  0.515700  0.963495  1.0
  H  H1619  1  0.215906  0.700207  0.963495  1.0
  H  H1620  1  0.484300  0.784094  0.963495  1.0
  H  H1621  1  0.938831  0.846255  0.814408  1.0
  H  H1622  1  0.907424  0.061169  0.814408  1.0
  H  H1623  1  0.153745  0.092576  0.814408  1.0
  H  H1624  1  0.272164  0.512922  0.481075  1.0
  H  H1625  1  0.240757  0.727836  0.481075  1.0
  H  H1626  1  0.487078  0.759243  0.481075  1.0
  H  H1627  1  0.605498  0.179588  0.147741  1.0
  H  H1628  1  0.574091  0.394502  0.147741  1.0
  H  H1629  1  0.820412  0.425909  0.147741  1.0
  H  H1630  1  0.092576  0.153745  0.685592  1.0
  H  H1631  1  0.061169  0.907424  0.685592  1.0
  H  H1632  1  0.846255  0.938831  0.685592  1.0
  H  H1633  1  0.425909  0.820412  0.352259  1.0
  H  H1634  1  0.394502  0.574091  0.352259  1.0
  H  H1635  1  0.179588  0.605498  0.352259  1.0
  H  H1636  1  0.759243  0.487078  0.018925  1.0
  H  H1637  1  0.727836  0.240757  0.018925  1.0
  H  H1638  1  0.512922  0.272164  0.018925  1.0
  H  H1639  1  0.061169  0.153745  0.185592  1.0
  H  H1640  1  0.092576  0.938831  0.185592  1.0
  H  H1641  1  0.846255  0.907424  0.185592  1.0
  H  H1642  1  0.727836  0.487078  0.518925  1.0
  H  H1643  1  0.759243  0.272164  0.518925  1.0
  H  H1644  1  0.512922  0.240757  0.518925  1.0
  H  H1645  1  0.394502  0.820412  0.852259  1.0
  H  H1646  1  0.425909  0.605498  0.852259  1.0
  H  H1647  1  0.179588  0.574091  0.852259  1.0
  H  H1648  1  0.907424  0.846255  0.314408  1.0
  H  H1649  1  0.938831  0.092576  0.314408  1.0
  H  H1650  1  0.153745  0.061169  0.314408  1.0
  H  H1651  1  0.574091  0.179588  0.647741  1.0
  H  H1652  1  0.605498  0.425909  0.647741  1.0
  H  H1653  1  0.820412  0.394502  0.647741  1.0
  H  H1654  1  0.240757  0.512922  0.981075  1.0
  H  H1655  1  0.272164  0.759243  0.981075  1.0
  H  H1656  1  0.487078  0.727836  0.981075  1.0
  H  H1657  1  0.683580  0.747919  0.931692  1.0
  H  H1658  1  0.064339  0.316420  0.931692  1.0
  H  H1659  1  0.252081  0.935661  0.931692  1.0
  H  H1660  1  0.016913  0.414586  0.598359  1.0
  H  H1661  1  0.397672  0.983087  0.598359  1.0
  H  H1662  1  0.585414  0.602328  0.598359  1.0
  H  H1663  1  0.350247  0.081252  0.265025  1.0
  H  H1664  1  0.731006  0.649753  0.265025  1.0
  H  H1665  1  0.918748  0.268994  0.265025  1.0
  H  H1666  1  0.935661  0.252081  0.568308  1.0
  H  H1667  1  0.316420  0.064339  0.568308  1.0
  H  H1668  1  0.747919  0.683580  0.568308  1.0
  H  H1669  1  0.268994  0.918748  0.234975  1.0
  H  H1670  1  0.649753  0.731006  0.234975  1.0
  H  H1671  1  0.081252  0.350247  0.234975  1.0
  H  H1672  1  0.602328  0.585414  0.901641  1.0
  H  H1673  1  0.983087  0.397672  0.901641  1.0
  H  H1674  1  0.414586  0.016913  0.901641  1.0
  H  H1675  1  0.316420  0.252081  0.068308  1.0
  H  H1676  1  0.935661  0.683580  0.068308  1.0
  H  H1677  1  0.747919  0.064339  0.068308  1.0
  H  H1678  1  0.983087  0.585414  0.401641  1.0
  H  H1679  1  0.602328  0.016913  0.401641  1.0
  H  H1680  1  0.414586  0.397672  0.401641  1.0
  H  H1681  1  0.649753  0.918748  0.734975  1.0
  H  H1682  1  0.268994  0.350247  0.734975  1.0
  H  H1683  1  0.081252  0.731006  0.734975  1.0
  H  H1684  1  0.064339  0.747919  0.431692  1.0
  H  H1685  1  0.683580  0.935661  0.431692  1.0
  H  H1686  1  0.252081  0.316420  0.431692  1.0
  H  H1687  1  0.731006  0.081252  0.765025  1.0
  H  H1688  1  0.350247  0.268994  0.765025  1.0
  H  H1689  1  0.918748  0.649753  0.765025  1.0
  H  H1690  1  0.397672  0.414586  0.098359  1.0
  H  H1691  1  0.016913  0.602328  0.098359  1.0
  H  H1692  1  0.585414  0.983087  0.098359  1.0
  H  H1693  1  0.609883  0.722221  0.943991  1.0
  H  H1694  1  0.112338  0.390117  0.943991  1.0
  H  H1695  1  0.277779  0.887662  0.943991  1.0
  H  H1696  1  0.943216  0.388888  0.610658  1.0
  H  H1697  1  0.445671  0.056784  0.610658  1.0
  H  H1698  1  0.611112  0.554329  0.610658  1.0
  H  H1699  1  0.276550  0.055554  0.277324  1.0
  H  H1700  1  0.779005  0.723450  0.277324  1.0
  H  H1701  1  0.944446  0.220995  0.277324  1.0
  H  H1702  1  0.887662  0.277779  0.556009  1.0
  H  H1703  1  0.390117  0.112338  0.556009  1.0
  H  H1704  1  0.722221  0.609883  0.556009  1.0
  H  H1705  1  0.220995  0.944446  0.222676  1.0
  H  H1706  1  0.723450  0.779005  0.222676  1.0
  H  H1707  1  0.055554  0.276550  0.222676  1.0
  H  H1708  1  0.554329  0.611112  0.889342  1.0
  H  H1709  1  0.056784  0.445671  0.889342  1.0
  H  H1710  1  0.388888  0.943216  0.889342  1.0
  H  H1711  1  0.390117  0.277779  0.056009  1.0
  H  H1712  1  0.887662  0.609883  0.056009  1.0
  H  H1713  1  0.722221  0.112338  0.056009  1.0
  H  H1714  1  0.056784  0.611112  0.389342  1.0
  H  H1715  1  0.554329  0.943216  0.389342  1.0
  H  H1716  1  0.388888  0.445671  0.389342  1.0
  H  H1717  1  0.723450  0.944446  0.722676  1.0
  H  H1718  1  0.220995  0.276550  0.722676  1.0
  H  H1719  1  0.055554  0.779005  0.722676  1.0
  H  H1720  1  0.112338  0.722221  0.443991  1.0
  H  H1721  1  0.609883  0.887662  0.443991  1.0
  H  H1722  1  0.277779  0.390117  0.443991  1.0
  H  H1723  1  0.779005  0.055554  0.777324  1.0
  H  H1724  1  0.276550  0.220995  0.777324  1.0
  H  H1725  1  0.944446  0.723450  0.777324  1.0
  H  H1726  1  0.445671  0.388888  0.110658  1.0
  H  H1727  1  0.943216  0.554329  0.110658  1.0
  H  H1728  1  0.611112  0.056784  0.110658  1.0
  H  H1729  1  0.604827  0.732848  0.972915  1.0
  H  H1730  1  0.128021  0.395173  0.972915  1.0
  H  H1731  1  0.267152  0.871979  0.972915  1.0
  H  H1732  1  0.938160  0.399515  0.639582  1.0
  H  H1733  1  0.461354  0.061840  0.639582  1.0
  H  H1734  1  0.600485  0.538646  0.639582  1.0
  H  H1735  1  0.271494  0.066181  0.306248  1.0
  H  H1736  1  0.794688  0.728506  0.306248  1.0
  H  H1737  1  0.933819  0.205312  0.306248  1.0
  H  H1738  1  0.871979  0.267152  0.527085  1.0
  H  H1739  1  0.395173  0.128021  0.527085  1.0
  H  H1740  1  0.732848  0.604827  0.527085  1.0
  H  H1741  1  0.205312  0.933819  0.193752  1.0
  H  H1742  1  0.728506  0.794688  0.193752  1.0
  H  H1743  1  0.066181  0.271494  0.193752  1.0
  H  H1744  1  0.538646  0.600485  0.860418  1.0
  H  H1745  1  0.061840  0.461354  0.860418  1.0
  H  H1746  1  0.399515  0.938160  0.860418  1.0
  H  H1747  1  0.395173  0.267152  0.027085  1.0
  H  H1748  1  0.871979  0.604827  0.027085  1.0
  H  H1749  1  0.732848  0.128021  0.027085  1.0
  H  H1750  1  0.061840  0.600485  0.360418  1.0
  H  H1751  1  0.538646  0.938160  0.360418  1.0
  H  H1752  1  0.399515  0.461354  0.360418  1.0
  H  H1753  1  0.728506  0.933819  0.693752  1.0
  H  H1754  1  0.205312  0.271494  0.693752  1.0
  H  H1755  1  0.066181  0.794688  0.693752  1.0
  H  H1756  1  0.128021  0.732848  0.472915  1.0
  H  H1757  1  0.604827  0.871979  0.472915  1.0
  H  H1758  1  0.267152  0.395173  0.472915  1.0
  H  H1759  1  0.794688  0.066181  0.806248  1.0
  H  H1760  1  0.271494  0.205312  0.806248  1.0
  H  H1761  1  0.933819  0.728506  0.806248  1.0
  H  H1762  1  0.461354  0.399515  0.139582  1.0
  H  H1763  1  0.938160  0.538646  0.139582  1.0
  H  H1764  1  0.600485  0.061840  0.139582  1.0
  H  H1765  1  0.747497  0.806122  0.975786  1.0
  H  H1766  1  0.058625  0.252503  0.975786  1.0
  H  H1767  1  0.193878  0.941375  0.975786  1.0
  H  H1768  1  0.080830  0.472789  0.642453  1.0
  H  H1769  1  0.391958  0.919170  0.642453  1.0
  H  H1770  1  0.527211  0.608042  0.642453  1.0
  H  H1771  1  0.414164  0.139455  0.309119  1.0
  H  H1772  1  0.725292  0.585836  0.309119  1.0
  H  H1773  1  0.860545  0.274708  0.309119  1.0
  H  H1774  1  0.941375  0.193878  0.524214  1.0
  H  H1775  1  0.252503  0.058625  0.524214  1.0
  H  H1776  1  0.806122  0.747497  0.524214  1.0
  H  H1777  1  0.274708  0.860545  0.190881  1.0
  H  H1778  1  0.585836  0.725292  0.190881  1.0
  H  H1779  1  0.139455  0.414164  0.190881  1.0
  H  H1780  1  0.608042  0.527211  0.857547  1.0
  H  H1781  1  0.919170  0.391958  0.857547  1.0
  H  H1782  1  0.472789  0.080830  0.857547  1.0
  H  H1783  1  0.252503  0.193878  0.024214  1.0
  H  H1784  1  0.941375  0.747497  0.024214  1.0
  H  H1785  1  0.806122  0.058625  0.024214  1.0
  H  H1786  1  0.919170  0.527211  0.357547  1.0
  H  H1787  1  0.608042  0.080830  0.357547  1.0
  H  H1788  1  0.472789  0.391958  0.357547  1.0
  H  H1789  1  0.585836  0.860545  0.690881  1.0
  H  H1790  1  0.274708  0.414164  0.690881  1.0
  H  H1791  1  0.139455  0.725292  0.690881  1.0
  H  H1792  1  0.058625  0.806122  0.475786  1.0
  H  H1793  1  0.747497  0.941375  0.475786  1.0
  H  H1794  1  0.193878  0.252503  0.475786  1.0
  H  H1795  1  0.725292  0.139455  0.809119  1.0
  H  H1796  1  0.414164  0.274708  0.809119  1.0
  H  H1797  1  0.860545  0.585836  0.809119  1.0
  H  H1798  1  0.391958  0.472789  0.142453  1.0
  H  H1799  1  0.080830  0.608042  0.142453  1.0
  H  H1800  1  0.527211  0.919170  0.142453  1.0
  H  H1801  1  0.597223  0.756173  0.030967  1.0
  H  H1802  1  0.158950  0.402777  0.030967  1.0
  H  H1803  1  0.243827  0.841050  0.030967  1.0
  H  H1804  1  0.930556  0.422840  0.697634  1.0
  H  H1805  1  0.492283  0.069444  0.697634  1.0
  H  H1806  1  0.577160  0.507717  0.697634  1.0
  H  H1807  1  0.263890  0.089506  0.364300  1.0
  H  H1808  1  0.825617  0.736110  0.364300  1.0
  H  H1809  1  0.910494  0.174383  0.364300  1.0
  H  H1810  1  0.841050  0.243827  0.469033  1.0
  H  H1811  1  0.402777  0.158950  0.469033  1.0
  H  H1812  1  0.756173  0.597223  0.469033  1.0
  H  H1813  1  0.174383  0.910494  0.135700  1.0
  H  H1814  1  0.736110  0.825617  0.135700  1.0
  H  H1815  1  0.089506  0.263890  0.135700  1.0
  H  H1816  1  0.507717  0.577160  0.802366  1.0
  H  H1817  1  0.069444  0.492283  0.802366  1.0
  H  H1818  1  0.422840  0.930556  0.802366  1.0
  H  H1819  1  0.402777  0.243827  0.969033  1.0
  H  H1820  1  0.841050  0.597223  0.969033  1.0
  H  H1821  1  0.756173  0.158950  0.969033  1.0
  H  H1822  1  0.069444  0.577160  0.302366  1.0
  H  H1823  1  0.507717  0.930556  0.302366  1.0
  H  H1824  1  0.422840  0.492283  0.302366  1.0
  H  H1825  1  0.736110  0.910494  0.635700  1.0
  H  H1826  1  0.174383  0.263890  0.635700  1.0
  H  H1827  1  0.089506  0.825617  0.635700  1.0
  H  H1828  1  0.158950  0.756173  0.530967  1.0
  H  H1829  1  0.597223  0.841050  0.530967  1.0
  H  H1830  1  0.243827  0.402777  0.530967  1.0
  H  H1831  1  0.825617  0.089506  0.864300  1.0
  H  H1832  1  0.263890  0.174383  0.864300  1.0
  H  H1833  1  0.910494  0.736110  0.864300  1.0
  H  H1834  1  0.492283  0.422840  0.197634  1.0
  H  H1835  1  0.930556  0.507717  0.197634  1.0
  H  H1836  1  0.577160  0.069444  0.197634  1.0
  H  H1837  1  0.596544  0.783400  0.058602  1.0
  H  H1838  1  0.186856  0.403456  0.058602  1.0
  H  H1839  1  0.216600  0.813144  0.058602  1.0
  H  H1840  1  0.929877  0.450067  0.725269  1.0
  H  H1841  1  0.520189  0.070123  0.725269  1.0
  H  H1842  1  0.549933  0.479811  0.725269  1.0
  H  H1843  1  0.263211  0.116733  0.391935  1.0
  H  H1844  1  0.853523  0.736789  0.391935  1.0
  H  H1845  1  0.883267  0.146477  0.391935  1.0
  H  H1846  1  0.813144  0.216600  0.441398  1.0
  H  H1847  1  0.403456  0.186856  0.441398  1.0
  H  H1848  1  0.783400  0.596544  0.441398  1.0
  H  H1849  1  0.146477  0.883267  0.108065  1.0
  H  H1850  1  0.736789  0.853523  0.108065  1.0
  H  H1851  1  0.116733  0.263211  0.108065  1.0
  H  H1852  1  0.479811  0.549933  0.774731  1.0
  H  H1853  1  0.070123  0.520189  0.774731  1.0
  H  H1854  1  0.450067  0.929877  0.774731  1.0
  H  H1855  1  0.403456  0.216600  0.941398  1.0
  H  H1856  1  0.813144  0.596544  0.941398  1.0
  H  H1857  1  0.783400  0.186856  0.941398  1.0
  H  H1858  1  0.070123  0.549933  0.274731  1.0
  H  H1859  1  0.479811  0.929877  0.274731  1.0
  H  H1860  1  0.450067  0.520189  0.274731  1.0
  H  H1861  1  0.736789  0.883267  0.608065  1.0
  H  H1862  1  0.146477  0.263211  0.608065  1.0
  H  H1863  1  0.116733  0.853523  0.608065  1.0
  H  H1864  1  0.186856  0.783400  0.558602  1.0
  H  H1865  1  0.596544  0.813144  0.558602  1.0
  H  H1866  1  0.216600  0.403456  0.558602  1.0
  H  H1867  1  0.853523  0.116733  0.891935  1.0
  H  H1868  1  0.263211  0.146477  0.891935  1.0
  H  H1869  1  0.883267  0.736789  0.891935  1.0
  H  H1870  1  0.520189  0.450067  0.225269  1.0
  H  H1871  1  0.929877  0.479811  0.225269  1.0
  H  H1872  1  0.549933  0.070123  0.225269  1.0
  H  H1873  1  0.661159  0.848343  0.069405  1.0
  H  H1874  1  0.187184  0.338841  0.069405  1.0
  H  H1875  1  0.151657  0.812816  0.069405  1.0
  H  H1876  1  0.994492  0.515010  0.736072  1.0
  H  H1877  1  0.520517  0.005508  0.736072  1.0
  H  H1878  1  0.484990  0.479483  0.736072  1.0
  H  H1879  1  0.327826  0.181676  0.402738  1.0
  H  H1880  1  0.853851  0.672174  0.402738  1.0
  H  H1881  1  0.818324  0.146149  0.402738  1.0
  H  H1882  1  0.812816  0.151657  0.430595  1.0
  H  H1883  1  0.338841  0.187184  0.430595  1.0
  H  H1884  1  0.848343  0.661159  0.430595  1.0
  H  H1885  1  0.146149  0.818324  0.097262  1.0
  H  H1886  1  0.672174  0.853851  0.097262  1.0
  H  H1887  1  0.181676  0.327826  0.097262  1.0
  H  H1888  1  0.479483  0.484990  0.763928  1.0
  H  H1889  1  0.005508  0.520517  0.763928  1.0
  H  H1890  1  0.515010  0.994492  0.763928  1.0
  H  H1891  1  0.338841  0.151657  0.930595  1.0
  H  H1892  1  0.812816  0.661159  0.930595  1.0
  H  H1893  1  0.848343  0.187184  0.930595  1.0
  H  H1894  1  0.005508  0.484990  0.263928  1.0
  H  H1895  1  0.479483  0.994492  0.263928  1.0
  H  H1896  1  0.515010  0.520517  0.263928  1.0
  H  H1897  1  0.672174  0.818324  0.597262  1.0
  H  H1898  1  0.146149  0.327826  0.597262  1.0
  H  H1899  1  0.181676  0.853851  0.597262  1.0
  H  H1900  1  0.187184  0.848343  0.569405  1.0
  H  H1901  1  0.661159  0.812816  0.569405  1.0
  H  H1902  1  0.151657  0.338841  0.569405  1.0
  H  H1903  1  0.853851  0.181676  0.902738  1.0
  H  H1904  1  0.327826  0.146149  0.902738  1.0
  H  H1905  1  0.818324  0.672174  0.902738  1.0
  H  H1906  1  0.520517  0.515010  0.236072  1.0
  H  H1907  1  0.994492  0.479483  0.236072  1.0
  H  H1908  1  0.484990  0.005508  0.236072  1.0
  H  H1909  1  0.737353  0.856434  0.028185  1.0
  H  H1910  1  0.119081  0.262647  0.028185  1.0
  H  H1911  1  0.143566  0.880919  0.028185  1.0
  H  H1912  1  0.070686  0.523101  0.694852  1.0
  H  H1913  1  0.452414  0.929314  0.694852  1.0
  H  H1914  1  0.476899  0.547586  0.694852  1.0
  H  H1915  1  0.404020  0.189767  0.361518  1.0
  H  H1916  1  0.785748  0.595980  0.361518  1.0
  H  H1917  1  0.810233  0.214252  0.361518  1.0
  H  H1918  1  0.880919  0.143566  0.471815  1.0
  H  H1919  1  0.262647  0.119081  0.471815  1.0
  H  H1920  1  0.856434  0.737353  0.471815  1.0
  H  H1921  1  0.214252  0.810233  0.138482  1.0
  H  H1922  1  0.595980  0.785748  0.138482  1.0
  H  H1923  1  0.189767  0.404020  0.138482  1.0
  H  H1924  1  0.547586  0.476899  0.805148  1.0
  H  H1925  1  0.929314  0.452414  0.805148  1.0
  H  H1926  1  0.523101  0.070686  0.805148  1.0
  H  H1927  1  0.262647  0.143566  0.971815  1.0
  H  H1928  1  0.880919  0.737353  0.971815  1.0
  H  H1929  1  0.856434  0.119081  0.971815  1.0
  H  H1930  1  0.929314  0.476899  0.305148  1.0
  H  H1931  1  0.547586  0.070686  0.305148  1.0
  H  H1932  1  0.523101  0.452414  0.305148  1.0
  H  H1933  1  0.595980  0.810233  0.638482  1.0
  H  H1934  1  0.214252  0.404020  0.638482  1.0
  H  H1935  1  0.189767  0.785748  0.638482  1.0
  H  H1936  1  0.119081  0.856434  0.528185  1.0
  H  H1937  1  0.737353  0.880919  0.528185  1.0
  H  H1938  1  0.143566  0.262647  0.528185  1.0
  H  H1939  1  0.785748  0.189767  0.861518  1.0
  H  H1940  1  0.404020  0.214252  0.861518  1.0
  H  H1941  1  0.810233  0.595980  0.861518  1.0
  H  H1942  1  0.452414  0.523101  0.194852  1.0
  H  H1943  1  0.070686  0.547586  0.194852  1.0
  H  H1944  1  0.476899  0.929314  0.194852  1.0
  H  H1945  1  0.955577  0.815093  0.890978  1.0
  H  H1946  1  0.859516  0.044423  0.890978  1.0
  H  H1947  1  0.184907  0.140484  0.890978  1.0
  H  H1948  1  0.288910  0.481760  0.557645  1.0
  H  H1949  1  0.192849  0.711090  0.557645  1.0
  H  H1950  1  0.518240  0.807151  0.557645  1.0
  H  H1951  1  0.622244  0.148426  0.224311  1.0
  H  H1952  1  0.526183  0.377756  0.224311  1.0
  H  H1953  1  0.851574  0.473817  0.224311  1.0
  H  H1954  1  0.140484  0.184907  0.609022  1.0
  H  H1955  1  0.044423  0.859516  0.609022  1.0
  H  H1956  1  0.815093  0.955577  0.609022  1.0
  H  H1957  1  0.473817  0.851574  0.275689  1.0
  H  H1958  1  0.377756  0.526183  0.275689  1.0
  H  H1959  1  0.148426  0.622244  0.275689  1.0
  H  H1960  1  0.807151  0.518240  0.942355  1.0
  H  H1961  1  0.711090  0.192849  0.942355  1.0
  H  H1962  1  0.481760  0.288910  0.942355  1.0
  H  H1963  1  0.044423  0.184907  0.109022  1.0
  H  H1964  1  0.140484  0.955577  0.109022  1.0
  H  H1965  1  0.815093  0.859516  0.109022  1.0
  H  H1966  1  0.711090  0.518240  0.442355  1.0
  H  H1967  1  0.807151  0.288910  0.442355  1.0
  H  H1968  1  0.481760  0.192849  0.442355  1.0
  H  H1969  1  0.377756  0.851574  0.775689  1.0
  H  H1970  1  0.473817  0.622244  0.775689  1.0
  H  H1971  1  0.148426  0.526183  0.775689  1.0
  H  H1972  1  0.859516  0.815093  0.390978  1.0
  H  H1973  1  0.955577  0.140484  0.390978  1.0
  H  H1974  1  0.184907  0.044423  0.390978  1.0
  H  H1975  1  0.526183  0.148426  0.724311  1.0
  H  H1976  1  0.622244  0.473817  0.724311  1.0
  H  H1977  1  0.851574  0.377756  0.724311  1.0
  H  H1978  1  0.192849  0.481760  0.057645  1.0
  H  H1979  1  0.288910  0.807151  0.057645  1.0
  H  H1980  1  0.518240  0.711090  0.057645  1.0
  H  H1981  1  0.095971  0.902928  0.890492  1.0
  H  H1982  1  0.806957  0.904029  0.890492  1.0
  H  H1983  1  0.097072  0.193043  0.890492  1.0
  H  H1984  1  0.429304  0.569595  0.557159  1.0
  H  H1985  1  0.140290  0.570696  0.557159  1.0
  H  H1986  1  0.430405  0.859710  0.557159  1.0
  H  H1987  1  0.762638  0.236261  0.223825  1.0
  H  H1988  1  0.473624  0.237362  0.223825  1.0
  H  H1989  1  0.763739  0.526376  0.223825  1.0
  H  H1990  1  0.193043  0.097072  0.609508  1.0
  H  H1991  1  0.904029  0.806957  0.609508  1.0
  H  H1992  1  0.902928  0.095971  0.609508  1.0
  H  H1993  1  0.526376  0.763739  0.276175  1.0
  H  H1994  1  0.237362  0.473624  0.276175  1.0
  H  H1995  1  0.236261  0.762638  0.276175  1.0
  H  H1996  1  0.859710  0.430405  0.942841  1.0
  H  H1997  1  0.570696  0.140290  0.942841  1.0
  H  H1998  1  0.569595  0.429304  0.942841  1.0
  H  H1999  1  0.904029  0.097072  0.109508  1.0
  H  H2000  1  0.193043  0.095971  0.109508  1.0
  H  H2001  1  0.902928  0.806957  0.109508  1.0
  H  H2002  1  0.570696  0.430405  0.442841  1.0
  H  H2003  1  0.859710  0.429304  0.442841  1.0
  H  H2004  1  0.569595  0.140290  0.442841  1.0
  H  H2005  1  0.237362  0.763739  0.776175  1.0
  H  H2006  1  0.526376  0.762638  0.776175  1.0
  H  H2007  1  0.236261  0.473624  0.776175  1.0
  H  H2008  1  0.806957  0.902928  0.390492  1.0
  H  H2009  1  0.095971  0.193043  0.390492  1.0
  H  H2010  1  0.097072  0.904029  0.390492  1.0
  H  H2011  1  0.473624  0.236261  0.723825  1.0
  H  H2012  1  0.762638  0.526376  0.723825  1.0
  H  H2013  1  0.763739  0.237362  0.723825  1.0
  H  H2014  1  0.140290  0.569595  0.057159  1.0
  H  H2015  1  0.429304  0.859710  0.057159  1.0
  H  H2016  1  0.430405  0.570696  0.057159  1.0
  H  H2017  1  0.017664  0.918264  0.926091  1.0
  H  H2018  1  0.900600  0.982336  0.926091  1.0
  H  H2019  1  0.081736  0.099400  0.926091  1.0
  H  H2020  1  0.350997  0.584931  0.592758  1.0
  H  H2021  1  0.233933  0.649003  0.592758  1.0
  H  H2022  1  0.415069  0.766067  0.592758  1.0
  H  H2023  1  0.684331  0.251597  0.259424  1.0
  H  H2024  1  0.567267  0.315669  0.259424  1.0
  H  H2025  1  0.748403  0.432733  0.259424  1.0
  H  H2026  1  0.099400  0.081736  0.573909  1.0
  H  H2027  1  0.982336  0.900600  0.573909  1.0
  H  H2028  1  0.918264  0.017664  0.573909  1.0
  H  H2029  1  0.432733  0.748403  0.240576  1.0
  H  H2030  1  0.315669  0.567267  0.240576  1.0
  H  H2031  1  0.251597  0.684331  0.240576  1.0
  H  H2032  1  0.766067  0.415069  0.907242  1.0
  H  H2033  1  0.649003  0.233933  0.907242  1.0
  H  H2034  1  0.584931  0.350997  0.907242  1.0
  H  H2035  1  0.982336  0.081736  0.073909  1.0
  H  H2036  1  0.099400  0.017664  0.073909  1.0
  H  H2037  1  0.918264  0.900600  0.073909  1.0
  H  H2038  1  0.649003  0.415069  0.407242  1.0
  H  H2039  1  0.766067  0.350997  0.407242  1.0
  H  H2040  1  0.584931  0.233933  0.407242  1.0
  H  H2041  1  0.315669  0.748403  0.740576  1.0
  H  H2042  1  0.432733  0.684331  0.740576  1.0
  H  H2043  1  0.251597  0.567267  0.740576  1.0
  H  H2044  1  0.900600  0.918264  0.426091  1.0
  H  H2045  1  0.017664  0.099400  0.426091  1.0
  H  H2046  1  0.081736  0.982336  0.426091  1.0
  H  H2047  1  0.567267  0.251597  0.759424  1.0
  H  H2048  1  0.684331  0.432733  0.759424  1.0
  H  H2049  1  0.748403  0.315669  0.759424  1.0
  H  H2050  1  0.233933  0.584931  0.092758  1.0
  H  H2051  1  0.350997  0.766067  0.092758  1.0
  H  H2052  1  0.415069  0.649003  0.092758  1.0
  C  C2053  1  0.957300  0.610400  0.881310  1
  C  C2054  1  0.653100  0.042700  0.881310  1
  C  C2055  1  0.389600  0.346900  0.881310  1
  C  C2056  1  0.290633  0.277067  0.547977  1
  C  C2057  1  0.986433  0.709367  0.547977  1
  C  C2058  1  0.722933  0.013567  0.547977  1
  C  C2059  1  0.623967  0.943733  0.214643  1
  C  C2060  1  0.319767  0.376033  0.214643  1
  C  C2061  1  0.056267  0.680233  0.214643  1
  C  C2062  1  0.346900  0.389600  0.618690  1
  C  C2063  1  0.042700  0.653100  0.618690  1
  C  C2064  1  0.610400  0.957300  0.618690  1
  C  C2065  1  0.680233  0.056267  0.285357  1
  C  C2066  1  0.376033  0.319767  0.285357  1
  C  C2067  1  0.943733  0.623967  0.285357  1
  C  C2068  1  0.013567  0.722933  0.952023  1
  C  C2069  1  0.709367  0.986433  0.952023  1
  C  C2070  1  0.277067  0.290633  0.952023  1
  C  C2071  1  0.042700  0.389600  0.118690  1
  C  C2072  1  0.346900  0.957300  0.118690  1
  C  C2073  1  0.610400  0.653100  0.118690  1
  C  C2074  1  0.709367  0.722933  0.452023  1
  C  C2075  1  0.013567  0.290633  0.452023  1
  C  C2076  1  0.277067  0.986433  0.452023  1
  C  C2077  1  0.376033  0.056267  0.785357  1
  C  C2078  1  0.680233  0.623967  0.785357  1
  C  C2079  1  0.943733  0.319767  0.785357  1
  C  C2080  1  0.653100  0.610400  0.381310  1
  C  C2081  1  0.957300  0.346900  0.381310  1
  C  C2082  1  0.389600  0.042700  0.381310  1
  C  C2083  1  0.319767  0.943733  0.714643  1
  C  C2084  1  0.623967  0.680233  0.714643  1
  C  C2085  1  0.056267  0.376033  0.714643  1
  C  C2086  1  0.986433  0.277067  0.047977  1
  C  C2087  1  0.290633  0.013567  0.047977  1
  C  C2088  1  0.722933  0.709367  0.047977  1
  C  C2089  1  0.919100  0.608900  0.890020  1
  C  C2090  1  0.689800  0.080900  0.890020  1
  C  C2091  1  0.391100  0.310200  0.890020  1
  C  C2092  1  0.252433  0.275567  0.556687  1
  C  C2093  1  0.023133  0.747567  0.556687  1
  C  C2094  1  0.724433  0.976867  0.556687  1
  C  C2095  1  0.585767  0.942233  0.223353  1
  C  C2096  1  0.356467  0.414233  0.223353  1
  C  C2097  1  0.057767  0.643533  0.223353  1
  C  C2098  1  0.310200  0.391100  0.609980  1
  C  C2099  1  0.080900  0.689800  0.609980  1
  C  C2100  1  0.608900  0.919100  0.609980  1
  C  C2101  1  0.643533  0.057767  0.276647  1
  C  C2102  1  0.414233  0.356467  0.276647  1
  C  C2103  1  0.942233  0.585767  0.276647  1
  C  C2104  1  0.976867  0.724433  0.943313  1
  C  C2105  1  0.747567  0.023133  0.943313  1
  C  C2106  1  0.275567  0.252433  0.943313  1
  C  C2107  1  0.080900  0.391100  0.109980  1
  C  C2108  1  0.310200  0.919100  0.109980  1
  C  C2109  1  0.608900  0.689800  0.109980  1
  C  C2110  1  0.747567  0.724433  0.443313  1
  C  C2111  1  0.976867  0.252433  0.443313  1
  C  C2112  1  0.275567  0.023133  0.443313  1
  C  C2113  1  0.414233  0.057767  0.776647  1
  C  C2114  1  0.643533  0.585767  0.776647  1
  C  C2115  1  0.942233  0.356467  0.776647  1
  C  C2116  1  0.689800  0.608900  0.390020  1
  C  C2117  1  0.919100  0.310200  0.390020  1
  C  C2118  1  0.391100  0.080900  0.390020  1
  C  C2119  1  0.356467  0.942233  0.723353  1
  C  C2120  1  0.585767  0.643533  0.723353  1
  C  C2121  1  0.057767  0.414233  0.723353  1
  C  C2122  1  0.023133  0.275567  0.056687  1
  C  C2123  1  0.252433  0.976867  0.056687  1
  C  C2124  1  0.724433  0.747567  0.056687  1
  C  C2125  1  0.885400  0.566800  0.897850  1
  C  C2126  1  0.681400  0.114600  0.897850  1
  C  C2127  1  0.433200  0.318600  0.897850  1
  C  C2128  1  0.218733  0.233467  0.564517  1
  C  C2129  1  0.014733  0.781267  0.564517  1
  C  C2130  1  0.766533  0.985267  0.564517  1
  C  C2131  1  0.552067  0.900133  0.231183  1
  C  C2132  1  0.348067  0.447933  0.231183  1
  C  C2133  1  0.099867  0.651933  0.231183  1
  C  C2134  1  0.318600  0.433200  0.602150  1
  C  C2135  1  0.114600  0.681400  0.602150  1
  C  C2136  1  0.566800  0.885400  0.602150  1
  C  C2137  1  0.651933  0.099867  0.268817  1
  C  C2138  1  0.447933  0.348067  0.268817  1
  C  C2139  1  0.900133  0.552067  0.268817  1
  C  C2140  1  0.985267  0.766533  0.935483  1
  C  C2141  1  0.781267  0.014733  0.935483  1
  C  C2142  1  0.233467  0.218733  0.935483  1
  C  C2143  1  0.114600  0.433200  0.102150  1
  C  C2144  1  0.318600  0.885400  0.102150  1
  C  C2145  1  0.566800  0.681400  0.102150  1
  C  C2146  1  0.781267  0.766533  0.435483  1
  C  C2147  1  0.985267  0.218733  0.435483  1
  C  C2148  1  0.233467  0.014733  0.435483  1
  C  C2149  1  0.447933  0.099867  0.768817  1
  C  C2150  1  0.651933  0.552067  0.768817  1
  C  C2151  1  0.900133  0.348067  0.768817  1
  C  C2152  1  0.681400  0.566800  0.397850  1
  C  C2153  1  0.885400  0.318600  0.397850  1
  C  C2154  1  0.433200  0.114600  0.397850  1
  C  C2155  1  0.348067  0.900133  0.731183  1
  C  C2156  1  0.552067  0.651933  0.731183  1
  C  C2157  1  0.099867  0.447933  0.731183  1
  C  C2158  1  0.014733  0.233467  0.064517  1
  C  C2159  1  0.218733  0.985267  0.064517  1
  C  C2160  1  0.766533  0.781267  0.064517  1
  C  C2161  1  0.889900  0.526300  0.896980  1
  C  C2162  1  0.636400  0.110100  0.896980  1
  C  C2163  1  0.473700  0.363600  0.896980  1
  C  C2164  1  0.223233  0.192967  0.563647  1
  C  C2165  1  0.969733  0.776767  0.563647  1
  C  C2166  1  0.807033  0.030267  0.563647  1
  C  C2167  1  0.556567  0.859633  0.230313  1
  C  C2168  1  0.303067  0.443433  0.230313  1
  C  C2169  1  0.140367  0.696933  0.230313  1
  C  C2170  1  0.363600  0.473700  0.603020  1
  C  C2171  1  0.110100  0.636400  0.603020  1
  C  C2172  1  0.526300  0.889900  0.603020  1
  C  C2173  1  0.696933  0.140367  0.269687  1
  C  C2174  1  0.443433  0.303067  0.269687  1
  C  C2175  1  0.859633  0.556567  0.269687  1
  C  C2176  1  0.030267  0.807033  0.936353  1
  C  C2177  1  0.776767  0.969733  0.936353  1
  C  C2178  1  0.192967  0.223233  0.936353  1
  C  C2179  1  0.110100  0.473700  0.103020  1
  C  C2180  1  0.363600  0.889900  0.103020  1
  C  C2181  1  0.526300  0.636400  0.103020  1
  C  C2182  1  0.776767  0.807033  0.436353  1
  C  C2183  1  0.030267  0.223233  0.436353  1
  C  C2184  1  0.192967  0.969733  0.436353  1
  C  C2185  1  0.443433  0.140367  0.769687  1
  C  C2186  1  0.696933  0.556567  0.769687  1
  C  C2187  1  0.859633  0.303067  0.769687  1
  C  C2188  1  0.636400  0.526300  0.396980  1
  C  C2189  1  0.889900  0.363600  0.396980  1
  C  C2190  1  0.473700  0.110100  0.396980  1
  C  C2191  1  0.303067  0.859633  0.730313  1
  C  C2192  1  0.556567  0.696933  0.730313  1
  C  C2193  1  0.140367  0.443433  0.730313  1
  C  C2194  1  0.969733  0.192967  0.063647  1
  C  C2195  1  0.223233  0.030267  0.063647  1
  C  C2196  1  0.807033  0.776767  0.063647  1
  C  C2197  1  0.928100  0.527800  0.888270  1
  C  C2198  1  0.599700  0.071900  0.888270  1
  C  C2199  1  0.472200  0.400300  0.888270  1
  C  C2200  1  0.261433  0.194467  0.554937  1
  C  C2201  1  0.933033  0.738567  0.554937  1
  C  C2202  1  0.805533  0.066967  0.554937  1
  C  C2203  1  0.594767  0.861133  0.221603  1
  C  C2204  1  0.266367  0.405233  0.221603  1
  C  C2205  1  0.138867  0.733633  0.221603  1
  C  C2206  1  0.400300  0.472200  0.611730  1
  C  C2207  1  0.071900  0.599700  0.611730  1
  C  C2208  1  0.527800  0.928100  0.611730  1
  C  C2209  1  0.733633  0.138867  0.278397  1
  C  C2210  1  0.405233  0.266367  0.278397  1
  C  C2211  1  0.861133  0.594767  0.278397  1
  C  C2212  1  0.066967  0.805533  0.945063  1
  C  C2213  1  0.738567  0.933033  0.945063  1
  C  C2214  1  0.194467  0.261433  0.945063  1
  C  C2215  1  0.071900  0.472200  0.111730  1
  C  C2216  1  0.400300  0.928100  0.111730  1
  C  C2217  1  0.527800  0.599700  0.111730  1
  C  C2218  1  0.738567  0.805533  0.445063  1
  C  C2219  1  0.066967  0.261433  0.445063  1
  C  C2220  1  0.194467  0.933033  0.445063  1
  C  C2221  1  0.405233  0.138867  0.778397  1
  C  C2222  1  0.733633  0.594767  0.778397  1
  C  C2223  1  0.861133  0.266367  0.778397  1
  C  C2224  1  0.599700  0.527800  0.388270  1
  C  C2225  1  0.928100  0.400300  0.388270  1
  C  C2226  1  0.472200  0.071900  0.388270  1
  C  C2227  1  0.266367  0.861133  0.721603  1
  C  C2228  1  0.594767  0.733633  0.721603  1
  C  C2229  1  0.138867  0.405233  0.721603  1
  C  C2230  1  0.933033  0.194467  0.054937  1
  C  C2231  1  0.261433  0.066967  0.054937  1
  C  C2232  1  0.805533  0.738567  0.054937  1
  C  C2233  1  0.961800  0.569900  0.880440  1
  C  C2234  1  0.608100  0.038200  0.880440  1
  C  C2235  1  0.430100  0.391900  0.880440  1
  C  C2236  1  0.295133  0.236567  0.547107  1
  C  C2237  1  0.941433  0.704867  0.547107  1
  C  C2238  1  0.763433  0.058567  0.547107  1
  C  C2239  1  0.628467  0.903233  0.213773  1
  C  C2240  1  0.274767  0.371533  0.213773  1
  C  C2241  1  0.096767  0.725233  0.213773  1
  C  C2242  1  0.391900  0.430100  0.619560  1
  C  C2243  1  0.038200  0.608100  0.619560  1
  C  C2244  1  0.569900  0.961800  0.619560  1
  C  C2245  1  0.725233  0.096767  0.286227  1
  C  C2246  1  0.371533  0.274767  0.286227  1
  C  C2247  1  0.903233  0.628467  0.286227  1
  C  C2248  1  0.058567  0.763433  0.952893  1
  C  C2249  1  0.704867  0.941433  0.952893  1
  C  C2250  1  0.236567  0.295133  0.952893  1
  C  C2251  1  0.038200  0.430100  0.119560  1
  C  C2252  1  0.391900  0.961800  0.119560  1
  C  C2253  1  0.569900  0.608100  0.119560  1
  C  C2254  1  0.704867  0.763433  0.452893  1
  C  C2255  1  0.058567  0.295133  0.452893  1
  C  C2256  1  0.236567  0.941433  0.452893  1
  C  C2257  1  0.371533  0.096767  0.786227  1
  C  C2258  1  0.725233  0.628467  0.786227  1
  C  C2259  1  0.903233  0.274767  0.786227  1
  C  C2260  1  0.608100  0.569900  0.380440  1
  C  C2261  1  0.961800  0.391900  0.380440  1
  C  C2262  1  0.430100  0.038200  0.380440  1
  C  C2263  1  0.274767  0.903233  0.713773  1
  C  C2264  1  0.628467  0.725233  0.713773  1
  C  C2265  1  0.096767  0.371533  0.713773  1
  C  C2266  1  0.941433  0.236567  0.047107  1
  C  C2267  1  0.295133  0.058567  0.047107  1
  C  C2268  1  0.763433  0.704867  0.047107  1
  C  C2269  1  0.004500  0.583200  0.869610  1
  C  C2270  1  0.578700  0.995500  0.869610  1
  C  C2271  1  0.416800  0.421300  0.869610  1
  C  C2272  1  0.337833  0.249867  0.536277  1
  C  C2273  1  0.912033  0.662167  0.536277  1
  C  C2274  1  0.750133  0.087967  0.536277  1
  C  C2275  1  0.671167  0.916533  0.202943  1
  C  C2276  1  0.245367  0.328833  0.202943  1
  C  C2277  1  0.083467  0.754633  0.202943  1
  C  C2278  1  0.421300  0.416800  0.630390  1
  C  C2279  1  0.995500  0.578700  0.630390  1
  C  C2280  1  0.583200  0.004500  0.630390  1
  C  C2281  1  0.754633  0.083467  0.297057  1
  C  C2282  1  0.328833  0.245367  0.297057  1
  C  C2283  1  0.916533  0.671167  0.297057  1
  C  C2284  1  0.087967  0.750133  0.963723  1
  C  C2285  1  0.662167  0.912033  0.963723  1
  C  C2286  1  0.249867  0.337833  0.963723  1
  C  C2287  1  0.995500  0.416800  0.130390  1
  C  C2288  1  0.421300  0.004500  0.130390  1
  C  C2289  1  0.583200  0.578700  0.130390  1
  C  C2290  1  0.662167  0.750133  0.463723  1
  C  C2291  1  0.087967  0.337833  0.463723  1
  C  C2292  1  0.249867  0.912033  0.463723  1
  C  C2293  1  0.328833  0.083467  0.797057  1
  C  C2294  1  0.754633  0.671167  0.797057  1
  C  C2295  1  0.916533  0.245367  0.797057  1
  C  C2296  1  0.578700  0.583200  0.369610  1
  C  C2297  1  0.004500  0.421300  0.369610  1
  C  C2298  1  0.416800  0.995500  0.369610  1
  C  C2299  1  0.245367  0.916533  0.702943  1
  C  C2300  1  0.671167  0.754633  0.702943  1
  C  C2301  1  0.083467  0.328833  0.702943  1
  C  C2302  1  0.912033  0.249867  0.036277  1
  C  C2303  1  0.337833  0.087967  0.036277  1
  C  C2304  1  0.750133  0.662167  0.036277  1
  C  C2305  1  0.026900  0.558500  0.864000  1
  C  C2306  1  0.531600  0.973100  0.864000  1
  C  C2307  1  0.441500  0.468400  0.864000  1
  C  C2308  1  0.360233  0.225167  0.530667  1
  C  C2309  1  0.864933  0.639767  0.530667  1
  C  C2310  1  0.774833  0.135067  0.530667  1
  C  C2311  1  0.693567  0.891833  0.197333  1
  C  C2312  1  0.198267  0.306433  0.197333  1
  C  C2313  1  0.108167  0.801733  0.197333  1
  C  C2314  1  0.468400  0.441500  0.636000  1
  C  C2315  1  0.973100  0.531600  0.636000  1
  C  C2316  1  0.558500  0.026900  0.636000  1
  C  C2317  1  0.801733  0.108167  0.302667  1
  C  C2318  1  0.306433  0.198267  0.302667  1
  C  C2319  1  0.891833  0.693567  0.302667  1
  C  C2320  1  0.135067  0.774833  0.969333  1
  C  C2321  1  0.639767  0.864933  0.969333  1
  C  C2322  1  0.225167  0.360233  0.969333  1
  C  C2323  1  0.973100  0.441500  0.136000  1
  C  C2324  1  0.468400  0.026900  0.136000  1
  C  C2325  1  0.558500  0.531600  0.136000  1
  C  C2326  1  0.639767  0.774833  0.469333  1
  C  C2327  1  0.135067  0.360233  0.469333  1
  C  C2328  1  0.225167  0.864933  0.469333  1
  C  C2329  1  0.306433  0.108167  0.802667  1
  C  C2330  1  0.801733  0.693567  0.802667  1
  C  C2331  1  0.891833  0.198267  0.802667  1
  C  C2332  1  0.531600  0.558500  0.364000  1
  C  C2333  1  0.026900  0.468400  0.364000  1
  C  C2334  1  0.441500  0.973100  0.364000  1
  C  C2335  1  0.198267  0.891833  0.697333  1
  C  C2336  1  0.693567  0.801733  0.697333  1
  C  C2337  1  0.108167  0.306433  0.697333  1
  C  C2338  1  0.864933  0.225167  0.030667  1
  C  C2339  1  0.360233  0.135067  0.030667  1
  C  C2340  1  0.774833  0.639767  0.030667  1
  C  C2341  1  0.068500  0.581800  0.854400  1
  C  C2342  1  0.513300  0.931500  0.854400  1
  C  C2343  1  0.418200  0.486700  0.854400  1
  C  C2344  1  0.401833  0.248467  0.521067  1
  C  C2345  1  0.846633  0.598167  0.521067  1
  C  C2346  1  0.751533  0.153367  0.521067  1
  C  C2347  1  0.735167  0.915133  0.187733  1
  C  C2348  1  0.179967  0.264833  0.187733  1
  C  C2349  1  0.084867  0.820033  0.187733  1
  C  C2350  1  0.486700  0.418200  0.645600  1
  C  C2351  1  0.931500  0.513300  0.645600  1
  C  C2352  1  0.581800  0.068500  0.645600  1
  C  C2353  1  0.820033  0.084867  0.312267  1
  C  C2354  1  0.264833  0.179967  0.312267  1
  C  C2355  1  0.915133  0.735167  0.312267  1
  C  C2356  1  0.153367  0.751533  0.978933  1
  C  C2357  1  0.598167  0.846633  0.978933  1
  C  C2358  1  0.248467  0.401833  0.978933  1
  C  C2359  1  0.931500  0.418200  0.145600  1
  C  C2360  1  0.486700  0.068500  0.145600  1
  C  C2361  1  0.581800  0.513300  0.145600  1
  C  C2362  1  0.598167  0.751533  0.478933  1
  C  C2363  1  0.153367  0.401833  0.478933  1
  C  C2364  1  0.248467  0.846633  0.478933  1
  C  C2365  1  0.264833  0.084867  0.812267  1
  C  C2366  1  0.820033  0.735167  0.812267  1
  C  C2367  1  0.915133  0.179967  0.812267  1
  C  C2368  1  0.513300  0.581800  0.354400  1
  C  C2369  1  0.068500  0.486700  0.354400  1
  C  C2370  1  0.418200  0.931500  0.354400  1
  C  C2371  1  0.179967  0.915133  0.687733  1
  C  C2372  1  0.735167  0.820033  0.687733  1
  C  C2373  1  0.084867  0.264833  0.687733  1
  C  C2374  1  0.846633  0.248467  0.021067  1
  C  C2375  1  0.401833  0.153367  0.021067  1
  C  C2376  1  0.751533  0.598167  0.021067  1
  C  C2377  1  0.087800  0.629900  0.850400  1
  C  C2378  1  0.542100  0.912200  0.850400  1
  C  C2379  1  0.370100  0.457900  0.850400  1
  C  C2380  1  0.421133  0.296567  0.517067  1
  C  C2381  1  0.875433  0.578867  0.517067  1
  C  C2382  1  0.703433  0.124567  0.517067  1
  C  C2383  1  0.754467  0.963233  0.183733  1
  C  C2384  1  0.208767  0.245533  0.183733  1
  C  C2385  1  0.036767  0.791233  0.183733  1
  C  C2386  1  0.457900  0.370100  0.649600  1
  C  C2387  1  0.912200  0.542100  0.649600  1
  C  C2388  1  0.629900  0.087800  0.649600  1
  C  C2389  1  0.791233  0.036767  0.316267  1
  C  C2390  1  0.245533  0.208767  0.316267  1
  C  C2391  1  0.963233  0.754467  0.316267  1
  C  C2392  1  0.124567  0.703433  0.982933  1
  C  C2393  1  0.578867  0.875433  0.982933  1
  C  C2394  1  0.296567  0.421133  0.982933  1
  C  C2395  1  0.912200  0.370100  0.149600  1
  C  C2396  1  0.457900  0.087800  0.149600  1
  C  C2397  1  0.629900  0.542100  0.149600  1
  C  C2398  1  0.578867  0.703433  0.482933  1
  C  C2399  1  0.124567  0.421133  0.482933  1
  C  C2400  1  0.296567  0.875433  0.482933  1
  C  C2401  1  0.245533  0.036767  0.816267  1
  C  C2402  1  0.791233  0.754467  0.816267  1
  C  C2403  1  0.963233  0.208767  0.816267  1
  C  C2404  1  0.542100  0.629900  0.350400  1
  C  C2405  1  0.087800  0.457900  0.350400  1
  C  C2406  1  0.370100  0.912200  0.350400  1
  C  C2407  1  0.208767  0.963233  0.683733  1
  C  C2408  1  0.754467  0.791233  0.683733  1
  C  C2409  1  0.036767  0.245533  0.683733  1
  C  C2410  1  0.875433  0.296567  0.017067  1
  C  C2411  1  0.421133  0.124567  0.017067  1
  C  C2412  1  0.703433  0.578867  0.017067  1
  C  C2413  1  0.065400  0.654600  0.856000  1
  C  C2414  1  0.589200  0.934600  0.856000  1
  C  C2415  1  0.345400  0.410800  0.856000  1
  C  C2416  1  0.398733  0.321267  0.522667  1
  C  C2417  1  0.922533  0.601267  0.522667  1
  C  C2418  1  0.678733  0.077467  0.522667  1
  C  C2419  1  0.732067  0.987933  0.189333  1
  C  C2420  1  0.255867  0.267933  0.189333  1
  C  C2421  1  0.012067  0.744133  0.189333  1
  C  C2422  1  0.410800  0.345400  0.644000  1
  C  C2423  1  0.934600  0.589200  0.644000  1
  C  C2424  1  0.654600  0.065400  0.644000  1
  C  C2425  1  0.744133  0.012067  0.310667  1
  C  C2426  1  0.267933  0.255867  0.310667  1
  C  C2427  1  0.987933  0.732067  0.310667  1
  C  C2428  1  0.077467  0.678733  0.977333  1
  C  C2429  1  0.601267  0.922533  0.977333  1
  C  C2430  1  0.321267  0.398733  0.977333  1
  C  C2431  1  0.934600  0.345400  0.144000  1
  C  C2432  1  0.410800  0.065400  0.144000  1
  C  C2433  1  0.654600  0.589200  0.144000  1
  C  C2434  1  0.601267  0.678733  0.477333  1
  C  C2435  1  0.077467  0.398733  0.477333  1
  C  C2436  1  0.321267  0.922533  0.477333  1
  C  C2437  1  0.267933  0.012067  0.810667  1
  C  C2438  1  0.744133  0.732067  0.810667  1
  C  C2439  1  0.987933  0.255867  0.810667  1
  C  C2440  1  0.589200  0.654600  0.356000  1
  C  C2441  1  0.065400  0.410800  0.356000  1
  C  C2442  1  0.345400  0.934600  0.356000  1
  C  C2443  1  0.255867  0.987933  0.689333  1
  C  C2444  1  0.732067  0.744133  0.689333  1
  C  C2445  1  0.012067  0.267933  0.689333  1
  C  C2446  1  0.922533  0.321267  0.022667  1
  C  C2447  1  0.398733  0.077467  0.022667  1
  C  C2448  1  0.678733  0.601267  0.022667  1
  C  C2449  1  0.023800  0.631300  0.865600  1
  C  C2450  1  0.607500  0.976200  0.865600  1
  C  C2451  1  0.368700  0.392500  0.865600  1
  C  C2452  1  0.357133  0.297967  0.532267  1
  C  C2453  1  0.940833  0.642867  0.532267  1
  C  C2454  1  0.702033  0.059167  0.532267  1
  C  C2455  1  0.690467  0.964633  0.198933  1
  C  C2456  1  0.274167  0.309533  0.198933  1
  C  C2457  1  0.035367  0.725833  0.198933  1
  C  C2458  1  0.392500  0.368700  0.634400  1
  C  C2459  1  0.976200  0.607500  0.634400  1
  C  C2460  1  0.631300  0.023800  0.634400  1
  C  C2461  1  0.725833  0.035367  0.301067  1
  C  C2462  1  0.309533  0.274167  0.301067  1
  C  C2463  1  0.964633  0.690467  0.301067  1
  C  C2464  1  0.059167  0.702033  0.967733  1
  C  C2465  1  0.642867  0.940833  0.967733  1
  C  C2466  1  0.297967  0.357133  0.967733  1
  C  C2467  1  0.976200  0.368700  0.134400  1
  C  C2468  1  0.392500  0.023800  0.134400  1
  C  C2469  1  0.631300  0.607500  0.134400  1
  C  C2470  1  0.642867  0.702033  0.467733  1
  C  C2471  1  0.059167  0.357133  0.467733  1
  C  C2472  1  0.297967  0.940833  0.467733  1
  C  C2473  1  0.309533  0.035367  0.801067  1
  C  C2474  1  0.725833  0.690467  0.801067  1
  C  C2475  1  0.964633  0.274167  0.801067  1
  C  C2476  1  0.607500  0.631300  0.365600  1
  C  C2477  1  0.023800  0.392500  0.365600  1
  C  C2478  1  0.368700  0.976200  0.365600  1
  C  C2479  1  0.274167  0.964633  0.698933  1
  C  C2480  1  0.690467  0.725833  0.698933  1
  C  C2481  1  0.035367  0.309533  0.698933  1
  C  C2482  1  0.940833  0.297967  0.032267  1
  C  C2483  1  0.357133  0.059167  0.032267  1
  C  C2484  1  0.702033  0.642867  0.032267  1
  C  C2485  1  0.070800  0.901600  0.798780  1
  C  C2486  1  0.830800  0.929200  0.798780  1
  C  C2487  1  0.098400  0.169200  0.798780  1
  C  C2488  1  0.404133  0.568267  0.465447  1
  C  C2489  1  0.164133  0.595867  0.465447  1
  C  C2490  1  0.431733  0.835867  0.465447  1
  C  C2491  1  0.737467  0.234933  0.132113  1
  C  C2492  1  0.497467  0.262533  0.132113  1
  C  C2493  1  0.765067  0.502533  0.132113  1
  C  C2494  1  0.169200  0.098400  0.701220  1
  C  C2495  1  0.929200  0.830800  0.701220  1
  C  C2496  1  0.901600  0.070800  0.701220  1
  C  C2497  1  0.502533  0.765067  0.367887  1
  C  C2498  1  0.262533  0.497467  0.367887  1
  C  C2499  1  0.234933  0.737467  0.367887  1
  C  C2500  1  0.835867  0.431733  0.034553  1
  C  C2501  1  0.595867  0.164133  0.034553  1
  C  C2502  1  0.568267  0.404133  0.034553  1
  C  C2503  1  0.929200  0.098400  0.201220  1
  C  C2504  1  0.169200  0.070800  0.201220  1
  C  C2505  1  0.901600  0.830800  0.201220  1
  C  C2506  1  0.595867  0.431733  0.534553  1
  C  C2507  1  0.835867  0.404133  0.534553  1
  C  C2508  1  0.568267  0.164133  0.534553  1
  C  C2509  1  0.262533  0.765067  0.867887  1
  C  C2510  1  0.502533  0.737467  0.867887  1
  C  C2511  1  0.234933  0.497467  0.867887  1
  C  C2512  1  0.830800  0.901600  0.298780  1
  C  C2513  1  0.070800  0.169200  0.298780  1
  C  C2514  1  0.098400  0.929200  0.298780  1
  C  C2515  1  0.497467  0.234933  0.632113  1
  C  C2516  1  0.737467  0.502533  0.632113  1
  C  C2517  1  0.765067  0.262533  0.632113  1
  C  C2518  1  0.164133  0.568267  0.965447  1
  C  C2519  1  0.404133  0.835867  0.965447  1
  C  C2520  1  0.431733  0.595867  0.965447  1
  C  C2521  1  0.118000  0.929200  0.803990  1
  C  C2522  1  0.811200  0.882000  0.803990  1
  C  C2523  1  0.070800  0.188800  0.803990  1
  C  C2524  1  0.451333  0.595867  0.470657  1
  C  C2525  1  0.144533  0.548667  0.470657  1
  C  C2526  1  0.404133  0.855467  0.470657  1
  C  C2527  1  0.784667  0.262533  0.137323  1
  C  C2528  1  0.477867  0.215333  0.137323  1
  C  C2529  1  0.737467  0.522133  0.137323  1
  C  C2530  1  0.188800  0.070800  0.696010  1
  C  C2531  1  0.882000  0.811200  0.696010  1
  C  C2532  1  0.929200  0.118000  0.696010  1
  C  C2533  1  0.522133  0.737467  0.362677  1
  C  C2534  1  0.215333  0.477867  0.362677  1
  C  C2535  1  0.262533  0.784667  0.362677  1
  C  C2536  1  0.855467  0.404133  0.029343  1
  C  C2537  1  0.548667  0.144533  0.029343  1
  C  C2538  1  0.595867  0.451333  0.029343  1
  C  C2539  1  0.882000  0.070800  0.196010  1
  C  C2540  1  0.188800  0.118000  0.196010  1
  C  C2541  1  0.929200  0.811200  0.196010  1
  C  C2542  1  0.548667  0.404133  0.529343  1
  C  C2543  1  0.855467  0.451333  0.529343  1
  C  C2544  1  0.595867  0.144533  0.529343  1
  C  C2545  1  0.215333  0.737467  0.862677  1
  C  C2546  1  0.522133  0.784667  0.862677  1
  C  C2547  1  0.262533  0.477867  0.862677  1
  C  C2548  1  0.811200  0.929200  0.303990  1
  C  C2549  1  0.118000  0.188800  0.303990  1
  C  C2550  1  0.070800  0.882000  0.303990  1
  C  C2551  1  0.477867  0.262533  0.637323  1
  C  C2552  1  0.784667  0.522133  0.637323  1
  C  C2553  1  0.737467  0.215333  0.637323  1
  C  C2554  1  0.144533  0.595867  0.970657  1
  C  C2555  1  0.451333  0.855467  0.970657  1
  C  C2556  1  0.404133  0.548667  0.970657  1
  C  C2557  1  0.151500  0.963500  0.793130  1
  C  C2558  1  0.812000  0.848500  0.793130  1
  C  C2559  1  0.036500  0.188000  0.793130  1
  C  C2560  1  0.484833  0.630167  0.459797  1
  C  C2561  1  0.145333  0.515167  0.459797  1
  C  C2562  1  0.369833  0.854667  0.459797  1
  C  C2563  1  0.818167  0.296833  0.126463  1
  C  C2564  1  0.478667  0.181833  0.126463  1
  C  C2565  1  0.703167  0.521333  0.126463  1
  C  C2566  1  0.188000  0.036500  0.706870  1
  C  C2567  1  0.848500  0.812000  0.706870  1
  C  C2568  1  0.963500  0.151500  0.706870  1
  C  C2569  1  0.521333  0.703167  0.373537  1
  C  C2570  1  0.181833  0.478667  0.373537  1
  C  C2571  1  0.296833  0.818167  0.373537  1
  C  C2572  1  0.854667  0.369833  0.040203  1
  C  C2573  1  0.515167  0.145333  0.040203  1
  C  C2574  1  0.630167  0.484833  0.040203  1
  C  C2575  1  0.848500  0.036500  0.206870  1
  C  C2576  1  0.188000  0.151500  0.206870  1
  C  C2577  1  0.963500  0.812000  0.206870  1
  C  C2578  1  0.515167  0.369833  0.540203  1
  C  C2579  1  0.854667  0.484833  0.540203  1
  C  C2580  1  0.630167  0.145333  0.540203  1
  C  C2581  1  0.181833  0.703167  0.873537  1
  C  C2582  1  0.521333  0.818167  0.873537  1
  C  C2583  1  0.296833  0.478667  0.873537  1
  C  C2584  1  0.812000  0.963500  0.293130  1
  C  C2585  1  0.151500  0.188000  0.293130  1
  C  C2586  1  0.036500  0.848500  0.293130  1
  C  C2587  1  0.478667  0.296833  0.626463  1
  C  C2588  1  0.818167  0.521333  0.626463  1
  C  C2589  1  0.703167  0.181833  0.626463  1
  C  C2590  1  0.145333  0.630167  0.959797  1
  C  C2591  1  0.484833  0.854667  0.959797  1
  C  C2592  1  0.369833  0.515167  0.959797  1
  C  C2593  1  0.137900  0.970200  0.777050  1
  C  C2594  1  0.832300  0.862100  0.777050  1
  C  C2595  1  0.029800  0.167700  0.777050  1
  C  C2596  1  0.471233  0.636867  0.443717  1
  C  C2597  1  0.165633  0.528767  0.443717  1
  C  C2598  1  0.363133  0.834367  0.443717  1
  C  C2599  1  0.804567  0.303533  0.110383  1
  C  C2600  1  0.498967  0.195433  0.110383  1
  C  C2601  1  0.696467  0.501033  0.110383  1
  C  C2602  1  0.167700  0.029800  0.722950  1
  C  C2603  1  0.862100  0.832300  0.722950  1
  C  C2604  1  0.970200  0.137900  0.722950  1
  C  C2605  1  0.501033  0.696467  0.389617  1
  C  C2606  1  0.195433  0.498967  0.389617  1
  C  C2607  1  0.303533  0.804567  0.389617  1
  C  C2608  1  0.834367  0.363133  0.056283  1
  C  C2609  1  0.528767  0.165633  0.056283  1
  C  C2610  1  0.636867  0.471233  0.056283  1
  C  C2611  1  0.862100  0.029800  0.222950  1
  C  C2612  1  0.167700  0.137900  0.222950  1
  C  C2613  1  0.970200  0.832300  0.222950  1
  C  C2614  1  0.528767  0.363133  0.556283  1
  C  C2615  1  0.834367  0.471233  0.556283  1
  C  C2616  1  0.636867  0.165633  0.556283  1
  C  C2617  1  0.195433  0.696467  0.889617  1
  C  C2618  1  0.501033  0.804567  0.889617  1
  C  C2619  1  0.303533  0.498967  0.889617  1
  C  C2620  1  0.832300  0.970200  0.277050  1
  C  C2621  1  0.137900  0.167700  0.277050  1
  C  C2622  1  0.029800  0.862100  0.277050  1
  C  C2623  1  0.498967  0.303533  0.610383  1
  C  C2624  1  0.804567  0.501033  0.610383  1
  C  C2625  1  0.696467  0.195433  0.610383  1
  C  C2626  1  0.165633  0.636867  0.943717  1
  C  C2627  1  0.471233  0.834367  0.943717  1
  C  C2628  1  0.363133  0.528767  0.943717  1
  C  C2629  1  0.090700  0.942600  0.771830  1
  C  C2630  1  0.851900  0.909300  0.771830  1
  C  C2631  1  0.057400  0.148100  0.771830  1
  C  C2632  1  0.424033  0.609267  0.438497  1
  C  C2633  1  0.185233  0.575967  0.438497  1
  C  C2634  1  0.390733  0.814767  0.438497  1
  C  C2635  1  0.757367  0.275933  0.105163  1
  C  C2636  1  0.518567  0.242633  0.105163  1
  C  C2637  1  0.724067  0.481433  0.105163  1
  C  C2638  1  0.148100  0.057400  0.728170  1
  C  C2639  1  0.909300  0.851900  0.728170  1
  C  C2640  1  0.942600  0.090700  0.728170  1
  C  C2641  1  0.481433  0.724067  0.394837  1
  C  C2642  1  0.242633  0.518567  0.394837  1
  C  C2643  1  0.275933  0.757367  0.394837  1
  C  C2644  1  0.814767  0.390733  0.061503  1
  C  C2645  1  0.575967  0.185233  0.061503  1
  C  C2646  1  0.609267  0.424033  0.061503  1
  C  C2647  1  0.909300  0.057400  0.228170  1
  C  C2648  1  0.148100  0.090700  0.228170  1
  C  C2649  1  0.942600  0.851900  0.228170  1
  C  C2650  1  0.575967  0.390733  0.561503  1
  C  C2651  1  0.814767  0.424033  0.561503  1
  C  C2652  1  0.609267  0.185233  0.561503  1
  C  C2653  1  0.242633  0.724067  0.894837  1
  C  C2654  1  0.481433  0.757367  0.894837  1
  C  C2655  1  0.275933  0.518567  0.894837  1
  C  C2656  1  0.851900  0.942600  0.271830  1
  C  C2657  1  0.090700  0.148100  0.271830  1
  C  C2658  1  0.057400  0.909300  0.271830  1
  C  C2659  1  0.518567  0.275933  0.605163  1
  C  C2660  1  0.757367  0.481433  0.605163  1
  C  C2661  1  0.724067  0.242633  0.605163  1
  C  C2662  1  0.185233  0.609267  0.938497  1
  C  C2663  1  0.424033  0.814767  0.938497  1
  C  C2664  1  0.390733  0.575967  0.938497  1
  C  C2665  1  0.057100  0.908200  0.782690  1
  C  C2666  1  0.851100  0.942900  0.782690  1
  C  C2667  1  0.091800  0.148900  0.782690  1
  C  C2668  1  0.390433  0.574867  0.449357  1
  C  C2669  1  0.184433  0.609567  0.449357  1
  C  C2670  1  0.425133  0.815567  0.449357  1
  C  C2671  1  0.723767  0.241533  0.116023  1
  C  C2672  1  0.517767  0.276233  0.116023  1
  C  C2673  1  0.758467  0.482233  0.116023  1
  C  C2674  1  0.148900  0.091800  0.717310  1
  C  C2675  1  0.942900  0.851100  0.717310  1
  C  C2676  1  0.908200  0.057100  0.717310  1
  C  C2677  1  0.482233  0.758467  0.383977  1
  C  C2678  1  0.276233  0.517767  0.383977  1
  C  C2679  1  0.241533  0.723767  0.383977  1
  C  C2680  1  0.815567  0.425133  0.050643  1
  C  C2681  1  0.609567  0.184433  0.050643  1
  C  C2682  1  0.574867  0.390433  0.050643  1
  C  C2683  1  0.942900  0.091800  0.217310  1
  C  C2684  1  0.148900  0.057100  0.217310  1
  C  C2685  1  0.908200  0.851100  0.217310  1
  C  C2686  1  0.609567  0.425133  0.550643  1
  C  C2687  1  0.815567  0.390433  0.550643  1
  C  C2688  1  0.574867  0.184433  0.550643  1
  C  C2689  1  0.276233  0.758467  0.883977  1
  C  C2690  1  0.482233  0.723767  0.883977  1
  C  C2691  1  0.241533  0.517767  0.883977  1
  C  C2692  1  0.851100  0.908200  0.282690  1
  C  C2693  1  0.057100  0.148900  0.282690  1
  C  C2694  1  0.091800  0.942900  0.282690  1
  C  C2695  1  0.517767  0.241533  0.616023  1
  C  C2696  1  0.723767  0.482233  0.616023  1
  C  C2697  1  0.758467  0.276233  0.616023  1
  C  C2698  1  0.184433  0.574867  0.949357  1
  C  C2699  1  0.390433  0.815567  0.949357  1
  C  C2700  1  0.425133  0.609567  0.949357  1
  C  C2701  1  0.994900  0.850800  0.796490  1
  C  C2702  1  0.855900  0.005100  0.796490  1
  C  C2703  1  0.149200  0.144100  0.796490  1
  C  C2704  1  0.328233  0.517467  0.463157  1
  C  C2705  1  0.189233  0.671767  0.463157  1
  C  C2706  1  0.482533  0.810767  0.463157  1
  C  C2707  1  0.661567  0.184133  0.129823  1
  C  C2708  1  0.522567  0.338433  0.129823  1
  C  C2709  1  0.815867  0.477433  0.129823  1
  C  C2710  1  0.144100  0.149200  0.703510  1
  C  C2711  1  0.005100  0.855900  0.703510  1
  C  C2712  1  0.850800  0.994900  0.703510  1
  C  C2713  1  0.477433  0.815867  0.370177  1
  C  C2714  1  0.338433  0.522567  0.370177  1
  C  C2715  1  0.184133  0.661567  0.370177  1
  C  C2716  1  0.810767  0.482533  0.036843  1
  C  C2717  1  0.671767  0.189233  0.036843  1
  C  C2718  1  0.517467  0.328233  0.036843  1
  C  C2719  1  0.005100  0.149200  0.203510  1
  C  C2720  1  0.144100  0.994900  0.203510  1
  C  C2721  1  0.850800  0.855900  0.203510  1
  C  C2722  1  0.671767  0.482533  0.536843  1
  C  C2723  1  0.810767  0.328233  0.536843  1
  C  C2724  1  0.517467  0.189233  0.536843  1
  C  C2725  1  0.338433  0.815867  0.870177  1
  C  C2726  1  0.477433  0.661567  0.870177  1
  C  C2727  1  0.184133  0.522567  0.870177  1
  C  C2728  1  0.855900  0.850800  0.296490  1
  C  C2729  1  0.994900  0.144100  0.296490  1
  C  C2730  1  0.149200  0.005100  0.296490  1
  C  C2731  1  0.522567  0.184133  0.629823  1
  C  C2732  1  0.661567  0.477433  0.629823  1
  C  C2733  1  0.815867  0.338433  0.629823  1
  C  C2734  1  0.189233  0.517467  0.963157  1
  C  C2735  1  0.328233  0.810767  0.963157  1
  C  C2736  1  0.482533  0.671767  0.963157  1
  C  C2737  1  0.007400  0.875100  0.781050  1
  C  C2738  1  0.867700  0.992600  0.781050  1
  C  C2739  1  0.124900  0.132300  0.781050  1
  C  C2740  1  0.340733  0.541767  0.447717  1
  C  C2741  1  0.201033  0.659267  0.447717  1
  C  C2742  1  0.458233  0.798967  0.447717  1
  C  C2743  1  0.674067  0.208433  0.114383  1
  C  C2744  1  0.534367  0.325933  0.114383  1
  C  C2745  1  0.791567  0.465633  0.114383  1
  C  C2746  1  0.132300  0.124900  0.718950  1
  C  C2747  1  0.992600  0.867700  0.718950  1
  C  C2748  1  0.875100  0.007400  0.718950  1
  C  C2749  1  0.465633  0.791567  0.385617  1
  C  C2750  1  0.325933  0.534367  0.385617  1
  C  C2751  1  0.208433  0.674067  0.385617  1
  C  C2752  1  0.798967  0.458233  0.052283  1
  C  C2753  1  0.659267  0.201033  0.052283  1
  C  C2754  1  0.541767  0.340733  0.052283  1
  C  C2755  1  0.992600  0.124900  0.218950  1
  C  C2756  1  0.132300  0.007400  0.218950  1
  C  C2757  1  0.875100  0.867700  0.218950  1
  C  C2758  1  0.659267  0.458233  0.552283  1
  C  C2759  1  0.798967  0.340733  0.552283  1
  C  C2760  1  0.541767  0.201033  0.552283  1
  C  C2761  1  0.325933  0.791567  0.885617  1
  C  C2762  1  0.465633  0.674067  0.885617  1
  C  C2763  1  0.208433  0.534367  0.885617  1
  C  C2764  1  0.867700  0.875100  0.281050  1
  C  C2765  1  0.007400  0.132300  0.281050  1
  C  C2766  1  0.124900  0.992600  0.281050  1
  C  C2767  1  0.534367  0.208433  0.614383  1
  C  C2768  1  0.674067  0.465633  0.614383  1
  C  C2769  1  0.791567  0.325933  0.614383  1
  C  C2770  1  0.201033  0.541767  0.947717  1
  C  C2771  1  0.340733  0.798967  0.947717  1
  C  C2772  1  0.458233  0.659267  0.947717  1
  C  C2773  1  0.972900  0.864200  0.768600  1
  C  C2774  1  0.891300  0.027100  0.768600  1
  C  C2775  1  0.135800  0.108700  0.768600  1
  C  C2776  1  0.306233  0.530867  0.435267  1
  C  C2777  1  0.224633  0.693767  0.435267  1
  C  C2778  1  0.469133  0.775367  0.435267  1
  C  C2779  1  0.639567  0.197533  0.101933  1
  C  C2780  1  0.557967  0.360433  0.101933  1
  C  C2781  1  0.802467  0.442033  0.101933  1
  C  C2782  1  0.108700  0.135800  0.731400  1
  C  C2783  1  0.027100  0.891300  0.731400  1
  C  C2784  1  0.864200  0.972900  0.731400  1
  C  C2785  1  0.442033  0.802467  0.398067  1
  C  C2786  1  0.360433  0.557967  0.398067  1
  C  C2787  1  0.197533  0.639567  0.398067  1
  C  C2788  1  0.775367  0.469133  0.064733  1
  C  C2789  1  0.693767  0.224633  0.064733  1
  C  C2790  1  0.530867  0.306233  0.064733  1
  C  C2791  1  0.027100  0.135800  0.231400  1
  C  C2792  1  0.108700  0.972900  0.231400  1
  C  C2793  1  0.864200  0.891300  0.231400  1
  C  C2794  1  0.693767  0.469133  0.564733  1
  C  C2795  1  0.775367  0.306233  0.564733  1
  C  C2796  1  0.530867  0.224633  0.564733  1
  C  C2797  1  0.360433  0.802467  0.898067  1
  C  C2798  1  0.442033  0.639567  0.898067  1
  C  C2799  1  0.197533  0.557967  0.898067  1
  C  C2800  1  0.891300  0.864200  0.268600  1
  C  C2801  1  0.972900  0.108700  0.268600  1
  C  C2802  1  0.135800  0.027100  0.268600  1
  C  C2803  1  0.557967  0.197533  0.601933  1
  C  C2804  1  0.639567  0.442033  0.601933  1
  C  C2805  1  0.802467  0.360433  0.601933  1
  C  C2806  1  0.224633  0.530867  0.935267  1
  C  C2807  1  0.306233  0.775367  0.935267  1
  C  C2808  1  0.469133  0.693767  0.935267  1
  C  C2809  1  0.925800  0.829000  0.771600  1
  C  C2810  1  0.903200  0.074200  0.771600  1
  C  C2811  1  0.171000  0.096800  0.771600  1
  C  C2812  1  0.259133  0.495667  0.438267  1
  C  C2813  1  0.236533  0.740867  0.438267  1
  C  C2814  1  0.504333  0.763467  0.438267  1
  C  C2815  1  0.592467  0.162333  0.104933  1
  C  C2816  1  0.569867  0.407533  0.104933  1
  C  C2817  1  0.837667  0.430133  0.104933  1
  C  C2818  1  0.096800  0.171000  0.728400  1
  C  C2819  1  0.074200  0.903200  0.728400  1
  C  C2820  1  0.829000  0.925800  0.728400  1
  C  C2821  1  0.430133  0.837667  0.395067  1
  C  C2822  1  0.407533  0.569867  0.395067  1
  C  C2823  1  0.162333  0.592467  0.395067  1
  C  C2824  1  0.763467  0.504333  0.061733  1
  C  C2825  1  0.740867  0.236533  0.061733  1
  C  C2826  1  0.495667  0.259133  0.061733  1
  C  C2827  1  0.074200  0.171000  0.228400  1
  C  C2828  1  0.096800  0.925800  0.228400  1
  C  C2829  1  0.829000  0.903200  0.228400  1
  C  C2830  1  0.740867  0.504333  0.561733  1
  C  C2831  1  0.763467  0.259133  0.561733  1
  C  C2832  1  0.495667  0.236533  0.561733  1
  C  C2833  1  0.407533  0.837667  0.895067  1
  C  C2834  1  0.430133  0.592467  0.895067  1
  C  C2835  1  0.162333  0.569867  0.895067  1
  C  C2836  1  0.903200  0.829000  0.271600  1
  C  C2837  1  0.925800  0.096800  0.271600  1
  C  C2838  1  0.171000  0.074200  0.271600  1
  C  C2839  1  0.569867  0.162333  0.604933  1
  C  C2840  1  0.592467  0.430133  0.604933  1
  C  C2841  1  0.837667  0.407533  0.604933  1
  C  C2842  1  0.236533  0.495667  0.938267  1
  C  C2843  1  0.259133  0.763467  0.938267  1
  C  C2844  1  0.504333  0.740867  0.938267  1
  C  C2845  1  0.913300  0.804700  0.787050  1
  C  C2846  1  0.891400  0.086700  0.787050  1
  C  C2847  1  0.195300  0.108600  0.787050  1
  C  C2848  1  0.246633  0.471367  0.453717  1
  C  C2849  1  0.224733  0.753367  0.453717  1
  C  C2850  1  0.528633  0.775267  0.453717  1
  C  C2851  1  0.579967  0.138033  0.120383  1
  C  C2852  1  0.558067  0.420033  0.120383  1
  C  C2853  1  0.861967  0.441933  0.120383  1
  C  C2854  1  0.108600  0.195300  0.712950  1
  C  C2855  1  0.086700  0.891400  0.712950  1
  C  C2856  1  0.804700  0.913300  0.712950  1
  C  C2857  1  0.441933  0.861967  0.379617  1
  C  C2858  1  0.420033  0.558067  0.379617  1
  C  C2859  1  0.138033  0.579967  0.379617  1
  C  C2860  1  0.775267  0.528633  0.046283  1
  C  C2861  1  0.753367  0.224733  0.046283  1
  C  C2862  1  0.471367  0.246633  0.046283  1
  C  C2863  1  0.086700  0.195300  0.212950  1
  C  C2864  1  0.108600  0.913300  0.212950  1
  C  C2865  1  0.804700  0.891400  0.212950  1
  C  C2866  1  0.753367  0.528633  0.546283  1
  C  C2867  1  0.775267  0.246633  0.546283  1
  C  C2868  1  0.471367  0.224733  0.546283  1
  C  C2869  1  0.420033  0.861967  0.879617  1
  C  C2870  1  0.441933  0.579967  0.879617  1
  C  C2871  1  0.138033  0.558067  0.879617  1
  C  C2872  1  0.891400  0.804700  0.287050  1
  C  C2873  1  0.913300  0.108600  0.287050  1
  C  C2874  1  0.195300  0.086700  0.287050  1
  C  C2875  1  0.558067  0.138033  0.620383  1
  C  C2876  1  0.579967  0.441933  0.620383  1
  C  C2877  1  0.861967  0.420033  0.620383  1
  C  C2878  1  0.224733  0.471367  0.953717  1
  C  C2879  1  0.246633  0.775267  0.953717  1
  C  C2880  1  0.528633  0.753367  0.953717  1
  C  C2881  1  0.947900  0.815700  0.799490  1
  C  C2882  1  0.867800  0.052100  0.799490  1
  C  C2883  1  0.184300  0.132200  0.799490  1
  C  C2884  1  0.281233  0.482367  0.466157  1
  C  C2885  1  0.201133  0.718767  0.466157  1
  C  C2886  1  0.517633  0.798867  0.466157  1
  C  C2887  1  0.614567  0.149033  0.132823  1
  C  C2888  1  0.534467  0.385433  0.132823  1
  C  C2889  1  0.850967  0.465533  0.132823  1
  C  C2890  1  0.132200  0.184300  0.700510  1
  C  C2891  1  0.052100  0.867800  0.700510  1
  C  C2892  1  0.815700  0.947900  0.700510  1
  C  C2893  1  0.465533  0.850967  0.367177  1
  C  C2894  1  0.385433  0.534467  0.367177  1
  C  C2895  1  0.149033  0.614567  0.367177  1
  C  C2896  1  0.798867  0.517633  0.033843  1
  C  C2897  1  0.718767  0.201133  0.033843  1
  C  C2898  1  0.482367  0.281233  0.033843  1
  C  C2899  1  0.052100  0.184300  0.200510  1
  C  C2900  1  0.132200  0.947900  0.200510  1
  C  C2901  1  0.815700  0.867800  0.200510  1
  C  C2902  1  0.718767  0.517633  0.533843  1
  C  C2903  1  0.798867  0.281233  0.533843  1
  C  C2904  1  0.482367  0.201133  0.533843  1
  C  C2905  1  0.385433  0.850967  0.867177  1
  C  C2906  1  0.465533  0.614567  0.867177  1
  C  C2907  1  0.149033  0.534467  0.867177  1
  C  C2908  1  0.867800  0.815700  0.299490  1
  C  C2909  1  0.947900  0.132200  0.299490  1
  C  C2910  1  0.184300  0.052100  0.299490  1
  C  C2911  1  0.534467  0.149033  0.632823  1
  C  C2912  1  0.614567  0.465533  0.632823  1
  C  C2913  1  0.850967  0.385433  0.632823  1
  C  C2914  1  0.201133  0.482367  0.966157  1
  C  C2915  1  0.281233  0.798867  0.966157  1
  C  C2916  1  0.517633  0.718767  0.966157  1
  C  C2917  1  0.029800  0.844200  0.859500  1
  C  C2918  1  0.814400  0.970200  0.859500  1
  C  C2919  1  0.155800  0.185600  0.859500  1
  C  C2920  1  0.363133  0.510867  0.526167  1
  C  C2921  1  0.147733  0.636867  0.526167  1
  C  C2922  1  0.489133  0.852267  0.526167  1
  C  C2923  1  0.696467  0.177533  0.192833  1
  C  C2924  1  0.481067  0.303533  0.192833  1
  C  C2925  1  0.822467  0.518933  0.192833  1
  C  C2926  1  0.185600  0.155800  0.640500  1
  C  C2927  1  0.970200  0.814400  0.640500  1
  C  C2928  1  0.844200  0.029800  0.640500  1
  C  C2929  1  0.518933  0.822467  0.307167  1
  C  C2930  1  0.303533  0.481067  0.307167  1
  C  C2931  1  0.177533  0.696467  0.307167  1
  C  C2932  1  0.852267  0.489133  0.973833  1
  C  C2933  1  0.636867  0.147733  0.973833  1
  C  C2934  1  0.510867  0.363133  0.973833  1
  C  C2935  1  0.970200  0.155800  0.140500  1
  C  C2936  1  0.185600  0.029800  0.140500  1
  C  C2937  1  0.844200  0.814400  0.140500  1
  C  C2938  1  0.636867  0.489133  0.473833  1
  C  C2939  1  0.852267  0.363133  0.473833  1
  C  C2940  1  0.510867  0.147733  0.473833  1
  C  C2941  1  0.303533  0.822467  0.807167  1
  C  C2942  1  0.518933  0.696467  0.807167  1
  C  C2943  1  0.177533  0.481067  0.807167  1
  C  C2944  1  0.814400  0.844200  0.359500  1
  C  C2945  1  0.029800  0.185600  0.359500  1
  C  C2946  1  0.155800  0.970200  0.359500  1
  C  C2947  1  0.481067  0.177533  0.692833  1
  C  C2948  1  0.696467  0.518933  0.692833  1
  C  C2949  1  0.822467  0.303533  0.692833  1
  C  C2950  1  0.147733  0.510867  0.026167  1
  C  C2951  1  0.363133  0.852267  0.026167  1
  C  C2952  1  0.489133  0.636867  0.026167  1
  C  C2953  1  0.038200  0.887800  0.853090  1
  C  C2954  1  0.849600  0.961800  0.853090  1
  C  C2955  1  0.112200  0.150400  0.853090  1
  C  C2956  1  0.371533  0.554467  0.519757  1
  C  C2957  1  0.182933  0.628467  0.519757  1
  C  C2958  1  0.445533  0.817067  0.519757  1
  C  C2959  1  0.704867  0.221133  0.186423  1
  C  C2960  1  0.516267  0.295133  0.186423  1
  C  C2961  1  0.778867  0.483733  0.186423  1
  C  C2962  1  0.150400  0.112200  0.646910  1
  C  C2963  1  0.961800  0.849600  0.646910  1
  C  C2964  1  0.887800  0.038200  0.646910  1
  C  C2965  1  0.483733  0.778867  0.313577  1
  C  C2966  1  0.295133  0.516267  0.313577  1
  C  C2967  1  0.221133  0.704867  0.313577  1
  C  C2968  1  0.817067  0.445533  0.980243  1
  C  C2969  1  0.628467  0.182933  0.980243  1
  C  C2970  1  0.554467  0.371533  0.980243  1
  C  C2971  1  0.961800  0.112200  0.146910  1
  C  C2972  1  0.150400  0.038200  0.146910  1
  C  C2973  1  0.887800  0.849600  0.146910  1
  C  C2974  1  0.628467  0.445533  0.480243  1
  C  C2975  1  0.817067  0.371533  0.480243  1
  C  C2976  1  0.554467  0.182933  0.480243  1
  C  C2977  1  0.295133  0.778867  0.813577  1
  C  C2978  1  0.483733  0.704867  0.813577  1
  C  C2979  1  0.221133  0.516267  0.813577  1
  C  C2980  1  0.849600  0.887800  0.353090  1
  C  C2981  1  0.038200  0.150400  0.353090  1
  C  C2982  1  0.112200  0.961800  0.353090  1
  C  C2983  1  0.516267  0.221133  0.686423  1
  C  C2984  1  0.704867  0.483733  0.686423  1
  C  C2985  1  0.778867  0.295133  0.686423  1
  C  C2986  1  0.182933  0.554467  0.019757  1
  C  C2987  1  0.371533  0.817067  0.019757  1
  C  C2988  1  0.445533  0.628467  0.019757  1
  C  C2989  1  0.038700  0.894600  0.835590  1
  C  C2990  1  0.855900  0.961300  0.835590  1
  C  C2991  1  0.105400  0.144100  0.835590  1
  C  C2992  1  0.372033  0.561267  0.502257  1
  C  C2993  1  0.189233  0.627967  0.502257  1
  C  C2994  1  0.438733  0.810767  0.502257  1
  C  C2995  1  0.705367  0.227933  0.168923  1
  C  C2996  1  0.522567  0.294633  0.168923  1
  C  C2997  1  0.772067  0.477433  0.168923  1
  C  C2998  1  0.144100  0.105400  0.664410  1
  C  C2999  1  0.961300  0.855900  0.664410  1
  C  C3000  1  0.894600  0.038700  0.664410  1
  C  C3001  1  0.477433  0.772067  0.331077  1
  C  C3002  1  0.294633  0.522567  0.331077  1
  C  C3003  1  0.227933  0.705367  0.331077  1
  C  C3004  1  0.810767  0.438733  0.997743  1
  C  C3005  1  0.627967  0.189233  0.997743  1
  C  C3006  1  0.561267  0.372033  0.997743  1
  C  C3007  1  0.961300  0.105400  0.164410  1
  C  C3008  1  0.144100  0.038700  0.164410  1
  C  C3009  1  0.894600  0.855900  0.164410  1
  C  C3010  1  0.627967  0.438733  0.497743  1
  C  C3011  1  0.810767  0.372033  0.497743  1
  C  C3012  1  0.561267  0.189233  0.497743  1
  C  C3013  1  0.294633  0.772067  0.831077  1
  C  C3014  1  0.477433  0.705367  0.831077  1
  C  C3015  1  0.227933  0.522567  0.831077  1
  C  C3016  1  0.855900  0.894600  0.335590  1
  C  C3017  1  0.038700  0.144100  0.335590  1
  C  C3018  1  0.105400  0.961300  0.335590  1
  C  C3019  1  0.522567  0.227933  0.668923  1
  C  C3020  1  0.705367  0.477433  0.668923  1
  C  C3021  1  0.772067  0.294633  0.668923  1
  C  C3022  1  0.189233  0.561267  0.002257  1
  C  C3023  1  0.372033  0.810767  0.002257  1
  C  C3024  1  0.438733  0.627967  0.002257  1
  C  C3025  1  0.030900  0.857900  0.824510  1
  C  C3026  1  0.827000  0.969100  0.824510  1
  C  C3027  1  0.142100  0.173000  0.824510  1
  C  C3028  1  0.364233  0.524567  0.491177  1
  C  C3029  1  0.160333  0.635767  0.491177  1
  C  C3030  1  0.475433  0.839667  0.491177  1
  C  C3031  1  0.697567  0.191233  0.157843  1
  C  C3032  1  0.493667  0.302433  0.157843  1
  C  C3033  1  0.808767  0.506333  0.157843  1
  C  C3034  1  0.173000  0.142100  0.675490  1
  C  C3035  1  0.969100  0.827000  0.675490  1
  C  C3036  1  0.857900  0.030900  0.675490  1
  C  C3037  1  0.506333  0.808767  0.342157  1
  C  C3038  1  0.302433  0.493667  0.342157  1
  C  C3039  1  0.191233  0.697567  0.342157  1
  C  C3040  1  0.839667  0.475433  0.008823  1
  C  C3041  1  0.635767  0.160333  0.008823  1
  C  C3042  1  0.524567  0.364233  0.008823  1
  C  C3043  1  0.969100  0.142100  0.175490  1
  C  C3044  1  0.173000  0.030900  0.175490  1
  C  C3045  1  0.857900  0.827000  0.175490  1
  C  C3046  1  0.635767  0.475433  0.508823  1
  C  C3047  1  0.839667  0.364233  0.508823  1
  C  C3048  1  0.524567  0.160333  0.508823  1
  C  C3049  1  0.302433  0.808767  0.842157  1
  C  C3050  1  0.506333  0.697567  0.842157  1
  C  C3051  1  0.191233  0.493667  0.842157  1
  C  C3052  1  0.827000  0.857900  0.324510  1
  C  C3053  1  0.030900  0.173000  0.324510  1
  C  C3054  1  0.142100  0.969100  0.324510  1
  C  C3055  1  0.493667  0.191233  0.657843  1
  C  C3056  1  0.697567  0.506333  0.657843  1
  C  C3057  1  0.808767  0.302433  0.657843  1
  C  C3058  1  0.160333  0.524567  0.991177  1
  C  C3059  1  0.364233  0.839667  0.991177  1
  C  C3060  1  0.475433  0.635767  0.991177  1
  C  C3061  1  0.022600  0.814400  0.830920  1
  C  C3062  1  0.791800  0.977400  0.830920  1
  C  C3063  1  0.185600  0.208200  0.830920  1
  C  C3064  1  0.355933  0.481067  0.497587  1
  C  C3065  1  0.125133  0.644067  0.497587  1
  C  C3066  1  0.518933  0.874867  0.497587  1
  C  C3067  1  0.689267  0.147733  0.164253  1
  C  C3068  1  0.458467  0.310733  0.164253  1
  C  C3069  1  0.852267  0.541533  0.164253  1
  C  C3070  1  0.208200  0.185600  0.669080  1
  C  C3071  1  0.977400  0.791800  0.669080  1
  C  C3072  1  0.814400  0.022600  0.669080  1
  C  C3073  1  0.541533  0.852267  0.335747  1
  C  C3074  1  0.310733  0.458467  0.335747  1
  C  C3075  1  0.147733  0.689267  0.335747  1
  C  C3076  1  0.874867  0.518933  0.002413  1
  C  C3077  1  0.644067  0.125133  0.002413  1
  C  C3078  1  0.481067  0.355933  0.002413  1
  C  C3079  1  0.977400  0.185600  0.169080  1
  C  C3080  1  0.208200  0.022600  0.169080  1
  C  C3081  1  0.814400  0.791800  0.169080  1
  C  C3082  1  0.644067  0.518933  0.502413  1
  C  C3083  1  0.874867  0.355933  0.502413  1
  C  C3084  1  0.481067  0.125133  0.502413  1
  C  C3085  1  0.310733  0.852267  0.835747  1
  C  C3086  1  0.541533  0.689267  0.835747  1
  C  C3087  1  0.147733  0.458467  0.835747  1
  C  C3088  1  0.791800  0.814400  0.330920  1
  C  C3089  1  0.022600  0.208200  0.330920  1
  C  C3090  1  0.185600  0.977400  0.330920  1
  C  C3091  1  0.458467  0.147733  0.664253  1
  C  C3092  1  0.689267  0.541533  0.664253  1
  C  C3093  1  0.852267  0.310733  0.664253  1
  C  C3094  1  0.125133  0.481067  0.997587  1
  C  C3095  1  0.355933  0.874867  0.997587  1
  C  C3096  1  0.518933  0.644067  0.997587  1
  C  C3097  1  0.022000  0.807500  0.848420  1
  C  C3098  1  0.785500  0.978000  0.848420  1
  C  C3099  1  0.192500  0.214500  0.848420  1
  C  C3100  1  0.355333  0.474167  0.515087  1
  C  C3101  1  0.118833  0.644667  0.515087  1
  C  C3102  1  0.525833  0.881167  0.515087  1
  C  C3103  1  0.688667  0.140833  0.181753  1
  C  C3104  1  0.452167  0.311333  0.181753  1
  C  C3105  1  0.859167  0.547833  0.181753  1
  C  C3106  1  0.214500  0.192500  0.651580  1
  C  C3107  1  0.978000  0.785500  0.651580  1
  C  C3108  1  0.807500  0.022000  0.651580  1
  C  C3109  1  0.547833  0.859167  0.318247  1
  C  C3110  1  0.311333  0.452167  0.318247  1
  C  C3111  1  0.140833  0.688667  0.318247  1
  C  C3112  1  0.881167  0.525833  0.984913  1
  C  C3113  1  0.644667  0.118833  0.984913  1
  C  C3114  1  0.474167  0.355333  0.984913  1
  C  C3115  1  0.978000  0.192500  0.151580  1
  C  C3116  1  0.214500  0.022000  0.151580  1
  C  C3117  1  0.807500  0.785500  0.151580  1
  C  C3118  1  0.644667  0.525833  0.484913  1
  C  C3119  1  0.881167  0.355333  0.484913  1
  C  C3120  1  0.474167  0.118833  0.484913  1
  C  C3121  1  0.311333  0.859167  0.818247  1
  C  C3122  1  0.547833  0.688667  0.818247  1
  C  C3123  1  0.140833  0.452167  0.818247  1
  C  C3124  1  0.785500  0.807500  0.348420  1
  C  C3125  1  0.022000  0.214500  0.348420  1
  C  C3126  1  0.192500  0.978000  0.348420  1
  C  C3127  1  0.452167  0.140833  0.681753  1
  C  C3128  1  0.688667  0.547833  0.681753  1
  C  C3129  1  0.859167  0.311333  0.681753  1
  C  C3130  1  0.118833  0.474167  0.015087  1
  C  C3131  1  0.355333  0.881167  0.015087  1
  C  C3132  1  0.525833  0.644667  0.015087  1
  C  C3133  1  0.012600  0.765900  0.859880  1
  C  C3134  1  0.753300  0.987400  0.859880  1
  C  C3135  1  0.234100  0.246700  0.859880  1
  C  C3136  1  0.345933  0.432567  0.526547  1
  C  C3137  1  0.086633  0.654067  0.526547  1
  C  C3138  1  0.567433  0.913367  0.526547  1
  C  C3139  1  0.679267  0.099233  0.193213  1
  C  C3140  1  0.419967  0.320733  0.193213  1
  C  C3141  1  0.900767  0.580033  0.193213  1
  C  C3142  1  0.246700  0.234100  0.640120  1
  C  C3143  1  0.987400  0.753300  0.640120  1
  C  C3144  1  0.765900  0.012600  0.640120  1
  C  C3145  1  0.580033  0.900767  0.306787  1
  C  C3146  1  0.320733  0.419967  0.306787  1
  C  C3147  1  0.099233  0.679267  0.306787  1
  C  C3148  1  0.913367  0.567433  0.973453  1
  C  C3149  1  0.654067  0.086633  0.973453  1
  C  C3150  1  0.432567  0.345933  0.973453  1
  C  C3151  1  0.987400  0.234100  0.140120  1
  C  C3152  1  0.246700  0.012600  0.140120  1
  C  C3153  1  0.765900  0.753300  0.140120  1
  C  C3154  1  0.654067  0.567433  0.473453  1
  C  C3155  1  0.913367  0.345933  0.473453  1
  C  C3156  1  0.432567  0.086633  0.473453  1
  C  C3157  1  0.320733  0.900767  0.806787  1
  C  C3158  1  0.580033  0.679267  0.806787  1
  C  C3159  1  0.099233  0.419967  0.806787  1
  C  C3160  1  0.753300  0.765900  0.359880  1
  C  C3161  1  0.012600  0.246700  0.359880  1
  C  C3162  1  0.234100  0.987400  0.359880  1
  C  C3163  1  0.419967  0.099233  0.693213  1
  C  C3164  1  0.679267  0.580033  0.693213  1
  C  C3165  1  0.900767  0.320733  0.693213  1
  C  C3166  1  0.086633  0.432567  0.026547  1
  C  C3167  1  0.345933  0.913367  0.026547  1
  C  C3168  1  0.567433  0.654067  0.026547  1
  C  C3169  1  0.002800  0.719100  0.858090  1
  C  C3170  1  0.716300  0.997200  0.858090  1
  C  C3171  1  0.280900  0.283700  0.858090  1
  C  C3172  1  0.336133  0.385767  0.524757  1
  C  C3173  1  0.049633  0.663867  0.524757  1
  C  C3174  1  0.614233  0.950367  0.524757  1
  C  C3175  1  0.669467  0.052433  0.191423  1
  C  C3176  1  0.382967  0.330533  0.191423  1
  C  C3177  1  0.947567  0.617033  0.191423  1
  C  C3178  1  0.283700  0.280900  0.641910  1
  C  C3179  1  0.997200  0.716300  0.641910  1
  C  C3180  1  0.719100  0.002800  0.641910  1
  C  C3181  1  0.617033  0.947567  0.308577  1
  C  C3182  1  0.330533  0.382967  0.308577  1
  C  C3183  1  0.052433  0.669467  0.308577  1
  C  C3184  1  0.950367  0.614233  0.975243  1
  C  C3185  1  0.663867  0.049633  0.975243  1
  C  C3186  1  0.385767  0.336133  0.975243  1
  C  C3187  1  0.997200  0.280900  0.141910  1
  C  C3188  1  0.283700  0.002800  0.141910  1
  C  C3189  1  0.719100  0.716300  0.141910  1
  C  C3190  1  0.663867  0.614233  0.475243  1
  C  C3191  1  0.950367  0.336133  0.475243  1
  C  C3192  1  0.385767  0.049633  0.475243  1
  C  C3193  1  0.330533  0.947567  0.808577  1
  C  C3194  1  0.617033  0.669467  0.808577  1
  C  C3195  1  0.052433  0.382967  0.808577  1
  C  C3196  1  0.716300  0.719100  0.358090  1
  C  C3197  1  0.002800  0.283700  0.358090  1
  C  C3198  1  0.280900  0.997200  0.358090  1
  C  C3199  1  0.382967  0.052433  0.691423  1
  C  C3200  1  0.669467  0.617033  0.691423  1
  C  C3201  1  0.947567  0.330533  0.691423  1
  C  C3202  1  0.049633  0.385767  0.024757  1
  C  C3203  1  0.336133  0.950367  0.024757  1
  C  C3204  1  0.614233  0.663867  0.024757  1
  C  C3205  1  0.999100  0.692200  0.872400  1
  C  C3206  1  0.693100  0.000900  0.872400  1
  C  C3207  1  0.307800  0.306900  0.872400  1
  C  C3208  1  0.332433  0.358867  0.539067  1
  C  C3209  1  0.026433  0.667567  0.539067  1
  C  C3210  1  0.641133  0.973567  0.539067  1
  C  C3211  1  0.665767  0.025533  0.205733  1
  C  C3212  1  0.359767  0.334233  0.205733  1
  C  C3213  1  0.974467  0.640233  0.205733  1
  C  C3214  1  0.306900  0.307800  0.627600  1
  C  C3215  1  0.000900  0.693100  0.627600  1
  C  C3216  1  0.692200  0.999100  0.627600  1
  C  C3217  1  0.640233  0.974467  0.294267  1
  C  C3218  1  0.334233  0.359767  0.294267  1
  C  C3219  1  0.025533  0.665767  0.294267  1
  C  C3220  1  0.973567  0.641133  0.960933  1
  C  C3221  1  0.667567  0.026433  0.960933  1
  C  C3222  1  0.358867  0.332433  0.960933  1
  C  C3223  1  0.000900  0.307800  0.127600  1
  C  C3224  1  0.306900  0.999100  0.127600  1
  C  C3225  1  0.692200  0.693100  0.127600  1
  C  C3226  1  0.667567  0.641133  0.460933  1
  C  C3227  1  0.973567  0.332433  0.460933  1
  C  C3228  1  0.358867  0.026433  0.460933  1
  C  C3229  1  0.334233  0.974467  0.794267  1
  C  C3230  1  0.640233  0.665767  0.794267  1
  C  C3231  1  0.025533  0.359767  0.794267  1
  C  C3232  1  0.693100  0.692200  0.372400  1
  C  C3233  1  0.999100  0.306900  0.372400  1
  C  C3234  1  0.307800  0.000900  0.372400  1
  C  C3235  1  0.359767  0.025533  0.705733  1
  C  C3236  1  0.665767  0.640233  0.705733  1
  C  C3237  1  0.974467  0.334233  0.705733  1
  C  C3238  1  0.026433  0.358867  0.039067  1
  C  C3239  1  0.332433  0.973567  0.039067  1
  C  C3240  1  0.641133  0.667567  0.039067  1
  C  C3241  1  0.005200  0.712200  0.888600  1
  C  C3242  1  0.707000  0.994800  0.888600  1
  C  C3243  1  0.287800  0.293000  0.888600  1
  C  C3244  1  0.338533  0.378867  0.555267  1
  C  C3245  1  0.040333  0.661467  0.555267  1
  C  C3246  1  0.621133  0.959667  0.555267  1
  C  C3247  1  0.671867  0.045533  0.221933  1
  C  C3248  1  0.373667  0.328133  0.221933  1
  C  C3249  1  0.954467  0.626333  0.221933  1
  C  C3250  1  0.293000  0.287800  0.611400  1
  C  C3251  1  0.994800  0.707000  0.611400  1
  C  C3252  1  0.712200  0.005200  0.611400  1
  C  C3253  1  0.626333  0.954467  0.278067  1
  C  C3254  1  0.328133  0.373667  0.278067  1
  C  C3255  1  0.045533  0.671867  0.278067  1
  C  C3256  1  0.959667  0.621133  0.944733  1
  C  C3257  1  0.661467  0.040333  0.944733  1
  C  C3258  1  0.378867  0.338533  0.944733  1
  C  C3259  1  0.994800  0.287800  0.111400  1
  C  C3260  1  0.293000  0.005200  0.111400  1
  C  C3261  1  0.712200  0.707000  0.111400  1
  C  C3262  1  0.661467  0.621133  0.444733  1
  C  C3263  1  0.959667  0.338533  0.444733  1
  C  C3264  1  0.378867  0.040333  0.444733  1
  C  C3265  1  0.328133  0.954467  0.778067  1
  C  C3266  1  0.626333  0.671867  0.778067  1
  C  C3267  1  0.045533  0.373667  0.778067  1
  C  C3268  1  0.707000  0.712200  0.388600  1
  C  C3269  1  0.005200  0.293000  0.388600  1
  C  C3270  1  0.287800  0.994800  0.388600  1
  C  C3271  1  0.373667  0.045533  0.721933  1
  C  C3272  1  0.671867  0.626333  0.721933  1
  C  C3273  1  0.954467  0.328133  0.721933  1
  C  C3274  1  0.040333  0.378867  0.055267  1
  C  C3275  1  0.338533  0.959667  0.055267  1
  C  C3276  1  0.621133  0.661467  0.055267  1
  C  C3277  1  0.015000  0.759000  0.890350  1
  C  C3278  1  0.744000  0.985000  0.890350  1
  C  C3279  1  0.241000  0.256000  0.890350  1
  C  C3280  1  0.348333  0.425667  0.557017  1
  C  C3281  1  0.077333  0.651667  0.557017  1
  C  C3282  1  0.574333  0.922667  0.557017  1
  C  C3283  1  0.681667  0.092333  0.223683  1
  C  C3284  1  0.410667  0.318333  0.223683  1
  C  C3285  1  0.907667  0.589333  0.223683  1
  C  C3286  1  0.256000  0.241000  0.609650  1
  C  C3287  1  0.985000  0.744000  0.609650  1
  C  C3288  1  0.759000  0.015000  0.609650  1
  C  C3289  1  0.589333  0.907667  0.276317  1
  C  C3290  1  0.318333  0.410667  0.276317  1
  C  C3291  1  0.092333  0.681667  0.276317  1
  C  C3292  1  0.922667  0.574333  0.942983  1
  C  C3293  1  0.651667  0.077333  0.942983  1
  C  C3294  1  0.425667  0.348333  0.942983  1
  C  C3295  1  0.985000  0.241000  0.109650  1
  C  C3296  1  0.256000  0.015000  0.109650  1
  C  C3297  1  0.759000  0.744000  0.109650  1
  C  C3298  1  0.651667  0.574333  0.442983  1
  C  C3299  1  0.922667  0.348333  0.442983  1
  C  C3300  1  0.425667  0.077333  0.442983  1
  C  C3301  1  0.318333  0.907667  0.776317  1
  C  C3302  1  0.589333  0.681667  0.776317  1
  C  C3303  1  0.092333  0.410667  0.776317  1
  C  C3304  1  0.744000  0.759000  0.390350  1
  C  C3305  1  0.015000  0.256000  0.390350  1
  C  C3306  1  0.241000  0.985000  0.390350  1
  C  C3307  1  0.410667  0.092333  0.723683  1
  C  C3308  1  0.681667  0.589333  0.723683  1
  C  C3309  1  0.907667  0.318333  0.723683  1
  C  C3310  1  0.077333  0.425667  0.057017  1
  C  C3311  1  0.348333  0.922667  0.057017  1
  C  C3312  1  0.574333  0.651667  0.057017  1
  C  C3313  1  0.018700  0.785900  0.876010  1
  C  C3314  1  0.767200  0.981300  0.876010  1
  C  C3315  1  0.214100  0.232800  0.876010  1
  C  C3316  1  0.352033  0.452567  0.542677  1
  C  C3317  1  0.100533  0.647967  0.542677  1
  C  C3318  1  0.547433  0.899467  0.542677  1
  C  C3319  1  0.685367  0.119233  0.209343  1
  C  C3320  1  0.433867  0.314633  0.209343  1
  C  C3321  1  0.880767  0.566133  0.209343  1
  C  C3322  1  0.232800  0.214100  0.623990  1
  C  C3323  1  0.981300  0.767200  0.623990  1
  C  C3324  1  0.785900  0.018700  0.623990  1
  C  C3325  1  0.566133  0.880767  0.290657  1
  C  C3326  1  0.314633  0.433867  0.290657  1
  C  C3327  1  0.119233  0.685367  0.290657  1
  C  C3328  1  0.899467  0.547433  0.957323  1
  C  C3329  1  0.647967  0.100533  0.957323  1
  C  C3330  1  0.452567  0.352033  0.957323  1
  C  C3331  1  0.981300  0.214100  0.123990  1
  C  C3332  1  0.232800  0.018700  0.123990  1
  C  C3333  1  0.785900  0.767200  0.123990  1
  C  C3334  1  0.647967  0.547433  0.457323  1
  C  C3335  1  0.899467  0.352033  0.457323  1
  C  C3336  1  0.452567  0.100533  0.457323  1
  C  C3337  1  0.314633  0.880767  0.790657  1
  C  C3338  1  0.566133  0.685367  0.790657  1
  C  C3339  1  0.119233  0.433867  0.790657  1
  C  C3340  1  0.767200  0.785900  0.376010  1
  C  C3341  1  0.018700  0.232800  0.376010  1
  C  C3342  1  0.214100  0.981300  0.376010  1
  C  C3343  1  0.433867  0.119233  0.709343  1
  C  C3344  1  0.685367  0.566133  0.709343  1
  C  C3345  1  0.880767  0.314633  0.709343  1
  C  C3346  1  0.100533  0.452567  0.042677  1
  C  C3347  1  0.352033  0.899467  0.042677  1
  C  C3348  1  0.547433  0.647967  0.042677  1
  C  C3349  1  0.006400  0.619000  0.862860  1.0
  C  C3350  1  0.612600  0.993600  0.862860  1.0
  C  C3351  1  0.381000  0.387400  0.862860  1.0
  C  C3352  1  0.339733  0.285667  0.529527  1.0
  C  C3353  1  0.945933  0.660267  0.529527  1.0
  C  C3354  1  0.714333  0.054067  0.529527  1.0
  C  C3355  1  0.673067  0.952333  0.196193  1.0
  C  C3356  1  0.279267  0.326933  0.196193  1.0
  C  C3357  1  0.047667  0.720733  0.196193  1.0
  C  C3358  1  0.387400  0.381000  0.637140  1.0
  C  C3359  1  0.993600  0.612600  0.637140  1.0
  C  C3360  1  0.619000  0.006400  0.637140  1.0
  C  C3361  1  0.720733  0.047667  0.303807  1.0
  C  C3362  1  0.326933  0.279267  0.303807  1.0
  C  C3363  1  0.952333  0.673067  0.303807  1.0
  C  C3364  1  0.054067  0.714333  0.970473  1.0
  C  C3365  1  0.660267  0.945933  0.970473  1.0
  C  C3366  1  0.285667  0.339733  0.970473  1.0
  C  C3367  1  0.993600  0.381000  0.137140  1.0
  C  C3368  1  0.387400  0.006400  0.137140  1.0
  C  C3369  1  0.619000  0.612600  0.137140  1.0
  C  C3370  1  0.660267  0.714333  0.470473  1.0
  C  C3371  1  0.054067  0.339733  0.470473  1.0
  C  C3372  1  0.285667  0.945933  0.470473  1.0
  C  C3373  1  0.326933  0.047667  0.803807  1.0
  C  C3374  1  0.720733  0.673067  0.803807  1.0
  C  C3375  1  0.952333  0.279267  0.803807  1.0
  C  C3376  1  0.612600  0.619000  0.362860  1.0
  C  C3377  1  0.006400  0.387400  0.362860  1.0
  C  C3378  1  0.381000  0.993600  0.362860  1.0
  C  C3379  1  0.279267  0.952333  0.696193  1.0
  C  C3380  1  0.673067  0.720733  0.696193  1.0
  C  C3381  1  0.047667  0.326933  0.696193  1.0
  C  C3382  1  0.945933  0.285667  0.029527  1.0
  C  C3383  1  0.339733  0.054067  0.029527  1.0
  C  C3384  1  0.714333  0.660267  0.029527  1.0
  C  C3385  1  0.049100  0.644700  0.854000  1.0
  C  C3386  1  0.595600  0.950900  0.854000  1.0
  C  C3387  1  0.355300  0.404400  0.854000  1.0
  C  C3388  1  0.382433  0.311367  0.520667  1.0
  C  C3389  1  0.928933  0.617567  0.520667  1.0
  C  C3390  1  0.688633  0.071067  0.520667  1.0
  C  C3391  1  0.715767  0.978033  0.187333  1.0
  C  C3392  1  0.262267  0.284233  0.187333  1.0
  C  C3393  1  0.021967  0.737733  0.187333  1.0
  C  C3394  1  0.404400  0.355300  0.646000  1.0
  C  C3395  1  0.950900  0.595600  0.646000  1.0
  C  C3396  1  0.644700  0.049100  0.646000  1.0
  C  C3397  1  0.737733  0.021967  0.312667  1.0
  C  C3398  1  0.284233  0.262267  0.312667  1.0
  C  C3399  1  0.978033  0.715767  0.312667  1.0
  C  C3400  1  0.071067  0.688633  0.979333  1.0
  C  C3401  1  0.617567  0.928933  0.979333  1.0
  C  C3402  1  0.311367  0.382433  0.979333  1.0
  C  C3403  1  0.950900  0.355300  0.146000  1.0
  C  C3404  1  0.404400  0.049100  0.146000  1.0
  C  C3405  1  0.644700  0.595600  0.146000  1.0
  C  C3406  1  0.617567  0.688633  0.479333  1.0
  C  C3407  1  0.071067  0.382433  0.479333  1.0
  C  C3408  1  0.311367  0.928933  0.479333  1.0
  C  C3409  1  0.284233  0.021967  0.812667  1.0
  C  C3410  1  0.737733  0.715767  0.812667  1.0
  C  C3411  1  0.978033  0.262267  0.812667  1.0
  C  C3412  1  0.595600  0.644700  0.354000  1.0
  C  C3413  1  0.049100  0.404400  0.354000  1.0
  C  C3414  1  0.355300  0.950900  0.354000  1.0
  C  C3415  1  0.262267  0.978033  0.687333  1.0
  C  C3416  1  0.715767  0.737733  0.687333  1.0
  C  C3417  1  0.021967  0.284233  0.687333  1.0
  C  C3418  1  0.928933  0.311367  0.020667  1.0
  C  C3419  1  0.382433  0.071067  0.020667  1.0
  C  C3420  1  0.688633  0.617567  0.020667  1.0
  C  C3421  1  0.071200  0.621100  0.847000  1.0
  C  C3422  1  0.549900  0.928800  0.847000  1.0
  C  C3423  1  0.378900  0.450100  0.847000  1.0
  C  C3424  1  0.404533  0.287767  0.513667  1.0
  C  C3425  1  0.883233  0.595467  0.513667  1.0
  C  C3426  1  0.712233  0.116767  0.513667  1.0
  C  C3427  1  0.737867  0.954433  0.180333  1.0
  C  C3428  1  0.216567  0.262133  0.180333  1.0
  C  C3429  1  0.045567  0.783433  0.180333  1.0
  C  C3430  1  0.450100  0.378900  0.653000  1.0
  C  C3431  1  0.928800  0.549900  0.653000  1.0
  C  C3432  1  0.621100  0.071200  0.653000  1.0
  C  C3433  1  0.783433  0.045567  0.319667  1.0
  C  C3434  1  0.262133  0.216567  0.319667  1.0
  C  C3435  1  0.954433  0.737867  0.319667  1.0
  C  C3436  1  0.116767  0.712233  0.986333  1.0
  C  C3437  1  0.595467  0.883233  0.986333  1.0
  C  C3438  1  0.287767  0.404533  0.986333  1.0
  C  C3439  1  0.928800  0.378900  0.153000  1.0
  C  C3440  1  0.450100  0.071200  0.153000  1.0
  C  C3441  1  0.621100  0.549900  0.153000  1.0
  C  C3442  1  0.595467  0.712233  0.486333  1.0
  C  C3443  1  0.116767  0.404533  0.486333  1.0
  C  C3444  1  0.287767  0.883233  0.486333  1.0
  C  C3445  1  0.262133  0.045567  0.819667  1.0
  C  C3446  1  0.783433  0.737867  0.819667  1.0
  C  C3447  1  0.954433  0.216567  0.819667  1.0
  C  C3448  1  0.549900  0.621100  0.347000  1.0
  C  C3449  1  0.071200  0.450100  0.347000  1.0
  C  C3450  1  0.378900  0.928800  0.347000  1.0
  C  C3451  1  0.216567  0.954433  0.680333  1.0
  C  C3452  1  0.737867  0.783433  0.680333  1.0
  C  C3453  1  0.045567  0.262133  0.680333  1.0
  C  C3454  1  0.883233  0.287767  0.013667  1.0
  C  C3455  1  0.404533  0.116767  0.013667  1.0
  C  C3456  1  0.712233  0.595467  0.013667  1.0
  C  C3457  1  0.050700  0.572000  0.848900  1.0
  C  C3458  1  0.521300  0.949300  0.848900  1.0
  C  C3459  1  0.428000  0.478700  0.848900  1.0
  C  C3460  1  0.384033  0.238667  0.515567  1.0
  C  C3461  1  0.854633  0.615967  0.515567  1.0
  C  C3462  1  0.761333  0.145367  0.515567  1.0
  C  C3463  1  0.717367  0.905333  0.182233  1.0
  C  C3464  1  0.187967  0.282633  0.182233  1.0
  C  C3465  1  0.094667  0.812033  0.182233  1.0
  C  C3466  1  0.478700  0.428000  0.651100  1.0
  C  C3467  1  0.949300  0.521300  0.651100  1.0
  C  C3468  1  0.572000  0.050700  0.651100  1.0
  C  C3469  1  0.812033  0.094667  0.317767  1.0
  C  C3470  1  0.282633  0.187967  0.317767  1.0
  C  C3471  1  0.905333  0.717367  0.317767  1.0
  C  C3472  1  0.145367  0.761333  0.984433  1.0
  C  C3473  1  0.615967  0.854633  0.984433  1.0
  C  C3474  1  0.238667  0.384033  0.984433  1.0
  C  C3475  1  0.949300  0.428000  0.151100  1.0
  C  C3476  1  0.478700  0.050700  0.151100  1.0
  C  C3477  1  0.572000  0.521300  0.151100  1.0
  C  C3478  1  0.615967  0.761333  0.484433  1.0
  C  C3479  1  0.145367  0.384033  0.484433  1.0
  C  C3480  1  0.238667  0.854633  0.484433  1.0
  C  C3481  1  0.282633  0.094667  0.817767  1.0
  C  C3482  1  0.812033  0.717367  0.817767  1.0
  C  C3483  1  0.905333  0.187967  0.817767  1.0
  C  C3484  1  0.521300  0.572000  0.348900  1.0
  C  C3485  1  0.050700  0.478700  0.348900  1.0
  C  C3486  1  0.428000  0.949300  0.348900  1.0
  C  C3487  1  0.187967  0.905333  0.682233  1.0
  C  C3488  1  0.717367  0.812033  0.682233  1.0
  C  C3489  1  0.094667  0.282633  0.682233  1.0
  C  C3490  1  0.854633  0.238667  0.015567  1.0
  C  C3491  1  0.384033  0.145367  0.015567  1.0
  C  C3492  1  0.761333  0.615967  0.015567  1.0
  C  C3493  1  0.008100  0.546400  0.857800  1.0
  C  C3494  1  0.538300  0.991900  0.857800  1.0
  C  C3495  1  0.453600  0.461700  0.857800  1.0
  C  C3496  1  0.341433  0.213067  0.524467  1.0
  C  C3497  1  0.871633  0.658567  0.524467  1.0
  C  C3498  1  0.786933  0.128367  0.524467  1.0
  C  C3499  1  0.674767  0.879733  0.191133  1.0
  C  C3500  1  0.204967  0.325233  0.191133  1.0
  C  C3501  1  0.120267  0.795033  0.191133  1.0
  C  C3502  1  0.461700  0.453600  0.642200  1.0
  C  C3503  1  0.991900  0.538300  0.642200  1.0
  C  C3504  1  0.546400  0.008100  0.642200  1.0
  C  C3505  1  0.795033  0.120267  0.308867  1.0
  C  C3506  1  0.325233  0.204967  0.308867  1.0
  C  C3507  1  0.879733  0.674767  0.308867  1.0
  C  C3508  1  0.128367  0.786933  0.975533  1.0
  C  C3509  1  0.658567  0.871633  0.975533  1.0
  C  C3510  1  0.213067  0.341433  0.975533  1.0
  C  C3511  1  0.991900  0.453600  0.142200  1.0
  C  C3512  1  0.461700  0.008100  0.142200  1.0
  C  C3513  1  0.546400  0.538300  0.142200  1.0
  C  C3514  1  0.658567  0.786933  0.475533  1.0
  C  C3515  1  0.128367  0.341433  0.475533  1.0
  C  C3516  1  0.213067  0.871633  0.475533  1.0
  C  C3517  1  0.325233  0.120267  0.808867  1.0
  C  C3518  1  0.795033  0.674767  0.808867  1.0
  C  C3519  1  0.879733  0.204967  0.808867  1.0
  C  C3520  1  0.538300  0.546400  0.357800  1.0
  C  C3521  1  0.008100  0.461700  0.357800  1.0
  C  C3522  1  0.453600  0.991900  0.357800  1.0
  C  C3523  1  0.204967  0.879733  0.691133  1.0
  C  C3524  1  0.674767  0.795033  0.691133  1.0
  C  C3525  1  0.120267  0.325233  0.691133  1.0
  C  C3526  1  0.871633  0.213067  0.024467  1.0
  C  C3527  1  0.341433  0.128367  0.024467  1.0
  C  C3528  1  0.786933  0.658567  0.024467  1.0
  C  C3529  1  0.985900  0.569900  0.864780  1.0
  C  C3530  1  0.584000  0.014100  0.864780  1.0
  C  C3531  1  0.430100  0.416000  0.864780  1.0
  C  C3532  1  0.319233  0.236567  0.531447  1.0
  C  C3533  1  0.917333  0.680767  0.531447  1.0
  C  C3534  1  0.763433  0.082667  0.531447  1.0
  C  C3535  1  0.652567  0.903233  0.198113  1.0
  C  C3536  1  0.250667  0.347433  0.198113  1.0
  C  C3537  1  0.096767  0.749333  0.198113  1.0
  C  C3538  1  0.416000  0.430100  0.635220  1.0
  C  C3539  1  0.014100  0.584000  0.635220  1.0
  C  C3540  1  0.569900  0.985900  0.635220  1.0
  C  C3541  1  0.749333  0.096767  0.301887  1.0
  C  C3542  1  0.347433  0.250667  0.301887  1.0
  C  C3543  1  0.903233  0.652567  0.301887  1.0
  C  C3544  1  0.082667  0.763433  0.968553  1.0
  C  C3545  1  0.680767  0.917333  0.968553  1.0
  C  C3546  1  0.236567  0.319233  0.968553  1.0
  C  C3547  1  0.014100  0.430100  0.135220  1.0
  C  C3548  1  0.416000  0.985900  0.135220  1.0
  C  C3549  1  0.569900  0.584000  0.135220  1.0
  C  C3550  1  0.680767  0.763433  0.468553  1.0
  C  C3551  1  0.082667  0.319233  0.468553  1.0
  C  C3552  1  0.236567  0.917333  0.468553  1.0
  C  C3553  1  0.347433  0.096767  0.801887  1.0
  C  C3554  1  0.749333  0.652567  0.801887  1.0
  C  C3555  1  0.903233  0.250667  0.801887  1.0
  C  C3556  1  0.584000  0.569900  0.364780  1.0
  C  C3557  1  0.985900  0.416000  0.364780  1.0
  C  C3558  1  0.430100  0.014100  0.364780  1.0
  C  C3559  1  0.250667  0.903233  0.698113  1.0
  C  C3560  1  0.652567  0.749333  0.698113  1.0
  C  C3561  1  0.096767  0.347433  0.698113  1.0
  C  C3562  1  0.917333  0.236567  0.031447  1.0
  C  C3563  1  0.319233  0.082667  0.031447  1.0
  C  C3564  1  0.763433  0.680767  0.031447  1.0
  C  C3565  1  0.942800  0.552500  0.875030  1.0
  C  C3566  1  0.609700  0.057200  0.875030  1.0
  C  C3567  1  0.447500  0.390300  0.875030  1.0
  C  C3568  1  0.276133  0.219167  0.541697  1.0
  C  C3569  1  0.943033  0.723867  0.541697  1.0
  C  C3570  1  0.780833  0.056967  0.541697  1.0
  C  C3571  1  0.609467  0.885833  0.208363  1.0
  C  C3572  1  0.276367  0.390533  0.208363  1.0
  C  C3573  1  0.114167  0.723633  0.208363  1.0
  C  C3574  1  0.390300  0.447500  0.624970  1.0
  C  C3575  1  0.057200  0.609700  0.624970  1.0
  C  C3576  1  0.552500  0.942800  0.624970  1.0
  C  C3577  1  0.723633  0.114167  0.291637  1.0
  C  C3578  1  0.390533  0.276367  0.291637  1.0
  C  C3579  1  0.885833  0.609467  0.291637  1.0
  C  C3580  1  0.056967  0.780833  0.958303  1.0
  C  C3581  1  0.723867  0.943033  0.958303  1.0
  C  C3582  1  0.219167  0.276133  0.958303  1.0
  C  C3583  1  0.057200  0.447500  0.124970  1.0
  C  C3584  1  0.390300  0.942800  0.124970  1.0
  C  C3585  1  0.552500  0.609700  0.124970  1.0
  C  C3586  1  0.723867  0.780833  0.458303  1.0
  C  C3587  1  0.056967  0.276133  0.458303  1.0
  C  C3588  1  0.219167  0.943033  0.458303  1.0
  C  C3589  1  0.390533  0.114167  0.791637  1.0
  C  C3590  1  0.723633  0.609467  0.791637  1.0
  C  C3591  1  0.885833  0.276367  0.791637  1.0
  C  C3592  1  0.609700  0.552500  0.375030  1.0
  C  C3593  1  0.942800  0.390300  0.375030  1.0
  C  C3594  1  0.447500  0.057200  0.375030  1.0
  C  C3595  1  0.276367  0.885833  0.708363  1.0
  C  C3596  1  0.609467  0.723633  0.708363  1.0
  C  C3597  1  0.114167  0.390533  0.708363  1.0
  C  C3598  1  0.943033  0.219167  0.041697  1.0
  C  C3599  1  0.276133  0.056967  0.041697  1.0
  C  C3600  1  0.780833  0.723867  0.041697  1.0
  C  C3601  1  0.906600  0.508200  0.880540  1.0
  C  C3602  1  0.601600  0.093400  0.880540  1.0
  C  C3603  1  0.491800  0.398400  0.880540  1.0
  C  C3604  1  0.239933  0.174867  0.547207  1.0
  C  C3605  1  0.934933  0.760067  0.547207  1.0
  C  C3606  1  0.825133  0.065067  0.547207  1.0
  C  C3607  1  0.573267  0.841533  0.213873  1.0
  C  C3608  1  0.268267  0.426733  0.213873  1.0
  C  C3609  1  0.158467  0.731733  0.213873  1.0
  C  C3610  1  0.398400  0.491800  0.619460  1.0
  C  C3611  1  0.093400  0.601600  0.619460  1.0
  C  C3612  1  0.508200  0.906600  0.619460  1.0
  C  C3613  1  0.731733  0.158467  0.286127  1.0
  C  C3614  1  0.426733  0.268267  0.286127  1.0
  C  C3615  1  0.841533  0.573267  0.286127  1.0
  C  C3616  1  0.065067  0.825133  0.952793  1.0
  C  C3617  1  0.760067  0.934933  0.952793  1.0
  C  C3618  1  0.174867  0.239933  0.952793  1.0
  C  C3619  1  0.093400  0.491800  0.119460  1.0
  C  C3620  1  0.398400  0.906600  0.119460  1.0
  C  C3621  1  0.508200  0.601600  0.119460  1.0
  C  C3622  1  0.760067  0.825133  0.452793  1.0
  C  C3623  1  0.065067  0.239933  0.452793  1.0
  C  C3624  1  0.174867  0.934933  0.452793  1.0
  C  C3625  1  0.426733  0.158467  0.786127  1.0
  C  C3626  1  0.731733  0.573267  0.786127  1.0
  C  C3627  1  0.841533  0.268267  0.786127  1.0
  C  C3628  1  0.601600  0.508200  0.380540  1.0
  C  C3629  1  0.906600  0.398400  0.380540  1.0
  C  C3630  1  0.491800  0.093400  0.380540  1.0
  C  C3631  1  0.268267  0.841533  0.713873  1.0
  C  C3632  1  0.573267  0.731733  0.713873  1.0
  C  C3633  1  0.158467  0.426733  0.713873  1.0
  C  C3634  1  0.934933  0.174867  0.047207  1.0
  C  C3635  1  0.239933  0.065067  0.047207  1.0
  C  C3636  1  0.825133  0.760067  0.047207  1.0
  C  C3637  1  0.867100  0.504500  0.888990  1.0
  C  C3638  1  0.637400  0.132900  0.888990  1.0
  C  C3639  1  0.495500  0.362600  0.888990  1.0
  C  C3640  1  0.200433  0.171167  0.555657  1.0
  C  C3641  1  0.970733  0.799567  0.555657  1.0
  C  C3642  1  0.828833  0.029267  0.555657  1.0
  C  C3643  1  0.533767  0.837833  0.222323  1.0
  C  C3644  1  0.304067  0.466233  0.222323  1.0
  C  C3645  1  0.162167  0.695933  0.222323  1.0
  C  C3646  1  0.362600  0.495500  0.611010  1.0
  C  C3647  1  0.132900  0.637400  0.611010  1.0
  C  C3648  1  0.504500  0.867100  0.611010  1.0
  C  C3649  1  0.695933  0.162167  0.277677  1.0
  C  C3650  1  0.466233  0.304067  0.277677  1.0
  C  C3651  1  0.837833  0.533767  0.277677  1.0
  C  C3652  1  0.029267  0.828833  0.944343  1.0
  C  C3653  1  0.799567  0.970733  0.944343  1.0
  C  C3654  1  0.171167  0.200433  0.944343  1.0
  C  C3655  1  0.132900  0.495500  0.111010  1.0
  C  C3656  1  0.362600  0.867100  0.111010  1.0
  C  C3657  1  0.504500  0.637400  0.111010  1.0
  C  C3658  1  0.799567  0.828833  0.444343  1.0
  C  C3659  1  0.029267  0.200433  0.444343  1.0
  C  C3660  1  0.171167  0.970733  0.444343  1.0
  C  C3661  1  0.466233  0.162167  0.777677  1.0
  C  C3662  1  0.695933  0.533767  0.777677  1.0
  C  C3663  1  0.837833  0.304067  0.777677  1.0
  C  C3664  1  0.637400  0.504500  0.388990  1.0
  C  C3665  1  0.867100  0.362600  0.388990  1.0
  C  C3666  1  0.495500  0.132900  0.388990  1.0
  C  C3667  1  0.304067  0.837833  0.722323  1.0
  C  C3668  1  0.533767  0.695933  0.722323  1.0
  C  C3669  1  0.162167  0.466233  0.722323  1.0
  C  C3670  1  0.970733  0.171167  0.055657  1.0
  C  C3671  1  0.200433  0.029267  0.055657  1.0
  C  C3672  1  0.828833  0.799567  0.055657  1.0
  C  C3673  1  0.863900  0.545300  0.891920  1.0
  C  C3674  1  0.681400  0.136100  0.891920  1.0
  C  C3675  1  0.454700  0.318600  0.891920  1.0
  C  C3676  1  0.197233  0.211967  0.558587  1.0
  C  C3677  1  0.014733  0.802767  0.558587  1.0
  C  C3678  1  0.788033  0.985267  0.558587  1.0
  C  C3679  1  0.530567  0.878633  0.225253  1.0
  C  C3680  1  0.348067  0.469433  0.225253  1.0
  C  C3681  1  0.121367  0.651933  0.225253  1.0
  C  C3682  1  0.318600  0.454700  0.608080  1.0
  C  C3683  1  0.136100  0.681400  0.608080  1.0
  C  C3684  1  0.545300  0.863900  0.608080  1.0
  C  C3685  1  0.651933  0.121367  0.274747  1.0
  C  C3686  1  0.469433  0.348067  0.274747  1.0
  C  C3687  1  0.878633  0.530567  0.274747  1.0
  C  C3688  1  0.985267  0.788033  0.941413  1.0
  C  C3689  1  0.802767  0.014733  0.941413  1.0
  C  C3690  1  0.211967  0.197233  0.941413  1.0
  C  C3691  1  0.136100  0.454700  0.108080  1.0
  C  C3692  1  0.318600  0.863900  0.108080  1.0
  C  C3693  1  0.545300  0.681400  0.108080  1.0
  C  C3694  1  0.802767  0.788033  0.441413  1.0
  C  C3695  1  0.985267  0.197233  0.441413  1.0
  C  C3696  1  0.211967  0.014733  0.441413  1.0
  C  C3697  1  0.469433  0.121367  0.774747  1.0
  C  C3698  1  0.651933  0.530567  0.774747  1.0
  C  C3699  1  0.878633  0.348067  0.774747  1.0
  C  C3700  1  0.681400  0.545300  0.391920  1.0
  C  C3701  1  0.863900  0.318600  0.391920  1.0
  C  C3702  1  0.454700  0.136100  0.391920  1.0
  C  C3703  1  0.348067  0.878633  0.725253  1.0
  C  C3704  1  0.530567  0.651933  0.725253  1.0
  C  C3705  1  0.121367  0.469433  0.725253  1.0
  C  C3706  1  0.014733  0.211967  0.058587  1.0
  C  C3707  1  0.197233  0.985267  0.058587  1.0
  C  C3708  1  0.788033  0.802767  0.058587  1.0
  C  C3709  1  0.900100  0.589600  0.886400  1.0
  C  C3710  1  0.689500  0.099900  0.886400  1.0
  C  C3711  1  0.410400  0.310500  0.886400  1.0
  C  C3712  1  0.233433  0.256267  0.553067  1.0
  C  C3713  1  0.022833  0.766567  0.553067  1.0
  C  C3714  1  0.743733  0.977167  0.553067  1.0
  C  C3715  1  0.566767  0.922933  0.219733  1.0
  C  C3716  1  0.356167  0.433233  0.219733  1.0
  C  C3717  1  0.077067  0.643833  0.219733  1.0
  C  C3718  1  0.310500  0.410400  0.613600  1.0
  C  C3719  1  0.099900  0.689500  0.613600  1.0
  C  C3720  1  0.589600  0.900100  0.613600  1.0
  C  C3721  1  0.643833  0.077067  0.280267  1.0
  C  C3722  1  0.433233  0.356167  0.280267  1.0
  C  C3723  1  0.922933  0.566767  0.280267  1.0
  C  C3724  1  0.977167  0.743733  0.946933  1.0
  C  C3725  1  0.766567  0.022833  0.946933  1.0
  C  C3726  1  0.256267  0.233433  0.946933  1.0
  C  C3727  1  0.099900  0.410400  0.113600  1.0
  C  C3728  1  0.310500  0.900100  0.113600  1.0
  C  C3729  1  0.589600  0.689500  0.113600  1.0
  C  C3730  1  0.766567  0.743733  0.446933  1.0
  C  C3731  1  0.977167  0.233433  0.446933  1.0
  C  C3732  1  0.256267  0.022833  0.446933  1.0
  C  C3733  1  0.433233  0.077067  0.780267  1.0
  C  C3734  1  0.643833  0.566767  0.780267  1.0
  C  C3735  1  0.922933  0.356167  0.780267  1.0
  C  C3736  1  0.689500  0.589600  0.386400  1.0
  C  C3737  1  0.900100  0.310500  0.386400  1.0
  C  C3738  1  0.410400  0.099900  0.386400  1.0
  C  C3739  1  0.356167  0.922933  0.719733  1.0
  C  C3740  1  0.566767  0.643833  0.719733  1.0
  C  C3741  1  0.077067  0.433233  0.719733  1.0
  C  C3742  1  0.022833  0.256267  0.053067  1.0
  C  C3743  1  0.233433  0.977167  0.053067  1.0
  C  C3744  1  0.743733  0.766567  0.053067  1.0
  C  C3745  1  0.939600  0.593200  0.877960  1.0
  C  C3746  1  0.653600  0.060400  0.877960  1.0
  C  C3747  1  0.406800  0.346400  0.877960  1.0
  C  C3748  1  0.272933  0.259867  0.544627  1.0
  C  C3749  1  0.986933  0.727067  0.544627  1.0
  C  C3750  1  0.740133  0.013067  0.544627  1.0
  C  C3751  1  0.606267  0.926533  0.211293  1.0
  C  C3752  1  0.320267  0.393733  0.211293  1.0
  C  C3753  1  0.073467  0.679733  0.211293  1.0
  C  C3754  1  0.346400  0.406800  0.622040  1.0
  C  C3755  1  0.060400  0.653600  0.622040  1.0
  C  C3756  1  0.593200  0.939600  0.622040  1.0
  C  C3757  1  0.679733  0.073467  0.288707  1.0
  C  C3758  1  0.393733  0.320267  0.288707  1.0
  C  C3759  1  0.926533  0.606267  0.288707  1.0
  C  C3760  1  0.013067  0.740133  0.955373  1.0
  C  C3761  1  0.727067  0.986933  0.955373  1.0
  C  C3762  1  0.259867  0.272933  0.955373  1.0
  C  C3763  1  0.060400  0.406800  0.122040  1.0
  C  C3764  1  0.346400  0.939600  0.122040  1.0
  C  C3765  1  0.593200  0.653600  0.122040  1.0
  C  C3766  1  0.727067  0.740133  0.455373  1.0
  C  C3767  1  0.013067  0.272933  0.455373  1.0
  C  C3768  1  0.259867  0.986933  0.455373  1.0
  C  C3769  1  0.393733  0.073467  0.788707  1.0
  C  C3770  1  0.679733  0.606267  0.788707  1.0
  C  C3771  1  0.926533  0.320267  0.788707  1.0
  C  C3772  1  0.653600  0.593200  0.377960  1.0
  C  C3773  1  0.939600  0.346400  0.377960  1.0
  C  C3774  1  0.406800  0.060400  0.377960  1.0
  C  C3775  1  0.320267  0.926533  0.711293  1.0
  C  C3776  1  0.606267  0.679733  0.711293  1.0
  C  C3777  1  0.073467  0.393733  0.711293  1.0
  C  C3778  1  0.986933  0.259867  0.044627  1.0
  C  C3779  1  0.272933  0.013067  0.044627  1.0
  C  C3780  1  0.740133  0.727067  0.044627  1.0
  C  C3781  1  0.019900  0.778500  0.876550  1.0
  C  C3782  1  0.758600  0.980100  0.876550  1.0
  C  C3783  1  0.221500  0.241400  0.876550  1.0
  C  C3784  1  0.353233  0.445167  0.543217  1.0
  C  C3785  1  0.091933  0.646767  0.543217  1.0
  C  C3786  1  0.554833  0.908067  0.543217  1.0
  C  C3787  1  0.686567  0.111833  0.209883  1.0
  C  C3788  1  0.425267  0.313433  0.209883  1.0
  C  C3789  1  0.888167  0.574733  0.209883  1.0
  C  C3790  1  0.241400  0.221500  0.623450  1.0
  C  C3791  1  0.980100  0.758600  0.623450  1.0
  C  C3792  1  0.778500  0.019900  0.623450  1.0
  C  C3793  1  0.574733  0.888167  0.290117  1.0
  C  C3794  1  0.313433  0.425267  0.290117  1.0
  C  C3795  1  0.111833  0.686567  0.290117  1.0
  C  C3796  1  0.908067  0.554833  0.956783  1.0
  C  C3797  1  0.646767  0.091933  0.956783  1.0
  C  C3798  1  0.445167  0.353233  0.956783  1.0
  C  C3799  1  0.980100  0.221500  0.123450  1.0
  C  C3800  1  0.241400  0.019900  0.123450  1.0
  C  C3801  1  0.778500  0.758600  0.123450  1.0
  C  C3802  1  0.646767  0.554833  0.456783  1.0
  C  C3803  1  0.908067  0.353233  0.456783  1.0
  C  C3804  1  0.445167  0.091933  0.456783  1.0
  C  C3805  1  0.313433  0.888167  0.790117  1.0
  C  C3806  1  0.574733  0.686567  0.790117  1.0
  C  C3807  1  0.111833  0.425267  0.790117  1.0
  C  C3808  1  0.758600  0.778500  0.376550  1.0
  C  C3809  1  0.019900  0.241400  0.376550  1.0
  C  C3810  1  0.221500  0.980100  0.376550  1.0
  C  C3811  1  0.425267  0.111833  0.709883  1.0
  C  C3812  1  0.686567  0.574733  0.709883  1.0
  C  C3813  1  0.888167  0.313433  0.709883  1.0
  C  C3814  1  0.091933  0.445167  0.043217  1.0
  C  C3815  1  0.353233  0.908067  0.043217  1.0
  C  C3816  1  0.554833  0.646767  0.043217  1.0
  C  C3817  1  0.012900  0.757600  0.860560  1.0
  C  C3818  1  0.744700  0.987100  0.860560  1.0
  C  C3819  1  0.242400  0.255300  0.860560  1.0
  C  C3820  1  0.346233  0.424267  0.527227  1.0
  C  C3821  1  0.078033  0.653767  0.527227  1.0
  C  C3822  1  0.575733  0.921967  0.527227  1.0
  C  C3823  1  0.679567  0.090933  0.193893  1.0
  C  C3824  1  0.411367  0.320433  0.193893  1.0
  C  C3825  1  0.909067  0.588633  0.193893  1.0
  C  C3826  1  0.255300  0.242400  0.639440  1.0
  C  C3827  1  0.987100  0.744700  0.639440  1.0
  C  C3828  1  0.757600  0.012900  0.639440  1.0
  C  C3829  1  0.588633  0.909067  0.306107  1.0
  C  C3830  1  0.320433  0.411367  0.306107  1.0
  C  C3831  1  0.090933  0.679567  0.306107  1.0
  C  C3832  1  0.921967  0.575733  0.972773  1.0
  C  C3833  1  0.653767  0.078033  0.972773  1.0
  C  C3834  1  0.424267  0.346233  0.972773  1.0
  C  C3835  1  0.987100  0.242400  0.139440  1.0
  C  C3836  1  0.255300  0.012900  0.139440  1.0
  C  C3837  1  0.757600  0.744700  0.139440  1.0
  C  C3838  1  0.653767  0.575733  0.472773  1.0
  C  C3839  1  0.921967  0.346233  0.472773  1.0
  C  C3840  1  0.424267  0.078033  0.472773  1.0
  C  C3841  1  0.320433  0.909067  0.806107  1.0
  C  C3842  1  0.588633  0.679567  0.806107  1.0
  C  C3843  1  0.090933  0.411367  0.806107  1.0
  C  C3844  1  0.744700  0.757600  0.360560  1.0
  C  C3845  1  0.012900  0.255300  0.360560  1.0
  C  C3846  1  0.242400  0.987100  0.360560  1.0
  C  C3847  1  0.411367  0.090933  0.693893  1.0
  C  C3848  1  0.679567  0.588633  0.693893  1.0
  C  C3849  1  0.909067  0.320433  0.693893  1.0
  C  C3850  1  0.078033  0.424267  0.027227  1.0
  C  C3851  1  0.346233  0.921967  0.027227  1.0
  C  C3852  1  0.575733  0.653767  0.027227  1.0
  C  C3853  1  0.000300  0.709800  0.859100  1.0
  C  C3854  1  0.709500  0.999700  0.859100  1.0
  C  C3855  1  0.290200  0.290500  0.859100  1.0
  C  C3856  1  0.333633  0.376467  0.525767  1.0
  C  C3857  1  0.042833  0.666367  0.525767  1.0
  C  C3858  1  0.623533  0.957167  0.525767  1.0
  C  C3859  1  0.666967  0.043133  0.192433  1.0
  C  C3860  1  0.376167  0.333033  0.192433  1.0
  C  C3861  1  0.956867  0.623833  0.192433  1.0
  C  C3862  1  0.290500  0.290200  0.640900  1.0
  C  C3863  1  0.999700  0.709500  0.640900  1.0
  C  C3864  1  0.709800  0.000300  0.640900  1.0
  C  C3865  1  0.623833  0.956867  0.307567  1.0
  C  C3866  1  0.333033  0.376167  0.307567  1.0
  C  C3867  1  0.043133  0.666967  0.307567  1.0
  C  C3868  1  0.957167  0.623533  0.974233  1.0
  C  C3869  1  0.666367  0.042833  0.974233  1.0
  C  C3870  1  0.376467  0.333633  0.974233  1.0
  C  C3871  1  0.999700  0.290200  0.140900  1.0
  C  C3872  1  0.290500  0.000300  0.140900  1.0
  C  C3873  1  0.709800  0.709500  0.140900  1.0
  C  C3874  1  0.666367  0.623533  0.474233  1.0
  C  C3875  1  0.957167  0.333633  0.474233  1.0
  C  C3876  1  0.376467  0.042833  0.474233  1.0
  C  C3877  1  0.333033  0.956867  0.807567  1.0
  C  C3878  1  0.623833  0.666967  0.807567  1.0
  C  C3879  1  0.043133  0.376167  0.807567  1.0
  C  C3880  1  0.709500  0.709800  0.359100  1.0
  C  C3881  1  0.000300  0.290500  0.359100  1.0
  C  C3882  1  0.290200  0.999700  0.359100  1.0
  C  C3883  1  0.376167  0.043133  0.692433  1.0
  C  C3884  1  0.666967  0.623833  0.692433  1.0
  C  C3885  1  0.956867  0.333033  0.692433  1.0
  C  C3886  1  0.042833  0.376467  0.025767  1.0
  C  C3887  1  0.333633  0.957167  0.025767  1.0
  C  C3888  1  0.623533  0.666367  0.025767  1.0
  C  C3889  1  0.994800  0.683000  0.873700  1.0
  C  C3890  1  0.688200  0.005200  0.873700  1.0
  C  C3891  1  0.317000  0.311800  0.873700  1.0
  C  C3892  1  0.328133  0.349667  0.540367  1.0
  C  C3893  1  0.021533  0.671867  0.540367  1.0
  C  C3894  1  0.650333  0.978467  0.540367  1.0
  C  C3895  1  0.661467  0.016333  0.207033  1.0
  C  C3896  1  0.354867  0.338533  0.207033  1.0
  C  C3897  1  0.983667  0.645133  0.207033  1.0
  C  C3898  1  0.311800  0.317000  0.626300  1.0
  C  C3899  1  0.005200  0.688200  0.626300  1.0
  C  C3900  1  0.683000  0.994800  0.626300  1.0
  C  C3901  1  0.645133  0.983667  0.292967  1.0
  C  C3902  1  0.338533  0.354867  0.292967  1.0
  C  C3903  1  0.016333  0.661467  0.292967  1.0
  C  C3904  1  0.978467  0.650333  0.959633  1.0
  C  C3905  1  0.671867  0.021533  0.959633  1.0
  C  C3906  1  0.349667  0.328133  0.959633  1.0
  C  C3907  1  0.005200  0.317000  0.126300  1.0
  C  C3908  1  0.311800  0.994800  0.126300  1.0
  C  C3909  1  0.683000  0.688200  0.126300  1.0
  C  C3910  1  0.671867  0.650333  0.459633  1.0
  C  C3911  1  0.978467  0.328133  0.459633  1.0
  C  C3912  1  0.349667  0.021533  0.459633  1.0
  C  C3913  1  0.338533  0.983667  0.792967  1.0
  C  C3914  1  0.645133  0.661467  0.792967  1.0
  C  C3915  1  0.016333  0.354867  0.792967  1.0
  C  C3916  1  0.688200  0.683000  0.373700  1.0
  C  C3917  1  0.994800  0.311800  0.373700  1.0
  C  C3918  1  0.317000  0.005200  0.373700  1.0
  C  C3919  1  0.354867  0.016333  0.707033  1.0
  C  C3920  1  0.661467  0.645133  0.707033  1.0
  C  C3921  1  0.983667  0.338533  0.707033  1.0
  C  C3922  1  0.021533  0.349667  0.040367  1.0
  C  C3923  1  0.328133  0.978467  0.040367  1.0
  C  C3924  1  0.650333  0.671867  0.040367  1.0
  C  C3925  1  0.001800  0.703900  0.889700  1.0
  C  C3926  1  0.702100  0.998200  0.889700  1.0
  C  C3927  1  0.296100  0.297900  0.889700  1.0
  C  C3928  1  0.335133  0.370567  0.556367  1.0
  C  C3929  1  0.035433  0.664867  0.556367  1.0
  C  C3930  1  0.629433  0.964567  0.556367  1.0
  C  C3931  1  0.668467  0.037233  0.223033  1.0
  C  C3932  1  0.368767  0.331533  0.223033  1.0
  C  C3933  1  0.962767  0.631233  0.223033  1.0
  C  C3934  1  0.297900  0.296100  0.610300  1.0
  C  C3935  1  0.998200  0.702100  0.610300  1.0
  C  C3936  1  0.703900  0.001800  0.610300  1.0
  C  C3937  1  0.631233  0.962767  0.276967  1.0
  C  C3938  1  0.331533  0.368767  0.276967  1.0
  C  C3939  1  0.037233  0.668467  0.276967  1.0
  C  C3940  1  0.964567  0.629433  0.943633  1.0
  C  C3941  1  0.664867  0.035433  0.943633  1.0
  C  C3942  1  0.370567  0.335133  0.943633  1.0
  C  C3943  1  0.998200  0.296100  0.110300  1.0
  C  C3944  1  0.297900  0.001800  0.110300  1.0
  C  C3945  1  0.703900  0.702100  0.110300  1.0
  C  C3946  1  0.664867  0.629433  0.443633  1.0
  C  C3947  1  0.964567  0.335133  0.443633  1.0
  C  C3948  1  0.370567  0.035433  0.443633  1.0
  C  C3949  1  0.331533  0.962767  0.776967  1.0
  C  C3950  1  0.631233  0.668467  0.776967  1.0
  C  C3951  1  0.037233  0.368767  0.776967  1.0
  C  C3952  1  0.702100  0.703900  0.389700  1.0
  C  C3953  1  0.001800  0.297900  0.389700  1.0
  C  C3954  1  0.296100  0.998200  0.389700  1.0
  C  C3955  1  0.368767  0.037233  0.723033  1.0
  C  C3956  1  0.668467  0.631233  0.723033  1.0
  C  C3957  1  0.962767  0.331533  0.723033  1.0
  C  C3958  1  0.035433  0.370567  0.056367  1.0
  C  C3959  1  0.335133  0.964567  0.056367  1.0
  C  C3960  1  0.629433  0.664867  0.056367  1.0
  C  C3961  1  0.014400  0.751700  0.891100  1.0
  C  C3962  1  0.737300  0.985600  0.891100  1.0
  C  C3963  1  0.248300  0.262700  0.891100  1.0
  C  C3964  1  0.347733  0.418367  0.557767  1.0
  C  C3965  1  0.070633  0.652267  0.557767  1.0
  C  C3966  1  0.581633  0.929367  0.557767  1.0
  C  C3967  1  0.681067  0.085033  0.224433  1.0
  C  C3968  1  0.403967  0.318933  0.224433  1.0
  C  C3969  1  0.914967  0.596033  0.224433  1.0
  C  C3970  1  0.262700  0.248300  0.608900  1.0
  C  C3971  1  0.985600  0.737300  0.608900  1.0
  C  C3972  1  0.751700  0.014400  0.608900  1.0
  C  C3973  1  0.596033  0.914967  0.275567  1.0
  C  C3974  1  0.318933  0.403967  0.275567  1.0
  C  C3975  1  0.085033  0.681067  0.275567  1.0
  C  C3976  1  0.929367  0.581633  0.942233  1.0
  C  C3977  1  0.652267  0.070633  0.942233  1.0
  C  C3978  1  0.418367  0.347733  0.942233  1.0
  C  C3979  1  0.985600  0.248300  0.108900  1.0
  C  C3980  1  0.262700  0.014400  0.108900  1.0
  C  C3981  1  0.751700  0.737300  0.108900  1.0
  C  C3982  1  0.652267  0.581633  0.442233  1.0
  C  C3983  1  0.929367  0.347733  0.442233  1.0
  C  C3984  1  0.418367  0.070633  0.442233  1.0
  C  C3985  1  0.318933  0.914967  0.775567  1.0
  C  C3986  1  0.596033  0.681067  0.775567  1.0
  C  C3987  1  0.085033  0.403967  0.775567  1.0
  C  C3988  1  0.737300  0.751700  0.391100  1.0
  C  C3989  1  0.014400  0.262700  0.391100  1.0
  C  C3990  1  0.248300  0.985600  0.391100  1.0
  C  C3991  1  0.403967  0.085033  0.724433  1.0
  C  C3992  1  0.681067  0.596033  0.724433  1.0
  C  C3993  1  0.914967  0.318933  0.724433  1.0
  C  C3994  1  0.070633  0.418367  0.057767  1.0
  C  C3995  1  0.347733  0.929367  0.057767  1.0
  C  C3996  1  0.581633  0.652267  0.057767  1.0
  C  C3997  1  0.024800  0.832500  0.857120  1.0
  C  C3998  1  0.807700  0.975200  0.857120  1.0
  C  C3999  1  0.167500  0.192300  0.857120  1.0
  C  C4000  1  0.358133  0.499167  0.523787  1.0
  C  C4001  1  0.141033  0.641867  0.523787  1.0
  C  C4002  1  0.500833  0.858967  0.523787  1.0
  C  C4003  1  0.691467  0.165833  0.190453  1.0
  C  C4004  1  0.474367  0.308533  0.190453  1.0
  C  C4005  1  0.834167  0.525633  0.190453  1.0
  C  C4006  1  0.192300  0.167500  0.642880  1.0
  C  C4007  1  0.975200  0.807700  0.642880  1.0
  C  C4008  1  0.832500  0.024800  0.642880  1.0
  C  C4009  1  0.525633  0.834167  0.309547  1.0
  C  C4010  1  0.308533  0.474367  0.309547  1.0
  C  C4011  1  0.165833  0.691467  0.309547  1.0
  C  C4012  1  0.858967  0.500833  0.976213  1.0
  C  C4013  1  0.641867  0.141033  0.976213  1.0
  C  C4014  1  0.499167  0.358133  0.976213  1.0
  C  C4015  1  0.975200  0.167500  0.142880  1.0
  C  C4016  1  0.192300  0.024800  0.142880  1.0
  C  C4017  1  0.832500  0.807700  0.142880  1.0
  C  C4018  1  0.641867  0.500833  0.476213  1.0
  C  C4019  1  0.858967  0.358133  0.476213  1.0
  C  C4020  1  0.499167  0.141033  0.476213  1.0
  C  C4021  1  0.308533  0.834167  0.809547  1.0
  C  C4022  1  0.525633  0.691467  0.809547  1.0
  C  C4023  1  0.165833  0.474367  0.809547  1.0
  C  C4024  1  0.807700  0.832500  0.357120  1.0
  C  C4025  1  0.024800  0.192300  0.357120  1.0
  C  C4026  1  0.167500  0.975200  0.357120  1.0
  C  C4027  1  0.474367  0.165833  0.690453  1.0
  C  C4028  1  0.691467  0.525633  0.690453  1.0
  C  C4029  1  0.834167  0.308533  0.690453  1.0
  C  C4030  1  0.141033  0.499167  0.023787  1.0
  C  C4031  1  0.358133  0.858967  0.023787  1.0
  C  C4032  1  0.500833  0.641867  0.023787  1.0
  C  C4033  1  0.014800  0.791400  0.848220  1.0
  C  C4034  1  0.776600  0.985200  0.848220  1.0
  C  C4035  1  0.208600  0.223400  0.848220  1.0
  C  C4036  1  0.348133  0.458067  0.514887  1.0
  C  C4037  1  0.109933  0.651867  0.514887  1.0
  C  C4038  1  0.541933  0.890067  0.514887  1.0
  C  C4039  1  0.681467  0.124733  0.181553  1.0
  C  C4040  1  0.443267  0.318533  0.181553  1.0
  C  C4041  1  0.875267  0.556733  0.181553  1.0
  C  C4042  1  0.223400  0.208600  0.651780  1.0
  C  C4043  1  0.985200  0.776600  0.651780  1.0
  C  C4044  1  0.791400  0.014800  0.651780  1.0
  C  C4045  1  0.556733  0.875267  0.318447  1.0
  C  C4046  1  0.318533  0.443267  0.318447  1.0
  C  C4047  1  0.124733  0.681467  0.318447  1.0
  C  C4048  1  0.890067  0.541933  0.985113  1.0
  C  C4049  1  0.651867  0.109933  0.985113  1.0
  C  C4050  1  0.458067  0.348133  0.985113  1.0
  C  C4051  1  0.985200  0.208600  0.151780  1.0
  C  C4052  1  0.223400  0.014800  0.151780  1.0
  C  C4053  1  0.791400  0.776600  0.151780  1.0
  C  C4054  1  0.651867  0.541933  0.485113  1.0
  C  C4055  1  0.890067  0.348133  0.485113  1.0
  C  C4056  1  0.458067  0.109933  0.485113  1.0
  C  C4057  1  0.318533  0.875267  0.818447  1.0
  C  C4058  1  0.556733  0.681467  0.818447  1.0
  C  C4059  1  0.124733  0.443267  0.818447  1.0
  C  C4060  1  0.776600  0.791400  0.348220  1.0
  C  C4061  1  0.014800  0.223400  0.348220  1.0
  C  C4062  1  0.208600  0.985200  0.348220  1.0
  C  C4063  1  0.443267  0.124733  0.681553  1.0
  C  C4064  1  0.681467  0.556733  0.681553  1.0
  C  C4065  1  0.875267  0.318533  0.681553  1.0
  C  C4066  1  0.109933  0.458067  0.014887  1.0
  C  C4067  1  0.348133  0.890067  0.014887  1.0
  C  C4068  1  0.541933  0.651867  0.014887  1.0
  C  C4069  1  0.010400  0.790000  0.830590  1.0
  C  C4070  1  0.779600  0.989600  0.830590  1.0
  C  C4071  1  0.210000  0.220400  0.830590  1.0
  C  C4072  1  0.343733  0.456667  0.497257  1.0
  C  C4073  1  0.112933  0.656267  0.497257  1.0
  C  C4074  1  0.543333  0.887067  0.497257  1.0
  C  C4075  1  0.677067  0.123333  0.163923  1.0
  C  C4076  1  0.446267  0.322933  0.163923  1.0
  C  C4077  1  0.876667  0.553733  0.163923  1.0
  C  C4078  1  0.220400  0.210000  0.669410  1.0
  C  C4079  1  0.989600  0.779600  0.669410  1.0
  C  C4080  1  0.790000  0.010400  0.669410  1.0
  C  C4081  1  0.553733  0.876667  0.336077  1.0
  C  C4082  1  0.322933  0.446267  0.336077  1.0
  C  C4083  1  0.123333  0.677067  0.336077  1.0
  C  C4084  1  0.887067  0.543333  0.002743  1.0
  C  C4085  1  0.656267  0.112933  0.002743  1.0
  C  C4086  1  0.456667  0.343733  0.002743  1.0
  C  C4087  1  0.989600  0.210000  0.169410  1.0
  C  C4088  1  0.220400  0.010400  0.169410  1.0
  C  C4089  1  0.790000  0.779600  0.169410  1.0
  C  C4090  1  0.656267  0.543333  0.502743  1.0
  C  C4091  1  0.887067  0.343733  0.502743  1.0
  C  C4092  1  0.456667  0.112933  0.502743  1.0
  C  C4093  1  0.322933  0.876667  0.836077  1.0
  C  C4094  1  0.553733  0.677067  0.836077  1.0
  C  C4095  1  0.123333  0.446267  0.836077  1.0
  C  C4096  1  0.779600  0.790000  0.330590  1.0
  C  C4097  1  0.010400  0.220400  0.330590  1.0
  C  C4098  1  0.210000  0.989600  0.330590  1.0
  C  C4099  1  0.446267  0.123333  0.663923  1.0
  C  C4100  1  0.677067  0.553733  0.663923  1.0
  C  C4101  1  0.876667  0.322933  0.663923  1.0
  C  C4102  1  0.112933  0.456667  0.997257  1.0
  C  C4103  1  0.343733  0.887067  0.997257  1.0
  C  C4104  1  0.543333  0.656267  0.997257  1.0
  C  C4105  1  0.016100  0.830000  0.821850  1.0
  C  C4106  1  0.813900  0.983900  0.821850  1.0
  C  C4107  1  0.170000  0.186100  0.821850  1.0
  C  C4108  1  0.349433  0.496667  0.488517  1.0
  C  C4109  1  0.147233  0.650567  0.488517  1.0
  C  C4110  1  0.503333  0.852767  0.488517  1.0
  C  C4111  1  0.682767  0.163333  0.155183  1.0
  C  C4112  1  0.480567  0.317233  0.155183  1.0
  C  C4113  1  0.836667  0.519433  0.155183  1.0
  C  C4114  1  0.186100  0.170000  0.678150  1.0
  C  C4115  1  0.983900  0.813900  0.678150  1.0
  C  C4116  1  0.830000  0.016100  0.678150  1.0
  C  C4117  1  0.519433  0.836667  0.344817  1.0
  C  C4118  1  0.317233  0.480567  0.344817  1.0
  C  C4119  1  0.163333  0.682767  0.344817  1.0
  C  C4120  1  0.852767  0.503333  0.011483  1.0
  C  C4121  1  0.650567  0.147233  0.011483  1.0
  C  C4122  1  0.496667  0.349433  0.011483  1.0
  C  C4123  1  0.983900  0.170000  0.178150  1.0
  C  C4124  1  0.186100  0.016100  0.178150  1.0
  C  C4125  1  0.830000  0.813900  0.178150  1.0
  C  C4126  1  0.650567  0.503333  0.511483  1.0
  C  C4127  1  0.852767  0.349433  0.511483  1.0
  C  C4128  1  0.496667  0.147233  0.511483  1.0
  C  C4129  1  0.317233  0.836667  0.844817  1.0
  C  C4130  1  0.519433  0.682767  0.844817  1.0
  C  C4131  1  0.163333  0.480567  0.844817  1.0
  C  C4132  1  0.813900  0.830000  0.321850  1.0
  C  C4133  1  0.016100  0.186100  0.321850  1.0
  C  C4134  1  0.170000  0.983900  0.321850  1.0
  C  C4135  1  0.480567  0.163333  0.655183  1.0
  C  C4136  1  0.682767  0.519433  0.655183  1.0
  C  C4137  1  0.836667  0.317233  0.655183  1.0
  C  C4138  1  0.147233  0.496667  0.988517  1.0
  C  C4139  1  0.349433  0.852767  0.988517  1.0
  C  C4140  1  0.503333  0.650567  0.988517  1.0
  C  C4141  1  0.026100  0.871100  0.830740  1.0
  C  C4142  1  0.845000  0.973900  0.830740  1.0
  C  C4143  1  0.128900  0.155000  0.830740  1.0
  C  C4144  1  0.359433  0.537767  0.497407  1.0
  C  C4145  1  0.178333  0.640567  0.497407  1.0
  C  C4146  1  0.462233  0.821667  0.497407  1.0
  C  C4147  1  0.692767  0.204433  0.164073  1.0
  C  C4148  1  0.511667  0.307233  0.164073  1.0
  C  C4149  1  0.795567  0.488333  0.164073  1.0
  C  C4150  1  0.155000  0.128900  0.669260  1.0
  C  C4151  1  0.973900  0.845000  0.669260  1.0
  C  C4152  1  0.871100  0.026100  0.669260  1.0
  C  C4153  1  0.488333  0.795567  0.335927  1.0
  C  C4154  1  0.307233  0.511667  0.335927  1.0
  C  C4155  1  0.204433  0.692767  0.335927  1.0
  C  C4156  1  0.821667  0.462233  0.002593  1.0
  C  C4157  1  0.640567  0.178333  0.002593  1.0
  C  C4158  1  0.537767  0.359433  0.002593  1.0
  C  C4159  1  0.973900  0.128900  0.169260  1.0
  C  C4160  1  0.155000  0.026100  0.169260  1.0
  C  C4161  1  0.871100  0.845000  0.169260  1.0
  C  C4162  1  0.640567  0.462233  0.502593  1.0
  C  C4163  1  0.821667  0.359433  0.502593  1.0
  C  C4164  1  0.537767  0.178333  0.502593  1.0
  C  C4165  1  0.307233  0.795567  0.835927  1.0
  C  C4166  1  0.488333  0.692767  0.835927  1.0
  C  C4167  1  0.204433  0.511667  0.835927  1.0
  C  C4168  1  0.845000  0.871100  0.330740  1.0
  C  C4169  1  0.026100  0.155000  0.330740  1.0
  C  C4170  1  0.128900  0.973900  0.330740  1.0
  C  C4171  1  0.511667  0.204433  0.664073  1.0
  C  C4172  1  0.692767  0.488333  0.664073  1.0
  C  C4173  1  0.795567  0.307233  0.664073  1.0
  C  C4174  1  0.178333  0.537767  0.997407  1.0
  C  C4175  1  0.359433  0.821667  0.997407  1.0
  C  C4176  1  0.462233  0.640567  0.997407  1.0
  C  C4177  1  0.030500  0.872400  0.848370  1.0
  C  C4178  1  0.841900  0.969500  0.848370  1.0
  C  C4179  1  0.127600  0.158100  0.848370  1.0
  C  C4180  1  0.363833  0.539067  0.515037  1.0
  C  C4181  1  0.175233  0.636167  0.515037  1.0
  C  C4182  1  0.460933  0.824767  0.515037  1.0
  C  C4183  1  0.697167  0.205733  0.181703  1.0
  C  C4184  1  0.508567  0.302833  0.181703  1.0
  C  C4185  1  0.794267  0.491433  0.181703  1.0
  C  C4186  1  0.158100  0.127600  0.651630  1.0
  C  C4187  1  0.969500  0.841900  0.651630  1.0
  C  C4188  1  0.872400  0.030500  0.651630  1.0
  C  C4189  1  0.491433  0.794267  0.318297  1.0
  C  C4190  1  0.302833  0.508567  0.318297  1.0
  C  C4191  1  0.205733  0.697167  0.318297  1.0
  C  C4192  1  0.824767  0.460933  0.984963  1.0
  C  C4193  1  0.636167  0.175233  0.984963  1.0
  C  C4194  1  0.539067  0.363833  0.984963  1.0
  C  C4195  1  0.969500  0.127600  0.151630  1.0
  C  C4196  1  0.158100  0.030500  0.151630  1.0
  C  C4197  1  0.872400  0.841900  0.151630  1.0
  C  C4198  1  0.636167  0.460933  0.484963  1.0
  C  C4199  1  0.824767  0.363833  0.484963  1.0
  C  C4200  1  0.539067  0.175233  0.484963  1.0
  C  C4201  1  0.302833  0.794267  0.818297  1.0
  C  C4202  1  0.491433  0.697167  0.818297  1.0
  C  C4203  1  0.205733  0.508567  0.818297  1.0
  C  C4204  1  0.841900  0.872400  0.348370  1.0
  C  C4205  1  0.030500  0.158100  0.348370  1.0
  C  C4206  1  0.127600  0.969500  0.348370  1.0
  C  C4207  1  0.508567  0.205733  0.681703  1.0
  C  C4208  1  0.697167  0.491433  0.681703  1.0
  C  C4209  1  0.794267  0.302833  0.681703  1.0
  C  C4210  1  0.175233  0.539067  0.015037  1.0
  C  C4211  1  0.363833  0.824767  0.015037  1.0
  C  C4212  1  0.460933  0.636167  0.015037  1.0
  C  C4213  1  0.032100  0.817900  0.792180  1.0
  C  C4214  1  0.785800  0.967900  0.792180  1.0
  C  C4215  1  0.182100  0.214200  0.792180  1.0
  C  C4216  1  0.365433  0.484567  0.458847  1.0
  C  C4217  1  0.119133  0.634567  0.458847  1.0
  C  C4218  1  0.515433  0.880867  0.458847  1.0
  C  C4219  1  0.698767  0.151233  0.125513  1.0
  C  C4220  1  0.452467  0.301233  0.125513  1.0
  C  C4221  1  0.848767  0.547533  0.125513  1.0
  C  C4222  1  0.214200  0.182100  0.707820  1.0
  C  C4223  1  0.967900  0.785800  0.707820  1.0
  C  C4224  1  0.817900  0.032100  0.707820  1.0
  C  C4225  1  0.547533  0.848767  0.374487  1.0
  C  C4226  1  0.301233  0.452467  0.374487  1.0
  C  C4227  1  0.151233  0.698767  0.374487  1.0
  C  C4228  1  0.880867  0.515433  0.041153  1.0
  C  C4229  1  0.634567  0.119133  0.041153  1.0
  C  C4230  1  0.484567  0.365433  0.041153  1.0
  C  C4231  1  0.967900  0.182100  0.207820  1.0
  C  C4232  1  0.214200  0.032100  0.207820  1.0
  C  C4233  1  0.817900  0.785800  0.207820  1.0
  C  C4234  1  0.634567  0.515433  0.541153  1.0
  C  C4235  1  0.880867  0.365433  0.541153  1.0
  C  C4236  1  0.484567  0.119133  0.541153  1.0
  C  C4237  1  0.301233  0.848767  0.874487  1.0
  C  C4238  1  0.547533  0.698767  0.874487  1.0
  C  C4239  1  0.151233  0.452467  0.874487  1.0
  C  C4240  1  0.785800  0.817900  0.292180  1.0
  C  C4241  1  0.032100  0.214200  0.292180  1.0
  C  C4242  1  0.182100  0.967900  0.292180  1.0
  C  C4243  1  0.452467  0.151233  0.625513  1.0
  C  C4244  1  0.698767  0.547533  0.625513  1.0
  C  C4245  1  0.848767  0.301233  0.625513  1.0
  C  C4246  1  0.119133  0.484567  0.958847  1.0
  C  C4247  1  0.365433  0.880867  0.958847  1.0
  C  C4248  1  0.515433  0.634567  0.958847  1.0
  C  C4249  1  0.070200  0.809700  0.793900  1.0
  C  C4250  1  0.739500  0.929800  0.793900  1.0
  C  C4251  1  0.190300  0.260500  0.793900  1.0
  C  C4252  1  0.403533  0.476367  0.460567  1.0
  C  C4253  1  0.072833  0.596467  0.460567  1.0
  C  C4254  1  0.523633  0.927167  0.460567  1.0
  C  C4255  1  0.736867  0.143033  0.127233  1.0
  C  C4256  1  0.406167  0.263133  0.127233  1.0
  C  C4257  1  0.856967  0.593833  0.127233  1.0
  C  C4258  1  0.260500  0.190300  0.706100  1.0
  C  C4259  1  0.929800  0.739500  0.706100  1.0
  C  C4260  1  0.809700  0.070200  0.706100  1.0
  C  C4261  1  0.593833  0.856967  0.372767  1.0
  C  C4262  1  0.263133  0.406167  0.372767  1.0
  C  C4263  1  0.143033  0.736867  0.372767  1.0
  C  C4264  1  0.927167  0.523633  0.039433  1.0
  C  C4265  1  0.596467  0.072833  0.039433  1.0
  C  C4266  1  0.476367  0.403533  0.039433  1.0
  C  C4267  1  0.929800  0.190300  0.206100  1.0
  C  C4268  1  0.260500  0.070200  0.206100  1.0
  C  C4269  1  0.809700  0.739500  0.206100  1.0
  C  C4270  1  0.596467  0.523633  0.539433  1.0
  C  C4271  1  0.927167  0.403533  0.539433  1.0
  C  C4272  1  0.476367  0.072833  0.539433  1.0
  C  C4273  1  0.263133  0.856967  0.872767  1.0
  C  C4274  1  0.593833  0.736867  0.872767  1.0
  C  C4275  1  0.143033  0.406167  0.872767  1.0
  C  C4276  1  0.739500  0.809700  0.293900  1.0
  C  C4277  1  0.070200  0.260500  0.293900  1.0
  C  C4278  1  0.190300  0.929800  0.293900  1.0
  C  C4279  1  0.406167  0.143033  0.627233  1.0
  C  C4280  1  0.736867  0.593833  0.627233  1.0
  C  C4281  1  0.856967  0.263133  0.627233  1.0
  C  C4282  1  0.072833  0.476367  0.960567  1.0
  C  C4283  1  0.403533  0.927167  0.960567  1.0
  C  C4284  1  0.523633  0.596467  0.960567  1.0
  C  C4285  1  0.089600  0.800500  0.779590  1.0
  C  C4286  1  0.710900  0.910400  0.779590  1.0
  C  C4287  1  0.199500  0.289100  0.779590  1.0
  C  C4288  1  0.422933  0.467167  0.446257  1.0
  C  C4289  1  0.044233  0.577067  0.446257  1.0
  C  C4290  1  0.532833  0.955767  0.446257  1.0
  C  C4291  1  0.756267  0.133833  0.112923  1.0
  C  C4292  1  0.377567  0.243733  0.112923  1.0
  C  C4293  1  0.866167  0.622433  0.112923  1.0
  C  C4294  1  0.289100  0.199500  0.720410  1.0
  C  C4295  1  0.910400  0.710900  0.720410  1.0
  C  C4296  1  0.800500  0.089600  0.720410  1.0
  C  C4297  1  0.622433  0.866167  0.387077  1.0
  C  C4298  1  0.243733  0.377567  0.387077  1.0
  C  C4299  1  0.133833  0.756267  0.387077  1.0
  C  C4300  1  0.955767  0.532833  0.053743  1.0
  C  C4301  1  0.577067  0.044233  0.053743  1.0
  C  C4302  1  0.467167  0.422933  0.053743  1.0
  C  C4303  1  0.910400  0.199500  0.220410  1.0
  C  C4304  1  0.289100  0.089600  0.220410  1.0
  C  C4305  1  0.800500  0.710900  0.220410  1.0
  C  C4306  1  0.577067  0.532833  0.553743  1.0
  C  C4307  1  0.955767  0.422933  0.553743  1.0
  C  C4308  1  0.467167  0.044233  0.553743  1.0
  C  C4309  1  0.243733  0.866167  0.887077  1.0
  C  C4310  1  0.622433  0.756267  0.887077  1.0
  C  C4311  1  0.133833  0.377567  0.887077  1.0
  C  C4312  1  0.710900  0.800500  0.279590  1.0
  C  C4313  1  0.089600  0.289100  0.279590  1.0
  C  C4314  1  0.199500  0.910400  0.279590  1.0
  C  C4315  1  0.377567  0.133833  0.612923  1.0
  C  C4316  1  0.756267  0.622433  0.612923  1.0
  C  C4317  1  0.866167  0.243733  0.612923  1.0
  C  C4318  1  0.044233  0.467167  0.946257  1.0
  C  C4319  1  0.422933  0.955767  0.946257  1.0
  C  C4320  1  0.532833  0.577067  0.946257  1.0
  C  C4321  1  0.070900  0.799400  0.763550  1.0
  C  C4322  1  0.728500  0.929100  0.763550  1.0
  C  C4323  1  0.200600  0.271500  0.763550  1.0
  C  C4324  1  0.404233  0.466067  0.430217  1.0
  C  C4325  1  0.061833  0.595767  0.430217  1.0
  C  C4326  1  0.533933  0.938167  0.430217  1.0
  C  C4327  1  0.737567  0.132733  0.096883  1.0
  C  C4328  1  0.395167  0.262433  0.096883  1.0
  C  C4329  1  0.867267  0.604833  0.096883  1.0
  C  C4330  1  0.271500  0.200600  0.736450  1.0
  C  C4331  1  0.929100  0.728500  0.736450  1.0
  C  C4332  1  0.799400  0.070900  0.736450  1.0
  C  C4333  1  0.604833  0.867267  0.403117  1.0
  C  C4334  1  0.262433  0.395167  0.403117  1.0
  C  C4335  1  0.132733  0.737567  0.403117  1.0
  C  C4336  1  0.938167  0.533933  0.069783  1.0
  C  C4337  1  0.595767  0.061833  0.069783  1.0
  C  C4338  1  0.466067  0.404233  0.069783  1.0
  C  C4339  1  0.929100  0.200600  0.236450  1.0
  C  C4340  1  0.271500  0.070900  0.236450  1.0
  C  C4341  1  0.799400  0.728500  0.236450  1.0
  C  C4342  1  0.595767  0.533933  0.569783  1.0
  C  C4343  1  0.938167  0.404233  0.569783  1.0
  C  C4344  1  0.466067  0.061833  0.569783  1.0
  C  C4345  1  0.262433  0.867267  0.903117  1.0
  C  C4346  1  0.604833  0.737567  0.903117  1.0
  C  C4347  1  0.132733  0.395167  0.903117  1.0
  C  C4348  1  0.728500  0.799400  0.263550  1.0
  C  C4349  1  0.070900  0.271500  0.263550  1.0
  C  C4350  1  0.200600  0.929100  0.263550  1.0
  C  C4351  1  0.395167  0.132733  0.596883  1.0
  C  C4352  1  0.737567  0.604833  0.596883  1.0
  C  C4353  1  0.867267  0.262433  0.596883  1.0
  C  C4354  1  0.061833  0.466067  0.930217  1.0
  C  C4355  1  0.404233  0.938167  0.930217  1.0
  C  C4356  1  0.533933  0.595767  0.930217  1.0
  C  C4357  1  0.032800  0.807600  0.761820  1.0
  C  C4358  1  0.774800  0.967200  0.761820  1.0
  C  C4359  1  0.192400  0.225200  0.761820  1.0
  C  C4360  1  0.366133  0.474267  0.428487  1.0
  C  C4361  1  0.108133  0.633867  0.428487  1.0
  C  C4362  1  0.525733  0.891867  0.428487  1.0
  C  C4363  1  0.699467  0.140933  0.095153  1.0
  C  C4364  1  0.441467  0.300533  0.095153  1.0
  C  C4365  1  0.859067  0.558533  0.095153  1.0
  C  C4366  1  0.225200  0.192400  0.738180  1.0
  C  C4367  1  0.967200  0.774800  0.738180  1.0
  C  C4368  1  0.807600  0.032800  0.738180  1.0
  C  C4369  1  0.558533  0.859067  0.404847  1.0
  C  C4370  1  0.300533  0.441467  0.404847  1.0
  C  C4371  1  0.140933  0.699467  0.404847  1.0
  C  C4372  1  0.891867  0.525733  0.071513  1.0
  C  C4373  1  0.633867  0.108133  0.071513  1.0
  C  C4374  1  0.474267  0.366133  0.071513  1.0
  C  C4375  1  0.967200  0.192400  0.238180  1.0
  C  C4376  1  0.225200  0.032800  0.238180  1.0
  C  C4377  1  0.807600  0.774800  0.238180  1.0
  C  C4378  1  0.633867  0.525733  0.571513  1.0
  C  C4379  1  0.891867  0.366133  0.571513  1.0
  C  C4380  1  0.474267  0.108133  0.571513  1.0
  C  C4381  1  0.300533  0.859067  0.904847  1.0
  C  C4382  1  0.558533  0.699467  0.904847  1.0
  C  C4383  1  0.140933  0.441467  0.904847  1.0
  C  C4384  1  0.774800  0.807600  0.261820  1.0
  C  C4385  1  0.032800  0.225200  0.261820  1.0
  C  C4386  1  0.192400  0.967200  0.261820  1.0
  C  C4387  1  0.441467  0.140933  0.595153  1.0
  C  C4388  1  0.699467  0.558533  0.595153  1.0
  C  C4389  1  0.859067  0.300533  0.595153  1.0
  C  C4390  1  0.108133  0.474267  0.928487  1.0
  C  C4391  1  0.366133  0.891867  0.928487  1.0
  C  C4392  1  0.525733  0.633867  0.928487  1.0
  C  C4393  1  0.013400  0.816800  0.776140  1.0
  C  C4394  1  0.803400  0.986600  0.776140  1.0
  C  C4395  1  0.183200  0.196600  0.776140  1.0
  C  C4396  1  0.346733  0.483467  0.442807  1.0
  C  C4397  1  0.136733  0.653267  0.442807  1.0
  C  C4398  1  0.516533  0.863267  0.442807  1.0
  C  C4399  1  0.680067  0.150133  0.109473  1.0
  C  C4400  1  0.470067  0.319933  0.109473  1.0
  C  C4401  1  0.849867  0.529933  0.109473  1.0
  C  C4402  1  0.196600  0.183200  0.723860  1.0
  C  C4403  1  0.986600  0.803400  0.723860  1.0
  C  C4404  1  0.816800  0.013400  0.723860  1.0
  C  C4405  1  0.529933  0.849867  0.390527  1.0
  C  C4406  1  0.319933  0.470067  0.390527  1.0
  C  C4407  1  0.150133  0.680067  0.390527  1.0
  C  C4408  1  0.863267  0.516533  0.057193  1.0
  C  C4409  1  0.653267  0.136733  0.057193  1.0
  C  C4410  1  0.483467  0.346733  0.057193  1.0
  C  C4411  1  0.986600  0.183200  0.223860  1.0
  C  C4412  1  0.196600  0.013400  0.223860  1.0
  C  C4413  1  0.816800  0.803400  0.223860  1.0
  C  C4414  1  0.653267  0.516533  0.557193  1.0
  C  C4415  1  0.863267  0.346733  0.557193  1.0
  C  C4416  1  0.483467  0.136733  0.557193  1.0
  C  C4417  1  0.319933  0.849867  0.890527  1.0
  C  C4418  1  0.529933  0.680067  0.890527  1.0
  C  C4419  1  0.150133  0.470067  0.890527  1.0
  C  C4420  1  0.803400  0.816800  0.276140  1.0
  C  C4421  1  0.013400  0.196600  0.276140  1.0
  C  C4422  1  0.183200  0.986600  0.276140  1.0
  C  C4423  1  0.470067  0.150133  0.609473  1.0
  C  C4424  1  0.680067  0.529933  0.609473  1.0
  C  C4425  1  0.849867  0.319933  0.609473  1.0
  C  C4426  1  0.136733  0.483467  0.942807  1.0
  C  C4427  1  0.346733  0.863267  0.942807  1.0
  C  C4428  1  0.516533  0.653267  0.942807  1.0
  C  C4429  1  0.974200  0.824900  0.778450  1.0
  C  C4430  1  0.850700  0.025800  0.778450  1.0
  C  C4431  1  0.175100  0.149300  0.778450  1.0
  C  C4432  1  0.307533  0.491567  0.445117  1.0
  C  C4433  1  0.184033  0.692467  0.445117  1.0
  C  C4434  1  0.508433  0.815967  0.445117  1.0
  C  C4435  1  0.640867  0.158233  0.111783  1.0
  C  C4436  1  0.517367  0.359133  0.111783  1.0
  C  C4437  1  0.841767  0.482633  0.111783  1.0
  C  C4438  1  0.149300  0.175100  0.721550  1.0
  C  C4439  1  0.025800  0.850700  0.721550  1.0
  C  C4440  1  0.824900  0.974200  0.721550  1.0
  C  C4441  1  0.482633  0.841767  0.388217  1.0
  C  C4442  1  0.359133  0.517367  0.388217  1.0
  C  C4443  1  0.158233  0.640867  0.388217  1.0
  C  C4444  1  0.815967  0.508433  0.054883  1.0
  C  C4445  1  0.692467  0.184033  0.054883  1.0
  C  C4446  1  0.491567  0.307533  0.054883  1.0
  C  C4447  1  0.025800  0.175100  0.221550  1.0
  C  C4448  1  0.149300  0.974200  0.221550  1.0
  C  C4449  1  0.824900  0.850700  0.221550  1.0
  C  C4450  1  0.692467  0.508433  0.554883  1.0
  C  C4451  1  0.815967  0.307533  0.554883  1.0
  C  C4452  1  0.491567  0.184033  0.554883  1.0
  C  C4453  1  0.359133  0.841767  0.888217  1.0
  C  C4454  1  0.482633  0.640867  0.888217  1.0
  C  C4455  1  0.158233  0.517367  0.888217  1.0
  C  C4456  1  0.850700  0.824900  0.278450  1.0
  C  C4457  1  0.974200  0.149300  0.278450  1.0
  C  C4458  1  0.175100  0.025800  0.278450  1.0
  C  C4459  1  0.517367  0.158233  0.611783  1.0
  C  C4460  1  0.640867  0.482633  0.611783  1.0
  C  C4461  1  0.841767  0.359133  0.611783  1.0
  C  C4462  1  0.184033  0.491567  0.945117  1.0
  C  C4463  1  0.307533  0.815967  0.945117  1.0
  C  C4464  1  0.508433  0.692467  0.945117  1.0
  C  C4465  1  0.940500  0.826600  0.767910  1.0
  C  C4466  1  0.886100  0.059500  0.767910  1.0
  C  C4467  1  0.173400  0.113900  0.767910  1.0
  C  C4468  1  0.273833  0.493267  0.434577  1.0
  C  C4469  1  0.219433  0.726167  0.434577  1.0
  C  C4470  1  0.506733  0.780567  0.434577  1.0
  C  C4471  1  0.607167  0.159933  0.101243  1.0
  C  C4472  1  0.552767  0.392833  0.101243  1.0
  C  C4473  1  0.840067  0.447233  0.101243  1.0
  C  C4474  1  0.113900  0.173400  0.732090  1.0
  C  C4475  1  0.059500  0.886100  0.732090  1.0
  C  C4476  1  0.826600  0.940500  0.732090  1.0
  C  C4477  1  0.447233  0.840067  0.398757  1.0
  C  C4478  1  0.392833  0.552767  0.398757  1.0
  C  C4479  1  0.159933  0.607167  0.398757  1.0
  C  C4480  1  0.780567  0.506733  0.065423  1.0
  C  C4481  1  0.726167  0.219433  0.065423  1.0
  C  C4482  1  0.493267  0.273833  0.065423  1.0
  C  C4483  1  0.059500  0.173400  0.232090  1.0
  C  C4484  1  0.113900  0.940500  0.232090  1.0
  C  C4485  1  0.826600  0.886100  0.232090  1.0
  C  C4486  1  0.726167  0.506733  0.565423  1.0
  C  C4487  1  0.780567  0.273833  0.565423  1.0
  C  C4488  1  0.493267  0.219433  0.565423  1.0
  C  C4489  1  0.392833  0.840067  0.898757  1.0
  C  C4490  1  0.447233  0.607167  0.898757  1.0
  C  C4491  1  0.159933  0.552767  0.898757  1.0
  C  C4492  1  0.886100  0.826600  0.267910  1.0
  C  C4493  1  0.940500  0.113900  0.267910  1.0
  C  C4494  1  0.173400  0.059500  0.267910  1.0
  C  C4495  1  0.552767  0.159933  0.601243  1.0
  C  C4496  1  0.607167  0.447233  0.601243  1.0
  C  C4497  1  0.840067  0.392833  0.601243  1.0
  C  C4498  1  0.219433  0.493267  0.934577  1.0
  C  C4499  1  0.273833  0.780567  0.934577  1.0
  C  C4500  1  0.506733  0.726167  0.934577  1.0
  C  C4501  1  0.906100  0.835600  0.774800  1.0
  C  C4502  1  0.929500  0.093900  0.774800  1.0
  C  C4503  1  0.164400  0.070500  0.774800  1.0
  C  C4504  1  0.239433  0.502267  0.441467  1.0
  C  C4505  1  0.262833  0.760567  0.441467  1.0
  C  C4506  1  0.497733  0.737167  0.441467  1.0
  C  C4507  1  0.572767  0.168933  0.108133  1.0
  C  C4508  1  0.596167  0.427233  0.108133  1.0
  C  C4509  1  0.831067  0.403833  0.108133  1.0
  C  C4510  1  0.070500  0.164400  0.725200  1.0
  C  C4511  1  0.093900  0.929500  0.725200  1.0
  C  C4512  1  0.835600  0.906100  0.725200  1.0
  C  C4513  1  0.403833  0.831067  0.391867  1.0
  C  C4514  1  0.427233  0.596167  0.391867  1.0
  C  C4515  1  0.168933  0.572767  0.391867  1.0
  C  C4516  1  0.737167  0.497733  0.058533  1.0
  C  C4517  1  0.760567  0.262833  0.058533  1.0
  C  C4518  1  0.502267  0.239433  0.058533  1.0
  C  C4519  1  0.093900  0.164400  0.225200  1.0
  C  C4520  1  0.070500  0.906100  0.225200  1.0
  C  C4521  1  0.835600  0.929500  0.225200  1.0
  C  C4522  1  0.760567  0.497733  0.558533  1.0
  C  C4523  1  0.737167  0.239433  0.558533  1.0
  C  C4524  1  0.502267  0.262833  0.558533  1.0
  C  C4525  1  0.427233  0.831067  0.891867  1.0
  C  C4526  1  0.403833  0.572767  0.891867  1.0
  C  C4527  1  0.168933  0.596167  0.891867  1.0
  C  C4528  1  0.929500  0.835600  0.274800  1.0
  C  C4529  1  0.906100  0.070500  0.274800  1.0
  C  C4530  1  0.164400  0.093900  0.274800  1.0
  C  C4531  1  0.596167  0.168933  0.608133  1.0
  C  C4532  1  0.572767  0.403833  0.608133  1.0
  C  C4533  1  0.831067  0.427233  0.608133  1.0
  C  C4534  1  0.262833  0.502267  0.941467  1.0
  C  C4535  1  0.239433  0.737167  0.941467  1.0
  C  C4536  1  0.497733  0.760567  0.941467  1.0
  C  C4537  1  0.905500  0.843000  0.792220  1.0
  C  C4538  1  0.937500  0.094500  0.792220  1.0
  C  C4539  1  0.157000  0.062500  0.792220  1.0
  C  C4540  1  0.238833  0.509667  0.458887  1.0
  C  C4541  1  0.270833  0.761167  0.458887  1.0
  C  C4542  1  0.490333  0.729167  0.458887  1.0
  C  C4543  1  0.572167  0.176333  0.125553  1.0
  C  C4544  1  0.604167  0.427833  0.125553  1.0
  C  C4545  1  0.823667  0.395833  0.125553  1.0
  C  C4546  1  0.062500  0.157000  0.707780  1.0
  C  C4547  1  0.094500  0.937500  0.707780  1.0
  C  C4548  1  0.843000  0.905500  0.707780  1.0
  C  C4549  1  0.395833  0.823667  0.374447  1.0
  C  C4550  1  0.427833  0.604167  0.374447  1.0
  C  C4551  1  0.176333  0.572167  0.374447  1.0
  C  C4552  1  0.729167  0.490333  0.041113  1.0
  C  C4553  1  0.761167  0.270833  0.041113  1.0
  C  C4554  1  0.509667  0.238833  0.041113  1.0
  C  C4555  1  0.094500  0.157000  0.207780  1.0
  C  C4556  1  0.062500  0.905500  0.207780  1.0
  C  C4557  1  0.843000  0.937500  0.207780  1.0
  C  C4558  1  0.761167  0.490333  0.541113  1.0
  C  C4559  1  0.729167  0.238833  0.541113  1.0
  C  C4560  1  0.509667  0.270833  0.541113  1.0
  C  C4561  1  0.427833  0.823667  0.874447  1.0
  C  C4562  1  0.395833  0.572167  0.874447  1.0
  C  C4563  1  0.176333  0.604167  0.874447  1.0
  C  C4564  1  0.937500  0.843000  0.292220  1.0
  C  C4565  1  0.905500  0.062500  0.292220  1.0
  C  C4566  1  0.157000  0.094500  0.292220  1.0
  C  C4567  1  0.604167  0.176333  0.625553  1.0
  C  C4568  1  0.572167  0.395833  0.625553  1.0
  C  C4569  1  0.823667  0.427833  0.625553  1.0
  C  C4570  1  0.270833  0.509667  0.958887  1.0
  C  C4571  1  0.238833  0.729167  0.958887  1.0
  C  C4572  1  0.490333  0.761167  0.958887  1.0
  C  C4573  1  0.939200  0.841300  0.802750  1.0
  C  C4574  1  0.902100  0.060800  0.802750  1.0
  C  C4575  1  0.158700  0.097900  0.802750  1.0
  C  C4576  1  0.272533  0.507967  0.469417  1.0
  C  C4577  1  0.235433  0.727467  0.469417  1.0
  C  C4578  1  0.492033  0.764567  0.469417  1.0
  C  C4579  1  0.605867  0.174633  0.136083  1.0
  C  C4580  1  0.568767  0.394133  0.136083  1.0
  C  C4581  1  0.825367  0.431233  0.136083  1.0
  C  C4582  1  0.097900  0.158700  0.697250  1.0
  C  C4583  1  0.060800  0.902100  0.697250  1.0
  C  C4584  1  0.841300  0.939200  0.697250  1.0
  C  C4585  1  0.431233  0.825367  0.363917  1.0
  C  C4586  1  0.394133  0.568767  0.363917  1.0
  C  C4587  1  0.174633  0.605867  0.363917  1.0
  C  C4588  1  0.764567  0.492033  0.030583  1.0
  C  C4589  1  0.727467  0.235433  0.030583  1.0
  C  C4590  1  0.507967  0.272533  0.030583  1.0
  C  C4591  1  0.060800  0.158700  0.197250  1.0
  C  C4592  1  0.097900  0.939200  0.197250  1.0
  C  C4593  1  0.841300  0.902100  0.197250  1.0
  C  C4594  1  0.727467  0.492033  0.530583  1.0
  C  C4595  1  0.764567  0.272533  0.530583  1.0
  C  C4596  1  0.507967  0.235433  0.530583  1.0
  C  C4597  1  0.394133  0.825367  0.863917  1.0
  C  C4598  1  0.431233  0.605867  0.863917  1.0
  C  C4599  1  0.174633  0.568767  0.863917  1.0
  C  C4600  1  0.902100  0.841300  0.302750  1.0
  C  C4601  1  0.939200  0.097900  0.302750  1.0
  C  C4602  1  0.158700  0.060800  0.302750  1.0
  C  C4603  1  0.568767  0.174633  0.636083  1.0
  C  C4604  1  0.605867  0.431233  0.636083  1.0
  C  C4605  1  0.825367  0.394133  0.636083  1.0
  C  C4606  1  0.235433  0.507967  0.969417  1.0
  C  C4607  1  0.272533  0.764567  0.969417  1.0
  C  C4608  1  0.492033  0.727467  0.969417  1.0
  C  C4609  1  0.973600  0.832300  0.795870  1.0
  C  C4610  1  0.858700  0.026400  0.795870  1.0
  C  C4611  1  0.167700  0.141300  0.795870  1.0
  C  C4612  1  0.306933  0.498967  0.462537  1.0
  C  C4613  1  0.192033  0.693067  0.462537  1.0
  C  C4614  1  0.501033  0.807967  0.462537  1.0
  C  C4615  1  0.640267  0.165633  0.129203  1.0
  C  C4616  1  0.525367  0.359733  0.129203  1.0
  C  C4617  1  0.834367  0.474633  0.129203  1.0
  C  C4618  1  0.141300  0.167700  0.704130  1.0
  C  C4619  1  0.026400  0.858700  0.704130  1.0
  C  C4620  1  0.832300  0.973600  0.704130  1.0
  C  C4621  1  0.474633  0.834367  0.370797  1.0
  C  C4622  1  0.359733  0.525367  0.370797  1.0
  C  C4623  1  0.165633  0.640267  0.370797  1.0
  C  C4624  1  0.807967  0.501033  0.037463  1.0
  C  C4625  1  0.693067  0.192033  0.037463  1.0
  C  C4626  1  0.498967  0.306933  0.037463  1.0
  C  C4627  1  0.026400  0.167700  0.204130  1.0
  C  C4628  1  0.141300  0.973600  0.204130  1.0
  C  C4629  1  0.832300  0.858700  0.204130  1.0
  C  C4630  1  0.693067  0.501033  0.537463  1.0
  C  C4631  1  0.807967  0.306933  0.537463  1.0
  C  C4632  1  0.498967  0.192033  0.537463  1.0
  C  C4633  1  0.359733  0.834367  0.870797  1.0
  C  C4634  1  0.474633  0.640267  0.870797  1.0
  C  C4635  1  0.165633  0.525367  0.870797  1.0
  C  C4636  1  0.858700  0.832300  0.295870  1.0
  C  C4637  1  0.973600  0.141300  0.295870  1.0
  C  C4638  1  0.167700  0.026400  0.295870  1.0
  C  C4639  1  0.525367  0.165633  0.629203  1.0
  C  C4640  1  0.640267  0.474633  0.629203  1.0
  C  C4641  1  0.834367  0.359733  0.629203  1.0
  C  C4642  1  0.192033  0.498967  0.962537  1.0
  C  C4643  1  0.306933  0.807967  0.962537  1.0
  C  C4644  1  0.501033  0.693067  0.962537  1.0
  C  C4645  1  0.770420  0.797220  0.944140  1.0
  C  C4646  1  0.026800  0.229580  0.944140  1.0
  C  C4647  1  0.202780  0.973200  0.944140  1.0
  C  C4648  1  0.103753  0.463887  0.610807  1.0
  C  C4649  1  0.360133  0.896247  0.610807  1.0
  C  C4650  1  0.536113  0.639867  0.610807  1.0
  C  C4651  1  0.437087  0.130553  0.277473  1.0
  C  C4652  1  0.693467  0.562913  0.277473  1.0
  C  C4653  1  0.869447  0.306533  0.277473  1.0
  C  C4654  1  0.973200  0.202780  0.555860  1.0
  C  C4655  1  0.229580  0.026800  0.555860  1.0
  C  C4656  1  0.797220  0.770420  0.555860  1.0
  C  C4657  1  0.306533  0.869447  0.222527  1.0
  C  C4658  1  0.562913  0.693467  0.222527  1.0
  C  C4659  1  0.130553  0.437087  0.222527  1.0
  C  C4660  1  0.639867  0.536113  0.889193  1.0
  C  C4661  1  0.896247  0.360133  0.889193  1.0
  C  C4662  1  0.463887  0.103753  0.889193  1.0
  C  C4663  1  0.229580  0.202780  0.055860  1.0
  C  C4664  1  0.973200  0.770420  0.055860  1.0
  C  C4665  1  0.797220  0.026800  0.055860  1.0
  C  C4666  1  0.896247  0.536113  0.389193  1.0
  C  C4667  1  0.639867  0.103753  0.389193  1.0
  C  C4668  1  0.463887  0.360133  0.389193  1.0
  C  C4669  1  0.562913  0.869447  0.722527  1.0
  C  C4670  1  0.306533  0.437087  0.722527  1.0
  C  C4671  1  0.130553  0.693467  0.722527  1.0
  C  C4672  1  0.026800  0.797220  0.444140  1.0
  C  C4673  1  0.770420  0.973200  0.444140  1.0
  C  C4674  1  0.202780  0.229580  0.444140  1.0
  C  C4675  1  0.693467  0.130553  0.777473  1.0
  C  C4676  1  0.437087  0.306533  0.777473  1.0
  C  C4677  1  0.869447  0.562913  0.777473  1.0
  C  C4678  1  0.360133  0.463887  0.110807  1.0
  C  C4679  1  0.103753  0.639867  0.110807  1.0
  C  C4680  1  0.536113  0.896247  0.110807  1.0
  C  C4681  1  0.722720  0.779890  0.952500  1.0
  C  C4682  1  0.057170  0.277280  0.952500  1.0
  C  C4683  1  0.220110  0.942830  0.952500  1.0
  C  C4684  1  0.056053  0.446557  0.619167  1.0
  C  C4685  1  0.390503  0.943947  0.619167  1.0
  C  C4686  1  0.553443  0.609497  0.619167  1.0
  C  C4687  1  0.389387  0.113223  0.285833  1.0
  C  C4688  1  0.723837  0.610613  0.285833  1.0
  C  C4689  1  0.886777  0.276163  0.285833  1.0
  C  C4690  1  0.942830  0.220110  0.547500  1.0
  C  C4691  1  0.277280  0.057170  0.547500  1.0
  C  C4692  1  0.779890  0.722720  0.547500  1.0
  C  C4693  1  0.276163  0.886777  0.214167  1.0
  C  C4694  1  0.610613  0.723837  0.214167  1.0
  C  C4695  1  0.113223  0.389387  0.214167  1.0
  C  C4696  1  0.609497  0.553443  0.880833  1.0
  C  C4697  1  0.943947  0.390503  0.880833  1.0
  C  C4698  1  0.446557  0.056053  0.880833  1.0
  C  C4699  1  0.277280  0.220110  0.047500  1.0
  C  C4700  1  0.942830  0.722720  0.047500  1.0
  C  C4701  1  0.779890  0.057170  0.047500  1.0
  C  C4702  1  0.943947  0.553443  0.380833  1.0
  C  C4703  1  0.609497  0.056053  0.380833  1.0
  C  C4704  1  0.446557  0.390503  0.380833  1.0
  C  C4705  1  0.610613  0.886777  0.714167  1.0
  C  C4706  1  0.276163  0.389387  0.714167  1.0
  C  C4707  1  0.113223  0.723837  0.714167  1.0
  C  C4708  1  0.057170  0.779890  0.452500  1.0
  C  C4709  1  0.722720  0.942830  0.452500  1.0
  C  C4710  1  0.220110  0.277280  0.452500  1.0
  C  C4711  1  0.723837  0.113223  0.785833  1.0
  C  C4712  1  0.389387  0.276163  0.785833  1.0
  C  C4713  1  0.886777  0.610613  0.785833  1.0
  C  C4714  1  0.390503  0.446557  0.119167  1.0
  C  C4715  1  0.056053  0.609497  0.119167  1.0
  C  C4716  1  0.553443  0.943947  0.119167  1.0
  C  C4717  1  0.681580  0.754280  0.943120  1.0
  C  C4718  1  0.072700  0.318420  0.943120  1.0
  C  C4719  1  0.245720  0.927300  0.943120  1.0
  C  C4720  1  0.014913  0.420947  0.609787  1.0
  C  C4721  1  0.406033  0.985087  0.609787  1.0
  C  C4722  1  0.579053  0.593967  0.609787  1.0
  C  C4723  1  0.348247  0.087613  0.276453  1.0
  C  C4724  1  0.739367  0.651753  0.276453  1.0
  C  C4725  1  0.912387  0.260633  0.276453  1.0
  C  C4726  1  0.927300  0.245720  0.556880  1.0
  C  C4727  1  0.318420  0.072700  0.556880  1.0
  C  C4728  1  0.754280  0.681580  0.556880  1.0
  C  C4729  1  0.260633  0.912387  0.223547  1.0
  C  C4730  1  0.651753  0.739367  0.223547  1.0
  C  C4731  1  0.087613  0.348247  0.223547  1.0
  C  C4732  1  0.593967  0.579053  0.890213  1.0
  C  C4733  1  0.985087  0.406033  0.890213  1.0
  C  C4734  1  0.420947  0.014913  0.890213  1.0
  C  C4735  1  0.318420  0.245720  0.056880  1.0
  C  C4736  1  0.927300  0.681580  0.056880  1.0
  C  C4737  1  0.754280  0.072700  0.056880  1.0
  C  C4738  1  0.985087  0.579053  0.390213  1.0
  C  C4739  1  0.593967  0.014913  0.390213  1.0
  C  C4740  1  0.420947  0.406033  0.390213  1.0
  C  C4741  1  0.651753  0.912387  0.723547  1.0
  C  C4742  1  0.260633  0.348247  0.723547  1.0
  C  C4743  1  0.087613  0.739367  0.723547  1.0
  C  C4744  1  0.072700  0.754280  0.443120  1.0
  C  C4745  1  0.681580  0.927300  0.443120  1.0
  C  C4746  1  0.245720  0.318420  0.443120  1.0
  C  C4747  1  0.739367  0.087613  0.776453  1.0
  C  C4748  1  0.348247  0.260633  0.776453  1.0
  C  C4749  1  0.912387  0.651753  0.776453  1.0
  C  C4750  1  0.406033  0.420947  0.109787  1.0
  C  C4751  1  0.014913  0.593967  0.109787  1.0
  C  C4752  1  0.579053  0.985087  0.109787  1.0
  C  C4753  1  0.637500  0.738000  0.950520  1.0
  C  C4754  1  0.100500  0.362500  0.950520  1.0
  C  C4755  1  0.262000  0.899500  0.950520  1.0
  C  C4756  1  0.970833  0.404667  0.617187  1.0
  C  C4757  1  0.433833  0.029167  0.617187  1.0
  C  C4758  1  0.595333  0.566167  0.617187  1.0
  C  C4759  1  0.304167  0.071333  0.283853  1.0
  C  C4760  1  0.767167  0.695833  0.283853  1.0
  C  C4761  1  0.928667  0.232833  0.283853  1.0
  C  C4762  1  0.899500  0.262000  0.549480  1.0
  C  C4763  1  0.362500  0.100500  0.549480  1.0
  C  C4764  1  0.738000  0.637500  0.549480  1.0
  C  C4765  1  0.232833  0.928667  0.216147  1.0
  C  C4766  1  0.695833  0.767167  0.216147  1.0
  C  C4767  1  0.071333  0.304167  0.216147  1.0
  C  C4768  1  0.566167  0.595333  0.882813  1.0
  C  C4769  1  0.029167  0.433833  0.882813  1.0
  C  C4770  1  0.404667  0.970833  0.882813  1.0
  C  C4771  1  0.362500  0.262000  0.049480  1.0
  C  C4772  1  0.899500  0.637500  0.049480  1.0
  C  C4773  1  0.738000  0.100500  0.049480  1.0
  C  C4774  1  0.029167  0.595333  0.382813  1.0
  C  C4775  1  0.566167  0.970833  0.382813  1.0
  C  C4776  1  0.404667  0.433833  0.382813  1.0
  C  C4777  1  0.695833  0.928667  0.716147  1.0
  C  C4778  1  0.232833  0.304167  0.716147  1.0
  C  C4779  1  0.071333  0.767167  0.716147  1.0
  C  C4780  1  0.100500  0.738000  0.450520  1.0
  C  C4781  1  0.637500  0.899500  0.450520  1.0
  C  C4782  1  0.262000  0.362500  0.450520  1.0
  C  C4783  1  0.767167  0.071333  0.783853  1.0
  C  C4784  1  0.304167  0.232833  0.783853  1.0
  C  C4785  1  0.928667  0.695833  0.783853  1.0
  C  C4786  1  0.433833  0.404667  0.117187  1.0
  C  C4787  1  0.970833  0.566167  0.117187  1.0
  C  C4788  1  0.595333  0.029167  0.117187  1.0
  C  C4789  1  0.634620  0.745320  0.967760  1.0
  C  C4790  1  0.110700  0.365380  0.967760  1.0
  C  C4791  1  0.254680  0.889300  0.967760  1.0
  C  C4792  1  0.967953  0.411987  0.634427  1.0
  C  C4793  1  0.444033  0.032047  0.634427  1.0
  C  C4794  1  0.588013  0.555967  0.634427  1.0
  C  C4795  1  0.301287  0.078653  0.301093  1.0
  C  C4796  1  0.777367  0.698713  0.301093  1.0
  C  C4797  1  0.921347  0.222633  0.301093  1.0
  C  C4798  1  0.889300  0.254680  0.532240  1.0
  C  C4799  1  0.365380  0.110700  0.532240  1.0
  C  C4800  1  0.745320  0.634620  0.532240  1.0
  C  C4801  1  0.222633  0.921347  0.198907  1.0
  C  C4802  1  0.698713  0.777367  0.198907  1.0
  C  C4803  1  0.078653  0.301287  0.198907  1.0
  C  C4804  1  0.555967  0.588013  0.865573  1.0
  C  C4805  1  0.032047  0.444033  0.865573  1.0
  C  C4806  1  0.411987  0.967953  0.865573  1.0
  C  C4807  1  0.365380  0.254680  0.032240  1.0
  C  C4808  1  0.889300  0.634620  0.032240  1.0
  C  C4809  1  0.745320  0.110700  0.032240  1.0
  C  C4810  1  0.032047  0.588013  0.365573  1.0
  C  C4811  1  0.555967  0.967953  0.365573  1.0
  C  C4812  1  0.411987  0.444033  0.365573  1.0
  C  C4813  1  0.698713  0.921347  0.698907  1.0
  C  C4814  1  0.222633  0.301287  0.698907  1.0
  C  C4815  1  0.078653  0.777367  0.698907  1.0
  C  C4816  1  0.110700  0.745320  0.467760  1.0
  C  C4817  1  0.634620  0.889300  0.467760  1.0
  C  C4818  1  0.254680  0.365380  0.467760  1.0
  C  C4819  1  0.777367  0.078653  0.801093  1.0
  C  C4820  1  0.301287  0.222633  0.801093  1.0
  C  C4821  1  0.921347  0.698713  0.801093  1.0
  C  C4822  1  0.444033  0.411987  0.134427  1.0
  C  C4823  1  0.967953  0.555967  0.134427  1.0
  C  C4824  1  0.588013  0.032047  0.134427  1.0
  C  C4825  1  0.675820  0.771290  0.977460  1.0
  C  C4826  1  0.095470  0.324180  0.977460  1.0
  C  C4827  1  0.228710  0.904530  0.977460  1.0
  C  C4828  1  0.009153  0.437957  0.644127  1.0
  C  C4829  1  0.428803  0.990847  0.644127  1.0
  C  C4830  1  0.562043  0.571197  0.644127  1.0
  C  C4831  1  0.342487  0.104623  0.310793  1.0
  C  C4832  1  0.762137  0.657513  0.310793  1.0
  C  C4833  1  0.895377  0.237863  0.310793  1.0
  C  C4834  1  0.904530  0.228710  0.522540  1.0
  C  C4835  1  0.324180  0.095470  0.522540  1.0
  C  C4836  1  0.771290  0.675820  0.522540  1.0
  C  C4837  1  0.237863  0.895377  0.189207  1.0
  C  C4838  1  0.657513  0.762137  0.189207  1.0
  C  C4839  1  0.104623  0.342487  0.189207  1.0
  C  C4840  1  0.571197  0.562043  0.855873  1.0
  C  C4841  1  0.990847  0.428803  0.855873  1.0
  C  C4842  1  0.437957  0.009153  0.855873  1.0
  C  C4843  1  0.324180  0.228710  0.022540  1.0
  C  C4844  1  0.904530  0.675820  0.022540  1.0
  C  C4845  1  0.771290  0.095470  0.022540  1.0
  C  C4846  1  0.990847  0.562043  0.355873  1.0
  C  C4847  1  0.571197  0.009153  0.355873  1.0
  C  C4848  1  0.437957  0.428803  0.355873  1.0
  C  C4849  1  0.657513  0.895377  0.689207  1.0
  C  C4850  1  0.237863  0.342487  0.689207  1.0
  C  C4851  1  0.104623  0.762137  0.689207  1.0
  C  C4852  1  0.095470  0.771290  0.477460  1.0
  C  C4853  1  0.675820  0.904530  0.477460  1.0
  C  C4854  1  0.228710  0.324180  0.477460  1.0
  C  C4855  1  0.762137  0.104623  0.810793  1.0
  C  C4856  1  0.342487  0.237863  0.810793  1.0
  C  C4857  1  0.895377  0.657513  0.810793  1.0
  C  C4858  1  0.428803  0.437957  0.144127  1.0
  C  C4859  1  0.009153  0.571197  0.144127  1.0
  C  C4860  1  0.562043  0.990847  0.144127  1.0
  C  C4861  1  0.719630  0.788470  0.969520  1.0
  C  C4862  1  0.068840  0.280370  0.969520  1.0
  C  C4863  1  0.211530  0.931160  0.969520  1.0
  C  C4864  1  0.052963  0.455137  0.636187  1.0
  C  C4865  1  0.402173  0.947037  0.636187  1.0
  C  C4866  1  0.544863  0.597827  0.636187  1.0
  C  C4867  1  0.386297  0.121803  0.302853  1.0
  C  C4868  1  0.735507  0.613703  0.302853  1.0
  C  C4869  1  0.878197  0.264493  0.302853  1.0
  C  C4870  1  0.931160  0.211530  0.530480  1.0
  C  C4871  1  0.280370  0.068840  0.530480  1.0
  C  C4872  1  0.788470  0.719630  0.530480  1.0
  C  C4873  1  0.264493  0.878197  0.197147  1.0
  C  C4874  1  0.613703  0.735507  0.197147  1.0
  C  C4875  1  0.121803  0.386297  0.197147  1.0
  C  C4876  1  0.597827  0.544863  0.863813  1.0
  C  C4877  1  0.947037  0.402173  0.863813  1.0
  C  C4878  1  0.455137  0.052963  0.863813  1.0
  C  C4879  1  0.280370  0.211530  0.030480  1.0
  C  C4880  1  0.931160  0.719630  0.030480  1.0
  C  C4881  1  0.788470  0.068840  0.030480  1.0
  C  C4882  1  0.947037  0.544863  0.363813  1.0
  C  C4883  1  0.597827  0.052963  0.363813  1.0
  C  C4884  1  0.455137  0.402173  0.363813  1.0
  C  C4885  1  0.613703  0.878197  0.697147  1.0
  C  C4886  1  0.264493  0.386297  0.697147  1.0
  C  C4887  1  0.121803  0.735507  0.697147  1.0
  C  C4888  1  0.068840  0.788470  0.469520  1.0
  C  C4889  1  0.719630  0.931160  0.469520  1.0
  C  C4890  1  0.211530  0.280370  0.469520  1.0
  C  C4891  1  0.735507  0.121803  0.802853  1.0
  C  C4892  1  0.386297  0.264493  0.802853  1.0
  C  C4893  1  0.878197  0.613703  0.802853  1.0
  C  C4894  1  0.402173  0.455137  0.136187  1.0
  C  C4895  1  0.052963  0.597827  0.136187  1.0
  C  C4896  1  0.544863  0.947037  0.136187  1.0
  C  C4897  1  0.672670  0.779170  0.995430  1.0
  C  C4898  1  0.106500  0.327330  0.995430  1.0
  C  C4899  1  0.220830  0.893500  0.995430  1.0
  C  C4900  1  0.006003  0.445837  0.662097  1.0
  C  C4901  1  0.439833  0.993997  0.662097  1.0
  C  C4902  1  0.554163  0.560167  0.662097  1.0
  C  C4903  1  0.339337  0.112503  0.328763  1.0
  C  C4904  1  0.773167  0.660663  0.328763  1.0
  C  C4905  1  0.887497  0.226833  0.328763  1.0
  C  C4906  1  0.893500  0.220830  0.504570  1.0
  C  C4907  1  0.327330  0.106500  0.504570  1.0
  C  C4908  1  0.779170  0.672670  0.504570  1.0
  C  C4909  1  0.226833  0.887497  0.171237  1.0
  C  C4910  1  0.660663  0.773167  0.171237  1.0
  C  C4911  1  0.112503  0.339337  0.171237  1.0
  C  C4912  1  0.560167  0.554163  0.837903  1.0
  C  C4913  1  0.993997  0.439833  0.837903  1.0
  C  C4914  1  0.445837  0.006003  0.837903  1.0
  C  C4915  1  0.327330  0.220830  0.004570  1.0
  C  C4916  1  0.893500  0.672670  0.004570  1.0
  C  C4917  1  0.779170  0.106500  0.004570  1.0
  C  C4918  1  0.993997  0.554163  0.337903  1.0
  C  C4919  1  0.560167  0.006003  0.337903  1.0
  C  C4920  1  0.445837  0.439833  0.337903  1.0
  C  C4921  1  0.660663  0.887497  0.671237  1.0
  C  C4922  1  0.226833  0.339337  0.671237  1.0
  C  C4923  1  0.112503  0.773167  0.671237  1.0
  C  C4924  1  0.106500  0.779170  0.495430  1.0
  C  C4925  1  0.672670  0.893500  0.495430  1.0
  C  C4926  1  0.220830  0.327330  0.495430  1.0
  C  C4927  1  0.773167  0.112503  0.828763  1.0
  C  C4928  1  0.339337  0.226833  0.828763  1.0
  C  C4929  1  0.887497  0.660663  0.828763  1.0
  C  C4930  1  0.439833  0.445837  0.162097  1.0
  C  C4931  1  0.006003  0.560167  0.162097  1.0
  C  C4932  1  0.554163  0.993997  0.162097  1.0
  C  C4933  1  0.669680  0.787980  0.009840  1.0
  C  C4934  1  0.118300  0.330320  0.009840  1.0
  C  C4935  1  0.212020  0.881700  0.009840  1.0
  C  C4936  1  0.003013  0.454647  0.676507  1.0
  C  C4937  1  0.451633  0.996987  0.676507  1.0
  C  C4938  1  0.545353  0.548367  0.676507  1.0
  C  C4939  1  0.336347  0.121313  0.343173  1.0
  C  C4940  1  0.784967  0.663653  0.343173  1.0
  C  C4941  1  0.878687  0.215033  0.343173  1.0
  C  C4942  1  0.881700  0.212020  0.490160  1.0
  C  C4943  1  0.330320  0.118300  0.490160  1.0
  C  C4944  1  0.787980  0.669680  0.490160  1.0
  C  C4945  1  0.215033  0.878687  0.156827  1.0
  C  C4946  1  0.663653  0.784967  0.156827  1.0
  C  C4947  1  0.121313  0.336347  0.156827  1.0
  C  C4948  1  0.548367  0.545353  0.823493  1.0
  C  C4949  1  0.996987  0.451633  0.823493  1.0
  C  C4950  1  0.454647  0.003013  0.823493  1.0
  C  C4951  1  0.330320  0.212020  0.990160  1.0
  C  C4952  1  0.881700  0.669680  0.990160  1.0
  C  C4953  1  0.787980  0.118300  0.990160  1.0
  C  C4954  1  0.996987  0.545353  0.323493  1.0
  C  C4955  1  0.548367  0.003013  0.323493  1.0
  C  C4956  1  0.454647  0.451633  0.323493  1.0
  C  C4957  1  0.663653  0.878687  0.656827  1.0
  C  C4958  1  0.215033  0.336347  0.656827  1.0
  C  C4959  1  0.121313  0.784967  0.656827  1.0
  C  C4960  1  0.118300  0.787980  0.509840  1.0
  C  C4961  1  0.669680  0.881700  0.509840  1.0
  C  C4962  1  0.212020  0.330320  0.509840  1.0
  C  C4963  1  0.784967  0.121313  0.843173  1.0
  C  C4964  1  0.336347  0.215033  0.843173  1.0
  C  C4965  1  0.878687  0.663653  0.843173  1.0
  C  C4966  1  0.451633  0.454647  0.176507  1.0
  C  C4967  1  0.003013  0.548367  0.176507  1.0
  C  C4968  1  0.545353  0.996987  0.176507  1.0
  C  C4969  1  0.668240  0.803700  0.026790  1.0
  C  C4970  1  0.135460  0.331760  0.026790  1.0
  C  C4971  1  0.196300  0.864540  0.026790  1.0
  C  C4972  1  0.001573  0.470367  0.693457  1.0
  C  C4973  1  0.468793  0.998427  0.693457  1.0
  C  C4974  1  0.529633  0.531207  0.693457  1.0
  C  C4975  1  0.334907  0.137033  0.360123  1.0
  C  C4976  1  0.802127  0.665093  0.360123  1.0
  C  C4977  1  0.862967  0.197873  0.360123  1.0
  C  C4978  1  0.864540  0.196300  0.473210  1.0
  C  C4979  1  0.331760  0.135460  0.473210  1.0
  C  C4980  1  0.803700  0.668240  0.473210  1.0
  C  C4981  1  0.197873  0.862967  0.139877  1.0
  C  C4982  1  0.665093  0.802127  0.139877  1.0
  C  C4983  1  0.137033  0.334907  0.139877  1.0
  C  C4984  1  0.531207  0.529633  0.806543  1.0
  C  C4985  1  0.998427  0.468793  0.806543  1.0
  C  C4986  1  0.470367  0.001573  0.806543  1.0
  C  C4987  1  0.331760  0.196300  0.973210  1.0
  C  C4988  1  0.864540  0.668240  0.973210  1.0
  C  C4989  1  0.803700  0.135460  0.973210  1.0
  C  C4990  1  0.998427  0.529633  0.306543  1.0
  C  C4991  1  0.531207  0.001573  0.306543  1.0
  C  C4992  1  0.470367  0.468793  0.306543  1.0
  C  C4993  1  0.665093  0.862967  0.639877  1.0
  C  C4994  1  0.197873  0.334907  0.639877  1.0
  C  C4995  1  0.137033  0.802127  0.639877  1.0
  C  C4996  1  0.135460  0.803700  0.526790  1.0
  C  C4997  1  0.668240  0.864540  0.526790  1.0
  C  C4998  1  0.196300  0.331760  0.526790  1.0
  C  C4999  1  0.802127  0.137033  0.860123  1.0
  C  C5000  1  0.334907  0.197873  0.860123  1.0
  C  C5001  1  0.862967  0.665093  0.860123  1.0
  C  C5002  1  0.468793  0.470367  0.193457  1.0
  C  C5003  1  0.001573  0.531207  0.193457  1.0
  C  C5004  1  0.529633  0.998427  0.193457  1.0
  C  C5005  1  0.624600  0.781300  0.035710  1.0
  C  C5006  1  0.156700  0.375400  0.035710  1.0
  C  C5007  1  0.218700  0.843300  0.035710  1.0
  C  C5008  1  0.957933  0.447967  0.702377  1.0
  C  C5009  1  0.490033  0.042067  0.702377  1.0
  C  C5010  1  0.552033  0.509967  0.702377  1.0
  C  C5011  1  0.291267  0.114633  0.369043  1.0
  C  C5012  1  0.823367  0.708733  0.369043  1.0
  C  C5013  1  0.885367  0.176633  0.369043  1.0
  C  C5014  1  0.843300  0.218700  0.464290  1.0
  C  C5015  1  0.375400  0.156700  0.464290  1.0
  C  C5016  1  0.781300  0.624600  0.464290  1.0
  C  C5017  1  0.176633  0.885367  0.130957  1.0
  C  C5018  1  0.708733  0.823367  0.130957  1.0
  C  C5019  1  0.114633  0.291267  0.130957  1.0
  C  C5020  1  0.509967  0.552033  0.797623  1.0
  C  C5021  1  0.042067  0.490033  0.797623  1.0
  C  C5022  1  0.447967  0.957933  0.797623  1.0
  C  C5023  1  0.375400  0.218700  0.964290  1.0
  C  C5024  1  0.843300  0.624600  0.964290  1.0
  C  C5025  1  0.781300  0.156700  0.964290  1.0
  C  C5026  1  0.042067  0.552033  0.297623  1.0
  C  C5027  1  0.509967  0.957933  0.297623  1.0
  C  C5028  1  0.447967  0.490033  0.297623  1.0
  C  C5029  1  0.708733  0.885367  0.630957  1.0
  C  C5030  1  0.176633  0.291267  0.630957  1.0
  C  C5031  1  0.114633  0.823367  0.630957  1.0
  C  C5032  1  0.156700  0.781300  0.535710  1.0
  C  C5033  1  0.624600  0.843300  0.535710  1.0
  C  C5034  1  0.218700  0.375400  0.535710  1.0
  C  C5035  1  0.823367  0.114633  0.869043  1.0
  C  C5036  1  0.291267  0.176633  0.869043  1.0
  C  C5037  1  0.885367  0.708733  0.869043  1.0
  C  C5038  1  0.490033  0.447967  0.202377  1.0
  C  C5039  1  0.957933  0.509967  0.202377  1.0
  C  C5040  1  0.552033  0.042067  0.202377  1.0
  C  C5041  1  0.624400  0.798700  0.052140  1.0
  C  C5042  1  0.174300  0.375600  0.052140  1.0
  C  C5043  1  0.201300  0.825700  0.052140  1.0
  C  C5044  1  0.957733  0.465367  0.718807  1.0
  C  C5045  1  0.507633  0.042267  0.718807  1.0
  C  C5046  1  0.534633  0.492367  0.718807  1.0
  C  C5047  1  0.291067  0.132033  0.385473  1.0
  C  C5048  1  0.840967  0.708933  0.385473  1.0
  C  C5049  1  0.867967  0.159033  0.385473  1.0
  C  C5050  1  0.825700  0.201300  0.447860  1.0
  C  C5051  1  0.375600  0.174300  0.447860  1.0
  C  C5052  1  0.798700  0.624400  0.447860  1.0
  C  C5053  1  0.159033  0.867967  0.114527  1.0
  C  C5054  1  0.708933  0.840967  0.114527  1.0
  C  C5055  1  0.132033  0.291067  0.114527  1.0
  C  C5056  1  0.492367  0.534633  0.781193  1.0
  C  C5057  1  0.042267  0.507633  0.781193  1.0
  C  C5058  1  0.465367  0.957733  0.781193  1.0
  C  C5059  1  0.375600  0.201300  0.947860  1.0
  C  C5060  1  0.825700  0.624400  0.947860  1.0
  C  C5061  1  0.798700  0.174300  0.947860  1.0
  C  C5062  1  0.042267  0.534633  0.281193  1.0
  C  C5063  1  0.492367  0.957733  0.281193  1.0
  C  C5064  1  0.465367  0.507633  0.281193  1.0
  C  C5065  1  0.708933  0.867967  0.614527  1.0
  C  C5066  1  0.159033  0.291067  0.614527  1.0
  C  C5067  1  0.132033  0.840967  0.614527  1.0
  C  C5068  1  0.174300  0.798700  0.552140  1.0
  C  C5069  1  0.624400  0.825700  0.552140  1.0
  C  C5070  1  0.201300  0.375600  0.552140  1.0
  C  C5071  1  0.840967  0.132033  0.885473  1.0
  C  C5072  1  0.291067  0.159033  0.885473  1.0
  C  C5073  1  0.867967  0.708933  0.885473  1.0
  C  C5074  1  0.507633  0.465367  0.218807  1.0
  C  C5075  1  0.957733  0.492367  0.218807  1.0
  C  C5076  1  0.534633  0.042267  0.218807  1.0
  C  C5077  1  0.663200  0.836800  0.058770  1.0
  C  C5078  1  0.173600  0.336800  0.058770  1.0
  C  C5079  1  0.163200  0.826400  0.058770  1.0
  C  C5080  1  0.996533  0.503467  0.725437  1.0
  C  C5081  1  0.506933  0.003467  0.725437  1.0
  C  C5082  1  0.496533  0.493067  0.725437  1.0
  C  C5083  1  0.329867  0.170133  0.392103  1.0
  C  C5084  1  0.840267  0.670133  0.392103  1.0
  C  C5085  1  0.829867  0.159733  0.392103  1.0
  C  C5086  1  0.826400  0.163200  0.441230  1.0
  C  C5087  1  0.336800  0.173600  0.441230  1.0
  C  C5088  1  0.836800  0.663200  0.441230  1.0
  C  C5089  1  0.159733  0.829867  0.107897  1.0
  C  C5090  1  0.670133  0.840267  0.107897  1.0
  C  C5091  1  0.170133  0.329867  0.107897  1.0
  C  C5092  1  0.493067  0.496533  0.774563  1.0
  C  C5093  1  0.003467  0.506933  0.774563  1.0
  C  C5094  1  0.503467  0.996533  0.774563  1.0
  C  C5095  1  0.336800  0.163200  0.941230  1.0
  C  C5096  1  0.826400  0.663200  0.941230  1.0
  C  C5097  1  0.836800  0.173600  0.941230  1.0
  C  C5098  1  0.003467  0.496533  0.274563  1.0
  C  C5099  1  0.493067  0.996533  0.274563  1.0
  C  C5100  1  0.503467  0.506933  0.274563  1.0
  C  C5101  1  0.670133  0.829867  0.607897  1.0
  C  C5102  1  0.159733  0.329867  0.607897  1.0
  C  C5103  1  0.170133  0.840267  0.607897  1.0
  C  C5104  1  0.173600  0.836800  0.558770  1.0
  C  C5105  1  0.663200  0.826400  0.558770  1.0
  C  C5106  1  0.163200  0.336800  0.558770  1.0
  C  C5107  1  0.840267  0.170133  0.892103  1.0
  C  C5108  1  0.329867  0.159733  0.892103  1.0
  C  C5109  1  0.829867  0.670133  0.892103  1.0
  C  C5110  1  0.506933  0.503467  0.225437  1.0
  C  C5111  1  0.996533  0.493067  0.225437  1.0
  C  C5112  1  0.496533  0.003467  0.225437  1.0
  C  C5113  1  0.705830  0.858800  0.049940  1.0
  C  C5114  1  0.152970  0.294170  0.049940  1.0
  C  C5115  1  0.141200  0.847030  0.049940  1.0
  C  C5116  1  0.039163  0.525467  0.716607  1.0
  C  C5117  1  0.486303  0.960837  0.716607  1.0
  C  C5118  1  0.474533  0.513697  0.716607  1.0
  C  C5119  1  0.372497  0.192133  0.383273  1.0
  C  C5120  1  0.819637  0.627503  0.383273  1.0
  C  C5121  1  0.807867  0.180363  0.383273  1.0
  C  C5122  1  0.847030  0.141200  0.450060  1.0
  C  C5123  1  0.294170  0.152970  0.450060  1.0
  C  C5124  1  0.858800  0.705830  0.450060  1.0
  C  C5125  1  0.180363  0.807867  0.116727  1.0
  C  C5126  1  0.627503  0.819637  0.116727  1.0
  C  C5127  1  0.192133  0.372497  0.116727  1.0
  C  C5128  1  0.513697  0.474533  0.783393  1.0
  C  C5129  1  0.960837  0.486303  0.783393  1.0
  C  C5130  1  0.525467  0.039163  0.783393  1.0
  C  C5131  1  0.294170  0.141200  0.950060  1.0
  C  C5132  1  0.847030  0.705830  0.950060  1.0
  C  C5133  1  0.858800  0.152970  0.950060  1.0
  C  C5134  1  0.960837  0.474533  0.283393  1.0
  C  C5135  1  0.513697  0.039163  0.283393  1.0
  C  C5136  1  0.525467  0.486303  0.283393  1.0
  C  C5137  1  0.627503  0.807867  0.616727  1.0
  C  C5138  1  0.180363  0.372497  0.616727  1.0
  C  C5139  1  0.192133  0.819637  0.616727  1.0
  C  C5140  1  0.152970  0.858800  0.549940  1.0
  C  C5141  1  0.705830  0.847030  0.549940  1.0
  C  C5142  1  0.141200  0.294170  0.549940  1.0
  C  C5143  1  0.819637  0.192133  0.883273  1.0
  C  C5144  1  0.372497  0.180363  0.883273  1.0
  C  C5145  1  0.807867  0.627503  0.883273  1.0
  C  C5146  1  0.486303  0.525467  0.216607  1.0
  C  C5147  1  0.039163  0.513697  0.216607  1.0
  C  C5148  1  0.474533  0.960837  0.216607  1.0
  C  C5149  1  0.708520  0.842060  0.034070  1.0
  C  C5150  1  0.133540  0.291480  0.034070  1.0
  C  C5151  1  0.157940  0.866460  0.034070  1.0
  C  C5152  1  0.041853  0.508727  0.700737  1.0
  C  C5153  1  0.466873  0.958147  0.700737  1.0
  C  C5154  1  0.491273  0.533127  0.700737  1.0
  C  C5155  1  0.375187  0.175393  0.367403  1.0
  C  C5156  1  0.800207  0.624813  0.367403  1.0
  C  C5157  1  0.824607  0.199793  0.367403  1.0
  C  C5158  1  0.866460  0.157940  0.465930  1.0
  C  C5159  1  0.291480  0.133540  0.465930  1.0
  C  C5160  1  0.842060  0.708520  0.465930  1.0
  C  C5161  1  0.199793  0.824607  0.132597  1.0
  C  C5162  1  0.624813  0.800207  0.132597  1.0
  C  C5163  1  0.175393  0.375187  0.132597  1.0
  C  C5164  1  0.533127  0.491273  0.799263  1.0
  C  C5165  1  0.958147  0.466873  0.799263  1.0
  C  C5166  1  0.508727  0.041853  0.799263  1.0
  C  C5167  1  0.291480  0.157940  0.965930  1.0
  C  C5168  1  0.866460  0.708520  0.965930  1.0
  C  C5169  1  0.842060  0.133540  0.965930  1.0
  C  C5170  1  0.958147  0.491273  0.299263  1.0
  C  C5171  1  0.533127  0.041853  0.299263  1.0
  C  C5172  1  0.508727  0.466873  0.299263  1.0
  C  C5173  1  0.624813  0.824607  0.632597  1.0
  C  C5174  1  0.199793  0.375187  0.632597  1.0
  C  C5175  1  0.175393  0.800207  0.632597  1.0
  C  C5176  1  0.133540  0.842060  0.534070  1.0
  C  C5177  1  0.708520  0.866460  0.534070  1.0
  C  C5178  1  0.157940  0.291480  0.534070  1.0
  C  C5179  1  0.800207  0.175393  0.867403  1.0
  C  C5180  1  0.375187  0.199793  0.867403  1.0
  C  C5181  1  0.824607  0.624813  0.867403  1.0
  C  C5182  1  0.466873  0.508727  0.200737  1.0
  C  C5183  1  0.041853  0.533127  0.200737  1.0
  C  C5184  1  0.491273  0.958147  0.200737  1.0
  C  C5185  1  0.748770  0.900710  0.057110  1.0
  C  C5186  1  0.151940  0.251230  0.057110  1.0
  C  C5187  1  0.099290  0.848060  0.057110  1.0
  C  C5188  1  0.082103  0.567377  0.723777  1.0
  C  C5189  1  0.485273  0.917897  0.723777  1.0
  C  C5190  1  0.432623  0.514727  0.723777  1.0
  C  C5191  1  0.415437  0.234043  0.390443  1.0
  C  C5192  1  0.818607  0.584563  0.390443  1.0
  C  C5193  1  0.765957  0.181393  0.390443  1.0
  C  C5194  1  0.848060  0.099290  0.442890  1.0
  C  C5195  1  0.251230  0.151940  0.442890  1.0
  C  C5196  1  0.900710  0.748770  0.442890  1.0
  C  C5197  1  0.181393  0.765957  0.109557  1.0
  C  C5198  1  0.584563  0.818607  0.109557  1.0
  C  C5199  1  0.234043  0.415437  0.109557  1.0
  C  C5200  1  0.514727  0.432623  0.776223  1.0
  C  C5201  1  0.917897  0.485273  0.776223  1.0
  C  C5202  1  0.567377  0.082103  0.776223  1.0
  C  C5203  1  0.251230  0.099290  0.942890  1.0
  C  C5204  1  0.848060  0.748770  0.942890  1.0
  C  C5205  1  0.900710  0.151940  0.942890  1.0
  C  C5206  1  0.917897  0.432623  0.276223  1.0
  C  C5207  1  0.514727  0.082103  0.276223  1.0
  C  C5208  1  0.567377  0.485273  0.276223  1.0
  C  C5209  1  0.584563  0.765957  0.609557  1.0
  C  C5210  1  0.181393  0.415437  0.609557  1.0
  C  C5211  1  0.234043  0.818607  0.609557  1.0
  C  C5212  1  0.151940  0.900710  0.557110  1.0
  C  C5213  1  0.748770  0.848060  0.557110  1.0
  C  C5214  1  0.099290  0.251230  0.557110  1.0
  C  C5215  1  0.818607  0.234043  0.890443  1.0
  C  C5216  1  0.415437  0.181393  0.890443  1.0
  C  C5217  1  0.765957  0.584563  0.890443  1.0
  C  C5218  1  0.485273  0.567377  0.223777  1.0
  C  C5219  1  0.082103  0.514727  0.223777  1.0
  C  C5220  1  0.432623  0.917897  0.223777  1.0
  C  C5221  1  0.930120  0.848460  0.917930  1.0
  C  C5222  1  0.918340  0.069880  0.917930  1.0
  C  C5223  1  0.151540  0.081660  0.917930  1.0
  C  C5224  1  0.263453  0.515127  0.584597  1.0
  C  C5225  1  0.251673  0.736547  0.584597  1.0
  C  C5226  1  0.484873  0.748327  0.584597  1.0
  C  C5227  1  0.596787  0.181793  0.251263  1.0
  C  C5228  1  0.585007  0.403213  0.251263  1.0
  C  C5229  1  0.818207  0.414993  0.251263  1.0
  C  C5230  1  0.081660  0.151540  0.582070  1.0
  C  C5231  1  0.069880  0.918340  0.582070  1.0
  C  C5232  1  0.848460  0.930120  0.582070  1.0
  C  C5233  1  0.414993  0.818207  0.248737  1.0
  C  C5234  1  0.403213  0.585007  0.248737  1.0
  C  C5235  1  0.181793  0.596787  0.248737  1.0
  C  C5236  1  0.748327  0.484873  0.915403  1.0
  C  C5237  1  0.736547  0.251673  0.915403  1.0
  C  C5238  1  0.515127  0.263453  0.915403  1.0
  C  C5239  1  0.069880  0.151540  0.082070  1.0
  C  C5240  1  0.081660  0.930120  0.082070  1.0
  C  C5241  1  0.848460  0.918340  0.082070  1.0
  C  C5242  1  0.736547  0.484873  0.415403  1.0
  C  C5243  1  0.748327  0.263453  0.415403  1.0
  C  C5244  1  0.515127  0.251673  0.415403  1.0
  C  C5245  1  0.403213  0.818207  0.748737  1.0
  C  C5246  1  0.414993  0.596787  0.748737  1.0
  C  C5247  1  0.181793  0.585007  0.748737  1.0
  C  C5248  1  0.918340  0.848460  0.417930  1.0
  C  C5249  1  0.930120  0.081660  0.417930  1.0
  C  C5250  1  0.151540  0.069880  0.417930  1.0
  C  C5251  1  0.585007  0.181793  0.751263  1.0
  C  C5252  1  0.596787  0.414993  0.751263  1.0
  C  C5253  1  0.818207  0.403213  0.751263  1.0
  C  C5254  1  0.251673  0.515127  0.084597  1.0
  C  C5255  1  0.263453  0.748327  0.084597  1.0
  C  C5256  1  0.484873  0.736547  0.084597  1.0
  C  C5257  1  0.977730  0.864350  0.909670  1.0
  C  C5258  1  0.886620  0.022270  0.909670  1.0
  C  C5259  1  0.135650  0.113380  0.909670  1.0
  C  C5260  1  0.311063  0.531017  0.576337  1.0
  C  C5261  1  0.219953  0.688937  0.576337  1.0
  C  C5262  1  0.468983  0.780047  0.576337  1.0
  C  C5263  1  0.644397  0.197683  0.243003  1.0
  C  C5264  1  0.553287  0.355603  0.243003  1.0
  C  C5265  1  0.802317  0.446713  0.243003  1.0
  C  C5266  1  0.113380  0.135650  0.590330  1.0
  C  C5267  1  0.022270  0.886620  0.590330  1.0
  C  C5268  1  0.864350  0.977730  0.590330  1.0
  C  C5269  1  0.446713  0.802317  0.256997  1.0
  C  C5270  1  0.355603  0.553287  0.256997  1.0
  C  C5271  1  0.197683  0.644397  0.256997  1.0
  C  C5272  1  0.780047  0.468983  0.923663  1.0
  C  C5273  1  0.688937  0.219953  0.923663  1.0
  C  C5274  1  0.531017  0.311063  0.923663  1.0
  C  C5275  1  0.022270  0.135650  0.090330  1.0
  C  C5276  1  0.113380  0.977730  0.090330  1.0
  C  C5277  1  0.864350  0.886620  0.090330  1.0
  C  C5278  1  0.688937  0.468983  0.423663  1.0
  C  C5279  1  0.780047  0.311063  0.423663  1.0
  C  C5280  1  0.531017  0.219953  0.423663  1.0
  C  C5281  1  0.355603  0.802317  0.756997  1.0
  C  C5282  1  0.446713  0.644397  0.756997  1.0
  C  C5283  1  0.197683  0.553287  0.756997  1.0
  C  C5284  1  0.886620  0.864350  0.409670  1.0
  C  C5285  1  0.977730  0.113380  0.409670  1.0
  C  C5286  1  0.135650  0.022270  0.409670  1.0
  C  C5287  1  0.553287  0.197683  0.743003  1.0
  C  C5288  1  0.644397  0.446713  0.743003  1.0
  C  C5289  1  0.802317  0.355603  0.743003  1.0
  C  C5290  1  0.219953  0.531017  0.076337  1.0
  C  C5291  1  0.311063  0.780047  0.076337  1.0
  C  C5292  1  0.468983  0.688937  0.076337  1.0
  C  C5293  1  0.982500  0.840760  0.895720  1.0
  C  C5294  1  0.858260  0.017500  0.895720  1.0
  C  C5295  1  0.159240  0.141740  0.895720  1.0
  C  C5296  1  0.315833  0.507427  0.562387  1.0
  C  C5297  1  0.191593  0.684167  0.562387  1.0
  C  C5298  1  0.492573  0.808407  0.562387  1.0
  C  C5299  1  0.649167  0.174093  0.229053  1.0
  C  C5300  1  0.524927  0.350833  0.229053  1.0
  C  C5301  1  0.825907  0.475073  0.229053  1.0
  C  C5302  1  0.141740  0.159240  0.604280  1.0
  C  C5303  1  0.017500  0.858260  0.604280  1.0
  C  C5304  1  0.840760  0.982500  0.604280  1.0
  C  C5305  1  0.475073  0.825907  0.270947  1.0
  C  C5306  1  0.350833  0.524927  0.270947  1.0
  C  C5307  1  0.174093  0.649167  0.270947  1.0
  C  C5308  1  0.808407  0.492573  0.937613  1.0
  C  C5309  1  0.684167  0.191593  0.937613  1.0
  C  C5310  1  0.507427  0.315833  0.937613  1.0
  C  C5311  1  0.017500  0.159240  0.104280  1.0
  C  C5312  1  0.141740  0.982500  0.104280  1.0
  C  C5313  1  0.840760  0.858260  0.104280  1.0
  C  C5314  1  0.684167  0.492573  0.437613  1.0
  C  C5315  1  0.808407  0.315833  0.437613  1.0
  C  C5316  1  0.507427  0.191593  0.437613  1.0
  C  C5317  1  0.350833  0.825907  0.770947  1.0
  C  C5318  1  0.475073  0.649167  0.770947  1.0
  C  C5319  1  0.174093  0.524927  0.770947  1.0
  C  C5320  1  0.858260  0.840760  0.395720  1.0
  C  C5321  1  0.982500  0.141740  0.395720  1.0
  C  C5322  1  0.159240  0.017500  0.395720  1.0
  C  C5323  1  0.524927  0.174093  0.729053  1.0
  C  C5324  1  0.649167  0.475073  0.729053  1.0
  C  C5325  1  0.825907  0.350833  0.729053  1.0
  C  C5326  1  0.191593  0.507427  0.062387  1.0
  C  C5327  1  0.315833  0.808407  0.062387  1.0
  C  C5328  1  0.492573  0.684167  0.062387  1.0
  C  C5329  1  0.026100  0.854820  0.888930  1.0
  C  C5330  1  0.828720  0.973900  0.888930  1.0
  C  C5331  1  0.145180  0.171280  0.888930  1.0
  C  C5332  1  0.359433  0.521487  0.555597  1.0
  C  C5333  1  0.162053  0.640567  0.555597  1.0
  C  C5334  1  0.478513  0.837947  0.555597  1.0
  C  C5335  1  0.692767  0.188153  0.222263  1.0
  C  C5336  1  0.495387  0.307233  0.222263  1.0
  C  C5337  1  0.811847  0.504613  0.222263  1.0
  C  C5338  1  0.171280  0.145180  0.611070  1.0
  C  C5339  1  0.973900  0.828720  0.611070  1.0
  C  C5340  1  0.854820  0.026100  0.611070  1.0
  C  C5341  1  0.504613  0.811847  0.277737  1.0
  C  C5342  1  0.307233  0.495387  0.277737  1.0
  C  C5343  1  0.188153  0.692767  0.277737  1.0
  C  C5344  1  0.837947  0.478513  0.944403  1.0
  C  C5345  1  0.640567  0.162053  0.944403  1.0
  C  C5346  1  0.521487  0.359433  0.944403  1.0
  C  C5347  1  0.973900  0.145180  0.111070  1.0
  C  C5348  1  0.171280  0.026100  0.111070  1.0
  C  C5349  1  0.854820  0.828720  0.111070  1.0
  C  C5350  1  0.640567  0.478513  0.444403  1.0
  C  C5351  1  0.837947  0.359433  0.444403  1.0
  C  C5352  1  0.521487  0.162053  0.444403  1.0
  C  C5353  1  0.307233  0.811847  0.777737  1.0
  C  C5354  1  0.504613  0.692767  0.777737  1.0
  C  C5355  1  0.188153  0.495387  0.777737  1.0
  C  C5356  1  0.828720  0.854820  0.388930  1.0
  C  C5357  1  0.026100  0.171280  0.388930  1.0
  C  C5358  1  0.145180  0.973900  0.388930  1.0
  C  C5359  1  0.495387  0.188153  0.722263  1.0
  C  C5360  1  0.692767  0.504613  0.722263  1.0
  C  C5361  1  0.811847  0.307233  0.722263  1.0
  C  C5362  1  0.162053  0.521487  0.055597  1.0
  C  C5363  1  0.359433  0.837947  0.055597  1.0
  C  C5364  1  0.478513  0.640567  0.055597  1.0
  C  C5365  1  0.066350  0.893020  0.895460  1.0
  C  C5366  1  0.826670  0.933650  0.895460  1.0
  C  C5367  1  0.106980  0.173330  0.895460  1.0
  C  C5368  1  0.399683  0.559687  0.562127  1.0
  C  C5369  1  0.160003  0.600317  0.562127  1.0
  C  C5370  1  0.440313  0.839997  0.562127  1.0
  C  C5371  1  0.733017  0.226353  0.228793  1.0
  C  C5372  1  0.493337  0.266983  0.228793  1.0
  C  C5373  1  0.773647  0.506663  0.228793  1.0
  C  C5374  1  0.173330  0.106980  0.604540  1.0
  C  C5375  1  0.933650  0.826670  0.604540  1.0
  C  C5376  1  0.893020  0.066350  0.604540  1.0
  C  C5377  1  0.506663  0.773647  0.271207  1.0
  C  C5378  1  0.266983  0.493337  0.271207  1.0
  C  C5379  1  0.226353  0.733017  0.271207  1.0
  C  C5380  1  0.839997  0.440313  0.937873  1.0
  C  C5381  1  0.600317  0.160003  0.937873  1.0
  C  C5382  1  0.559687  0.399683  0.937873  1.0
  C  C5383  1  0.933650  0.106980  0.104540  1.0
  C  C5384  1  0.173330  0.066350  0.104540  1.0
  C  C5385  1  0.893020  0.826670  0.104540  1.0
  C  C5386  1  0.600317  0.440313  0.437873  1.0
  C  C5387  1  0.839997  0.399683  0.437873  1.0
  C  C5388  1  0.559687  0.160003  0.437873  1.0
  C  C5389  1  0.266983  0.773647  0.771207  1.0
  C  C5390  1  0.506663  0.733017  0.771207  1.0
  C  C5391  1  0.226353  0.493337  0.771207  1.0
  C  C5392  1  0.826670  0.893020  0.395460  1.0
  C  C5393  1  0.066350  0.173330  0.395460  1.0
  C  C5394  1  0.106980  0.933650  0.395460  1.0
  C  C5395  1  0.493337  0.226353  0.728793  1.0
  C  C5396  1  0.733017  0.506663  0.728793  1.0
  C  C5397  1  0.773647  0.266983  0.728793  1.0
  C  C5398  1  0.160003  0.559687  0.062127  1.0
  C  C5399  1  0.399683  0.839997  0.062127  1.0
  C  C5400  1  0.440313  0.600317  0.062127  1.0
  C  C5401  1  0.062620  0.916680  0.909470  1.0
  C  C5402  1  0.854060  0.937380  0.909470  1.0
  C  C5403  1  0.083320  0.145940  0.909470  1.0
  C  C5404  1  0.395953  0.583347  0.576137  1.0
  C  C5405  1  0.187393  0.604047  0.576137  1.0
  C  C5406  1  0.416653  0.812607  0.576137  1.0
  C  C5407  1  0.729287  0.250013  0.242803  1.0
  C  C5408  1  0.520727  0.270713  0.242803  1.0
  C  C5409  1  0.749987  0.479273  0.242803  1.0
  C  C5410  1  0.145940  0.083320  0.590530  1.0
  C  C5411  1  0.937380  0.854060  0.590530  1.0
  C  C5412  1  0.916680  0.062620  0.590530  1.0
  C  C5413  1  0.479273  0.749987  0.257197  1.0
  C  C5414  1  0.270713  0.520727  0.257197  1.0
  C  C5415  1  0.250013  0.729287  0.257197  1.0
  C  C5416  1  0.812607  0.416653  0.923863  1.0
  C  C5417  1  0.604047  0.187393  0.923863  1.0
  C  C5418  1  0.583347  0.395953  0.923863  1.0
  C  C5419  1  0.937380  0.083320  0.090530  1.0
  C  C5420  1  0.145940  0.062620  0.090530  1.0
  C  C5421  1  0.916680  0.854060  0.090530  1.0
  C  C5422  1  0.604047  0.416653  0.423863  1.0
  C  C5423  1  0.812607  0.395953  0.423863  1.0
  C  C5424  1  0.583347  0.187393  0.423863  1.0
  C  C5425  1  0.270713  0.749987  0.757197  1.0
  C  C5426  1  0.479273  0.729287  0.757197  1.0
  C  C5427  1  0.250013  0.520727  0.757197  1.0
  C  C5428  1  0.854060  0.916680  0.409470  1.0
  C  C5429  1  0.062620  0.145940  0.409470  1.0
  C  C5430  1  0.083320  0.937380  0.409470  1.0
  C  C5431  1  0.520727  0.250013  0.742803  1.0
  C  C5432  1  0.729287  0.479273  0.742803  1.0
  C  C5433  1  0.749987  0.270713  0.742803  1.0
  C  C5434  1  0.187393  0.583347  0.076137  1.0
  C  C5435  1  0.395953  0.812607  0.076137  1.0
  C  C5436  1  0.416653  0.604047  0.076137  1.0
  C  C5437  1  0.019670  0.902480  0.916490  1.0
  C  C5438  1  0.882810  0.980330  0.916490  1.0
  C  C5439  1  0.097520  0.117190  0.916490  1.0
  C  C5440  1  0.353003  0.569147  0.583157  1.0
  C  C5441  1  0.216143  0.646997  0.583157  1.0
  C  C5442  1  0.430853  0.783857  0.583157  1.0
  C  C5443  1  0.686337  0.235813  0.249823  1.0
  C  C5444  1  0.549477  0.313663  0.249823  1.0
  C  C5445  1  0.764187  0.450523  0.249823  1.0
  C  C5446  1  0.117190  0.097520  0.583510  1.0
  C  C5447  1  0.980330  0.882810  0.583510  1.0
  C  C5448  1  0.902480  0.019670  0.583510  1.0
  C  C5449  1  0.450523  0.764187  0.250177  1.0
  C  C5450  1  0.313663  0.549477  0.250177  1.0
  C  C5451  1  0.235813  0.686337  0.250177  1.0
  C  C5452  1  0.783857  0.430853  0.916843  1.0
  C  C5453  1  0.646997  0.216143  0.916843  1.0
  C  C5454  1  0.569147  0.353003  0.916843  1.0
  C  C5455  1  0.980330  0.097520  0.083510  1.0
  C  C5456  1  0.117190  0.019670  0.083510  1.0
  C  C5457  1  0.902480  0.882810  0.083510  1.0
  C  C5458  1  0.646997  0.430853  0.416843  1.0
  C  C5459  1  0.783857  0.353003  0.416843  1.0
  C  C5460  1  0.569147  0.216143  0.416843  1.0
  C  C5461  1  0.313663  0.764187  0.750177  1.0
  C  C5462  1  0.450523  0.686337  0.750177  1.0
  C  C5463  1  0.235813  0.549477  0.750177  1.0
  C  C5464  1  0.882810  0.902480  0.416490  1.0
  C  C5465  1  0.019670  0.117190  0.416490  1.0
  C  C5466  1  0.097520  0.980330  0.416490  1.0
  C  C5467  1  0.549477  0.235813  0.749823  1.0
  C  C5468  1  0.686337  0.450523  0.749823  1.0
  C  C5469  1  0.764187  0.313663  0.749823  1.0
  C  C5470  1  0.216143  0.569147  0.083157  1.0
  C  C5471  1  0.353003  0.783857  0.083157  1.0
  C  C5472  1  0.430853  0.646997  0.083157  1.0
  C  C5473  1  0.106420  0.957570  0.917320  1.0
  C  C5474  1  0.851150  0.893580  0.917320  1.0
  C  C5475  1  0.042430  0.148850  0.917320  1.0
  C  C5476  1  0.439753  0.624237  0.583987  1.0
  C  C5477  1  0.184483  0.560247  0.583987  1.0
  C  C5478  1  0.375763  0.815517  0.583987  1.0
  C  C5479  1  0.773087  0.290903  0.250653  1.0
  C  C5480  1  0.517817  0.226913  0.250653  1.0
  C  C5481  1  0.709097  0.482183  0.250653  1.0
  C  C5482  1  0.148850  0.042430  0.582680  1.0
  C  C5483  1  0.893580  0.851150  0.582680  1.0
  C  C5484  1  0.957570  0.106420  0.582680  1.0
  C  C5485  1  0.482183  0.709097  0.249347  1.0
  C  C5486  1  0.226913  0.517817  0.249347  1.0
  C  C5487  1  0.290903  0.773087  0.249347  1.0
  C  C5488  1  0.815517  0.375763  0.916013  1.0
  C  C5489  1  0.560247  0.184483  0.916013  1.0
  C  C5490  1  0.624237  0.439753  0.916013  1.0
  C  C5491  1  0.893580  0.042430  0.082680  1.0
  C  C5492  1  0.148850  0.106420  0.082680  1.0
  C  C5493  1  0.957570  0.851150  0.082680  1.0
  C  C5494  1  0.560247  0.375763  0.416013  1.0
  C  C5495  1  0.815517  0.439753  0.416013  1.0
  C  C5496  1  0.624237  0.184483  0.416013  1.0
  C  C5497  1  0.226913  0.709097  0.749347  1.0
  C  C5498  1  0.482183  0.773087  0.749347  1.0
  C  C5499  1  0.290903  0.517817  0.749347  1.0
  C  C5500  1  0.851150  0.957570  0.417320  1.0
  C  C5501  1  0.106420  0.148850  0.417320  1.0
  C  C5502  1  0.042430  0.893580  0.417320  1.0
  C  C5503  1  0.517817  0.290903  0.750653  1.0
  C  C5504  1  0.773087  0.482183  0.750653  1.0
  C  C5505  1  0.709097  0.226913  0.750653  1.0
  C  C5506  1  0.184483  0.624237  0.083987  1.0
  C  C5507  1  0.439753  0.815517  0.083987  1.0
  C  C5508  1  0.375763  0.560247  0.083987  1.0
  N  N5509  1  0.995500  0.648700  0.872300  1
  N  N5510  1  0.653200  0.004500  0.872300  1
  N  N5511  1  0.351300  0.346800  0.872300  1
  N  N5512  1  0.328833  0.315367  0.538967  1
  N  N5513  1  0.986533  0.671167  0.538967  1
  N  N5514  1  0.684633  0.013467  0.538967  1
  N  N5515  1  0.662167  0.982033  0.205633  1
  N  N5516  1  0.319867  0.337833  0.205633  1
  N  N5517  1  0.017967  0.680133  0.205633  1
  N  N5518  1  0.346800  0.351300  0.627700  1
  N  N5519  1  0.004500  0.653200  0.627700  1
  N  N5520  1  0.648700  0.995500  0.627700  1
  N  N5521  1  0.680133  0.017967  0.294367  1
  N  N5522  1  0.337833  0.319867  0.294367  1
  N  N5523  1  0.982033  0.662167  0.294367  1
  N  N5524  1  0.013467  0.684633  0.961033  1
  N  N5525  1  0.671167  0.986533  0.961033  1
  N  N5526  1  0.315367  0.328833  0.961033  1
  N  N5527  1  0.004500  0.351300  0.127700  1
  N  N5528  1  0.346800  0.995500  0.127700  1
  N  N5529  1  0.648700  0.653200  0.127700  1
  N  N5530  1  0.671167  0.684633  0.461033  1
  N  N5531  1  0.013467  0.328833  0.461033  1
  N  N5532  1  0.315367  0.986533  0.461033  1
  N  N5533  1  0.337833  0.017967  0.794367  1
  N  N5534  1  0.680133  0.662167  0.794367  1
  N  N5535  1  0.982033  0.319867  0.794367  1
  N  N5536  1  0.653200  0.648700  0.372300  1
  N  N5537  1  0.995500  0.346800  0.372300  1
  N  N5538  1  0.351300  0.004500  0.372300  1
  N  N5539  1  0.319867  0.982033  0.705633  1
  N  N5540  1  0.662167  0.680133  0.705633  1
  N  N5541  1  0.017967  0.337833  0.705633  1
  N  N5542  1  0.986533  0.315367  0.038967  1
  N  N5543  1  0.328833  0.013467  0.038967  1
  N  N5544  1  0.684633  0.671167  0.038967  1
  N  N5545  1  0.033500  0.866500  0.807280  1
  N  N5546  1  0.833000  0.966500  0.807280  1
  N  N5547  1  0.133500  0.167000  0.807280  1
  N  N5548  1  0.366833  0.533167  0.473947  1
  N  N5549  1  0.166333  0.633167  0.473947  1
  N  N5550  1  0.466833  0.833667  0.473947  1
  N  N5551  1  0.700167  0.199833  0.140613  1
  N  N5552  1  0.499667  0.299833  0.140613  1
  N  N5553  1  0.800167  0.500333  0.140613  1
  N  N5554  1  0.167000  0.133500  0.692720  1
  N  N5555  1  0.966500  0.833000  0.692720  1
  N  N5556  1  0.866500  0.033500  0.692720  1
  N  N5557  1  0.500333  0.800167  0.359387  1
  N  N5558  1  0.299833  0.499667  0.359387  1
  N  N5559  1  0.199833  0.700167  0.359387  1
  N  N5560  1  0.833667  0.466833  0.026053  1
  N  N5561  1  0.633167  0.166333  0.026053  1
  N  N5562  1  0.533167  0.366833  0.026053  1
  N  N5563  1  0.966500  0.133500  0.192720  1
  N  N5564  1  0.167000  0.033500  0.192720  1
  N  N5565  1  0.866500  0.833000  0.192720  1
  N  N5566  1  0.633167  0.466833  0.526053  1
  N  N5567  1  0.833667  0.366833  0.526053  1
  N  N5568  1  0.533167  0.166333  0.526053  1
  N  N5569  1  0.299833  0.800167  0.859387  1
  N  N5570  1  0.500333  0.700167  0.859387  1
  N  N5571  1  0.199833  0.499667  0.859387  1
  N  N5572  1  0.833000  0.866500  0.307280  1
  N  N5573  1  0.033500  0.167000  0.307280  1
  N  N5574  1  0.133500  0.966500  0.307280  1
  N  N5575  1  0.499667  0.199833  0.640613  1
  N  N5576  1  0.700167  0.500333  0.640613  1
  N  N5577  1  0.800167  0.299833  0.640613  1
  N  N5578  1  0.166333  0.533167  0.973947  1
  N  N5579  1  0.366833  0.833667  0.973947  1
  N  N5580  1  0.466833  0.633167  0.973947  1
  N  N5581  1  0.034700  0.832800  0.875850  1
  N  N5582  1  0.798100  0.965300  0.875850  1
  N  N5583  1  0.167200  0.201900  0.875850  1
  N  N5584  1  0.368033  0.499467  0.542517  1
  N  N5585  1  0.131433  0.631967  0.542517  1
  N  N5586  1  0.500533  0.868567  0.542517  1
  N  N5587  1  0.701367  0.166133  0.209183  1
  N  N5588  1  0.464767  0.298633  0.209183  1
  N  N5589  1  0.833867  0.535233  0.209183  1
  N  N5590  1  0.201900  0.167200  0.624150  1
  N  N5591  1  0.965300  0.798100  0.624150  1
  N  N5592  1  0.832800  0.034700  0.624150  1
  N  N5593  1  0.535233  0.833867  0.290817  1
  N  N5594  1  0.298633  0.464767  0.290817  1
  N  N5595  1  0.166133  0.701367  0.290817  1
  N  N5596  1  0.868567  0.500533  0.957483  1
  N  N5597  1  0.631967  0.131433  0.957483  1
  N  N5598  1  0.499467  0.368033  0.957483  1
  N  N5599  1  0.965300  0.167200  0.124150  1
  N  N5600  1  0.201900  0.034700  0.124150  1
  N  N5601  1  0.832800  0.798100  0.124150  1
  N  N5602  1  0.631967  0.500533  0.457483  1
  N  N5603  1  0.868567  0.368033  0.457483  1
  N  N5604  1  0.499467  0.131433  0.457483  1
  N  N5605  1  0.298633  0.833867  0.790817  1
  N  N5606  1  0.535233  0.701367  0.790817  1
  N  N5607  1  0.166133  0.464767  0.790817  1
  N  N5608  1  0.798100  0.832800  0.375850  1
  N  N5609  1  0.034700  0.201900  0.375850  1
  N  N5610  1  0.167200  0.965300  0.375850  1
  N  N5611  1  0.464767  0.166133  0.709183  1
  N  N5612  1  0.701367  0.535233  0.709183  1
  N  N5613  1  0.833867  0.298633  0.709183  1
  N  N5614  1  0.131433  0.499467  0.042517  1
  N  N5615  1  0.368033  0.868567  0.042517  1
  N  N5616  1  0.500533  0.631967  0.042517  1
  N  N5617  1  0.978600  0.634600  0.870600  1.0
  N  N5618  1  0.656000  0.021400  0.870600  1.0
  N  N5619  1  0.365400  0.344000  0.870600  1.0
  N  N5620  1  0.311933  0.301267  0.537267  1.0
  N  N5621  1  0.989333  0.688067  0.537267  1.0
  N  N5622  1  0.698733  0.010667  0.537267  1.0
  N  N5623  1  0.645267  0.967933  0.203933  1.0
  N  N5624  1  0.322667  0.354733  0.203933  1.0
  N  N5625  1  0.032067  0.677333  0.203933  1.0
  N  N5626  1  0.344000  0.365400  0.629400  1.0
  N  N5627  1  0.021400  0.656000  0.629400  1.0
  N  N5628  1  0.634600  0.978600  0.629400  1.0
  N  N5629  1  0.677333  0.032067  0.296067  1.0
  N  N5630  1  0.354733  0.322667  0.296067  1.0
  N  N5631  1  0.967933  0.645267  0.296067  1.0
  N  N5632  1  0.010667  0.698733  0.962733  1.0
  N  N5633  1  0.688067  0.989333  0.962733  1.0
  N  N5634  1  0.301267  0.311933  0.962733  1.0
  N  N5635  1  0.021400  0.365400  0.129400  1.0
  N  N5636  1  0.344000  0.978600  0.129400  1.0
  N  N5637  1  0.634600  0.656000  0.129400  1.0
  N  N5638  1  0.688067  0.698733  0.462733  1.0
  N  N5639  1  0.010667  0.311933  0.462733  1.0
  N  N5640  1  0.301267  0.989333  0.462733  1.0
  N  N5641  1  0.354733  0.032067  0.796067  1.0
  N  N5642  1  0.677333  0.645267  0.796067  1.0
  N  N5643  1  0.967933  0.322667  0.796067  1.0
  N  N5644  1  0.656000  0.634600  0.370600  1.0
  N  N5645  1  0.978600  0.344000  0.370600  1.0
  N  N5646  1  0.365400  0.021400  0.370600  1.0
  N  N5647  1  0.322667  0.967933  0.703933  1.0
  N  N5648  1  0.645267  0.677333  0.703933  1.0
  N  N5649  1  0.032067  0.354733  0.703933  1.0
  N  N5650  1  0.989333  0.301267  0.037267  1.0
  N  N5651  1  0.311933  0.010667  0.037267  1.0
  N  N5652  1  0.698733  0.688067  0.037267  1.0
  N  N5653  1  0.022200  0.824300  0.874440  1.0
  N  N5654  1  0.802100  0.977800  0.874440  1.0
  N  N5655  1  0.175700  0.197900  0.874440  1.0
  N  N5656  1  0.355533  0.490967  0.541107  1.0
  N  N5657  1  0.135433  0.644467  0.541107  1.0
  N  N5658  1  0.509033  0.864567  0.541107  1.0
  N  N5659  1  0.688867  0.157633  0.207773  1.0
  N  N5660  1  0.468767  0.311133  0.207773  1.0
  N  N5661  1  0.842367  0.531233  0.207773  1.0
  N  N5662  1  0.197900  0.175700  0.625560  1.0
  N  N5663  1  0.977800  0.802100  0.625560  1.0
  N  N5664  1  0.824300  0.022200  0.625560  1.0
  N  N5665  1  0.531233  0.842367  0.292227  1.0
  N  N5666  1  0.311133  0.468767  0.292227  1.0
  N  N5667  1  0.157633  0.688867  0.292227  1.0
  N  N5668  1  0.864567  0.509033  0.958893  1.0
  N  N5669  1  0.644467  0.135433  0.958893  1.0
  N  N5670  1  0.490967  0.355533  0.958893  1.0
  N  N5671  1  0.977800  0.175700  0.125560  1.0
  N  N5672  1  0.197900  0.022200  0.125560  1.0
  N  N5673  1  0.824300  0.802100  0.125560  1.0
  N  N5674  1  0.644467  0.509033  0.458893  1.0
  N  N5675  1  0.864567  0.355533  0.458893  1.0
  N  N5676  1  0.490967  0.135433  0.458893  1.0
  N  N5677  1  0.311133  0.842367  0.792227  1.0
  N  N5678  1  0.531233  0.688867  0.792227  1.0
  N  N5679  1  0.157633  0.468767  0.792227  1.0
  N  N5680  1  0.802100  0.824300  0.374440  1.0
  N  N5681  1  0.022200  0.197900  0.374440  1.0
  N  N5682  1  0.175700  0.977800  0.374440  1.0
  N  N5683  1  0.468767  0.157633  0.707773  1.0
  N  N5684  1  0.688867  0.531233  0.707773  1.0
  N  N5685  1  0.842367  0.311133  0.707773  1.0
  N  N5686  1  0.135433  0.490967  0.041107  1.0
  N  N5687  1  0.355533  0.864567  0.041107  1.0
  N  N5688  1  0.509033  0.644467  0.041107  1.0
  N  N5689  1  0.009100  0.829100  0.804390  1.0
  N  N5690  1  0.820000  0.990900  0.804390  1.0
  N  N5691  1  0.170900  0.180000  0.804390  1.0
  N  N5692  1  0.342433  0.495767  0.471057  1.0
  N  N5693  1  0.153333  0.657567  0.471057  1.0
  N  N5694  1  0.504233  0.846667  0.471057  1.0
  N  N5695  1  0.675767  0.162433  0.137723  1.0
  N  N5696  1  0.486667  0.324233  0.137723  1.0
  N  N5697  1  0.837567  0.513333  0.137723  1.0
  N  N5698  1  0.180000  0.170900  0.695610  1.0
  N  N5699  1  0.990900  0.820000  0.695610  1.0
  N  N5700  1  0.829100  0.009100  0.695610  1.0
  N  N5701  1  0.513333  0.837567  0.362277  1.0
  N  N5702  1  0.324233  0.486667  0.362277  1.0
  N  N5703  1  0.162433  0.675767  0.362277  1.0
  N  N5704  1  0.846667  0.504233  0.028943  1.0
  N  N5705  1  0.657567  0.153333  0.028943  1.0
  N  N5706  1  0.495767  0.342433  0.028943  1.0
  N  N5707  1  0.990900  0.170900  0.195610  1.0
  N  N5708  1  0.180000  0.009100  0.195610  1.0
  N  N5709  1  0.829100  0.820000  0.195610  1.0
  N  N5710  1  0.657567  0.504233  0.528943  1.0
  N  N5711  1  0.846667  0.342433  0.528943  1.0
  N  N5712  1  0.495767  0.153333  0.528943  1.0
  N  N5713  1  0.324233  0.837567  0.862277  1.0
  N  N5714  1  0.513333  0.675767  0.862277  1.0
  N  N5715  1  0.162433  0.486667  0.862277  1.0
  N  N5716  1  0.820000  0.829100  0.304390  1.0
  N  N5717  1  0.009100  0.180000  0.304390  1.0
  N  N5718  1  0.170900  0.990900  0.304390  1.0
  N  N5719  1  0.486667  0.162433  0.637723  1.0
  N  N5720  1  0.675767  0.513333  0.637723  1.0
  N  N5721  1  0.837567  0.324233  0.637723  1.0
  N  N5722  1  0.153333  0.495767  0.971057  1.0
  N  N5723  1  0.342433  0.846667  0.971057  1.0
  N  N5724  1  0.504233  0.657567  0.971057  1.0
  O  O5725  1  0.770350  0.784460  0.929330  1.0
  O  O5726  1  0.014110  0.229650  0.929330  1.0
  O  O5727  1  0.215540  0.985890  0.929330  1.0
  O  O5728  1  0.103683  0.451127  0.595997  1.0
  O  O5729  1  0.347443  0.896317  0.595997  1.0
  O  O5730  1  0.548873  0.652557  0.595997  1.0
  O  O5731  1  0.437017  0.117793  0.262663  1.0
  O  O5732  1  0.680777  0.562983  0.262663  1.0
  O  O5733  1  0.882207  0.319223  0.262663  1.0
  O  O5734  1  0.985890  0.215540  0.570670  1.0
  O  O5735  1  0.229650  0.014110  0.570670  1.0
  O  O5736  1  0.784460  0.770350  0.570670  1.0
  O  O5737  1  0.319223  0.882207  0.237337  1.0
  O  O5738  1  0.562983  0.680777  0.237337  1.0
  O  O5739  1  0.117793  0.437017  0.237337  1.0
  O  O5740  1  0.652557  0.548873  0.904003  1.0
  O  O5741  1  0.896317  0.347443  0.904003  1.0
  O  O5742  1  0.451127  0.103683  0.904003  1.0
  O  O5743  1  0.229650  0.215540  0.070670  1.0
  O  O5744  1  0.985890  0.770350  0.070670  1.0
  O  O5745  1  0.784460  0.014110  0.070670  1.0
  O  O5746  1  0.896317  0.548873  0.404003  1.0
  O  O5747  1  0.652557  0.103683  0.404003  1.0
  O  O5748  1  0.451127  0.347443  0.404003  1.0
  O  O5749  1  0.562983  0.882207  0.737337  1.0
  O  O5750  1  0.319223  0.437017  0.737337  1.0
  O  O5751  1  0.117793  0.680777  0.737337  1.0
  O  O5752  1  0.014110  0.784460  0.429330  1.0
  O  O5753  1  0.770350  0.985890  0.429330  1.0
  O  O5754  1  0.215540  0.229650  0.429330  1.0
  O  O5755  1  0.680777  0.117793  0.762663  1.0
  O  O5756  1  0.437017  0.319223  0.762663  1.0
  O  O5757  1  0.882207  0.562983  0.762663  1.0
  O  O5758  1  0.347443  0.451127  0.095997  1.0
  O  O5759  1  0.103683  0.652557  0.095997  1.0
  O  O5760  1  0.548873  0.896317  0.095997  1.0
  O  O5761  1  0.806870  0.822740  0.953310  1.0
  O  O5762  1  0.015870  0.193130  0.953310  1.0
  O  O5763  1  0.177260  0.984130  0.953310  1.0
  O  O5764  1  0.140203  0.489407  0.619977  1.0
  O  O5765  1  0.349203  0.859797  0.619977  1.0
  O  O5766  1  0.510593  0.650797  0.619977  1.0
  O  O5767  1  0.473537  0.156073  0.286643  1.0
  O  O5768  1  0.682537  0.526463  0.286643  1.0
  O  O5769  1  0.843927  0.317463  0.286643  1.0
  O  O5770  1  0.984130  0.177260  0.546690  1.0
  O  O5771  1  0.193130  0.015870  0.546690  1.0
  O  O5772  1  0.822740  0.806870  0.546690  1.0
  O  O5773  1  0.317463  0.843927  0.213357  1.0
  O  O5774  1  0.526463  0.682537  0.213357  1.0
  O  O5775  1  0.156073  0.473537  0.213357  1.0
  O  O5776  1  0.650797  0.510593  0.880023  1.0
  O  O5777  1  0.859797  0.349203  0.880023  1.0
  O  O5778  1  0.489407  0.140203  0.880023  1.0
  O  O5779  1  0.193130  0.177260  0.046690  1.0
  O  O5780  1  0.984130  0.806870  0.046690  1.0
  O  O5781  1  0.822740  0.015870  0.046690  1.0
  O  O5782  1  0.859797  0.510593  0.380023  1.0
  O  O5783  1  0.650797  0.140203  0.380023  1.0
  O  O5784  1  0.489407  0.349203  0.380023  1.0
  O  O5785  1  0.526463  0.843927  0.713357  1.0
  O  O5786  1  0.317463  0.473537  0.713357  1.0
  O  O5787  1  0.156073  0.682537  0.713357  1.0
  O  O5788  1  0.015870  0.822740  0.453310  1.0
  O  O5789  1  0.806870  0.984130  0.453310  1.0
  O  O5790  1  0.177260  0.193130  0.453310  1.0
  O  O5791  1  0.682537  0.156073  0.786643  1.0
  O  O5792  1  0.473537  0.317463  0.786643  1.0
  O  O5793  1  0.843927  0.526463  0.786643  1.0
  O  O5794  1  0.349203  0.489407  0.119977  1.0
  O  O5795  1  0.140203  0.650797  0.119977  1.0
  O  O5796  1  0.510593  0.859797  0.119977  1.0
  O  O5797  1  0.894060  0.819430  0.909100  1.0
  O  O5798  1  0.925370  0.105940  0.909100  1.0
  O  O5799  1  0.180570  0.074630  0.909100  1.0
  O  O5800  1  0.227393  0.486097  0.575767  1.0
  O  O5801  1  0.258703  0.772607  0.575767  1.0
  O  O5802  1  0.513903  0.741297  0.575767  1.0
  O  O5803  1  0.560727  0.152763  0.242433  1.0
  O  O5804  1  0.592037  0.439273  0.242433  1.0
  O  O5805  1  0.847237  0.407963  0.242433  1.0
  O  O5806  1  0.074630  0.180570  0.590900  1.0
  O  O5807  1  0.105940  0.925370  0.590900  1.0
  O  O5808  1  0.819430  0.894060  0.590900  1.0
  O  O5809  1  0.407963  0.847237  0.257567  1.0
  O  O5810  1  0.439273  0.592037  0.257567  1.0
  O  O5811  1  0.152763  0.560727  0.257567  1.0
  O  O5812  1  0.741297  0.513903  0.924233  1.0
  O  O5813  1  0.772607  0.258703  0.924233  1.0
  O  O5814  1  0.486097  0.227393  0.924233  1.0
  O  O5815  1  0.105940  0.180570  0.090900  1.0
  O  O5816  1  0.074630  0.894060  0.090900  1.0
  O  O5817  1  0.819430  0.925370  0.090900  1.0
  O  O5818  1  0.772607  0.513903  0.424233  1.0
  O  O5819  1  0.741297  0.227393  0.424233  1.0
  O  O5820  1  0.486097  0.258703  0.424233  1.0
  O  O5821  1  0.439273  0.847237  0.757567  1.0
  O  O5822  1  0.407963  0.560727  0.757567  1.0
  O  O5823  1  0.152763  0.592037  0.757567  1.0
  O  O5824  1  0.925370  0.819430  0.409100  1.0
  O  O5825  1  0.894060  0.074630  0.409100  1.0
  O  O5826  1  0.180570  0.105940  0.409100  1.0
  O  O5827  1  0.592037  0.152763  0.742433  1.0
  O  O5828  1  0.560727  0.407963  0.742433  1.0
  O  O5829  1  0.847237  0.439273  0.742433  1.0
  O  O5830  1  0.258703  0.486097  0.075767  1.0
  O  O5831  1  0.227393  0.741297  0.075767  1.0
  O  O5832  1  0.513903  0.772607  0.075767  1.0
  O  O5833  1  0.929910  0.865590  0.932010  1.0
  O  O5834  1  0.935680  0.070090  0.932010  1.0
  O  O5835  1  0.134410  0.064320  0.932010  1.0
  O  O5836  1  0.263243  0.532257  0.598677  1.0
  O  O5837  1  0.269013  0.736757  0.598677  1.0
  O  O5838  1  0.467743  0.730987  0.598677  1.0
  O  O5839  1  0.596577  0.198923  0.265343  1.0
  O  O5840  1  0.602347  0.403423  0.265343  1.0
  O  O5841  1  0.801077  0.397653  0.265343  1.0
  O  O5842  1  0.064320  0.134410  0.567990  1.0
  O  O5843  1  0.070090  0.935680  0.567990  1.0
  O  O5844  1  0.865590  0.929910  0.567990  1.0
  O  O5845  1  0.397653  0.801077  0.234657  1.0
  O  O5846  1  0.403423  0.602347  0.234657  1.0
  O  O5847  1  0.198923  0.596577  0.234657  1.0
  O  O5848  1  0.730987  0.467743  0.901323  1.0
  O  O5849  1  0.736757  0.269013  0.901323  1.0
  O  O5850  1  0.532257  0.263243  0.901323  1.0
  O  O5851  1  0.070090  0.134410  0.067990  1.0
  O  O5852  1  0.064320  0.929910  0.067990  1.0
  O  O5853  1  0.865590  0.935680  0.067990  1.0
  O  O5854  1  0.736757  0.467743  0.401323  1.0
  O  O5855  1  0.730987  0.263243  0.401323  1.0
  O  O5856  1  0.532257  0.269013  0.401323  1.0
  O  O5857  1  0.403423  0.801077  0.734657  1.0
  O  O5858  1  0.397653  0.596577  0.734657  1.0
  O  O5859  1  0.198923  0.602347  0.734657  1.0
  O  O5860  1  0.935680  0.865590  0.432010  1.0
  O  O5861  1  0.929910  0.064320  0.432010  1.0
  O  O5862  1  0.134410  0.070090  0.432010  1.0
  O  O5863  1  0.602347  0.198923  0.765343  1.0
  O  O5864  1  0.596577  0.397653  0.765343  1.0
  O  O5865  1  0.801077  0.403423  0.765343  1.0
  O  O5866  1  0.269013  0.532257  0.098677  1.0
  O  O5867  1  0.263243  0.730987  0.098677  1.0
  O  O5868  1  0.467743  0.736757  0.098677  1.0
  O  O5869  1  0.143870  0.977190  0.908190  1.0
  O  O5870  1  0.833320  0.856130  0.908190  1.0
  O  O5871  1  0.022810  0.166680  0.908190  1.0
  O  O5872  1  0.477203  0.643857  0.574857  1.0
  O  O5873  1  0.166653  0.522797  0.574857  1.0
  O  O5874  1  0.356143  0.833347  0.574857  1.0
  O  O5875  1  0.810537  0.310523  0.241523  1.0
  O  O5876  1  0.499987  0.189463  0.241523  1.0
  O  O5877  1  0.689477  0.500013  0.241523  1.0
  O  O5878  1  0.166680  0.022810  0.591810  1.0
  O  O5879  1  0.856130  0.833320  0.591810  1.0
  O  O5880  1  0.977190  0.143870  0.591810  1.0
  O  O5881  1  0.500013  0.689477  0.258477  1.0
  O  O5882  1  0.189463  0.499987  0.258477  1.0
  O  O5883  1  0.310523  0.810537  0.258477  1.0
  O  O5884  1  0.833347  0.356143  0.925143  1.0
  O  O5885  1  0.522797  0.166653  0.925143  1.0
  O  O5886  1  0.643857  0.477203  0.925143  1.0
  O  O5887  1  0.856130  0.022810  0.091810  1.0
  O  O5888  1  0.166680  0.143870  0.091810  1.0
  O  O5889  1  0.977190  0.833320  0.091810  1.0
  O  O5890  1  0.522797  0.356143  0.425143  1.0
  O  O5891  1  0.833347  0.477203  0.425143  1.0
  O  O5892  1  0.643857  0.166653  0.425143  1.0
  O  O5893  1  0.189463  0.689477  0.758477  1.0
  O  O5894  1  0.500013  0.810537  0.758477  1.0
  O  O5895  1  0.310523  0.499987  0.758477  1.0
  O  O5896  1  0.833320  0.977190  0.408190  1.0
  O  O5897  1  0.143870  0.166680  0.408190  1.0
  O  O5898  1  0.022810  0.856130  0.408190  1.0
  O  O5899  1  0.499987  0.310523  0.741523  1.0
  O  O5900  1  0.810537  0.500013  0.741523  1.0
  O  O5901  1  0.689477  0.189463  0.741523  1.0
  O  O5902  1  0.166653  0.643857  0.074857  1.0
  O  O5903  1  0.477203  0.833347  0.074857  1.0
  O  O5904  1  0.356143  0.522797  0.074857  1.0
  O  O5905  1  0.102950  0.968740  0.932010  1.0
  O  O5906  1  0.865790  0.897050  0.932010  1.0
  O  O5907  1  0.031260  0.134210  0.932010  1.0
  O  O5908  1  0.436283  0.635407  0.598677  1.0
  O  O5909  1  0.199123  0.563717  0.598677  1.0
  O  O5910  1  0.364593  0.800877  0.598677  1.0
  O  O5911  1  0.769617  0.302073  0.265343  1.0
  O  O5912  1  0.532457  0.230383  0.265343  1.0
  O  O5913  1  0.697927  0.467543  0.265343  1.0
  O  O5914  1  0.134210  0.031260  0.567990  1.0
  O  O5915  1  0.897050  0.865790  0.567990  1.0
  O  O5916  1  0.968740  0.102950  0.567990  1.0
  O  O5917  1  0.467543  0.697927  0.234657  1.0
  O  O5918  1  0.230383  0.532457  0.234657  1.0
  O  O5919  1  0.302073  0.769617  0.234657  1.0
  O  O5920  1  0.800877  0.364593  0.901323  1.0
  O  O5921  1  0.563717  0.199123  0.901323  1.0
  O  O5922  1  0.635407  0.436283  0.901323  1.0
  O  O5923  1  0.897050  0.031260  0.067990  1.0
  O  O5924  1  0.134210  0.102950  0.067990  1.0
  O  O5925  1  0.968740  0.865790  0.067990  1.0
  O  O5926  1  0.563717  0.364593  0.401323  1.0
  O  O5927  1  0.800877  0.436283  0.401323  1.0
  O  O5928  1  0.635407  0.199123  0.401323  1.0
  O  O5929  1  0.230383  0.697927  0.734657  1.0
  O  O5930  1  0.467543  0.769617  0.734657  1.0
  O  O5931  1  0.302073  0.532457  0.734657  1.0
  O  O5932  1  0.865790  0.968740  0.432010  1.0
  O  O5933  1  0.102950  0.134210  0.432010  1.0
  O  O5934  1  0.031260  0.897050  0.432010  1.0
  O  O5935  1  0.532457  0.302073  0.765343  1.0
  O  O5936  1  0.769617  0.467543  0.765343  1.0
  O  O5937  1  0.697927  0.230383  0.765343  1.0
  O  O5938  1  0.199123  0.635407  0.098677  1.0
  O  O5939  1  0.436283  0.800877  0.098677  1.0
  O  O5940  1  0.364593  0.563717  0.098677  1.0
  O  O5941  1  0.744390  0.915910  0.071590  1.0
  O  O5942  1  0.171520  0.255610  0.071590  1.0
  O  O5943  1  0.084090  0.828480  0.071590  1.0
  O  O5944  1  0.077723  0.582577  0.738257  1.0
  O  O5945  1  0.504853  0.922277  0.738257  1.0
  O  O5946  1  0.417423  0.495147  0.738257  1.0
  O  O5947  1  0.411057  0.249243  0.404923  1.0
  O  O5948  1  0.838187  0.588943  0.404923  1.0
  O  O5949  1  0.750757  0.161813  0.404923  1.0
  O  O5950  1  0.828480  0.084090  0.428410  1.0
  O  O5951  1  0.255610  0.171520  0.428410  1.0
  O  O5952  1  0.915910  0.744390  0.428410  1.0
  O  O5953  1  0.161813  0.750757  0.095077  1.0
  O  O5954  1  0.588943  0.838187  0.095077  1.0
  O  O5955  1  0.249243  0.411057  0.095077  1.0
  O  O5956  1  0.495147  0.417423  0.761743  1.0
  O  O5957  1  0.922277  0.504853  0.761743  1.0
  O  O5958  1  0.582577  0.077723  0.761743  1.0
  O  O5959  1  0.255610  0.084090  0.928410  1.0
  O  O5960  1  0.828480  0.744390  0.928410  1.0
  O  O5961  1  0.915910  0.171520  0.928410  1.0
  O  O5962  1  0.922277  0.417423  0.261743  1.0
  O  O5963  1  0.495147  0.077723  0.261743  1.0
  O  O5964  1  0.582577  0.504853  0.261743  1.0
  O  O5965  1  0.588943  0.750757  0.595077  1.0
  O  O5966  1  0.161813  0.411057  0.595077  1.0
  O  O5967  1  0.249243  0.838187  0.595077  1.0
  O  O5968  1  0.171520  0.915910  0.571590  1.0
  O  O5969  1  0.744390  0.828480  0.571590  1.0
  O  O5970  1  0.084090  0.255610  0.571590  1.0
  O  O5971  1  0.838187  0.249243  0.904923  1.0
  O  O5972  1  0.411057  0.161813  0.904923  1.0
  O  O5973  1  0.750757  0.588943  0.904923  1.0
  O  O5974  1  0.504853  0.582577  0.238257  1.0
  O  O5975  1  0.077723  0.495147  0.238257  1.0
  O  O5976  1  0.417423  0.922277  0.238257  1.0
  O  O5977  1  0.786730  0.918710  0.048630  1.0
  O  O5978  1  0.131980  0.213270  0.048630  1.0
  O  O5979  1  0.081290  0.868020  0.048630  1.0
  O  O5980  1  0.120063  0.585377  0.715297  1.0
  O  O5981  1  0.465313  0.879937  0.715297  1.0
  O  O5982  1  0.414623  0.534687  0.715297  1.0
  O  O5983  1  0.453397  0.252043  0.381963  1.0
  O  O5984  1  0.798647  0.546603  0.381963  1.0
  O  O5985  1  0.747957  0.201353  0.381963  1.0
  O  O5986  1  0.868020  0.081290  0.451370  1.0
  O  O5987  1  0.213270  0.131980  0.451370  1.0
  O  O5988  1  0.918710  0.786730  0.451370  1.0
  O  O5989  1  0.201353  0.747957  0.118037  1.0
  O  O5990  1  0.546603  0.798647  0.118037  1.0
  O  O5991  1  0.252043  0.453397  0.118037  1.0
  O  O5992  1  0.534687  0.414623  0.784703  1.0
  O  O5993  1  0.879937  0.465313  0.784703  1.0
  O  O5994  1  0.585377  0.120063  0.784703  1.0
  O  O5995  1  0.213270  0.081290  0.951370  1.0
  O  O5996  1  0.868020  0.786730  0.951370  1.0
  O  O5997  1  0.918710  0.131980  0.951370  1.0
  O  O5998  1  0.879937  0.414623  0.284703  1.0
  O  O5999  1  0.534687  0.120063  0.284703  1.0
  O  O6000  1  0.585377  0.465313  0.284703  1.0
  O  O6001  1  0.546603  0.747957  0.618037  1.0
  O  O6002  1  0.201353  0.453397  0.618037  1.0
  O  O6003  1  0.252043  0.798647  0.618037  1.0
  O  O6004  1  0.131980  0.918710  0.548630  1.0
  O  O6005  1  0.786730  0.868020  0.548630  1.0
  O  O6006  1  0.081290  0.213270  0.548630  1.0
  O  O6007  1  0.798647  0.252043  0.881963  1.0
  O  O6008  1  0.453397  0.201353  0.881963  1.0
  O  O6009  1  0.747957  0.546603  0.881963  1.0
  O  O6010  1  0.465313  0.585377  0.215297  1.0
  O  O6011  1  0.120063  0.534687  0.215297  1.0
  O  O6012  1  0.414623  0.879937  0.215297  1.0
  O  O6013  1  0.793370  0.758970  0.894080  1.0
  O  O6014  1  0.965600  0.206630  0.894080  1.0
  O  O6015  1  0.241030  0.034400  0.894080  1.0
  O  O6016  1  0.126703  0.425637  0.560747  1.0
  O  O6017  1  0.298933  0.873297  0.560747  1.0
  O  O6018  1  0.574363  0.701067  0.560747  1.0
  O  O6019  1  0.460037  0.092303  0.227413  1.0
  O  O6020  1  0.632267  0.539963  0.227413  1.0
  O  O6021  1  0.907697  0.367733  0.227413  1.0
  O  O6022  1  0.034400  0.241030  0.605920  1.0
  O  O6023  1  0.206630  0.965600  0.605920  1.0
  O  O6024  1  0.758970  0.793370  0.605920  1.0
  O  O6025  1  0.367733  0.907697  0.272587  1.0
  O  O6026  1  0.539963  0.632267  0.272587  1.0
  O  O6027  1  0.092303  0.460037  0.272587  1.0
  O  O6028  1  0.701067  0.574363  0.939253  1.0
  O  O6029  1  0.873297  0.298933  0.939253  1.0
  O  O6030  1  0.425637  0.126703  0.939253  1.0
  O  O6031  1  0.206630  0.241030  0.105920  1.0
  O  O6032  1  0.034400  0.793370  0.105920  1.0
  O  O6033  1  0.758970  0.965600  0.105920  1.0
  O  O6034  1  0.873297  0.574363  0.439253  1.0
  O  O6035  1  0.701067  0.126703  0.439253  1.0
  O  O6036  1  0.425637  0.298933  0.439253  1.0
  O  O6037  1  0.539963  0.907697  0.772587  1.0
  O  O6038  1  0.367733  0.460037  0.772587  1.0
  O  O6039  1  0.092303  0.632267  0.772587  1.0
  O  O6040  1  0.965600  0.758970  0.394080  1.0
  O  O6041  1  0.793370  0.034400  0.394080  1.0
  O  O6042  1  0.241030  0.206630  0.394080  1.0
  O  O6043  1  0.632267  0.092303  0.727413  1.0
  O  O6044  1  0.460037  0.367733  0.727413  1.0
  O  O6045  1  0.907697  0.539963  0.727413  1.0
  O  O6046  1  0.298933  0.425637  0.060747  1.0
  O  O6047  1  0.126703  0.701067  0.060747  1.0
  O  O6048  1  0.574363  0.873297  0.060747  1.0
  O  O6049  1  0.908700  0.890400  0.965320  1.0
  O  O6050  1  0.981700  0.091300  0.965320  1.0
  O  O6051  1  0.109600  0.018300  0.965320  1.0
  O  O6052  1  0.242033  0.557067  0.631987  1.0
  O  O6053  1  0.315033  0.757967  0.631987  1.0
  O  O6054  1  0.442933  0.684967  0.631987  1.0
  O  O6055  1  0.575367  0.223733  0.298653  1.0
  O  O6056  1  0.648367  0.424633  0.298653  1.0
  O  O6057  1  0.776267  0.351633  0.298653  1.0
  O  O6058  1  0.018300  0.109600  0.534680  1.0
  O  O6059  1  0.091300  0.981700  0.534680  1.0
  O  O6060  1  0.890400  0.908700  0.534680  1.0
  O  O6061  1  0.351633  0.776267  0.201347  1.0
  O  O6062  1  0.424633  0.648367  0.201347  1.0
  O  O6063  1  0.223733  0.575367  0.201347  1.0
  O  O6064  1  0.684967  0.442933  0.868013  1.0
  O  O6065  1  0.757967  0.315033  0.868013  1.0
  O  O6066  1  0.557067  0.242033  0.868013  1.0
  O  O6067  1  0.091300  0.109600  0.034680  1.0
  O  O6068  1  0.018300  0.908700  0.034680  1.0
  O  O6069  1  0.890400  0.981700  0.034680  1.0
  O  O6070  1  0.757967  0.442933  0.368013  1.0
  O  O6071  1  0.684967  0.242033  0.368013  1.0
  O  O6072  1  0.557067  0.315033  0.368013  1.0
  O  O6073  1  0.424633  0.776267  0.701347  1.0
  O  O6074  1  0.351633  0.575367  0.701347  1.0
  O  O6075  1  0.223733  0.648367  0.701347  1.0
  O  O6076  1  0.981700  0.890400  0.465320  1.0
  O  O6077  1  0.908700  0.018300  0.465320  1.0
  O  O6078  1  0.109600  0.091300  0.465320  1.0
  O  O6079  1  0.648367  0.223733  0.798653  1.0
  O  O6080  1  0.575367  0.351633  0.798653  1.0
  O  O6081  1  0.776267  0.424633  0.798653  1.0
  O  O6082  1  0.315033  0.557067  0.131987  1.0
  O  O6083  1  0.242033  0.684967  0.131987  1.0
  O  O6084  1  0.442933  0.757967  0.131987  1.0
