
#######################################################################
#
#                 Cambridge Crystallographic Data Centre
#                                CCDC 
#
#######################################################################
#
# If this CIF has been generated from an entry in the Cambridge 
# Structural Database, then it will include bibliographic, chemical, 
# crystal, experimental, refinement or atomic coordinate data resulting 
# from the CCDC's data processing and validation procedures.
#
#######################################################################

data_TEYNET
_chemical_formula_moiety         'C360 H222 Cu12 N18 O60'
_chemical_name_systematic        
"hexakis(\m-5-(9'H-9,3':6',9''-tercarbazol-9'-yl)benzene-1,3-dicarboxylato)-hexakis(3,3'-(ethyne-1,2-diyl)dibenzoato)-dodeca-aqua-dodeca-copper(ii) unknown solvate"
_symmetry_cell_setting           rhombohedral
_symmetry_space_group_name_H-M   'R -3 c'
_symmetry_Int_Tables_number      167
_space_group_name_Hall           '-R 3 2"c'
loop_
_symmetry_equiv_pos_site_id
_symmetry_equiv_pos_as_xyz
1 x,y,z
2 -y,x-y,z
3 -x+y,-x,z
4 2/3+x,1/3+y,1/3+z
5 2/3-y,1/3+x-y,1/3+z
6 2/3-x+y,1/3-x,1/3+z
7 1/3+x,2/3+y,2/3+z
8 1/3-y,2/3+x-y,2/3+z
9 1/3-x+y,2/3-x,2/3+z
10 y,x,1/2-z
11 -x,-x+y,1/2-z
12 x-y,-y,1/2-z
13 2/3+y,1/3+x,5/6-z
14 2/3-x,1/3-x+y,5/6-z
15 2/3+x-y,1/3-y,5/6-z
16 1/3+y,2/3+x,1/6-z
17 1/3-x,2/3-x+y,1/6-z
18 1/3+x-y,2/3-y,1/6-z
19 -x,-y,-z
20 y,-x+y,-z
21 x-y,x,-z
22 1/3-x,2/3-y,2/3-z
23 1/3+y,2/3-x+y,2/3-z
24 1/3+x-y,2/3+x,2/3-z
25 2/3-x,1/3-y,1/3-z
26 2/3+y,1/3-x+y,1/3-z
27 2/3+x-y,1/3+x,1/3-z
28 -y,-x,1/2+z
29 x,x-y,1/2+z
30 -x+y,y,1/2+z
31 1/3-y,2/3-x,1/6+z
32 1/3+x,2/3+x-y,1/6+z
33 1/3-x+y,2/3+y,1/6+z
34 2/3-y,1/3-x,5/6+z
35 2/3+x,1/3+x-y,5/6+z
36 2/3-x+y,1/3+y,5/6+z
_cell_length_a                   32.3220(8)
_cell_length_b                   32.3220(8)
_cell_length_c                   78.505(3)
_cell_angle_alpha                90
_cell_angle_beta                 90
_cell_angle_gamma                120
_cell_volume                     71027.2
_exptl_crystal_colour            blue
_exptl_crystal_description       block
_cell_formula_units_Z            6
loop_
_atom_site_label
_atom_site_type_symbol
_atom_site_fract_x
_atom_site_fract_y
_atom_site_fract_z
N1 N 0.0214(5) 0.6560(6) 0.1294(2)
C1 C -0.0064(4) 0.6126(4) 0.13714(18)
C2 C -0.0491(4) 0.5956(4) 0.1460(2)
H1 H -0.062790 0.614743 0.147296
C3 C -0.0712(4) 0.5499(4) 0.1530(2)
H2 H -0.099791 0.538548 0.158916
C4 C -0.0507(5) 0.5213(4) 0.1511(2)
H3 H -0.065562 0.490753 0.155721
C5 C -0.0081(5) 0.5383(5) 0.1422(2)
H4 H 0.005667 0.519154 0.140906
C6 C 0.0141(4) 0.5840(5) 0.13522(15)
C7 C 0.0572(3) 0.6097(3) 0.12497(16)
C8 C 0.0934(4) 0.6016(4) 0.11946(17)
H5 H 0.091209 0.572182 0.121418
C9 C 0.1329(4) 0.6374(5) 0.11101(17)
H6 H 0.157088 0.632041 0.107321
C10 C 0.1361(4) 0.6814(4) 0.10808(16)
H7 H 0.162510 0.705385 0.102431
C11 C 0.0999(4) 0.6895(3) 0.11360(17)
H8 H 0.102055 0.718869 0.111637
C12 C 0.0604(3) 0.6536(4) 0.12204(16)
C13 C -0.0199(9) 0.7586(6) 0.12345(19)
C14 C -0.0129(8) 0.7447(6) 0.13944(17)
C15 C -0.0003(8) 0.7095(7) 0.1409(2)
H9 H 0.004406 0.700202 0.151584
C16 C 0.0052(9) 0.6882(7) 0.1263(3)
C17 C -0.0018(10) 0.7021(8) 0.1103(3)
H10 H 0.001906 0.687905 0.100609
C18 C -0.0144(9) 0.7373(7) 0.10890(18)
H11 H -0.019093 0.746594 0.098198
C19 C -0.0248(5) 0.8077(5) 0.14288(9)
C20 C -0.0148(5) 0.7766(4) 0.15178(12)
C21 C -0.0104(4) 0.7796(4) 0.16941(12)
H12 H -0.003725 0.758788 0.175359
C22 C -0.0161(4) 0.8139(4) 0.17815(9)
C23 C -0.0261(5) 0.8450(4) 0.16926(12)
H13 H -0.029945 0.867908 0.175113
C24 C -0.0305(6) 0.8419(5) 0.15163(12)
H14 H -0.037167 0.862786 0.145680
N2 N -0.0222(8) 0.8021(7) 0.12556(19)
N3 N -0.0091(4) 0.8200(4) 0.19561(11)
C25 C -0.0321(3) 0.7858(3) 0.20782(8)
C26 C -0.0702(3) 0.7395(3) 0.20610(8)
H15 H -0.082733 0.727667 0.195366
C27 C -0.0896(3) 0.7109(2) 0.22041(11)
H16 H -0.115168 0.679897 0.219258
C28 C -0.0709(3) 0.7285(3) 0.23645(9)
H17 H -0.083939 0.709381 0.246030
C29 C -0.0328(3) 0.7748(3) 0.23818(8)
H18 H -0.020275 0.786636 0.248910
C30 C -0.0134(2) 0.8034(2) 0.22386(10)
C31 C 0.0258(3) 0.8507(3) 0.22155(11)
C32 C 0.0595(4) 0.8861(4) 0.23209(8)
H19 H 0.059132 0.880767 0.243742
C33 C 0.0939(4) 0.9295(3) 0.22520(12)
H20 H 0.116409 0.953131 0.232246
C34 C 0.0945(4) 0.9375(3) 0.20778(12)
H21 H 0.117427 0.966460 0.203172
C35 C 0.0608(4) 0.9021(4) 0.19725(8)
H22 H 0.061169 0.907424 0.185592
C36 C 0.0264(3) 0.8587(3) 0.20413(10)
Cu1 Cu 0.17175(2) 0.96872(2) 0.08328(2)
Cu2 Cu 0.12896(2) 0.97581(2) 0.05564(2)
O1 O 0.22965(11) 1.01411(12) 0.07067(4)
O2 O 0.19313(12) 1.01587(14) 0.04669(4)
O3 O 0.10594(13) 0.92537(13) 0.09090(5)
O4 O 0.07009(11) 0.93568(13) 0.06799(5)
O5 O -0.14387(18) 0.83332(13) 0.09181(5)
O6 O -0.10295(17) 0.86579(12) 0.06799(5)
O7 O 0.25561(18) 1.17152(12) -0.07159(5)
O8 O 0.21327(18) 1.13198(12) -0.04863(4)
O9 O 0.20663(17) 0.96560(16) 0.10592(5)
O10 O 0.0913(2) 0.9817(2) 0.03468(9)
C37 C 0.22958(18) 1.02680(18) 0.05586(7)
C38 C 0.27728(16) 1.05717(17) 0.04750(6)
C39 C 0.31842(19) 1.0727(2) 0.05688(7)
H23 H 0.316420 1.064339 0.068308
C40 C 0.3625(2) 1.1005(2) 0.04948(8)
H24 H 0.390117 1.112338 0.056009
C41 C 0.36538(19) 1.1107(2) 0.03224(7)
H25 H 0.395173 1.128021 0.027085
C42 C 0.32418(18) 1.09547(19) 0.02254(7)
C43 C 0.28037(16) 1.06884(17) 0.03048(6)
H26 H 0.252503 1.058625 0.024214
C44 C 0.32733(19) 1.1065(2) 0.00457(8)
C45 C 0.33032(19) 1.1183(2) -0.00984(8)
C46 C 0.33176(28) 1.13546(19) -0.02679(7)
C47 C 0.3754(3) 1.1567(2) -0.03571(9)
H27 H 0.402777 1.158950 -0.030967
C48 C 0.3756(4) 1.1743(3) -0.05214(9)
H28 H 0.403456 1.186856 -0.058602
C49 C 0.3368(3) 1.1736(2) -0.05877(8)
H29 H 0.338841 1.187184 -0.069405
C50 C 0.29417(27) 1.15297(18) -0.04994(7)
C51 C 0.29148(26) 1.13354(18) -0.03407(7)
H30 H 0.262647 1.119081 -0.028185
C52 C 0.25123(26) 1.15194(18) -0.05711(7)
C53 C 0.06988(19) 0.91834(18) 0.08207(8)
C54 C 0.02227(18) 0.88662(17) 0.09033(7)
C55 C 0.0175(2) 0.85826(18) 0.10428(7)
H31 H 0.044423 0.859516 0.109022
C56 C -0.0261(2) 0.82872(19) 0.11107(7)
C57 C -0.06635(19) 0.82667(18) 0.10454(7)
H32 H -0.095971 0.806957 0.109508
C58 C -0.06262(17) 0.85406(17) 0.09053(7)
C59 C -0.01967(17) 0.88281(17) 0.08351(7)
H33 H -0.017664 0.900600 0.073909
C60 C -0.10642(25) 0.85115(17) 0.08268(8)
N1A N 0.3440(6) 1.3654(8) 0.1294(2)
C1A C 0.3874(4) 1.3810(6) 0.13714(18)
C2A C 0.4044(4) 1.3553(6) 0.1460(2)
H1A H 0.385257 1.322467 0.147296
C3A C 0.4501(4) 1.3789(6) 0.1530(2)
H2A H 0.461452 1.361661 0.158916
C4A C 0.4787(4) 1.4280(6) 0.1511(2)
H3A H 0.509247 1.443685 0.155721
C5A C 0.4617(5) 1.4536(7) 0.1422(2)
H4A H 0.480846 1.486513 0.140906
C6A C 0.4160(5) 1.4301(6) 0.13522(15)
C7A C 0.3903(3) 1.4475(4) 0.12497(16)
C8A C 0.3984(4) 1.4918(6) 0.11946(17)
H5A H 0.427818 1.519027 0.121418
C9A C 0.3626(5) 1.4955(6) 0.11101(17)
H6A H 0.367959 1.525047 0.107321
C10A C 0.3186(4) 1.4547(6) 0.10808(16)
H7A H 0.294615 1.457125 0.102431
C11A C 0.3105(3) 1.4104(5) 0.11360(17)
H8A H 0.281131 1.383186 0.111637
C12A C 0.3464(4) 1.4068(5) 0.12204(16)
C13A C 0.2414(6) 1.2215(11) 0.12345(19)
C14A C 0.2553(6) 1.2424(10) 0.13944(17)
C15A C 0.2905(7) 1.2902(11) 0.1409(2)
H9A H 0.299798 1.304204 0.151584
C16A C 0.3118(7) 1.3170(11) 0.1263(3)
C17A C 0.2979(8) 1.2961(13) 0.1103(3)
H10A H 0.312095 1.314001 0.100609
C18A C 0.2627(7) 1.2483(11) 0.10890(18)
H11A H 0.253406 1.234313 0.098198
C19A C 0.1923(5) 1.1675(7) 0.14288(9)
C20A C 0.2234(4) 1.2086(6) 0.15178(12)
C21A C 0.2204(4) 1.2100(6) 0.16941(12)
H12A H 0.241212 1.237487 0.175359
C22A C 0.1861(4) 1.1700(6) 0.17815(9)
C23A C 0.1550(4) 1.1289(6) 0.16926(12)
H13A H 0.132092 1.102147 0.175113
C24A C 0.1581(5) 1.1276(8) 0.15163(12)
H14A H 0.137214 1.100047 0.145680
N2A N 0.1979(7) 1.1757(11) 0.12556(19)
N3A N 0.1800(4) 1.1709(6) 0.19561(11)
C25A C 0.2142(3) 1.1821(4) 0.20782(8)
C26A C 0.2605(3) 1.1903(4) 0.20610(8)
H15A H 0.272333 1.189600 0.195366
C27A C 0.2891(2) 1.1995(4) 0.22041(11)
H16A H 0.320103 1.204935 0.219258
C28A C 0.2715(3) 1.2006(4) 0.23645(9)
H17A H 0.290619 1.206680 0.246030
C29A C 0.2252(3) 1.1924(4) 0.23818(8)
H18A H 0.213364 1.193089 0.248910
C30A C 0.1966(2) 1.1832(3) 0.22386(10)
C31A C 0.1493(3) 1.1751(4) 0.22155(11)
C32A C 0.1139(4) 1.1734(6) 0.23209(8)
H19A H 0.119233 1.178365 0.243742
C33A C 0.0705(3) 1.1644(5) 0.22520(12)
H20A H 0.046869 1.163278 0.232246
C34A C 0.0625(3) 1.1570(5) 0.20778(12)
H21A H 0.033540 1.150967 0.203172
C35A C 0.0979(4) 1.1587(6) 0.19725(8)
H22A H 0.092576 1.153745 0.185592
C36A C 0.1413(3) 1.1677(4) 0.20413(10)
Cu1A Cu 0.03128(2) 1.20303(3) 0.08328(2)
Cu2A Cu 0.02419(2) 1.15315(3) 0.05564(2)
O1A O -0.01411(12) 1.21554(16) 0.07067(4)
O2A O -0.01587(14) 1.17726(18) 0.04669(4)
O3A O 0.07463(13) 1.18057(18) 0.09090(5)
O4A O 0.06432(13) 1.13441(17) 0.06799(5)
O5A O 0.16668(13) 1.02281(22) 0.09181(5)
O6A O 0.13421(12) 1.03126(21) 0.06799(5)
O7A O -0.17152(12) 1.08409(22) -0.07159(5)
O8A O -0.13198(12) 1.08129(22) -0.04863(4)
O9A O 0.03440(16) 1.24103(23) 0.10592(5)
O10A O 0.0183(2) 1.1096(3) 0.03468(9)
C37A C -0.02680(18) 1.20278(25) 0.05586(7)
C38A C -0.05717(17) 1.22011(23) 0.04750(6)
C39A C -0.0727(2) 1.24572(28) 0.05688(7)
H23A H -0.064339 1.252081 0.068308
C40A C -0.1005(2) 1.2620(3) 0.04948(8)
H24A H -0.112338 1.277779 0.056009
C41A C -0.1107(2) 1.25468(28) 0.03224(7)
H25A H -0.128021 1.267152 0.027085
C42A C -0.09547(19) 1.22871(26) 0.02254(7)
C43A C -0.06884(17) 1.21153(23) 0.03048(6)
H26A H -0.058625 1.193878 0.024214
C44A C -0.1065(2) 1.22083(28) 0.00457(8)
C45A C -0.1183(2) 1.21202(28) -0.00984(8)
C46A C -0.13546(19) 1.19630(34) -0.02679(7)
C47A C -0.1567(2) 1.2187(4) -0.03571(9)
H27A H -0.158950 1.243827 -0.030967
C48A C -0.1743(3) 1.2013(5) -0.05214(9)
H28A H -0.186856 1.216600 -0.058602
C49A C -0.1736(2) 1.1632(4) -0.05877(8)
H29A H -0.187184 1.151657 -0.069405
C50A C -0.15297(18) 1.14120(32) -0.04994(7)
C51A C -0.13354(18) 1.15794(32) -0.03407(7)
H30A H -0.119081 1.143566 -0.028185
C52A C -0.15194(18) 1.09929(32) -0.05711(7)
C53A C 0.08166(18) 1.15154(26) 0.08207(8)
C54A C 0.11338(17) 1.13565(25) 0.09033(7)
C55A C 0.14174(18) 1.15924(27) 0.10428(7)
H31A H 0.140484 1.184907 0.109022
C56A C 0.17128(19) 1.14518(28) 0.11107(7)
C57A C 0.17333(18) 1.10698(26) 0.10454(7)
H32A H 0.193043 1.097072 0.109508
C58A C 0.14594(17) 1.08332(24) 0.09053(7)
C59A C 0.11719(17) 1.09752(24) 0.08351(7)
H33A H 0.099400 1.081736 0.073909
C60A C 0.14885(17) 1.04243(30) 0.08268(8)
N1B N -0.3654(8) 0.9786(5) 0.1294(2)
C1B C -0.3810(6) 1.0064(4) 0.13714(18)
C2B C -0.3553(6) 1.0491(4) 0.1460(2)
H1B H -0.322467 1.062790 0.147296
C3B C -0.3789(6) 1.0712(4) 0.1530(2)
H2B H -0.361661 1.099791 0.158916
C4B C -0.4280(6) 1.0507(5) 0.1511(2)
H3B H -0.443685 1.065562 0.155721
C5B C -0.4536(7) 1.0081(5) 0.1422(2)
H4B H -0.486513 0.994333 0.140906
C6B C -0.4301(6) 0.9859(4) 0.13522(15)
C7B C -0.4475(4) 0.9428(3) 0.12497(16)
C8B C -0.4918(6) 0.9066(4) 0.11946(17)
H5B H -0.519027 0.908791 0.121418
C9B C -0.4955(6) 0.8671(4) 0.11101(17)
H6B H -0.525047 0.842912 0.107321
C10B C -0.4547(6) 0.8639(4) 0.10808(16)
H7B H -0.457125 0.837490 0.102431
C11B C -0.4104(5) 0.9001(4) 0.11360(17)
H8B H -0.383186 0.897945 0.111637
C12B C -0.4068(5) 0.9396(3) 0.12204(16)
C13B C -0.2215(11) 1.0199(9) 0.12345(19)
C14B C -0.2424(10) 1.0129(8) 0.13944(17)
C15B C -0.2902(11) 1.0003(8) 0.1409(2)
H9B H -0.304204 0.995594 0.151584
C16B C -0.3170(11) 0.9948(9) 0.1263(3)
C17B C -0.2961(13) 1.0018(10) 0.1103(3)
H10B H -0.314001 0.998094 0.100609
C18B C -0.2483(11) 1.0144(9) 0.10890(18)
H11B H -0.234313 1.019093 0.098198
C19B C -0.1675(7) 1.0248(5) 0.14288(9)
C20B C -0.2086(6) 1.0148(5) 0.15178(12)
C21B C -0.2100(6) 1.0104(4) 0.16941(12)
H12B H -0.237487 1.003725 0.175359
C22B C -0.1700(6) 1.0161(4) 0.17815(9)
C23B C -0.1289(6) 1.0261(5) 0.16926(12)
H13B H -0.102147 1.029945 0.175113
C24B C -0.1276(8) 1.0305(6) 0.15163(12)
H14B H -0.100047 1.037167 0.145680
N2B N -0.1757(11) 1.0222(8) 0.12556(19)
N3B N -0.1709(6) 1.0091(4) 0.19561(11)
C25B C -0.1821(4) 1.0321(3) 0.20782(8)
C26B C -0.1903(4) 1.0702(3) 0.20610(8)
H15B H -0.189600 1.082733 0.195366
C27B C -0.1995(4) 1.0896(3) 0.22041(11)
H16B H -0.204935 1.115168 0.219258
C28B C -0.2006(4) 1.0709(3) 0.23645(9)
H17B H -0.206680 1.083939 0.246030
C29B C -0.1924(4) 1.0328(3) 0.23818(8)
H18B H -0.193089 1.020275 0.248910
C30B C -0.1832(3) 1.0134(2) 0.22386(10)
C31B C -0.1751(4) 0.9742(3) 0.22155(11)
C32B C -0.1734(6) 0.9405(4) 0.23209(8)
H19B H -0.178365 0.940868 0.243742
C33B C -0.1644(5) 0.9061(4) 0.22520(12)
H20B H -0.163278 0.883591 0.232246
C34B C -0.1570(5) 0.9055(4) 0.20778(12)
H21B H -0.150967 0.882573 0.203172
C35B C -0.1587(6) 0.9392(4) 0.19725(8)
H22B H -0.153745 0.938831 0.185592
C36B C -0.1677(4) 0.9736(3) 0.20413(10)
Cu1B Cu -0.20303(3) 0.82825(2) 0.08328(2)
Cu2B Cu -0.15315(3) 0.87104(2) 0.05564(2)
O1B O -0.21554(16) 0.77035(11) 0.07067(4)
O2B O -0.17726(18) 0.80687(12) 0.04669(4)
O3B O -0.18057(18) 0.89406(13) 0.09090(5)
O4B O -0.13441(17) 0.92991(11) 0.06799(5)
O5B O -0.02281(22) 1.14387(18) 0.09181(5)
O6B O -0.03126(21) 1.10295(17) 0.06799(5)
O7B O -0.08409(22) 0.74439(18) -0.07159(5)
O8B O -0.08129(22) 0.78673(18) -0.04863(4)
O9B O -0.24103(23) 0.79337(17) 0.10592(5)
O10B O -0.1096(3) 0.9087(2) 0.03468(9)
C37B C -0.20278(25) 0.77042(18) 0.05586(7)
C38B C -0.22011(23) 0.72272(16) 0.04750(6)
C39B C -0.24572(28) 0.68158(19) 0.05688(7)
H23B H -0.252081 0.683580 0.068308
C40B C -0.2620(3) 0.6375(2) 0.04948(8)
H24B H -0.277779 0.609883 0.056009
C41B C -0.25468(28) 0.63462(19) 0.03224(7)
H25B H -0.267152 0.604827 0.027085
C42B C -0.22871(26) 0.67582(18) 0.02254(7)
C43B C -0.21153(23) 0.71963(16) 0.03048(6)
H26B H -0.193878 0.747497 0.024214
C44B C -0.22083(28) 0.67267(19) 0.00457(8)
C45B C -0.21202(28) 0.66968(19) -0.00984(8)
C46B C -0.19630(34) 0.66824(28) -0.02679(7)
C47B C -0.2187(4) 0.6246(3) -0.03571(9)
H27B H -0.243827 0.597223 -0.030967
C48B C -0.2013(5) 0.6244(4) -0.05214(9)
H28B H -0.216600 0.596544 -0.058602
C49B C -0.1632(4) 0.6632(3) -0.05877(8)
H29B H -0.151657 0.661159 -0.069405
C50B C -0.14120(32) 0.70583(27) -0.04994(7)
C51B C -0.15794(32) 0.70852(26) -0.03407(7)
H30B H -0.143566 0.737353 -0.028185
C52B C -0.09929(32) 0.74877(26) -0.05711(7)
C53B C -0.15154(26) 0.93012(19) 0.08207(8)
C54B C -0.13565(25) 0.97773(18) 0.09033(7)
C55B C -0.15924(27) 0.9825(2) 0.10428(7)
H31B H -0.184907 0.955577 0.109022
C56B C -0.14518(28) 1.0261(2) 0.11107(7)
C57B C -0.10698(26) 1.06635(19) 0.10454(7)
H32B H -0.097072 1.095971 0.109508
C58B C -0.08332(24) 1.06262(17) 0.09053(7)
C59B C -0.09752(24) 1.01967(17) 0.08351(7)
H33B H -0.081736 1.017664 0.073909
C60B C -0.04243(30) 1.10642(25) 0.08268(8)
N1R N -0.0214(5) 1.3440(6) -0.1294(2)
C1R C 0.0064(4) 1.3874(4) -0.13714(18)
C2R C 0.0491(4) 1.4044(4) -0.1460(2)
H1R H 0.062790 1.385257 -0.147296
C3R C 0.0712(4) 1.4501(4) -0.1530(2)
H2R H 0.099791 1.461452 -0.158916
C4R C 0.0507(5) 1.4787(4) -0.1511(2)
H3R H 0.065562 1.509247 -0.155721
C5R C 0.0081(5) 1.4617(5) -0.1422(2)
H4R H -0.005667 1.480846 -0.140906
C6R C -0.0141(4) 1.4160(5) -0.13522(15)
C7R C -0.0572(3) 1.3903(3) -0.12497(16)
C8R C -0.0934(4) 1.3984(4) -0.11946(17)
H5R H -0.091209 1.427818 -0.121418
C9R C -0.1329(4) 1.3626(5) -0.11101(17)
H6R H -0.157088 1.367959 -0.107321
C10R C -0.1361(4) 1.3186(4) -0.10808(16)
H7R H -0.162510 1.294615 -0.102431
C11R C -0.0999(4) 1.3105(3) -0.11360(17)
H8R H -0.102055 1.281131 -0.111637
C12R C -0.0604(3) 1.3464(4) -0.12204(16)
C13R C 0.0199(9) 1.2414(6) -0.12345(19)
C14R C 0.0129(8) 1.2553(6) -0.13944(17)
C15R C 0.0003(8) 1.2905(7) -0.1409(2)
H9R H -0.004406 1.299798 -0.151584
C16R C -0.0052(9) 1.3118(7) -0.1263(3)
C17R C 0.0018(10) 1.2979(8) -0.1103(3)
H10R H -0.001906 1.312095 -0.100609
C18R C 0.0144(9) 1.2627(7) -0.10890(18)
H11R H 0.019093 1.253406 -0.098198
C19R C 0.0248(5) 1.1923(5) -0.14288(9)
C20R C 0.0148(5) 1.2234(4) -0.15178(12)
C21R C 0.0104(4) 1.2204(4) -0.16941(12)
H12R H 0.003725 1.241212 -0.175359
C22R C 0.0161(4) 1.1861(4) -0.17815(9)
C23R C 0.0261(5) 1.1550(4) -0.16926(12)
H13R H 0.029945 1.132092 -0.175113
C24R C 0.0305(6) 1.1581(5) -0.15163(12)
H14R H 0.037167 1.137214 -0.145680
N2R N 0.0222(8) 1.1979(7) -0.12556(19)
N3R N 0.0091(4) 1.1800(4) -0.19561(11)
C25R C 0.0321(3) 1.2142(3) -0.20782(8)
C26R C 0.0702(3) 1.2605(3) -0.20610(8)
H15R H 0.082733 1.272333 -0.195366
C27R C 0.0896(3) 1.2891(2) -0.22041(11)
H16R H 0.115168 1.320103 -0.219258
C28R C 0.0709(3) 1.2715(3) -0.23645(9)
H17R H 0.083939 1.290619 -0.246030
C29R C 0.0328(3) 1.2252(3) -0.23818(8)
H18R H 0.020275 1.213364 -0.248910
C30R C 0.0134(2) 1.1966(2) -0.22386(10)
C31R C -0.0258(3) 1.1493(3) -0.22155(11)
C32R C -0.0595(4) 1.1139(4) -0.23209(8)
H19R H -0.059132 1.119233 -0.243742
C33R C -0.0939(4) 1.0705(3) -0.22520(12)
H20R H -0.116409 1.046869 -0.232246
C34R C -0.0945(4) 1.0625(3) -0.20778(12)
H21R H -0.117427 1.033540 -0.203172
C35R C -0.0608(4) 1.0979(4) -0.19725(8)
H22R H -0.061169 1.092576 -0.185592
C36R C -0.0264(3) 1.1413(3) -0.20413(10)
Cu1R Cu -0.17175(2) 1.03128(2) -0.08328(2)
Cu2R Cu -0.12896(2) 1.02419(2) -0.05564(2)
O1R O -0.22965(11) 0.98589(12) -0.07067(4)
O2R O -0.19313(12) 0.98413(14) -0.04669(4)
O3R O -0.10594(13) 1.07463(13) -0.09090(5)
O4R O -0.07009(11) 1.06432(13) -0.06799(5)
O5R O 0.14387(18) 1.16668(13) -0.09181(5)
O6R O 0.10295(17) 1.13421(12) -0.06799(5)
O7R O -0.25561(18) 0.82848(12) 0.07159(5)
O8R O -0.21327(18) 0.86802(12) 0.04863(4)
O9R O -0.20663(17) 1.03440(16) -0.10592(5)
O10R O -0.0913(2) 1.0183(2) -0.03468(9)
C37R C -0.22958(18) 0.97320(18) -0.05586(7)
C38R C -0.27728(16) 0.94283(17) -0.04750(6)
C39R C -0.31842(19) 0.9273(2) -0.05688(7)
H23R H -0.316420 0.935661 -0.068308
C40R C -0.3625(2) 0.8995(2) -0.04948(8)
H24R H -0.390117 0.887662 -0.056009
C41R C -0.36538(19) 0.8893(2) -0.03224(7)
H25R H -0.395173 0.871979 -0.027085
C42R C -0.32418(18) 0.90453(19) -0.02254(7)
C43R C -0.28037(16) 0.93116(17) -0.03048(6)
H26R H -0.252503 0.941375 -0.024214
C44R C -0.32733(19) 0.8935(2) -0.00457(8)
C45R C -0.33032(19) 0.8817(2) 0.00984(8)
C46R C -0.33176(28) 0.86454(19) 0.02679(7)
C47R C -0.3754(3) 0.8433(2) 0.03571(9)
H27R H -0.402777 0.841050 0.030967
C48R C -0.3756(4) 0.8257(3) 0.05214(9)
H28R H -0.403456 0.813144 0.058602
C49R C -0.3368(3) 0.8264(2) 0.05877(8)
H29R H -0.338841 0.812816 0.069405
C50R C -0.29417(27) 0.84703(18) 0.04994(7)
C51R C -0.29148(26) 0.86646(18) 0.03407(7)
H30R H -0.262647 0.880919 0.028185
C52R C -0.25123(26) 0.84806(18) 0.05711(7)
C53R C -0.06988(19) 1.08166(18) -0.08207(8)
C54R C -0.02227(18) 1.11338(17) -0.09033(7)
C55R C -0.0175(2) 1.14174(18) -0.10428(7)
H31R H -0.044423 1.140484 -0.109022
C56R C 0.0261(2) 1.17128(19) -0.11107(7)
C57R C 0.06635(19) 1.17333(18) -0.10454(7)
H32R H 0.095971 1.193043 -0.109508
C58R C 0.06262(17) 1.14594(17) -0.09053(7)
C59R C 0.01967(17) 1.11719(17) -0.08351(7)
H33R H 0.017664 1.099400 -0.073909
C60R C 0.10642(25) 1.14885(17) -0.08268(8)
N1S N -0.3440(6) 0.6346(8) -0.1294(2)
C1S C -0.3874(4) 0.6190(6) -0.13714(18)
C2S C -0.4044(4) 0.6447(6) -0.1460(2)
H1S H -0.385257 0.677533 -0.147296
C3S C -0.4501(4) 0.6211(6) -0.1530(2)
H2S H -0.461452 0.638339 -0.158916
C4S C -0.4787(4) 0.5720(6) -0.1511(2)
H3S H -0.509247 0.556315 -0.155721
C5S C -0.4617(5) 0.5464(7) -0.1422(2)
H4S H -0.480846 0.513487 -0.140906
C6S C -0.4160(5) 0.5699(6) -0.13522(15)
C7S C -0.3903(3) 0.5525(4) -0.12497(16)
C8S C -0.3984(4) 0.5082(6) -0.11946(17)
H5S H -0.427818 0.480973 -0.121418
C9S C -0.3626(5) 0.5045(6) -0.11101(17)
H6S H -0.367959 0.474953 -0.107321
C10S C -0.3186(4) 0.5453(6) -0.10808(16)
H7S H -0.294615 0.542875 -0.102431
C11S C -0.3105(3) 0.5896(5) -0.11360(17)
H8S H -0.281131 0.616814 -0.111637
C12S C -0.3464(4) 0.5932(5) -0.12204(16)
C13S C -0.2414(6) 0.7785(11) -0.12345(19)
C14S C -0.2553(6) 0.7576(10) -0.13944(17)
C15S C -0.2905(7) 0.7098(11) -0.1409(2)
H9S H -0.299798 0.695796 -0.151584
C16S C -0.3118(7) 0.6830(11) -0.1263(3)
C17S C -0.2979(8) 0.7039(13) -0.1103(3)
H10S H -0.312095 0.685999 -0.100609
C18S C -0.2627(7) 0.7517(11) -0.10890(18)
H11S H -0.253406 0.765687 -0.098198
C19S C -0.1923(5) 0.8325(7) -0.14288(9)
C20S C -0.2234(4) 0.7914(6) -0.15178(12)
C21S C -0.2204(4) 0.7900(6) -0.16941(12)
H12S H -0.241212 0.762513 -0.175359
C22S C -0.1861(4) 0.8300(6) -0.17815(9)
C23S C -0.1550(4) 0.8711(6) -0.16926(12)
H13S H -0.132092 0.897853 -0.175113
C24S C -0.1581(5) 0.8724(8) -0.15163(12)
H14S H -0.137214 0.899953 -0.145680
N2S N -0.1979(7) 0.8243(11) -0.12556(19)
N3S N -0.1800(4) 0.8291(6) -0.19561(11)
C25S C -0.2142(3) 0.8179(4) -0.20782(8)
C26S C -0.2605(3) 0.8097(4) -0.20610(8)
H15S H -0.272333 0.810400 -0.195366
C27S C -0.2891(2) 0.8005(4) -0.22041(11)
H16S H -0.320103 0.795065 -0.219258
C28S C -0.2715(3) 0.7994(4) -0.23645(9)
H17S H -0.290619 0.793320 -0.246030
C29S C -0.2252(3) 0.8076(4) -0.23818(8)
H18S H -0.213364 0.806911 -0.248910
C30S C -0.1966(2) 0.8168(3) -0.22386(10)
C31S C -0.1493(3) 0.8249(4) -0.22155(11)
C32S C -0.1139(4) 0.8266(6) -0.23209(8)
H19S H -0.119233 0.821635 -0.243742
C33S C -0.0705(3) 0.8356(5) -0.22520(12)
H20S H -0.046869 0.836722 -0.232246
C34S C -0.0625(3) 0.8430(5) -0.20778(12)
H21S H -0.033540 0.849033 -0.203172
C35S C -0.0979(4) 0.8413(6) -0.19725(8)
H22S H -0.092576 0.846255 -0.185592
C36S C -0.1413(3) 0.8323(4) -0.20413(10)
Cu1S Cu -0.03128(2) 0.79697(3) -0.08328(2)
Cu2S Cu -0.02419(2) 0.84685(3) -0.05564(2)
O1S O 0.01411(12) 0.78446(16) -0.07067(4)
O2S O 0.01587(14) 0.82274(18) -0.04669(4)
O3S O -0.07463(13) 0.81943(18) -0.09090(5)
O4S O -0.06432(13) 0.86559(17) -0.06799(5)
O5S O -0.16668(13) 0.97719(22) -0.09181(5)
O6S O -0.13421(12) 0.96874(21) -0.06799(5)
O7S O 0.17152(12) 0.91591(22) 0.07159(5)
O8S O 0.13198(12) 0.91871(22) 0.04863(4)
O9S O -0.03440(16) 0.75897(23) -0.10592(5)
O10S O -0.0183(2) 0.8904(3) -0.03468(9)
C37S C 0.02680(18) 0.79722(25) -0.05586(7)
C38S C 0.05717(17) 0.77989(23) -0.04750(6)
C39S C 0.0727(2) 0.75428(28) -0.05688(7)
H23S H 0.064339 0.747919 -0.068308
C40S C 0.1005(2) 0.7380(3) -0.04948(8)
H24S H 0.112338 0.722221 -0.056009
C41S C 0.1107(2) 0.74532(28) -0.03224(7)
H25S H 0.128021 0.732848 -0.027085
C42S C 0.09547(19) 0.77129(26) -0.02254(7)
C43S C 0.06884(17) 0.78847(23) -0.03048(6)
H26S H 0.058625 0.806122 -0.024214
C44S C 0.1065(2) 0.77917(28) -0.00457(8)
C45S C 0.1183(2) 0.78798(28) 0.00984(8)
C46S C 0.13546(19) 0.80370(34) 0.02679(7)
C47S C 0.1567(2) 0.7813(4) 0.03571(9)
H27S H 0.158950 0.756173 0.030967
C48S C 0.1743(3) 0.7987(5) 0.05214(9)
H28S H 0.186856 0.783400 0.058602
C49S C 0.1736(2) 0.8368(4) 0.05877(8)
H29S H 0.187184 0.848343 0.069405
C50S C 0.15297(18) 0.85880(32) 0.04994(7)
C51S C 0.13354(18) 0.84206(32) 0.03407(7)
H30S H 0.119081 0.856434 0.028185
C52S C 0.15194(18) 0.90071(32) 0.05711(7)
C53S C -0.08166(18) 0.84846(26) -0.08207(8)
C54S C -0.11338(17) 0.86435(25) -0.09033(7)
C55S C -0.14174(18) 0.84076(27) -0.10428(7)
H31S H -0.140484 0.815093 -0.109022
C56S C -0.17128(19) 0.85482(28) -0.11107(7)
C57S C -0.17333(18) 0.89302(26) -0.10454(7)
H32S H -0.193043 0.902928 -0.109508
C58S C -0.14594(17) 0.91668(24) -0.09053(7)
C59S C -0.11719(17) 0.90248(24) -0.08351(7)
H33S H -0.099400 0.918264 -0.073909
C60S C -0.14885(17) 0.95757(30) -0.08268(8)
N1T N 0.3654(8) 1.0214(5) -0.1294(2)
C1T C 0.3810(6) 0.9936(4) -0.13714(18)
C2T C 0.3553(6) 0.9509(4) -0.1460(2)
H1T H 0.322467 0.937210 -0.147296
C3T C 0.3789(6) 0.9288(4) -0.1530(2)
H2T H 0.361661 0.900209 -0.158916
C4T C 0.4280(6) 0.9493(5) -0.1511(2)
H3T H 0.443685 0.934438 -0.155721
C5T C 0.4536(7) 0.9919(5) -0.1422(2)
H4T H 0.486513 1.005667 -0.140906
C6T C 0.4301(6) 1.0141(4) -0.13522(15)
C7T C 0.4475(4) 1.0572(3) -0.12497(16)
C8T C 0.4918(6) 1.0934(4) -0.11946(17)
H5T H 0.519027 1.091209 -0.121418
C9T C 0.4955(6) 1.1329(4) -0.11101(17)
H6T H 0.525047 1.157088 -0.107321
C10T C 0.4547(6) 1.1361(4) -0.10808(16)
H7T H 0.457125 1.162510 -0.102431
C11T C 0.4104(5) 1.0999(4) -0.11360(17)
H8T H 0.383186 1.102055 -0.111637
C12T C 0.4068(5) 1.0604(3) -0.12204(16)
C13T C 0.2215(11) 0.9801(9) -0.12345(19)
C14T C 0.2424(10) 0.9871(8) -0.13944(17)
C15T C 0.2902(11) 0.9997(8) -0.1409(2)
H9T H 0.304204 1.004406 -0.151584
C16T C 0.3170(11) 1.0052(9) -0.1263(3)
C17T C 0.2961(13) 0.9982(10) -0.1103(3)
H10T H 0.314001 1.001906 -0.100609
C18T C 0.2483(11) 0.9856(9) -0.10890(18)
H11T H 0.234313 0.980907 -0.098198
C19T C 0.1675(7) 0.9752(5) -0.14288(9)
C20T C 0.2086(6) 0.9852(5) -0.15178(12)
C21T C 0.2100(6) 0.9896(4) -0.16941(12)
H12T H 0.237487 0.996275 -0.175359
C22T C 0.1700(6) 0.9839(4) -0.17815(9)
C23T C 0.1289(6) 0.9739(5) -0.16926(12)
H13T H 0.102147 0.970055 -0.175113
C24T C 0.1276(8) 0.9695(6) -0.15163(12)
H14T H 0.100047 0.962833 -0.145680
N2T N 0.1757(11) 0.9778(8) -0.12556(19)
N3T N 0.1709(6) 0.9909(4) -0.19561(11)
C25T C 0.1821(4) 0.9679(3) -0.20782(8)
C26T C 0.1903(4) 0.9298(3) -0.20610(8)
H15T H 0.189600 0.917267 -0.195366
C27T C 0.1995(4) 0.9104(3) -0.22041(11)
H16T H 0.204935 0.884832 -0.219258
C28T C 0.2006(4) 0.9291(3) -0.23645(9)
H17T H 0.206680 0.916061 -0.246030
C29T C 0.1924(4) 0.9672(3) -0.23818(8)
H18T H 0.193089 0.979725 -0.248910
C30T C 0.1832(3) 0.9866(2) -0.22386(10)
C31T C 0.1751(4) 1.0258(3) -0.22155(11)
C32T C 0.1734(6) 1.0595(4) -0.23209(8)
H19T H 0.178365 1.059132 -0.243742
C33T C 0.1644(5) 1.0939(4) -0.22520(12)
H20T H 0.163278 1.116409 -0.232246
C34T C 0.1570(5) 1.0945(4) -0.20778(12)
H21T H 0.150967 1.117427 -0.203172
C35T C 0.1587(6) 1.0608(4) -0.19725(8)
H22T H 0.153745 1.061169 -0.185592
C36T C 0.1677(4) 1.0264(3) -0.20413(10)
Cu1T Cu 0.20303(3) 1.17175(2) -0.08328(2)
Cu2T Cu 0.15315(3) 1.12896(2) -0.05564(2)
O1T O 0.21554(16) 1.22965(11) -0.07067(4)
O2T O 0.17726(18) 1.19313(12) -0.04669(4)
O3T O 0.18057(18) 1.10594(13) -0.09090(5)
O4T O 0.13441(17) 1.07009(11) -0.06799(5)
O5T O 0.02281(22) 0.85613(18) -0.09181(5)
O6T O 0.03126(21) 0.89705(17) -0.06799(5)
O7T O 0.08409(22) 1.25561(18) 0.07159(5)
O8T O 0.08129(22) 1.21327(18) 0.04863(4)
O9T O 0.24103(23) 1.20663(17) -0.10592(5)
O10T O 0.1096(3) 1.0913(2) -0.03468(9)
C37T C 0.20278(25) 1.22958(18) -0.05586(7)
C38T C 0.22011(23) 1.27728(16) -0.04750(6)
C39T C 0.24572(28) 1.31842(19) -0.05688(7)
H23T H 0.252081 1.316420 -0.068308
C40T C 0.2620(3) 1.3625(2) -0.04948(8)
H24T H 0.277779 1.390117 -0.056009
C41T C 0.25468(28) 1.36538(19) -0.03224(7)
H25T H 0.267152 1.395173 -0.027085
C42T C 0.22871(26) 1.32418(18) -0.02254(7)
C43T C 0.21153(23) 1.28037(16) -0.03048(6)
H26T H 0.193878 1.252503 -0.024214
C44T C 0.22083(28) 1.32733(19) -0.00457(8)
C45T C 0.21202(28) 1.33032(19) 0.00984(8)
C46T C 0.19630(34) 1.33176(28) 0.02679(7)
C47T C 0.2187(4) 1.3754(3) 0.03571(9)
H27T H 0.243827 1.402777 0.030967
C48T C 0.2013(5) 1.3756(4) 0.05214(9)
H28T H 0.216600 1.403456 0.058602
C49T C 0.1632(4) 1.3368(3) 0.05877(8)
H29T H 0.151657 1.338841 0.069405
C50T C 0.14120(32) 1.29417(27) 0.04994(7)
C51T C 0.15794(32) 1.29148(26) 0.03407(7)
H30T H 0.143566 1.262647 0.028185
C52T C 0.09929(32) 1.25123(26) 0.05711(7)
C53T C 0.15154(26) 1.06988(19) -0.08207(8)
C54T C 0.13565(25) 1.02227(18) -0.09033(7)
C55T C 0.15924(27) 1.0175(2) -0.10428(7)
H31T H 0.184907 1.044423 -0.109022
C56T C 0.14518(28) 0.9739(2) -0.11107(7)
C57T C 0.10698(26) 0.93365(19) -0.10454(7)
H32T H 0.097072 0.904029 -0.109508
C58T C 0.08332(24) 0.93738(17) -0.09053(7)
C59T C 0.09752(24) 0.98033(17) -0.08351(7)
H33T H 0.081736 0.982336 -0.073909
C60T C 0.04243(30) 0.89358(25) -0.08268(8)
C61? C 0.0427(3) 0.6531(4) 0.11869(14)
C62? C 0.0809(4) 0.6898(3) 0.10998(14)
H34? H 0.083831 0.719871 0.109400
C63? C 0.1146(3) 0.6814(3) 0.10215(13)
H35? H 0.140117 0.705971 0.096327
C64? C 0.1101(4) 0.6364(4) 0.10302(12)
H36? H 0.132687 0.630855 0.097782
C65? C 0.0719(4) 0.5997(3) 0.11173(14)
H37? H 0.068971 0.569639 0.112312
C66? C 0.0382(3) 0.6081(3) 0.11956(15)
C67? C -0.0045(5) 0.5787(7) 0.13039(19)
C68? C -0.0269(7) 0.5316(6) 0.1360(3)
H38? H -0.014017 0.512308 0.133297
C69? C -0.0685(7) 0.5133(6) 0.1456(3)
H39? H -0.083486 0.481781 0.149322
C70? C -0.0878(5) 0.5421(9) 0.1496(3)
H40? H -0.115603 0.529863 0.156016
C71? C -0.0654(6) 0.5892(8) 0.1440(3)
H41? H -0.078251 0.608473 0.146686
C72? C -0.0238(5) 0.6075(6) 0.1344(2)
N4? N 0.0045(6) 0.6532(8) 0.1277(3)
N5? N -0.0335(4) 0.8330(4) 0.19272(13)
C73? C -0.0708(3) 0.8308(3) 0.20122(10)
C74? C -0.1180(3) 0.8112(4) 0.19601(10)
H42? H -0.127135 0.797528 0.185247
C75? C -0.1515(3) 0.8120(4) 0.20687(13)
H43? H -0.183144 0.798841 0.203379
C76? C -0.1379(3) 0.8323(4) 0.22295(12)
H44? H -0.160331 0.832863 0.230221
C77? C -0.0907(4) 0.8519(4) 0.22817(10)
H45? H -0.081510 0.865570 0.238930
C78? C -0.0571(3) 0.8511(3) 0.21731(11)
C79? C 0.0051(3) 0.8559(3) 0.20351(11)
C80? C -0.0074(3) 0.8677(3) 0.21895(13)
C81? C 0.0271(4) 0.8913(4) 0.23140(10)
H46? H 0.018760 0.899224 0.241729
C82? C 0.0742(4) 0.9032(4) 0.22840(13)
H47? H 0.097284 0.919003 0.236723
C83? C 0.0867(3) 0.8914(4) 0.21295(14)
H48? H 0.118138 0.899324 0.210947
C84? C 0.0521(4) 0.8678(3) 0.20051(11)
H49? H 0.060469 0.859868 0.190177
N6? N -0.0347(8) 0.7981(6) 0.12415(17)
C85? C -0.0298(5) 0.8144(5) 0.14050(10)
C86? C -0.0382(5) 0.8496(4) 0.14691(12)
H50? H -0.043435 0.869002 0.139501
C87? C -0.0387(4) 0.8559(4) 0.16441(13)
H51? H -0.044320 0.879529 0.168704
C88? C -0.0309(4) 0.8270(4) 0.17549(10)
C89? C -0.0226(5) 0.7918(4) 0.16908(13)
H52? H -0.017323 0.772396 0.176489
C90? C -0.0220(4) 0.7855(4) 0.15158(14)
C91? C -0.0126(6) 0.7533(5) 0.14012(16)
C92? C -0.0028(5) 0.7163(5) 0.14191(19)
H53? H 0.001325 0.706992 0.152703
C93? C 0.0009(6) 0.6931(5) 0.1276(2)
C94? C -0.0052(6) 0.7070(5) 0.1114(2)
H54? H -0.002692 0.691495 0.101839
C95? C -0.0150(6) 0.7440(6) 0.10965(16)
H55? H -0.019070 0.753294 0.098858
C96? C -0.0187(6) 0.7672(5) 0.12399(18)
loop_
_geom_bond_atom_site_label_1
_geom_bond_atom_site_label_2
_geom_bond_site_symmetry_1
_geom_bond_site_symmetry_2
N1 C1 1_555 1_555
C1 C2 1_555 1_555
C2 H1 1_555 1_555
C3 C2 1_555 1_555
H2 C3 1_555 1_555
C4 C3 1_555 1_555
H3 C4 1_555 1_555
C5 C4 1_555 1_555
H4 C5 1_555 1_555
C6 C1 1_555 1_555
C7 C6 1_555 1_555
C8 C7 1_555 1_555
H5 C8 1_555 1_555
C9 C8 1_555 1_555
H6 C9 1_555 1_555
C10 C9 1_555 1_555
H7 C10 1_555 1_555
C11 C10 1_555 1_555
H8 C11 1_555 1_555
C12 N1 1_555 1_555
C13 C14 1_555 1_555
C14 C15 1_555 1_555
C15 H9 1_555 1_555
C16 N1 1_555 1_555
C17 C16 1_555 1_555
H10 C17 1_555 1_555
C18 C13 1_555 1_555
H11 C18 1_555 1_555
C19 C20 1_555 1_555
C20 C14 1_555 1_555
C21 C20 1_555 1_555
H12 C21 1_555 1_555
C22 C21 1_555 1_555
C23 C22 1_555 1_555
H13 C23 1_555 1_555
C24 C19 1_555 1_555
H14 C24 1_555 1_555
N2 C13 1_555 1_555
N3 C22 1_555 1_555
C25 N3 1_555 1_555
C26 C25 1_555 1_555
H15 C26 1_555 1_555
C27 C26 1_555 1_555
H16 C27 1_555 1_555
C28 C27 1_555 1_555
H17 C28 1_555 1_555
C29 C28 1_555 1_555
H18 C29 1_555 1_555
C30 C25 1_555 1_555
C31 C30 1_555 1_555
C32 C31 1_555 1_555
H19 C32 1_555 1_555
C33 C32 1_555 1_555
H20 C33 1_555 1_555
C34 C33 1_555 1_555
H21 C34 1_555 1_555
C35 C34 1_555 1_555
H22 C35 1_555 1_555
C36 N3 1_555 1_555
Cu1 Cu2 1_555 1_555
Cu2 O2 1_555 1_555
O1 Cu1 1_555 1_555
O2 C37 1_555 1_555
O3 Cu1 1_555 1_555
O4 Cu2 1_555 1_555
O5 C60 1_555 1_555
O6 C60 1_555 1_555
O7 C52 1_555 1_555
O8 C52 1_555 1_555
O9 Cu1 1_555 1_555
O10 Cu2 1_555 1_555
C37 O1 1_555 1_555
C38 C37 1_555 1_555
C39 C38 1_555 1_555
H23 C39 1_555 1_555
C40 C39 1_555 1_555
H24 C40 1_555 1_555
C41 C40 1_555 1_555
H25 C41 1_555 1_555
C42 C41 1_555 1_555
C43 C38 1_555 1_555
H26 C43 1_555 1_555
C44 C42 1_555 1_555
C45 C44 1_555 1_555
C46 C45 1_555 1_555
C47 C46 1_555 1_555
H27 C47 1_555 1_555
C48 C47 1_555 1_555
H28 C48 1_555 1_555
C49 C48 1_555 1_555
H29 C49 1_555 1_555
C50 C49 1_555 1_555
C51 C46 1_555 1_555
H30 C51 1_555 1_555
C52 C50 1_555 1_555
C53 O3 1_555 1_555
C54 C53 1_555 1_555
C55 C54 1_555 1_555
H31 C55 1_555 1_555
C56 N2 1_555 1_555
C57 C56 1_555 1_555
H32 C57 1_555 1_555
C58 C57 1_555 1_555
C59 C54 1_555 1_555
H33 C59 1_555 1_555
C60 C58 1_555 1_555
N1A C1A 1_555 1_555
C1A C2A 1_555 1_555
C2A H1A 1_555 1_555
C3A C2A 1_555 1_555
H2A C3A 1_555 1_555
C4A C3A 1_555 1_555
H3A C4A 1_555 1_555
C5A C4A 1_555 1_555
H4A C5A 1_555 1_555
C6A C1A 1_555 1_555
C7A C6A 1_555 1_555
C8A C7A 1_555 1_555
H5A C8A 1_555 1_555
C9A C8A 1_555 1_555
H6A C9A 1_555 1_555
C10A C9A 1_555 1_555
H7A C10A 1_555 1_555
C11A C10A 1_555 1_555
H8A C11A 1_555 1_555
C12A N1A 1_555 1_555
C13A C14A 1_555 1_555
C14A C15A 1_555 1_555
C15A H9A 1_555 1_555
C16A N1A 1_555 1_555
C17A C16A 1_555 1_555
H10A C17A 1_555 1_555
C18A C13A 1_555 1_555
H11A C18A 1_555 1_555
C19A C20A 1_555 1_555
C20A C14A 1_555 1_555
C21A C20A 1_555 1_555
H12A C21A 1_555 1_555
C22A C21A 1_555 1_555
C23A C22A 1_555 1_555
H13A C23A 1_555 1_555
C24A C19A 1_555 1_555
H14A C24A 1_555 1_555
N2A C13A 1_555 1_555
N3A C22A 1_555 1_555
C25A N3A 1_555 1_555
C26A C25A 1_555 1_555
H15A C26A 1_555 1_555
C27A C26A 1_555 1_555
H16A C27A 1_555 1_555
C28A C27A 1_555 1_555
H17A C28A 1_555 1_555
C29A C28A 1_555 1_555
H18A C29A 1_555 1_555
C30A C25A 1_555 1_555
C31A C30A 1_555 1_555
C32A C31A 1_555 1_555
H19A C32A 1_555 1_555
C33A C32A 1_555 1_555
H20A C33A 1_555 1_555
C34A C33A 1_555 1_555
H21A C34A 1_555 1_555
C35A C34A 1_555 1_555
H22A C35A 1_555 1_555
C36A N3A 1_555 1_555
Cu1A Cu2A 1_555 1_555
Cu2A O2A 1_555 1_555
O1A Cu1A 1_555 1_555
O2A C37A 1_555 1_555
O3A Cu1A 1_555 1_555
O4A Cu2A 1_555 1_555
O5A Cu1 1_555 1_555
O6A Cu2 1_555 1_555
O7A C52A 1_555 1_555
O8A C52A 1_555 1_555
O9A Cu1A 1_555 1_555
O10A Cu2A 1_555 1_555
C37A O1A 1_555 1_555
C38A C37A 1_555 1_555
C39A C38A 1_555 1_555
H23A C39A 1_555 1_555
C40A C39A 1_555 1_555
H24A C40A 1_555 1_555
C41A C40A 1_555 1_555
H25A C41A 1_555 1_555
C42A C41A 1_555 1_555
C43A C38A 1_555 1_555
H26A C43A 1_555 1_555
C44A C42A 1_555 1_555
C45A C44A 1_555 1_555
C46A C45A 1_555 1_555
C47A C46A 1_555 1_555
H27A C47A 1_555 1_555
C48A C47A 1_555 1_555
H28A C48A 1_555 1_555
C49A C48A 1_555 1_555
H29A C49A 1_555 1_555
C50A C49A 1_555 1_555
C51A C46A 1_555 1_555
H30A C51A 1_555 1_555
C52A C50A 1_555 1_555
C53A O3A 1_555 1_555
C54A C53A 1_555 1_555
C55A C54A 1_555 1_555
H31A C55A 1_555 1_555
C56A N2A 1_555 1_555
C57A C56A 1_555 1_555
H32A C57A 1_555 1_555
C58A C57A 1_555 1_555
C59A C54A 1_555 1_555
H33A C59A 1_555 1_555
C60A O5A 1_555 1_555
N1B C1B 1_555 1_555
C1B C2B 1_555 1_555
C2B H1B 1_555 1_555
C3B C2B 1_555 1_555
H2B C3B 1_555 1_555
C4B C3B 1_555 1_555
H3B C4B 1_555 1_555
C5B C4B 1_555 1_555
H4B C5B 1_555 1_555
C6B C1B 1_555 1_555
C7B C6B 1_555 1_555
C8B C7B 1_555 1_555
H5B C8B 1_555 1_555
C9B C8B 1_555 1_555
H6B C9B 1_555 1_555
C10B C9B 1_555 1_555
H7B C10B 1_555 1_555
C11B C10B 1_555 1_555
H8B C11B 1_555 1_555
C12B N1B 1_555 1_555
C13B C14B 1_555 1_555
C14B C15B 1_555 1_555
C15B H9B 1_555 1_555
C16B N1B 1_555 1_555
C17B C16B 1_555 1_555
H10B C17B 1_555 1_555
C18B C13B 1_555 1_555
H11B C18B 1_555 1_555
C19B C20B 1_555 1_555
C20B C14B 1_555 1_555
C21B C20B 1_555 1_555
H12B C21B 1_555 1_555
C22B C21B 1_555 1_555
C23B C22B 1_555 1_555
H13B C23B 1_555 1_555
C24B C19B 1_555 1_555
H14B C24B 1_555 1_555
N2B C13B 1_555 1_555
N3B C22B 1_555 1_555
C25B N3B 1_555 1_555
C26B C25B 1_555 1_555
H15B C26B 1_555 1_555
C27B C26B 1_555 1_555
H16B C27B 1_555 1_555
C28B C27B 1_555 1_555
H17B C28B 1_555 1_555
C29B C28B 1_555 1_555
H18B C29B 1_555 1_555
C30B C25B 1_555 1_555
C31B C30B 1_555 1_555
C32B C31B 1_555 1_555
H19B C32B 1_555 1_555
C33B C32B 1_555 1_555
H20B C33B 1_555 1_555
C34B C33B 1_555 1_555
H21B C34B 1_555 1_555
C35B C34B 1_555 1_555
H22B C35B 1_555 1_555
C36B N3B 1_555 1_555
Cu1B O5 1_555 1_555
Cu2B O6 1_555 1_555
O1B Cu1B 1_555 1_555
O2B Cu2B 1_555 1_555
O3B Cu1B 1_555 1_555
O4B Cu2B 1_555 1_555
O5B Cu1A 1_555 1_555
O6B Cu2A 1_555 1_555
O7B C52B 1_555 1_555
O8B C52B 1_555 1_555
O9B Cu1B 1_555 1_555
O10B Cu2B 1_555 1_555
C37B O1B 1_555 1_555
C38B C37B 1_555 1_555
C39B C38B 1_555 1_555
H23B C39B 1_555 1_555
C40B C39B 1_555 1_555
H24B C40B 1_555 1_555
C41B C40B 1_555 1_555
H25B C41B 1_555 1_555
C42B C41B 1_555 1_555
C43B C38B 1_555 1_555
H26B C43B 1_555 1_555
C44B C42B 1_555 1_555
C45B C44B 1_555 1_555
C46B C45B 1_555 1_555
C47B C46B 1_555 1_555
H27B C47B 1_555 1_555
C48B C47B 1_555 1_555
H28B C48B 1_555 1_555
C49B C48B 1_555 1_555
H29B C49B 1_555 1_555
C50B C49B 1_555 1_555
C51B C46B 1_555 1_555
H30B C51B 1_555 1_555
C52B C50B 1_555 1_555
C53B O3B 1_555 1_555
C54B C53B 1_555 1_555
C55B C54B 1_555 1_555
H31B C55B 1_555 1_555
C56B N2B 1_555 1_555
C57B C56B 1_555 1_555
H32B C57B 1_555 1_555
C58B C57B 1_555 1_555
C59B C54B 1_555 1_555
H33B C59B 1_555 1_555
C60B O5B 1_555 1_555
N1R C1R 1_555 1_555
C1R C2R 1_555 1_555
C2R H1R 1_555 1_555
C3R C2R 1_555 1_555
H2R C3R 1_555 1_555
C4R C3R 1_555 1_555
H3R C4R 1_555 1_555
C5R C4R 1_555 1_555
H4R C5R 1_555 1_555
C6R C1R 1_555 1_555
C7R C6R 1_555 1_555
C8R C7R 1_555 1_555
H5R C8R 1_555 1_555
C9R C8R 1_555 1_555
H6R C9R 1_555 1_555
C10R C9R 1_555 1_555
H7R C10R 1_555 1_555
C11R C10R 1_555 1_555
H8R C11R 1_555 1_555
C12R N1R 1_555 1_555
C13R C14R 1_555 1_555
C14R C15R 1_555 1_555
C15R H9R 1_555 1_555
C16R N1R 1_555 1_555
C17R C16R 1_555 1_555
H10R C17R 1_555 1_555
C18R C13R 1_555 1_555
H11R C18R 1_555 1_555
C19R C20R 1_555 1_555
C20R C14R 1_555 1_555
C21R C20R 1_555 1_555
H12R C21R 1_555 1_555
C22R C21R 1_555 1_555
C23R C22R 1_555 1_555
H13R C23R 1_555 1_555
C24R C19R 1_555 1_555
H14R C24R 1_555 1_555
N2R C13R 1_555 1_555
N3R C22R 1_555 1_555
C25R N3R 1_555 1_555
C26R C25R 1_555 1_555
H15R C26R 1_555 1_555
C27R C26R 1_555 1_555
H16R C27R 1_555 1_555
C28R C27R 1_555 1_555
H17R C28R 1_555 1_555
C29R C28R 1_555 1_555
H18R C29R 1_555 1_555
C30R C25R 1_555 1_555
C31R C30R 1_555 1_555
C32R C31R 1_555 1_555
H19R C32R 1_555 1_555
C33R C32R 1_555 1_555
H20R C33R 1_555 1_555
C34R C33R 1_555 1_555
H21R C34R 1_555 1_555
C35R C34R 1_555 1_555
H22R C35R 1_555 1_555
C36R N3R 1_555 1_555
Cu1R O7A 1_555 1_555
Cu2R O8A 1_555 1_555
O1R Cu1R 1_555 1_555
O2R Cu2R 1_555 1_555
O3R Cu1R 1_555 1_555
O4R Cu2R 1_555 1_555
O5R C60R 1_555 1_555
O6R C60R 1_555 1_555
O7R Cu1B 1_555 1_555
O8R Cu2B 1_555 1_555
O9R Cu1R 1_555 1_555
O10R Cu2R 1_555 1_555
C37R O1R 1_555 1_555
C38R C37R 1_555 1_555
C39R C38R 1_555 1_555
H23R C39R 1_555 1_555
C40R C39R 1_555 1_555
H24R C40R 1_555 1_555
C41R C40R 1_555 1_555
H25R C41R 1_555 1_555
C42R C41R 1_555 1_555
C43R C38R 1_555 1_555
H26R C43R 1_555 1_555
C44R C42R 1_555 1_555
C45R C44R 1_555 1_555
C46R C45R 1_555 1_555
C47R C46R 1_555 1_555
H27R C47R 1_555 1_555
C48R C47R 1_555 1_555
H28R C48R 1_555 1_555
C49R C48R 1_555 1_555
H29R C49R 1_555 1_555
C50R C49R 1_555 1_555
C51R C46R 1_555 1_555
H30R C51R 1_555 1_555
C52R O7R 1_555 1_555
C53R O3R 1_555 1_555
C54R C53R 1_555 1_555
C55R C54R 1_555 1_555
H31R C55R 1_555 1_555
C56R N2R 1_555 1_555
C57R C56R 1_555 1_555
H32R C57R 1_555 1_555
C58R C57R 1_555 1_555
C59R C54R 1_555 1_555
H33R C59R 1_555 1_555
C60R C58R 1_555 1_555
N1S C1S 1_555 1_555
C1S C2S 1_555 1_555
C2S H1S 1_555 1_555
C3S C2S 1_555 1_555
H2S C3S 1_555 1_555
C4S C3S 1_555 1_555
H3S C4S 1_555 1_555
C5S C4S 1_555 1_555
H4S C5S 1_555 1_555
C6S C1S 1_555 1_555
C7S C6S 1_555 1_555
C8S C7S 1_555 1_555
H5S C8S 1_555 1_555
C9S C8S 1_555 1_555
H6S C9S 1_555 1_555
C10S C9S 1_555 1_555
H7S C10S 1_555 1_555
C11S C10S 1_555 1_555
H8S C11S 1_555 1_555
C12S N1S 1_555 1_555
C13S C14S 1_555 1_555
C14S C15S 1_555 1_555
C15S H9S 1_555 1_555
C16S N1S 1_555 1_555
C17S C16S 1_555 1_555
H10S C17S 1_555 1_555
C18S C13S 1_555 1_555
H11S C18S 1_555 1_555
C19S C20S 1_555 1_555
C20S C14S 1_555 1_555
C21S C20S 1_555 1_555
H12S C21S 1_555 1_555
C22S C21S 1_555 1_555
C23S C22S 1_555 1_555
H13S C23S 1_555 1_555
C24S C19S 1_555 1_555
H14S C24S 1_555 1_555
N2S C13S 1_555 1_555
N3S C22S 1_555 1_555
C25S N3S 1_555 1_555
C26S C25S 1_555 1_555
H15S C26S 1_555 1_555
C27S C26S 1_555 1_555
H16S C27S 1_555 1_555
C28S C27S 1_555 1_555
H17S C28S 1_555 1_555
C29S C28S 1_555 1_555
H18S C29S 1_555 1_555
C30S C25S 1_555 1_555
C31S C30S 1_555 1_555
C32S C31S 1_555 1_555
H19S C32S 1_555 1_555
C33S C32S 1_555 1_555
H20S C33S 1_555 1_555
C34S C33S 1_555 1_555
H21S C34S 1_555 1_555
C35S C34S 1_555 1_555
H22S C35S 1_555 1_555
C36S N3S 1_555 1_555
Cu1S O7B 1_555 1_555
Cu2S O8B 1_555 1_555
O1S Cu1S 1_555 1_555
O2S Cu2S 1_555 1_555
O3S Cu1S 1_555 1_555
O4S Cu2S 1_555 1_555
O5S Cu1R 1_555 1_555
O6S Cu2R 1_555 1_555
O7S Cu1 1_555 1_555
O8S Cu2 1_555 1_555
O9S Cu1S 1_555 1_555
O10S Cu2S 1_555 1_555
C37S O1S 1_555 1_555
C38S C37S 1_555 1_555
C39S C38S 1_555 1_555
H23S C39S 1_555 1_555
C40S C39S 1_555 1_555
H24S C40S 1_555 1_555
C41S C40S 1_555 1_555
H25S C41S 1_555 1_555
C42S C41S 1_555 1_555
C43S C38S 1_555 1_555
H26S C43S 1_555 1_555
C44S C42S 1_555 1_555
C45S C44S 1_555 1_555
C46S C45S 1_555 1_555
C47S C46S 1_555 1_555
H27S C47S 1_555 1_555
C48S C47S 1_555 1_555
H28S C48S 1_555 1_555
C49S C48S 1_555 1_555
H29S C49S 1_555 1_555
C50S C49S 1_555 1_555
C51S C46S 1_555 1_555
H30S C51S 1_555 1_555
C52S O7S 1_555 1_555
C53S O3S 1_555 1_555
C54S C53S 1_555 1_555
C55S C54S 1_555 1_555
H31S C55S 1_555 1_555
C56S N2S 1_555 1_555
C57S C56S 1_555 1_555
H32S C57S 1_555 1_555
C58S C57S 1_555 1_555
C59S C54S 1_555 1_555
H33S C59S 1_555 1_555
C60S O5S 1_555 1_555
N1T C1T 1_555 1_555
C1T C2T 1_555 1_555
C2T H1T 1_555 1_555
C3T C2T 1_555 1_555
H2T C3T 1_555 1_555
C4T C3T 1_555 1_555
H3T C4T 1_555 1_555
C5T C4T 1_555 1_555
H4T C5T 1_555 1_555
C6T C1T 1_555 1_555
C7T C6T 1_555 1_555
C8T C7T 1_555 1_555
H5T C8T 1_555 1_555
C9T C8T 1_555 1_555
H6T C9T 1_555 1_555
C10T C9T 1_555 1_555
H7T C10T 1_555 1_555
C11T C10T 1_555 1_555
H8T C11T 1_555 1_555
C12T N1T 1_555 1_555
C13T C14T 1_555 1_555
C14T C15T 1_555 1_555
C15T H9T 1_555 1_555
C16T N1T 1_555 1_555
C17T C16T 1_555 1_555
H10T C17T 1_555 1_555
C18T C13T 1_555 1_555
H11T C18T 1_555 1_555
C19T C20T 1_555 1_555
C20T C14T 1_555 1_555
C21T C20T 1_555 1_555
H12T C21T 1_555 1_555
C22T C21T 1_555 1_555
C23T C22T 1_555 1_555
H13T C23T 1_555 1_555
C24T C19T 1_555 1_555
H14T C24T 1_555 1_555
N2T C13T 1_555 1_555
N3T C22T 1_555 1_555
C25T N3T 1_555 1_555
C26T C25T 1_555 1_555
H15T C26T 1_555 1_555
C27T C26T 1_555 1_555
H16T C27T 1_555 1_555
C28T C27T 1_555 1_555
H17T C28T 1_555 1_555
C29T C28T 1_555 1_555
H18T C29T 1_555 1_555
C30T C25T 1_555 1_555
C31T C30T 1_555 1_555
C32T C31T 1_555 1_555
H19T C32T 1_555 1_555
C33T C32T 1_555 1_555
H20T C33T 1_555 1_555
C34T C33T 1_555 1_555
H21T C34T 1_555 1_555
C35T C34T 1_555 1_555
H22T C35T 1_555 1_555
C36T N3T 1_555 1_555
Cu1T O7 1_555 1_555
Cu2T O8 1_555 1_555
O1T Cu1T 1_555 1_555
O2T Cu2T 1_555 1_555
O3T Cu1T 1_555 1_555
O4T Cu2T 1_555 1_555
O5T Cu1S 1_555 1_555
O6T Cu2S 1_555 1_555
O7T Cu1A 1_555 1_555
O8T Cu2A 1_555 1_555
O9T Cu1T 1_555 1_555
O10T Cu2T 1_555 1_555
C37T O1T 1_555 1_555
C38T C37T 1_555 1_555
C39T C38T 1_555 1_555
H23T C39T 1_555 1_555
C40T C39T 1_555 1_555
H24T C40T 1_555 1_555
C41T C40T 1_555 1_555
H25T C41T 1_555 1_555
C42T C41T 1_555 1_555
C43T C38T 1_555 1_555
H26T C43T 1_555 1_555
C44T C42T 1_555 1_555
C45T C44T 1_555 1_555
C46T C45T 1_555 1_555
C47T C46T 1_555 1_555
H27T C47T 1_555 1_555
C48T C47T 1_555 1_555
H28T C48T 1_555 1_555
C49T C48T 1_555 1_555
H29T C49T 1_555 1_555
C50T C49T 1_555 1_555
C51T C46T 1_555 1_555
H30T C51T 1_555 1_555
C52T O7T 1_555 1_555
C53T O3T 1_555 1_555
C54T C53T 1_555 1_555
C55T C54T 1_555 1_555
H31T C55T 1_555 1_555
C56T N2T 1_555 1_555
C57T C56T 1_555 1_555
H32T C57T 1_555 1_555
C58T C57T 1_555 1_555
C59T C54T 1_555 1_555
H33T C59T 1_555 1_555
C60T O5T 1_555 1_555
C5 C6 1_555 1_555
C7 C12 1_555 1_555
C11 C12 1_555 1_555
C15 C16 1_555 1_555
C17 C18 1_555 1_555
C19 N2 1_555 1_555
C23 C24 1_555 1_555
C29 C30 1_555 1_555
C31 C36 1_555 1_555
C35 C36 1_555 1_555
O4 C53 1_555 1_555
C42 C43 1_555 1_555
C50 C51 1_555 1_555
C55 C56 1_555 1_555
C58 C59 1_555 1_555
C5A C6A 1_555 1_555
C7A C12A 1_555 1_555
C11A C12A 1_555 1_555
C15A C16A 1_555 1_555
C17A C18A 1_555 1_555
C19A N2A 1_555 1_555
C23A C24A 1_555 1_555
C29A C30A 1_555 1_555
C31A C36A 1_555 1_555
C35A C36A 1_555 1_555
O4A C53A 1_555 1_555
O6A C60A 1_555 1_555
C42A C43A 1_555 1_555
C50A C51A 1_555 1_555
C55A C56A 1_555 1_555
C58A C59A 1_555 1_555
C58A C60A 1_555 1_555
C5B C6B 1_555 1_555
C7B C12B 1_555 1_555
C11B C12B 1_555 1_555
C15B C16B 1_555 1_555
C17B C18B 1_555 1_555
C19B N2B 1_555 1_555
C23B C24B 1_555 1_555
C29B C30B 1_555 1_555
C31B C36B 1_555 1_555
C35B C36B 1_555 1_555
Cu1B Cu2B 1_555 1_555
O2B C37B 1_555 1_555
O4B C53B 1_555 1_555
O6B C60B 1_555 1_555
C42B C43B 1_555 1_555
C50B C51B 1_555 1_555
C55B C56B 1_555 1_555
C58B C59B 1_555 1_555
C58B C60B 1_555 1_555
C5R C6R 1_555 1_555
C7R C12R 1_555 1_555
C11R C12R 1_555 1_555
C15R C16R 1_555 1_555
C17R C18R 1_555 1_555
C19R N2R 1_555 1_555
C23R C24R 1_555 1_555
C29R C30R 1_555 1_555
C31R C36R 1_555 1_555
C35R C36R 1_555 1_555
Cu1R Cu2R 1_555 1_555
O2R C37R 1_555 1_555
O4R C53R 1_555 1_555
O5R Cu1T 1_555 1_555
O6R Cu2T 1_555 1_555
O8R C52R 1_555 1_555
C42R C43R 1_555 1_555
C50R C51R 1_555 1_555
C50R C52R 1_555 1_555
C55R C56R 1_555 1_555
C58R C59R 1_555 1_555
C5S C6S 1_555 1_555
C7S C12S 1_555 1_555
C11S C12S 1_555 1_555
C15S C16S 1_555 1_555
C17S C18S 1_555 1_555
C19S N2S 1_555 1_555
C23S C24S 1_555 1_555
C29S C30S 1_555 1_555
C31S C36S 1_555 1_555
C35S C36S 1_555 1_555
Cu1S Cu2S 1_555 1_555
O2S C37S 1_555 1_555
O4S C53S 1_555 1_555
O6S C60S 1_555 1_555
O8S C52S 1_555 1_555
C42S C43S 1_555 1_555
C50S C51S 1_555 1_555
C50S C52S 1_555 1_555
C55S C56S 1_555 1_555
C58S C59S 1_555 1_555
C58S C60S 1_555 1_555
C5T C6T 1_555 1_555
C7T C12T 1_555 1_555
C11T C12T 1_555 1_555
C15T C16T 1_555 1_555
C17T C18T 1_555 1_555
C19T N2T 1_555 1_555
C23T C24T 1_555 1_555
C29T C30T 1_555 1_555
C31T C36T 1_555 1_555
C35T C36T 1_555 1_555
Cu1T Cu2T 1_555 1_555
O2T C37T 1_555 1_555
O4T C53T 1_555 1_555
O6T C60T 1_555 1_555
O8T C52T 1_555 1_555
C42T C43T 1_555 1_555
C50T C51T 1_555 1_555
C50T C52T 1_555 1_555
C55T C56T 1_555 1_555
C58T C59T 1_555 1_555
C58T C60T 1_555 1_555

#END
