
#######################################################################
#
#                 Cambridge Crystallographic Data Centre
#                                CCDC 
#
#######################################################################
#
# If this CIF has been generated from an entry in the Cambridge 
# Structural Database, then it will include bibliographic, chemical, 
# crystal, experimental, refinement or atomic coordinate data resulting 
# from the CCDC's data processing and validation procedures.
#
#######################################################################

data_TIBXEJ
_chemical_formula_moiety         'C82 H82 N6 O10 Ru4 4+,4(C1 F3 O3 S1 1-)'
_chemical_name_systematic        
'bis(\m~2~-N-(4-(Pyridin-4-ylethynyl)phenyl)isonicotinamide)-bis(\m~2~-oxalato)-tetrakis(\h^6^-1-methyl-4-isopropylbenzene)-tetra-ruthenium tetrakis(trifluoromethanesulfonate) unknown solvate'
_symmetry_cell_setting           monoclinic
_symmetry_space_group_name_H-M   'P 21/c'
_symmetry_Int_Tables_number      14
_space_group_name_Hall           '-P 2ybc'
loop_
_symmetry_equiv_pos_site_id
_symmetry_equiv_pos_as_xyz
1 x,y,z
2 -x,1/2+y,1/2-z
3 -x,-y,-z
4 x,1/2-y,1/2+z
_cell_length_a                   34.156(7)
_cell_length_b                   10.371(2)
_cell_length_c                   27.318(6)
_cell_angle_alpha                90
_cell_angle_beta                 98.05(3)
_cell_angle_gamma                90
_cell_volume                     9581.55
_cell_formula_units_Z            4
loop_
_atom_site_label
_atom_site_type_symbol
_atom_site_fract_x
_atom_site_fract_y
_atom_site_fract_z
O6 O 0.6560(4) 1.4335(10) 0.2165(4)
O7 O 0.6553(4) 1.1794(11) 0.2346(5)
O8 O 0.7134(4) 1.1939(10) 0.2752(4)
O9 O 0.7157(4) 1.4498(10) 0.2592(4)
C42 C 0.6848(4) 1.2517(15) 0.2500(5)
C43 C 0.6859(4) 1.3825(15) 0.2423(5)
O10 O 0.5075(7) 1.291(2) 0.3921(10)
N4 N 0.2916(4) 1.6516(18) 0.6439(4)
N5 N 0.5134(5) 1.4943(19) 0.4024(5)
H42 H 0.5278 1.5631 0.3986
N6 N 0.5928(5) 1.3450(19) 0.2624(6)
C44 C 0.3024(5) 1.5333(19) 0.6306(5)
H43 H 0.2905 1.4582 0.6419
C45 C 0.3076(5) 1.7572(19) 0.6271(6)
H44 H 0.2987 1.8387 0.6369
C46 C 0.3309(5) 1.524(2) 0.6004(6)
H45 H 0.3397 1.4427 0.5907
C47 C 0.3359(5) 1.755(2) 0.5969(6)
H46 H 0.3473 1.8313 0.5855
C48 C 0.3464(4) 1.635(2) 0.5845(5)
C49 C 0.3751(4) 1.628(3) 0.5533(5)
C50 C 0.4019(4) 1.602(3) 0.5242(5)
C51 C 0.4301(5) 1.587(2) 0.4935(5)
C52 C 0.4383(5) 1.464(2) 0.4821(6)
H47 H 0.4242 1.3968 0.4959
C53 C 0.4500(6) 1.687(2) 0.4745(6)
H48 H 0.4456 1.7752 0.4813
C54 C 0.4657(5) 1.428(2) 0.4518(6)
H49 H 0.4702 1.3401 0.4448
C55 C 0.4770(6) 1.646(2) 0.4445(7)
H50 H 0.4911 1.7125 0.4304
C56 C 0.4860(5) 1.523(2) 0.4326(6)
C57 C 0.5256(7) 1.396(2) 0.3766(9)
C58 C 0.5518(7) 1.390(2) 0.3420(8)
C59 C 0.5652(6) 1.270(2) 0.3329(8)
H51 H 0.5604 1.1998 0.3536
C60 C 0.5610(6) 1.4894(19) 0.3133(8)
H52 H 0.5539 1.5754 0.3202
C61 C 0.5859(7) 1.250(2) 0.2936(8)
H53 H 0.5955 1.1658 0.2884
C62 C 0.5805(6) 1.4632(19) 0.2749(8)
H54 H 0.5860 1.5338 0.2548
Ru3 Ru 0.75358(5) 1.33459(14) 0.30954(6)
Ru4 Ru 0.60895(5) 1.29695(16) 0.19498(6)
C63 C 0.8111(7) 1.331(2) 0.2185(7)
H55 H 0.8152 1.4182 0.2062
H56 H 0.7872 1.2939 0.1998
H57 H 0.8340 1.2772 0.2144
C64 C 0.8064(6) 1.338(2) 0.2735(7)
C65 C 0.8025(6) 1.2226(18) 0.2971(8)
H58 H 0.8023 1.1457 0.2782
C66 C 0.8037(5) 1.4495(16) 0.2996(7)
H59 H 0.8034 1.5311 0.2837
C67 C 0.7988(7) 1.2119(19) 0.3466(8)
H60 H 0.7957 1.1308 0.3618
C68 C 0.8014(5) 1.4407(17) 0.3492(7)
H61 H 0.8007 1.5178 0.3678
C69 C 0.7999(6) 1.325(2) 0.3727(6)
C70 C 0.7966(7) 1.304(2) 0.4283(7)
H62 H 0.7770 1.2337 0.4310
C71 C 0.8350(9) 1.265(3) 0.4553(11)
H63 H 0.8452 1.1910 0.4387
H64 H 0.8317 1.2406 0.4892
H65 H 0.8537 1.3368 0.4562
C72 C 0.7846(8) 1.416(2) 0.4525(9)
H66 H 0.7604 1.4510 0.4336
H67 H 0.8056 1.4809 0.4547
H68 H 0.7795 1.3929 0.4858
C73 C 0.5905(8) 0.9883(19) 0.1784(9)
H69 H 0.5701 0.9656 0.1989
H70 H 0.6166 0.9855 0.1986
H71 H 0.5897 0.9267 0.1511
C74 C 0.5827(7) 1.1257(19) 0.1574(9)
C75 C 0.6080(6) 1.188(2) 0.1303(8)
H72 H 0.6297 1.1404 0.1212
C76 C 0.5511(6) 1.194(2) 0.1696(9)
H73 H 0.5307 1.1513 0.1839
C77 C 0.6035(7) 1.316(2) 0.1154(8)
H74 H 0.6199 1.3534 0.0939
C78 C 0.5492(6) 1.324(2) 0.1609(9)
H75 H 0.5300 1.3736 0.1744
C79 C 0.5742(7) 1.3852(19) 0.1333(8)
C80 C 0.5649(9) 1.525(2) 0.1185(10)
H76 H 0.5454 1.5567 0.1399
C81 C 0.5970(8) 1.617(3) 0.1233(11)
H77 H 0.6202 1.5794 0.1433
H78 H 0.5890 1.6953 0.1394
H79 H 0.6034 1.6385 0.0904
C82 C 0.5452(10) 1.530(3) 0.0677(12)
H80 H 0.5405 1.4418 0.0551
H81 H 0.5620 1.5758 0.0472
H82 H 0.5199 1.5750 0.0665
O6B O 0.3440(4) 1.5665(10) 0.7835(4)
O7B O 0.3447(4) 1.8206(11) 0.7654(5)
O8B O 0.2866(4) 1.8061(10) 0.7248(4)
O9B O 0.2843(4) 1.5502(10) 0.7408(4)
C42B C 0.3152(4) 1.7483(15) 0.7500(5)
C43B C 0.3141(4) 1.6175(15) 0.7577(5)
O10B O 0.4925(7) 1.709(2) 0.6079(10)
N4B N 0.7084(4) 1.3484(18) 0.3561(4)
N5B N 0.4866(5) 1.5057(19) 0.5976(5)
H42B H 0.4722 1.4369 0.6014
N6B N 0.4072(5) 1.6550(19) 0.7376(6)
C44B C 0.6976(5) 1.4667(19) 0.3694(5)
H43B H 0.7095 1.5418 0.3581
C45B C 0.6924(5) 1.2428(19) 0.3729(6)
H44B H 0.7013 1.1613 0.3631
C46B C 0.6691(5) 1.476(2) 0.3996(6)
H45B H 0.6603 1.5573 0.4093
C47B C 0.6641(5) 1.245(2) 0.4031(6)
H46B H 0.6527 1.1687 0.4145
C48B C 0.6536(4) 1.365(2) 0.4155(5)
C49B C 0.6249(4) 1.372(3) 0.4467(5)
C50B C 0.5981(4) 1.398(3) 0.4758(5)
C51B C 0.5699(5) 1.413(2) 0.5065(5)
C52B C 0.5617(5) 1.536(2) 0.5179(6)
H47B H 0.5758 1.6032 0.5041
C53B C 0.5500(6) 1.313(2) 0.5255(6)
H48B H 0.5544 1.2248 0.5187
C54B C 0.5343(5) 1.572(2) 0.5482(6)
H49B H 0.5298 1.6599 0.5552
C55B C 0.5230(6) 1.354(2) 0.5555(7)
H50B H 0.5089 1.2875 0.5696
C56B C 0.5140(5) 1.477(2) 0.5674(6)
C57B C 0.4744(7) 1.604(2) 0.6234(9)
C58B C 0.4482(7) 1.610(2) 0.6580(8)
C59B C 0.4348(6) 1.730(2) 0.6671(8)
H51B H 0.4396 1.8002 0.6464
C60B C 0.4390(6) 1.5106(19) 0.6867(8)
H52B H 0.4461 1.4246 0.6798
C61B C 0.4141(7) 1.750(2) 0.7064(8)
H53B H 0.4045 1.8342 0.7116
C62B C 0.4195(6) 1.5368(19) 0.7251(8)
H54B H 0.4140 1.4662 0.7452
Ru3B Ru 0.24642(5) 1.66541(14) 0.69046(6)
Ru4B Ru 0.39105(5) 1.70305(16) 0.80502(6)
C63B C 0.1889(7) 1.669(2) 0.7815(7)
H55B H 0.1848 1.5818 0.7938
H56B H 0.2128 1.7061 0.8002
H57B H 0.1660 1.7228 0.7856
C64B C 0.1936(6) 1.662(2) 0.7265(7)
C65B C 0.1975(6) 1.7774(18) 0.7029(8)
H58B H 0.1977 1.8543 0.7218
C66B C 0.1963(5) 1.5505(16) 0.7004(7)
H59B H 0.1966 1.4689 0.7163
C67B C 0.2012(7) 1.7881(19) 0.6534(8)
H60B H 0.2043 1.8692 0.6382
C68B C 0.1986(5) 1.5593(17) 0.6508(7)
H61B H 0.1993 1.4822 0.6322
C69B C 0.2001(6) 1.675(2) 0.6273(6)
C70B C 0.2034(7) 1.696(2) 0.5717(7)
H62B H 0.2230 1.7663 0.5690
C71B C 0.1650(9) 1.735(3) 0.5447(11)
H63B H 0.1548 1.8090 0.5613
H64B H 0.1683 1.7594 0.5108
H65B H 0.1463 1.6632 0.5438
C72B C 0.2154(8) 1.584(2) 0.5475(9)
H66B H 0.2396 1.5490 0.5664
H67B H 0.1944 1.5191 0.5453
H68B H 0.2205 1.6071 0.5142
C73B C 0.4095(8) 2.0117(19) 0.8216(9)
H69B H 0.4299 2.0344 0.8011
H70B H 0.3834 2.0145 0.8014
H71B H 0.4103 2.0733 0.8489
C74B C 0.4173(7) 1.8743(19) 0.8426(9)
C75B C 0.3920(6) 1.812(2) 0.8697(8)
H72B H 0.3703 1.8596 0.8788
C76B C 0.4489(6) 1.806(2) 0.8304(9)
H73B H 0.4693 1.8487 0.8161
C77B C 0.3965(7) 1.684(2) 0.8846(8)
H74B H 0.3801 1.6466 0.9061
C78B C 0.4508(6) 1.676(2) 0.8391(9)
H75B H 0.4700 1.6264 0.8256
C79B C 0.4258(7) 1.6148(19) 0.8667(8)
C80B C 0.4351(9) 1.475(2) 0.8815(10)
H76B H 0.4546 1.4433 0.8601
C81B C 0.4030(8) 1.383(3) 0.8767(11)
H77B H 0.3798 1.4206 0.8567
H78B H 0.4110 1.3047 0.8606
H79B H 0.3966 1.3615 0.9096
C82B C 0.4548(10) 1.470(3) 0.9323(12)
H80B H 0.4595 1.5582 0.9449
H81B H 0.4380 1.4242 0.9528
H82B H 0.4801 1.4250 0.9335
Ru1 Ru 1.24942(5) 2.32561(13) 0.32772(6)
Ru2 Ru 1.10600(5) 2.35434(14) 0.21123(6)
O1 O 1.2108(4) 2.2185(10) 0.2758(4)
O2 O 1.2073(4) 2.4659(10) 0.2962(4)
O3 O 1.1498(4) 2.4784(10) 0.2530(4)
O4 O 1.1508(4) 2.2223(11) 0.2298(5)
C1 C 1.1793(4) 2.4072(15) 0.2688(5)
C2 C 1.1794(4) 2.2778(16) 0.2570(5)
O5 O 1.0024(7) 2.3141(16) 0.4117(8)
N1 N 0.7950(4) 1.7128(16) 0.6269(4)
N2 N 1.0074(5) 2.1117(18) 0.4048(6)
H1 H 1.0196 2.0480 0.3919
N3 N 1.0895(5) 2.3090(17) 0.2838(5)
C3 C 0.7983(5) 1.8396(18) 0.6193(6)
H2 H 0.7797 1.8987 0.6292
C4 C 0.8190(5) 1.6292(16) 0.6071(6)
H3 H 0.8149 1.5394 0.6107
C5 C 0.8285(5) 1.8806(18) 0.5972(7)
H4 H 0.8348 1.9698 0.5979
C6 C 0.8486(5) 1.6685(16) 0.5821(7)
H5 H 0.8669 1.6095 0.5713
C7 C 0.8505(5) 1.7966(16) 0.5737(7)
C8 C 0.8780(6) 1.8425(18) 0.5449(8)
C9 C 0.9013(6) 1.8973(18) 0.5156(9)
C10 C 0.9293(7) 1.9472(18) 0.4894(9)
C11 C 0.9308(6) 2.078(2) 0.4817(9)
H6 H 0.9141 2.1312 0.4980
C12 C 0.9557(5) 1.868(2) 0.4706(7)
H7 H 0.9557 1.7767 0.4742
C13 C 0.9550(6) 2.137(2) 0.4519(8)
H8 H 0.9529 2.2263 0.4446
C14 C 0.9824(7) 1.933(2) 0.4459(8)
H9 H 1.0034 1.8837 0.4362
C15 C 0.9819(7) 2.062(2) 0.4337(8)
C16 C 1.0202(6) 2.223(2) 0.3891(8)
C17 C 1.0456(6) 2.2433(19) 0.3549(7)
C18 C 1.0507(6) 2.3679(19) 0.3438(7)
H10 H 1.0380 2.4333 0.3602
C19 C 1.0638(6) 2.1484(18) 0.3328(8)
H11 H 1.0612 2.0605 0.3416
C20 C 1.0740(5) 2.4008(16) 0.3093(7)
H12 H 1.0792 2.4890 0.3034
C21 C 1.0857(6) 2.1834(17) 0.2981(7)
H13 H 1.0991 2.1183 0.2825
C22 C 1.0909(6) 2.6569(17) 0.1806(7)
H14 H 1.0693 2.6942 0.1961
H15 H 1.0940 2.7058 0.1507
H16 H 1.1155 2.6609 0.2038
C23 C 1.0811(8) 2.5135(16) 0.1666(8)
C24 C 1.0497(6) 2.449(2) 0.1821(9)
H17 H 1.0304 2.4946 0.1973
C25 C 1.1090(6) 2.451(2) 0.1393(7)
H18 H 1.1292 2.4990 0.1268
C26 C 1.0469(8) 2.321(3) 0.1755(11)
H19 H 1.0262 2.2771 0.1886
C27 C 1.1051(7) 2.310(2) 0.1313(7)
H20 H 1.1230 2.2631 0.1144
C28 C 1.0719(10) 2.248(2) 0.1510(10)
C29 C 1.0739(8) 2.097(2) 0.1439(10)
H21 H 1.1003 2.0599 0.1398
C30 C 1.0524(9) 2.034(3) 0.1814(10)
H22 H 1.0699 2.0282 0.2129
H23 H 1.0440 1.9475 0.1701
H24 H 1.0291 2.0857 0.1858
C31 C 1.0439(11) 2.099(5) 0.0997(11)
H25 H 1.0543 2.1456 0.0731
H26 H 1.0201 2.1426 0.1076
H27 H 1.0373 2.0105 0.0891
C32 C 1.3031(8) 2.325(3) 0.2333(8)
H28 H 1.3030 2.4142 0.2215
H29 H 1.2802 2.2790 0.2160
H30 H 1.3275 2.2821 0.2268
C33 C 1.3012(7) 2.324(3) 0.2898(8)
C34 C 1.2983(6) 2.443(2) 0.3206(11)
H31 H 1.2983 2.5263 0.3061
C35 C 1.3022(5) 2.2137(19) 0.3198(10)
H32 H 1.3069 2.1331 0.3052
C36 C 1.2955(5) 2.430(2) 0.3712(8)
H33 H 1.2954 2.5092 0.3885
C37 C 1.2967(6) 2.214(2) 0.3698(9)
H34 H 1.2954 2.1336 0.3865
C38 C 1.2930(7) 2.335(3) 0.3970(8)
C39 C 1.2894(6) 2.310(2) 0.4526(8)
H35 H 1.2675 2.2503 0.4582
C40 C 1.2834(10) 2.443(3) 0.4662(14)
H36 H 1.2582 2.4738 0.4486
H37 H 1.3050 2.4960 0.4572
H38 H 1.2829 2.4484 0.5019
C41 C 1.3281(8) 2.274(3) 0.4790(11)
H39 H 1.3320 2.1811 0.4760
H40 H 1.3294 2.2972 0.5140
H41 H 1.3488 2.3205 0.4648
Ru1B Ru 0.75058(5) 1.67439(13) 0.67228(6)
Ru2B Ru 0.89400(5) 1.64566(14) 0.78877(6)
O1B O 0.7892(4) 1.7815(10) 0.7242(4)
O2B O 0.7927(4) 1.5341(10) 0.7038(4)
O3B O 0.8502(4) 1.5216(10) 0.7470(4)
O4B O 0.8492(4) 1.7777(11) 0.7702(5)
C1B C 0.8207(4) 1.5928(15) 0.7312(5)
C2B C 0.8206(4) 1.7222(16) 0.7430(5)
O5B O 0.9976(7) 1.6859(16) 0.5883(8)
N1B N 1.2050(4) 2.2872(16) 0.3731(4)
N2B N 0.9926(5) 1.8883(18) 0.5952(6)
H1B H 0.9804 1.9520 0.6081
N3B N 0.9105(5) 1.6910(17) 0.7162(5)
C3B C 1.2017(5) 2.1604(18) 0.3807(6)
H2B H 1.2203 2.1013 0.3708
C4B C 1.1810(5) 2.3708(16) 0.3929(6)
H3B H 1.1851 2.4606 0.3893
C5B C 1.1715(5) 2.1194(18) 0.4028(7)
H4B H 1.1652 2.0302 0.4021
C6B C 1.1514(5) 2.3315(16) 0.4179(7)
H5B H 1.1331 2.3905 0.4287
C7B C 1.1495(5) 2.2034(16) 0.4263(7)
C8B C 1.1220(6) 2.1575(18) 0.4551(8)
C9B C 1.0987(6) 2.1027(18) 0.4844(9)
C10B C 1.0707(7) 2.0528(18) 0.5106(9)
C11B C 1.0692(6) 1.922(2) 0.5183(9)
H6B H 1.0859 1.8688 0.5020
C12B C 1.0443(5) 2.132(2) 0.5294(7)
H7B H 1.0443 2.2233 0.5258
C13B C 1.0450(6) 1.863(2) 0.5481(8)
H8B H 1.0471 1.7737 0.5554
C14B C 1.0176(7) 2.067(2) 0.5541(8)
H9B H 0.9966 2.1163 0.5638
C15B C 1.0181(7) 1.938(2) 0.5663(8)
C16B C 0.9798(6) 1.777(2) 0.6109(8)
C17B C 0.9544(6) 1.7567(19) 0.6451(7)
C18B C 0.9493(6) 1.6321(19) 0.6562(7)
H10B H 0.9620 1.5667 0.6398
C19B C 0.9362(6) 1.8516(18) 0.6672(8)
H11B H 0.9388 1.9395 0.6584
C20B C 0.9260(5) 1.5992(16) 0.6907(7)
H12B H 0.9208 1.5110 0.6966
C21B C 0.9143(6) 1.8166(17) 0.7019(7)
H13B H 0.9009 1.8817 0.7175
C22B C 0.9091(6) 1.3431(17) 0.8194(7)
H14B H 0.9307 1.3058 0.8039
H15B H 0.9060 1.2942 0.8493
H16B H 0.8845 1.3391 0.7962
C23B C 0.9189(8) 1.4865(16) 0.8334(8)
C24B C 0.9503(6) 1.551(2) 0.8179(9)
H17B H 0.9696 1.5054 0.8027
C25B C 0.8910(6) 1.549(2) 0.8607(7)
H18B H 0.8708 1.5010 0.8732
C26B C 0.9531(8) 1.679(3) 0.8245(11)
H19B H 0.9738 1.7229 0.8114
C27B C 0.8949(7) 1.690(2) 0.8687(7)
H20B H 0.8770 1.7369 0.8856
C28B C 0.9281(10) 1.752(2) 0.8490(10)
C29B C 0.9261(8) 1.903(2) 0.8561(10)
H21B H 0.8997 1.9401 0.8602
C30B C 0.9476(9) 1.966(3) 0.8186(10)
H22B H 0.9301 1.9718 0.7871
H23B H 0.9560 2.0525 0.8299
H24B H 0.9709 1.9143 0.8142
C31B C 0.9561(11) 1.901(5) 0.9003(11)
H25B H 0.9457 1.8544 0.9269
H26B H 0.9799 1.8574 0.8924
H27B H 0.9627 1.9895 0.9109
C32B C 0.6969(8) 1.675(3) 0.7667(8)
H28B H 0.6970 1.5858 0.7785
H29B H 0.7198 1.7210 0.7840
H30B H 0.6725 1.7179 0.7732
C33B C 0.6988(7) 1.676(3) 0.7102(8)
C34B C 0.7017(6) 1.557(2) 0.6794(11)
H31B H 0.7017 1.4737 0.6939
C35B C 0.6978(5) 1.7863(19) 0.6802(10)
H32B H 0.6931 1.8669 0.6948
C36B C 0.7045(5) 1.570(2) 0.6288(8)
H33B H 0.7046 1.4908 0.6115
C37B C 0.7033(6) 1.786(2) 0.6302(9)
H34B H 0.7046 1.8664 0.6135
C38B C 0.7070(7) 1.665(3) 0.6030(8)
C39B C 0.7106(6) 1.690(2) 0.5474(8)
H35B H 0.7325 1.7497 0.5418
C40B C 0.7166(10) 1.557(3) 0.5338(14)
H36B H 0.7418 1.5262 0.5514
H37B H 0.6950 1.5040 0.5428
H38B H 0.7171 1.5516 0.4981
C41B C 0.6719(8) 1.726(3) 0.5210(11)
H39B H 0.6680 1.8189 0.5240
H40B H 0.6706 1.7028 0.4860
H41B H 0.6512 1.6795 0.5352
loop_
_geom_bond_atom_site_label_1
_geom_bond_atom_site_label_2
_geom_bond_site_symmetry_1
_geom_bond_site_symmetry_2
Ru1 O1 1_555 1_555
Ru2 O3 1_555 1_555
O1 C2 1_555 1_555
O2 Ru1 1_555 1_555
O3 C1 1_555 1_555
O4 Ru2 1_555 1_555
C1 O2 1_555 1_555
C2 O4 1_555 1_555
O5 C16 1_555 1_555
N1 C3 1_555 1_555
N2 H1 1_555 1_555
N3 Ru2 1_555 1_555
C3 H2 1_555 1_555
C4 N1 1_555 1_555
H3 C4 1_555 1_555
C5 C3 1_555 1_555
H4 C5 1_555 1_555
C6 C4 1_555 1_555
H5 C6 1_555 1_555
C7 C5 1_555 1_555
C8 C7 1_555 1_555
C9 C8 1_555 1_555
C10 C9 1_555 1_555
C11 C10 1_555 1_555
H6 C11 1_555 1_555
C12 C10 1_555 1_555
H7 C12 1_555 1_555
C13 C11 1_555 1_555
H8 C13 1_555 1_555
C14 C12 1_555 1_555
H9 C14 1_555 1_555
C15 N2 1_555 1_555
C16 N2 1_555 1_555
C17 C16 1_555 1_555
C18 C17 1_555 1_555
H10 C18 1_555 1_555
C19 C17 1_555 1_555
H11 C19 1_555 1_555
C20 N3 1_555 1_555
H12 C20 1_555 1_555
C21 N3 1_555 1_555
H13 C21 1_555 1_555
C22 H14 1_555 1_555
H15 C22 1_555 1_555
H16 C22 1_555 1_555
C23 Ru2 1_555 1_555
C24 Ru2 1_555 1_555
H17 C24 1_555 1_555
C25 Ru2 1_555 1_555
H18 C25 1_555 1_555
C26 Ru2 1_555 1_555
H19 C26 1_555 1_555
C27 Ru2 1_555 1_555
H20 C27 1_555 1_555
C28 Ru2 1_555 1_555
C29 C28 1_555 1_555
H21 C29 1_555 1_555
C30 C29 1_555 1_555
H22 C30 1_555 1_555
H23 C30 1_555 1_555
H24 C30 1_555 1_555
C31 C29 1_555 1_555
H25 C31 1_555 1_555
H26 C31 1_555 1_555
H27 C31 1_555 1_555
C32 H28 1_555 1_555
H29 C32 1_555 1_555
H30 C32 1_555 1_555
C33 Ru1 1_555 1_555
C34 Ru1 1_555 1_555
H31 C34 1_555 1_555
C35 Ru1 1_555 1_555
H32 C35 1_555 1_555
C36 Ru1 1_555 1_555
H33 C36 1_555 1_555
C37 Ru1 1_555 1_555
H34 C37 1_555 1_555
C38 Ru1 1_555 1_555
C39 C38 1_555 1_555
H35 C39 1_555 1_555
C40 C39 1_555 1_555
H36 C40 1_555 1_555
H37 C40 1_555 1_555
H38 C40 1_555 1_555
C41 C39 1_555 1_555
H39 C41 1_555 1_555
H40 C41 1_555 1_555
H41 C41 1_555 1_555
O6 C43 1_555 1_555
O7 C42 1_555 1_555
O8 C42 1_555 1_555
O9 C43 1_555 1_555
C42 C43 1_555 1_555
O10 C57 1_555 1_555
N4 C44 1_555 1_555
N5 H42 1_555 1_555
N6 C61 1_555 1_555
C44 H43 1_555 1_555
C45 N4 1_555 1_555
H44 C45 1_555 1_555
C46 C44 1_555 1_555
H45 C46 1_555 1_555
C47 C45 1_555 1_555
H46 C47 1_555 1_555
C48 C46 1_555 1_555
C49 C48 1_555 1_555
C50 C49 1_555 1_555
C51 C50 1_555 1_555
C52 C51 1_555 1_555
H47 C52 1_555 1_555
C53 C51 1_555 1_555
H48 C53 1_555 1_555
C54 C52 1_555 1_555
H49 C54 1_555 1_555
C55 C53 1_555 1_555
H50 C55 1_555 1_555
C56 N5 1_555 1_555
C57 N5 1_555 1_555
C58 C57 1_555 1_555
C59 C58 1_555 1_555
H51 C59 1_555 1_555
C60 C58 1_555 1_555
H52 C60 1_555 1_555
C61 C59 1_555 1_555
H53 C61 1_555 1_555
C62 N6 1_555 1_555
H54 C62 1_555 1_555
Ru3 O8 1_555 1_555
Ru4 O6 1_555 1_555
C63 H55 1_555 1_555
H56 C63 1_555 1_555
H57 C63 1_555 1_555
C64 Ru3 1_555 1_555
C65 Ru3 1_555 1_555
H58 C65 1_555 1_555
C66 Ru3 1_555 1_555
H59 C66 1_555 1_555
C67 Ru3 1_555 1_555
H60 C67 1_555 1_555
C68 Ru3 1_555 1_555
H61 C68 1_555 1_555
C69 Ru3 1_555 1_555
C70 C69 1_555 1_555
H62 C70 1_555 1_555
C71 C70 1_555 1_555
H63 C71 1_555 1_555
H64 C71 1_555 1_555
H65 C71 1_555 1_555
C72 C70 1_555 1_555
H66 C72 1_555 1_555
H67 C72 1_555 1_555
H68 C72 1_555 1_555
C73 H69 1_555 1_555
H70 C73 1_555 1_555
H71 C73 1_555 1_555
C74 Ru4 1_555 1_555
C75 Ru4 1_555 1_555
H72 C75 1_555 1_555
C76 Ru4 1_555 1_555
H73 C76 1_555 1_555
C77 Ru4 1_555 1_555
H74 C77 1_555 1_555
C78 Ru4 1_555 1_555
H75 C78 1_555 1_555
C79 Ru4 1_555 1_555
C80 C79 1_555 1_555
H76 C80 1_555 1_555
C81 C80 1_555 1_555
H77 C81 1_555 1_555
H78 C81 1_555 1_555
H79 C81 1_555 1_555
C82 C80 1_555 1_555
H80 C82 1_555 1_555
H81 C82 1_555 1_555
H82 C82 1_555 1_555
Ru1B N1 1_555 1_555
Ru2B O3B 1_555 1_555
O1B Ru1B 1_555 1_555
O2B Ru1B 1_555 1_555
O3B C1B 1_555 1_555
O4B Ru2B 1_555 1_555
C1B O2B 1_555 1_555
C2B O1B 1_555 1_555
O5B C16B 1_555 1_555
N1B Ru1 1_555 1_555
N2B H1B 1_555 1_555
N3B Ru2B 1_555 1_555
C3B N1B 1_555 1_555
H2B C3B 1_555 1_555
C4B N1B 1_555 1_555
H3B C4B 1_555 1_555
C5B C3B 1_555 1_555
H4B C5B 1_555 1_555
C6B C4B 1_555 1_555
H5B C6B 1_555 1_555
C7B C5B 1_555 1_555
C8B C7B 1_555 1_555
C9B C8B 1_555 1_555
C10B C9B 1_555 1_555
C11B C10B 1_555 1_555
H6B C11B 1_555 1_555
C12B C10B 1_555 1_555
H7B C12B 1_555 1_555
C13B C11B 1_555 1_555
H8B C13B 1_555 1_555
C14B C12B 1_555 1_555
H9B C14B 1_555 1_555
C15B N2B 1_555 1_555
C16B N2B 1_555 1_555
C17B C16B 1_555 1_555
C18B C17B 1_555 1_555
H10B C18B 1_555 1_555
C19B C17B 1_555 1_555
H11B C19B 1_555 1_555
C20B N3B 1_555 1_555
H12B C20B 1_555 1_555
C21B N3B 1_555 1_555
H13B C21B 1_555 1_555
C22B H14B 1_555 1_555
H15B C22B 1_555 1_555
H16B C22B 1_555 1_555
C23B Ru2B 1_555 1_555
C24B Ru2B 1_555 1_555
H17B C24B 1_555 1_555
C25B Ru2B 1_555 1_555
H18B C25B 1_555 1_555
C26B Ru2B 1_555 1_555
H19B C26B 1_555 1_555
C27B Ru2B 1_555 1_555
H20B C27B 1_555 1_555
C28B Ru2B 1_555 1_555
C29B C28B 1_555 1_555
H21B C29B 1_555 1_555
C30B C29B 1_555 1_555
H22B C30B 1_555 1_555
H23B C30B 1_555 1_555
H24B C30B 1_555 1_555
C31B C29B 1_555 1_555
H25B C31B 1_555 1_555
H26B C31B 1_555 1_555
H27B C31B 1_555 1_555
C32B H28B 1_555 1_555
H29B C32B 1_555 1_555
H30B C32B 1_555 1_555
C33B Ru1B 1_555 1_555
C34B Ru1B 1_555 1_555
H31B C34B 1_555 1_555
C35B Ru1B 1_555 1_555
H32B C35B 1_555 1_555
C36B Ru1B 1_555 1_555
H33B C36B 1_555 1_555
C37B Ru1B 1_555 1_555
H34B C37B 1_555 1_555
C38B Ru1B 1_555 1_555
C39B C38B 1_555 1_555
H35B C39B 1_555 1_555
C40B C39B 1_555 1_555
H36B C40B 1_555 1_555
H37B C40B 1_555 1_555
H38B C40B 1_555 1_555
C41B C39B 1_555 1_555
H39B C41B 1_555 1_555
H40B C41B 1_555 1_555
H41B C41B 1_555 1_555
O6B C43B 1_555 1_555
O7B C42B 1_555 1_555
O8B C42B 1_555 1_555
O9B C43B 1_555 1_555
C42B C43B 1_555 1_555
O10B C57B 1_555 1_555
N4B Ru3 1_555 1_555
N5B H42B 1_555 1_555
N6B C61B 1_555 1_555
C44B N4B 1_555 1_555
H43B C44B 1_555 1_555
C45B N4B 1_555 1_555
H44B C45B 1_555 1_555
C46B C44B 1_555 1_555
H45B C46B 1_555 1_555
C47B C45B 1_555 1_555
H46B C47B 1_555 1_555
C48B C46B 1_555 1_555
C49B C48B 1_555 1_555
C50B C49B 1_555 1_555
C51B C50B 1_555 1_555
C52B C51B 1_555 1_555
H47B C52B 1_555 1_555
C53B C51B 1_555 1_555
H48B C53B 1_555 1_555
C54B C52B 1_555 1_555
H49B C54B 1_555 1_555
C55B C53B 1_555 1_555
H50B C55B 1_555 1_555
C56B N5B 1_555 1_555
C57B N5B 1_555 1_555
C58B C57B 1_555 1_555
C59B C58B 1_555 1_555
H51B C59B 1_555 1_555
C60B C58B 1_555 1_555
H52B C60B 1_555 1_555
C61B C59B 1_555 1_555
H53B C61B 1_555 1_555
C62B N6B 1_555 1_555
H54B C62B 1_555 1_555
Ru3B N4 1_555 1_555
Ru4B O6B 1_555 1_555
C63B H55B 1_555 1_555
H56B C63B 1_555 1_555
H57B C63B 1_555 1_555
C64B Ru3B 1_555 1_555
C65B Ru3B 1_555 1_555
H58B C65B 1_555 1_555
C66B Ru3B 1_555 1_555
H59B C66B 1_555 1_555
C67B Ru3B 1_555 1_555
H60B C67B 1_555 1_555
C68B Ru3B 1_555 1_555
H61B C68B 1_555 1_555
C69B Ru3B 1_555 1_555
C70B C69B 1_555 1_555
H62B C70B 1_555 1_555
C71B C70B 1_555 1_555
H63B C71B 1_555 1_555
H64B C71B 1_555 1_555
H65B C71B 1_555 1_555
C72B C70B 1_555 1_555
H66B C72B 1_555 1_555
H67B C72B 1_555 1_555
H68B C72B 1_555 1_555
C73B H69B 1_555 1_555
H70B C73B 1_555 1_555
H71B C73B 1_555 1_555
C74B Ru4B 1_555 1_555
C75B Ru4B 1_555 1_555
H72B C75B 1_555 1_555
C76B Ru4B 1_555 1_555
H73B C76B 1_555 1_555
C77B Ru4B 1_555 1_555
H74B C77B 1_555 1_555
C78B Ru4B 1_555 1_555
H75B C78B 1_555 1_555
C79B Ru4B 1_555 1_555
C80B C79B 1_555 1_555
H76B C80B 1_555 1_555
C81B C80B 1_555 1_555
H77B C81B 1_555 1_555
H78B C81B 1_555 1_555
H79B C81B 1_555 1_555
C82B C80B 1_555 1_555
H80B C82B 1_555 1_555
H81B C82B 1_555 1_555
H82B C82B 1_555 1_555
C1 C2 1_555 1_555
C6 C7 1_555 1_555
C13 C15 1_555 1_555
C14 C15 1_555 1_555
C18 C20 1_555 1_555
C19 C21 1_555 1_555
C22 C23 1_555 1_555
C23 C24 1_555 1_555
C23 C25 1_555 1_555
C24 C26 1_555 1_555
C25 C27 1_555 1_555
C26 C28 1_555 1_555
C27 C28 1_555 1_555
C32 C33 1_555 1_555
C33 C34 1_555 1_555
C33 C35 1_555 1_555
C34 C36 1_555 1_555
C35 C37 1_555 1_555
C36 C38 1_555 1_555
C37 C38 1_555 1_555
O7 Ru4 1_555 1_555
O9 Ru3 1_555 1_555
N6 Ru4 1_555 1_555
C47 C48 1_555 1_555
C54 C56 1_555 1_555
C55 C56 1_555 1_555
C60 C62 1_555 1_555
C63 C64 1_555 1_555
C64 C65 1_555 1_555
C64 C66 1_555 1_555
C65 C67 1_555 1_555
C66 C68 1_555 1_555
C67 C69 1_555 1_555
C68 C69 1_555 1_555
C73 C74 1_555 1_555
C74 C75 1_555 1_555
C74 C76 1_555 1_555
C75 C77 1_555 1_555
C76 C78 1_555 1_555
C77 C79 1_555 1_555
C78 C79 1_555 1_555
O4B C2B 1_555 1_555
C1B C2B 1_555 1_555
C6B C7B 1_555 1_555
C13B C15B 1_555 1_555
C14B C15B 1_555 1_555
C18B C20B 1_555 1_555
C19B C21B 1_555 1_555
C22B C23B 1_555 1_555
C23B C24B 1_555 1_555
C23B C25B 1_555 1_555
C24B C26B 1_555 1_555
C25B C27B 1_555 1_555
C26B C28B 1_555 1_555
C27B C28B 1_555 1_555
C32B C33B 1_555 1_555
C33B C34B 1_555 1_555
C33B C35B 1_555 1_555
C34B C36B 1_555 1_555
C35B C37B 1_555 1_555
C36B C38B 1_555 1_555
C37B C38B 1_555 1_555
O7B Ru4B 1_555 1_555
O8B Ru3B 1_555 1_555
O9B Ru3B 1_555 1_555
N6B Ru4B 1_555 1_555
C47B C48B 1_555 1_555
C54B C56B 1_555 1_555
C55B C56B 1_555 1_555
C60B C62B 1_555 1_555
C63B C64B 1_555 1_555
C64B C65B 1_555 1_555
C64B C66B 1_555 1_555
C65B C67B 1_555 1_555
C66B C68B 1_555 1_555
C67B C69B 1_555 1_555
C68B C69B 1_555 1_555
C73B C74B 1_555 1_555
C74B C75B 1_555 1_555
C74B C76B 1_555 1_555
C75B C77B 1_555 1_555
C76B C78B 1_555 1_555
C77B C79B 1_555 1_555
C78B C79B 1_555 1_555

#END
