
#######################################################################
#
#                 Cambridge Crystallographic Data Centre
#                                CCDC 
#
#######################################################################
#
# If this CIF has been generated from an entry in the Cambridge 
# Structural Database, then it will include bibliographic, chemical, 
# crystal, experimental, refinement or atomic coordinate data resulting 
# from the CCDC's data processing and validation procedures.
#
#######################################################################

data_TIGDUK
_chemical_formula_moiety         
'C200 H160 N8 O16 Pd2 4+,C16 H16,4(N1 O3 1-),2.1(H2 O1)'
_chemical_name_systematic        
"tetrakis(\m~2~-3,3'-((4,6-Bis(2-methoxyethoxy)-1,3-phenylene)dianthracene-10,9-diyl)dipyridine)-di-palladium(ii) tetranitrate [2.2]-paracyclophane hydrate"
_symmetry_cell_setting           monoclinic
_symmetry_space_group_name_H-M   'P 21/n'
_symmetry_Int_Tables_number      14
_space_group_name_Hall           '-P 2yn'
loop_
_symmetry_equiv_pos_site_id
_symmetry_equiv_pos_as_xyz
1 x,y,z
2 1/2-x,1/2+y,1/2-z
3 -x,-y,-z
4 1/2+x,1/2-y,1/2+z
_cell_length_a                   21.6795(19)
_cell_length_b                   31.714(3)
_cell_length_c                   28.207(2)
_cell_angle_alpha                90
_cell_angle_beta                 96.2130(10)
_cell_angle_gamma                90
_cell_volume                     19279.6
_exptl_crystal_colour            'pale yellow'
_exptl_crystal_description       block
_cell_formula_units_Z            4
loop_
_atom_site_label
_atom_site_type_symbol
_atom_site_fract_x
_atom_site_fract_y
_atom_site_fract_z
C1 C 0.8371(3) 0.6605(2) 0.6129(2)
H1 H 0.8715 0.6692 0.5971
C2 C 0.3624(3) 0.89084(19) 0.7174(2)
C3 C 0.2562(3) 0.86427(19) 0.6971(2)
C4 C 0.2874(3) 0.8546(2) 0.4410(2)
C5 C 0.7531(3) 0.7816(2) 0.6932(2)
H2 H 0.7261 0.7961 0.6699
C6 C 0.3847(3) 0.58470(19) 0.4401(2)
C7 C 0.5818(3) 0.8099(2) 0.7800(2)
C8 C 0.6572(3) 0.8842(2) 0.4386(2)
C9 C 0.6848(3) 0.80730(19) 0.7519(2)
C10 C 0.6810(3) 0.6247(2) 0.6827(2)
C11 C 0.6187(3) 0.92784(19) 0.5003(2)
C12 C 0.7801(3) 0.7628(2) 0.7733(2)
H3 H 0.7724 0.7628 0.8059
C13 C 0.2897(3) 0.8111(2) 0.4298(2)
C14 C 0.2117(3) 0.8569(2) 0.6120(2)
C15 C 0.2201(3) 0.6576(2) 0.5269(2)
H4 H 0.2506 0.6772 0.5193
C16 C 0.2829(3) 0.6177(2) 0.4426(2)
C17 C 0.4177(3) 0.89804(19) 0.7528(2)
C18 C 0.2623(3) 0.8709(2) 0.6480(2)
C19 C 0.6130(3) 0.6582(2) 0.3926(2)
C20 C 0.6348(3) 0.78645(19) 0.7679(2)
C21 C 0.7365(3) 0.6351(2) 0.6578(2)
C22 C 0.5800(3) 0.8541(2) 0.7737(2)
C23 C 0.6832(3) 0.85163(19) 0.7449(2)
C24 C 0.3364(3) 0.60905(19) 0.4180(2)
C25 C 0.3388(3) 0.8808(2) 0.4331(2)
C26 C 0.3070(3) 0.87461(19) 0.7320(2)
C27 C 0.5232(3) 0.8782(2) 0.7821(2)
C28 C 0.6323(3) 0.7410(2) 0.7715(2)
H5 H 0.6662 0.7247 0.7632
C29 C 0.7448(3) 0.6767(2) 0.6434(2)
H6 H 0.7143 0.6971 0.6491
C30 C 0.7051(3) 0.6732(2) 0.4491(2)
C31 C 0.2013(3) 0.8469(2) 0.7124(2)
H7 H 0.1674 0.8400 0.6894
C32 C 0.4994(3) 0.8918(2) 0.4334(2)
H8 H 0.5033 0.8746 0.4611
C33 C 0.3371(3) 0.6252(2) 0.3708(2)
H9 H 0.3729 0.6211 0.3548
C34 C 0.6517(3) 0.8667(2) 0.3915(2)
H10 H 0.6154 0.8720 0.3703
C35 C 0.7174(3) 0.8902(2) 0.5173(2)
C36 C 0.5729(3) 0.6712(2) 0.3517(2)
H11 H 0.5409 0.6528 0.3388
C37 C 0.7332(3) 0.8741(2) 0.7271(2)
H12 H 0.7696 0.8593 0.7209
C38 C 0.3856(3) 0.6877(2) 0.8213(2)
H13 H 0.4208 0.6724 0.8347
C39 C 0.2813(3) 0.7337(2) 0.7831(2)
H14 H 0.2463 0.7498 0.7705
C40 C 0.2343(3) 0.8733(2) 0.4585(2)
H15 H 0.1997 0.8560 0.4633
C41 C 0.5311(3) 0.7876(2) 0.7965(2)
H16 H 0.4964 0.8029 0.8052
C42 C 0.4407(3) 0.57700(19) 0.4140(2)
C43 C 0.6294(3) 0.8748(2) 0.7560(2)
C44 C 0.5502(3) 0.9152(2) 0.4239(2)
C45 C 0.1377(3) 0.7326(2) 0.4536(2)
H17 H 0.1042 0.7148 0.4595
C46 C 0.7563(3) 0.7015(2) 0.4690(2)
C47 C 0.5468(3) 0.5939(2) 0.4016(2)
C48 C 0.6104(3) 0.90983(19) 0.4546(2)
C49 C 0.6241(3) 0.6155(2) 0.6569(2)
C50 C 0.2997(3) 0.8669(2) 0.7809(2)
H18 H 0.3328 0.8734 0.8047
C51 C 0.3679(3) 0.8975(2) 0.6685(2)
C52 C 0.3168(3) 0.6112(2) 0.7292(2)
C53 C 0.1992(3) 0.7056(2) 0.6552(2)
H19 H 0.2339 0.6959 0.6404
C54 C 0.7405(3) 0.7833(2) 0.7401(2)
C55 C 0.3940(3) 0.8208(2) 0.4040(2)
C56 C 0.5794(3) 0.7092(2) 0.3311(2)
H20 H 0.5528 0.7166 0.3034
C57 C 0.4290(3) 0.5406(2) 0.5074(2)
H21 H 0.4635 0.5338 0.4908
C58 C 0.6395(3) 0.5681(2) 0.4789(2)
H22 H 0.6035 0.5515 0.4704
C59 C 0.2280(3) 0.6148(2) 0.5159(2)
C60 C 0.5230(3) 0.5936(2) 0.7574(3)
C61 C 0.6989(3) 0.6329(2) 0.4702(2)
C62 C 0.6867(3) 0.62571(19) 0.7333(2)
C63 C 0.3450(3) 0.6692(2) 0.7841(2)
C64 C 0.7677(3) 0.8321(2) 0.5645(2)
H23 H 0.7347 0.8151 0.5501
C65 C 0.2880(3) 0.6463(2) 0.3483(2)
H24 H 0.2896 0.6564 0.3168
C66 C 0.6253(4) 0.7379(2) 0.3503(2)
H25 H 0.6280 0.7651 0.3366
C67 C 0.6728(3) 0.9177(2) 0.5323(2)
C68 C 0.1978(3) 0.6978(2) 0.7039(2)
C69 C 0.6627(3) 0.6860(2) 0.4102(2)
C70 C 0.3588(3) 0.6297(2) 0.7653(2)
C71 C 0.5772(3) 0.60457(19) 0.7316(2)
C72 C 0.4700(3) 0.8737(2) 0.7512(2)
H26 H 0.4693 0.8525 0.7274
C73 C 0.7570(3) 0.7146(2) 0.5158(2)
H27 H 0.7240 0.7062 0.5333
C74 C 0.1692(3) 0.8841(2) 0.5867(2)
H28 H 0.1711 0.9136 0.5924
C75 C 0.7292(3) 0.9165(2) 0.7189(2)
H29 H 0.7623 0.9309 0.7063
C76 C 0.5713(3) 0.6058(2) 0.6810(2)
C77 C 0.3425(3) 0.7935(2) 0.4122(2)
C78 C 0.3295(3) 0.5773(2) 0.5112(2)
C79 C 0.3910(3) 0.8640(2) 0.4141(2)
C80 C 0.6281(3) 0.9188(2) 0.7468(2)
H30 H 0.5928 0.9347 0.7532
C81 C 0.7440(3) 0.6372(2) 0.7611(2)
H31 H 0.7794 0.6436 0.7453
C82 C 0.2497(3) 0.6738(2) 0.7285(2)
C83 C 0.4891(3) 0.5431(2) 0.3506(2)
H32 H 0.4874 0.5234 0.3251
C84 C 0.6662(3) 0.7262(2) 0.3889(2)
H33 H 0.6973 0.7455 0.4014
C85 C 0.2814(3) 0.6030(2) 0.4895(2)
C86 C 0.1214(3) 0.8243(2) 0.5457(2)
H34 H 0.0903 0.8131 0.5228
C87 C 0.4877(3) 0.9425(2) 0.3539(2)
H35 H 0.4835 0.9604 0.3267
C88 C 0.1050(3) 0.7409(3) 0.6491(3)
H36 H 0.0728 0.7555 0.6304
C89 C 0.3813(3) 0.56780(19) 0.4853(2)
C90 C 0.1286(4) 0.6444(2) 0.5595(3)
H37 H 0.0946 0.6544 0.5748
C91 C 0.3170(3) 0.8874(2) 0.6336(2)
C92 C 0.2058(3) 0.8145(2) 0.6027(2)
H38 H 0.2340 0.7958 0.6201
C93 C 0.1945(3) 0.7698(2) 0.3984(2)
H39 H 0.1995 0.7782 0.3667
C94 C 0.4716(3) 0.9340(2) 0.8209(2)
H40 H 0.4721 0.9547 0.8453
C95 C 0.6977(4) 0.8429(2) 0.3769(3)
H41 H 0.6934 0.8318 0.3454
C96 C 0.1451(3) 0.7434(2) 0.4073(2)
H42 H 0.1171 0.7331 0.3817
C97 C 0.4429(3) 0.8918(2) 0.4050(2)
C98 C 0.4184(3) 0.6082(2) 0.7783(3)
C99 C 0.4228(3) 0.9149(2) 0.6526(3)
H43 H 0.4563 0.9225 0.6755
C100 C 0.2614(3) 0.6333(2) 0.7115(2)
C101 C 0.5739(3) 0.9560(2) 0.5162(2)
H44 H 0.5388 0.9637 0.4949
C102 C 0.2902(3) 0.6919(2) 0.7654(2)
C103 C 0.3344(3) 0.9250(2) 0.4438(2)
H45 H 0.3680 0.9431 0.4386
C104 C 0.6343(3) 0.6152(2) 0.7576(2)
C105 C 0.6821(3) 0.5542(2) 0.5128(3)
H46 H 0.6762 0.5280 0.5280
C106 C 0.7687(3) 0.8743(2) 0.5521(2)
C107 C 0.2360(3) 0.7836(2) 0.4362(2)
C108 C 0.5803(3) 0.9722(2) 0.5617(2)
H47 H 0.5498 0.9907 0.5717
C109 C 0.5315(3) 0.7449(2) 0.7998(3)
H48 H 0.4974 0.7308 0.8112
C110 C 0.3750(3) 0.7270(2) 0.8381(2)
H49 H 0.4025 0.7388 0.8631
C111 C 0.5822(3) 0.7213(2) 0.7865(3)
H50 H 0.5812 0.6914 0.7881
C112 C 0.7115(3) 0.8747(2) 0.4708(2)
C113 C 0.2317(3) 0.6405(2) 0.4176(2)
H51 H 0.1962 0.6467 0.4334
C114 C 0.7365(3) 0.5785(2) 0.5264(3)
H52 H 0.7675 0.5679 0.5497
C115 C 0.2460(3) 0.8503(2) 0.7940(3)
H53 H 0.2422 0.8456 0.8268
C116 C 0.2252(3) 0.7711(2) 0.4822(2)
H54 H 0.2531 0.7802 0.5085
C117 C 0.1012(4) 0.7351(3) 0.6975(3)
H55 H 0.0670 0.7464 0.7117
C118 C 0.8407(3) 0.7410(2) 0.7118(2)
H56 H 0.8753 0.7262 0.7022
C119 C 0.6040(3) 0.6202(2) 0.4158(2)
C120 C 0.1242(3) 0.8674(2) 0.5534(2)
H57 H 0.0954 0.8856 0.5357
C121 C 0.1963(3) 0.8399(2) 0.7598(3)
H58 H 0.1594 0.8281 0.7696
C122 C 0.8317(3) 0.7420(2) 0.7598(2)
H59 H 0.8603 0.7286 0.7829
C123 C 0.6329(3) 0.9610(2) 0.5936(2)
H60 H 0.6374 0.9722 0.6250
C124 C 0.6462(3) 0.6072(2) 0.4549(2)
C125 C 0.8181(3) 0.8982(2) 0.5726(3)
H61 H 0.8215 0.9271 0.5645
C126 C 0.4958(3) 0.5982(2) 0.4262(2)
H62 H 0.4986 0.6167 0.4529
C127 C 0.7819(3) 0.6062(2) 0.6490(2)
H63 H 0.7785 0.5776 0.6587
C128 C 0.7590(3) 0.8490(2) 0.4522(2)
H64 H 0.7960 0.8427 0.4721
C129 C 0.3285(4) 0.5707(2) 0.7100(3)
H65 H 0.3658 0.5562 0.7207
C130 C 0.4485(4) 0.7608(3) 0.3753(3)
H66 H 0.4835 0.7496 0.3620
C131 C 0.8321(3) 0.6188(2) 0.6261(3)
H67 H 0.8629 0.5990 0.6195
C132 C 0.2179(4) 0.6124(2) 0.6769(2)
H68 H 0.1797 0.6257 0.6658
C133 C 0.6418(4) 0.6173(2) 0.8083(2)
H69 H 0.6075 0.6103 0.8252
C134 C 0.7441(3) 0.6164(2) 0.5064(2)
H70 H 0.7801 0.6326 0.5165
C135 C 0.6762(3) 0.9391(2) 0.7291(3)
H71 H 0.6739 0.9686 0.7236
C136 C 0.4256(4) 0.5242(2) 0.5515(2)
H72 H 0.4573 0.5059 0.5653
C137 C 0.3292(4) 0.5600(2) 0.5578(2)
H73 H 0.2959 0.5665 0.5759
C138 C 0.5142(3) 0.5975(2) 0.6531(3)
H74 H 0.4788 0.5903 0.6684
C139 C 0.6172(3) 0.6148(2) 0.6061(2)
H75 H 0.6526 0.6194 0.5897
C140 C 0.4696(3) 0.6175(2) 0.7542(2)
H76 H 0.4675 0.6418 0.7344
C141 C 0.2334(3) 0.6532(2) 0.3720(2)
H77 H 0.1983 0.6668 0.3556
C142 C 0.3478(3) 0.7496(2) 0.4023(3)
H78 H 0.3147 0.7313 0.4081
C143 C 0.7515(4) 0.8342(2) 0.4073(3)
H79 H 0.7832 0.8174 0.3961
C144 C 0.2323(3) 0.9151(2) 0.4685(2)
H80 H 0.1967 0.9267 0.4805
C145 C 0.8488(3) 0.7517(2) 0.5126(3)
H81 H 0.8809 0.7689 0.5278
C146 C 0.3981(3) 0.7334(2) 0.3851(3)
H82 H 0.4006 0.7040 0.3793
C147 C 0.2838(3) 0.9415(2) 0.4610(2)
H83 H 0.2824 0.9708 0.4681
C148 C 0.5619(3) 0.6077(2) 0.5805(3)
H84 H 0.5585 0.6081 0.5467
C149 C 0.3225(3) 0.7504(2) 0.8179(2)
H85 H 0.3161 0.7782 0.8289
C150 C 0.6766(3) 0.9347(2) 0.5801(2)
H86 H 0.7107 0.9272 0.6026
C151 C 0.3755(4) 0.5344(2) 0.5767(3)
H87 H 0.3739 0.5231 0.6077
C152 C 0.2874(4) 0.5527(2) 0.6768(3)
H88 H 0.2961 0.5256 0.6646
C153 C 0.1826(4) 0.5871(3) 0.5277(3)
H89 H 0.1855 0.5579 0.5206
C154 C 0.2319(4) 0.5732(2) 0.6599(3)
H90 H 0.2037 0.5599 0.6364
C155 C 0.8624(4) 0.8795(2) 0.6050(3)
H91 H 0.8963 0.8958 0.6193
C156 C 0.4456(3) 0.8026(2) 0.3851(3)
H92 H 0.4794 0.8202 0.3791
C157 C 0.5094(4) 0.5997(2) 0.6043(3)
H93 H 0.4702 0.5958 0.5863
C158 C 0.6953(4) 0.6288(2) 0.8332(3)
H94 H 0.6984 0.6303 0.8670
C159 C 0.7480(4) 0.6390(2) 0.8085(3)
H95 H 0.7860 0.6470 0.8262
C160 C 0.8040(3) 0.7147(3) 0.4440(3)
H96 H 0.8051 0.7059 0.4119
C161 C 0.3251(3) 0.8942(3) 0.5848(2)
H97 H 0.2919 0.8876 0.5612
C162 C 0.4758(4) 0.5489(2) 0.8134(3)
H98 H 0.4783 0.5253 0.8342
C163 C 0.1464(3) 0.7131(3) 0.7250(3)
H99 H 0.1429 0.7082 0.7578
C164 C 0.1327(4) 0.6022(3) 0.5500(3)
H100 H 0.1017 0.5833 0.5586
C165 C 0.3784(4) 0.9099(3) 0.5706(3)
H101 H 0.3823 0.9135 0.5376
C166 C 0.8576(3) 0.8377(2) 0.6165(3)
H102 H 0.8877 0.8254 0.6394
C167 C 0.8508(4) 0.7408(3) 0.4655(3)
H103 H 0.8831 0.7507 0.4481
C168 C 0.4285(4) 0.9208(3) 0.6057(3)
H104 H 0.4658 0.9321 0.5961
C169 C 0.4195(3) 0.9298(2) 0.7875(2)
O1 O 0.3686(2) 0.95500(14) 0.78550(16)
C170 C 0.3648(3) 0.9869(2) 0.8212(2)
H105 H 0.3359 1.0093 0.8082
H106 H 0.4062 0.9999 0.8289
C171 C 0.3431(3) 0.9699(2) 0.8658(3)
H107 H 0.3679 0.9448 0.8768
H108 H 0.3476 0.9915 0.8913
O2 O 0.2804(2) 0.95878(19) 0.85513(18)
C172 C 0.2565(4) 0.9377(4) 0.8941(3)
H109 H 0.2140 0.9283 0.8842
H110 H 0.2565 0.9571 0.9211
H111 H 0.2826 0.9133 0.9035
C173 C 0.5220(3) 0.9081(2) 0.8187(2)
O3 O 0.5750(2) 0.9098(2) 0.85026(19)
C174 C 0.5740(5) 0.9303(4) 0.8945(3)
H112 H 0.5600 0.9596 0.8880
H113 H 0.6172 0.9317 0.9098
C175 C 0.5361(8) 0.9126(4) 0.9290(5)
H114 H 0.5386 0.9305 0.9578
H115 H 0.4922 0.9110 0.9152
O4 O 0.5591(7) 0.8718(5) 0.9408(5)
C176 C 0.5199(10) 0.8404(5) 0.9157(8)
H116 H 0.4889 0.8543 0.8931
H117 H 0.4990 0.8239 0.9386
H118 H 0.5454 0.8216 0.8983
C177 C 0.4386(3) 0.9178(2) 0.3643(2)
O5 O 0.3838(2) 0.91517(19) 0.33569(18)
C178 C 0.3618(4) 0.9473(3) 0.3048(3)
H119 H 0.3808 0.9742 0.3167
H120 H 0.3165 0.9498 0.3057
C179 C 0.3740(4) 0.9418(4) 0.2550(3)
H121 H 0.3787 0.9115 0.2477
H122 H 0.3391 0.9533 0.2332
O6 O 0.4288(3) 0.9637(2) 0.2489(2)
C180 C 0.4386(6) 0.9685(5) 0.2003(3)
H123 H 0.4745 0.9868 0.1979
H124 H 0.4017 0.9812 0.1828
H125 H 0.4462 0.9408 0.1866
C181 C 0.5438(3) 0.9412(2) 0.3834(2)
O7 O 0.5951(2) 0.96362(16) 0.37490(17)
C182 C 0.5989(4) 0.9781(3) 0.3273(3)
H126 H 0.5711 1.0026 0.3204
H127 H 0.5856 0.9555 0.3043
C183 C 0.6626(4) 0.9902(3) 0.3223(3)
H128 H 0.6647 1.0001 0.2892
H129 H 0.6739 1.0142 0.3438
O8 O 0.7067(3) 0.9580(2) 0.3322(2)
C184 C 0.7057(5) 0.9281(3) 0.2942(3)
H130 H 0.7367 0.9061 0.3027
H131 H 0.7153 0.9424 0.2651
H132 H 0.6645 0.9152 0.2887
C185 C 0.4374(3) 0.5489(2) 0.3755(2)
O9 O 0.3816(2) 0.52986(14) 0.36474(16)
C186 C 0.3713(3) 0.5018(2) 0.3253(2)
H133 H 0.3837 0.4728 0.3352
H134 H 0.3962 0.5106 0.2995
C187 C 0.3025(3) 0.5031(3) 0.3077(3)
H135 H 0.2908 0.5327 0.3001
H136 H 0.2957 0.4868 0.2777
O10 O 0.2629(3) 0.48728(18) 0.3396(2)
C188 C 0.2407(4) 0.5191(3) 0.3691(3)
H137 H 0.1992 0.5114 0.3769
H138 H 0.2388 0.5461 0.3522
H139 H 0.2689 0.5215 0.3986
C189 C 0.5429(3) 0.5659(2) 0.3630(2)
O11 O 0.5943(2) 0.56276(15) 0.33930(16)
C190 C 0.5863(3) 0.5429(2) 0.2936(2)
H140 H 0.5508 0.5555 0.2734
H141 H 0.5787 0.5123 0.2969
C191 C 0.6463(3) 0.5506(2) 0.2721(2)
H142 H 0.6534 0.5812 0.2685
H143 H 0.6818 0.5385 0.2928
O12 O 0.6400(3) 0.53067(19) 0.22737(19)
C192 C 0.6988(4) 0.5265(3) 0.2087(3)
H144 H 0.7163 0.4986 0.2168
H145 H 0.7273 0.5483 0.2226
H146 H 0.6930 0.5297 0.1740
C193 C 0.4238(3) 0.5742(2) 0.8099(3)
O13 O 0.3741(2) 0.56624(18) 0.83491(19)
C194 C 0.3863(5) 0.5691(4) 0.8854(3)
H147 H 0.4021 0.5976 0.8944
H148 H 0.4185 0.5483 0.8970
C195 C 0.3279(5) 0.5607(3) 0.9078(4)
H149 H 0.3314 0.5746 0.9395
H150 H 0.2928 0.5741 0.8880
O14 O 0.3138(3) 0.5176(2) 0.9138(2)
C196 C 0.2587(4) 0.5123(3) 0.9366(4)
H151 H 0.2514 0.4822 0.9415
H152 H 0.2234 0.5243 0.9164
H153 H 0.2634 0.5268 0.9675
C197 C 0.5246(3) 0.5578(2) 0.7867(3)
O15 O 0.5756(2) 0.53224(16) 0.7859(2)
C198 C 0.5831(4) 0.4993(3) 0.8205(3)
H154 H 0.5485 0.4789 0.8153
H155 H 0.5837 0.5111 0.8531
C199 C 0.6442(4) 0.4778(3) 0.8148(4)
H156 H 0.6514 0.4558 0.8396
H157 H 0.6403 0.4634 0.7835
O16 O 0.6970(3) 0.5042(2) 0.8175(3)
C200 C 0.7132(5) 0.5204(4) 0.8637(3)
H158 H 0.7583 0.5243 0.8691
H159 H 0.7001 0.5006 0.8873
H160 H 0.6925 0.5476 0.8669
N1 N 0.7939(2) 0.68907(17) 0.62197(18)
N2 N 0.8034(2) 0.73900(17) 0.53776(19)
N3 N 0.8107(2) 0.81369(17) 0.59572(19)
N4 N 0.1763(3) 0.74644(18) 0.49070(19)
N5 N 0.1618(2) 0.79787(18) 0.57010(19)
N6 N 0.1532(3) 0.72616(18) 0.62846(19)
N7 N 0.1712(3) 0.67179(18) 0.54774(19)
N8 N 0.8017(2) 0.76042(16) 0.67870(17)
Pd1 Pd 0.16339(2) 0.734980(17) 0.558979(17)
Pd2 Pd 0.80467(2) 0.751142(15) 0.608305(17)
N9 N -0.0031(10) 0.6822(5) 0.7657(8)
O17 O -0.0387(10) 0.6705(7) 0.7296(8)
O18 O 0.0396(9) 0.6581(6) 0.7833(7)
O19 O 0.0005(11) 0.7211(5) 0.7752(8)
C201 C 0.4646(4) 0.7342(2) 0.5499(2)
C202 C 0.4565(4) 0.7762(2) 0.5363(2)
H161 H 0.4403 0.7830 0.5046
C203 C 0.4722(4) 0.80811(17) 0.5692(3)
H162 H 0.4666 0.8368 0.5600
C204 C 0.4959(4) 0.7981(2) 0.6156(2)
C205 C 0.5040(4) 0.7561(2) 0.6291(2)
H163 H 0.5203 0.7493 0.6608
C206 C 0.4884(4) 0.72420(17) 0.5963(3)
H164 H 0.4939 0.6955 0.6055
C207 C 0.5902(3) 0.73864(17) 0.5169(2)
C208 C 0.5846(3) 0.7800(2) 0.50078(16)
H165 H 0.5709 0.7857 0.4683
C209 C 0.5990(3) 0.81318(15) 0.5323(2)
H166 H 0.5952 0.8415 0.5213
C210 C 0.6191(3) 0.80493(17) 0.5799(2)
C211 C 0.6247(3) 0.7635(2) 0.59594(17)
H167 H 0.6384 0.7579 0.6285
C212 C 0.6102(3) 0.73039(15) 0.5644(2)
H168 H 0.6140 0.7021 0.5754
C213 C 0.5445(5) 0.8304(4) 0.6421(4)
H169 H 0.5230 0.8576 0.6453
H170 H 0.5566 0.8196 0.6747
C214 C 0.6028(5) 0.8388(3) 0.6193(3)
H171 H 0.6380 0.8399 0.6447
H172 H 0.5991 0.8669 0.6041
C215 C 0.5432(5) 0.7046(4) 0.4913(4)
H173 H 0.5377 0.7109 0.4567
H174 H 0.5627 0.6765 0.4954
C216 C 0.4798(6) 0.7023(4) 0.5086(4)
H175 H 0.4739 0.6733 0.5201
H176 H 0.4486 0.7069 0.4808
N10 N 0.4833(8) 0.3329(5) 0.8056(4)
O20 O 0.4614(5) 0.3378(4) 0.8450(4)
O21 O 0.5197(6) 0.3028(4) 0.7984(5)
O22 O 0.4642(8) 0.3565(5) 0.7709(5)
N11 N 0.5867(5) 0.3757(3) 0.7528(4)
O23 O 0.5536(7) 0.3808(4) 0.7870(5)
O24 O 0.6039(7) 0.4068(3) 0.7310(5)
O25 O 0.6096(5) 0.3397(3) 0.7475(4)
O26 O 0.9840(4) 0.8019(3) 0.5759(3)
O27 O 0.9240(5) 0.8426(4) 0.4994(4)
O28 O 0.4512(6) 0.4283(4) 0.8344(5)
O29 O 0.1010(6) 0.9671(4) 0.5374(5)
O30 O 0.0005(7) 0.9620(5) 0.5857(5)
O31 O 0.9920(7) 0.7442(6) 0.4295(6)
O32 O 0.0383(7) 0.9592(5) 0.4534(5)
O33 O 0.9048(9) 0.6329(8) 0.5159(7)
O34 O 0.8931(8) 0.5425(7) 0.5581(7)
O35 O 0.0591(10) 0.5890(9) 0.6416(8)
O36 O 0.0885(10) 0.4990(7) 0.5125(7)
O37 O 0.9386(3) 0.7401(3) 0.6319(3)
O38 O 0.0258(4) 0.7337(3) 0.5268(3)
O39 O 0.9457(6) 0.9260(4) 0.5064(5)
O40 O -0.0101(5) 0.6709(4) 0.5923(5)
O41 O 0.0188(6) 0.5258(5) 0.5947(5)
O42 O 0.4197(9) 0.8314(7) 0.8807(7)
N12 N 0.0485(9) 0.8558(5) 0.4132(5)
O43 O 0.0350(10) 0.8273(6) 0.3830(6)
O44 O 0.0377(12) 0.8503(8) 0.4559(6)
O45 O 0.0675(13) 0.8913(6) 0.4008(8)
loop_
_geom_bond_atom_site_label_1
_geom_bond_atom_site_label_2
_geom_bond_site_symmetry_1
_geom_bond_site_symmetry_2
C1 H1 1_555 1_555
C2 C17 1_555 1_555
C3 C18 1_555 1_555
C4 C13 1_555 1_555
C5 H2 1_555 1_555
C6 C24 1_555 1_555
C7 C20 1_555 1_555
C8 C34 1_555 1_555
C9 C20 1_555 1_555
C10 C21 1_555 1_555
C11 C48 1_555 1_555
C12 H3 1_555 1_555
C13 C77 1_555 1_555
C14 C18 1_555 1_555
C15 H4 1_555 1_555
C16 C24 1_555 1_555
C17 C72 1_555 1_555
C18 C91 1_555 1_555
C19 C36 1_555 1_555
C20 C28 1_555 1_555
C21 C29 1_555 1_555
C22 C7 1_555 1_555
C23 C9 1_555 1_555
C24 C33 1_555 1_555
C25 C4 1_555 1_555
C26 C2 1_555 1_555
C27 C22 1_555 1_555
C28 H5 1_555 1_555
C29 H6 1_555 1_555
C30 C46 1_555 1_555
C31 C3 1_555 1_555
H7 C31 1_555 1_555
C32 H8 1_555 1_555
C33 H9 1_555 1_555
C34 H10 1_555 1_555
C35 C67 1_555 1_555
C36 H11 1_555 1_555
C37 C23 1_555 1_555
H12 C37 1_555 1_555
C38 H13 1_555 1_555
C39 H14 1_555 1_555
C40 C4 1_555 1_555
H15 C40 1_555 1_555
C41 C7 1_555 1_555
H16 C41 1_555 1_555
C42 C6 1_555 1_555
C43 C22 1_555 1_555
C44 C32 1_555 1_555
C45 H17 1_555 1_555
C46 C73 1_555 1_555
C47 C119 1_555 1_555
C48 C8 1_555 1_555
C49 C10 1_555 1_555
C50 C26 1_555 1_555
H18 C50 1_555 1_555
C51 C2 1_555 1_555
C52 C70 1_555 1_555
C53 H19 1_555 1_555
C54 C5 1_555 1_555
C55 C77 1_555 1_555
C56 C36 1_555 1_555
H20 C56 1_555 1_555
C57 H21 1_555 1_555
C58 H22 1_555 1_555
C59 C15 1_555 1_555
C60 C71 1_555 1_555
C61 C30 1_555 1_555
C62 C10 1_555 1_555
C63 C38 1_555 1_555
C64 H23 1_555 1_555
C65 C33 1_555 1_555
H24 C65 1_555 1_555
C66 C56 1_555 1_555
H25 C66 1_555 1_555
C67 C11 1_555 1_555
C68 C53 1_555 1_555
C69 C19 1_555 1_555
C70 C63 1_555 1_555
C71 C76 1_555 1_555
C72 C27 1_555 1_555
H26 C72 1_555 1_555
C73 H27 1_555 1_555
C74 C14 1_555 1_555
H28 C74 1_555 1_555
C75 C37 1_555 1_555
H29 C75 1_555 1_555
C76 C49 1_555 1_555
C77 C142 1_555 1_555
C78 C85 1_555 1_555
C79 C25 1_555 1_555
C80 C43 1_555 1_555
H30 C80 1_555 1_555
C81 C62 1_555 1_555
H31 C81 1_555 1_555
C82 C68 1_555 1_555
C83 H32 1_555 1_555
C84 C66 1_555 1_555
H33 C84 1_555 1_555
C85 C16 1_555 1_555
C86 H34 1_555 1_555
C87 H35 1_555 1_555
C88 H36 1_555 1_555
C89 C6 1_555 1_555
C90 H37 1_555 1_555
C91 C51 1_555 1_555
C92 C14 1_555 1_555
H38 C92 1_555 1_555
C93 H39 1_555 1_555
C94 H40 1_555 1_555
C95 C34 1_555 1_555
H41 C95 1_555 1_555
C96 C45 1_555 1_555
H42 C96 1_555 1_555
C97 C32 1_555 1_555
C98 C70 1_555 1_555
C99 C51 1_555 1_555
H43 C99 1_555 1_555
C100 C52 1_555 1_555
C101 C11 1_555 1_555
H44 C101 1_555 1_555
C102 C39 1_555 1_555
C103 C25 1_555 1_555
H45 C103 1_555 1_555
C104 C62 1_555 1_555
C105 C58 1_555 1_555
H46 C105 1_555 1_555
C106 C35 1_555 1_555
C107 C13 1_555 1_555
C108 C101 1_555 1_555
H47 C108 1_555 1_555
C109 C41 1_555 1_555
H48 C109 1_555 1_555
C110 C38 1_555 1_555
H49 C110 1_555 1_555
C111 C28 1_555 1_555
H50 C111 1_555 1_555
C112 C8 1_555 1_555
C113 C16 1_555 1_555
H51 C113 1_555 1_555
C114 C105 1_555 1_555
H52 C114 1_555 1_555
C115 C50 1_555 1_555
H53 C115 1_555 1_555
C116 C107 1_555 1_555
H54 C116 1_555 1_555
C117 C88 1_555 1_555
H55 C117 1_555 1_555
C118 H56 1_555 1_555
C119 C19 1_555 1_555
C120 C74 1_555 1_555
H57 C120 1_555 1_555
C121 C31 1_555 1_555
H58 C121 1_555 1_555
C122 C12 1_555 1_555
H59 C122 1_555 1_555
C123 C108 1_555 1_555
H60 C123 1_555 1_555
C124 C58 1_555 1_555
C125 C106 1_555 1_555
H61 C125 1_555 1_555
C126 C42 1_555 1_555
H62 C126 1_555 1_555
C127 C21 1_555 1_555
H63 C127 1_555 1_555
C128 C112 1_555 1_555
H64 C128 1_555 1_555
C129 C52 1_555 1_555
H65 C129 1_555 1_555
C130 H66 1_555 1_555
C131 C1 1_555 1_555
H67 C131 1_555 1_555
C132 C100 1_555 1_555
H68 C132 1_555 1_555
C133 C104 1_555 1_555
H69 C133 1_555 1_555
C134 C61 1_555 1_555
H70 C134 1_555 1_555
C135 C75 1_555 1_555
H71 C135 1_555 1_555
C136 C57 1_555 1_555
H72 C136 1_555 1_555
C137 C78 1_555 1_555
H73 C137 1_555 1_555
C138 C76 1_555 1_555
H74 C138 1_555 1_555
C139 C49 1_555 1_555
H75 C139 1_555 1_555
C140 C60 1_555 1_555
H76 C140 1_555 1_555
C141 C65 1_555 1_555
H77 C141 1_555 1_555
C142 H78 1_555 1_555
C143 C95 1_555 1_555
H79 C143 1_555 1_555
C144 C40 1_555 1_555
H80 C144 1_555 1_555
C145 H81 1_555 1_555
C146 C130 1_555 1_555
H82 C146 1_555 1_555
C147 C103 1_555 1_555
H83 C147 1_555 1_555
C148 C139 1_555 1_555
H84 C148 1_555 1_555
C149 C39 1_555 1_555
H85 C149 1_555 1_555
C150 C67 1_555 1_555
H86 C150 1_555 1_555
C151 C136 1_555 1_555
H87 C151 1_555 1_555
C152 C129 1_555 1_555
H88 C152 1_555 1_555
C153 C59 1_555 1_555
H89 C153 1_555 1_555
C154 C132 1_555 1_555
H90 C154 1_555 1_555
C155 C125 1_555 1_555
H91 C155 1_555 1_555
C156 C55 1_555 1_555
H92 C156 1_555 1_555
C157 C138 1_555 1_555
H93 C157 1_555 1_555
C158 C133 1_555 1_555
H94 C158 1_555 1_555
C159 C81 1_555 1_555
H95 C159 1_555 1_555
C160 C46 1_555 1_555
H96 C160 1_555 1_555
C161 C91 1_555 1_555
H97 C161 1_555 1_555
C162 H98 1_555 1_555
C163 C68 1_555 1_555
H99 C163 1_555 1_555
C164 C90 1_555 1_555
H100 C164 1_555 1_555
C165 C161 1_555 1_555
H101 C165 1_555 1_555
C166 C155 1_555 1_555
H102 C166 1_555 1_555
C167 C145 1_555 1_555
H103 C167 1_555 1_555
C168 C99 1_555 1_555
H104 C168 1_555 1_555
C169 C17 1_555 1_555
O1 C169 1_555 1_555
C170 O1 1_555 1_555
H105 C170 1_555 1_555
H106 C170 1_555 1_555
C171 C170 1_555 1_555
H107 C171 1_555 1_555
H108 C171 1_555 1_555
O2 C171 1_555 1_555
C172 O2 1_555 1_555
H109 C172 1_555 1_555
H110 C172 1_555 1_555
H111 C172 1_555 1_555
C173 C27 1_555 1_555
O3 C173 1_555 1_555
C174 O3 1_555 1_555
H112 C174 1_555 1_555
H113 C174 1_555 1_555
C175 C174 1_555 1_555
H114 C175 1_555 1_555
H115 C175 1_555 1_555
O4 C175 1_555 1_555
C176 O4 1_555 1_555
H116 C176 1_555 1_555
H117 C176 1_555 1_555
H118 C176 1_555 1_555
C177 C87 1_555 1_555
O5 C177 1_555 1_555
C178 O5 1_555 1_555
H119 C178 1_555 1_555
H120 C178 1_555 1_555
C179 C178 1_555 1_555
H121 C179 1_555 1_555
H122 C179 1_555 1_555
O6 C179 1_555 1_555
C180 O6 1_555 1_555
H123 C180 1_555 1_555
H124 C180 1_555 1_555
H125 C180 1_555 1_555
C181 C44 1_555 1_555
O7 C181 1_555 1_555
C182 O7 1_555 1_555
H126 C182 1_555 1_555
H127 C182 1_555 1_555
C183 C182 1_555 1_555
H128 C183 1_555 1_555
H129 C183 1_555 1_555
O8 C183 1_555 1_555
C184 O8 1_555 1_555
H130 C184 1_555 1_555
H131 C184 1_555 1_555
H132 C184 1_555 1_555
C185 C42 1_555 1_555
O9 C185 1_555 1_555
C186 O9 1_555 1_555
H133 C186 1_555 1_555
H134 C186 1_555 1_555
C187 C186 1_555 1_555
H135 C187 1_555 1_555
H136 C187 1_555 1_555
O10 C187 1_555 1_555
C188 O10 1_555 1_555
H137 C188 1_555 1_555
H138 C188 1_555 1_555
H139 C188 1_555 1_555
C189 C47 1_555 1_555
O11 C189 1_555 1_555
C190 O11 1_555 1_555
H140 C190 1_555 1_555
H141 C190 1_555 1_555
C191 C190 1_555 1_555
H142 C191 1_555 1_555
H143 C191 1_555 1_555
O12 C191 1_555 1_555
C192 O12 1_555 1_555
H144 C192 1_555 1_555
H145 C192 1_555 1_555
H146 C192 1_555 1_555
C193 C98 1_555 1_555
O13 C193 1_555 1_555
C194 O13 1_555 1_555
H147 C194 1_555 1_555
H148 C194 1_555 1_555
C195 C194 1_555 1_555
H149 C195 1_555 1_555
H150 C195 1_555 1_555
O14 C195 1_555 1_555
C196 O14 1_555 1_555
H151 C196 1_555 1_555
H152 C196 1_555 1_555
H153 C196 1_555 1_555
C197 C60 1_555 1_555
O15 C197 1_555 1_555
C198 O15 1_555 1_555
H154 C198 1_555 1_555
H155 C198 1_555 1_555
C199 C198 1_555 1_555
H156 C199 1_555 1_555
H157 C199 1_555 1_555
O16 C199 1_555 1_555
C200 O16 1_555 1_555
H158 C200 1_555 1_555
H159 C200 1_555 1_555
H160 C200 1_555 1_555
N1 C1 1_555 1_555
N2 C73 1_555 1_555
N3 C64 1_555 1_555
N4 C45 1_555 1_555
N5 C86 1_555 1_555
N6 C53 1_555 1_555
N7 C15 1_555 1_555
N8 C5 1_555 1_555
Pd1 N4 1_555 1_555
Pd2 N1 1_555 1_555
N9 O17 1_555 1_555
O18 N9 1_555 1_555
O19 N9 1_555 1_555
C201 C202 1_555 1_555
C202 H161 1_555 1_555
C203 C202 1_555 1_555
H162 C203 1_555 1_555
C204 C203 1_555 1_555
C205 C204 1_555 1_555
H163 C205 1_555 1_555
C206 C201 1_555 1_555
H164 C206 1_555 1_555
C207 C208 1_555 1_555
C208 H165 1_555 1_555
C209 C208 1_555 1_555
H166 C209 1_555 1_555
C210 C209 1_555 1_555
C211 C210 1_555 1_555
H167 C211 1_555 1_555
C212 C207 1_555 1_555
H168 C212 1_555 1_555
C213 C204 1_555 1_555
H169 C213 1_555 1_555
H170 C213 1_555 1_555
C214 C210 1_555 1_555
H171 C214 1_555 1_555
H172 C214 1_555 1_555
C215 C207 1_555 1_555
H173 C215 1_555 1_555
H174 C215 1_555 1_555
C216 C201 1_555 1_555
H175 C216 1_555 1_555
H176 C216 1_555 1_555
N10 O20 1_555 1_555
O21 N10 1_555 1_555
O22 N10 1_555 1_555
N11 O23 1_555 1_555
O24 N11 1_555 1_555
O25 N11 1_555 1_555
N12 O43 1_555 1_555
O44 N12 1_555 1_555
O45 N12 1_555 1_555
C3 C26 1_555 1_555
C9 C54 1_555 1_555
C12 C54 1_555 1_555
C23 C43 1_555 1_555
C29 N1 1_555 1_555
C30 C69 1_555 1_555
C35 C112 1_555 1_555
C44 C48 1_555 1_555
C47 C126 1_555 1_555
C55 C79 1_555 1_555
C57 C89 1_555 1_555
C59 C85 1_555 1_555
C61 C124 1_555 1_555
C63 C102 1_555 1_555
C64 C106 1_555 1_555
C69 C84 1_555 1_555
C71 C104 1_555 1_555
C78 C89 1_555 1_555
C79 C97 1_555 1_555
C80 C135 1_555 1_555
C82 C100 1_555 1_555
C82 C102 1_555 1_555
C83 C185 1_555 1_555
C83 C189 1_555 1_555
C86 C120 1_555 1_555
C87 C181 1_555 1_555
C88 N6 1_555 1_555
C90 N7 1_555 1_555
C92 N5 1_555 1_555
C93 C96 1_555 1_555
C93 C107 1_555 1_555
C94 C169 1_555 1_555
C94 C173 1_555 1_555
C97 C177 1_555 1_555
C98 C140 1_555 1_555
C109 C111 1_555 1_555
C110 C149 1_555 1_555
C113 C141 1_555 1_555
C114 C134 1_555 1_555
C115 C121 1_555 1_555
C116 N4 1_555 1_555
C117 C163 1_555 1_555
C118 C122 1_555 1_555
C118 N8 1_555 1_555
C119 C124 1_555 1_555
C123 C150 1_555 1_555
C127 C131 1_555 1_555
C128 C143 1_555 1_555
C130 C156 1_555 1_555
C137 C151 1_555 1_555
C142 C146 1_555 1_555
C144 C147 1_555 1_555
C145 N2 1_555 1_555
C148 C157 1_555 1_555
C152 C154 1_555 1_555
C153 C164 1_555 1_555
C158 C159 1_555 1_555
C160 C167 1_555 1_555
C162 C193 1_555 1_555
C162 C197 1_555 1_555
C165 C168 1_555 1_555
C166 N3 1_555 1_555
N2 Pd2 1_555 1_555
N3 Pd2 1_555 1_555
N5 Pd1 1_555 1_555
N6 Pd1 1_555 1_555
N7 Pd1 1_555 1_555
N8 Pd2 1_555 1_555
C205 C206 1_555 1_555
C211 C212 1_555 1_555
C213 C214 1_555 1_555
C215 C216 1_555 1_555

#END
