# generated using pymatgen
data_H192Pd2C232N13O51
_symmetry_space_group_name_H-M   'P 1'
_cell_length_a   21.67950000
_cell_length_b   28.20700000
_cell_length_c   31.71400000
_cell_angle_alpha   90.00000000
_cell_angle_beta   90.00000000
_cell_angle_gamma   96.21300000
_symmetry_Int_Tables_number   1
_chemical_formula_structural   H192Pd2C232N13O51
_chemical_formula_sum   'H768 Pd8 C928 N52 O204'
_cell_volume   19279.63484305
_cell_formula_units_Z   4
loop_
 _symmetry_equiv_pos_site_id
 _symmetry_equiv_pos_as_xyz
  1  'x, y, z'
loop_
 _atom_site_type_symbol
 _atom_site_label
 _atom_site_symmetry_multiplicity
 _atom_site_fract_x
 _atom_site_fract_y
 _atom_site_fract_z
 _atom_site_occupancy
  H  H1  1  0.128500  0.402900  0.330800  1
  H  H2  1  0.371500  0.097100  0.830800  1
  H  H3  1  0.871500  0.597100  0.669200  1
  H  H4  1  0.628500  0.902900  0.169200  1
  H  H5  1  0.273900  0.330100  0.203900  1
  H  H6  1  0.226100  0.169900  0.703900  1
  H  H7  1  0.726100  0.669900  0.796100  1
  H  H8  1  0.773900  0.830100  0.296100  1
  H  H9  1  0.227600  0.194100  0.237200  1
  H  H10  1  0.272400  0.305900  0.737200  1
  H  H11  1  0.772400  0.805900  0.762800  1
  H  H12  1  0.727600  0.694100  0.262800  1
  H  H13  1  0.749400  0.480700  0.322800  1
  H  H14  1  0.750600  0.019300  0.822800  1
  H  H15  1  0.250600  0.519300  0.677200  1
  H  H16  1  0.249400  0.980700  0.177200  1
  H  H17  1  0.333800  0.236800  0.275300  1
  H  H18  1  0.166200  0.263200  0.775300  1
  H  H19  1  0.666200  0.763200  0.724700  1
  H  H20  1  0.833800  0.736800  0.224700  1
  H  H21  1  0.285700  0.350900  0.302900  1
  H  H22  1  0.214300  0.149100  0.802900  1
  H  H23  1  0.714300  0.649100  0.697100  1
  H  H24  1  0.785700  0.850900  0.197100  1
  H  H25  1  0.832600  0.310600  0.160000  1
  H  H26  1  0.667400  0.189400  0.660000  1
  H  H27  1  0.167400  0.689400  0.840000  1
  H  H28  1  0.332600  0.810600  0.340000  1
  H  H29  1  0.496700  0.538900  0.125400  1
  H  H30  1  0.003300  0.961100  0.625400  1
  H  H31  1  0.503300  0.461100  0.874600  1
  H  H32  1  0.996700  0.038900  0.374600  1
  H  H33  1  0.627100  0.645200  0.378900  1
  H  H34  1  0.872900  0.854800  0.878900  1
  H  H35  1  0.372900  0.354800  0.621100  1
  H  H36  1  0.127100  0.145200  0.121100  1
  H  H37  1  0.384600  0.629700  0.128000  1
  H  H38  1  0.115400  0.870300  0.628000  1
  H  H39  1  0.615400  0.370300  0.872000  1
  H  H40  1  0.884600  0.129700  0.372000  1
  H  H41  1  0.459100  0.661200  0.347200  1
  H  H42  1  0.040900  0.838800  0.847200  1
  H  H43  1  0.540900  0.338800  0.652800  1
  H  H44  1  0.959100  0.161200  0.152800  1
  H  H45  1  0.230400  0.279100  0.140700  1
  H  H46  1  0.269600  0.220900  0.640700  1
  H  H47  1  0.769600  0.720900  0.859300  1
  H  H48  1  0.730400  0.779100  0.359300  1
  H  H49  1  0.579200  0.165300  0.327600  1
  H  H50  1  0.920800  0.334700  0.827600  1
  H  H51  1  0.420800  0.834700  0.672400  1
  H  H52  1  0.079200  0.665300  0.172400  1
  H  H53  1  0.753700  0.229500  0.250200  1
  H  H54  1  0.746300  0.270500  0.750200  1
  H  H55  1  0.246300  0.770500  0.749800  1
  H  H56  1  0.253700  0.729500  0.249800  1
  H  H57  1  0.800300  0.536700  0.144000  1
  H  H58  1  0.699700  0.963300  0.644000  1
  H  H59  1  0.199700  0.463300  0.856000  1
  H  H60  1  0.300300  0.036700  0.356000  1
  H  H61  1  0.503600  0.194800  0.197100  1
  H  H62  1  0.996400  0.305200  0.697100  1
  H  H63  1  0.496400  0.805200  0.802900  1
  H  H64  1  0.003600  0.694800  0.302900  1
  H  H65  1  0.895800  0.540500  0.285200  1
  H  H66  1  0.604200  0.959500  0.785200  1
  H  H67  1  0.104200  0.459500  0.714800  1
  H  H68  1  0.395800  0.040500  0.214800  1
  H  H69  1  0.667200  0.195300  0.126600  1
  H  H70  1  0.832800  0.304700  0.626600  1
  H  H71  1  0.332800  0.804700  0.873400  1
  H  H72  1  0.167200  0.695300  0.373400  1
  H  H73  1  0.766100  0.359600  0.304100  1
  H  H74  1  0.733900  0.140400  0.804100  1
  H  H75  1  0.233900  0.640400  0.695900  1
  H  H76  1  0.266100  0.859600  0.195900  1
  H  H77  1  0.447200  0.696600  0.283400  1
  H  H78  1  0.052800  0.803400  0.783400  1
  H  H79  1  0.552800  0.303400  0.716600  1
  H  H80  1  0.947200  0.196600  0.216600  1
  H  H81  1  0.536500  0.509200  0.466200  1
  H  H82  1  0.963500  0.990800  0.966200  1
  H  H83  1  0.463500  0.490800  0.533800  1
  H  H84  1  0.036500  0.009200  0.033800  1
  H  H85  1  0.396500  0.529600  0.448500  1
  H  H86  1  0.103500  0.970400  0.948500  1
  H  H87  1  0.603500  0.470400  0.551500  1
  H  H88  1  0.896500  0.029600  0.051500  1
  H  H89  1  0.265300  0.449900  0.184900  1
  H  H90  1  0.234700  0.050100  0.684900  1
  H  H91  1  0.734700  0.550100  0.815100  1
  H  H92  1  0.765300  0.949900  0.315100  1
  H  H93  1  0.710400  0.683200  0.343600  1
  H  H94  1  0.789600  0.816800  0.843600  1
  H  H95  1  0.289600  0.316800  0.656400  1
  H  H96  1  0.210400  0.183200  0.156400  1
  H  H97  1  0.372000  0.663400  0.234900  1
  H  H98  1  0.128000  0.836600  0.734900  1
  H  H99  1  0.628000  0.336600  0.765100  1
  H  H100  1  0.872000  0.163400  0.265100  1
  H  H101  1  0.530700  0.272600  0.147500  1
  H  H102  1  0.969300  0.227400  0.647500  1
  H  H103  1  0.469300  0.727400  0.852500  1
  H  H104  1  0.030700  0.772600  0.352500  1
  H  H105  1  0.276000  0.466700  0.293800  1
  H  H106  1  0.224000  0.033300  0.793800  1
  H  H107  1  0.724000  0.533300  0.706200  1
  H  H108  1  0.776000  0.966700  0.206200  1
  H  H109  1  0.828900  0.407600  0.086400  1
  H  H110  1  0.671100  0.092400  0.586400  1
  H  H111  1  0.171100  0.592400  0.913600  1
  H  H112  1  0.328900  0.907600  0.413600  1
  H  H113  1  0.237700  0.293700  0.069100  1
  H  H114  1  0.262300  0.206300  0.569100  1
  H  H115  1  0.762300  0.706300  0.930900  1
  H  H116  1  0.737700  0.793700  0.430900  1
  H  H117  1  0.407200  0.246800  0.065300  1
  H  H118  1  0.092800  0.253200  0.565300  1
  H  H119  1  0.592800  0.753200  0.934700  1
  H  H120  1  0.907200  0.746800  0.434700  1
  H  H121  1  0.220600  0.254700  0.356400  1
  H  H122  1  0.279400  0.245300  0.856400  1
  H  H123  1  0.779400  0.745300  0.643600  1
  H  H124  1  0.720600  0.754700  0.143600  1
  H  H125  1  0.512600  0.674900  0.476600  1
  H  H126  1  0.987400  0.825100  0.976600  1
  H  H127  1  0.487400  0.325100  0.523400  1
  H  H128  1  0.012600  0.174900  0.023400  1
  H  H129  1  0.302700  0.598600  0.254500  1
  H  H130  1  0.197300  0.901400  0.754500  1
  H  H131  1  0.697300  0.401400  0.745500  1
  H  H132  1  0.802700  0.098600  0.245500  1
  H  H133  1  0.909700  0.477200  0.186900  1
  H  H134  1  0.590300  0.022800  0.686900  1
  H  H135  1  0.090300  0.522800  0.813100  1
  H  H136  1  0.409700  0.977200  0.313100  1
  H  H137  1  0.516500  0.673300  0.039600  1
  H  H138  1  0.983500  0.826700  0.539600  1
  H  H139  1  0.483500  0.326700  0.960400  1
  H  H140  1  0.016500  0.173300  0.460400  1
  H  H141  1  0.927200  0.369600  0.244500  1
  H  H142  1  0.572800  0.130400  0.744500  1
  H  H143  1  0.072800  0.630400  0.755500  1
  H  H144  1  0.427200  0.869600  0.255500  1
  H  H145  1  0.905400  0.425200  0.345600  1
  H  H146  1  0.594600  0.074800  0.845600  1
  H  H147  1  0.094600  0.574800  0.654400  1
  H  H148  1  0.405400  0.925200  0.154400  1
  H  H149  1  0.766000  0.379900  0.204200  1
  H  H150  1  0.734000  0.120100  0.704200  1
  H  H151  1  0.234000  0.620100  0.795800  1
  H  H152  1  0.266000  0.879900  0.295800  1
  H  H153  1  0.800500  0.633300  0.221800  1
  H  H154  1  0.699500  0.866700  0.721800  1
  H  H155  1  0.199500  0.366700  0.778200  1
  H  H156  1  0.300500  0.133300  0.278200  1
  H  H157  1  0.527900  0.154700  0.045300  1
  H  H158  1  0.972100  0.345300  0.545300  1
  H  H159  1  0.472100  0.845300  0.954700  1
  H  H160  1  0.027900  0.654700  0.454700  1
  H  H161  1  0.306600  0.654600  0.168200  1
  H  H162  1  0.193400  0.845400  0.668200  1
  H  H163  1  0.693400  0.345400  0.831800  1
  H  H164  1  0.806600  0.154600  0.331800  1
  H  H165  1  0.882900  0.618300  0.266900  1
  H  H166  1  0.617100  0.881700  0.766900  1
  H  H167  1  0.117100  0.381700  0.733100  1
  H  H168  1  0.382900  0.118300  0.233100  1
  H  H169  1  0.543700  0.324500  0.077500  1
  H  H170  1  0.956300  0.175500  0.577500  1
  H  H171  1  0.456300  0.675500  0.922500  1
  H  H172  1  0.043700  0.824500  0.422500  1
  H  H173  1  0.461200  0.505100  0.036300  1
  H  H174  1  0.038800  0.994900  0.536300  1
  H  H175  1  0.538800  0.494900  0.963700  1
  H  H176  1  0.961200  0.005100  0.463700  1
  H  H177  1  0.632000  0.561400  0.056900  1
  H  H178  1  0.868000  0.938600  0.556900  1
  H  H179  1  0.368000  0.438600  0.943100  1
  H  H180  1  0.132000  0.061400  0.443100  1
  H  H181  1  0.323800  0.472000  0.472000  1
  H  H182  1  0.176200  0.028000  0.972000  1
  H  H183  1  0.676200  0.528000  0.528000  1
  H  H184  1  0.823800  0.972000  0.028000  1
  H  H185  1  0.450200  0.428300  0.009300  1
  H  H186  1  0.049800  0.071700  0.509300  1
  H  H187  1  0.549800  0.571700  0.990700  1
  H  H188  1  0.950200  0.928300  0.490700  1
  H  H189  1  0.502600  0.188800  0.269200  1
  H  H190  1  0.997400  0.311200  0.769200  1
  H  H191  1  0.497400  0.811200  0.730800  1
  H  H192  1  0.002600  0.688800  0.230800  1
  H  H193  1  0.597500  0.136900  0.261200  1
  H  H194  1  0.902500  0.363100  0.761200  1
  H  H195  1  0.402500  0.863100  0.738800  1
  H  H196  1  0.097500  0.636900  0.238800  1
  H  H197  1  0.418800  0.211900  0.308600  1
  H  H198  1  0.081200  0.288100  0.808600  1
  H  H199  1  0.581200  0.788100  0.691400  1
  H  H200  1  0.918800  0.711900  0.191400  1
  H  H201  1  0.803800  0.566600  0.353300  1
  H  H202  1  0.696200  0.933400  0.853300  1
  H  H203  1  0.196200  0.433400  0.646700  1
  H  H204  1  0.303800  0.066600  0.146700  1
  H  H205  1  0.232500  0.450300  0.432100  1
  H  H206  1  0.267500  0.049700  0.932100  1
  H  H207  1  0.767500  0.549700  0.567900  1
  H  H208  1  0.732500  0.950300  0.067900  1
  H  H209  1  0.757800  0.173200  0.154400  1
  H  H210  1  0.742200  0.326800  0.654400  1
  H  H211  1  0.242200  0.826800  0.845600  1
  H  H212  1  0.257800  0.673200  0.345600  1
  H  H213  1  0.746900  0.491500  0.219800  1
  H  H214  1  0.753100  0.008500  0.719800  1
  H  H215  1  0.253100  0.508500  0.780200  1
  H  H216  1  0.246900  0.991500  0.280200  1
  H  H217  1  0.933000  0.288300  0.253600  1
  H  H218  1  0.567000  0.211700  0.753600  1
  H  H219  1  0.067000  0.711700  0.746400  1
  H  H220  1  0.433000  0.788300  0.246400  1
  H  H221  1  0.124700  0.297800  0.273800  1
  H  H222  1  0.375300  0.202200  0.773800  1
  H  H223  1  0.875300  0.702200  0.726200  1
  H  H224  1  0.624700  0.797800  0.226200  1
  H  H225  1  0.904600  0.464300  0.114400  1
  H  H226  1  0.595400  0.035700  0.614400  1
  H  H227  1  0.095400  0.535700  0.885600  1
  H  H228  1  0.404600  0.964300  0.385600  1
  H  H229  1  0.840600  0.230400  0.171900  1
  H  H230  1  0.659400  0.269600  0.671900  1
  H  H231  1  0.159400  0.769600  0.828100  1
  H  H232  1  0.340600  0.730400  0.328100  1
  H  H233  1  0.139700  0.217100  0.271400  1
  H  H234  1  0.360300  0.282900  0.771400  1
  H  H235  1  0.860300  0.782900  0.728600  1
  H  H236  1  0.639700  0.717100  0.228600  1
  H  H237  1  0.362600  0.375000  0.027800  1
  H  H238  1  0.137400  0.125000  0.527800  1
  H  H239  1  0.637400  0.625000  0.972200  1
  H  H240  1  0.862600  0.875000  0.472200  1
  H  H241  1  0.178500  0.435500  0.072900  1
  H  H242  1  0.321500  0.064500  0.572900  1
  H  H243  1  0.821500  0.564500  0.927100  1
  H  H244  1  0.678500  0.935500  0.427100  1
  H  H245  1  0.501400  0.547100  0.383300  1
  H  H246  1  0.998600  0.952900  0.883300  1
  H  H247  1  0.498600  0.452900  0.616700  1
  H  H248  1  0.001400  0.047100  0.116700  1
  H  H249  1  0.221500  0.341300  0.422400  1
  H  H250  1  0.278500  0.158700  0.922400  1
  H  H251  1  0.778500  0.658700  0.577600  1
  H  H252  1  0.721500  0.841300  0.077600  1
  H  H253  1  0.204000  0.527900  0.157300  1
  H  H254  1  0.296000  0.972100  0.657300  1
  H  H255  1  0.796000  0.472100  0.842700  1
  H  H256  1  0.704000  0.027900  0.342700  1
  H  H257  1  0.634200  0.279300  0.443800  1
  H  H258  1  0.865800  0.220700  0.943800  1
  H  H259  1  0.365800  0.720700  0.556200  1
  H  H260  1  0.134200  0.779300  0.056200  1
  H  H261  1  0.516500  0.638000  0.250400  1
  H  H262  1  0.983500  0.862000  0.750400  1
  H  H263  1  0.483500  0.362000  0.749600  1
  H  H264  1  0.016500  0.138000  0.249600  1
  H  H265  1  0.137100  0.380500  0.401000  1
  H  H266  1  0.362900  0.119500  0.901000  1
  H  H267  1  0.862900  0.619500  0.599000  1
  H  H268  1  0.637100  0.880500  0.099000  1
  H  H269  1  0.820300  0.334200  0.374300  1
  H  H270  1  0.679700  0.165800  0.874300  1
  H  H271  1  0.179700  0.665800  0.625700  1
  H  H272  1  0.320300  0.834200  0.125700  1
  H  H273  1  0.392500  0.174800  0.389700  1
  H  H274  1  0.107500  0.325200  0.889700  1
  H  H275  1  0.607500  0.825200  0.610300  1
  H  H276  1  0.892500  0.674800  0.110300  1
  H  H277  1  0.219900  0.483500  0.367400  1
  H  H278  1  0.280100  0.016500  0.867400  1
  H  H279  1  0.780100  0.516500  0.632600  1
  H  H280  1  0.719900  0.983500  0.132600  1
  H  H281  1  0.326100  0.276400  0.031400  1
  H  H282  1  0.173900  0.223600  0.531400  1
  H  H283  1  0.673900  0.723600  0.968600  1
  H  H284  1  0.826100  0.776400  0.468600  1
  H  H285  1  0.542700  0.434700  0.494100  1
  H  H286  1  0.957300  0.065300  0.994100  1
  H  H287  1  0.457300  0.565300  0.505900  1
  H  H288  1  0.042700  0.934700  0.005900  1
  H  H289  1  0.704100  0.424100  0.433500  1
  H  H290  1  0.795900  0.075900  0.933500  1
  H  H291  1  0.295900  0.575900  0.566500  1
  H  H292  1  0.204100  0.924100  0.066500  1
  H  H293  1  0.521200  0.331600  0.409700  1
  H  H294  1  0.978800  0.168400  0.909700  1
  H  H295  1  0.478800  0.668400  0.590300  1
  H  H296  1  0.021200  0.831600  0.090300  1
  H  H297  1  0.347400  0.410300  0.380600  1
  H  H298  1  0.152600  0.089700  0.880600  1
  H  H299  1  0.652600  0.589700  0.619400  1
  H  H300  1  0.847400  0.910300  0.119400  1
  H  H301  1  0.532500  0.265600  0.358200  1
  H  H302  1  0.967500  0.234400  0.858200  1
  H  H303  1  0.467500  0.734400  0.641800  1
  H  H304  1  0.032500  0.765600  0.141800  1
  H  H305  1  0.801700  0.644400  0.333200  1
  H  H306  1  0.698300  0.855600  0.833200  1
  H  H307  1  0.198300  0.355600  0.666800  1
  H  H308  1  0.301700  0.144400  0.166800  1
  H  H309  1  0.685300  0.591900  0.268700  1
  H  H310  1  0.814700  0.908100  0.768700  1
  H  H311  1  0.314700  0.408100  0.731300  1
  H  H312  1  0.185300  0.091900  0.231300  1
  H  H313  1  0.216800  0.603900  0.182600  1
  H  H314  1  0.283200  0.896100  0.682600  1
  H  H315  1  0.783200  0.396100  0.817400  1
  H  H316  1  0.716800  0.103900  0.317400  1
  H  H317  1  0.803300  0.519500  0.073300  1
  H  H318  1  0.696700  0.980500  0.573300  1
  H  H319  1  0.196700  0.480500  0.926700  1
  H  H320  1  0.303300  0.019500  0.426700  1
  H  H321  1  0.119100  0.472200  0.231100  1
  H  H322  1  0.380900  0.027800  0.731100  1
  H  H323  1  0.880900  0.527800  0.768900  1
  H  H324  1  0.619100  0.972200  0.268900  1
  H  H325  1  0.599400  0.620700  0.296000  1
  H  H326  1  0.900600  0.879300  0.796000  1
  H  H327  1  0.400600  0.379300  0.704000  1
  H  H328  1  0.099400  0.120700  0.204000  1
  H  H329  1  0.717600  0.531900  0.029200  1
  H  H330  1  0.782400  0.968100  0.529200  1
  H  H331  1  0.282400  0.468100  0.970800  1
  H  H332  1  0.217600  0.031900  0.470800  1
  H  H333  1  0.441500  0.453300  0.391900  1
  H  H334  1  0.058500  0.046700  0.891900  1
  H  H335  1  0.558500  0.546700  0.608100  1
  H  H336  1  0.941500  0.953300  0.108100  1
  H  H337  1  0.683900  0.171100  0.221800  1
  H  H338  1  0.816100  0.328900  0.721800  1
  H  H339  1  0.316100  0.828900  0.778200  1
  H  H340  1  0.183900  0.671100  0.278200  1
  H  H341  1  0.289300  0.397400  0.072800  1
  H  H342  1  0.210700  0.102600  0.572800  1
  H  H343  1  0.710700  0.602600  0.927200  1
  H  H344  1  0.789300  0.897400  0.427200  1
  H  H345  1  0.626100  0.392300  0.476900  1
  H  H346  1  0.873900  0.107700  0.976900  1
  H  H347  1  0.373900  0.607700  0.523100  1
  H  H348  1  0.126100  0.892300  0.023100  1
  H  H349  1  0.703900  0.335400  0.474400  1
  H  H350  1  0.796100  0.164600  0.974400  1
  H  H351  1  0.296100  0.664600  0.525600  1
  H  H352  1  0.203900  0.835400  0.025600  1
  H  H353  1  0.814500  0.479400  0.442100  1
  H  H354  1  0.685500  0.020600  0.942100  1
  H  H355  1  0.185500  0.520600  0.557900  1
  H  H356  1  0.314500  0.979400  0.057900  1
  H  H357  1  0.796300  0.363600  0.440100  1
  H  H358  1  0.703700  0.136400  0.940100  1
  H  H359  1  0.203700  0.636400  0.559900  1
  H  H360  1  0.296300  0.863600  0.059900  1
  H  H361  1  0.103700  0.380700  0.104200  1
  H  H362  1  0.396300  0.119300  0.604200  1
  H  H363  1  0.896300  0.619300  0.895800  1
  H  H364  1  0.603700  0.880700  0.395800  1
  H  H365  1  0.520600  0.620900  0.179800  1
  H  H366  1  0.979400  0.879100  0.679800  1
  H  H367  1  0.479400  0.379100  0.820200  1
  H  H368  1  0.020600  0.120900  0.320200  1
  H  H369  1  0.529800  0.413700  0.404200  1
  H  H370  1  0.970200  0.086300  0.904200  1
  H  H371  1  0.470200  0.586300  0.595800  1
  H  H372  1  0.029800  0.913700  0.095800  1
  H  H373  1  0.301600  0.133000  0.369700  1
  H  H374  1  0.198400  0.367000  0.869700  1
  H  H375  1  0.698400  0.867000  0.630300  1
  H  H376  1  0.801600  0.633000  0.130300  1
  H  H377  1  0.214000  0.173800  0.353000  1
  H  H378  1  0.286000  0.326200  0.853000  1
  H  H379  1  0.786000  0.826200  0.647000  1
  H  H380  1  0.714000  0.673800  0.147000  1
  H  H381  1  0.194900  0.588100  0.294100  1
  H  H382  1  0.305100  0.911900  0.794100  1
  H  H383  1  0.805100  0.411900  0.705900  1
  H  H384  1  0.694900  0.088100  0.205900  1
  H  H385  1  0.708100  0.438800  0.112400  1
  H  H386  1  0.791900  0.061200  0.612400  1
  H  H387  1  0.291900  0.561200  0.887600  1
  H  H388  1  0.208100  0.938800  0.387600  1
  H  H389  1  0.521700  0.165800  0.474700  1
  H  H390  1  0.978300  0.334200  0.974700  1
  H  H391  1  0.478300  0.834200  0.525300  1
  H  H392  1  0.021700  0.665800  0.025300  1
  H  H393  1  0.857100  0.242200  0.291800  1
  H  H394  1  0.642900  0.257800  0.791800  1
  H  H395  1  0.142900  0.757800  0.708200  1
  H  H396  1  0.357100  0.742200  0.208200  1
  H  H397  1  0.898300  0.441400  0.416700  1
  H  H398  1  0.601700  0.058600  0.916700  1
  H  H399  1  0.101700  0.558600  0.583300  1
  H  H400  1  0.398300  0.941400  0.083300  1
  H  H401  1  0.617700  0.462400  0.086500  1
  H  H402  1  0.882300  0.037600  0.586500  1
  H  H403  1  0.382300  0.537600  0.913500  1
  H  H404  1  0.117700  0.962400  0.413500  1
  H  H405  1  0.112300  0.360600  0.174600  1
  H  H406  1  0.387700  0.139400  0.674600  1
  H  H407  1  0.887700  0.639400  0.825400  1
  H  H408  1  0.612300  0.860600  0.325400  1
  H  H409  1  0.116900  0.551900  0.249300  1
  H  H410  1  0.383100  0.948100  0.749300  1
  H  H411  1  0.883100  0.448100  0.750700  1
  H  H412  1  0.616900  0.051900  0.250700  1
  H  H413  1  0.534200  0.403900  0.067900  1
  H  H414  1  0.965800  0.096100  0.567900  1
  H  H415  1  0.465800  0.596100  0.932100  1
  H  H416  1  0.034200  0.903900  0.432100  1
  H  H417  1  0.664100  0.191800  0.990700  1
  H  H418  1  0.835900  0.308200  0.490700  1
  H  H419  1  0.335900  0.808200  0.009300  1
  H  H420  1  0.164100  0.691800  0.509300  1
  H  H421  1  0.593800  0.171100  0.000100  1
  H  H422  1  0.906200  0.328900  0.500100  1
  H  H423  1  0.406200  0.828900  0.999900  1
  H  H424  1  0.093800  0.671100  0.499900  1
  H  H425  1  0.632100  0.123200  0.055200  1
  H  H426  1  0.867900  0.376800  0.555200  1
  H  H427  1  0.367900  0.876800  0.944800  1
  H  H428  1  0.132100  0.623200  0.444800  1
  H  H429  1  0.652400  0.108700  0.008500  1
  H  H430  1  0.847600  0.391300  0.508500  1
  H  H431  1  0.347600  0.891300  0.991500  1
  H  H432  1  0.152400  0.608700  0.491500  1
  H  H433  1  0.786000  0.115800  0.071700  1
  H  H434  1  0.714000  0.384200  0.571700  1
  H  H435  1  0.214000  0.884200  0.928300  1
  H  H436  1  0.286000  0.615800  0.428300  1
  H  H437  1  0.743500  0.078900  0.042900  1
  H  H438  1  0.756500  0.421100  0.542900  1
  H  H439  1  0.256500  0.921100  0.957100  1
  H  H440  1  0.243500  0.578900  0.457100  1
  H  H441  1  0.717400  0.096500  0.086700  1
  H  H442  1  0.782600  0.403500  0.586700  1
  H  H443  1  0.282600  0.903500  0.913300  1
  H  H444  1  0.217400  0.596500  0.413300  1
  H  H445  1  0.440000  0.112000  0.040400  1
  H  H446  1  0.060000  0.388000  0.540400  1
  H  H447  1  0.560000  0.888000  0.959600  1
  H  H448  1  0.940000  0.612000  0.459600  1
  H  H449  1  0.382800  0.090200  0.068300  1
  H  H450  1  0.117200  0.409800  0.568300  1
  H  H451  1  0.617200  0.909800  0.931700  1
  H  H452  1  0.882800  0.590200  0.431700  1
  H  H453  1  0.461400  0.042200  0.069500  1
  H  H454  1  0.038600  0.457800  0.569500  1
  H  H455  1  0.538600  0.957800  0.930500  1
  H  H456  1  0.961400  0.542200  0.430500  1
  H  H457  1  0.507800  0.084800  0.089000  1
  H  H458  1  0.992200  0.415200  0.589000  1
  H  H459  1  0.492200  0.915200  0.911000  1
  H  H460  1  0.007800  0.584800  0.411000  1
  H  H461  1  0.511100  0.106900  0.145700  1
  H  H462  1  0.988900  0.393100  0.645700  1
  H  H463  1  0.488900  0.893100  0.854300  1
  H  H464  1  0.011100  0.606900  0.354300  1
  H  H465  1  0.501000  0.061400  0.176100  1
  H  H466  1  0.999000  0.438600  0.676100  1
  H  H467  1  0.499000  0.938600  0.823900  1
  H  H468  1  0.001000  0.561400  0.323900  1
  H  H469  1  0.454600  0.101700  0.178400  1
  H  H470  1  0.045400  0.398300  0.678400  1
  H  H471  1  0.545400  0.898300  0.821600  1
  H  H472  1  0.954600  0.601700  0.321600  1
  H  H473  1  0.619200  0.683300  0.025800  1
  H  H474  1  0.880800  0.816700  0.525800  1
  H  H475  1  0.380800  0.316700  0.974200  1
  H  H476  1  0.119200  0.183300  0.474200  1
  H  H477  1  0.683500  0.694300  0.050200  1
  H  H478  1  0.816500  0.805700  0.550200  1
  H  H479  1  0.316500  0.305700  0.949800  1
  H  H480  1  0.183500  0.194300  0.449800  1
  H  H481  1  0.621300  0.752300  0.088500  1
  H  H482  1  0.878700  0.747700  0.588500  1
  H  H483  1  0.378700  0.247700  0.911500  1
  H  H484  1  0.121300  0.252300  0.411500  1
  H  H485  1  0.660900  0.766800  0.046700  1
  H  H486  1  0.839100  0.733200  0.546700  1
  H  H487  1  0.339100  0.233200  0.953300  1
  H  H488  1  0.160900  0.266800  0.453300  1
  H  H489  1  0.525500  0.802100  0.013200  1
  H  H490  1  0.974500  0.697900  0.513200  1
  H  H491  1  0.474500  0.197900  0.986800  1
  H  H492  1  0.025500  0.302100  0.486800  1
  H  H493  1  0.598300  0.817200  0.018800  1
  H  H494  1  0.901700  0.682800  0.518800  1
  H  H495  1  0.401700  0.182800  0.981200  1
  H  H496  1  0.098300  0.317200  0.481200  1
  H  H497  1  0.553800  0.813400  0.059200  1
  H  H498  1  0.946200  0.686600  0.559200  1
  H  H499  1  0.446200  0.186600  0.940800  1
  H  H500  1  0.053800  0.313400  0.440800  1
  H  H501  1  0.428900  0.679600  0.997400  1
  H  H502  1  0.071100  0.820400  0.497400  1
  H  H503  1  0.571100  0.320400  0.002600  1
  H  H504  1  0.928900  0.179600  0.502600  1
  H  H505  1  0.414400  0.695700  0.044500  1
  H  H506  1  0.085600  0.804300  0.544500  1
  H  H507  1  0.585600  0.304300  0.955500  1
  H  H508  1  0.914400  0.195700  0.455500  1
  H  H509  1  0.335300  0.710800  0.999900  1
  H  H510  1  0.164700  0.789200  0.499900  1
  H  H511  1  0.664700  0.289200  0.000100  1
  H  H512  1  0.835300  0.210800  0.500100  1
  H  H513  1  0.326100  0.656200  0.985800  1
  H  H514  1  0.173900  0.843800  0.485800  1
  H  H515  1  0.673900  0.343800  0.014200  1
  H  H516  1  0.826100  0.156200  0.514200  1
  H  H517  1  0.263300  0.697300  0.093900  1
  H  H518  1  0.236700  0.802700  0.593900  1
  H  H519  1  0.736700  0.302700  0.906100  1
  H  H520  1  0.763300  0.197300  0.406100  1
  H  H521  1  0.284700  0.734900  0.057600  1
  H  H522  1  0.215300  0.765100  0.557600  1
  H  H523  1  0.715300  0.265100  0.942400  1
  H  H524  1  0.784700  0.234900  0.442400  1
  H  H525  1  0.335500  0.711300  0.084800  1
  H  H526  1  0.164500  0.788700  0.584800  1
  H  H527  1  0.664500  0.288700  0.915200  1
  H  H528  1  0.835500  0.211300  0.415200  1
  H  H529  1  0.616300  0.664800  0.527200  1
  H  H530  1  0.883700  0.835200  0.027200  1
  H  H531  1  0.383700  0.335200  0.472800  1
  H  H532  1  0.116300  0.164800  0.972800  1
  H  H533  1  0.603800  0.700500  0.489400  1
  H  H534  1  0.896200  0.799500  0.989400  1
  H  H535  1  0.396200  0.299500  0.510600  1
  H  H536  1  0.103800  0.200500  0.010600  1
  H  H537  1  0.709200  0.699900  0.467300  1
  H  H538  1  0.790800  0.800100  0.967300  1
  H  H539  1  0.290800  0.300100  0.532700  1
  H  H540  1  0.209200  0.199900  0.032700  1
  H  H541  1  0.704300  0.722300  0.513200  1
  H  H542  1  0.795700  0.777700  0.013200  1
  H  H543  1  0.295700  0.277700  0.486800  1
  H  H544  1  0.204300  0.222300  0.986800  1
  H  H545  1  0.800800  0.623100  0.488600  1
  H  H546  1  0.699200  0.876900  0.988600  1
  H  H547  1  0.199200  0.376900  0.511400  1
  H  H548  1  0.300800  0.123100  0.011400  1
  H  H549  1  0.761200  0.647800  0.453900  1
  H  H550  1  0.738800  0.852200  0.953900  1
  H  H551  1  0.238800  0.352200  0.546100  1
  H  H552  1  0.261200  0.147800  0.046100  1
  H  H553  1  0.731100  0.601400  0.478500  1
  H  H554  1  0.768900  0.898600  0.978500  1
  H  H555  1  0.268900  0.398600  0.521500  1
  H  H556  1  0.231100  0.101400  0.021500  1
  H  H557  1  0.449200  0.726600  0.444500  1
  H  H558  1  0.050800  0.773400  0.944500  1
  H  H559  1  0.550800  0.273400  0.555500  1
  H  H560  1  0.949200  0.226600  0.055500  1
  H  H561  1  0.421300  0.703100  0.487700  1
  H  H562  1  0.078700  0.796900  0.987700  1
  H  H563  1  0.578700  0.296900  0.512300  1
  H  H564  1  0.921300  0.203100  0.012300  1
  H  H565  1  0.346600  0.731500  0.418800  1
  H  H566  1  0.153400  0.768500  0.918800  1
  H  H567  1  0.653400  0.268500  0.581200  1
  H  H568  1  0.846600  0.231500  0.081200  1
  H  H569  1  0.318200  0.707200  0.461500  1
  H  H570  1  0.181800  0.792800  0.961500  1
  H  H571  1  0.681800  0.292800  0.538500  1
  H  H572  1  0.818200  0.207200  0.038500  1
  H  H573  1  0.283700  0.783200  0.501400  1
  H  H574  1  0.216300  0.716800  0.001400  1
  H  H575  1  0.716300  0.216800  0.498600  1
  H  H576  1  0.783700  0.283200  0.998600  1
  H  H577  1  0.272700  0.777400  0.451700  1
  H  H578  1  0.227300  0.722600  0.951700  1
  H  H579  1  0.727300  0.222600  0.548300  1
  H  H580  1  0.772700  0.277400  0.048300  1
  H  H581  1  0.307000  0.826000  0.470300  1
  H  H582  1  0.193000  0.674000  0.970300  1
  H  H583  1  0.693000  0.174000  0.529700  1
  H  H584  1  0.807000  0.326000  0.029700  1
  H  H585  1  0.597900  0.105600  0.402400  1
  H  H586  1  0.902100  0.394400  0.902400  1
  H  H587  1  0.402100  0.894400  0.597600  1
  H  H588  1  0.097900  0.605600  0.097600  1
  H  H589  1  0.581500  0.103000  0.451700  1
  H  H590  1  0.918500  0.397000  0.951700  1
  H  H591  1  0.418500  0.897000  0.548300  1
  H  H592  1  0.081500  0.603000  0.048300  1
  H  H593  1  0.668600  0.060500  0.425400  1
  H  H594  1  0.831400  0.439500  0.925400  1
  H  H595  1  0.331400  0.939500  0.574600  1
  H  H596  1  0.168600  0.560500  0.074600  1
  H  H597  1  0.707200  0.112000  0.425900  1
  H  H598  1  0.792800  0.388000  0.925900  1
  H  H599  1  0.292800  0.888000  0.574100  1
  H  H600  1  0.207200  0.612000  0.074100  1
  H  H601  1  0.748600  0.058500  0.517800  1
  H  H602  1  0.751400  0.441500  0.017800  1
  H  H603  1  0.251400  0.941500  0.482200  1
  H  H604  1  0.248600  0.558500  0.982200  1
  H  H605  1  0.776600  0.083600  0.475700  1
  H  H606  1  0.723400  0.416400  0.975700  1
  H  H607  1  0.223400  0.916400  0.524300  1
  H  H608  1  0.276600  0.583600  0.024300  1
  H  H609  1  0.736600  0.032500  0.473200  1
  H  H610  1  0.763400  0.467500  0.973200  1
  H  H611  1  0.263400  0.967500  0.526800  1
  H  H612  1  0.236600  0.532500  0.026800  1
  H  H613  1  0.451500  0.184700  0.521100  1
  H  H614  1  0.048500  0.315300  0.021100  1
  H  H615  1  0.548500  0.815300  0.478900  1
  H  H616  1  0.951500  0.684700  0.978900  1
  H  H617  1  0.416300  0.146900  0.488900  1
  H  H618  1  0.083700  0.353100  0.988900  1
  H  H619  1  0.583700  0.853100  0.511100  1
  H  H620  1  0.916300  0.646900  0.011100  1
  H  H621  1  0.348600  0.160400  0.544200  1
  H  H622  1  0.151400  0.339600  0.044200  1
  H  H623  1  0.651400  0.839600  0.455800  1
  H  H624  1  0.848600  0.660400  0.955800  1
  H  H625  1  0.359700  0.216500  0.536600  1
  H  H626  1  0.140300  0.283500  0.036600  1
  H  H627  1  0.640300  0.783500  0.463400  1
  H  H628  1  0.859700  0.716500  0.963400  1
  H  H629  1  0.241700  0.130900  0.475700  1
  H  H630  1  0.258300  0.369100  0.975700  1
  H  H631  1  0.758300  0.869100  0.524300  1
  H  H632  1  0.741700  0.630900  0.024300  1
  H  H633  1  0.299900  0.112700  0.499400  1
  H  H634  1  0.200100  0.387300  0.999400  1
  H  H635  1  0.700100  0.887300  0.500600  1
  H  H636  1  0.799900  0.612700  0.000600  1
  H  H637  1  0.307500  0.133100  0.452400  1
  H  H638  1  0.192500  0.366900  0.952400  1
  H  H639  1  0.692500  0.866900  0.547600  1
  H  H640  1  0.807500  0.633100  0.047600  1
  H  H641  1  0.559700  0.495400  0.217000  1
  H  H642  1  0.940300  0.004600  0.717000  1
  H  H643  1  0.440300  0.504600  0.783000  1
  H  H644  1  0.059700  0.995400  0.283000  1
  H  H645  1  0.533400  0.440000  0.163200  1
  H  H646  1  0.966600  0.060000  0.663200  1
  H  H647  1  0.466600  0.560000  0.836800  1
  H  H648  1  0.033400  0.940000  0.336800  1
  H  H649  1  0.479700  0.339200  0.250700  1
  H  H650  1  0.020300  0.160800  0.750700  1
  H  H651  1  0.520300  0.660800  0.749300  1
  H  H652  1  0.979700  0.839200  0.249300  1
  H  H653  1  0.506100  0.394500  0.304500  1
  H  H654  1  0.993900  0.105500  0.804500  1
  H  H655  1  0.493900  0.605500  0.695500  1
  H  H656  1  0.006100  0.894500  0.195500  1
  H  H657  1  0.429100  0.531700  0.214300  1
  H  H658  1  0.070900  0.968300  0.714300  1
  H  H659  1  0.570900  0.468300  0.785700  1
  H  H660  1  0.929100  0.031700  0.285700  1
  H  H661  1  0.404800  0.478700  0.158500  1
  H  H662  1  0.095200  0.021300  0.658500  1
  H  H663  1  0.595200  0.521300  0.841500  1
  H  H664  1  0.904800  0.978700  0.341500  1
  H  H665  1  0.361600  0.371500  0.242100  1
  H  H666  1  0.138400  0.128500  0.742100  1
  H  H667  1  0.638400  0.628500  0.757900  1
  H  H668  1  0.861600  0.871500  0.257900  1
  H  H669  1  0.386000  0.424600  0.297900  1
  H  H670  1  0.114000  0.075400  0.797900  1
  H  H671  1  0.614000  0.575400  0.702100  1
  H  H672  1  0.886000  0.924600  0.202100  1
  H  H673  1  0.477000  0.354700  0.142400  1
  H  H674  1  0.023000  0.145300  0.642400  1
  H  H675  1  0.523000  0.645300  0.857600  1
  H  H676  1  0.977000  0.854700  0.357600  1
  H  H677  1  0.443400  0.325300  0.180400  1
  H  H678  1  0.056600  0.174700  0.680400  1
  H  H679  1  0.556600  0.674700  0.819600  1
  H  H680  1  0.943400  0.825300  0.319600  1
  H  H681  1  0.362000  0.355300  0.160100  1
  H  H682  1  0.138000  0.144700  0.660100  1
  H  H683  1  0.638000  0.644700  0.839900  1
  H  H684  1  0.862000  0.855300  0.339900  1
  H  H685  1  0.400900  0.395900  0.133100  1
  H  H686  1  0.099100  0.104100  0.633100  1
  H  H687  1  0.599100  0.604100  0.866900  1
  H  H688  1  0.900900  0.895900  0.366900  1
  H  H689  1  0.462300  0.543300  0.289100  1
  H  H690  1  0.037700  0.956700  0.789100  1
  H  H691  1  0.537700  0.456700  0.710900  1
  H  H692  1  0.962300  0.043300  0.210900  1
  H  H693  1  0.437300  0.504600  0.323500  1
  H  H694  1  0.062700  0.995400  0.823500  1
  H  H695  1  0.562700  0.495400  0.676500  1
  H  H696  1  0.937300  0.004600  0.176500  1
  H  H697  1  0.526100  0.479900  0.326700  1
  H  H698  1  0.973900  0.020100  0.826700  1
  H  H699  1  0.473900  0.520100  0.673300  1
  H  H700  1  0.026100  0.979900  0.173300  1
  H  H701  1  0.551400  0.519200  0.293100  1
  H  H702  1  0.948600  0.980800  0.793100  1
  H  H703  1  0.448600  0.480800  0.706900  1
  H  H704  1  0.051400  0.019200  0.206900  1
  H  H705  1  0.642600  0.485400  0.253300  1
  H  H706  1  0.857400  0.014600  0.753300  1
  H  H707  1  0.357400  0.514600  0.746700  1
  H  H708  1  0.142600  0.985400  0.246700  1
  H  H709  1  0.677500  0.421700  0.216300  1
  H  H710  1  0.822500  0.078300  0.716300  1
  H  H711  1  0.322500  0.578300  0.783700  1
  H  H712  1  0.177500  0.921700  0.283700  1
  H  H713  1  0.645600  0.337200  0.319000  1
  H  H714  1  0.854400  0.162800  0.819000  1
  H  H715  1  0.354400  0.662800  0.681000  1
  H  H716  1  0.145600  0.837200  0.181000  1
  H  H717  1  0.610800  0.400900  0.356100  1
  H  H718  1  0.889200  0.099100  0.856100  1
  H  H719  1  0.389200  0.599100  0.643900  1
  H  H720  1  0.110800  0.900900  0.143900  1
  H  H721  1  0.533600  0.452500  0.207300  1
  H  H722  1  0.966400  0.047500  0.707300  1
  H  H723  1  0.466400  0.547500  0.792700  1
  H  H724  1  0.033600  0.952500  0.292700  1
  H  H725  1  0.568400  0.381200  0.184200  1
  H  H726  1  0.931600  0.118800  0.684200  1
  H  H727  1  0.431600  0.618800  0.815800  1
  H  H728  1  0.068400  0.881200  0.315800  1
  H  H729  1  0.503100  0.315600  0.291400  1
  H  H730  1  0.996900  0.184400  0.791400  1
  H  H731  1  0.496900  0.684400  0.708600  1
  H  H732  1  0.003100  0.815600  0.208600  1
  H  H733  1  0.468300  0.386800  0.314600  1
  H  H734  1  0.031700  0.113200  0.814600  1
  H  H735  1  0.531700  0.613200  0.685400  1
  H  H736  1  0.968300  0.886800  0.185400  1
  H  H737  1  0.664600  0.336700  0.205200  1
  H  H738  1  0.835400  0.163300  0.705200  1
  H  H739  1  0.335400  0.663300  0.794800  1
  H  H740  1  0.164600  0.836700  0.294800  1
  H  H741  1  0.679000  0.303200  0.243500  1
  H  H742  1  0.821000  0.196800  0.743500  1
  H  H743  1  0.321000  0.696800  0.756500  1
  H  H744  1  0.179000  0.803200  0.256500  1
  H  H745  1  0.580200  0.278900  0.254600  1
  H  H746  1  0.919800  0.221100  0.754600  1
  H  H747  1  0.419800  0.721100  0.745400  1
  H  H748  1  0.080200  0.778900  0.245400  1
  H  H749  1  0.581100  0.285400  0.204400  1
  H  H750  1  0.918900  0.214600  0.704400  1
  H  H751  1  0.418900  0.714600  0.795600  1
  H  H752  1  0.081100  0.785400  0.295600  1
  H  H753  1  0.519300  0.501100  0.268300  1
  H  H754  1  0.980700  0.998900  0.768300  1
  H  H755  1  0.480700  0.498900  0.731700  1
  H  H756  1  0.019300  0.001100  0.231700  1
  H  H757  1  0.477100  0.479700  0.306200  1
  H  H758  1  0.022900  0.020300  0.806200  1
  H  H759  1  0.522900  0.520300  0.693800  1
  H  H760  1  0.977100  0.979700  0.193800  1
  H  H761  1  0.554500  0.475400  0.347600  1
  H  H762  1  0.945500  0.024600  0.847600  1
  H  H763  1  0.445500  0.524600  0.652400  1
  H  H764  1  0.054500  0.975400  0.152400  1
  H  H765  1  0.586600  0.515900  0.317100  1
  H  H766  1  0.913400  0.984100  0.817100  1
  H  H767  1  0.413400  0.484100  0.682900  1
  H  H768  1  0.086600  0.015900  0.182900  1
  Pd  Pd769  1  0.836610  0.441021  0.265020  1
  Pd  Pd770  1  0.663390  0.058979  0.765020  1
  Pd  Pd771  1  0.163390  0.558979  0.734980  1
  Pd  Pd772  1  0.336610  0.941021  0.234980  1
  Pd  Pd773  1  0.195330  0.391695  0.248858  1
  Pd  Pd774  1  0.304670  0.108305  0.748858  1
  Pd  Pd775  1  0.804670  0.608305  0.751142  1
  Pd  Pd776  1  0.695330  0.891695  0.251142  1
  C  C777  1  0.162900  0.387100  0.339500  1
  C  C778  1  0.337100  0.112900  0.839500  1
  C  C779  1  0.837100  0.612900  0.660500  1
  C  C780  1  0.662900  0.887100  0.160500  1
  C  C781  1  0.637600  0.282600  0.109160  1
  C  C782  1  0.862400  0.217400  0.609160  1
  C  C783  1  0.362400  0.717400  0.890840  1
  C  C784  1  0.137600  0.782600  0.390840  1
  C  C785  1  0.743800  0.302900  0.135730  1
  C  C786  1  0.756200  0.197100  0.635730  1
  C  C787  1  0.256200  0.697100  0.864270  1
  C  C788  1  0.243800  0.802900  0.364270  1
  C  C789  1  0.712600  0.559000  0.145400  1
  C  C790  1  0.787400  0.941000  0.645400  1
  C  C791  1  0.287400  0.441000  0.854600  1
  C  C792  1  0.212600  0.059000  0.354600  1
  C  C793  1  0.246900  0.306800  0.218400  1
  C  C794  1  0.253100  0.193200  0.718400  1
  C  C795  1  0.753100  0.693200  0.781600  1
  C  C796  1  0.746900  0.806800  0.281600  1
  C  C797  1  0.615300  0.559900  0.415300  1
  C  C798  1  0.884700  0.940100  0.915300  1
  C  C799  1  0.384700  0.440100  0.584700  1
  C  C800  1  0.115300  0.059900  0.084700  1
  C  C801  1  0.418200  0.220000  0.190100  1
  C  C802  1  0.081800  0.280000  0.690100  1
  C  C803  1  0.581800  0.780000  0.809900  1
  C  C804  1  0.918200  0.720000  0.309900  1
  C  C805  1  0.342800  0.561400  0.115800  1
  C  C806  1  0.157200  0.938600  0.615800  1
  C  C807  1  0.657200  0.438600  0.884200  1
  C  C808  1  0.842800  0.061400  0.384200  1
  C  C809  1  0.315200  0.248100  0.192700  1
  C  C810  1  0.184800  0.251900  0.692700  1
  C  C811  1  0.684800  0.751900  0.807300  1
  C  C812  1  0.815200  0.748100  0.307300  1
  C  C813  1  0.319000  0.317300  0.375300  1
  C  C814  1  0.181000  0.182700  0.875300  1
  C  C815  1  0.681000  0.682700  0.624700  1
  C  C816  1  0.819000  0.817300  0.124700  1
  C  C817  1  0.381300  0.499700  0.072160  1
  C  C818  1  0.118700  0.000300  0.572160  1
  C  C819  1  0.618700  0.500300  0.927840  1
  C  C820  1  0.881300  0.999700  0.427840  1
  C  C821  1  0.219900  0.226700  0.237200  1
  C  C822  1  0.280100  0.273300  0.737200  1
  C  C823  1  0.780100  0.773300  0.762800  1
  C  C824  1  0.719900  0.726700  0.262800  1
  C  C825  1  0.710300  0.570200  0.188900  1
  C  C826  1  0.789700  0.929800  0.688900  1
  C  C827  1  0.289700  0.429800  0.811100  1
  C  C828  1  0.210300  0.070200  0.311100  1
  C  C829  1  0.788300  0.388000  0.143100  1
  C  C830  1  0.711700  0.112000  0.643100  1
  C  C831  1  0.211700  0.612000  0.856900  1
  C  C832  1  0.288300  0.888000  0.356900  1
  C  C833  1  0.779900  0.473100  0.342400  1
  C  C834  1  0.720100  0.026900  0.842400  1
  C  C835  1  0.220100  0.526900  0.657600  1
  C  C836  1  0.279900  0.973100  0.157600  1
  C  C837  1  0.717100  0.557400  0.382300  1
  C  C838  1  0.782900  0.942600  0.882300  1
  C  C839  1  0.282900  0.442600  0.617700  1
  C  C840  1  0.217100  0.057400  0.117700  1
  C  C841  1  0.582300  0.247200  0.101960  1
  C  C842  1  0.917700  0.252800  0.601960  1
  C  C843  1  0.417700  0.752800  0.898040  1
  C  C844  1  0.082300  0.747200  0.398040  1
  C  C845  1  0.737700  0.352000  0.129100  1
  C  C846  1  0.762300  0.148000  0.629100  1
  C  C847  1  0.262300  0.648000  0.870900  1
  C  C848  1  0.237700  0.852000  0.370900  1
  C  C849  1  0.387000  0.607400  0.341800  1
  C  C850  1  0.113000  0.892600  0.841800  1
  C  C851  1  0.613000  0.392600  0.658200  1
  C  C852  1  0.887000  0.107400  0.158200  1
  C  C853  1  0.365200  0.232100  0.213550  1
  C  C854  1  0.134800  0.267900  0.713550  1
  C  C855  1  0.634800  0.767900  0.786450  1
  C  C856  1  0.865200  0.732100  0.286450  1
  C  C857  1  0.263500  0.342200  0.364900  1
  C  C858  1  0.236500  0.157800  0.864900  1
  C  C859  1  0.736500  0.657800  0.635100  1
  C  C860  1  0.763500  0.842200  0.135100  1
  C  C861  1  0.420000  0.226300  0.145900  1
  C  C862  1  0.080000  0.273700  0.645900  1
  C  C863  1  0.580000  0.773700  0.854100  1
  C  C864  1  0.920000  0.726300  0.354100  1
  C  C865  1  0.316800  0.255100  0.148370  1
  C  C866  1  0.183200  0.244900  0.648370  1
  C  C867  1  0.683200  0.744900  0.851630  1
  C  C868  1  0.816800  0.755100  0.351630  1
  C  C869  1  0.663600  0.582000  0.390950  1
  C  C870  1  0.836400  0.918000  0.890950  1
  C  C871  1  0.336400  0.418000  0.609050  1
  C  C872  1  0.163600  0.082000  0.109050  1
  C  C873  1  0.661200  0.566900  0.119200  1
  C  C874  1  0.838800  0.933100  0.619200  1
  C  C875  1  0.338800  0.433100  0.880800  1
  C  C876  1  0.161200  0.066900  0.380800  1
  C  C877  1  0.693000  0.268000  0.125390  1
  C  C878  1  0.807000  0.232000  0.625390  1
  C  C879  1  0.307000  0.732000  0.874610  1
  C  C880  1  0.193000  0.768000  0.374610  1
  C  C881  1  0.476800  0.217900  0.121800  1
  C  C882  1  0.023200  0.282100  0.621800  1
  C  C883  1  0.523200  0.782100  0.878200  1
  C  C884  1  0.976800  0.717900  0.378200  1
  C  C885  1  0.367700  0.228500  0.259000  1
  C  C886  1  0.132300  0.271500  0.759000  1
  C  C887  1  0.632300  0.771500  0.741000  1
  C  C888  1  0.867700  0.728500  0.241000  1
  C  C889  1  0.255200  0.356600  0.323300  1
  C  C890  1  0.244800  0.143400  0.823300  1
  C  C891  1  0.744800  0.643400  0.676700  1
  C  C892  1  0.755200  0.856600  0.176700  1
  C  C893  1  0.294900  0.550900  0.326800  1
  C  C894  1  0.205100  0.949100  0.826800  1
  C  C895  1  0.705100  0.449100  0.673200  1
  C  C896  1  0.794900  0.050900  0.173200  1
  C  C897  1  0.798700  0.287600  0.153100  1
  C  C898  1  0.701300  0.212400  0.653100  1
  C  C899  1  0.201300  0.712400  0.846900  1
  C  C900  1  0.298700  0.787600  0.346900  1
  C  C901  1  0.500600  0.566600  0.108200  1
  C  C902  1  0.999400  0.933400  0.608200  1
  C  C903  1  0.499400  0.433400  0.891800  1
  C  C904  1  0.000600  0.066600  0.391800  1
  C  C905  1  0.662900  0.629200  0.374800  1
  C  C906  1  0.837100  0.870800  0.874800  1
  C  C907  1  0.337100  0.370800  0.625200  1
  C  C908  1  0.162900  0.129200  0.125200  1
  C  C909  1  0.348300  0.608500  0.133300  1
  C  C910  1  0.151700  0.891500  0.633300  1
  C  C911  1  0.651700  0.391500  0.866700  1
  C  C912  1  0.848300  0.108500  0.366700  1
  C  C913  1  0.282600  0.482700  0.109800  1
  C  C914  1  0.217400  0.017300  0.609800  1
  C  C915  1  0.717400  0.517300  0.890200  1
  C  C916  1  0.782600  0.982700  0.390200  1
  C  C917  1  0.427100  0.648300  0.328800  1
  C  C918  1  0.072900  0.851700  0.828800  1
  C  C919  1  0.572900  0.351700  0.671200  1
  C  C920  1  0.927100  0.148300  0.171200  1
  C  C921  1  0.266800  0.272900  0.125900  1
  C  C922  1  0.233200  0.227100  0.625900  1
  C  C923  1  0.733200  0.727100  0.874100  1
  C  C924  1  0.766800  0.772900  0.374100  1
  C  C925  1  0.614400  0.178700  0.312300  1
  C  C926  1  0.885600  0.321300  0.812300  1
  C  C927  1  0.385600  0.821300  0.687700  1
  C  C928  1  0.114400  0.678700  0.187700  1
  C  C929  1  0.718700  0.216900  0.266300  1
  C  C930  1  0.781300  0.283100  0.766300  1
  C  C931  1  0.281300  0.783100  0.733700  1
  C  C932  1  0.218700  0.716900  0.233700  1
  C  C933  1  0.765700  0.541500  0.126700  1
  C  C934  1  0.734300  0.958500  0.626700  1
  C  C935  1  0.234300  0.458500  0.873300  1
  C  C936  1  0.265700  0.041500  0.373300  1
  C  C937  1  0.468900  0.203500  0.212400  1
  C  C938  1  0.031100  0.296500  0.712400  1
  C  C939  1  0.531100  0.796500  0.787600  1
  C  C940  1  0.968900  0.703500  0.287600  1
  C  C941  1  0.559300  0.586000  0.423000  1
  C  C942  1  0.940700  0.914000  0.923000  1
  C  C943  1  0.440700  0.414000  0.577000  1
  C  C944  1  0.059300  0.086000  0.077000  1
  C  C945  1  0.370600  0.244000  0.125200  1
  C  C946  1  0.129400  0.256000  0.625200  1
  C  C947  1  0.629400  0.756000  0.874800  1
  C  C948  1  0.870600  0.744000  0.374800  1
  C  C949  1  0.449800  0.576100  0.084800  1
  C  C950  1  0.050200  0.923900  0.584800  1
  C  C951  1  0.550200  0.423900  0.915200  1
  C  C952  1  0.949800  0.076100  0.415200  1
  C  C953  1  0.862300  0.546400  0.267400  1
  C  C954  1  0.637700  0.953600  0.767400  1
  C  C955  1  0.137700  0.453600  0.732600  1
  C  C956  1  0.362300  0.046400  0.232600  1
  C  C957  1  0.243700  0.531000  0.298500  1
  C  C958  1  0.256300  0.969000  0.798500  1
  C  C959  1  0.756300  0.469000  0.701500  1
  C  C960  1  0.743700  0.031000  0.201500  1
  C  C961  1  0.453200  0.598400  0.406100  1
  C  C962  1  0.046800  0.901600  0.906100  1
  C  C963  1  0.546800  0.401600  0.593900  1
  C  C964  1  0.953200  0.098400  0.093900  1
  C  C965  1  0.389600  0.545400  0.090170  1
  C  C966  1  0.110400  0.954600  0.590170  1
  C  C967  1  0.610400  0.454600  0.909830  1
  C  C968  1  0.889600  0.045400  0.409830  1
  C  C969  1  0.375900  0.343100  0.384500  1
  C  C970  1  0.124100  0.156900  0.884500  1
  C  C971  1  0.624100  0.656900  0.615500  1
  C  C972  1  0.875900  0.843100  0.115500  1
  C  C973  1  0.700300  0.219100  0.133100  1
  C  C974  1  0.799700  0.280900  0.633100  1
  C  C975  1  0.299700  0.780900  0.866900  1
  C  C976  1  0.200300  0.719100  0.366900  1
  C  C977  1  0.632100  0.331500  0.102500  1
  C  C978  1  0.867900  0.168500  0.602500  1
  C  C979  1  0.367900  0.668500  0.897500  1
  C  C980  1  0.132100  0.831500  0.397500  1
  C  C981  1  0.683200  0.270800  0.388800  1
  C  C982  1  0.816800  0.229200  0.888800  1
  C  C983  1  0.316800  0.729200  0.611200  1
  C  C984  1  0.183200  0.770800  0.111200  1
  C  C985  1  0.800800  0.344800  0.294400  1
  C  C986  1  0.699200  0.155200  0.794400  1
  C  C987  1  0.199200  0.655200  0.705600  1
  C  C988  1  0.300800  0.844800  0.205600  1
  C  C989  1  0.259500  0.259900  0.216700  1
  C  C990  1  0.240500  0.240100  0.716700  1
  C  C991  1  0.740500  0.740100  0.783300  1
  C  C992  1  0.759500  0.759900  0.283300  1
  C  C993  1  0.606000  0.596000  0.179200  1
  C  C994  1  0.894000  0.904000  0.679200  1
  C  C995  1  0.394000  0.404000  0.820800  1
  C  C996  1  0.106000  0.096000  0.320800  1
  C  C997  1  0.420600  0.668900  0.290800  1
  C  C998  1  0.079400  0.831100  0.790800  1
  C  C999  1  0.579400  0.331100  0.709200  1
  C  C1000  1  0.920600  0.168900  0.209200  1
  C  C1001  1  0.571000  0.492600  0.459400  1
  C  C1002  1  0.929000  0.007400  0.959400  1
  C  C1003  1  0.429000  0.507400  0.540600  1
  C  C1004  1  0.071000  0.992600  0.040600  1
  C  C1005  1  0.360500  0.521100  0.431900  1
  C  C1006  1  0.139500  0.978900  0.931900  1
  C  C1007  1  0.639500  0.478900  0.568100  1
  C  C1008  1  0.860500  0.021100  0.068100  1
  C  C1009  1  0.772000  0.484100  0.385200  1
  C  C1010  1  0.728000  0.015900  0.885200  1
  C  C1011  1  0.228000  0.515900  0.614800  1
  C  C1012  1  0.272000  0.984100  0.114800  1
  C  C1013  1  0.477000  0.242600  0.406400  1
  C  C1014  1  0.023000  0.257400  0.906400  1
  C  C1015  1  0.523000  0.757400  0.593600  1
  C  C1016  1  0.977000  0.742600  0.093600  1
  C  C1017  1  0.301100  0.529800  0.367100  1
  C  C1018  1  0.198900  0.970200  0.867100  1
  C  C1019  1  0.698900  0.470200  0.632900  1
  C  C1020  1  0.801100  0.029800  0.132900  1
  C  C1021  1  0.313300  0.266700  0.374290  1
  C  C1022  1  0.186700  0.233300  0.874290  1
  C  C1023  1  0.686700  0.733300  0.625710  1
  C  C1024  1  0.813300  0.766700  0.125710  1
  C  C1025  1  0.655000  0.215900  0.330800  1
  C  C1026  1  0.845000  0.284100  0.830800  1
  C  C1027  1  0.345000  0.784100  0.669200  1
  C  C1028  1  0.155000  0.715900  0.169200  1
  C  C1029  1  0.232300  0.435500  0.167900  1
  C  C1030  1  0.267700  0.064500  0.667900  1
  C  C1031  1  0.767700  0.564500  0.832100  1
  C  C1032  1  0.732300  0.935500  0.332100  1
  C  C1033  1  0.712000  0.651700  0.353700  1
  C  C1034  1  0.788000  0.848300  0.853700  1
  C  C1035  1  0.288000  0.348300  0.646300  1
  C  C1036  1  0.212000  0.151700  0.146300  1
  C  C1037  1  0.374700  0.649700  0.262100  1
  C  C1038  1  0.125300  0.850300  0.762100  1
  C  C1039  1  0.625300  0.350300  0.737900  1
  C  C1040  1  0.874700  0.149700  0.237900  1
  C  C1041  1  0.327200  0.467700  0.082300  1
  C  C1042  1  0.172800  0.032300  0.582300  1
  C  C1043  1  0.672800  0.532300  0.917700  1
  C  C1044  1  0.827200  0.967700  0.417700  1
  C  C1045  1  0.802200  0.296100  0.302200  1
  C  C1046  1  0.697800  0.203900  0.802200  1
  C  C1047  1  0.197800  0.703900  0.697800  1
  C  C1048  1  0.302200  0.796100  0.197800  1
  C  C1049  1  0.337300  0.589800  0.314000  1
  C  C1050  1  0.162700  0.910200  0.814000  1
  C  C1051  1  0.662700  0.410200  0.686000  1
  C  C1052  1  0.837300  0.089800  0.186000  1
  C  C1053  1  0.641200  0.234700  0.370300  1
  C  C1054  1  0.858800  0.265300  0.870300  1
  C  C1055  1  0.358800  0.765300  0.629700  1
  C  C1056  1  0.141200  0.734700  0.129700  1
  C  C1057  1  0.422800  0.268400  0.395430  1
  C  C1058  1  0.077200  0.231600  0.895430  1
  C  C1059  1  0.577200  0.731600  0.604570  1
  C  C1060  1  0.922800  0.768400  0.104570  1
  C  C1061  1  0.530000  0.248800  0.126300  1
  C  C1062  1  0.970000  0.251200  0.626300  1
  C  C1063  1  0.470000  0.751200  0.873700  1
  C  C1064  1  0.030000  0.748800  0.373700  1
  C  C1065  1  0.243000  0.484200  0.285400  1
  C  C1066  1  0.257000  0.015800  0.785400  1
  C  C1067  1  0.757000  0.515800  0.714600  1
  C  C1068  1  0.743000  0.984200  0.214600  1
  C  C1069  1  0.830800  0.413300  0.115900  1
  C  C1070  1  0.669200  0.086700  0.615900  1
  C  C1071  1  0.169200  0.586700  0.884100  1
  C  C1072  1  0.330800  0.913300  0.384100  1
  C  C1073  1  0.270800  0.281100  0.083500  1
  C  C1074  1  0.229200  0.218900  0.583500  1
  C  C1075  1  0.729200  0.718900  0.916500  1
  C  C1076  1  0.770800  0.781100  0.416500  1
  C  C1077  1  0.428700  0.319000  0.394200  1
  C  C1078  1  0.071300  0.181000  0.894200  1
  C  C1079  1  0.571300  0.681000  0.605800  1
  C  C1080  1  0.928700  0.819000  0.105800  1
  C  C1081  1  0.657500  0.587800  0.206500  1
  C  C1082  1  0.842500  0.912200  0.706500  1
  C  C1083  1  0.342500  0.412200  0.793500  1
  C  C1084  1  0.157500  0.087800  0.293500  1
  C  C1085  1  0.670500  0.488800  0.422700  1
  C  C1086  1  0.829500  0.011200  0.922700  1
  C  C1087  1  0.329500  0.511200  0.577300  1
  C  C1088  1  0.170500  0.988800  0.077300  1
  C  C1089  1  0.609000  0.585900  0.136000  1
  C  C1090  1  0.891000  0.914100  0.636000  1
  C  C1091  1  0.391000  0.414100  0.864000  1
  C  C1092  1  0.109000  0.085900  0.364000  1
  C  C1093  1  0.371900  0.253200  0.081200  1
  C  C1094  1  0.128100  0.246800  0.581200  1
  C  C1095  1  0.628100  0.746800  0.918800  1
  C  C1096  1  0.871900  0.753200  0.418800  1
  C  C1097  1  0.256000  0.238900  0.362800  1
  C  C1098  1  0.244000  0.261100  0.862800  1
  C  C1099  1  0.744000  0.761100  0.637200  1
  C  C1100  1  0.756000  0.738900  0.137200  1
  C  C1101  1  0.750300  0.271500  0.326200  1
  C  C1102  1  0.749700  0.228500  0.826200  1
  C  C1103  1  0.249700  0.728500  0.673800  1
  C  C1104  1  0.250300  0.771500  0.173800  1
  C  C1105  1  0.510900  0.649400  0.456900  1
  C  C1106  1  0.989100  0.850600  0.956900  1
  C  C1107  1  0.489100  0.350600  0.543100  1
  C  C1108  1  0.010900  0.149400  0.043100  1
  C  C1109  1  0.333800  0.611100  0.273800  1
  C  C1110  1  0.166200  0.888900  0.773800  1
  C  C1111  1  0.666200  0.388900  0.726200  1
  C  C1112  1  0.833800  0.111100  0.226200  1
  C  C1113  1  0.718600  0.510500  0.397000  1
  C  C1114  1  0.781400  0.989500  0.897000  1
  C  C1115  1  0.281400  0.489500  0.603000  1
  C  C1116  1  0.218600  0.010500  0.103000  1
  C  C1117  1  0.878600  0.454300  0.175700  1
  C  C1118  1  0.621400  0.045700  0.675700  1
  C  C1119  1  0.121400  0.545700  0.824300  1
  C  C1120  1  0.378600  0.954300  0.324300  1
  C  C1121  1  0.512300  0.646100  0.057500  1
  C  C1122  1  0.987700  0.853900  0.557500  1
  C  C1123  1  0.487700  0.353900  0.942500  1
  C  C1124  1  0.012300  0.146100  0.442500  1
  C  C1125  1  0.895000  0.350900  0.259100  1
  C  C1126  1  0.605000  0.149100  0.759100  1
  C  C1127  1  0.105000  0.649100  0.740900  1
  C  C1128  1  0.395000  0.850900  0.240900  1
  C  C1129  1  0.618700  0.514700  0.432200  1
  C  C1130  1  0.881300  0.985300  0.932200  1
  C  C1131  1  0.381300  0.485300  0.567800  1
  C  C1132  1  0.118700  0.014700  0.067800  1
  C  C1133  1  0.871400  0.440500  0.355600  1
  C  C1134  1  0.628600  0.059500  0.855600  1
  C  C1135  1  0.128600  0.559500  0.644400  1
  C  C1136  1  0.371400  0.940500  0.144400  1
  C  C1137  1  0.683000  0.366400  0.112600  1
  C  C1138  1  0.817000  0.133600  0.612600  1
  C  C1139  1  0.317000  0.633600  0.887400  1
  C  C1140  1  0.183000  0.866400  0.387400  1
  C  C1141  1  0.794200  0.397300  0.185500  1
  C  C1142  1  0.705800  0.102700  0.685500  1
  C  C1143  1  0.205800  0.602700  0.814500  1
  C  C1144  1  0.294200  0.897300  0.314500  1
  C  C1145  1  0.805500  0.601600  0.230200  1
  C  C1146  1  0.694500  0.898400  0.730200  1
  C  C1147  1  0.194500  0.398400  0.769800  1
  C  C1148  1  0.305500  0.101600  0.269800  1
  C  C1149  1  0.528400  0.179100  0.066000  1
  C  C1150  1  0.971600  0.320900  0.566000  1
  C  C1151  1  0.471600  0.820900  0.934000  1
  C  C1152  1  0.028400  0.679100  0.434000  1
  C  C1153  1  0.302300  0.623100  0.157100  1
  C  C1154  1  0.197700  0.876900  0.657100  1
  C  C1155  1  0.697700  0.376900  0.842900  1
  C  C1156  1  0.802300  0.123100  0.342900  1
  C  C1157  1  0.854900  0.592700  0.256600  1
  C  C1158  1  0.645100  0.907300  0.756600  1
  C  C1159  1  0.145100  0.407300  0.743400  1
  C  C1160  1  0.354900  0.092700  0.243400  1
  C  C1161  1  0.557100  0.595000  0.108200  1
  C  C1162  1  0.942900  0.905000  0.608200  1
  C  C1163  1  0.442900  0.405000  0.891800  1
  C  C1164  1  0.057100  0.095000  0.391800  1
  C  C1165  1  0.581600  0.221700  0.391800  1
  C  C1166  1  0.918400  0.278300  0.891800  1
  C  C1167  1  0.418400  0.778300  0.608200  1
  C  C1168  1  0.081600  0.721700  0.108200  1
  C  C1169  1  0.577200  0.347400  0.085100  1
  C  C1170  1  0.922800  0.152600  0.585100  1
  C  C1171  1  0.422800  0.652600  0.914900  1
  C  C1172  1  0.077200  0.847400  0.414900  1
  C  C1173  1  0.738600  0.288500  0.366700  1
  C  C1174  1  0.761400  0.211500  0.866700  1
  C  C1175  1  0.261400  0.711500  0.633300  1
  C  C1176  1  0.238600  0.788500  0.133300  1
  C  C1177  1  0.426100  0.483800  0.044000  1
  C  C1178  1  0.073900  0.016200  0.544000  1
  C  C1179  1  0.573900  0.516200  0.956000  1
  C  C1180  1  0.926100  0.983800  0.456000  1
  C  C1181  1  0.709800  0.234600  0.308100  1
  C  C1182  1  0.790200  0.265400  0.808100  1
  C  C1183  1  0.290200  0.765400  0.691900  1
  C  C1184  1  0.209800  0.734600  0.191900  1
  C  C1185  1  0.665600  0.556200  0.075000  1
  C  C1186  1  0.834400  0.943800  0.575000  1
  C  C1187  1  0.334400  0.443800  0.925000  1
  C  C1188  1  0.165600  0.056200  0.425000  1
  C  C1189  1  0.365700  0.242400  0.384800  1
  C  C1190  1  0.134300  0.257600  0.884800  1
  C  C1191  1  0.634300  0.757600  0.615200  1
  C  C1192  1  0.865700  0.742400  0.115200  1
  C  C1193  1  0.317900  0.487200  0.445800  1
  C  C1194  1  0.182100  0.012800  0.945800  1
  C  C1195  1  0.682100  0.512800  0.554200  1
  C  C1196  1  0.817900  0.987200  0.054200  1
  C  C1197  1  0.231300  0.447900  0.125700  1
  C  C1198  1  0.268700  0.052100  0.625700  1
  C  C1199  1  0.768700  0.552100  0.874300  1
  C  C1200  1  0.731300  0.947900  0.374300  1
  C  C1201  1  0.764000  0.563800  0.216400  1
  C  C1202  1  0.736000  0.936200  0.716400  1
  C  C1203  1  0.236000  0.436200  0.783600  1
  C  C1204  1  0.264000  0.063800  0.283600  1
  C  C1205  1  0.419700  0.438300  0.027800  1
  C  C1206  1  0.080300  0.061700  0.527800  1
  C  C1207  1  0.580300  0.561700  0.972200  1
  C  C1208  1  0.919700  0.938300  0.472200  1
  C  C1209  1  0.468500  0.200200  0.255100  1
  C  C1210  1  0.031500  0.299800  0.755100  1
  C  C1211  1  0.531500  0.799800  0.744900  1
  C  C1212  1  0.968500  0.700200  0.244900  1
  C  C1213  1  0.625000  0.161900  0.273000  1
  C  C1214  1  0.875000  0.338100  0.773000  1
  C  C1215  1  0.375000  0.838100  0.727000  1
  C  C1216  1  0.125000  0.661900  0.227000  1
  C  C1217  1  0.417800  0.213500  0.278700  1
  C  C1218  1  0.082200  0.286500  0.778700  1
  C  C1219  1  0.582200  0.786500  0.721300  1
  C  C1220  1  0.917800  0.713500  0.221300  1
  C  C1221  1  0.288500  0.529200  0.125300  1
  C  C1222  1  0.211500  0.970800  0.625300  1
  C  C1223  1  0.711500  0.470800  0.874700  1
  C  C1224  1  0.788500  0.029200  0.374700  1
  C  C1225  1  0.768300  0.582400  0.359500  1
  C  C1226  1  0.731700  0.917600  0.859500  1
  C  C1227  1  0.231700  0.417600  0.640500  1
  C  C1228  1  0.268300  0.082400  0.140500  1
  C  C1229  1  0.263500  0.473600  0.421500  1
  C  C1230  1  0.236500  0.026400  0.921500  1
  C  C1231  1  0.736500  0.526400  0.578500  1
  C  C1232  1  0.763500  0.973600  0.078500  1
  C  C1233  1  0.754000  0.206000  0.149700  1
  C  C1234  1  0.746000  0.294000  0.649700  1
  C  C1235  1  0.246000  0.794000  0.850300  1
  C  C1236  1  0.254000  0.706000  0.350300  1
  C  C1237  1  0.774800  0.517800  0.228900  1
  C  C1238  1  0.725200  0.982200  0.728900  1
  C  C1239  1  0.225200  0.482200  0.771100  1
  C  C1240  1  0.274800  0.017800  0.271100  1
  C  C1241  1  0.898800  0.302500  0.264900  1
  C  C1242  1  0.601200  0.197500  0.764900  1
  C  C1243  1  0.101200  0.697500  0.735100  1
  C  C1244  1  0.398800  0.802500  0.235100  1
  C  C1245  1  0.159300  0.288200  0.259000  1
  C  C1246  1  0.340700  0.211800  0.759000  1
  C  C1247  1  0.840700  0.711800  0.741000  1
  C  C1248  1  0.659300  0.788200  0.241000  1
  C  C1249  1  0.396000  0.584200  0.379800  1
  C  C1250  1  0.104000  0.915800  0.879800  1
  C  C1251  1  0.604000  0.415800  0.620200  1
  C  C1252  1  0.896000  0.084200  0.120200  1
  C  C1253  1  0.875800  0.446600  0.132600  1
  C  C1254  1  0.624200  0.053400  0.632600  1
  C  C1255  1  0.124200  0.553400  0.867400  1
  C  C1256  1  0.375800  0.946600  0.367400  1
  C  C1257  1  0.803700  0.240200  0.160100  1
  C  C1258  1  0.696300  0.259800  0.660100  1
  C  C1259  1  0.196300  0.759800  0.839900  1
  C  C1260  1  0.303700  0.740200  0.339900  1
  C  C1261  1  0.168300  0.240200  0.258000  1
  C  C1262  1  0.331700  0.259800  0.758000  1
  C  C1263  1  0.831700  0.759800  0.742000  1
  C  C1264  1  0.668300  0.740200  0.242000  1
  C  C1265  1  0.367100  0.406400  0.039000  1
  C  C1266  1  0.132900  0.093600  0.539000  1
  C  C1267  1  0.632900  0.593600  0.961000  1
  C  C1268  1  0.867100  0.906400  0.461000  1
  C  C1269  1  0.353800  0.545100  0.392800  1
  C  C1270  1  0.146200  0.954900  0.892800  1
  C  C1271  1  0.646200  0.454900  0.607200  1
  C  C1272  1  0.853800  0.045100  0.107200  1
  C  C1273  1  0.181900  0.427400  0.101800  1
  C  C1274  1  0.318100  0.072600  0.601800  1
  C  C1275  1  0.818100  0.572600  0.898200  1
  C  C1276  1  0.681900  0.927400  0.398200  1
  C  C1277  1  0.504200  0.573800  0.401800  1
  C  C1278  1  0.995800  0.926200  0.901800  1
  C  C1279  1  0.495800  0.426200  0.598200  1
  C  C1280  1  0.004200  0.073800  0.098200  1
  C  C1281  1  0.218100  0.351000  0.393800  1
  C  C1282  1  0.281900  0.149000  0.893800  1
  C  C1283  1  0.781900  0.649000  0.606200  1
  C  C1284  1  0.718100  0.851000  0.106200  1
  C  C1285  1  0.241000  0.547800  0.151000  1
  C  C1286  1  0.259000  0.952200  0.651000  1
  C  C1287  1  0.759000  0.452200  0.849000  1
  C  C1288  1  0.741000  0.047800  0.349000  1
  C  C1289  1  0.671500  0.290000  0.429300  1
  C  C1290  1  0.828500  0.210000  0.929300  1
  C  C1291  1  0.328500  0.710000  0.570700  1
  C  C1292  1  0.171500  0.790000  0.070700  1
  C  C1293  1  0.551500  0.624700  0.239200  1
  C  C1294  1  0.948500  0.875300  0.739200  1
  C  C1295  1  0.448500  0.375300  0.760800  1
  C  C1296  1  0.051500  0.124700  0.260800  1
  C  C1297  1  0.167900  0.373900  0.381200  1
  C  C1298  1  0.332100  0.126100  0.881200  1
  C  C1299  1  0.832100  0.626100  0.618800  1
  C  C1300  1  0.667900  0.873900  0.118800  1
  C  C1301  1  0.782100  0.323100  0.387600  1
  C  C1302  1  0.717900  0.176900  0.887600  1
  C  C1303  1  0.217900  0.676900  0.612400  1
  C  C1304  1  0.282100  0.823100  0.112400  1
  C  C1305  1  0.358200  0.191700  0.382700  1
  C  C1306  1  0.141800  0.308300  0.882700  1
  C  C1307  1  0.641800  0.808300  0.617300  1
  C  C1308  1  0.858200  0.691700  0.117300  1
  C  C1309  1  0.255900  0.493600  0.383600  1
  C  C1310  1  0.244100  0.006400  0.883600  1
  C  C1311  1  0.744100  0.506400  0.616400  1
  C  C1312  1  0.755900  0.993600  0.116400  1
  C  C1313  1  0.323800  0.270900  0.060900  1
  C  C1314  1  0.176200  0.229100  0.560900  1
  C  C1315  1  0.676200  0.729100  0.939100  1
  C  C1316  1  0.823800  0.770900  0.439100  1
  C  C1317  1  0.574400  0.448500  0.475800  1
  C  C1318  1  0.925600  0.051500  0.975800  1
  C  C1319  1  0.425600  0.551500  0.524200  1
  C  C1320  1  0.074400  0.948500  0.024200  1
  C  C1321  1  0.670800  0.442200  0.440000  1
  C  C1322  1  0.829200  0.057800  0.940000  1
  C  C1323  1  0.329200  0.557800  0.560000  1
  C  C1324  1  0.170800  0.942200  0.060000  1
  C  C1325  1  0.485800  0.346900  0.402500  1
  C  C1326  1  0.014200  0.153100  0.902500  1
  C  C1327  1  0.514200  0.653100  0.597500  1
  C  C1328  1  0.985800  0.846900  0.097500  1
  C  C1329  1  0.382800  0.393900  0.385200  1
  C  C1330  1  0.117200  0.106100  0.885200  1
  C  C1331  1  0.617200  0.606100  0.614800  1
  C  C1332  1  0.882800  0.893900  0.114800  1
  C  C1333  1  0.530400  0.245800  0.382500  1
  C  C1334  1  0.969600  0.254200  0.882500  1
  C  C1335  1  0.469600  0.754200  0.617500  1
  C  C1336  1  0.030400  0.745800  0.117500  1
  C  C1337  1  0.766600  0.628000  0.346800  1
  C  C1338  1  0.733400  0.872000  0.846800  1
  C  C1339  1  0.233400  0.372000  0.653200  1
  C  C1340  1  0.266600  0.128000  0.153200  1
  C  C1341  1  0.652200  0.597700  0.250400  1
  C  C1342  1  0.847800  0.902300  0.750400  1
  C  C1343  1  0.347800  0.402300  0.749600  1
  C  C1344  1  0.152200  0.097700  0.249600  1
  C  C1345  1  0.248500  0.592700  0.165800  1
  C  C1346  1  0.251500  0.907300  0.665800  1
  C  C1347  1  0.751500  0.407300  0.834200  1
  C  C1348  1  0.748500  0.092700  0.334200  1
  C  C1349  1  0.767700  0.531500  0.084900  1
  C  C1350  1  0.732300  0.968500  0.584900  1
  C  C1351  1  0.232300  0.468500  0.915100  1
  C  C1352  1  0.267700  0.031500  0.415100  1
  C  C1353  1  0.151200  0.487400  0.248300  1
  C  C1354  1  0.348800  0.012600  0.748300  1
  C  C1355  1  0.848800  0.512600  0.751700  1
  C  C1356  1  0.651200  0.987400  0.251700  1
  C  C1357  1  0.601900  0.614900  0.266600  1
  C  C1358  1  0.898100  0.885100  0.766600  1
  C  C1359  1  0.398100  0.385100  0.733400  1
  C  C1360  1  0.101900  0.114900  0.233400  1
  C  C1361  1  0.716200  0.539000  0.058500  1
  C  C1362  1  0.783800  0.961000  0.558500  1
  C  C1363  1  0.283800  0.461000  0.941500  1
  C  C1364  1  0.216200  0.039000  0.441500  1
  C  C1365  1  0.438100  0.419500  0.392300  1
  C  C1366  1  0.061900  0.080500  0.892300  1
  C  C1367  1  0.561900  0.580500  0.607700  1
  C  C1368  1  0.938100  0.919500  0.107700  1
  C  C1369  1  0.677500  0.182100  0.249600  1
  C  C1370  1  0.822500  0.317900  0.749600  1
  C  C1371  1  0.322500  0.817900  0.750400  1
  C  C1372  1  0.177500  0.682100  0.250400  1
  C  C1373  1  0.323400  0.419900  0.065300  1
  C  C1374  1  0.176600  0.080100  0.565300  1
  C  C1375  1  0.676600  0.580100  0.934700  1
  C  C1376  1  0.823400  0.919900  0.434700  1
  C  C1377  1  0.624500  0.423300  0.465600  1
  C  C1378  1  0.875500  0.076700  0.965600  1
  C  C1379  1  0.375500  0.576700  0.534400  1
  C  C1380  1  0.124500  0.923300  0.034400  1
  C  C1381  1  0.712600  0.323200  0.447300  1
  C  C1382  1  0.787400  0.176800  0.947300  1
  C  C1383  1  0.287400  0.676800  0.552700  1
  C  C1384  1  0.212600  0.823200  0.052700  1
  C  C1385  1  0.817400  0.472300  0.412900  1
  C  C1386  1  0.682600  0.027700  0.912900  1
  C  C1387  1  0.182600  0.527700  0.587100  1
  C  C1388  1  0.317400  0.972300  0.087100  1
  C  C1389  1  0.768100  0.340100  0.426800  1
  C  C1390  1  0.731900  0.159900  0.926800  1
  C  C1391  1  0.231900  0.659900  0.573200  1
  C  C1392  1  0.268100  0.840100  0.073200  1
  C  C1393  1  0.137600  0.395000  0.120500  1
  C  C1394  1  0.362400  0.105000  0.620500  1
  C  C1395  1  0.862400  0.605000  0.879500  1
  C  C1396  1  0.637600  0.895000  0.379500  1
  C  C1397  1  0.554400  0.614900  0.197400  1
  C  C1398  1  0.945600  0.885100  0.697400  1
  C  C1399  1  0.445600  0.385100  0.802600  1
  C  C1400  1  0.054400  0.114900  0.302600  1
  C  C1401  1  0.490600  0.395700  0.400300  1
  C  C1402  1  0.009400  0.104300  0.900300  1
  C  C1403  1  0.509400  0.604300  0.599700  1
  C  C1404  1  0.990600  0.895700  0.099700  1
  C  C1405  1  0.304700  0.166800  0.371200  1
  C  C1406  1  0.195300  0.333200  0.871200  1
  C  C1407  1  0.695300  0.833200  0.628800  1
  C  C1408  1  0.804700  0.666800  0.128800  1
  C  C1409  1  0.252000  0.191500  0.361000  1
  C  C1410  1  0.248000  0.308500  0.861000  1
  C  C1411  1  0.748000  0.808500  0.639000  1
  C  C1412  1  0.752000  0.691500  0.139000  1
  C  C1413  1  0.196000  0.556000  0.285300  1
  C  C1414  1  0.304000  0.944000  0.785300  1
  C  C1415  1  0.804000  0.444000  0.714700  1
  C  C1416  1  0.696000  0.056000  0.214700  1
  C  C1417  1  0.674900  0.415200  0.105800  1
  C  C1418  1  0.825100  0.084800  0.605800  1
  C  C1419  1  0.325100  0.584800  0.894200  1
  C  C1420  1  0.174900  0.915200  0.394200  1
  C  C1421  1  0.524200  0.186600  0.451100  1
  C  C1422  1  0.975800  0.313400  0.951100  1
  C  C1423  1  0.475800  0.813400  0.548900  1
  C  C1424  1  0.024200  0.686600  0.048900  1
  C  C1425  1  0.853600  0.275000  0.286900  1
  C  C1426  1  0.646400  0.225000  0.786900  1
  C  C1427  1  0.146400  0.725000  0.713100  1
  C  C1428  1  0.353600  0.775000  0.213100  1
  C  C1429  1  0.867300  0.450000  0.397800  1
  C  C1430  1  0.632700  0.050000  0.897800  1
  C  C1431  1  0.132700  0.550000  0.602200  1
  C  C1432  1  0.367300  0.950000  0.102200  1
  C  C1433  1  0.621600  0.429400  0.090100  1
  C  C1434  1  0.878400  0.070600  0.590100  1
  C  C1435  1  0.378400  0.570600  0.909900  1
  C  C1436  1  0.121600  0.929400  0.409900  1
  C  C1437  1  0.142400  0.383500  0.162300  1
  C  C1438  1  0.357600  0.116500  0.662300  1
  C  C1439  1  0.857600  0.616500  0.837700  1
  C  C1440  1  0.642400  0.883500  0.337700  1
  C  C1441  1  0.149200  0.534500  0.259200  1
  C  C1442  1  0.350800  0.965500  0.759200  1
  C  C1443  1  0.850800  0.465500  0.740800  1
  C  C1444  1  0.649200  0.034500  0.240800  1
  C  C1445  1  0.571500  0.394300  0.079200  1
  C  C1446  1  0.928500  0.105700  0.579200  1
  C  C1447  1  0.428500  0.605700  0.920800  1
  C  C1448  1  0.071500  0.894300  0.420800  1
  C  C1449  1  0.580500  0.212500  0.070200  1
  C  C1450  1  0.919500  0.287500  0.570200  1
  C  C1451  1  0.419500  0.787500  0.929800  1
  C  C1452  1  0.080500  0.712500  0.429800  1
  C  C1453  1  0.635200  0.178800  0.013100  1
  C  C1454  1  0.864800  0.321200  0.513100  1
  C  C1455  1  0.364800  0.821200  0.986900  1
  C  C1456  1  0.135200  0.678800  0.486900  1
  C  C1457  1  0.656900  0.134200  0.030100  1
  C  C1458  1  0.843100  0.365800  0.530100  1
  C  C1459  1  0.343100  0.865800  0.969900  1
  C  C1460  1  0.156900  0.634200  0.469900  1
  C  C1461  1  0.743500  0.105900  0.062300  1
  C  C1462  1  0.756500  0.394100  0.562300  1
  C  C1463  1  0.256500  0.894100  0.937700  1
  C  C1464  1  0.243500  0.605900  0.437700  1
  C  C1465  1  0.478000  0.181300  0.091900  1
  C  C1466  1  0.022000  0.318700  0.591900  1
  C  C1467  1  0.522000  0.818700  0.908100  1
  C  C1468  1  0.978000  0.681300  0.408100  1
  C  C1469  1  0.426000  0.105500  0.069700  1
  C  C1470  1  0.074000  0.394500  0.569700  1
  C  C1471  1  0.574000  0.894500  0.930300  1
  C  C1472  1  0.926000  0.605500  0.430300  1
  C  C1473  1  0.463900  0.071000  0.087400  1
  C  C1474  1  0.036100  0.429000  0.587400  1
  C  C1475  1  0.536100  0.929000  0.912600  1
  C  C1476  1  0.963900  0.571000  0.412600  1
  C  C1477  1  0.480100  0.084300  0.159600  1
  C  C1478  1  0.019900  0.415700  0.659600  1
  C  C1479  1  0.519900  0.915700  0.840400  1
  C  C1480  1  0.980100  0.584300  0.340400  1
  C  C1481  1  0.561400  0.635700  0.082200  1
  C  C1482  1  0.938600  0.864300  0.582200  1
  C  C1483  1  0.438600  0.364300  0.917800  1
  C  C1484  1  0.061400  0.135700  0.417800  1
  C  C1485  1  0.638200  0.695200  0.052700  1
  C  C1486  1  0.861800  0.804800  0.552700  1
  C  C1487  1  0.361800  0.304800  0.947300  1
  C  C1488  1  0.138200  0.195200  0.447300  1
  C  C1489  1  0.626000  0.745000  0.058200  1
  C  C1490  1  0.874000  0.755000  0.558200  1
  C  C1491  1  0.374000  0.255000  0.941800  1
  C  C1492  1  0.126000  0.245000  0.441800  1
  C  C1493  1  0.561400  0.799700  0.031500  1
  C  C1494  1  0.938600  0.700300  0.531500  1
  C  C1495  1  0.438600  0.200300  0.968500  1
  C  C1496  1  0.061400  0.299700  0.468500  1
  C  C1497  1  0.456200  0.616600  0.058800  1
  C  C1498  1  0.043800  0.883400  0.558800  1
  C  C1499  1  0.543800  0.383400  0.941200  1
  C  C1500  1  0.956200  0.116600  0.441200  1
  C  C1501  1  0.401100  0.672700  0.021900  1
  C  C1502  1  0.098900  0.827300  0.521900  1
  C  C1503  1  0.598900  0.327300  0.978100  1
  C  C1504  1  0.901100  0.172700  0.478100  1
  C  C1505  1  0.337400  0.677700  0.009800  1
  C  C1506  1  0.162600  0.822300  0.509800  1
  C  C1507  1  0.662600  0.322300  0.990200  1
  C  C1508  1  0.837400  0.177700  0.490200  1
  C  C1509  1  0.294300  0.705800  0.071900  1
  C  C1510  1  0.205700  0.794200  0.571900  1
  C  C1511  1  0.705700  0.294200  0.928100  1
  C  C1512  1  0.794300  0.205800  0.428100  1
  C  C1513  1  0.562600  0.624500  0.451100  1
  C  C1514  1  0.937400  0.875500  0.951100  1
  C  C1515  1  0.437400  0.375500  0.548900  1
  C  C1516  1  0.062600  0.124500  0.048900  1
  C  C1517  1  0.628700  0.674700  0.498200  1
  C  C1518  1  0.871300  0.825300  0.998200  1
  C  C1519  1  0.371300  0.325300  0.501800  1
  C  C1520  1  0.128700  0.174700  0.001800  1
  C  C1521  1  0.697500  0.692300  0.496900  1
  C  C1522  1  0.802500  0.807700  0.996900  1
  C  C1523  1  0.302500  0.307700  0.503100  1
  C  C1524  1  0.197500  0.192300  0.003100  1
  C  C1525  1  0.759300  0.630900  0.480900  1
  C  C1526  1  0.740700  0.869100  0.980900  1
  C  C1527  1  0.240700  0.369100  0.519100  1
  C  C1528  1  0.259300  0.130900  0.019100  1
  C  C1529  1  0.457100  0.637000  0.434100  1
  C  C1530  1  0.042900  0.863000  0.934100  1
  C  C1531  1  0.542900  0.363000  0.565900  1
  C  C1532  1  0.957100  0.137000  0.065900  1
  C  C1533  1  0.413700  0.706400  0.457100  1
  C  C1534  1  0.086300  0.793600  0.957100  1
  C  C1535  1  0.586300  0.293600  0.542900  1
  C  C1536  1  0.913700  0.206400  0.042900  1
  C  C1537  1  0.353700  0.727900  0.449400  1
  C  C1538  1  0.146300  0.772100  0.949400  1
  C  C1539  1  0.646300  0.272100  0.550600  1
  C  C1540  1  0.853700  0.227900  0.050600  1
  C  C1541  1  0.301200  0.791300  0.473500  1
  C  C1542  1  0.198800  0.708700  0.973500  1
  C  C1543  1  0.698800  0.208700  0.526500  1
  C  C1544  1  0.801200  0.291300  0.026500  1
  C  C1545  1  0.576200  0.190100  0.425800  1
  C  C1546  1  0.923800  0.309900  0.925800  1
  C  C1547  1  0.423800  0.809900  0.574200  1
  C  C1548  1  0.076200  0.690100  0.074200  1
  C  C1549  1  0.613700  0.114600  0.430900  1
  C  C1550  1  0.886300  0.385400  0.930900  1
  C  C1551  1  0.386300  0.885400  0.569100  1
  C  C1552  1  0.113700  0.614600  0.069100  1
  C  C1553  1  0.672100  0.092200  0.439300  1
  C  C1554  1  0.827900  0.407800  0.939300  1
  C  C1555  1  0.327900  0.907800  0.560700  1
  C  C1556  1  0.172100  0.592200  0.060700  1
  C  C1557  1  0.741300  0.063400  0.487700  1
  C  C1558  1  0.758700  0.436600  0.987700  1
  C  C1559  1  0.258700  0.936600  0.512300  1
  C  C1560  1  0.241300  0.563400  0.012300  1
  C  C1561  1  0.475400  0.213300  0.442200  1
  C  C1562  1  0.024600  0.286700  0.942200  1
  C  C1563  1  0.524600  0.786700  0.557800  1
  C  C1564  1  0.975400  0.713300  0.057800  1
  C  C1565  1  0.416900  0.179500  0.500700  1
  C  C1566  1  0.083100  0.320500  0.000700  1
  C  C1567  1  0.583100  0.820500  0.499300  1
  C  C1568  1  0.916900  0.679500  0.999300  1
  C  C1569  1  0.355800  0.185200  0.522200  1
  C  C1570  1  0.144200  0.314800  0.022200  1
  C  C1571  1  0.644200  0.814800  0.477800  1
  C  C1572  1  0.855800  0.685200  0.977800  1
  C  C1573  1  0.286800  0.136300  0.479600  1
  C  C1574  1  0.213200  0.363700  0.979600  1
  C  C1575  1  0.713200  0.863700  0.520400  1
  C  C1576  1  0.786800  0.636300  0.020400  1
  C  C1577  1  0.535400  0.450100  0.265800  1
  C  C1578  1  0.964600  0.049900  0.765800  1
  C  C1579  1  0.464600  0.549900  0.734200  1
  C  C1580  1  0.035400  0.950100  0.234200  1
  C  C1581  1  0.543500  0.463700  0.223800  1
  C  C1582  1  0.956500  0.036300  0.723800  1
  C  C1583  1  0.456500  0.536300  0.776200  1
  C  C1584  1  0.043500  0.963700  0.276200  1
  C  C1585  1  0.527800  0.430800  0.191890  1
  C  C1586  1  0.972200  0.069200  0.691890  1
  C  C1587  1  0.472200  0.569200  0.808110  1
  C  C1588  1  0.027800  0.930800  0.308110  1
  C  C1589  1  0.504100  0.384400  0.201900  1
  C  C1590  1  0.995900  0.115600  0.701900  1
  C  C1591  1  0.495900  0.615600  0.798100  1
  C  C1592  1  0.004100  0.884400  0.298100  1
  C  C1593  1  0.496000  0.370900  0.243900  1
  C  C1594  1  0.004000  0.129100  0.743900  1
  C  C1595  1  0.504000  0.629100  0.756100  1
  C  C1596  1  0.996000  0.870900  0.256100  1
  C  C1597  1  0.511600  0.403700  0.275800  1
  C  C1598  1  0.988400  0.096300  0.775800  1
  C  C1599  1  0.488400  0.596300  0.724200  1
  C  C1600  1  0.011600  0.903700  0.224200  1
  C  C1601  1  0.409800  0.483100  0.261360  1
  C  C1602  1  0.090200  0.016900  0.761360  1
  C  C1603  1  0.590200  0.516900  0.738640  1
  C  C1604  1  0.909800  0.983100  0.238640  1
  C  C1605  1  0.415400  0.499220  0.220000  1
  C  C1606  1  0.084600  0.000780  0.720000  1
  C  C1607  1  0.584600  0.500780  0.780000  1
  C  C1608  1  0.915400  0.999220  0.280000  1
  C  C1609  1  0.401000  0.467700  0.186820  1
  C  C1610  1  0.099000  0.032300  0.686820  1
  C  C1611  1  0.599000  0.532300  0.813180  1
  C  C1612  1  0.901000  0.967700  0.313180  1
  C  C1613  1  0.380900  0.420100  0.195070  1
  C  C1614  1  0.119100  0.079900  0.695070  1
  C  C1615  1  0.619100  0.579900  0.804930  1
  C  C1616  1  0.880900  0.920100  0.304930  1
  C  C1617  1  0.375300  0.404060  0.236500  1
  C  C1618  1  0.124700  0.095940  0.736500  1
  C  C1619  1  0.624700  0.595940  0.763500  1
  C  C1620  1  0.875300  0.904060  0.263500  1
  C  C1621  1  0.389800  0.435600  0.269610  1
  C  C1622  1  0.110200  0.064400  0.769610  1
  C  C1623  1  0.610200  0.564400  0.730390  1
  C  C1624  1  0.889800  0.935600  0.230390  1
  C  C1625  1  0.455500  0.357900  0.169600  1
  C  C1626  1  0.044500  0.142100  0.669600  1
  C  C1627  1  0.544500  0.642100  0.830400  1
  C  C1628  1  0.955500  0.857900  0.330400  1
  C  C1629  1  0.397200  0.380700  0.161200  1
  C  C1630  1  0.102800  0.119300  0.661200  1
  C  C1631  1  0.602800  0.619300  0.838800  1
  C  C1632  1  0.897200  0.880700  0.338800  1
  C  C1633  1  0.456800  0.508700  0.295400  1
  C  C1634  1  0.043200  0.991300  0.795400  1
  C  C1635  1  0.543200  0.491300  0.704600  1
  C  C1636  1  0.956800  0.008700  0.204600  1
  C  C1637  1  0.520200  0.491400  0.297700  1
  C  C1638  1  0.979800  0.008600  0.797700  1
  C  C1639  1  0.479800  0.508600  0.702300  1
  C  C1640  1  0.020200  0.991400  0.202300  1
  C  C1641  1  0.623400  0.449100  0.308200  1
  C  C1642  1  0.876600  0.050900  0.808200  1
  C  C1643  1  0.376600  0.550900  0.691800  1
  C  C1644  1  0.123400  0.949100  0.191800  1
  C  C1645  1  0.643200  0.455300  0.266600  1
  C  C1646  1  0.856800  0.044700  0.766600  1
  C  C1647  1  0.356800  0.544700  0.733400  1
  C  C1648  1  0.143200  0.955300  0.233400  1
  C  C1649  1  0.663900  0.417500  0.244700  1
  C  C1650  1  0.836100  0.082500  0.744700  1
  C  C1651  1  0.336100  0.582500  0.755300  1
  C  C1652  1  0.163900  0.917500  0.255300  1
  C  C1653  1  0.664800  0.373400  0.264200  1
  C  C1654  1  0.835200  0.126600  0.764200  1
  C  C1655  1  0.335200  0.626600  0.735800  1
  C  C1656  1  0.164800  0.873400  0.235800  1
  C  C1657  1  0.645000  0.367300  0.305700  1
  C  C1658  1  0.855000  0.132700  0.805700  1
  C  C1659  1  0.355000  0.632700  0.694300  1
  C  C1660  1  0.145000  0.867300  0.194300  1
  C  C1661  1  0.624300  0.405100  0.327700  1
  C  C1662  1  0.875700  0.094900  0.827700  1
  C  C1663  1  0.375700  0.594900  0.672300  1
  C  C1664  1  0.124300  0.905100  0.172300  1
  C  C1665  1  0.497700  0.426300  0.263100  1
  C  C1666  1  0.002300  0.073700  0.763100  1
  C  C1667  1  0.502300  0.573700  0.736900  1
  C  C1668  1  0.997700  0.926300  0.236900  1
  C  C1669  1  0.527400  0.424700  0.224400  1
  C  C1670  1  0.972600  0.075300  0.724400  1
  C  C1671  1  0.472600  0.575300  0.775600  1
  C  C1672  1  0.027400  0.924700  0.275600  1
  C  C1673  1  0.548100  0.382300  0.210600  1
  C  C1674  1  0.951900  0.117700  0.710600  1
  C  C1675  1  0.451900  0.617700  0.789400  1
  C  C1676  1  0.048100  0.882300  0.289400  1
  C  C1677  1  0.539000  0.341700  0.235600  1
  C  C1678  1  0.961000  0.158300  0.735600  1
  C  C1679  1  0.461000  0.658300  0.764400  1
  C  C1680  1  0.039000  0.841700  0.264400  1
  C  C1681  1  0.509300  0.343400  0.274300  1
  C  C1682  1  0.990700  0.156600  0.774300  1
  C  C1683  1  0.490700  0.656600  0.725700  1
  C  C1684  1  0.009300  0.843400  0.225700  1
  C  C1685  1  0.488600  0.385700  0.288100  1
  C  C1686  1  0.011400  0.114300  0.788100  1
  C  C1687  1  0.511400  0.614300  0.711900  1
  C  C1688  1  0.988600  0.885700  0.211900  1
  C  C1689  1  0.651600  0.327000  0.234100  1
  C  C1690  1  0.848400  0.173000  0.734100  1
  C  C1691  1  0.348400  0.673000  0.765900  1
  C  C1692  1  0.151600  0.827000  0.265900  1
  C  C1693  1  0.587200  0.302500  0.231600  1
  C  C1694  1  0.912800  0.197500  0.731600  1
  C  C1695  1  0.412800  0.697500  0.768400  1
  C  C1696  1  0.087200  0.802500  0.268400  1
  C  C1697  1  0.514200  0.474900  0.289200  1
  C  C1698  1  0.985800  0.025100  0.789200  1
  C  C1699  1  0.485800  0.525100  0.710800  1
  C  C1700  1  0.014200  0.974900  0.210800  1
  C  C1701  1  0.569100  0.482000  0.318400  1
  C  C1702  1  0.930900  0.018000  0.818400  1
  C  C1703  1  0.430900  0.518000  0.681600  1
  C  C1704  1  0.069100  0.982000  0.181600  1
  N  N1705  1  0.206100  0.378030  0.310930  1
  N  N1706  1  0.293900  0.121970  0.810930  1
  N  N1707  1  0.793900  0.621970  0.689070  1
  N  N1708  1  0.706100  0.878030  0.189070  1
  N  N1709  1  0.196600  0.462240  0.261000  1
  N  N1710  1  0.303400  0.037760  0.761000  1
  N  N1711  1  0.803400  0.537760  0.739000  1
  N  N1712  1  0.696600  0.962240  0.239000  1
  N  N1713  1  0.189300  0.404280  0.186310  1
  N  N1714  1  0.310700  0.095720  0.686310  1
  N  N1715  1  0.810700  0.595720  0.813690  1
  N  N1716  1  0.689300  0.904280  0.313690  1
  N  N1717  1  0.823700  0.509300  0.253560  1
  N  N1718  1  0.676300  0.990700  0.753560  1
  N  N1719  1  0.176300  0.490700  0.746440  1
  N  N1720  1  0.323700  0.009300  0.246440  1
  N  N1721  1  0.838200  0.429900  0.202130  1
  N  N1722  1  0.661800  0.070100  0.702130  1
  N  N1723  1  0.161800  0.570100  0.797870  1
  N  N1724  1  0.338200  0.929900  0.297870  1
  N  N1725  1  0.846800  0.371540  0.273840  1
  N  N1726  1  0.653200  0.128460  0.773840  1
  N  N1727  1  0.153200  0.628460  0.726160  1
  N  N1728  1  0.346800  0.871540  0.226160  1
  N  N1729  1  0.828800  0.452260  0.328210  1
  N  N1730  1  0.671200  0.047740  0.828210  1
  N  N1731  1  0.171200  0.547740  0.671790  1
  N  N1732  1  0.328800  0.952260  0.171790  1
  N  N1733  1  0.198300  0.321300  0.239580  1
  N  N1734  1  0.301700  0.178700  0.739580  1
  N  N1735  1  0.801700  0.678700  0.760420  1
  N  N1736  1  0.698300  0.821300  0.260420  1
  N  N1737  1  0.003100  0.234300  0.317800  1
  N  N1738  1  0.496900  0.265700  0.817800  1
  N  N1739  1  0.996900  0.765700  0.682200  1
  N  N1740  1  0.503100  0.734300  0.182200  1
  N  N1741  1  0.516700  0.194400  0.667100  1
  N  N1742  1  0.983300  0.305600  0.167100  1
  N  N1743  1  0.483300  0.805600  0.332900  1
  N  N1744  1  0.016700  0.694400  0.832900  1
  N  N1745  1  0.413300  0.247200  0.624300  1
  N  N1746  1  0.086700  0.252800  0.124300  1
  N  N1747  1  0.586700  0.752800  0.375700  1
  N  N1748  1  0.913300  0.747200  0.875700  1
  N  N1749  1  0.951500  0.586800  0.144200  1
  N  N1750  1  0.548500  0.913200  0.644200  1
  N  N1751  1  0.048500  0.413200  0.855800  1
  N  N1752  1  0.451500  0.086800  0.355800  1
  N  N1753  1  0.935800  0.572800  0.129500  1
  N  N1754  1  0.564200  0.927200  0.629500  1
  N  N1755  1  0.064200  0.427200  0.870500  1
  N  N1756  1  0.435800  0.072800  0.370500  1
  O  O1757  1  0.631400  0.214500  0.045000  1
  O  O1758  1  0.868600  0.285500  0.545000  1
  O  O1759  1  0.368600  0.785500  0.955000  1
  O  O1760  1  0.131400  0.714500  0.455000  1
  O  O1761  1  0.719600  0.144870  0.041220  1
  O  O1762  1  0.780400  0.355130  0.541220  1
  O  O1763  1  0.280400  0.855130  0.958780  1
  O  O1764  1  0.219600  0.644870  0.458780  1
  O  O1765  1  0.425000  0.149740  0.090200  1
  O  O1766  1  0.075000  0.350260  0.590200  1
  O  O1767  1  0.575000  0.850260  0.909800  1
  O  O1768  1  0.925000  0.649740  0.409800  1
  O  O1769  1  0.440900  0.059200  0.128200  1
  O  O1770  1  0.059100  0.440800  0.628200  1
  O  O1771  1  0.559100  0.940800  0.871800  1
  O  O1772  1  0.940900  0.559200  0.371800  1
  O  O1773  1  0.616200  0.664310  0.084830  1
  O  O1774  1  0.883800  0.835690  0.584830  1
  O  O1775  1  0.383800  0.335690  0.915170  1
  O  O1776  1  0.116200  0.164310  0.415170  1
  O  O1777  1  0.571200  0.751100  0.036300  1
  O  O1778  1  0.928800  0.748900  0.536300  1
  O  O1779  1  0.428800  0.248900  0.963700  1
  O  O1780  1  0.071200  0.251100  0.463700  1
  O  O1781  1  0.404900  0.625100  0.036380  1
  O  O1782  1  0.095100  0.874900  0.536380  1
  O  O1783  1  0.595100  0.374900  0.963620  1
  O  O1784  1  0.904900  0.125100  0.463620  1
  O  O1785  1  0.293300  0.667800  0.042000  1
  O  O1786  1  0.206700  0.832200  0.542000  1
  O  O1787  1  0.706700  0.332200  0.958000  1
  O  O1788  1  0.793300  0.167800  0.458000  1
  O  O1789  1  0.618400  0.635260  0.470140  1
  O  O1790  1  0.881600  0.864740  0.970140  1
  O  O1791  1  0.381600  0.364740  0.529860  1
  O  O1792  1  0.118400  0.135260  0.029860  1
  O  O1793  1  0.737100  0.660400  0.512720  1
  O  O1794  1  0.762900  0.839600  0.012720  1
  O  O1795  1  0.262900  0.339600  0.487280  1
  O  O1796  1  0.237100  0.160400  0.987280  1
  O  O1797  1  0.405700  0.660700  0.437240  1
  O  O1798  1  0.094300  0.839300  0.937240  1
  O  O1799  1  0.594300  0.339300  0.562760  1
  O  O1800  1  0.905700  0.160700  0.062760  1
  O  O1801  1  0.360000  0.772630  0.469330  1
  O  O1802  1  0.140000  0.727370  0.969330  1
  O  O1803  1  0.640000  0.227370  0.530670  1
  O  O1804  1  0.860000  0.272630  0.030670  1
  O  O1805  1  0.625900  0.165090  0.433760  1
  O  O1806  1  0.874100  0.334910  0.933760  1
  O  O1807  1  0.374100  0.834910  0.566240  1
  O  O1808  1  0.125900  0.665090  0.066240  1
  O  O1809  1  0.686200  0.086200  0.482400  1
  O  O1810  1  0.813800  0.413800  0.982400  1
  O  O1811  1  0.313800  0.913800  0.517600  1
  O  O1812  1  0.186200  0.586200  0.017600  1
  O  O1813  1  0.424400  0.214100  0.467760  1
  O  O1814  1  0.075600  0.285900  0.967760  1
  O  O1815  1  0.575600  0.785900  0.532240  1
  O  O1816  1  0.924400  0.714100  0.032240  1
  O  O1817  1  0.303000  0.182500  0.495800  1
  O  O1818  1  0.197000  0.317500  0.995800  1
  O  O1819  1  0.697000  0.817500  0.504200  1
  O  O1820  1  0.803000  0.682500  0.004200  1
  O  O1821  1  0.038700  0.270400  0.329500  1
  O  O1822  1  0.461300  0.229600  0.829500  1
  O  O1823  1  0.961300  0.729600  0.670500  1
  O  O1824  1  0.538700  0.770400  0.170500  1
  O  O1825  1  0.960400  0.216700  0.341900  1
  O  O1826  1  0.539600  0.283300  0.841900  1
  O  O1827  1  0.039600  0.783300  0.658100  1
  O  O1828  1  0.460400  0.716700  0.158100  1
  O  O1829  1  0.999500  0.224800  0.278900  1
  O  O1830  1  0.500500  0.275200  0.778900  1
  O  O1831  1  0.000500  0.775200  0.721100  1
  O  O1832  1  0.499500  0.724800  0.221100  1
  O  O1833  1  0.538600  0.155000  0.662200  1
  O  O1834  1  0.961400  0.345000  0.162200  1
  O  O1835  1  0.461400  0.845000  0.337800  1
  O  O1836  1  0.038600  0.655000  0.837800  1
  O  O1837  1  0.480300  0.201600  0.697200  1
  O  O1838  1  0.019700  0.298400  0.197200  1
  O  O1839  1  0.519700  0.798400  0.302800  1
  O  O1840  1  0.980300  0.701600  0.802800  1
  O  O1841  1  0.535800  0.229100  0.643500  1
  O  O1842  1  0.964200  0.270900  0.143500  1
  O  O1843  1  0.464200  0.770900  0.356500  1
  O  O1844  1  0.035800  0.729100  0.856500  1
  O  O1845  1  0.446400  0.213000  0.619200  1
  O  O1846  1  0.053600  0.287000  0.119200  1
  O  O1847  1  0.553600  0.787000  0.380800  1
  O  O1848  1  0.946400  0.713000  0.880800  1
  O  O1849  1  0.396100  0.269000  0.593200  1
  O  O1850  1  0.103900  0.231000  0.093200  1
  O  O1851  1  0.603900  0.731000  0.406800  1
  O  O1852  1  0.896100  0.769000  0.906800  1
  O  O1853  1  0.390400  0.252500  0.660300  1
  O  O1854  1  0.109600  0.247500  0.160300  1
  O  O1855  1  0.609600  0.747500  0.339700  1
  O  O1856  1  0.890400  0.752500  0.839700  1
  O  O1857  1  0.016000  0.424100  0.198100  1
  O  O1858  1  0.484000  0.075900  0.698100  1
  O  O1859  1  0.984000  0.575900  0.801900  1
  O  O1860  1  0.516000  0.924100  0.301900  1
  O  O1861  1  0.076000  0.500600  0.157400  1
  O  O1862  1  0.424000  0.999400  0.657400  1
  O  O1863  1  0.924000  0.499400  0.842600  1
  O  O1864  1  0.576000  0.000600  0.342600  1
  O  O1865  1  0.548800  0.165600  0.571700  1
  O  O1866  1  0.951200  0.334400  0.071700  1
  O  O1867  1  0.451200  0.834400  0.428300  1
  O  O1868  1  0.048800  0.665600  0.928300  1
  O  O1869  1  0.899000  0.462600  0.032900  1
  O  O1870  1  0.601000  0.037400  0.532900  1
  O  O1871  1  0.101000  0.537400  0.967100  1
  O  O1872  1  0.399000  0.962600  0.467100  1
  O  O1873  1  0.999500  0.414300  0.038000  1
  O  O1874  1  0.500500  0.085700  0.538000  1
  O  O1875  1  0.000500  0.585700  0.962000  1
  O  O1876  1  0.499500  0.914300  0.462000  1
  O  O1877  1  0.008000  0.570500  0.255800  1
  O  O1878  1  0.492000  0.929500  0.755800  1
  O  O1879  1  0.992000  0.429500  0.744200  1
  O  O1880  1  0.508000  0.070500  0.244200  1
  O  O1881  1  0.961700  0.546600  0.040800  1
  O  O1882  1  0.538300  0.953400  0.540800  1
  O  O1883  1  0.038300  0.453400  0.959200  1
  O  O1884  1  0.461700  0.046600  0.459200  1
  O  O1885  1  0.095200  0.484100  0.367100  1
  O  O1886  1  0.404800  0.015900  0.867100  1
  O  O1887  1  0.904800  0.515900  0.632900  1
  O  O1888  1  0.595200  0.984100  0.132900  1
  O  O1889  1  0.106900  0.441900  0.457500  1
  O  O1890  1  0.393100  0.058100  0.957500  1
  O  O1891  1  0.893100  0.558100  0.542500  1
  O  O1892  1  0.606900  0.941900  0.042500  1
  O  O1893  1  0.940900  0.358400  0.411000  1
  O  O1894  1  0.559100  0.141600  0.911000  1
  O  O1895  1  0.059100  0.641600  0.589000  1
  O  O1896  1  0.440900  0.858400  0.089000  1
  O  O1897  1  0.911500  0.487500  0.501000  1
  O  O1898  1  0.588500  0.012500  0.001000  1
  O  O1899  1  0.088500  0.512500  0.499000  1
  O  O1900  1  0.411500  0.987500  0.999000  1
  O  O1901  1  0.061400  0.368100  0.259900  1
  O  O1902  1  0.438600  0.131900  0.759900  1
  O  O1903  1  0.938600  0.631900  0.740100  1
  O  O1904  1  0.561400  0.868100  0.240100  1
  O  O1905  1  0.974200  0.473200  0.266300  1
  O  O1906  1  0.525800  0.026800  0.766300  1
  O  O1907  1  0.025800  0.526800  0.733700  1
  O  O1908  1  0.474200  0.973200  0.233700  1
  O  O1909  1  0.054300  0.493600  0.074000  1
  O  O1910  1  0.445700  0.006400  0.574000  1
  O  O1911  1  0.945700  0.506400  0.926000  1
  O  O1912  1  0.554300  0.993600  0.426000  1
  O  O1913  1  0.010100  0.407700  0.329100  1
  O  O1914  1  0.489900  0.092300  0.829100  1
  O  O1915  1  0.989900  0.592300  0.670900  1
  O  O1916  1  0.510100  0.907700  0.170900  1
  O  O1917  1  0.981200  0.405300  0.474200  1
  O  O1918  1  0.518800  0.094700  0.974200  1
  O  O1919  1  0.018800  0.594700  0.525800  1
  O  O1920  1  0.481200  0.905300  0.025800  1
  O  O1921  1  0.580300  0.119300  0.168600  1
  O  O1922  1  0.919700  0.380700  0.668600  1
  O  O1923  1  0.419700  0.880700  0.831400  1
  O  O1924  1  0.080300  0.619300  0.331400  1
  O  O1925  1  0.965000  0.617000  0.172700  1
  O  O1926  1  0.535000  0.883000  0.672700  1
  O  O1927  1  0.035000  0.383000  0.827300  1
  O  O1928  1  0.465000  0.117000  0.327300  1
  O  O1929  1  0.962300  0.544100  0.149700  1
  O  O1930  1  0.537700  0.955900  0.649700  1
  O  O1931  1  0.037700  0.455900  0.850300  1
  O  O1932  1  0.462300  0.044100  0.350300  1
  O  O1933  1  0.932500  0.599200  0.108700  1
  O  O1934  1  0.567500  0.900800  0.608700  1
  O  O1935  1  0.067500  0.400800  0.891300  1
  O  O1936  1  0.432500  0.099200  0.391300  1
  O  O1937  1  0.015700  0.561400  0.219800  1
  O  O1938  1  0.484300  0.938600  0.719800  1
  O  O1939  1  0.984300  0.438600  0.780200  1
  O  O1940  1  0.515700  0.061400  0.280200  1
  O  O1941  1  0.107100  0.520300  0.411100  1
  O  O1942  1  0.392900  0.979700  0.911100  1
  O  O1943  1  0.892900  0.479700  0.588900  1
  O  O1944  1  0.607100  0.020300  0.088900  1
  O  O1945  1  0.942600  0.338200  0.379800  1
  O  O1946  1  0.557400  0.161800  0.879800  1
  O  O1947  1  0.057400  0.661800  0.620200  1
  O  O1948  1  0.442600  0.838200  0.120200  1
  O  O1949  1  0.977400  0.546300  0.120700  1
  O  O1950  1  0.522600  0.953700  0.620700  1
  O  O1951  1  0.022600  0.453700  0.879300  1
  O  O1952  1  0.477400  0.046300  0.379300  1
  O  O1953  1  0.918100  0.575700  0.167100  1
  O  O1954  1  0.581900  0.924300  0.667100  1
  O  O1955  1  0.081900  0.424300  0.832900  1
  O  O1956  1  0.418100  0.075700  0.332900  1
  O  O1957  1  0.906500  0.590200  0.100100  1
  O  O1958  1  0.593500  0.909800  0.600100  1
  O  O1959  1  0.093500  0.409800  0.899900  1
  O  O1960  1  0.406500  0.090200  0.399900  1
