
#######################################################################
#
#                 Cambridge Crystallographic Data Centre
#                                CCDC 
#
#######################################################################
#
# If this CIF has been generated from an entry in the Cambridge 
# Structural Database, then it will include bibliographic, chemical, 
# crystal, experimental, refinement or atomic coordinate data resulting 
# from the CCDC's data processing and validation procedures.
#
#######################################################################

data_TISRUK
_chemical_formula_moiety         
'C76 H36 Mo4 O28 4-,3(C19 H18 P1 1+),C16 H36 N1 1+,6(C1 H4 O1),0.5(H2 O1)'
_chemical_name_systematic        
'tris(Triphenyl(methyl)phosphonium) tetra-n-butylammonium tetrakis(\m~2~-3-oxo-9-phenyl-3H-xanthene-2,6,7-triolato)-octaoxo-tetra-molybdenum methanol solvate hemihydrate'
_symmetry_cell_setting           triclinic
_symmetry_space_group_name_H-M   'P -1'
_symmetry_Int_Tables_number      2
_space_group_name_Hall           '-P 1'
loop_
_symmetry_equiv_pos_site_id
_symmetry_equiv_pos_as_xyz
1 x,y,z
2 -x,-y,-z
_cell_length_a                   14.7748(3)
_cell_length_b                   21.8810(5)
_cell_length_c                   24.4420(5)
_cell_angle_alpha                73.209(2)
_cell_angle_beta                 82.452(2)
_cell_angle_gamma                87.043(2)
_cell_volume                     7498.57
_exptl_crystal_colour            red
_exptl_crystal_description       block
_cell_formula_units_Z            2
loop_
_atom_site_label
_atom_site_type_symbol
_atom_site_fract_x
_atom_site_fract_y
_atom_site_fract_z
O2 O 0.2544(5) 0.4798(4) 0.7171(3)
C2 C 0.1748(7) 0.5198(5) 0.7172(5)
O3 O 0.1038(5) 0.7567(4) 0.7381(3)
C3 C 0.1786(12) 0.7184(9) 0.7202(8)
O4 O 0.7245(8) 0.3423(6) 0.7792(6)
C4 C 0.6650(10) 0.2860(7) 0.7933(7)
O5 O 0.2843(12) 0.8617(9) 0.3221(8)
C5 C 0.3638(14) 0.8564(10) 0.3485(9)
O6 O 0.6857(13) 0.6800(9) 0.2788(8)
C6 C 0.703(2) 0.6343(15) 0.3191(14)
Mo1 Mo 0.35400(3) 0.403574(19) 0.447381(19)
Mo2 Mo 0.13728(4) -0.16569(2) 0.47254(2)
Mo3 Mo -0.44674(5) 0.10355(3) 0.12755(3)
Mo4 Mo -0.21873(4) 0.67308(3) 0.09739(2)
O7 O 0.4546(3) 0.44323(19) 0.4206(2)
O8 O 0.3438(3) 0.39544(18) 0.51958(17)
O9 O 0.4089(2) 0.32130(16) 0.43933(16)
O10 O 0.2368(2) 0.34114(16) 0.45978(15)
O11 O 0.2489(3) -0.11313(18) 0.46418(19)
O12 O 0.0853(3) -0.07882(18) 0.49039(19)
O13 O 0.1684(2) 0.13184(17) 0.46715(17)
O14 O 0.1988(3) -0.2193(2) 0.4424(2)
O15 O 0.1162(3) -0.20598(19) 0.5451(2)
O16 O 0.0097(3) -0.17518(17) 0.45836(17)
O17 O 0.1275(3) -0.1008(2) 0.38597(19)
O18 O -0.4339(3) 0.0345(2) 0.1996(2)
O19 O -0.3032(4) 0.1083(2) 0.1417(2)
O20 O -0.0949(3) 0.0013(2) 0.26742(19)
O21 O -0.4126(4) 0.0678(2) 0.0746(2)
O22 O -0.5622(4) 0.0983(2) 0.1377(2)
O23 O -0.4240(3) 0.1902(2) 0.07317(19)
O24 O -0.4545(4) 0.1691(2) 0.1826(2)
O25 O -0.2570(3) 0.6200(2) 0.05155(17)
O26 O -0.2719(3) 0.5832(2) 0.16262(17)
O27 O -0.3721(3) 0.3788(2) 0.16973(16)
O28 O -0.1675(4) 0.7282(2) 0.0391(2)
O29 O -0.3158(3) 0.7110(3) 0.1159(2)
O30 O -0.1651(3) 0.6845(2) 0.16357(17)
O31 O -0.0997(3) 0.6105(2) 0.10376(16)
O32 O 0.2611(2) 0.47320(16) 0.43396(15)
O33 O 0.3250(2) 0.41607(18) 0.35788(16)
O34 O 0.1163(3) 0.52052(19) 0.23119(15)
C7 C 0.2318(4) 0.1778(3) 0.4569(2)
C8 C 0.1974(4) 0.2355(2) 0.4623(2)
H1 H 0.1335 0.2419 0.4705
C9 C 0.2592(3) 0.2851(2) 0.4553(2)
C10 C 0.3563(3) 0.2724(2) 0.4420(2)
C11 C 0.3860(4) 0.2163(3) 0.4349(2)
H2 H 0.4493 0.2102 0.4242
C12 C 0.3251(3) 0.1651(2) 0.4428(2)
C13 C 0.3515(4) 0.1045(3) 0.4366(2)
C14 C 0.2868(4) 0.0563(3) 0.4495(2)
C15 C 0.3057(4) -0.0083(3) 0.4482(2)
H3 H 0.3661 -0.0208 0.4369
C16 C 0.2379(4) -0.0517(3) 0.4629(3)
C17 C 0.1434(4) -0.0345(3) 0.4795(3)
C18 C 0.1235(4) 0.0283(3) 0.4804(3)
H4 H 0.0627 0.0411 0.4906
C19 C 0.1935(4) 0.0715(2) 0.4663(3)
C20 C 0.4469(4) 0.0929(3) 0.4134(2)
C21 C 0.4620(6) 0.0961(5) 0.3559(3)
H5 H 0.4122 0.1012 0.3339
C22 C 0.5527(6) 0.0916(5) 0.3298(3)
H6 H 0.5639 0.0980 0.2894
C23 C 0.6244(5) 0.0782(3) 0.3620(3)
H7 H 0.6848 0.0736 0.3447
C24 C 0.6062(4) 0.0718(3) 0.4193(3)
H8 H 0.6549 0.0620 0.4424
C25 C 0.5182(4) 0.0792(3) 0.4452(3)
H9 H 0.5079 0.0747 0.4853
C26 C -0.0718(5) -0.0460(3) 0.3147(3)
C27 C 0.0186(5) -0.0485(3) 0.3241(3)
H10 H 0.0616 -0.0199 0.2982
C28 C 0.0457(5) -0.0939(3) 0.3727(3)
C29 C -0.0231(4) -0.1353(3) 0.4117(3)
C30 C -0.1115(4) -0.1335(3) 0.4014(3)
H11 H -0.1542 -0.1624 0.4272
C31 C -0.1401(5) -0.0881(3) 0.3514(3)
C32 C -0.2283(5) -0.0831(3) 0.3361(3)
C33 C -0.2513(5) -0.0347(3) 0.2877(3)
C34 C -0.3384(5) -0.0257(3) 0.2682(3)
H12 H -0.3866 -0.0536 0.2884
C35 C -0.3536(5) 0.0228(3) 0.2208(3)
C36 C -0.2816(5) 0.0655(3) 0.1872(3)
C37 C -0.1972(5) 0.0569(3) 0.2059(3)
H13 H -0.1492 0.0850 0.1856
C38 C -0.1811(5) 0.0077(3) 0.2538(3)
C39 C -0.3000(5) -0.1303(3) 0.3709(3)
C40 C -0.2854(5) -0.1951(3) 0.3759(3)
H14 H -0.2294 -0.2093 0.3593
C41 C -0.3528(5) -0.2393(3) 0.4052(3)
H15 H -0.3431 -0.2833 0.4082
C42 C -0.4350(6) -0.2183(4) 0.4303(3)
H16 H -0.4816 -0.2479 0.4498
C43 C -0.4475(6) -0.1545(4) 0.4263(3)
H17 H -0.5025 -0.1404 0.4441
C44 C -0.3816(5) -0.1107(3) 0.3970(3)
H18 H -0.3918 -0.0668 0.3946
C45 C -0.3895(4) 0.3346(3) 0.1436(3)
C46 C -0.4135(5) 0.2751(3) 0.1796(3)
H19 H -0.4198 0.2669 0.2203
C47 C -0.4288(5) 0.2259(3) 0.1539(3)
C48 C -0.4156(5) 0.2404(3) 0.0924(3)
C49 C -0.3945(5) 0.2995(3) 0.0583(3)
H20 H -0.3890 0.3079 0.0177
C50 C -0.3804(4) 0.3492(3) 0.0824(3)
C51 C -0.3556(4) 0.4127(3) 0.0500(2)
C52 C -0.3358(4) 0.4561(3) 0.0772(2)
C53 C -0.3071(4) 0.5205(3) 0.0471(2)
H21 H -0.3021 0.5349 0.0063
C54 C -0.2870(4) 0.5606(3) 0.0773(3)
C55 C -0.2950(4) 0.5397(3) 0.1398(2)
C56 C -0.3238(4) 0.4785(3) 0.1693(2)
H22 H -0.3292 0.4641 0.2101
C57 C -0.3444(4) 0.4395(3) 0.1384(3)
C58 C -0.3507(4) 0.4309(3) -0.0145(2)
C59 C -0.4348(9) 0.4393(5) -0.0390(6)
H23 H -0.4915 0.4311 -0.0151
C60 C -0.4318(9) 0.4599(6) -0.0989(6)
H24 H -0.4869 0.4679 -0.1161
C61 C -0.3425(5) 0.4694(4) -0.1357(3)
H25 H -0.3437 0.4649 -0.1731
C62 C -0.2668(11) 0.4342(8) -0.1072(7)
H26 H -0.2146 0.4234 -0.1299
C63 C -0.2697(9) 0.4162(6) -0.0478(6)
H27 H -0.2193 0.3947 -0.0297
C64 C 0.0457(4) 0.5614(3) 0.2168(2)
C65 C 0.0113(4) 0.5619(3) 0.1671(2)
H28 H 0.0358 0.5341 0.1451
C66 C -0.0606(4) 0.6041(3) 0.1493(2)
C67 C -0.0960(4) 0.6448(3) 0.1846(3)
C68 C -0.0614(4) 0.6432(3) 0.2342(2)
H29 H -0.0858 0.6707 0.2563
C69 C 0.0111(4) 0.6001(3) 0.2524(2)
C70 C 0.0464(4) 0.5923(2) 0.3044(2)
C71 C 0.1181(4) 0.5488(2) 0.3198(2)
C72 C 0.1562(3) 0.5348(2) 0.3731(2)
H30 H 0.1337 0.5567 0.4006
C73 C 0.2239(4) 0.4907(2) 0.3846(2)
C74 C 0.2615(4) 0.4572(3) 0.3425(2)
C75 C 0.2241(4) 0.4698(3) 0.2910(2)
H31 H 0.2473 0.4486 0.2631
C76 C 0.1532(4) 0.5135(3) 0.2808(2)
C77 C 0.0062(4) 0.6300(2) 0.3445(2)
C78 C 0.0589(4) 0.6732(3) 0.3574(3)
H32 H 0.1206 0.6793 0.3404
C79 C 0.0228(5) 0.7075(3) 0.3947(3)
H33 H 0.0592 0.7372 0.4033
C80 C -0.0688(5) 0.6978(3) 0.4200(3)
H34 H -0.0944 0.7211 0.4458
C81 C -0.1213(4) 0.6547(3) 0.4073(3)
H35 H -0.1827 0.6478 0.4246
C82 C -0.0840(4) 0.6210(3) 0.3689(2)
H36 H -0.1206 0.5920 0.3594
P1 P 0.30705(9) 0.59148(6) 0.54088(6)
C83 C 0.3456(4) 0.5139(3) 0.5769(2)
H37 H 0.4123 0.5134 0.5747
H38 H 0.3268 0.4830 0.5586
H39 H 0.3189 0.5024 0.6174
C84 C 0.1857(4) 0.5918(3) 0.5451(2)
C85 C 0.1416(4) 0.5376(3) 0.5436(2)
H40 H 0.1756 0.5001 0.5415
C86 C 0.0469(4) 0.5394(3) 0.5451(3)
H41 H 0.0166 0.5022 0.5450
C87 C -0.0032(5) 0.5926(3) 0.5468(3)
H42 H -0.0675 0.5928 0.5469
C88 C 0.0401(4) 0.6466(3) 0.5483(3)
H43 H 0.0053 0.6841 0.5492
C89 C 0.1341(4) 0.6464(3) 0.5484(2)
H44 H 0.1633 0.6831 0.5506
C90 C 0.3526(4) 0.6140(3) 0.4664(2)
C91 C 0.4450(4) 0.6010(3) 0.4522(3)
H45 H 0.4816 0.5790 0.4812
C92 C 0.4817(5) 0.6208(3) 0.3953(3)
H46 H 0.5444 0.6126 0.3849
C93 C 0.4276(5) 0.6527(4) 0.3525(4)
H47 H 0.4532 0.6645 0.3132
C94 C 0.3354(6) 0.6673(4) 0.3675(4)
H48 H 0.2993 0.6914 0.3390
C95 C 0.2986(5) 0.6460(3) 0.4245(3)
H49 H 0.2357 0.6533 0.4351
C96 C 0.3413(4) 0.6482(3) 0.5747(2)
C97 C 0.3385(4) 0.7135(3) 0.5444(3)
H50 H 0.3235 0.7265 0.5061
C98 C 0.3577(4) 0.7588(3) 0.5705(3)
H51 H 0.3532 0.8030 0.5510
C99 C 0.3836(4) 0.7389(3) 0.6259(3)
H52 H 0.3985 0.7698 0.6436
C100 C 0.3881(4) 0.6740(3) 0.6556(3)
H53 H 0.4061 0.6609 0.6932
C101 C 0.3657(4) 0.6285(3) 0.6296(3)
H54 H 0.3674 0.5844 0.6497
P2 P 0.29573(19) 0.24087(16) 0.24377(11)
C102 C 0.3908(7) 0.2483(5) 0.2782(5)
H55 H 0.4419 0.2225 0.2666
H56 H 0.3746 0.2333 0.3200
H57 H 0.4085 0.2932 0.2670
C103 C 0.2691(7) 0.1590(5) 0.2640(4)
C104 C 0.3226(7) 0.1165(5) 0.2411(5)
H58 H 0.3703 0.1331 0.2111
C105 C 0.3110(8) 0.0547(6) 0.2586(5)
H59 H 0.3506 0.0276 0.2418
C106 C 0.2383(8) 0.0273(6) 0.3032(5)
H60 H 0.2299 -0.0175 0.3172
C107 C 0.1801(9) 0.0704(6) 0.3254(5)
H61 H 0.1295 0.0542 0.3533
C108 C 0.1951(7) 0.1353(5) 0.3075(5)
H62 H 0.1570 0.1634 0.3238
C109 C 0.3257(7) 0.2724(5) 0.1671(4)
C110 C 0.3681(8) 0.3307(6) 0.1475(5)
H63 H 0.3853 0.3520 0.1733
C111 C 0.3853(9) 0.3578(6) 0.0858(6)
H64 H 0.4088 0.3997 0.0700
C112 C 0.3673(9) 0.3225(6) 0.0500(5)
H65 H 0.3828 0.3386 0.0095
C113 C 0.3281(9) 0.2657(6) 0.0723(6)
H66 H 0.3154 0.2421 0.0472
C114 C 0.3064(8) 0.2413(6) 0.1283(5)
H67 H 0.2768 0.2012 0.1422
C115 C 0.2007(8) 0.2877(5) 0.2654(5)
C116 C 0.1969(7) 0.2996(5) 0.3182(5)
H68 H 0.2437 0.2845 0.3421
C117 C 0.1228(9) 0.3343(7) 0.3354(6)
H69 H 0.1192 0.3427 0.3716
C118 C 0.0521(10) 0.3575(8) 0.2999(6)
H70 H 0.0000 0.3802 0.3114
C119 C 0.0651(11) 0.3447(8) 0.2483(7)
H71 H 0.0205 0.3601 0.2226
C120 C 0.1376(9) 0.3115(6) 0.2311(6)
H72 H 0.1432 0.3051 0.1939
P3 P 0.91293(14) 0.25595(10) 0.08746(9)
C121 C 0.8187(5) 0.2404(4) 0.1421(3)
H73 H 0.7706 0.2726 0.1313
H74 H 0.8382 0.2420 0.1784
H75 H 0.7950 0.1979 0.1468
C122 C 0.8756(5) 0.2529(4) 0.0212(4)
C123 C 0.9197(7) 0.2858(5) -0.0317(4)
H76 H 0.9712 0.3112 -0.0340
C124 C 0.8887(7) 0.2814(5) -0.0802(5)
H77 H 0.9193 0.3044 -0.1164
C125 C 0.8144(7) 0.2449(5) -0.0794(5)
H78 H 0.7950 0.2417 -0.1140
C126 C 0.7696(6) 0.2133(4) -0.0260(4)
H79 H 0.7165 0.1896 -0.0239
C127 C 0.7999(6) 0.2154(4) 0.0234(4)
H80 H 0.7701 0.1915 0.0595
C128 C 0.9582(6) 0.3329(4) 0.0789(4)
C129 C 1.0532(6) 0.3419(4) 0.0596(4)
H81 H 1.0911 0.3086 0.0511
C130 C 1.0881(7) 0.4023(5) 0.0536(4)
H82 H 1.1520 0.4089 0.0440
C131 C 1.0290(7) 0.4545(5) 0.0615(4)
H83 H 1.0508 0.4969 0.0521
C132 C 0.9385(7) 0.4396(5) 0.0839(4)
H84 H 0.9002 0.4711 0.0952
C133 C 0.9032(6) 0.3816(4) 0.0900(4)
H85 H 0.8399 0.3746 0.1021
C134 C 0.9996(4) 0.1990(3) 0.1077(3)
C135 C 1.0142(4) 0.1776(3) 0.1653(2)
H86 H 0.9769 0.1934 0.1931
C136 C 1.0833(5) 0.1333(3) 0.1821(2)
H87 H 1.0933 0.1187 0.2214
C137 C 1.1378(4) 0.1102(3) 0.1414(4)
H88 H 1.1851 0.0799 0.1528
C138 C 1.1232(5) 0.1315(4) 0.0838(3)
H89 H 1.1605 0.1158 0.0560
C139 C 1.0541(5) 0.1759(4) 0.0670(2)
H90 H 1.0441 0.1905 0.0277
N1 N 0.7404(8) 0.8955(6) 0.1178(5)
C140 C 0.8230(11) 0.8551(9) 0.1299(7)
C141 C 0.8499(11) 0.8531(10) 0.1894(7)
H91 H 0.8037 0.8296 0.2205
H92 H 0.8538 0.8970 0.1926
C142 C 0.9453(12) 0.8182(12) 0.1947(8)
H93 H 0.9436 0.7772 0.1854
H94 H 0.9930 0.8450 0.1672
C143 C 0.9675(13) 0.8061(11) 0.2567(8)
H95 H 1.0270 0.7844 0.2606
H96 H 0.9203 0.7794 0.2835
H97 H 0.9695 0.8470 0.2655
C144 C 0.7620(11) 0.9648(7) 0.1031(7)
H98 H 0.7789 0.9745 0.1375
H99 H 0.7071 0.9907 0.0914
C145 C 0.8411(12) 0.9828(7) 0.0538(8)
H100 H 0.8267 0.9701 0.0202
H101 H 0.8978 0.9601 0.0664
C146 C 0.8548(14) 1.0562(7) 0.0368(9)
H102 H 0.7984 1.0787 0.0234
H103 H 0.8675 1.0688 0.0708
C147 C 0.9354(13) 1.0754(8) -0.0116(8)
H104 H 0.9438 1.1217 -0.0221
H105 H 0.9224 1.0633 -0.0453
H106 H 0.9913 1.0534 0.0020
C148 C 0.7077(11) 0.8729(8) 0.0713(7)
C149 C 0.6190(10) 0.9091(10) 0.0536(8)
H107 H 0.6204 0.9534 0.0561
H108 H 0.5654 0.8875 0.0793
C150 C 0.6132(15) 0.9092(12) -0.0101(8)
C151 C 0.6589(10) 0.8908(7) 0.1622(7)
H109 H 0.6112 0.9215 0.1458
H110 H 0.6767 0.9025 0.1955
C152 C 0.6200(11) 0.8232(7) 0.1828(8)
H111 H 0.6631 0.7933 0.2054
H112 H 0.6109 0.8084 0.1493
C153 C 0.5259(12) 0.8243(10) 0.2213(10)
O35 O 0.4957(12) 0.5347(9) 0.2808(8)
O1 O 0.0432(5) 0.8376(4) 0.6394(3)
C1 C 0.0873(9) 0.8992(6) 0.6297(6)
loop_
_geom_bond_atom_site_label_1
_geom_bond_atom_site_label_2
_geom_bond_site_symmetry_1
_geom_bond_site_symmetry_2
O1 C1 1_555 1_555
O2 C2 1_555 1_555
O3 C3 1_555 1_555
O4 C4 1_555 1_555
O5 C5 1_555 1_555
O6 C6 1_555 1_555
Mo1 O7 1_555 1_555
Mo2 O11 1_555 1_555
Mo3 O18 1_555 1_555
Mo4 O25 1_555 1_555
O8 Mo1 1_555 1_555
O9 Mo1 1_555 1_555
O10 Mo1 1_555 1_555
O11 C16 1_555 1_555
O12 Mo2 1_555 1_555
O13 C7 1_555 1_555
O14 Mo2 1_555 1_555
O15 Mo2 1_555 1_555
O16 Mo2 1_555 1_555
O17 Mo2 1_555 1_555
O18 C35 1_555 1_555
O19 Mo3 1_555 1_555
O20 C26 1_555 1_555
O21 Mo3 1_555 1_555
O22 Mo3 1_555 1_555
O23 Mo3 1_555 1_555
O24 Mo3 1_555 1_555
O25 C54 1_555 1_555
O26 Mo4 1_555 1_555
O27 C45 1_555 1_555
O28 Mo4 1_555 1_555
O29 Mo4 1_555 1_555
O30 Mo4 1_555 1_555
O31 Mo4 1_555 1_555
O32 Mo1 1_555 1_555
O33 Mo1 1_555 1_555
O34 C64 1_555 1_555
C7 C8 1_555 1_555
C8 H1 1_555 1_555
C9 O10 1_555 1_555
C10 O9 1_555 1_555
C11 C10 1_555 1_555
H2 C11 1_555 1_555
C12 C7 1_555 1_555
C13 C12 1_555 1_555
C14 C13 1_555 1_555
C15 C14 1_555 1_555
H3 C15 1_555 1_555
C16 C15 1_555 1_555
C17 O12 1_555 1_555
C18 C17 1_555 1_555
H4 C18 1_555 1_555
C19 O13 1_555 1_555
C20 C13 1_555 1_555
C21 C20 1_555 1_555
H5 C21 1_555 1_555
C22 C21 1_555 1_555
H6 C22 1_555 1_555
C23 C22 1_555 1_555
H7 C23 1_555 1_555
C24 C23 1_555 1_555
H8 C24 1_555 1_555
C25 C20 1_555 1_555
H9 C25 1_555 1_555
C26 C27 1_555 1_555
C27 H10 1_555 1_555
C28 O17 1_555 1_555
C29 O16 1_555 1_555
C30 C29 1_555 1_555
H11 C30 1_555 1_555
C31 C26 1_555 1_555
C32 C31 1_555 1_555
C33 C32 1_555 1_555
C34 C33 1_555 1_555
H12 C34 1_555 1_555
C35 C34 1_555 1_555
C36 O19 1_555 1_555
C37 C36 1_555 1_555
H13 C37 1_555 1_555
C38 O20 1_555 1_555
C39 C32 1_555 1_555
C40 C39 1_555 1_555
H14 C40 1_555 1_555
C41 C40 1_555 1_555
H15 C41 1_555 1_555
C42 C41 1_555 1_555
H16 C42 1_555 1_555
C43 C42 1_555 1_555
H17 C43 1_555 1_555
C44 C39 1_555 1_555
H18 C44 1_555 1_555
C45 C46 1_555 1_555
C46 H19 1_555 1_555
C47 O24 1_555 1_555
C48 O23 1_555 1_555
C49 C48 1_555 1_555
H20 C49 1_555 1_555
C50 C45 1_555 1_555
C51 C50 1_555 1_555
C52 C51 1_555 1_555
C53 C52 1_555 1_555
H21 C53 1_555 1_555
C54 C53 1_555 1_555
C55 O26 1_555 1_555
C56 C55 1_555 1_555
H22 C56 1_555 1_555
C57 O27 1_555 1_555
C58 C51 1_555 1_555
C59 C58 1_555 1_555
H23 C59 1_555 1_555
C60 C59 1_555 1_555
H24 C60 1_555 1_555
C61 C60 1_555 1_555
H25 C61 1_555 1_555
C62 C61 1_555 1_555
H26 C62 1_555 1_555
C63 C58 1_555 1_555
H27 C63 1_555 1_555
C64 C65 1_555 1_555
C65 H28 1_555 1_555
C66 O31 1_555 1_555
C67 O30 1_555 1_555
C68 C67 1_555 1_555
H29 C68 1_555 1_555
C69 C64 1_555 1_555
C70 C69 1_555 1_555
C71 C70 1_555 1_555
C72 C71 1_555 1_555
H30 C72 1_555 1_555
C73 O32 1_555 1_555
C74 O33 1_555 1_555
C75 C74 1_555 1_555
H31 C75 1_555 1_555
C76 O34 1_555 1_555
C77 C70 1_555 1_555
C78 C77 1_555 1_555
H32 C78 1_555 1_555
C79 C78 1_555 1_555
H33 C79 1_555 1_555
C80 C79 1_555 1_555
H34 C80 1_555 1_555
C81 C80 1_555 1_555
H35 C81 1_555 1_555
C82 C77 1_555 1_555
H36 C82 1_555 1_555
P1 C83 1_555 1_555
C83 H37 1_555 1_555
H38 C83 1_555 1_555
H39 C83 1_555 1_555
C84 P1 1_555 1_555
C85 C84 1_555 1_555
H40 C85 1_555 1_555
C86 C85 1_555 1_555
H41 C86 1_555 1_555
C87 C86 1_555 1_555
H42 C87 1_555 1_555
C88 C87 1_555 1_555
H43 C88 1_555 1_555
C89 C84 1_555 1_555
H44 C89 1_555 1_555
C90 P1 1_555 1_555
C91 C90 1_555 1_555
H45 C91 1_555 1_555
C92 C91 1_555 1_555
H46 C92 1_555 1_555
C93 C92 1_555 1_555
H47 C93 1_555 1_555
C94 C93 1_555 1_555
H48 C94 1_555 1_555
C95 C90 1_555 1_555
H49 C95 1_555 1_555
C96 P1 1_555 1_555
C97 C96 1_555 1_555
H50 C97 1_555 1_555
C98 C97 1_555 1_555
H51 C98 1_555 1_555
C99 C98 1_555 1_555
H52 C99 1_555 1_555
C100 C99 1_555 1_555
H53 C100 1_555 1_555
C101 C96 1_555 1_555
H54 C101 1_555 1_555
P2 C102 1_555 1_555
C102 H55 1_555 1_555
H56 C102 1_555 1_555
H57 C102 1_555 1_555
C103 P2 1_555 1_555
C104 C103 1_555 1_555
H58 C104 1_555 1_555
C105 C104 1_555 1_555
H59 C105 1_555 1_555
C106 C105 1_555 1_555
H60 C106 1_555 1_555
C107 C106 1_555 1_555
H61 C107 1_555 1_555
C108 C103 1_555 1_555
H62 C108 1_555 1_555
C109 P2 1_555 1_555
C110 C109 1_555 1_555
H63 C110 1_555 1_555
C111 C110 1_555 1_555
H64 C111 1_555 1_555
C112 C111 1_555 1_555
H65 C112 1_555 1_555
C113 C112 1_555 1_555
H66 C113 1_555 1_555
C114 C109 1_555 1_555
H67 C114 1_555 1_555
C115 P2 1_555 1_555
C116 C115 1_555 1_555
H68 C116 1_555 1_555
C117 C116 1_555 1_555
H69 C117 1_555 1_555
C118 C117 1_555 1_555
H70 C118 1_555 1_555
C119 C118 1_555 1_555
H71 C119 1_555 1_555
C120 C115 1_555 1_555
H72 C120 1_555 1_555
P3 C121 1_555 1_555
C121 H73 1_555 1_555
H74 C121 1_555 1_555
H75 C121 1_555 1_555
C122 P3 1_555 1_555
C123 C122 1_555 1_555
H76 C123 1_555 1_555
C124 C123 1_555 1_555
H77 C124 1_555 1_555
C125 C124 1_555 1_555
H78 C125 1_555 1_555
C126 C125 1_555 1_555
H79 C126 1_555 1_555
C127 C122 1_555 1_555
H80 C127 1_555 1_555
C128 P3 1_555 1_555
C129 C128 1_555 1_555
H81 C129 1_555 1_555
C130 C129 1_555 1_555
H82 C130 1_555 1_555
C131 C130 1_555 1_555
H83 C131 1_555 1_555
C132 C131 1_555 1_555
H84 C132 1_555 1_555
C133 C128 1_555 1_555
H85 C133 1_555 1_555
C134 P3 1_555 1_555
C135 C134 1_555 1_555
H86 C135 1_555 1_555
C136 C135 1_555 1_555
H87 C136 1_555 1_555
C137 C136 1_555 1_555
H88 C137 1_555 1_555
C138 C137 1_555 1_555
H89 C138 1_555 1_555
C139 C134 1_555 1_555
H90 C139 1_555 1_555
N1 C140 1_555 1_555
C140 C141 1_555 1_555
C141 H91 1_555 1_555
H92 C141 1_555 1_555
C142 C141 1_555 1_555
H93 C142 1_555 1_555
H94 C142 1_555 1_555
C143 C142 1_555 1_555
H95 C143 1_555 1_555
H96 C143 1_555 1_555
H97 C143 1_555 1_555
C144 N1 1_555 1_555
H98 C144 1_555 1_555
H99 C144 1_555 1_555
C145 C144 1_555 1_555
H100 C145 1_555 1_555
H101 C145 1_555 1_555
C146 C145 1_555 1_555
H102 C146 1_555 1_555
H103 C146 1_555 1_555
C147 C146 1_555 1_555
H104 C147 1_555 1_555
H105 C147 1_555 1_555
H106 C147 1_555 1_555
C148 N1 1_555 1_555
C149 C148 1_555 1_555
H107 C149 1_555 1_555
H108 C149 1_555 1_555
C150 C149 1_555 1_555
C151 N1 1_555 1_555
H109 C151 1_555 1_555
H110 C151 1_555 1_555
C152 C151 1_555 1_555
H111 C152 1_555 1_555
H112 C152 1_555 1_555
C153 C152 1_555 1_555
C8 C9 1_555 1_555
C9 C10 1_555 1_555
C11 C12 1_555 1_555
C14 C19 1_555 1_555
C16 C17 1_555 1_555
C18 C19 1_555 1_555
C24 C25 1_555 1_555
C27 C28 1_555 1_555
C28 C29 1_555 1_555
C30 C31 1_555 1_555
C33 C38 1_555 1_555
C35 C36 1_555 1_555
C37 C38 1_555 1_555
C43 C44 1_555 1_555
C46 C47 1_555 1_555
C47 C48 1_555 1_555
C49 C50 1_555 1_555
C52 C57 1_555 1_555
C54 C55 1_555 1_555
C56 C57 1_555 1_555
C62 C63 1_555 1_555
C65 C66 1_555 1_555
C66 C67 1_555 1_555
C68 C69 1_555 1_555
C71 C76 1_555 1_555
C72 C73 1_555 1_555
C73 C74 1_555 1_555
C75 C76 1_555 1_555
C81 C82 1_555 1_555
C88 C89 1_555 1_555
C94 C95 1_555 1_555
C100 C101 1_555 1_555
C107 C108 1_555 1_555
C113 C114 1_555 1_555
C119 C120 1_555 1_555
C126 C127 1_555 1_555
C132 C133 1_555 1_555
C138 C139 1_555 1_555

#END
