
#######################################################################
#
#                 Cambridge Crystallographic Data Centre
#                                CCDC 
#
#######################################################################
#
# If this CIF has been generated from an entry in the Cambridge 
# Structural Database, then it will include bibliographic, chemical, 
# crystal, experimental, refinement or atomic coordinate data resulting 
# from the CCDC's data processing and validation procedures.
#
#######################################################################

data_TISSUL
_chemical_formula_moiety         
'C76 H36 O28 W4 4-,2(C24 H20 As1 1+),2(C16 H36 N1 1+),3(C1 H4 O1),1.5(H2 O1)'
_chemical_name_systematic        
'bis(Tetraphenylarsonium) bis(tetra-n-butylammonium) tetrakis(\m~2~-3-oxo-9-phenyl-3H-xanthene-2,6,7-triolato)-octaoxo-tetra-tungsten methanol solvate sesquihydrate'
_symmetry_cell_setting           triclinic
_symmetry_space_group_name_H-M   'P -1'
_symmetry_Int_Tables_number      2
_space_group_name_Hall           '-P 1'
loop_
_symmetry_equiv_pos_site_id
_symmetry_equiv_pos_as_xyz
1 x,y,z
2 -x,-y,-z
_cell_length_a                   18.4245(5)
_cell_length_b                   20.6396(7)
_cell_length_c                   21.9240(8)
_cell_angle_alpha                85.629(3)
_cell_angle_beta                 85.911(3)
_cell_angle_gamma                65.710(3)
_cell_volume                     7569.66
_exptl_crystal_colour            orange
_exptl_crystal_description       needle
_cell_formula_units_Z            2
loop_
_atom_site_label
_atom_site_type_symbol
_atom_site_fract_x
_atom_site_fract_y
_atom_site_fract_z
O2 O 0.2488(11) 0.3201(10) 0.0270(8)
C2 C 0.2715(17) 0.2543(15) 0.0013(13)
O3 O 0.2997(11) 0.2307(9) -0.1726(8)
C3 C 0.2986(16) 0.2499(13) -0.2393(12)
O4 O 0.6950(17) 0.2859(14) 0.7871(12)
C4 C 0.620(2) 0.322(2) 0.7805(18)
O5 O 0.1141(13) 0.4142(11) 0.9789(10)
O6 O 0.1265(12) 0.3597(11) 0.8660(10)
O7 O -0.0245(17) 0.4437(14) 1.0905(13)
W1 W 0.50116(4) 0.74281(3) 0.73681(3)
W2 W 1.10904(4) 0.16688(3) 0.85951(3)
W3 W 0.97846(5) 0.25935(3) 1.43538(3)
W4 W 0.39573(5) 0.85987(4) 1.31000(3)
O8 O 0.4447(7) 0.7238(5) 0.6899(5)
O9 O 0.5015(7) 0.8212(5) 0.7036(5)
O10 O 0.5338(6) 0.6416(4) 0.7889(4)
O11 O 0.6118(6) 0.6850(5) 0.7052(4)
O12 O 0.9810(6) 0.2158(5) 0.8761(5)
O13 O 1.0716(6) 0.2528(4) 0.8028(5)
O14 O 0.7552(6) 0.4224(5) 0.8225(5)
O15 O 1.1025(6) 0.1040(5) 0.8175(5)
O16 O 1.2044(8) 0.1571(5) 0.8460(5)
O17 O 1.1092(6) 0.1134(5) 0.9388(4)
O18 O 1.0943(6) 0.2422(4) 0.9285(4)
O19 O 1.0076(6) 0.1832(5) 1.3756(4)
O20 O 1.0124(7) 0.3048(5) 1.3511(5)
O21 O 1.0626(6) 0.2651(5) 1.1419(4)
O22 O 0.9329(7) 0.2212(6) 1.4854(5)
O23 O 1.0688(7) 0.2421(5) 1.4663(5)
O24 O 0.8669(7) 0.3089(5) 1.3840(5)
O25 O 0.9276(7) 0.3612(5) 1.4596(5)
O26 O 0.4926(6) 0.8149(5) 1.3595(5)
O27 O 0.4429(6) 0.7442(5) 1.2928(5)
O28 O 0.6580(8) 0.5285(5) 1.3427(6)
O29 O 0.3873(6) 0.9439(5) 1.3230(5)
O30 O 0.3271(8) 0.8507(6) 1.3553(5)
O31 O 0.3325(6) 0.8733(5) 1.2352(5)
O32 O 0.4817(6) 0.8490(5) 1.2328(5)
O33 O 0.4160(5) 0.7763(5) 0.8039(4)
O34 O 0.5625(6) 0.7534(5) 0.8158(5)
O35 O 0.5133(6) 0.8081(5) 1.0232(4)
C5 C 0.7241(9) 0.4872(7) 0.7918(7)
C6 C 0.6414(9) 0.5287(7) 0.8084(8)
H1 H 0.6120 0.5119 0.8380
C7 C 0.6073(9) 0.5964(7) 0.7772(7)
C8 C 0.6520(10) 0.6186(7) 0.7305(6)
C9 C 0.7283(9) 0.5774(7) 0.7124(7)
H2 H 0.7555 0.5927 0.6799
C10 C 0.7663(9) 0.5088(7) 0.7450(6)
C11 C 0.8474(9) 0.4636(7) 0.7326(6)
C12 C 0.8826(9) 0.3990(7) 0.7685(7)
C13 C 0.9650(9) 0.3548(7) 0.7633(7)
H3 H 0.9988 0.3665 0.7341
C14 C 0.9949(8) 0.2954(7) 0.8008(6)
C15 C 0.9460(9) 0.2733(7) 0.8434(7)
C16 C 0.8622(9) 0.3170(7) 0.8477(7)
H4 H 0.8270 0.3037 0.8742
C17 C 0.8354(9) 0.3789(7) 0.8119(7)
C18 C 0.8935(8) 0.4802(6) 0.6819(6)
C19 C 0.9155(9) 0.5358(7) 0.6829(7)
H5 H 0.8998 0.5653 0.7169
C20 C 0.9616(10) 0.5496(8) 0.6335(7)
H6 H 0.9765 0.5883 0.6349
C21 C 0.9861(11) 0.5073(9) 0.5820(8)
H7 H 1.0180 0.5158 0.5490
C22 C 0.9598(11) 0.4505(8) 0.5827(7)
H8 H 0.9731 0.4216 0.5484
C23 C 0.9158(9) 0.4366(7) 0.6316(7)
H9 H 0.9008 0.3978 0.6312
C24 C 1.0731(9) 0.2251(7) 1.0923(7)
C25 C 1.0782(9) 0.2567(7) 1.0358(7)
H10 H 1.0749 0.3040 1.0321
C26 C 1.0882(8) 0.2189(7) 0.9848(7)
C27 C 1.0968(8) 0.1450(7) 0.9914(7)
C28 C 1.0913(9) 0.1142(8) 1.0472(7)
H11 H 1.0957 0.0666 1.0508
C29 C 1.0789(8) 0.1536(7) 1.1008(7)
C30 C 1.0711(8) 0.1264(7) 1.1614(6)
C31 C 1.0581(8) 0.1710(6) 1.2116(7)
C32 C 1.0404(8) 0.1507(7) 1.2729(6)
H12 H 1.0380 0.1058 1.2818
C33 C 1.0272(9) 0.1962(7) 1.3181(7)
C34 C 1.0266(10) 0.2678(7) 1.3045(8)
C35 C 1.0411(10) 0.2873(8) 1.2444(7)
H13 H 1.0426 0.3324 1.2345
C36 C 1.0530(9) 0.2413(7) 1.1997(8)
C37 C 1.0736(9) 0.0537(7) 1.1705(6)
C38 C 1.0148(10) 0.0391(8) 1.1475(7)
H14 H 0.9724 0.0758 1.1268
C39 C 1.0175(11) -0.0314(8) 1.1549(8)
H15 H 0.9786 -0.0425 1.1373
C40 C 1.0785(11) -0.0837(8) 1.1883(8)
H16 H 1.0793 -0.1300 1.1953
C41 C 1.1382(10) -0.0685(7) 1.2116(7)
H17 H 1.1805 -0.1047 1.2328
C42 C 1.1349(9) 0.0009(7) 1.2034(7)
H18 H 1.1744 0.0120 1.2201
C43 C 0.7235(12) 0.4883(7) 1.3725(8)
C44 C 0.7600(12) 0.4179(9) 1.3618(9)
H19 H 0.7382 0.3979 1.3343
C45 C 0.8293(10) 0.3754(7) 1.3911(7)
C46 C 0.8611(10) 0.4056(8) 1.4344(8)
C47 C 0.8252(10) 0.4756(8) 1.4448(7)
H20 H 0.8473 0.4950 1.4726
C48 C 0.7541(11) 0.5212(7) 1.4143(8)
C49 C 0.7147(10) 0.5939(8) 1.4229(7)
C50 C 0.6461(11) 0.6352(8) 1.3895(8)
C51 C 0.6031(10) 0.7110(7) 1.3933(7)
H21 H 0.6216 0.7364 1.4180
C52 C 0.5360(10) 0.7462(8) 1.3615(7)
C53 C 0.5074(9) 0.7073(8) 1.3207(8)
C54 C 0.5502(11) 0.6328(8) 1.3165(9)
H22 H 0.5328 0.6067 1.2917
C55 C 0.6178(11) 0.5994(8) 1.3494(8)
C56 C 0.7418(10) 0.6288(7) 1.4668(7)
C57 C 0.8129(12) 0.6328(8) 1.4569(8)
H23 H 0.8444 0.6144 1.4209
C58 C 0.8422(13) 0.6652(9) 1.5009(10)
H24 H 0.8923 0.6679 1.4934
C59 C 0.7987(13) 0.6909(9) 1.5514(9)
H25 H 0.8181 0.7114 1.5801
C60 C 0.7226(15) 0.6878(9) 1.5628(8)
H26 H 0.6909 0.7064 1.5987
C61 C 0.6958(12) 0.6561(8) 1.5193(7)
H27 H 0.6455 0.6536 1.5261
C62 C 0.4656(9) 0.8259(7) 1.0742(6)
C63 C 0.5027(10) 0.8300(8) 1.1266(7)
H28 H 0.5570 0.8234 1.1252
C64 C 0.4563(9) 0.8443(7) 1.1804(7)
C65 C 0.3715(9) 0.8604(7) 1.1802(7)
C66 C 0.3333(10) 0.8614(7) 1.1279(7)
H29 H 0.2776 0.8737 1.1284
C67 C 0.3824(9) 0.8429(7) 1.0729(6)
C68 C 0.3510(9) 0.8382(7) 1.0160(6)
C69 C 0.4033(9) 0.8159(7) 0.9656(7)
C70 C 0.3763(10) 0.8062(7) 0.9075(6)
H30 H 0.3226 0.8134 0.9029
C71 C 0.4328(9) 0.7859(7) 0.8592(7)
C72 C 0.5166(9) 0.7738(7) 0.8647(7)
C73 C 0.5410(9) 0.7802(8) 0.9225(7)
H31 H 0.5951 0.7706 0.9283
C74 C 0.4854(9) 0.8005(7) 0.9700(6)
C75 C 0.2645(9) 0.8577(7) 1.0109(6)
C76 C 0.2188(9) 0.9201(7) 0.9802(7)
H32 H 0.2427 0.9502 0.9617
C77 C 0.1372(9) 0.9396(8) 0.9759(7)
H33 H 0.1062 0.9820 0.9533
C78 C 0.1004(9) 0.8975(8) 1.0046(7)
H34 H 0.0446 0.9112 1.0027
C79 C 0.1488(11) 0.8336(9) 1.0367(8)
H35 H 0.1256 0.8032 1.0556
C80 C 0.2294(9) 0.8152(9) 1.0406(7)
H36 H 0.2610 0.7734 1.0637
As1 As 0.77392(13) 0.94752(10) 0.50792(9)
C81 C 0.6879(10) 1.0327(9) 0.4795(8)
C82 C 0.6299(11) 1.0714(10) 0.5238(9)
H37 H 0.6331 1.0545 0.5655
C83 C 0.5650(12) 1.1376(10) 0.5046(9)
H38 H 0.5260 1.1664 0.5331
C84 C 0.5629(12) 1.1564(10) 0.4426(9)
H39 H 0.5200 1.1988 0.4290
C85 C 0.6187(11) 1.1178(9) 0.3994(9)
H40 H 0.6138 1.1348 0.3577
C86 C 0.6846(12) 1.0520(10) 0.4160(9)
H41 H 0.7227 1.0237 0.3867
C87 C 0.7343(11) 0.9018(9) 0.5706(8)
C88 C 0.7858(11) 0.8657(9) 0.6195(8)
H42 H 0.8373 0.8656 0.6209
C89 C 0.7552(11) 0.8292(9) 0.6668(8)
H43 H 0.7862 0.8060 0.7011
C90 C 0.6830(11) 0.8279(10) 0.6626(9)
H44 H 0.6657 0.8026 0.6941
C91 C 0.6321(12) 0.8615(10) 0.6145(9)
H45 H 0.5818 0.8594 0.6126
C92 C 0.6607(11) 0.8993(10) 0.5688(9)
H46 H 0.6279 0.9236 0.5356
C93 C 0.8493(13) 0.9740(11) 0.5417(10)
C94 C 0.9281(14) 0.9391(12) 0.5239(10)
H47 H 0.9442 0.9065 0.4922
C95 C 0.9870(17) 0.9543(14) 0.5561(12)
H48 H 1.0425 0.9311 0.5464
C96 C 0.9571(19) 1.0046(15) 0.6019(13)
H49 H 0.9934 1.0163 0.6226
C97 C 0.8785(17) 1.0366(14) 0.6170(12)
H50 H 0.8602 1.0702 0.6480
C98 C 0.8243(14) 1.0205(12) 0.5873(10)
H51 H 0.7693 1.0421 0.5990
C99 C 0.8177(9) 0.8909(8) 0.4385(6)
C100 C 0.8589(9) 0.9117(7) 0.3910(8)
H52 H 0.8706 0.9520 0.3946
C101 C 0.8831(10) 0.8737(11) 0.3382(7)
H53 H 0.9112 0.8879 0.3058
C102 C 0.8659(11) 0.8148(10) 0.3329(7)
H54 H 0.8824 0.7888 0.2968
C103 C 0.8247(11) 0.7940(7) 0.3804(9)
H55 H 0.8130 0.7537 0.3767
C104 C 0.8006(9) 0.8321(8) 0.4332(8)
H56 H 0.7724 0.8178 0.4656
As2 As 0.27352(14) 0.56677(11) 0.94168(12)
C105 C 0.3537(13) 0.5922(11) 0.9741(10)
C106 C 0.4022(12) 0.6090(10) 0.9337(10)
H57 H 0.3949 0.6094 0.8912
C107 C 0.4651(16) 0.6263(13) 0.9530(13)
H58 H 0.5020 0.6352 0.9247
C108 C 0.4681(17) 0.6294(14) 1.0201(13)
H59 H 0.5052 0.6435 1.0367
C109 C 0.4136(15) 0.6106(12) 1.0591(12)
H60 H 0.4170 0.6099 1.1022
C110 C 0.3532(14) 0.5924(12) 1.0355(11)
H61 H 0.3158 0.5815 1.0615
C111 C 0.3190(11) 0.4835(8) 0.9010(7)
C112 C 0.3941(10) 0.4624(9) 0.8719(8)
H62 H 0.4232 0.4911 0.8728
C113 C 0.4268(10) 0.3993(10) 0.8416(8)
H63 H 0.4781 0.3849 0.8217
C114 C 0.3842(15) 0.3573(8) 0.8403(9)
H64 H 0.4065 0.3141 0.8196
C115 C 0.3091(15) 0.3784(12) 0.8694(11)
H65 H 0.2801 0.3497 0.8685
C116 C 0.2765(10) 0.4415(13) 0.8997(9)
H66 H 0.2251 0.4559 0.9196
C117 C 0.2053(13) 0.5535(11) 1.0050(9)
C118 C 0.2308(13) 0.4934(11) 1.0468(10)
H67 H 0.2834 0.4576 1.0425
C119 C 0.1803(15) 0.4865(12) 1.0936(11)
H68 H 0.1994 0.4477 1.1230
C120 C 0.1009(15) 0.5359(12) 1.0982(11)
H69 H 0.0658 0.5279 1.1287
C121 C 0.0718(13) 0.5972(11) 1.0586(9)
H70 H 0.0187 0.6319 1.0638
C122 C 0.1251(12) 0.6062(11) 1.0093(9)
H71 H 0.1070 0.6460 0.9808
C123 C 0.2186(14) 0.6433(12) 0.8844(11)
C124 C 0.1962(16) 0.6269(16) 0.8303(13)
H72 H 0.2063 0.5798 0.8205
C125 C 0.1539(17) 0.6924(17) 0.7887(14)
H73 H 0.1342 0.6877 0.7511
C126 C 0.1444(17) 0.7567(16) 0.8051(14)
H74 H 0.1207 0.7959 0.7768
C127 C 0.1660(16) 0.7705(16) 0.8595(14)
H75 H 0.1564 0.8177 0.8686
C128 C 0.2024(14) 0.7140(12) 0.9010(11)
H76 H 0.2163 0.7220 0.9398
N1 N 0.5794(7) 0.0041(6) 0.2105(7)
C129 C 0.4961(9) 0.0609(8) 0.1979(7)
H77 H 0.4787 0.0938 0.2318
H78 H 0.4997 0.0889 0.1600
C130 C 0.4332(9) 0.0342(8) 0.1909(7)
H79 H 0.4270 0.0075 0.2290
H80 H 0.4491 0.0015 0.1569
C131 C 0.3558(9) 0.0959(8) 0.1780(7)
H81 H 0.3602 0.1180 0.1370
H82 H 0.3449 0.1321 0.2085
C132 C 0.2871(11) 0.0735(10) 0.1800(9)
H83 H 0.2377 0.1152 0.1713
H84 H 0.2818 0.0525 0.2208
H85 H 0.2971 0.0384 0.1493
C133 C 0.6099(12) -0.0443(10) 0.1590(9)
C134 C 0.6086(14) -0.0068(12) 0.0961(10)
H86 H 0.6436 0.0191 0.0948
H87 H 0.5537 0.0280 0.0878
C135 C 0.6391(17) -0.0651(15) 0.0461(13)
H88 H 0.6937 -0.1003 0.0548
H89 H 0.6037 -0.0906 0.0472
C136 C 0.6390(17) -0.0303(16) -0.0136(14)
H90 H 0.6578 -0.0659 -0.0448
H91 H 0.6745 -0.0055 -0.0144
H92 H 0.5848 0.0041 -0.0221
C137 C 0.6306(11) 0.0450(10) 0.2196(9)
H93 H 0.6025 0.0816 0.2497
H94 H 0.6360 0.0699 0.1803
C138 C 0.7147(13) -0.0020(11) 0.2420(10)
H95 H 0.7438 -0.0388 0.2123
H96 H 0.7105 -0.0263 0.2819
C139 C 0.7615(15) 0.0452(13) 0.2488(12)
C140 C 0.5821(12) -0.0453(10) 0.2659(8)
H97 H 0.6380 -0.0800 0.2705
H98 H 0.5506 -0.0725 0.2578
C141 C 0.5504(12) -0.0087(10) 0.3275(8)
H99 H 0.4927 0.0216 0.3247
H100 H 0.5775 0.0228 0.3334
C142 C 0.5625(15) -0.0611(12) 0.3850(9)
N2 N 0.6901(8) 0.3047(8) 0.5251(7)
C143 C 0.6029(10) 0.3193(13) 0.5235(9)
H101 H 0.5725 0.3502 0.5571
H102 H 0.5960 0.2741 0.5293
C144 C 0.5710(9) 0.3568(11) 0.4608(8)
C145 C 0.4790(9) 0.3846(11) 0.4622(8)
C146 C 0.4457(12) 0.4279(12) 0.4020(9)
H103 H 0.3875 0.4449 0.4038
H104 H 0.4681 0.3975 0.3673
H105 H 0.4603 0.4686 0.3970
C147 C 0.7485(13) 0.2715(9) 0.4719(9)
C148 C 0.7551(15) 0.1951(10) 0.4689(8)
H106 H 0.7011 0.1961 0.4669
H107 H 0.7791 0.1670 0.5065
C149 C 0.8065(13) 0.1589(9) 0.4125(7)
H108 H 0.8623 0.1523 0.4170
H109 H 0.8063 0.1113 0.4100
C150 C 0.7752(15) 0.2036(12) 0.3532(7)
H110 H 0.8090 0.1794 0.3182
H111 H 0.7763 0.2504 0.3553
H112 H 0.7204 0.2094 0.3483
C151 C 0.7272(11) 0.2641(13) 0.5852(10)
H113 H 0.7419 0.2126 0.5822
H114 H 0.6879 0.2811 0.6199
C152 C 0.8025(11) 0.2768(11) 0.5964(10)
H115 H 0.8295 0.2812 0.5567
H116 H 0.7865 0.3219 0.6172
C153 C 0.8603(12) 0.2152(9) 0.6360(11)
H117 H 0.8300 0.1923 0.6615
H118 H 0.8988 0.1792 0.6090
C154 C 0.9060(14) 0.2403(12) 0.6776(10)
H119 H 0.9421 0.1994 0.7020
H120 H 0.8681 0.2753 0.7050
H121 H 0.9369 0.2621 0.6525
C155 C 0.6907(14) 0.3794(10) 0.5293(10)
C156 C 0.6586(13) 0.4134(12) 0.5857(10)
O1 O 0.2813(8) 0.3114(7) 0.1475(6)
C1 C 0.2222(12) 0.3030(10) 0.1884(9)
loop_
_geom_bond_atom_site_label_1
_geom_bond_atom_site_label_2
_geom_bond_site_symmetry_1
_geom_bond_site_symmetry_2
O1 C1 1_555 1_555
O2 C2 1_555 1_555
O3 C3 1_555 1_555
O4 C4 1_555 1_555
W1 O8 1_555 1_555
W2 O12 1_555 1_555
W3 O19 1_555 1_555
W4 O26 1_555 1_555
O9 W1 1_555 1_555
O10 W1 1_555 1_555
O11 W1 1_555 1_555
O12 C15 1_555 1_555
O13 W2 1_555 1_555
O14 C5 1_555 1_555
O15 W2 1_555 1_555
O16 W2 1_555 1_555
O17 W2 1_555 1_555
O18 W2 1_555 1_555
O19 C33 1_555 1_555
O20 W3 1_555 1_555
O21 C24 1_555 1_555
O22 W3 1_555 1_555
O23 W3 1_555 1_555
O24 W3 1_555 1_555
O25 W3 1_555 1_555
O26 C52 1_555 1_555
O27 W4 1_555 1_555
O28 C43 1_555 1_555
O29 W4 1_555 1_555
O30 W4 1_555 1_555
O31 W4 1_555 1_555
O32 W4 1_555 1_555
O33 W1 1_555 1_555
O34 W1 1_555 1_555
O35 C62 1_555 1_555
C5 C6 1_555 1_555
C6 H1 1_555 1_555
C7 O10 1_555 1_555
C8 O11 1_555 1_555
C9 C8 1_555 1_555
H2 C9 1_555 1_555
C10 C5 1_555 1_555
C11 C10 1_555 1_555
C12 C11 1_555 1_555
C13 C12 1_555 1_555
H3 C13 1_555 1_555
C14 O13 1_555 1_555
C15 C14 1_555 1_555
C16 C15 1_555 1_555
H4 C16 1_555 1_555
C17 O14 1_555 1_555
C18 C11 1_555 1_555
C19 C18 1_555 1_555
H5 C19 1_555 1_555
C20 C19 1_555 1_555
H6 C20 1_555 1_555
C21 C20 1_555 1_555
H7 C21 1_555 1_555
C22 C21 1_555 1_555
H8 C22 1_555 1_555
C23 C18 1_555 1_555
H9 C23 1_555 1_555
C24 C25 1_555 1_555
C25 H10 1_555 1_555
C26 O18 1_555 1_555
C27 O17 1_555 1_555
C28 C27 1_555 1_555
H11 C28 1_555 1_555
C29 C24 1_555 1_555
C30 C29 1_555 1_555
C31 C30 1_555 1_555
C32 C31 1_555 1_555
H12 C32 1_555 1_555
C33 C32 1_555 1_555
C34 O20 1_555 1_555
C35 C34 1_555 1_555
H13 C35 1_555 1_555
C36 O21 1_555 1_555
C37 C30 1_555 1_555
C38 C37 1_555 1_555
H14 C38 1_555 1_555
C39 C38 1_555 1_555
H15 C39 1_555 1_555
C40 C39 1_555 1_555
H16 C40 1_555 1_555
C41 C40 1_555 1_555
H17 C41 1_555 1_555
C42 C37 1_555 1_555
H18 C42 1_555 1_555
C43 C44 1_555 1_555
C44 H19 1_555 1_555
C45 O24 1_555 1_555
C46 O25 1_555 1_555
C47 C46 1_555 1_555
H20 C47 1_555 1_555
C48 C43 1_555 1_555
C49 C48 1_555 1_555
C50 C49 1_555 1_555
C51 C50 1_555 1_555
H21 C51 1_555 1_555
C52 C51 1_555 1_555
C53 O27 1_555 1_555
C54 C53 1_555 1_555
H22 C54 1_555 1_555
C55 O28 1_555 1_555
C56 C49 1_555 1_555
C57 C56 1_555 1_555
H23 C57 1_555 1_555
C58 C57 1_555 1_555
H24 C58 1_555 1_555
C59 C58 1_555 1_555
H25 C59 1_555 1_555
C60 C59 1_555 1_555
H26 C60 1_555 1_555
C61 C56 1_555 1_555
H27 C61 1_555 1_555
C62 C63 1_555 1_555
C63 H28 1_555 1_555
C64 O32 1_555 1_555
C65 O31 1_555 1_555
C66 C65 1_555 1_555
H29 C66 1_555 1_555
C67 C62 1_555 1_555
C68 C67 1_555 1_555
C69 C68 1_555 1_555
C70 C69 1_555 1_555
H30 C70 1_555 1_555
C71 O33 1_555 1_555
C72 O34 1_555 1_555
C73 C72 1_555 1_555
H31 C73 1_555 1_555
C74 O35 1_555 1_555
C75 C68 1_555 1_555
C76 C75 1_555 1_555
H32 C76 1_555 1_555
C77 C76 1_555 1_555
H33 C77 1_555 1_555
C78 C77 1_555 1_555
H34 C78 1_555 1_555
C79 C78 1_555 1_555
H35 C79 1_555 1_555
C80 C75 1_555 1_555
H36 C80 1_555 1_555
As1 C81 1_555 1_555
C81 C82 1_555 1_555
C82 H37 1_555 1_555
C83 C82 1_555 1_555
H38 C83 1_555 1_555
C84 C83 1_555 1_555
H39 C84 1_555 1_555
C85 C84 1_555 1_555
H40 C85 1_555 1_555
C86 C81 1_555 1_555
H41 C86 1_555 1_555
C87 As1 1_555 1_555
C88 C87 1_555 1_555
H42 C88 1_555 1_555
C89 C88 1_555 1_555
H43 C89 1_555 1_555
C90 C89 1_555 1_555
H44 C90 1_555 1_555
C91 C90 1_555 1_555
H45 C91 1_555 1_555
C92 C87 1_555 1_555
H46 C92 1_555 1_555
C93 As1 1_555 1_555
C94 C93 1_555 1_555
H47 C94 1_555 1_555
C95 C94 1_555 1_555
H48 C95 1_555 1_555
C96 C95 1_555 1_555
H49 C96 1_555 1_555
C97 C96 1_555 1_555
H50 C97 1_555 1_555
C98 C93 1_555 1_555
H51 C98 1_555 1_555
C99 As1 1_555 1_555
C100 C99 1_555 1_555
H52 C100 1_555 1_555
C101 C100 1_555 1_555
H53 C101 1_555 1_555
C102 C101 1_555 1_555
H54 C102 1_555 1_555
C103 C102 1_555 1_555
H55 C103 1_555 1_555
C104 C99 1_555 1_555
H56 C104 1_555 1_555
As2 C105 1_555 1_555
C105 C106 1_555 1_555
C106 H57 1_555 1_555
C107 C106 1_555 1_555
H58 C107 1_555 1_555
C108 C107 1_555 1_555
H59 C108 1_555 1_555
C109 C108 1_555 1_555
H60 C109 1_555 1_555
C110 C105 1_555 1_555
H61 C110 1_555 1_555
C111 As2 1_555 1_555
C112 C111 1_555 1_555
H62 C112 1_555 1_555
C113 C112 1_555 1_555
H63 C113 1_555 1_555
C114 C113 1_555 1_555
H64 C114 1_555 1_555
C115 C114 1_555 1_555
H65 C115 1_555 1_555
C116 C111 1_555 1_555
H66 C116 1_555 1_555
C117 As2 1_555 1_555
C118 C117 1_555 1_555
H67 C118 1_555 1_555
C119 C118 1_555 1_555
H68 C119 1_555 1_555
C120 C119 1_555 1_555
H69 C120 1_555 1_555
C121 C120 1_555 1_555
H70 C121 1_555 1_555
C122 C117 1_555 1_555
H71 C122 1_555 1_555
C123 As2 1_555 1_555
C124 C123 1_555 1_555
H72 C124 1_555 1_555
C125 C124 1_555 1_555
H73 C125 1_555 1_555
C126 C125 1_555 1_555
H74 C126 1_555 1_555
C127 C126 1_555 1_555
H75 C127 1_555 1_555
C128 C123 1_555 1_555
H76 C128 1_555 1_555
N1 C129 1_555 1_555
C129 H77 1_555 1_555
H78 C129 1_555 1_555
C130 C129 1_555 1_555
H79 C130 1_555 1_555
H80 C130 1_555 1_555
C131 C130 1_555 1_555
H81 C131 1_555 1_555
H82 C131 1_555 1_555
C132 C131 1_555 1_555
H83 C132 1_555 1_555
H84 C132 1_555 1_555
H85 C132 1_555 1_555
C133 N1 1_555 1_555
C134 C133 1_555 1_555
H86 C134 1_555 1_555
H87 C134 1_555 1_555
C135 C134 1_555 1_555
H88 C135 1_555 1_555
H89 C135 1_555 1_555
C136 C135 1_555 1_555
H90 C136 1_555 1_555
H91 C136 1_555 1_555
H92 C136 1_555 1_555
C137 N1 1_555 1_555
H93 C137 1_555 1_555
H94 C137 1_555 1_555
C138 C137 1_555 1_555
H95 C138 1_555 1_555
H96 C138 1_555 1_555
C139 C138 1_555 1_555
C140 N1 1_555 1_555
H97 C140 1_555 1_555
H98 C140 1_555 1_555
C141 C140 1_555 1_555
H99 C141 1_555 1_555
H100 C141 1_555 1_555
C142 C141 1_555 1_555
N2 C143 1_555 1_555
C143 H101 1_555 1_555
H102 C143 1_555 1_555
C144 C143 1_555 1_555
C145 C144 1_555 1_555
C146 C145 1_555 1_555
H103 C146 1_555 1_555
H104 C146 1_555 1_555
H105 C146 1_555 1_555
C147 N2 1_555 1_555
C148 C147 1_555 1_555
H106 C148 1_555 1_555
H107 C148 1_555 1_555
C149 C148 1_555 1_555
H108 C149 1_555 1_555
H109 C149 1_555 1_555
C150 C149 1_555 1_555
H110 C150 1_555 1_555
H111 C150 1_555 1_555
H112 C150 1_555 1_555
C151 N2 1_555 1_555
H113 C151 1_555 1_555
H114 C151 1_555 1_555
C152 C151 1_555 1_555
H115 C152 1_555 1_555
H116 C152 1_555 1_555
C153 C152 1_555 1_555
H117 C153 1_555 1_555
H118 C153 1_555 1_555
C154 C153 1_555 1_555
H119 C154 1_555 1_555
H120 C154 1_555 1_555
H121 C154 1_555 1_555
C155 N2 1_555 1_555
C156 C155 1_555 1_555
C6 C7 1_555 1_555
C7 C8 1_555 1_555
C9 C10 1_555 1_555
C12 C17 1_555 1_555
C13 C14 1_555 1_555
C16 C17 1_555 1_555
C22 C23 1_555 1_555
C25 C26 1_555 1_555
C26 C27 1_555 1_555
C28 C29 1_555 1_555
C31 C36 1_555 1_555
C33 C34 1_555 1_555
C35 C36 1_555 1_555
C41 C42 1_555 1_555
C44 C45 1_555 1_555
C45 C46 1_555 1_555
C47 C48 1_555 1_555
C50 C55 1_555 1_555
C52 C53 1_555 1_555
C54 C55 1_555 1_555
C60 C61 1_555 1_555
C63 C64 1_555 1_555
C64 C65 1_555 1_555
C66 C67 1_555 1_555
C69 C74 1_555 1_555
C70 C71 1_555 1_555
C71 C72 1_555 1_555
C73 C74 1_555 1_555
C79 C80 1_555 1_555
C85 C86 1_555 1_555
C91 C92 1_555 1_555
C97 C98 1_555 1_555
C103 C104 1_555 1_555
C109 C110 1_555 1_555
C115 C116 1_555 1_555
C121 C122 1_555 1_555
C127 C128 1_555 1_555

#END
