
#######################################################################
#
#                 Cambridge Crystallographic Data Centre
#                                CCDC 
#
#######################################################################
#
# If this CIF has been generated from an entry in the Cambridge 
# Structural Database, then it will include bibliographic, chemical, 
# crystal, experimental, refinement or atomic coordinate data resulting 
# from the CCDC's data processing and validation procedures.
#
#######################################################################

data_TISSAR
_chemical_formula_moiety         
'C76 H36 O28 W4 4-,3(C19 H18 P1 1+),C16 H36 N1 1+,3(C1 H4 O1),3.5(H2 O1)'
_chemical_name_systematic        
'tris(Triphenyl(methyl)phosphonium) tetra-n-butylammonium tetrakis(\m~2~-3-oxo-9-phenyl-3H-xanthene-2,6,7-triolato)-octaoxo-tetra-tungsten methanol solvate hydrate'
_symmetry_cell_setting           triclinic
_symmetry_space_group_name_H-M   'P -1'
_symmetry_Int_Tables_number      2
_space_group_name_Hall           '-P 1'
loop_
_symmetry_equiv_pos_site_id
_symmetry_equiv_pos_as_xyz
1 x,y,z
2 -x,-y,-z
_cell_length_a                   14.7533(11)
_cell_length_b                   21.8439(16)
_cell_length_c                   24.5355(17)
_cell_angle_alpha                73.3350(10)
_cell_angle_beta                 81.164(2)
_cell_angle_gamma                86.6680(10)
_cell_volume                     7484.21
_exptl_crystal_colour            red
_exptl_crystal_description       plate
_cell_formula_units_Z            2
loop_
_atom_site_label
_atom_site_type_symbol
_atom_site_fract_x
_atom_site_fract_y
_atom_site_fract_z
O2 O 0.7799(14) 0.1597(10) 0.2178(9)
C2 C 0.708(2) 0.1972(16) 0.2287(14)
O3 O 0.6092(10) 0.2552(7) 0.7406(6)
C3 C 0.6859(15) 0.2184(11) 0.7240(10)
H4 H 0.6738 0.2032 0.6920
H5 H 0.6962 0.1818 0.7566
H6 H 0.7406 0.2451 0.7119
O4 O 0.2397(12) 0.0282(8) 0.2846(7)
C4 C 0.3207(18) -0.0160(13) 0.2888(12)
H7 H 0.3712 0.0035 0.2591
H8 H 0.3044 -0.0564 0.2832
H9 H 0.3397 -0.0240 0.3268
O5 O 0.8081(17) 0.3252(12) 0.3291(11)
C5 C 0.720(3) 0.3069(19) 0.3011(17)
O6 O 0.9356(8) 0.9091(6) 0.2530(5)
O7 O 1.0275(10) 1.0051(7) 0.2880(6)
O8 O 0.816(3) 0.4969(18) 0.1620(16)
O9 O 0.8680(18) 0.4143(13) 0.0414(11)
O10 O 0.123(2) 0.6904(16) 0.8723(14)
O11 O 0.719(2) 0.4753(17) 0.0838(15)
O12 O 0.9874(19) 1.2019(13) 0.1353(12)
W1 W 0.27590(3) 0.17236(2) 0.09723(2)
W2 W 0.85022(3) -0.093532(18) 0.44036(2)
W3 W 0.63851(3) -0.664618(18) 0.46854(2)
W4 W 0.05164(4) -0.39866(3) 0.13103(3)
O13 O 0.1758(6) 0.2102(4) 0.1163(4)
O14 O 0.3285(7) 0.2279(4) 0.0387(4)
O15 O 0.3290(5) 0.1840(3) 0.1630(3)
O16 O 0.3948(5) 0.1090(4) 0.1031(3)
O17 O 0.7551(5) -0.0262(3) 0.4283(3)
O18 O 0.8183(5) -0.0853(3) 0.3533(3)
O19 O 0.6089(5) 0.0179(4) 0.2284(3)
O20 O 0.9494(5) -0.0520(4) 0.4092(4)
O21 O 0.8431(6) -0.0991(3) 0.5127(3)
O22 O 0.9076(4) -0.1752(3) 0.4330(3)
O23 O 0.7345(4) -0.1575(3) 0.4571(3)
O24 O 0.7503(5) -0.6130(3) 0.4604(3)
O25 O 0.5856(5) -0.5787(3) 0.4889(4)
O26 O 0.6687(4) -0.3688(3) 0.4673(3)
O27 O 0.7014(6) -0.7187(3) 0.4373(4)
O28 O 0.6196(5) -0.7062(3) 0.5399(4)
O29 O 0.5103(5) -0.6742(3) 0.4565(3)
O30 O 0.6270(5) -0.5986(3) 0.3840(3)
O31 O 0.0631(6) -0.4676(4) 0.2025(4)
O32 O 0.1944(7) -0.3935(4) 0.1439(4)
O33 O 0.4038(6) -0.5007(3) 0.2668(4)
O34 O 0.0860(8) -0.4362(5) 0.0779(4)
O35 O -0.0647(8) -0.4035(4) 0.1416(4)
O36 O 0.0753(6) -0.3129(4) 0.0759(4)
O37 O 0.0443(6) -0.3345(4) 0.1854(3)
O38 O 0.2399(5) 0.1195(3) 0.0512(3)
O39 O 0.2224(6) 0.0832(4) 0.1627(3)
O40 O 0.1233(5) -0.1221(4) 0.1709(3)
C6 C 0.5394(7) 0.0601(5) 0.2144(5)
C7 C 0.5043(8) 0.0612(5) 0.1646(5)
H10 H 0.5285 0.0333 0.1424
C8 C 0.4336(7) 0.1037(5) 0.1481(5)
C9 C 0.3956(7) 0.1434(5) 0.1837(5)
C10 C 0.4317(7) 0.1430(5) 0.2328(4)
H11 H 0.4079 0.1716 0.2544
C11 C 0.5049(7) 0.0993(4) 0.2507(4)
C12 C 0.5402(7) 0.0921(5) 0.3019(5)
C13 C 0.6127(7) 0.0485(5) 0.3162(4)
C14 C 0.6495(7) 0.0362(5) 0.3682(4)
H12 H 0.6275 0.0590 0.3953
C15 C 0.7182(7) -0.0098(4) 0.3789(4)
C16 C 0.7516(7) -0.0439(5) 0.3382(4)
C17 C 0.7170(7) -0.0321(5) 0.2870(5)
H13 H 0.7406 -0.0539 0.2593
C18 C 0.6466(7) 0.0126(5) 0.2775(5)
C19 C 0.5011(7) 0.1306(5) 0.3415(4)
C20 C 0.5569(9) 0.1741(5) 0.3526(5)
H14 H 0.6184 0.1806 0.3339
C21 C 0.5206(8) 0.2076(5) 0.3915(5)
H15 H 0.5577 0.2369 0.3999
C22 C 0.4300(10) 0.1984(6) 0.4184(5)
H16 H 0.4066 0.2207 0.4457
C23 C 0.3736(9) 0.1572(6) 0.4060(5)
H17 H 0.3112 0.1530 0.4231
C24 C 0.4098(8) 0.1214(5) 0.3676(4)
H18 H 0.3728 0.0918 0.3596
C25 C 0.7306(7) -0.3217(4) 0.4563(4)
C26 C 0.6962(7) -0.2625(4) 0.4606(4)
H19 H 0.6320 -0.2555 0.4690
C27 C 0.7568(7) -0.2145(4) 0.4525(4)
C28 C 0.8535(7) -0.2262(4) 0.4390(4)
C29 C 0.8874(7) -0.2831(4) 0.4312(4)
H20 H 0.9510 -0.2887 0.4195
C30 C 0.8250(7) -0.3341(4) 0.4411(4)
C31 C 0.8524(7) -0.3952(5) 0.4349(4)
C32 C 0.7877(7) -0.4433(4) 0.4479(4)
C33 C 0.8084(7) -0.5079(4) 0.4452(4)
H21 H 0.8694 -0.5203 0.4336
C34 C 0.7396(7) -0.5506(4) 0.4595(5)
C35 C 0.6462(7) -0.5333(5) 0.4778(5)
C36 C 0.6228(8) -0.4718(5) 0.4810(5)
H22 H 0.5616 -0.4599 0.4928
C37 C 0.6948(7) -0.4284(5) 0.4658(4)
C38 C 0.9493(7) -0.4065(4) 0.4110(4)
C39 C 1.0163(7) -0.4236(5) 0.4455(5)
H23 H 1.0011 -0.4308 0.4859
C40 C 1.1099(8) -0.4308(6) 0.4208(5)
H24 H 1.1568 -0.4419 0.4446
C41 C 1.1306(8) -0.4212(6) 0.3621(5)
H25 H 1.1918 -0.4276 0.3456
C42 C 1.0635(10) -0.4025(8) 0.3275(6)
H26 H 1.0782 -0.3939 0.2870
C43 C 0.9706(10) -0.3963(8) 0.3535(6)
H27 H 0.9233 -0.3849 0.3300
C44 C 0.4288(9) -0.5460(5) 0.3135(5)
C45 C 0.5197(9) -0.5469(5) 0.3226(5)
H28 H 0.5625 -0.5174 0.2969
C46 C 0.5461(9) -0.5920(5) 0.3700(5)
C47 C 0.4759(8) -0.6346(5) 0.4102(5)
C48 C 0.3876(8) -0.6334(5) 0.4006(5)
H29 H 0.3445 -0.6624 0.4267
C49 C 0.3597(8) -0.5883(5) 0.3512(5)
C50 C 0.2711(8) -0.5840(5) 0.3371(5)
C51 C 0.2471(8) -0.5365(5) 0.2885(5)
C52 C 0.1586(9) -0.5283(5) 0.2701(5)
H30 H 0.1099 -0.5561 0.2905
C53 C 0.1463(9) -0.4798(6) 0.2228(5)
C54 C 0.2179(9) -0.4364(5) 0.1882(6)
C55 C 0.3036(10) -0.4434(6) 0.2045(6)
H31 H 0.3520 -0.4159 0.1830
C56 C 0.3174(8) -0.4931(6) 0.2541(5)
C57 C 0.2002(8) -0.6313(5) 0.3724(5)
C58 C 0.1193(9) -0.6102(6) 0.3982(5)
H32 H 0.1094 -0.5659 0.3945
C59 C 0.0502(11) -0.6554(6) 0.4305(6)
H33 H -0.0053 -0.6414 0.4488
C60 C 0.0662(10) -0.7224(6) 0.4349(6)
H34 H 0.0207 -0.7530 0.4551
C61 C 0.1482(9) -0.7409(5) 0.4092(6)
H35 H 0.1600 -0.7851 0.4135
C62 C 0.2166(9) -0.6962(5) 0.3761(6)
H36 H 0.2716 -0.7100 0.3571
C63 C 0.1074(8) -0.1674(6) 0.1451(5)
C64 C 0.0810(9) -0.2269(6) 0.1816(6)
H37 H 0.0722 -0.2345 0.2221
C65 C 0.0678(9) -0.2751(6) 0.1570(5)
C66 C 0.0845(8) -0.2608(6) 0.0945(5)
C67 C 0.1067(9) -0.2026(6) 0.0589(5)
H38 H 0.1142 -0.1953 0.0184
C68 C 0.1191(8) -0.1512(5) 0.0836(5)
C69 C 0.1423(7) -0.0904(6) 0.0511(5)
C70 C 0.1604(8) -0.0451(6) 0.0777(5)
C71 C 0.1903(7) 0.0201(6) 0.0457(5)
H39 H 0.1957 0.0343 0.0050
C72 C 0.2101(7) 0.0598(5) 0.0770(5)
C73 C 0.2001(8) 0.0407(6) 0.1400(5)
C74 C 0.1706(8) -0.0210(6) 0.1710(5)
H40 H 0.1636 -0.0346 0.2118
C75 C 0.1519(8) -0.0618(5) 0.1397(5)
C76 C 0.1496(8) -0.0717(5) -0.0135(5)
C77 C 0.0728(9) -0.0530(8) -0.0398(5)
H41 H 0.0151 -0.0529 -0.0165
C78 C 0.0766(11) -0.0346(8) -0.0978(6)
H42 H 0.0222 -0.0225 -0.1148
C79 C 0.1601(10) -0.0338(8) -0.1316(6)
H43 H 0.1650 -0.0251 -0.1722
C80 C 0.234(2) -0.0458(10) -0.1049(12)
H44 H 0.2921 -0.0437 -0.1278
C81 C 0.231(4) -0.061(2) -0.045(2)
H45 H 0.2853 -0.0642 -0.0282
P1 P 0.1879(2) 0.90735(13) 0.46320(14)
C82 C 0.1452(8) 0.9856(5) 0.4266(5)
H46 H 0.0784 0.9844 0.4288
H47 H 0.1733 0.9976 0.3862
H48 H 0.1608 1.0171 0.4451
C83 C 0.1571(7) 0.8501(5) 0.4297(5)
C84 C 0.1334(8) 0.8679(6) 0.3757(5)
H49 H 0.1311 0.9119 0.3554
C85 C 0.1122(9) 0.8213(6) 0.3494(6)
H50 H 0.0932 0.8343 0.3124
C86 C 0.1193(8) 0.7568(6) 0.3781(5)
H51 H 0.1065 0.7256 0.3603
C87 C 0.1457(8) 0.7373(6) 0.4339(5)
H52 H 0.1520 0.6931 0.4530
C88 C 0.1628(7) 0.7846(5) 0.4611(5)
H53 H 0.1776 0.7725 0.4991
C89 C 0.3084(7) 0.9098(5) 0.4591(5)
C90 C 0.3498(8) 0.9668(6) 0.4576(5)
H54 H 0.3136 1.0045 0.4564
C91 C 0.4434(9) 0.9678(6) 0.4581(5)
H55 H 0.4706 1.0060 0.4585
C92 C 0.4999(9) 0.9125(6) 0.4578(5)
H56 H 0.5643 0.9139 0.4571
C93 C 0.4588(8) 0.8567(6) 0.4587(5)
H57 H 0.4953 0.8191 0.4598
C94 C 0.3628(8) 0.8548(6) 0.4578(5)
H58 H 0.3357 0.8170 0.4563
C95 C 0.1399(8) 0.8826(5) 0.5379(5)
C96 C 0.0467(10) 0.8929(7) 0.5521(6)
H59 H 0.0097 0.9115 0.5229
C97 C 0.0094(11) 0.8763(7) 0.6075(7)
H60 H -0.0548 0.8825 0.6168
C98 C 0.0610(12) 0.8502(8) 0.6528(8)
H61 H 0.0328 0.8400 0.6917
C99 C 0.1571(12) 0.8394(8) 0.6384(8)
H62 H 0.1940 0.8206 0.6676
C100 C 0.1960(11) 0.8572(7) 0.5797(6)
H63 H 0.2600 0.8519 0.5691
P2 P 0.5859(3) 0.24602(19) 0.91332(17)
C101 C 0.6840(10) 0.2610(7) 0.8573(6)
H64 H 0.6653 0.2593 0.8212
H65 H 0.7316 0.2284 0.8681
H66 H 0.7082 0.3033 0.8524
C102 C 0.5000(7) 0.3056(5) 0.8915(5)
C103 C 0.4878(7) 0.3250(5) 0.8340(4)
H67 H 0.5249 0.3068 0.8072
C104 C 0.4215(8) 0.3710(5) 0.8156(4)
H68 H 0.4132 0.3843 0.7763
C105 C 0.3674(8) 0.3977(6) 0.8548(6)
H69 H 0.3221 0.4291 0.8422
C106 C 0.3795(9) 0.3783(7) 0.9123(6)
H70 H 0.3425 0.3965 0.9391
C107 C 0.4459(9) 0.3323(7) 0.9307(4)
H71 H 0.4542 0.3190 0.9701
C108 C 0.5401(10) 0.1694(7) 0.9225(6)
C109 C 0.5979(12) 0.1188(8) 0.9125(7)
H72 H 0.6620 0.1253 0.9017
C110 C 0.5609(13) 0.0580(9) 0.9184(8)
H73 H 0.5988 0.0253 0.9081
C111 C 0.4674(12) 0.0474(9) 0.9397(7)
H74 H 0.4430 0.0059 0.9481
C112 C 0.4106(14) 0.0981(9) 0.9484(8)
H75 H 0.3469 0.0908 0.9606
C113 C 0.4443(10) 0.1592(7) 0.9399(6)
H76 H 0.4042 0.1931 0.9456
C114 C 0.6208(9) 0.2493(6) 0.9785(6)
C115 C 0.5739(10) 0.2146(7) 1.0323(6)
H77 H 0.5241 0.1880 1.0341
C116 C 0.6018(10) 0.2198(7) 1.0834(7)
H78 H 0.5678 0.1991 1.1196
C117 C 0.6790(12) 0.2553(8) 1.0811(8)
H79 H 0.6982 0.2576 1.1157
C118 C 0.7281(10) 0.2874(7) 1.0279(6)
H80 H 0.7807 0.3116 1.0259
C119 C 0.6973(10) 0.2830(7) 0.9772(7)
H81 H 0.7308 0.3041 0.9410
P3 P 0.7603(5) 0.7667(4) 0.2479(3)
C120 C 0.8444(19) 0.7817(14) 0.2888(12)
H82 H 0.9009 0.7577 0.2817
H83 H 0.8202 0.7682 0.3299
H84 H 0.8575 0.8275 0.2771
C121 C 0.8236(12) 0.7719(7) 0.1680(5)
C122 C 0.8022(12) 0.7379(6) 0.1319(7)
H85 H 0.7732 0.6976 0.1476
C123 C 0.8230(12) 0.7627(7) 0.0726(7)
H86 H 0.8083 0.7395 0.0479
C124 C 0.8654(13) 0.8216(7) 0.0495(5)
H87 H 0.8796 0.8386 0.0090
C125 C 0.8869(12) 0.8556(6) 0.0857(7)
H88 H 0.9158 0.8958 0.0699
C126 C 0.8660(12) 0.8308(7) 0.1450(6)
H89 H 0.8807 0.8540 0.1697
C127 C 0.7374(11) 0.6829(6) 0.2719(7)
C128 C 0.8028(10) 0.6411(8) 0.2548(7)
C129 C 0.7909(10) 0.5755(7) 0.2766(8)
H90 H 0.8356 0.5469 0.2649
C130 C 0.7137(11) 0.5516(6) 0.3156(7)
H91 H 0.7056 0.5068 0.3306
C131 C 0.6484(10) 0.5934(7) 0.3328(7)
H92 H 0.5956 0.5771 0.3594
C132 C 0.6602(10) 0.6590(7) 0.3109(7)
H93 H 0.6156 0.6876 0.3226
C133 C 0.6602(14) 0.8081(11) 0.2594(11)
C134 C 0.629(2) 0.8140(16) 0.3141(10)
H94 H 0.6634 0.7951 0.3447
C135 C 0.548(2) 0.8475(19) 0.3240(11)
H95 H 0.5272 0.8515 0.3614
C136 C 0.4984(18) 0.8751(16) 0.2792(15)
H96 H 0.4430 0.8980 0.2860
C137 C 0.5293(17) 0.8692(13) 0.2245(12)
H97 H 0.4952 0.8881 0.1939
C138 C 0.6103(17) 0.8357(12) 0.2146(9)
H98 H 0.6314 0.8317 0.1772
N1 N 0.7659(13) 0.6077(9) -0.1168(8)
C139 C 0.7854(15) 0.6219(11) -0.0617(9)
H99 H 0.7991 0.6678 -0.0704
H100 H 0.7302 0.6126 -0.0323
C140 C 0.8667(17) 0.5816(12) -0.0379(12)
H101 H 0.9200 0.5860 -0.0686
H102 H 0.8500 0.5360 -0.0231
C141 C 0.891(2) 0.6064(15) 0.0119(10)
H103 H 0.9224 0.5724 0.0391
H104 H 0.8351 0.6204 0.0332
C142 C 0.957(2) 0.6642(16) -0.0183(16)
H105 H 0.9748 0.6821 0.0108
H106 H 0.9249 0.6972 -0.0452
H107 H 1.0117 0.6495 -0.0393
C143 C 0.7321(16) 0.5348(11) -0.0971(10)
H108 H 0.7030 0.5269 -0.1282
H109 H 0.7863 0.5059 -0.0917
C144 C 0.665(2) 0.5183(15) -0.0420(14)
H110 H 0.6101 0.5471 -0.0443
H111 H 0.6934 0.5181 -0.0081
C145 C 0.640(2) 0.4448(17) -0.0424(15)
H112 H 0.6028 0.4459 -0.0730
H113 H 0.6964 0.4189 -0.0475
C146 C 0.580(3) 0.4169(19) 0.0229(17)
H114 H 0.5613 0.3731 0.0282
H115 H 0.5257 0.4440 0.0268
H116 H 0.6185 0.4172 0.0521
C147 C 0.6793(16) 0.6498(12) -0.1313(10)
H117 H 0.6928 0.6953 -0.1372
H118 H 0.6284 0.6372 -0.0991
C148 C 0.651(2) 0.6404(16) -0.1881(14)
H119 H 0.6447 0.5946 -0.1853
H120 H 0.6944 0.6607 -0.2225
C149 C 0.548(2) 0.6787(18) -0.1880(16)
H121 H 0.5005 0.6524 -0.1592
H122 H 0.5516 0.7201 -0.1796
C150 C 0.526(3) 0.689(2) -0.2499(18)
H123 H 0.4670 0.7109 -0.2540
H124 H 0.5238 0.6471 -0.2573
H125 H 0.5745 0.7144 -0.2776
C151 C 0.8420(15) 0.6118(11) -0.1642(10)
H126 H 0.8215 0.5959 -0.1941
H127 H 0.8938 0.5844 -0.1495
C152 C 0.8745(18) 0.6813(13) -0.1909(12)
H128 H 0.8795 0.7011 -0.1599
H129 H 0.8290 0.7063 -0.2144
C153 C 0.9698(19) 0.6830(16) -0.2293(14)
O1 O 0.5560(8) 0.3297(6) 0.6398(5)
C1 C 0.5934(13) 0.3931(9) 0.6277(8)
H1 H 0.5473 0.4254 0.6134
H2 H 0.6481 0.3977 0.5987
H3 H 0.6102 0.3989 0.6631
loop_
_geom_bond_atom_site_label_1
_geom_bond_atom_site_label_2
_geom_bond_site_symmetry_1
_geom_bond_site_symmetry_2
O1 C1 1_555 1_555
C1 H1 1_555 1_555
H2 C1 1_555 1_555
H3 C1 1_555 1_555
O2 C2 1_555 1_555
O3 C3 1_555 1_555
C3 H4 1_555 1_555
H5 C3 1_555 1_555
H6 C3 1_555 1_555
O4 C4 1_555 1_555
C4 H7 1_555 1_555
H8 C4 1_555 1_555
H9 C4 1_555 1_555
O5 C5 1_555 1_555
W1 O13 1_555 1_555
W2 O17 1_555 1_555
W3 O24 1_555 1_555
W4 O31 1_555 1_555
O14 W1 1_555 1_555
O15 W1 1_555 1_555
O16 W1 1_555 1_555
O17 C15 1_555 1_555
O18 W2 1_555 1_555
O19 C6 1_555 1_555
O20 W2 1_555 1_555
O21 W2 1_555 1_555
O22 W2 1_555 1_555
O23 W2 1_555 1_555
O24 C34 1_555 1_555
O25 W3 1_555 1_555
O26 C25 1_555 1_555
O27 W3 1_555 1_555
O28 W3 1_555 1_555
O29 W3 1_555 1_555
O30 W3 1_555 1_555
O31 C53 1_555 1_555
O32 W4 1_555 1_555
O33 C44 1_555 1_555
O34 W4 1_555 1_555
O35 W4 1_555 1_555
O36 W4 1_555 1_555
O37 W4 1_555 1_555
O38 W1 1_555 1_555
O39 W1 1_555 1_555
O40 C63 1_555 1_555
C6 C7 1_555 1_555
C7 H10 1_555 1_555
C8 O16 1_555 1_555
C9 O15 1_555 1_555
C10 C9 1_555 1_555
H11 C10 1_555 1_555
C11 C6 1_555 1_555
C12 C11 1_555 1_555
C13 C12 1_555 1_555
C14 C13 1_555 1_555
H12 C14 1_555 1_555
C15 C14 1_555 1_555
C16 O18 1_555 1_555
C17 C16 1_555 1_555
H13 C17 1_555 1_555
C18 O19 1_555 1_555
C19 C12 1_555 1_555
C20 C19 1_555 1_555
H14 C20 1_555 1_555
C21 C20 1_555 1_555
H15 C21 1_555 1_555
C22 C21 1_555 1_555
H16 C22 1_555 1_555
C23 C22 1_555 1_555
H17 C23 1_555 1_555
C24 C19 1_555 1_555
H18 C24 1_555 1_555
C25 C26 1_555 1_555
C26 H19 1_555 1_555
C27 O23 1_555 1_555
C28 O22 1_555 1_555
C29 C28 1_555 1_555
H20 C29 1_555 1_555
C30 C25 1_555 1_555
C31 C30 1_555 1_555
C32 C31 1_555 1_555
C33 C32 1_555 1_555
H21 C33 1_555 1_555
C34 C33 1_555 1_555
C35 O25 1_555 1_555
C36 C35 1_555 1_555
H22 C36 1_555 1_555
C37 O26 1_555 1_555
C38 C31 1_555 1_555
C39 C38 1_555 1_555
H23 C39 1_555 1_555
C40 C39 1_555 1_555
H24 C40 1_555 1_555
C41 C40 1_555 1_555
H25 C41 1_555 1_555
C42 C41 1_555 1_555
H26 C42 1_555 1_555
C43 C38 1_555 1_555
H27 C43 1_555 1_555
C44 C45 1_555 1_555
C45 H28 1_555 1_555
C46 O30 1_555 1_555
C47 O29 1_555 1_555
C48 C47 1_555 1_555
H29 C48 1_555 1_555
C49 C44 1_555 1_555
C50 C49 1_555 1_555
C51 C50 1_555 1_555
C52 C51 1_555 1_555
H30 C52 1_555 1_555
C53 C52 1_555 1_555
C54 O32 1_555 1_555
C55 C54 1_555 1_555
H31 C55 1_555 1_555
C56 O33 1_555 1_555
C57 C50 1_555 1_555
C58 C57 1_555 1_555
H32 C58 1_555 1_555
C59 C58 1_555 1_555
H33 C59 1_555 1_555
C60 C59 1_555 1_555
H34 C60 1_555 1_555
C61 C60 1_555 1_555
H35 C61 1_555 1_555
C62 C57 1_555 1_555
H36 C62 1_555 1_555
C63 C64 1_555 1_555
C64 H37 1_555 1_555
C65 O37 1_555 1_555
C66 O36 1_555 1_555
C67 C66 1_555 1_555
H38 C67 1_555 1_555
C68 C63 1_555 1_555
C69 C68 1_555 1_555
C70 C69 1_555 1_555
C71 C70 1_555 1_555
H39 C71 1_555 1_555
C72 O38 1_555 1_555
C73 O39 1_555 1_555
C74 C73 1_555 1_555
H40 C74 1_555 1_555
C75 O40 1_555 1_555
C76 C69 1_555 1_555
C77 C76 1_555 1_555
H41 C77 1_555 1_555
C78 C77 1_555 1_555
H42 C78 1_555 1_555
C79 C78 1_555 1_555
H43 C79 1_555 1_555
C80 C79 1_555 1_555
H44 C80 1_555 1_555
C81 C76 1_555 1_555
H45 C81 1_555 1_555
P1 C82 1_555 1_555
C82 H46 1_555 1_555
H47 C82 1_555 1_555
H48 C82 1_555 1_555
C83 P1 1_555 1_555
C84 C83 1_555 1_555
H49 C84 1_555 1_555
C85 C84 1_555 1_555
H50 C85 1_555 1_555
C86 C85 1_555 1_555
H51 C86 1_555 1_555
C87 C86 1_555 1_555
H52 C87 1_555 1_555
C88 C83 1_555 1_555
H53 C88 1_555 1_555
C89 P1 1_555 1_555
C90 C89 1_555 1_555
H54 C90 1_555 1_555
C91 C90 1_555 1_555
H55 C91 1_555 1_555
C92 C91 1_555 1_555
H56 C92 1_555 1_555
C93 C92 1_555 1_555
H57 C93 1_555 1_555
C94 C89 1_555 1_555
H58 C94 1_555 1_555
C95 P1 1_555 1_555
C96 C95 1_555 1_555
H59 C96 1_555 1_555
C97 C96 1_555 1_555
H60 C97 1_555 1_555
C98 C97 1_555 1_555
H61 C98 1_555 1_555
C99 C98 1_555 1_555
H62 C99 1_555 1_555
C100 C95 1_555 1_555
H63 C100 1_555 1_555
P2 C101 1_555 1_555
C101 H64 1_555 1_555
H65 C101 1_555 1_555
H66 C101 1_555 1_555
C102 P2 1_555 1_555
C103 C102 1_555 1_555
H67 C103 1_555 1_555
C104 C103 1_555 1_555
H68 C104 1_555 1_555
C105 C104 1_555 1_555
H69 C105 1_555 1_555
C106 C105 1_555 1_555
H70 C106 1_555 1_555
C107 C102 1_555 1_555
H71 C107 1_555 1_555
C108 P2 1_555 1_555
C109 C108 1_555 1_555
H72 C109 1_555 1_555
C110 C109 1_555 1_555
H73 C110 1_555 1_555
C111 C110 1_555 1_555
H74 C111 1_555 1_555
C112 C111 1_555 1_555
H75 C112 1_555 1_555
C113 C108 1_555 1_555
H76 C113 1_555 1_555
C114 P2 1_555 1_555
C115 C114 1_555 1_555
H77 C115 1_555 1_555
C116 C115 1_555 1_555
H78 C116 1_555 1_555
C117 C116 1_555 1_555
H79 C117 1_555 1_555
C118 C117 1_555 1_555
H80 C118 1_555 1_555
C119 C114 1_555 1_555
H81 C119 1_555 1_555
P3 C120 1_555 1_555
C120 H82 1_555 1_555
H83 C120 1_555 1_555
H84 C120 1_555 1_555
C121 P3 1_555 1_555
C122 C121 1_555 1_555
H85 C122 1_555 1_555
C123 C122 1_555 1_555
H86 C123 1_555 1_555
C124 C123 1_555 1_555
H87 C124 1_555 1_555
C125 C124 1_555 1_555
H88 C125 1_555 1_555
C126 C121 1_555 1_555
H89 C126 1_555 1_555
C127 P3 1_555 1_555
C128 C127 1_555 1_555
C129 C128 1_555 1_555
H90 C129 1_555 1_555
C130 C129 1_555 1_555
H91 C130 1_555 1_555
C131 C130 1_555 1_555
H92 C131 1_555 1_555
C132 C127 1_555 1_555
H93 C132 1_555 1_555
C133 P3 1_555 1_555
C134 C133 1_555 1_555
H94 C134 1_555 1_555
C135 C134 1_555 1_555
H95 C135 1_555 1_555
C136 C135 1_555 1_555
H96 C136 1_555 1_555
C137 C136 1_555 1_555
H97 C137 1_555 1_555
C138 C133 1_555 1_555
H98 C138 1_555 1_555
N1 C139 1_555 1_555
C139 H99 1_555 1_555
H100 C139 1_555 1_555
C140 C139 1_555 1_555
H101 C140 1_555 1_555
H102 C140 1_555 1_555
C141 C140 1_555 1_555
H103 C141 1_555 1_555
H104 C141 1_555 1_555
C142 C141 1_555 1_555
H105 C142 1_555 1_555
H106 C142 1_555 1_555
H107 C142 1_555 1_555
C143 N1 1_555 1_555
H108 C143 1_555 1_555
H109 C143 1_555 1_555
C144 C143 1_555 1_555
H110 C144 1_555 1_555
H111 C144 1_555 1_555
C145 C144 1_555 1_555
H112 C145 1_555 1_555
H113 C145 1_555 1_555
C146 C145 1_555 1_555
H114 C146 1_555 1_555
H115 C146 1_555 1_555
H116 C146 1_555 1_555
C147 N1 1_555 1_555
H117 C147 1_555 1_555
H118 C147 1_555 1_555
C148 C147 1_555 1_555
H119 C148 1_555 1_555
H120 C148 1_555 1_555
C149 C148 1_555 1_555
H121 C149 1_555 1_555
H122 C149 1_555 1_555
C150 C149 1_555 1_555
H123 C150 1_555 1_555
H124 C150 1_555 1_555
H125 C150 1_555 1_555
C151 N1 1_555 1_555
H126 C151 1_555 1_555
H127 C151 1_555 1_555
C152 C151 1_555 1_555
H128 C152 1_555 1_555
H129 C152 1_555 1_555
C153 C152 1_555 1_555
C7 C8 1_555 1_555
C8 C9 1_555 1_555
C10 C11 1_555 1_555
C13 C18 1_555 1_555
C15 C16 1_555 1_555
C17 C18 1_555 1_555
C23 C24 1_555 1_555
C26 C27 1_555 1_555
C27 C28 1_555 1_555
C29 C30 1_555 1_555
C32 C37 1_555 1_555
C34 C35 1_555 1_555
C36 C37 1_555 1_555
C42 C43 1_555 1_555
C45 C46 1_555 1_555
C46 C47 1_555 1_555
C48 C49 1_555 1_555
C51 C56 1_555 1_555
C53 C54 1_555 1_555
C55 C56 1_555 1_555
C61 C62 1_555 1_555
C64 C65 1_555 1_555
C65 C66 1_555 1_555
C67 C68 1_555 1_555
C70 C75 1_555 1_555
C71 C72 1_555 1_555
C72 C73 1_555 1_555
C74 C75 1_555 1_555
C80 C81 1_555 1_555
C87 C88 1_555 1_555
C93 C94 1_555 1_555
C99 C100 1_555 1_555
C106 C107 1_555 1_555
C112 C113 1_555 1_555
C118 C119 1_555 1_555
C125 C126 1_555 1_555
C131 C132 1_555 1_555
C137 C138 1_555 1_555

#END
