
#######################################################################
#
#                 Cambridge Crystallographic Data Centre
#                                CCDC 
#
#######################################################################
#
# If this CIF has been generated from an entry in the Cambridge 
# Structural Database, then it will include bibliographic, chemical, 
# crystal, experimental, refinement or atomic coordinate data resulting 
# from the CCDC's data processing and validation procedures.
#
#######################################################################

data_TISSIZ
_chemical_formula_moiety         
'C76 H36 Mo4 O28 4-,2(C24 H20 P1 1+),2(C16 H36 N1 1+),5.5(C1 H4 O1),2(H2 O1)'
_chemical_name_systematic        
'bis(Tetraphenylphosphonium) bis(tetra-n-butylammonium) tetrakis(\m~2~-3-oxo-9-phenyl-3H-xanthene-2,6,7-triolato)-octaoxo-tetra-molybdenum methanol solvate dihydrate'
_symmetry_cell_setting           triclinic
_symmetry_space_group_name_H-M   'P -1'
_symmetry_Int_Tables_number      2
_space_group_name_Hall           '-P 1'
loop_
_symmetry_equiv_pos_site_id
_symmetry_equiv_pos_as_xyz
1 x,y,z
2 -x,-y,-z
_cell_length_a                   18.8383(12)
_cell_length_b                   20.1833(14)
_cell_length_c                   22.3973(15)
_cell_angle_alpha                87.3280(10)
_cell_angle_beta                 88.3100(10)
_cell_angle_gamma                66.9600(10)
_cell_volume                     7827.48
_exptl_crystal_colour            red
_exptl_crystal_description       block
_cell_formula_units_Z            2
loop_
_atom_site_label
_atom_site_type_symbol
_atom_site_fract_x
_atom_site_fract_y
_atom_site_fract_z
O1 O 0.9904(5) 0.5839(5) 0.3989(4)
O2 O 0.4056(6) 0.2254(6) 0.0466(5)
O3 O 0.5854(10) -0.0479(9) 0.0924(8)
O4 O 0.7333(4) 0.3109(3) 0.4711(3)
C1 C 0.7695(6) 0.2663(6) 0.5221(4)
O5 O 0.7600(3) 0.2274(4) 0.3741(3)
C2 C 0.7921(5) 0.2360(5) 0.3167(4)
O6 O 1.0032(7) 0.4441(7) 0.3805(6)
C3 C 1.0688(11) 0.4021(11) 0.4015(9)
O7 O 0.9271(7) 0.6137(7) 0.5089(5)
C4 C 0.8685(11) 0.5795(10) 0.5065(8)
O8 O 1.0658(6) 0.3174(6) 0.3125(5)
C5 C 1.1393(11) 0.2939(10) 0.3318(8)
O9 O 0.2831(7) 0.1821(7) 0.0246(5)
C6 C 0.2700(11) 0.1236(10) 0.0548(8)
O10 O 0.5163(9) 0.1154(9) 0.1524(7)
C7 C 0.5211(14) 0.0996(13) 0.0993(11)
C8 C 0.7200(9) 0.8380(9) 0.0931(7)
O11 O 0.7212(6) 0.7621(6) 0.1247(5)
Mo1 Mo 0.59731(4) 0.15458(3) 0.31737(3)
Mo2 Mo -0.02620(4) 0.71673(4) 0.22106(3)
Mo3 Mo -0.04902(4) 0.88838(4) 0.76862(3)
Mo4 Mo 0.50879(4) 0.27545(3) 0.87915(3)
O12 O 0.6885(3) 0.1403(3) 0.2920(2)
O13 O 0.5750(3) 0.0924(3) 0.2827(2)
O14 O 0.5510(3) 0.2418(3) 0.2636(2)
O15 O 0.4776(3) 0.2077(3) 0.3503(2)
O16 O 0.0760(3) 0.6580(3) 0.1846(2)
O17 O 0.0201(3) 0.6175(3) 0.2794(2)
O18 O 0.2453(3) 0.4056(3) 0.3049(2)
O19 O -0.0895(3) 0.6872(3) 0.1888(2)
O20 O -0.0328(3) 0.7907(3) 0.1774(2)
O21 O -0.1000(3) 0.7553(3) 0.2893(2)
O22 O 0.0405(3) 0.7458(3) 0.2871(2)
O23 O -0.1215(3) 0.8944(3) 0.7028(2)
O24 O 0.0212(3) 0.8739(3) 0.6878(2)
O25 O 0.0203(3) 0.8245(3) 0.4846(2)
O26 O -0.1130(3) 0.8841(3) 0.8225(2)
O27 O -0.0519(3) 0.9743(3) 0.7734(2)
O28 O 0.0531(3) 0.8441(3) 0.8095(2)
O29 O -0.0107(3) 0.7713(3) 0.7555(2)
O30 O 0.4688(3) 0.3780(3) 0.9021(2)
O31 O 0.3947(3) 0.3243(3) 0.8392(2)
O32 O 0.2018(3) 0.5520(3) 0.7917(2)
O33 O 0.4757(3) 0.2340(3) 0.9350(2)
O34 O 0.5996(3) 0.2601(3) 0.8999(2)
O35 O 0.5262(3) 0.1992(3) 0.8215(2)
O36 O 0.5305(3) 0.3234(3) 0.7923(2)
O37 O 0.6102(3) 0.1018(3) 0.3964(2)
O38 O 0.6070(3) 0.2306(3) 0.3816(2)
O39 O 0.5729(3) 0.2709(3) 0.5884(2)
C9 C 0.3212(4) 0.3646(4) 0.2918(3)
C10 C 0.3577(4) 0.3057(4) 0.3288(3)
H1 H 0.3305 0.2931 0.3607
C11 C 0.4357(4) 0.2647(4) 0.3186(3)
C12 C 0.4766(4) 0.2832(4) 0.2687(3)
C13 C 0.4378(4) 0.3418(4) 0.2323(3)
H2 H 0.4647 0.3541 0.1999
C14 C 0.3582(4) 0.3850(4) 0.2417(3)
C15 C 0.3167(4) 0.4465(4) 0.2061(3)
C16 C 0.2396(4) 0.4880(4) 0.2210(3)
C17 C 0.1925(4) 0.5532(4) 0.1891(3)
H3 H 0.2116 0.5674 0.1531
C18 C 0.1210(4) 0.5952(4) 0.2097(3)
C19 C 0.0884(4) 0.5730(4) 0.2635(3)
C20 C 0.1305(4) 0.5080(4) 0.2936(3)
H4 H 0.1095 0.4919 0.3276
C21 C 0.2049(4) 0.4673(4) 0.2721(3)
C22 C 0.3544(4) 0.4697(4) 0.1550(3)
C23 C 0.3789(4) 0.4290(4) 0.1041(3)
H5 H 0.3716 0.3853 0.1013
C24 C 0.4147(4) 0.4534(4) 0.0569(3)
H6 H 0.4313 0.4264 0.0218
C25 C 0.4256(5) 0.5167(5) 0.0619(4)
H7 H 0.4496 0.5329 0.0299
C26 C 0.4020(5) 0.5576(4) 0.1132(4)
H8 H 0.4103 0.6007 0.1164
C27 C 0.3661(5) 0.5333(4) 0.1592(4)
H9 H 0.3492 0.5605 0.1941
C28 C -0.0131(4) 0.8088(4) 0.4372(3)
C29 C 0.0341(4) 0.7849(4) 0.3865(3)
H10 H 0.0862 0.7807 0.3864
C30 C 0.0040(4) 0.7674(4) 0.3365(3)
C31 C -0.0755(4) 0.7726(4) 0.3394(3)
C32 C -0.1205(4) 0.7966(4) 0.3887(3)
H11 H -0.1727 0.8015 0.3888
C33 C -0.0902(4) 0.8145(4) 0.4402(3)
C34 C -0.1323(4) 0.8372(4) 0.4945(3)
C35 C -0.0967(4) 0.8506(4) 0.5428(3)
C36 C -0.1332(4) 0.8707(4) 0.6010(3)
H12 H -0.1860 0.8785 0.6067
C37 C -0.0924(4) 0.8782(4) 0.6468(3)
C38 C -0.0118(4) 0.8676(4) 0.6403(3)
C39 C 0.0240(4) 0.8518(4) 0.5840(3)
H13 H 0.0760 0.8466 0.5779
C40 C -0.0189(4) 0.8440(4) 0.5377(3)
C41 C -0.2131(5) 0.8406(5) 0.4985(3)
C42 C -0.2252(5) 0.7774(6) 0.5130(4)
H14 H -0.1825 0.7333 0.5207
C43 C -0.2991(6) 0.7795(7) 0.5158(4)
H15 H -0.3069 0.7364 0.5248
C44 C -0.3607(6) 0.8417(6) 0.5062(4)
H16 H -0.4112 0.8420 0.5102
C45 C -0.3517(5) 0.9037(6) 0.4909(5)
H17 H -0.3956 0.9467 0.4829
C46 C -0.2761(5) 0.9046(6) 0.4867(4)
H18 H -0.2692 0.9478 0.4762
C47 C 0.1673(4) 0.6245(4) 0.7974(3)
C48 C 0.0950(4) 0.6590(4) 0.7721(3)
H19 H 0.0718 0.6324 0.7518
C49 C 0.0573(4) 0.7328(4) 0.7771(3)
C50 C 0.0948(4) 0.7726(4) 0.8077(3)
C51 C 0.1654(4) 0.7376(4) 0.8325(3)
H20 H 0.1883 0.7641 0.8531
C52 C 0.2057(4) 0.6614(4) 0.8282(3)
C53 C 0.2781(4) 0.6210(4) 0.8530(3)
C54 C 0.3087(4) 0.5451(4) 0.8510(3)
C55 C 0.3795(4) 0.4991(4) 0.8787(3)
H21 H 0.4087 0.5197 0.8994
C56 C 0.4057(4) 0.4255(4) 0.8758(3)
C57 C 0.3633(4) 0.3931(4) 0.8414(3)
C58 C 0.2954(4) 0.4379(4) 0.8131(3)
H22 H 0.2677 0.4180 0.7899
C59 C 0.2689(4) 0.5109(4) 0.8193(3)
C60 C 0.3224(4) 0.6567(4) 0.8826(3)
C61 C 0.3545(4) 0.6977(4) 0.8484(3)
H23 H 0.3454 0.7050 0.8067
C62 C 0.3998(5) 0.7280(5) 0.8753(4)
H24 H 0.4226 0.7548 0.8515
C63 C 0.4120(5) 0.7195(5) 0.9362(4)
H25 H 0.4426 0.7407 0.9543
C64 C 0.3797(5) 0.6806(4) 0.9701(4)
H26 H 0.3874 0.6748 1.0121
C65 C 0.3350(5) 0.6491(4) 0.9429(4)
H27 H 0.3130 0.6218 0.9669
C66 C 0.5609(4) 0.2507(4) 0.6456(3)
C67 C 0.5482(4) 0.3011(4) 0.6881(3)
H28 H 0.5461 0.3479 0.6771
C68 C 0.5384(4) 0.2824(4) 0.7483(3)
C69 C 0.5370(4) 0.2121(4) 0.7622(3)
C70 C 0.5495(4) 0.1628(4) 0.7194(3)
H29 H 0.5494 0.1166 0.7299
C71 C 0.5627(4) 0.1804(4) 0.6587(3)
C72 C 0.5778(4) 0.1324(4) 0.6120(3)
C73 C 0.5873(4) 0.1545(4) 0.5525(3)
C74 C 0.5970(4) 0.1115(4) 0.5022(3)
H30 H 0.5989 0.0639 0.5075
C75 C 0.6036(4) 0.1384(4) 0.4465(3)
C76 C 0.6015(4) 0.2099(4) 0.4372(3)
C77 C 0.5929(4) 0.2538(4) 0.4866(3)
H31 H 0.5931 0.3007 0.4815
C78 C 0.5843(4) 0.2259(4) 0.5422(3)
C79 C 0.5831(4) 0.0579(4) 0.6251(3)
C80 C 0.5225(5) 0.0374(4) 0.6136(4)
H32 H 0.4762 0.0715 0.5968
C81 C 0.5297(6) -0.0327(5) 0.6269(4)
H33 H 0.4875 -0.0457 0.6195
C82 C 0.5958(6) -0.0837(4) 0.6503(4)
H34 H 0.5999 -0.1316 0.6588
C83 C 0.6569(5) -0.0638(5) 0.6612(4)
H35 H 0.7032 -0.0986 0.6776
C84 C 0.6514(5) 0.0058(4) 0.6486(4)
H36 H 0.6939 0.0183 0.6559
P1 P 0.30485(12) 0.48040(12) 0.60574(10)
C85 C 0.2173(4) 0.5527(4) 0.5838(3)
C86 C 0.1734(5) 0.6032(4) 0.6254(4)
H37 H 0.1918 0.6013 0.6647
C87 C 0.1027(5) 0.6562(5) 0.6084(4)
H38 H 0.0735 0.6911 0.6362
C88 C 0.0744(5) 0.6589(5) 0.5516(4)
H39 H 0.0251 0.6940 0.5410
C89 C 0.1181(5) 0.6105(5) 0.5108(4)
H40 H 0.0995 0.6139 0.4713
C90 C 0.1888(5) 0.5568(5) 0.5257(4)
H41 H 0.2177 0.5231 0.4970
C91 C 0.3619(5) 0.4452(5) 0.5401(4)
C92 C 0.3930(5) 0.4870(5) 0.5086(4)
H42 H 0.3870 0.5323 0.5232
C93 C 0.4345(6) 0.4635(5) 0.4537(4)
H43 H 0.4567 0.4921 0.4317
C94 C 0.4409(6) 0.3970(5) 0.4340(5)
H44 H 0.4684 0.3798 0.3980
C95 C 0.4085(6) 0.3560(6) 0.4652(5)
H45 H 0.4140 0.3108 0.4506
C96 C 0.3681(5) 0.3793(5) 0.5176(4)
H46 H 0.3446 0.3509 0.5384
C97 C 0.2814(5) 0.4106(5) 0.6427(4)
C98 C 0.2052(5) 0.4218(5) 0.6553(4)
H47 H 0.1649 0.4661 0.6437
C99 C 0.1877(6) 0.3669(6) 0.6855(4)
H48 H 0.1355 0.3737 0.6930
C100 C 0.2467(6) 0.3031(6) 0.7042(5)
H49 H 0.2345 0.2667 0.7250
C101 C 0.3240(6) 0.2916(6) 0.6929(5)
H50 H 0.3640 0.2482 0.7068
C102 C 0.3422(6) 0.3443(5) 0.6613(4)
H51 H 0.3944 0.3363 0.6521
C103 C 0.3581(4) 0.5130(4) 0.6540(3)
C104 C 0.3567(4) 0.5824(4) 0.6423(3)
H52 H 0.3252 0.6127 0.6115
C105 C 0.4023(5) 0.6067(5) 0.6767(4)
H53 H 0.4026 0.6532 0.6687
C106 C 0.4467(4) 0.5626(4) 0.7221(3)
H54 H 0.4764 0.5795 0.7460
C107 C 0.4482(4) 0.4948(4) 0.7330(3)
H55 H 0.4805 0.4641 0.7632
C108 C 0.4023(4) 0.4707(4) 0.6997(3)
H56 H 0.4017 0.4245 0.7087
P2 P 0.11380(14) 0.36035(15) 0.09336(10)
C109 C 0.0331(5) 0.4225(5) 0.1306(4)
C110 C 0.0385(6) 0.4386(5) 0.1906(4)
H57 H 0.0839 0.4123 0.2128
C111 C -0.0231(6) 0.4930(5) 0.2170(5)
H58 H -0.0215 0.5032 0.2578
C112 C -0.0876(6) 0.5328(6) 0.1824(5)
H59 H -0.1286 0.5724 0.1990
C113 C -0.0921(7) 0.5153(6) 0.1259(5)
H60 H -0.1376 0.5418 0.1041
C114 C -0.0331(6) 0.4602(6) 0.0984(5)
H61 H -0.0378 0.4486 0.0585
C115 C 0.1623(6) 0.4075(5) 0.0488(4)
C116 C 0.1362(6) 0.4791(6) 0.0538(5)
H62 H 0.0934 0.5035 0.0791
C117 C 0.1757(7) 0.5195(7) 0.0190(6)
H63 H 0.1589 0.5705 0.0185
C118 C 0.2386(7) 0.4758(7) -0.0123(5)
H64 H 0.2671 0.4995 -0.0333
C119 C 0.2657(7) 0.4046(6) -0.0174(5)
H65 H 0.3099 0.3801 -0.0414
C120 C 0.2264(6) 0.3674(6) 0.0142(4)
H66 H 0.2427 0.3166 0.0122
C121 C 0.1817(5) 0.3012(5) 0.1442(4)
C122 C 0.2537(5) 0.3033(5) 0.1513(4)
H67 H 0.2651 0.3398 0.1299
C123 C 0.3085(6) 0.2559(5) 0.1871(4)
H68 H 0.3614 0.2484 0.1825
C124 C 0.2999(9) 0.1955(8) 0.2123(7)
H69 H 0.3400 0.1596 0.2346
C125 C 0.2268(10) 0.1898(10) 0.2030(8)
H70 H 0.2163 0.1516 0.2222
C126 C 0.1723(10) 0.2397(9) 0.1661(7)
H71 H 0.1279 0.2317 0.1555
C127 C 0.0799(6) 0.3096(5) 0.0457(5)
C128 C 0.1010(9) 0.2939(9) -0.0147(7)
C129 C 0.0742(9) 0.2513(9) -0.0473(7)
H72 H 0.0920 0.2399 -0.0872
C130 C 0.0250(7) 0.2274(7) -0.0230(6)
H73 H 0.0015 0.2032 -0.0459
C131 C -0.0044(11) 0.2420(10) 0.0407(8)
H74 H -0.0361 0.2195 0.0587
C132 C 0.0168(10) 0.2901(10) 0.0722(8)
H75 H -0.0080 0.3092 0.1088
N1 N 0.2164(3) 0.8047(3) 0.2291(3)
C133 C 0.1586(4) 0.8542(4) 0.2731(3)
H76 H 0.1231 0.8312 0.2874
H77 H 0.1274 0.8999 0.2515
C134 C 0.1946(5) 0.8718(5) 0.3275(4)
H78 H 0.2317 0.8933 0.3142
H79 H 0.2227 0.8271 0.3515
C135 C 0.1297(5) 0.9256(5) 0.3661(4)
H80 H 0.1036 0.9711 0.3425
H81 H 0.0908 0.9051 0.3768
C136 C 0.1619(6) 0.9414(6) 0.4231(5)
H82 H 0.1197 0.9755 0.4465
H83 H 0.1997 0.9624 0.4125
H84 H 0.1869 0.8966 0.4468
C137 C 0.2717(4) 0.7360(4) 0.2599(4)
H85 H 0.3025 0.7488 0.2888
H86 H 0.3078 0.7060 0.2295
C138 C 0.2329(5) 0.6910(4) 0.2928(4)
H87 H 0.2070 0.6724 0.2640
H88 H 0.1934 0.7211 0.3213
C139 C 0.2947(5) 0.6282(5) 0.3266(4)
H89 H 0.3216 0.6473 0.3542
H90 H 0.3333 0.5979 0.2978
C140 C 0.2579(5) 0.5813(5) 0.3629(4)
H91 H 0.2984 0.5415 0.3841
H92 H 0.2320 0.5619 0.3355
H93 H 0.2203 0.6111 0.3918
C141 C 0.2681(4) 0.8406(4) 0.2009(4)
H94 H 0.3096 0.8047 0.1774
H95 H 0.2928 0.8554 0.2333
C142 C 0.2250(5) 0.9076(5) 0.1595(4)
H96 H 0.1784 0.9409 0.1802
H97 H 0.2086 0.8925 0.1227
C143 C 0.2823(6) 0.9470(6) 0.1429(4)
H98 H 0.3316 0.9112 0.1277
H99 H 0.2595 0.9837 0.1105
C144 C 0.2986(6) 0.9832(6) 0.1958(5)
H100 H 0.3339 1.0064 0.1832
H101 H 0.3223 0.9470 0.2277
H102 H 0.2501 1.0195 0.2105
C145 C 0.1682(5) 0.7878(5) 0.1817(4)
H103 H 0.1330 0.7680 0.2020
H104 H 0.1363 0.8330 0.1598
C146 C 0.2199(6) 0.7332(5) 0.1366(4)
H105 H 0.2431 0.6843 0.1558
H106 H 0.2619 0.7475 0.1213
C147 C 0.1658(8) 0.7346(8) 0.0853(6)
H107 H 0.1119 0.7503 0.1002
H108 H 0.1814 0.6858 0.0695
C148 C 0.1720(10) 0.7881(9) 0.0354(7)
H109 H 0.1383 0.7901 0.0023
H110 H 0.2255 0.7719 0.0208
H111 H 0.1563 0.8362 0.0515
N2 N 0.1617(4) 0.0064(4) 0.8086(4)
C149 C 0.1896(6) 0.0670(6) 0.7939(5)
H112 H 0.2045 0.0822 0.8313
H113 H 0.1467 0.1089 0.7760
C150 C 0.2590(6) 0.0436(6) 0.7501(5)
H114 H 0.2449 0.0295 0.7118
H115 H 0.3029 0.0022 0.7674
C151 C 0.2808(7) 0.1095(7) 0.7399(6)
H116 H 0.2989 0.1206 0.7777
H117 H 0.2348 0.1520 0.7269
C152 C 0.3456(7) 0.0934(7) 0.6912(6)
H118 H 0.3592 0.1354 0.6849
H119 H 0.3272 0.0830 0.6537
H120 H 0.3911 0.0516 0.7045
C153 C 0.0857(6) 0.0413(5) 0.8454(4)
H121 H 0.0929 0.0731 0.8749
H122 H 0.0440 0.0716 0.8182
C154 C 0.0611(5) -0.0146(5) 0.8784(4)
H123 H 0.0961 -0.0384 0.9120
H124 H 0.0618 -0.0519 0.8509
C155 C -0.0242(5) 0.0291(5) 0.9024(4)
H125 H -0.0242 0.0668 0.9292
H126 H -0.0584 0.0531 0.8684
C156 C -0.0552(6) -0.0232(6) 0.9372(5)
H127 H -0.1077 0.0041 0.9519
H128 H -0.0216 -0.0464 0.9711
H129 H -0.0557 -0.0600 0.9104
C157 C 0.2216(6) -0.0570(5) 0.8419(4)
H130 H 0.2675 -0.0796 0.8159
H131 H 0.2001 -0.0936 0.8530
C158 C 0.2451(7) -0.0312(6) 0.8982(5)
H132 H 0.1992 -0.0027 0.9223
H133 H 0.2752 -0.0015 0.8881
C159 C 0.2949(9) -0.1020(9) 0.9320(7)
H134 H 0.3257 -0.1376 0.9027
C160 C 0.3268(10) -0.0877(10) 0.9918(8)
H135 H 0.3580 -0.1337 1.0118
H136 H 0.2836 -0.0603 1.0179
H137 H 0.3588 -0.0600 0.9829
C161 C 0.1434(5) -0.0236(5) 0.7495(4)
H138 H 0.1930 -0.0506 0.7290
H139 H 0.1200 -0.0586 0.7613
C162 C 0.0899(6) 0.0315(6) 0.7041(5)
H140 H 0.0364 0.0505 0.7201
H141 H 0.1061 0.0724 0.6980
C163 C 0.0919(7) -0.0020(6) 0.6450(5)
H142 H 0.0493 0.0315 0.6200
H143 H 0.0829 -0.0469 0.6522
C164 C 0.1675(7) -0.0195(7) 0.6110(5)
H144 H 0.1653 -0.0410 0.5732
H145 H 0.2099 -0.0535 0.6350
H146 H 0.1763 0.0249 0.6028
loop_
_geom_bond_atom_site_label_1
_geom_bond_atom_site_label_2
_geom_bond_site_symmetry_1
_geom_bond_site_symmetry_2
O4 C1 1_555 1_555
O5 C2 1_555 1_555
O6 C3 1_555 1_555
O7 C4 1_555 1_555
O8 C5 1_555 1_555
O9 C6 1_555 1_555
O10 C7 1_555 1_555
C8 O11 1_555 1_555
Mo1 O12 1_555 1_555
Mo2 O16 1_555 1_555
Mo3 O23 1_555 1_555
Mo4 O30 1_555 1_555
O13 Mo1 1_555 1_555
O14 Mo1 1_555 1_555
O15 Mo1 1_555 1_555
O16 C18 1_555 1_555
O17 Mo2 1_555 1_555
O18 C9 1_555 1_555
O19 Mo2 1_555 1_555
O20 Mo2 1_555 1_555
O21 Mo2 1_555 1_555
O22 Mo2 1_555 1_555
O23 C37 1_555 1_555
O24 Mo3 1_555 1_555
O25 C28 1_555 1_555
O26 Mo3 1_555 1_555
O27 Mo3 1_555 1_555
O28 Mo3 1_555 1_555
O29 Mo3 1_555 1_555
O30 C56 1_555 1_555
O31 Mo4 1_555 1_555
O32 C47 1_555 1_555
O33 Mo4 1_555 1_555
O34 Mo4 1_555 1_555
O35 Mo4 1_555 1_555
O36 Mo4 1_555 1_555
O37 Mo1 1_555 1_555
O38 Mo1 1_555 1_555
O39 C66 1_555 1_555
C9 C10 1_555 1_555
C10 H1 1_555 1_555
C11 O15 1_555 1_555
C12 O14 1_555 1_555
C13 C12 1_555 1_555
H2 C13 1_555 1_555
C14 C9 1_555 1_555
C15 C14 1_555 1_555
C16 C15 1_555 1_555
C17 C16 1_555 1_555
H3 C17 1_555 1_555
C18 C17 1_555 1_555
C19 O17 1_555 1_555
C20 C19 1_555 1_555
H4 C20 1_555 1_555
C21 O18 1_555 1_555
C22 C15 1_555 1_555
C23 C22 1_555 1_555
H5 C23 1_555 1_555
C24 C23 1_555 1_555
H6 C24 1_555 1_555
C25 C24 1_555 1_555
H7 C25 1_555 1_555
C26 C25 1_555 1_555
H8 C26 1_555 1_555
C27 C22 1_555 1_555
H9 C27 1_555 1_555
C28 C29 1_555 1_555
C29 H10 1_555 1_555
C30 O22 1_555 1_555
C31 O21 1_555 1_555
C32 C31 1_555 1_555
H11 C32 1_555 1_555
C33 C28 1_555 1_555
C34 C33 1_555 1_555
C35 C34 1_555 1_555
C36 C35 1_555 1_555
H12 C36 1_555 1_555
C37 C36 1_555 1_555
C38 O24 1_555 1_555
C39 C38 1_555 1_555
H13 C39 1_555 1_555
C40 O25 1_555 1_555
C41 C34 1_555 1_555
C42 C41 1_555 1_555
H14 C42 1_555 1_555
C43 C42 1_555 1_555
H15 C43 1_555 1_555
C44 C43 1_555 1_555
H16 C44 1_555 1_555
C45 C44 1_555 1_555
H17 C45 1_555 1_555
C46 C41 1_555 1_555
H18 C46 1_555 1_555
C47 C48 1_555 1_555
C48 H19 1_555 1_555
C49 O29 1_555 1_555
C50 O28 1_555 1_555
C51 C50 1_555 1_555
H20 C51 1_555 1_555
C52 C47 1_555 1_555
C53 C52 1_555 1_555
C54 C53 1_555 1_555
C55 C54 1_555 1_555
H21 C55 1_555 1_555
C56 C55 1_555 1_555
C57 O31 1_555 1_555
C58 C57 1_555 1_555
H22 C58 1_555 1_555
C59 O32 1_555 1_555
C60 C53 1_555 1_555
C61 C60 1_555 1_555
H23 C61 1_555 1_555
C62 C61 1_555 1_555
H24 C62 1_555 1_555
C63 C62 1_555 1_555
H25 C63 1_555 1_555
C64 C63 1_555 1_555
H26 C64 1_555 1_555
C65 C60 1_555 1_555
H27 C65 1_555 1_555
C66 C67 1_555 1_555
C67 H28 1_555 1_555
C68 O36 1_555 1_555
C69 O35 1_555 1_555
C70 C69 1_555 1_555
H29 C70 1_555 1_555
C71 C66 1_555 1_555
C72 C71 1_555 1_555
C73 C72 1_555 1_555
C74 C73 1_555 1_555
H30 C74 1_555 1_555
C75 O37 1_555 1_555
C76 O38 1_555 1_555
C77 C76 1_555 1_555
H31 C77 1_555 1_555
C78 O39 1_555 1_555
C79 C72 1_555 1_555
C80 C79 1_555 1_555
H32 C80 1_555 1_555
C81 C80 1_555 1_555
H33 C81 1_555 1_555
C82 C81 1_555 1_555
H34 C82 1_555 1_555
C83 C82 1_555 1_555
H35 C83 1_555 1_555
C84 C79 1_555 1_555
H36 C84 1_555 1_555
P1 C85 1_555 1_555
C85 C86 1_555 1_555
C86 H37 1_555 1_555
C87 C86 1_555 1_555
H38 C87 1_555 1_555
C88 C87 1_555 1_555
H39 C88 1_555 1_555
C89 C88 1_555 1_555
H40 C89 1_555 1_555
C90 C85 1_555 1_555
H41 C90 1_555 1_555
C91 P1 1_555 1_555
C92 C91 1_555 1_555
H42 C92 1_555 1_555
C93 C92 1_555 1_555
H43 C93 1_555 1_555
C94 C93 1_555 1_555
H44 C94 1_555 1_555
C95 C94 1_555 1_555
H45 C95 1_555 1_555
C96 C91 1_555 1_555
H46 C96 1_555 1_555
C97 P1 1_555 1_555
C98 C97 1_555 1_555
H47 C98 1_555 1_555
C99 C98 1_555 1_555
H48 C99 1_555 1_555
C100 C99 1_555 1_555
H49 C100 1_555 1_555
C101 C100 1_555 1_555
H50 C101 1_555 1_555
C102 C97 1_555 1_555
H51 C102 1_555 1_555
C103 P1 1_555 1_555
C104 C103 1_555 1_555
H52 C104 1_555 1_555
C105 C104 1_555 1_555
H53 C105 1_555 1_555
C106 C105 1_555 1_555
H54 C106 1_555 1_555
C107 C106 1_555 1_555
H55 C107 1_555 1_555
C108 C103 1_555 1_555
H56 C108 1_555 1_555
P2 C109 1_555 1_555
C109 C110 1_555 1_555
C110 H57 1_555 1_555
C111 C110 1_555 1_555
H58 C111 1_555 1_555
C112 C111 1_555 1_555
H59 C112 1_555 1_555
C113 C112 1_555 1_555
H60 C113 1_555 1_555
C114 C109 1_555 1_555
H61 C114 1_555 1_555
C115 P2 1_555 1_555
C116 C115 1_555 1_555
H62 C116 1_555 1_555
C117 C116 1_555 1_555
H63 C117 1_555 1_555
C118 C117 1_555 1_555
H64 C118 1_555 1_555
C119 C118 1_555 1_555
H65 C119 1_555 1_555
C120 C115 1_555 1_555
H66 C120 1_555 1_555
C121 P2 1_555 1_555
C122 C121 1_555 1_555
H67 C122 1_555 1_555
C123 C122 1_555 1_555
H68 C123 1_555 1_555
C124 C123 1_555 1_555
H69 C124 1_555 1_555
C125 C124 1_555 1_555
H70 C125 1_555 1_555
C126 C121 1_555 1_555
H71 C126 1_555 1_555
C127 P2 1_555 1_555
C128 C127 1_555 1_555
C129 C128 1_555 1_555
H72 C129 1_555 1_555
C130 C129 1_555 1_555
H73 C130 1_555 1_555
C131 C130 1_555 1_555
H74 C131 1_555 1_555
C132 C127 1_555 1_555
H75 C132 1_555 1_555
N1 C133 1_555 1_555
C133 H76 1_555 1_555
H77 C133 1_555 1_555
C134 C133 1_555 1_555
H78 C134 1_555 1_555
H79 C134 1_555 1_555
C135 C134 1_555 1_555
H80 C135 1_555 1_555
H81 C135 1_555 1_555
C136 C135 1_555 1_555
H82 C136 1_555 1_555
H83 C136 1_555 1_555
H84 C136 1_555 1_555
C137 N1 1_555 1_555
H85 C137 1_555 1_555
H86 C137 1_555 1_555
C138 C137 1_555 1_555
H87 C138 1_555 1_555
H88 C138 1_555 1_555
C139 C138 1_555 1_555
H89 C139 1_555 1_555
H90 C139 1_555 1_555
C140 C139 1_555 1_555
H91 C140 1_555 1_555
H92 C140 1_555 1_555
H93 C140 1_555 1_555
C141 N1 1_555 1_555
H94 C141 1_555 1_555
H95 C141 1_555 1_555
C142 C141 1_555 1_555
H96 C142 1_555 1_555
H97 C142 1_555 1_555
C143 C142 1_555 1_555
H98 C143 1_555 1_555
H99 C143 1_555 1_555
C144 C143 1_555 1_555
H100 C144 1_555 1_555
H101 C144 1_555 1_555
H102 C144 1_555 1_555
C145 N1 1_555 1_555
H103 C145 1_555 1_555
H104 C145 1_555 1_555
C146 C145 1_555 1_555
H105 C146 1_555 1_555
H106 C146 1_555 1_555
C147 C146 1_555 1_555
H107 C147 1_555 1_555
H108 C147 1_555 1_555
C148 C147 1_555 1_555
H109 C148 1_555 1_555
H110 C148 1_555 1_555
H111 C148 1_555 1_555
N2 C149 1_555 1_555
C149 H112 1_555 1_555
H113 C149 1_555 1_555
C150 C149 1_555 1_555
H114 C150 1_555 1_555
H115 C150 1_555 1_555
C151 C150 1_555 1_555
H116 C151 1_555 1_555
H117 C151 1_555 1_555
C152 C151 1_555 1_555
H118 C152 1_555 1_555
H119 C152 1_555 1_555
H120 C152 1_555 1_555
C153 N2 1_555 1_555
H121 C153 1_555 1_555
H122 C153 1_555 1_555
C154 C153 1_555 1_555
H123 C154 1_555 1_555
H124 C154 1_555 1_555
C155 C154 1_555 1_555
H125 C155 1_555 1_555
H126 C155 1_555 1_555
C156 C155 1_555 1_555
H127 C156 1_555 1_555
H128 C156 1_555 1_555
H129 C156 1_555 1_555
C157 N2 1_555 1_555
H130 C157 1_555 1_555
H131 C157 1_555 1_555
C158 C157 1_555 1_555
H132 C158 1_555 1_555
H133 C158 1_555 1_555
C159 C158 1_555 1_555
H134 C159 1_555 1_555
C160 C159 1_555 1_555
H135 C160 1_555 1_555
H136 C160 1_555 1_555
H137 C160 1_555 1_555
C161 N2 1_555 1_555
H138 C161 1_555 1_555
H139 C161 1_555 1_555
C162 C161 1_555 1_555
H140 C162 1_555 1_555
H141 C162 1_555 1_555
C163 C162 1_555 1_555
H142 C163 1_555 1_555
H143 C163 1_555 1_555
C164 C163 1_555 1_555
H144 C164 1_555 1_555
H145 C164 1_555 1_555
H146 C164 1_555 1_555
C10 C11 1_555 1_555
C11 C12 1_555 1_555
C13 C14 1_555 1_555
C16 C21 1_555 1_555
C18 C19 1_555 1_555
C20 C21 1_555 1_555
C26 C27 1_555 1_555
C29 C30 1_555 1_555
C30 C31 1_555 1_555
C32 C33 1_555 1_555
C35 C40 1_555 1_555
C37 C38 1_555 1_555
C39 C40 1_555 1_555
C45 C46 1_555 1_555
C48 C49 1_555 1_555
C49 C50 1_555 1_555
C51 C52 1_555 1_555
C54 C59 1_555 1_555
C56 C57 1_555 1_555
C58 C59 1_555 1_555
C64 C65 1_555 1_555
C67 C68 1_555 1_555
C68 C69 1_555 1_555
C70 C71 1_555 1_555
C73 C78 1_555 1_555
C74 C75 1_555 1_555
C75 C76 1_555 1_555
C77 C78 1_555 1_555
C83 C84 1_555 1_555
C89 C90 1_555 1_555
C95 C96 1_555 1_555
C101 C102 1_555 1_555
C107 C108 1_555 1_555
C113 C114 1_555 1_555
C119 C120 1_555 1_555
C125 C126 1_555 1_555
C131 C132 1_555 1_555

#END
