
#######################################################################
#
#                 Cambridge Crystallographic Data Centre
#                                CCDC 
#
#######################################################################
#
# If this CIF has been generated from an entry in the Cambridge 
# Structural Database, then it will include bibliographic, chemical, 
# crystal, experimental, refinement or atomic coordinate data resulting 
# from the CCDC's data processing and validation procedures.
#
#######################################################################

data_TISSOF
_chemical_formula_moiety         
'C76 H36 Mo4 O28 4-,3(C24 H20 As1 1+),C16 H36 N1 1+,6(C1 H4 O1)'
_chemical_name_systematic        
'tris(Tetraphenylarsonium) tetra-n-butylammonium tetrakis(\m~2~-3-oxo-9-phenyl-3H-xanthene-2,6,7-triolato)-octaoxo-tetra-molybdenum methanol solvate'
_symmetry_cell_setting           triclinic
_symmetry_space_group_name_H-M   'P -1'
_symmetry_Int_Tables_number      2
_space_group_name_Hall           '-P 1'
loop_
_symmetry_equiv_pos_site_id
_symmetry_equiv_pos_as_xyz
1 x,y,z
2 -x,-y,-z
_cell_length_a                   18.8066(4)
_cell_length_b                   21.1275(4)
_cell_length_c                   21.7979(5)
_cell_angle_alpha                90.180(2)
_cell_angle_beta                 109.883(2)
_cell_angle_gamma                92.257(2)
_cell_volume                     8137.23
_exptl_crystal_colour            red
_exptl_crystal_description       block
_cell_formula_units_Z            2
loop_
_atom_site_label
_atom_site_type_symbol
_atom_site_fract_x
_atom_site_fract_y
_atom_site_fract_z
C1 C 0.6363(7) 0.1343(6) 0.5189(7)
O1 O 0.6758(4) 0.0762(3) 0.5303(3)
C2 C 0.5239(6) 0.2227(5) 0.8084(6)
O2 O 0.4581(5) 0.2391(4) 0.8223(4)
C3 C 0.4539(7) 0.2457(6) -0.0060(6)
O3 O 0.4709(6) 0.1982(5) 0.0430(5)
C4 C 0.3998(13) 0.2678(11) 0.1201(12)
O4 O 0.4039(8) 0.2650(7) 0.1807(8)
C5 C 0.0633(12) 0.2674(10) 0.6306(10)
O5 O 0.1151(8) 0.2671(6) 0.6975(7)
C6 C 1.0227(19) 0.1723(16) 0.8807(16)
O6 O 0.9852(9) 0.1045(8) 0.8887(8)
C8 C 0.1145(15) 0.4606(12) 0.5181(13)
O8 O 0.0336(13) 0.4546(10) 0.5035(11)
C9 C 0.476(2) 0.765(2) 0.6460(19)
O9 O 0.4440(17) 0.8098(14) 0.6526(14)
Mo1 Mo 0.32195(4) -0.24688(3) -0.21372(3)
Mo2 Mo 0.31174(4) 0.34315(3) -0.35925(3)
Mo3 Mo 0.22952(4) 0.44096(3) 0.18977(3)
Mo4 Mo 0.16356(5) -0.15237(3) 0.30484(3)
C10 C 0.2983(4) -0.0017(3) -0.2547(4)
C11 C 0.2637(5) -0.0490(3) -0.2315(4)
H1 H 0.2218 -0.0411 -0.2180
C12 C 0.2921(4) -0.1103(3) -0.2280(4)
C13 C 0.3563(5) -0.1201(3) -0.2483(4)
C14 C 0.3885(4) -0.0716(3) -0.2736(4)
H2 H 0.4300 -0.0791 -0.2877
C15 C 0.3585(4) -0.0098(3) -0.2784(3)
C16 C 0.3882(4) 0.0424(3) -0.3046(3)
C17 C 0.3574(4) 0.1019(3) -0.3051(3)
C18 C 0.3809(4) 0.1561(3) -0.3320(4)
H3 H 0.4219 0.1538 -0.3479
C19 C 0.3456(4) 0.2117(3) -0.3353(3)
C20 C 0.2831(4) 0.2159(3) -0.3129(3)
C21 C 0.2598(4) 0.1638(3) -0.2840(4)
H4 H 0.2199 0.1667 -0.2668
C22 C 0.2966(4) 0.1077(3) -0.2813(3)
C23 C 0.4476(4) 0.0332(3) -0.3327(4)
C24 C 0.5205(5) 0.0632(4) -0.3044(4)
H5 H 0.5324 0.0872 -0.2650
C25 C 0.5745(5) 0.0574(4) -0.3343(5)
H6 H 0.6231 0.0778 -0.3154
C26 C 0.5583(5) 0.0225(4) -0.3907(4)
H7 H 0.5959 0.0178 -0.4103
C27 C 0.4868(5) -0.0061(4) -0.4192(4)
H8 H 0.4753 -0.0293 -0.4591
C28 C 0.4319(5) -0.0013(4) -0.3902(4)
H9 H 0.3834 -0.0217 -0.4100
C29 C 0.3245(4) 0.3932(3) -0.1195(4)
C30 C 0.3668(5) 0.3622(4) -0.1499(4)
H10 H 0.4094 0.3391 -0.1257
C31 C 0.3438(4) 0.3661(3) -0.2194(4)
C32 C 0.2782(4) 0.4014(3) -0.2533(4)
C33 C 0.2403(4) 0.4335(3) -0.2202(4)
H11 H 0.1985 0.4577 -0.2435
C34 C 0.2635(4) 0.4306(3) -0.1510(4)
C35 C 0.2254(4) 0.4605(3) -0.1131(4)
C36 C 0.2473(4) 0.4502(3) -0.0464(4)
C37 C 0.2097(4) 0.4747(3) -0.0048(4)
H12 H 0.1688 0.5019 -0.0222
C38 C 0.2320(4) 0.4595(3) 0.0593(4)
C39 C 0.2974(4) 0.4208(3) 0.0884(4)
C40 C 0.3348(4) 0.3964(3) 0.0483(4)
H13 H 0.3770 0.3706 0.0659
C41 C 0.3092(5) 0.4107(4) -0.0169(4)
C42 C 0.1631(4) 0.5026(3) -0.1464(4)
C43 C 0.1767(5) 0.5586(4) -0.1747(4)
H14 H 0.2268 0.5707 -0.1722
C44 C 0.1176(6) 0.5968(4) -0.2065(5)
H15 H 0.1273 0.6348 -0.2260
C45 C 0.0453(6) 0.5801(4) -0.2098(5)
H16 H 0.0052 0.6065 -0.2320
C46 C 0.0298(6) 0.5251(5) -0.1812(5)
H17 H -0.0204 0.5139 -0.1832
C47 C 0.0898(5) 0.4866(4) -0.1494(4)
H18 H 0.0801 0.4488 -0.1295
C48 C 0.1955(5) 0.1916(4) 0.2068(4)
C49 C 0.1756(5) 0.2380(4) 0.1587(4)
H19 H 0.1454 0.2270 0.1150
C50 C 0.2012(5) 0.3015(4) 0.1765(4)
C51 C 0.2503(5) 0.3150(4) 0.2430(4)
C52 C 0.2726(5) 0.2686(4) 0.2882(4)
H20 H 0.3078 0.2787 0.3304
C53 C 0.2432(5) 0.2045(4) 0.2721(4)
C54 C 0.2567(5) 0.1555(4) 0.3161(4)
C55 C 0.2243(5) 0.0947(4) 0.2967(4)
C56 C 0.2316(5) 0.0403(4) 0.3383(4)
H21 H 0.2609 0.0447 0.3833
C57 C 0.1979(5) -0.0164(4) 0.3148(4)
C58 C 0.1524(5) -0.0243(4) 0.2463(4)
C59 C 0.1425(5) 0.0265(4) 0.2048(4)
H22 H 0.1122 0.0218 0.1601
C60 C 0.1778(5) 0.0845(4) 0.2298(4)
C61 C 0.3067(5) 0.1682(3) 0.3845(4)
C62 C 0.2880(5) 0.2133(4) 0.4232(4)
H23 H 0.2413 0.2336 0.4064
C63 C 0.3365(6) 0.2284(4) 0.4850(4)
H24 H 0.3241 0.2600 0.5103
C64 C 0.4034(6) 0.1974(5) 0.5101(4)
H25 H 0.4369 0.2080 0.5529
C65 C 0.4222(6) 0.1513(5) 0.4739(5)
H26 H 0.4680 0.1299 0.4917
C66 C 0.3739(5) 0.1367(4) 0.4119(4)
H27 H 0.3864 0.1047 0.3871
C67 C 0.2723(5) -0.1900(4) 0.1142(4)
C68 C 0.2919(5) -0.1567(4) 0.1724(4)
H28 H 0.3352 -0.1285 0.1857
C69 C 0.2468(5) -0.1649(4) 0.2119(4)
C70 C 0.1812(5) -0.2085(3) 0.1896(4)
C71 C 0.1632(5) -0.2415(3) 0.1326(4)
H29 H 0.1201 -0.2700 0.1194
C72 C 0.2087(4) -0.2337(3) 0.0925(4)
C73 C 0.1913(4) -0.2638(3) 0.0318(4)
C74 C 0.2377(4) -0.2518(3) -0.0062(4)
C75 C 0.2251(4) -0.2795(3) -0.0692(4)
H30 H 0.1840 -0.3094 -0.0873
C76 C 0.2711(5) -0.2636(3) -0.1031(4)
C77 C 0.3367(5) -0.2211(3) -0.0758(4)
C78 C 0.3505(5) -0.1937(4) -0.0141(4)
H31 H 0.3930 -0.1655 0.0051
C79 C 0.3007(4) -0.2088(3) 0.0179(4)
C80 C 0.1231(4) -0.3087(3) 0.0064(4)
C81 C 0.0591(6) -0.2901(5) -0.0372(7)
H32 H 0.0575 -0.2485 -0.0538
C82 C -0.0054(7) -0.3298(6) -0.0591(9)
H33 H -0.0513 -0.3141 -0.0878
C83 C -0.0031(6) -0.3911(5) -0.0396(5)
H34 H -0.0466 -0.4190 -0.0555
C84 C 0.0629(6) -0.4113(4) 0.0030(5)
H35 H 0.0658 -0.4538 0.0175
C85 C 0.1265(5) -0.3701(4) 0.0255(5)
H36 H 0.1726 -0.3850 0.0545
O10 O 0.3816(3) -0.1784(2) -0.2409(3)
O11 O 0.2640(3) -0.1599(2) -0.2098(3)
O12 O 0.3651(3) 0.2644(2) -0.3615(2)
O13 O 0.2507(3) 0.2698(2) -0.3214(3)
O14 O 0.2693(3) 0.0573(2) -0.2565(3)
O15 O 0.3815(3) 0.3907(2) -0.3729(3)
O16 O 0.2394(3) 0.3411(3) -0.4324(3)
O17 O 0.2600(3) 0.4002(2) -0.3177(2)
O18 O 0.3768(3) 0.3388(2) -0.2547(2)
O19 O 0.1974(3) 0.4771(2) 0.1002(3)
O20 O 0.3144(3) 0.4111(2) 0.1494(2)
O21 O 0.3484(3) 0.3857(2) -0.0528(3)
O22 O 0.2894(4) 0.4994(3) 0.2381(3)
O23 O 0.1439(4) 0.4532(3) 0.1985(3)
O24 O 0.2736(3) 0.3754(2) 0.2560(2)
O25 O 0.1837(3) 0.3492(3) 0.1398(3)
O26 O 0.2037(4) -0.0677(3) 0.3506(3)
O27 O 0.1219(3) -0.0816(3) 0.2288(3)
O28 O 0.1652(3) 0.1332(3) 0.1871(3)
O29 O 0.0750(4) -0.1642(3) 0.3092(3)
O30 O 0.2196(4) -0.1927(3) 0.3701(3)
O31 O 0.1410(4) -0.2124(3) 0.2302(3)
O32 O 0.2585(3) -0.1375(3) 0.2670(3)
O33 O 0.2611(3) -0.2853(2) -0.1635(3)
O34 O 0.3773(3) -0.2107(3) -0.1132(3)
O35 O 0.3159(3) -0.1793(3) 0.0775(3)
O36 O 0.3937(4) -0.2970(3) -0.2051(4)
O37 O 0.2546(4) -0.2695(3) -0.2857(3)
As1 As 0.77049(6) 0.38126(4) 0.62188(5)
C86 C 0.7639(5) 0.4698(4) 0.6014(5)
C87 C 0.8027(6) 0.5153(5) 0.6485(5)
H37 H 0.8341 0.5033 0.6907
C88 C 0.7941(6) 0.5790(5) 0.6317(5)
H38 H 0.8192 0.6111 0.6630
C89 C 0.7498(7) 0.5954(6) 0.5704(6)
H39 H 0.7444 0.6389 0.5598
C90 C 0.7123(7) 0.5497(5) 0.5232(6)
H40 H 0.6825 0.5621 0.4807
C91 C 0.7186(6) 0.4866(5) 0.5382(5)
H41 H 0.6928 0.4549 0.5066
C92 C 0.8516(5) 0.3677(4) 0.7004(4)
C93 C 0.9119(6) 0.3310(5) 0.7008(5)
H42 H 0.9133 0.3113 0.6620
C94 C 0.9712(7) 0.3242(6) 0.7615(6)
H43 H 1.0140 0.3011 0.7628
C95 C 0.9681(7) 0.3483(6) 0.8136(6)
H44 H 1.0082 0.3419 0.8534
C96 C 0.9076(7) 0.3840(6) 0.8145(6)
H45 H 0.9073 0.4017 0.8545
C97 C 0.8487(6) 0.3936(5) 0.7580(5)
H46 H 0.8070 0.4175 0.7583
C98 C 0.6787(5) 0.3502(4) 0.6315(4)
C99 C 0.6123(6) 0.3834(5) 0.6084(5)
H47 H 0.6119 0.4222 0.5863
C100 C 0.5475(7) 0.3598(6) 0.6177(6)
H48 H 0.5023 0.3824 0.6022
C101 C 0.5482(6) 0.3040(5) 0.6492(5)
H49 H 0.5031 0.2881 0.6552
C102 C 0.6119(7) 0.2709(6) 0.6723(6)
H50 H 0.6109 0.2316 0.6930
C103 C 0.6798(7) 0.2951(5) 0.6652(5)
H51 H 0.7255 0.2736 0.6835
C104 C 0.7874(6) 0.3416(5) 0.5497(5)
C105 C 0.8534(6) 0.3548(5) 0.5387(5)
H52 H 0.8901 0.3831 0.5676
C106 C 0.8687(7) 0.3278(6) 0.4862(6)
H53 H 0.9154 0.3359 0.4791
C107 C 0.8110(8) 0.2884(6) 0.4448(7)
H54 H 0.8197 0.2687 0.4089
C108 C 0.7432(8) 0.2763(6) 0.4526(6)
H55 H 0.7048 0.2511 0.4213
C109 C 0.7303(7) 0.3020(5) 0.5080(6)
H56 H 0.6846 0.2924 0.5164
As2 As -0.01151(5) 0.09968(5) 0.38530(4)
C110 C -0.0782(5) 0.1167(4) 0.4320(5)
C111 C -0.1566(6) 0.1075(4) 0.4002(5)
H57 H -0.1763 0.0940 0.3557
C112 C -0.2042(6) 0.1183(5) 0.4345(5)
H58 H -0.2574 0.1131 0.4138
C113 C -0.1731(6) 0.1373(5) 0.5014(5)
H59 H -0.2057 0.1445 0.5255
C114 C -0.0982(6) 0.1451(5) 0.5305(6)
H60 H -0.0782 0.1571 0.5753
C115 C -0.0489(6) 0.1359(4) 0.4961(5)
H61 H 0.0042 0.1429 0.5168
C116 C 0.0908(5) 0.0949(4) 0.4449(4)
C117 C 0.1268(6) 0.1495(5) 0.4791(5)
H62 H 0.1009 0.1880 0.4731
C118 C 0.1989(6) 0.1475(5) 0.5209(5)
H63 H 0.2228 0.1844 0.5454
C119 C 0.2371(7) 0.0938(5) 0.5282(6)
H64 H 0.2877 0.0931 0.5575
C120 C 0.2009(6) 0.0370(5) 0.4914(5)
H65 H 0.2275 -0.0009 0.4951
C121 C 0.1267(6) 0.0398(5) 0.4508(5)
H66 H 0.1008 0.0031 0.4270
C122 C -0.0405(6) 0.0196(5) 0.3434(5)
C123 C -0.0272(7) 0.0049(6) 0.2883(6)
H67 H -0.0063 0.0362 0.2673
C124 C -0.0442(8) -0.0565(7) 0.2619(7)
H68 H -0.0370 -0.0672 0.2221
C125 C -0.0716(8) -0.1012(7) 0.2951(7)
H69 H -0.0789 -0.1438 0.2795
C126 C -0.0879(8) -0.0879(6) 0.3462(7)
H70 H -0.1107 -0.1194 0.3654
C127 C -0.0721(7) -0.0280(5) 0.3730(6)
H71 H -0.0824 -0.0185 0.4117
C128 C -0.0140(5) 0.1626(4) 0.3214(4)
C129 C -0.0825(6) 0.1856(5) 0.2857(5)
H72 H -0.1271 0.1720 0.2939
C130 C -0.0860(7) 0.2293(5) 0.2371(5)
H73 H -0.1329 0.2465 0.2126
C131 C -0.0212(7) 0.2473(6) 0.2248(6)
H74 H -0.0240 0.2739 0.1891
C132 C 0.0490(7) 0.2264(5) 0.2648(6)
H75 H 0.0943 0.2424 0.2593
C133 C 0.0521(6) 0.1831(5) 0.3116(5)
H76 H 0.0992 0.1670 0.3374
As3 As 0.28093(8) 0.06115(6) 0.97044(8)
C134 C 0.3626(5) 0.0486(5) 0.9361(5)
C135 C 0.3852(5) 0.0946(4) 0.9003(5)
H77 H 0.3633 0.1349 0.8946
C136 C 0.4399(6) 0.0816(4) 0.8728(5)
H78 H 0.4553 0.1131 0.8483
C137 C 0.4719(5) 0.0227(5) 0.8811(5)
H79 H 0.5093 0.0139 0.8623
C138 C 0.4493(6) -0.0232(4) 0.9169(5)
H80 H 0.4712 -0.0635 0.9226
C139 C 0.3946(6) -0.0103(4) 0.9444(5)
H81 H 0.3792 -0.0417 0.9689
C140 C 0.2023(6) -0.0004(4) 0.9342(5)
C141 C 0.2161(4) -0.0620(4) 0.9204(4)
H82 H 0.2667 -0.0744 0.9297
C142 C 0.1561(6) -0.1055(4) 0.8929(5)
H83 H 0.1656 -0.1476 0.8835
C143 C 0.0821(5) -0.0873(6) 0.8793(5)
H84 H 0.0411 -0.1170 0.8605
C144 C 0.0682(5) -0.0257(7) 0.8931(6)
H85 H 0.0177 -0.0133 0.8838
C145 C 0.1283(7) 0.0178(5) 0.9206(6)
H86 H 0.1188 0.0599 0.9300
C146 C 0.3185(7) 0.0559(6) 1.0641(6)
C147 C 0.2830(10) 0.0189(8) 1.0989(8)
H87 H 0.2383 -0.0062 1.0772
C148 C 0.3139(8) 0.0198(7) 1.1635(7)
H88 H 0.2915 -0.0073 1.1872
C149 C 0.3766(8) 0.0578(7) 1.1989(8)
H89 H 0.3941 0.0583 1.2453
C150 C 0.4133(8) 0.0948(6) 1.1655(7)
H90 H 0.4582 0.1192 1.1882
C151 C 0.3833(7) 0.0953(6) 1.0993(6)
H91 H 0.4059 0.1224 1.0758
C152 C 0.2461(5) 0.1445(3) 0.9466(5)
C153 C 0.2469(5) 0.1876(4) 0.9951(3)
H92 H 0.2631 0.1752 1.0394
C154 C 0.2242(5) 0.2489(4) 0.9788(4)
H93 H 0.2248 0.2784 1.0120
C155 C 0.2006(6) 0.2671(4) 0.9140(5)
H94 H 0.1851 0.3091 0.9029
C156 C 0.1997(6) 0.2240(5) 0.8655(4)
H95 H 0.1836 0.2364 0.8212
C157 C 0.2225(6) 0.1626(4) 0.8818(4)
H96 H 0.2219 0.1332 0.8486
N1 N 0.5311(4) 0.4676(3) 0.2472(4)
C158 C 0.5078(5) 0.5348(4) 0.2282(4)
H97 H 0.5124 0.5591 0.2683
H98 H 0.5440 0.5546 0.2092
C159 C 0.4290(5) 0.5411(4) 0.1805(4)
H99 H 0.3918 0.5200 0.1976
H100 H 0.4244 0.5204 0.1384
C160 C 0.4131(6) 0.6103(5) 0.1702(5)
H101 H 0.4208 0.6309 0.2130
H102 H 0.4498 0.6305 0.1520
C161 C 0.3347(7) 0.6214(6) 0.1255(6)
H103 H 0.3275 0.6671 0.1210
H104 H 0.2980 0.6022 0.1435
H105 H 0.3271 0.6023 0.0826
C162 C 0.5236(5) 0.4273(4) 0.1876(4)
H106 H 0.5379 0.3838 0.2022
H107 H 0.4696 0.4248 0.1597
C163 C 0.5668(7) 0.4478(5) 0.1488(5)
H108 H 0.6212 0.4453 0.1746
H109 H 0.5568 0.4927 0.1376
C164 C 0.5496(6) 0.4092(5) 0.0864(5)
H110 H 0.4957 0.4140 0.0601
H111 H 0.5557 0.3640 0.0982
C165 C 0.5971(8) 0.4248(7) 0.0426(7)
H112 H 0.5802 0.3969 0.0039
H113 H 0.6506 0.4184 0.0670
H114 H 0.5907 0.4690 0.0292
C166 C 0.4791(6) 0.4361(5) 0.2824(5)
H115 H 0.4268 0.4321 0.2508
H116 H 0.4960 0.3927 0.2948
C167 C 0.4773(7) 0.4702(6) 0.3421(6)
H117 H 0.4550 0.5119 0.3292
H118 H 0.5299 0.4782 0.3720
C168 C 0.4321(9) 0.4345(7) 0.3792(8)
H119 H 0.4214 0.4645 0.4095
H120 H 0.3830 0.4189 0.3474
C169 C 0.4690(14) 0.3830(12) 0.4147(12)
H121 H 0.4365 0.3620 0.4360
H122 H 0.5166 0.3981 0.4479
H123 H 0.4798 0.3529 0.3851
C170 C 0.6117(5) 0.4733(4) 0.2933(4)
H124 H 0.6150 0.5067 0.3261
H125 H 0.6441 0.4879 0.2681
C171 C 0.6451(6) 0.4132(5) 0.3297(6)
H126 H 0.6431 0.3789 0.2981
H127 H 0.6155 0.3987 0.3573
C172 C 0.7292(7) 0.4294(6) 0.3734(6)
H128 H 0.7339 0.4723 0.3932
H129 H 0.7462 0.3984 0.4089
C173 C 0.7729(6) 0.4267(5) 0.3335(5)
H130 H 0.8259 0.4374 0.3592
H131 H 0.7550 0.4570 0.2982
H132 H 0.7687 0.3839 0.3150
loop_
_geom_bond_atom_site_label_1
_geom_bond_atom_site_label_2
_geom_bond_site_symmetry_1
_geom_bond_site_symmetry_2
C1 O1 1_555 1_555
C2 O2 1_555 1_555
C3 O3 1_555 1_555
C4 O4 1_555 1_555
C5 O5 1_555 1_555
C6 O6 1_555 1_555
C8 O8 1_555 1_555
C9 O9 1_555 1_555
Mo1 O10 1_555 1_555
Mo2 O12 1_555 1_555
Mo3 O19 1_555 1_555
Mo4 O26 1_555 1_555
C10 C11 1_555 1_555
C11 H1 1_555 1_555
C12 C11 1_555 1_555
C13 C12 1_555 1_555
C14 C13 1_555 1_555
H2 C14 1_555 1_555
C15 C10 1_555 1_555
C16 C15 1_555 1_555
C17 C16 1_555 1_555
C18 C17 1_555 1_555
H3 C18 1_555 1_555
C19 C18 1_555 1_555
C20 C19 1_555 1_555
C21 C20 1_555 1_555
H4 C21 1_555 1_555
C22 C17 1_555 1_555
C23 C16 1_555 1_555
C24 C23 1_555 1_555
H5 C24 1_555 1_555
C25 C24 1_555 1_555
H6 C25 1_555 1_555
C26 C25 1_555 1_555
H7 C26 1_555 1_555
C27 C26 1_555 1_555
H8 C27 1_555 1_555
C28 C23 1_555 1_555
H9 C28 1_555 1_555
C29 C30 1_555 1_555
C30 H10 1_555 1_555
C31 C30 1_555 1_555
C32 C31 1_555 1_555
C33 C32 1_555 1_555
H11 C33 1_555 1_555
C34 C29 1_555 1_555
C35 C34 1_555 1_555
C36 C35 1_555 1_555
C37 C36 1_555 1_555
H12 C37 1_555 1_555
C38 C37 1_555 1_555
C39 C38 1_555 1_555
C40 C39 1_555 1_555
H13 C40 1_555 1_555
C41 C36 1_555 1_555
C42 C35 1_555 1_555
C43 C42 1_555 1_555
H14 C43 1_555 1_555
C44 C43 1_555 1_555
H15 C44 1_555 1_555
C45 C44 1_555 1_555
H16 C45 1_555 1_555
C46 C45 1_555 1_555
H17 C46 1_555 1_555
C47 C42 1_555 1_555
H18 C47 1_555 1_555
C48 C49 1_555 1_555
C49 H19 1_555 1_555
C50 C49 1_555 1_555
C51 C50 1_555 1_555
C52 C51 1_555 1_555
H20 C52 1_555 1_555
C53 C48 1_555 1_555
C54 C53 1_555 1_555
C55 C54 1_555 1_555
C56 C55 1_555 1_555
H21 C56 1_555 1_555
C57 C56 1_555 1_555
C58 C57 1_555 1_555
C59 C58 1_555 1_555
H22 C59 1_555 1_555
C60 C55 1_555 1_555
C61 C54 1_555 1_555
C62 C61 1_555 1_555
H23 C62 1_555 1_555
C63 C62 1_555 1_555
H24 C63 1_555 1_555
C64 C63 1_555 1_555
H25 C64 1_555 1_555
C65 C64 1_555 1_555
H26 C65 1_555 1_555
C66 C61 1_555 1_555
H27 C66 1_555 1_555
C67 C68 1_555 1_555
C68 H28 1_555 1_555
C69 C68 1_555 1_555
C70 C69 1_555 1_555
C71 C70 1_555 1_555
H29 C71 1_555 1_555
C72 C67 1_555 1_555
C73 C72 1_555 1_555
C74 C73 1_555 1_555
C75 C74 1_555 1_555
H30 C75 1_555 1_555
C76 C75 1_555 1_555
C77 C76 1_555 1_555
C78 C77 1_555 1_555
H31 C78 1_555 1_555
C79 C74 1_555 1_555
C80 C73 1_555 1_555
C81 C80 1_555 1_555
H32 C81 1_555 1_555
C82 C81 1_555 1_555
H33 C82 1_555 1_555
C83 C82 1_555 1_555
H34 C83 1_555 1_555
C84 C83 1_555 1_555
H35 C84 1_555 1_555
C85 C80 1_555 1_555
H36 C85 1_555 1_555
O10 C13 1_555 1_555
O11 Mo1 1_555 1_555
O12 C19 1_555 1_555
O13 Mo2 1_555 1_555
O14 C10 1_555 1_555
O15 Mo2 1_555 1_555
O16 Mo2 1_555 1_555
O17 Mo2 1_555 1_555
O18 Mo2 1_555 1_555
O19 C38 1_555 1_555
O20 Mo3 1_555 1_555
O21 C29 1_555 1_555
O22 Mo3 1_555 1_555
O23 Mo3 1_555 1_555
O24 Mo3 1_555 1_555
O25 Mo3 1_555 1_555
O26 C57 1_555 1_555
O27 Mo4 1_555 1_555
O28 C48 1_555 1_555
O29 Mo4 1_555 1_555
O30 Mo4 1_555 1_555
O31 Mo4 1_555 1_555
O32 Mo4 1_555 1_555
O33 Mo1 1_555 1_555
O34 Mo1 1_555 1_555
O35 C67 1_555 1_555
O36 Mo1 1_555 1_555
O37 Mo1 1_555 1_555
As1 C86 1_555 1_555
C86 C87 1_555 1_555
C87 H37 1_555 1_555
C88 C87 1_555 1_555
H38 C88 1_555 1_555
C89 C88 1_555 1_555
H39 C89 1_555 1_555
C90 C89 1_555 1_555
H40 C90 1_555 1_555
C91 C86 1_555 1_555
H41 C91 1_555 1_555
C92 As1 1_555 1_555
C93 C92 1_555 1_555
H42 C93 1_555 1_555
C94 C93 1_555 1_555
H43 C94 1_555 1_555
C95 C94 1_555 1_555
H44 C95 1_555 1_555
C96 C95 1_555 1_555
H45 C96 1_555 1_555
C97 C92 1_555 1_555
H46 C97 1_555 1_555
C98 As1 1_555 1_555
C99 C98 1_555 1_555
H47 C99 1_555 1_555
C100 C99 1_555 1_555
H48 C100 1_555 1_555
C101 C100 1_555 1_555
H49 C101 1_555 1_555
C102 C101 1_555 1_555
H50 C102 1_555 1_555
C103 C98 1_555 1_555
H51 C103 1_555 1_555
C104 As1 1_555 1_555
C105 C104 1_555 1_555
H52 C105 1_555 1_555
C106 C105 1_555 1_555
H53 C106 1_555 1_555
C107 C106 1_555 1_555
H54 C107 1_555 1_555
C108 C107 1_555 1_555
H55 C108 1_555 1_555
C109 C104 1_555 1_555
H56 C109 1_555 1_555
As2 C110 1_555 1_555
C110 C111 1_555 1_555
C111 H57 1_555 1_555
C112 C111 1_555 1_555
H58 C112 1_555 1_555
C113 C112 1_555 1_555
H59 C113 1_555 1_555
C114 C113 1_555 1_555
H60 C114 1_555 1_555
C115 C110 1_555 1_555
H61 C115 1_555 1_555
C116 As2 1_555 1_555
C117 C116 1_555 1_555
H62 C117 1_555 1_555
C118 C117 1_555 1_555
H63 C118 1_555 1_555
C119 C118 1_555 1_555
H64 C119 1_555 1_555
C120 C119 1_555 1_555
H65 C120 1_555 1_555
C121 C116 1_555 1_555
H66 C121 1_555 1_555
C122 As2 1_555 1_555
C123 C122 1_555 1_555
H67 C123 1_555 1_555
C124 C123 1_555 1_555
H68 C124 1_555 1_555
C125 C124 1_555 1_555
H69 C125 1_555 1_555
C126 C125 1_555 1_555
H70 C126 1_555 1_555
C127 C122 1_555 1_555
H71 C127 1_555 1_555
C128 As2 1_555 1_555
C129 C128 1_555 1_555
H72 C129 1_555 1_555
C130 C129 1_555 1_555
H73 C130 1_555 1_555
C131 C130 1_555 1_555
H74 C131 1_555 1_555
C132 C131 1_555 1_555
H75 C132 1_555 1_555
C133 C128 1_555 1_555
H76 C133 1_555 1_555
As3 C134 1_555 1_555
C134 C135 1_555 1_555
C135 H77 1_555 1_555
C136 C135 1_555 1_555
H78 C136 1_555 1_555
C137 C136 1_555 1_555
H79 C137 1_555 1_555
C138 C137 1_555 1_555
H80 C138 1_555 1_555
C139 C134 1_555 1_555
H81 C139 1_555 1_555
C140 As3 1_555 1_555
C141 C140 1_555 1_555
H82 C141 1_555 1_555
C142 C141 1_555 1_555
H83 C142 1_555 1_555
C143 C142 1_555 1_555
H84 C143 1_555 1_555
C144 C143 1_555 1_555
H85 C144 1_555 1_555
C145 C140 1_555 1_555
H86 C145 1_555 1_555
C146 As3 1_555 1_555
C147 C146 1_555 1_555
H87 C147 1_555 1_555
C148 C147 1_555 1_555
H88 C148 1_555 1_555
C149 C148 1_555 1_555
H89 C149 1_555 1_555
C150 C149 1_555 1_555
H90 C150 1_555 1_555
C151 C146 1_555 1_555
H91 C151 1_555 1_555
C152 As3 1_555 1_555
C153 C152 1_555 1_555
H92 C153 1_555 1_555
C154 C153 1_555 1_555
H93 C154 1_555 1_555
C155 C154 1_555 1_555
H94 C155 1_555 1_555
C156 C155 1_555 1_555
H95 C156 1_555 1_555
C157 C152 1_555 1_555
H96 C157 1_555 1_555
N1 C158 1_555 1_555
C158 H97 1_555 1_555
H98 C158 1_555 1_555
C159 C158 1_555 1_555
H99 C159 1_555 1_555
H100 C159 1_555 1_555
C160 C159 1_555 1_555
H101 C160 1_555 1_555
H102 C160 1_555 1_555
C161 C160 1_555 1_555
H103 C161 1_555 1_555
H104 C161 1_555 1_555
H105 C161 1_555 1_555
C162 N1 1_555 1_555
H106 C162 1_555 1_555
H107 C162 1_555 1_555
C163 C162 1_555 1_555
H108 C163 1_555 1_555
H109 C163 1_555 1_555
C164 C163 1_555 1_555
H110 C164 1_555 1_555
H111 C164 1_555 1_555
C165 C164 1_555 1_555
H112 C165 1_555 1_555
H113 C165 1_555 1_555
H114 C165 1_555 1_555
C166 N1 1_555 1_555
H115 C166 1_555 1_555
H116 C166 1_555 1_555
C167 C166 1_555 1_555
H117 C167 1_555 1_555
H118 C167 1_555 1_555
C168 C167 1_555 1_555
H119 C168 1_555 1_555
H120 C168 1_555 1_555
C169 C168 1_555 1_555
H121 C169 1_555 1_555
H122 C169 1_555 1_555
H123 C169 1_555 1_555
C170 N1 1_555 1_555
H124 C170 1_555 1_555
H125 C170 1_555 1_555
C171 C170 1_555 1_555
H126 C171 1_555 1_555
H127 C171 1_555 1_555
C172 C171 1_555 1_555
H128 C172 1_555 1_555
H129 C172 1_555 1_555
C173 C172 1_555 1_555
H130 C173 1_555 1_555
H131 C173 1_555 1_555
H132 C173 1_555 1_555
C12 O11 1_555 1_555
C14 C15 1_555 1_555
C20 O13 1_555 1_555
C21 C22 1_555 1_555
C22 O14 1_555 1_555
C27 C28 1_555 1_555
C31 O18 1_555 1_555
C32 O17 1_555 1_555
C33 C34 1_555 1_555
C39 O20 1_555 1_555
C40 C41 1_555 1_555
C41 O21 1_555 1_555
C46 C47 1_555 1_555
C50 O25 1_555 1_555
C51 O24 1_555 1_555
C52 C53 1_555 1_555
C58 O27 1_555 1_555
C59 C60 1_555 1_555
C60 O28 1_555 1_555
C65 C66 1_555 1_555
C69 O32 1_555 1_555
C70 O31 1_555 1_555
C71 C72 1_555 1_555
C76 O33 1_555 1_555
C77 O34 1_555 1_555
C78 C79 1_555 1_555
C79 O35 1_555 1_555
C84 C85 1_555 1_555
C90 C91 1_555 1_555
C96 C97 1_555 1_555
C102 C103 1_555 1_555
C108 C109 1_555 1_555
C114 C115 1_555 1_555
C120 C121 1_555 1_555
C126 C127 1_555 1_555
C132 C133 1_555 1_555
C138 C139 1_555 1_555
C144 C145 1_555 1_555
C150 C151 1_555 1_555
C156 C157 1_555 1_555

#END
