
#######################################################################
#
#                 Cambridge Crystallographic Data Centre
#                                CCDC 
#
#######################################################################
#
# If this CIF has been generated from an entry in the Cambridge 
# Structural Database, then it will include bibliographic, chemical, 
# crystal, experimental, refinement or atomic coordinate data resulting 
# from the CCDC's data processing and validation procedures.
#
#######################################################################

data_TISTIA
_chemical_formula_moiety         
'C76 H36 Mo4 O28 4-,3(C16 H36 N1 1+),C8 H20 N1 1+,7.75(C1 H4 O1),0.25(H2 O1)'
_chemical_name_systematic        
'tetraethylammonium tris(tetra-n-butylammonium) tetrakis(\m~2~-2,6-dioxy-3-oxo-9-phenylxanthen-7-olate)-octakis(oxido)-tetra-molybdenum methanol solvate hydrate'
_symmetry_cell_setting           monoclinic
_symmetry_space_group_name_H-M   'C 2'
_symmetry_Int_Tables_number      5
_space_group_name_Hall           'C 2y'
loop_
_symmetry_equiv_pos_site_id
_symmetry_equiv_pos_as_xyz
1 x,y,z
2 -x,y,-z
3 1/2+x,1/2+y,z
4 1/2-x,1/2+y,-z
_cell_length_a                   26.8568(4)
_cell_length_b                   30.8169(4)
_cell_length_c                   17.4524(3)
_cell_angle_alpha                90
_cell_angle_beta                 94.508(2)
_cell_angle_gamma                90
_cell_volume                     14399.7
_exptl_crystal_colour            red
_exptl_crystal_description       needle
_cell_formula_units_Z            4
loop_
_atom_site_label
_atom_site_type_symbol
_atom_site_fract_x
_atom_site_fract_y
_atom_site_fract_z
C1 C 0.5824(8) 0.1980(7) 0.5019(12)
H1 H 0.5481 0.2076 0.5071
H2 H 0.5838 0.1816 0.4540
H3 H 0.6045 0.2233 0.5010
O1 O 0.5989(5) 0.1700(5) 0.5676(8)
H4 H 0.6180 0.1841 0.5989
O2 O 0.5000 0.2052(14) 0.5000
C1A C 0.4176(8) 0.1980(7) 0.4981(12)
H1A H 0.4519 0.2076 0.4929
H2A H 0.4162 0.1816 0.5460
H3A H 0.3955 0.2233 0.4990
O1A O 0.4011(5) 0.1700(5) 0.4324(8)
H4A H 0.3820 0.1841 0.4011
C2 C 0.2579(7) 0.0764(6) 0.3560(11)
H5 H 0.2770 0.0761 0.3104
H6 H 0.2331 0.0531 0.3522
H7 H 0.2807 0.0722 0.4021
O3 O 0.2333(6) 0.1169(5) 0.3609(9)
H8 H 0.2540 0.1359 0.3766
C3 C 0.8596(9) 0.4894(8) 0.7315(13)
H9 H 0.8292 0.5065 0.7358
H10 H 0.8764 0.4992 0.6868
H11 H 0.8820 0.4931 0.7782
O4 O 0.8480(6) 0.4493(6) 0.7235(9)
H12 H 0.8205 0.4447 0.7419
C4 C 0.9942(10) 0.1463(9) 0.6456(15)
H13 H 0.9991 0.1330 0.6967
H14 H 0.9714 0.1283 0.6125
H15 H 0.9799 0.1753 0.6500
O5 O 1.0345(6) 0.1490(6) 0.6176(9)
H16 H 1.0299 0.1571 0.5717
C5 C 0.6915(9) 0.2119(9) 0.6694(14)
H17 H 0.7235 0.2151 0.6998
H18 H 0.6659 0.2027 0.7029
H19 H 0.6819 0.2398 0.6455
O6 O 0.6963(6) 0.1794(6) 0.6098(10)
H20 H 0.6680 0.1740 0.5879
O7 O 0.5000 0.2025(11) 0.0000
C6 C 0.9547(4) 0.0631(3) 0.9290(6)
C7 C 0.9156(4) 0.0559(4) 0.9769(6)
H21 H 0.9026 0.0789 1.0055
C8 C 0.8974(4) 0.0150(4) 0.9807(6)
C9 C 0.9184(4) -0.0209(3) 0.9361(6)
C10 C 0.9553(4) -0.0138(4) 0.8908(6)
H22 H 0.9680 -0.0369 0.8620
C11 C 0.9764(4) 0.0302(3) 0.8857(6)
C12 C 1.0154(4) 0.0409(3) 0.8412(6)
C13 C 1.0347(4) 0.0831(3) 0.8395(6)
C14 C 1.0760(4) 0.0962(4) 0.8034(6)
H23 H 1.0936 0.0755 0.7756
C15 C 1.0924(4) 0.1380(3) 0.8066(6)
C16 C 1.0652(4) 0.1706(3) 0.8427(6)
C17 C 1.0245(4) 0.1590(3) 0.8843(5)
H24 H 1.0074 0.1798 0.9126
C18 C 1.0105(4) 0.1152(3) 0.8820(6)
C19 C 1.0360(4) 0.0079(3) 0.7888(6)
C20 C 1.0686(4) -0.0253(4) 0.8153(7)
C21 C 1.0895(4) -0.0520(4) 0.7603(6)
H25 H 1.1119 -0.0743 0.7784
C22 C 1.0792(5) -0.0477(5) 0.6816(8)
H26 H 1.0951 -0.0656 0.6464
C23 C 1.0439(6) -0.0154(6) 0.6558(10)
H27 H 1.0340 -0.0128 0.6025
C24 C 1.0235(5) 0.0126(5) 0.7082(8)
H28 H 1.0011 0.0349 0.6900
C25 C 1.0105(4) 0.3088(3) 0.6137(6)
C26 C 1.0268(4) 0.2669(3) 0.6176(6)
H29 H 1.0106 0.2449 0.5865
C27 C 1.0684(4) 0.2572(3) 0.6694(6)
C28 C 1.0927(4) 0.2911(3) 0.7160(6)
C29 C 1.0754(4) 0.3333(4) 0.7105(6)
H30 H 1.0915 0.3555 0.7411
C30 C 1.0332(4) 0.3434(3) 0.6583(5)
C31 C 1.0120(4) 0.3853(3) 0.6497(6)
C32 C 0.9694(4) 0.3920(3) 0.6015(5)
C33 C 0.9451(4) 0.4336(4) 0.5928(6)
H31 H 0.9595 0.4586 0.6176
C34 C 0.9006(3) 0.4366(3) 0.5478(5)
C35 C 0.8787(4) 0.3999(3) 0.5044(6)
C36 C 0.9042(4) 0.3595(4) 0.5099(6)
H32 H 0.8916 0.3350 0.4816
C37 C 0.9484(4) 0.3564(3) 0.5578(6)
C38 C 1.0358(3) 0.4207(2) 0.6988(4)
C39 C 1.0737(3) 0.4459(3) 0.6723(3)
H33 H 1.0858 0.4399 0.6236
C40 C 1.0941(3) 0.4798(3) 0.7170(5)
H34 H 1.1201 0.4970 0.6988
C41 C 1.0765(4) 0.4885(3) 0.7882(5)
H35 H 1.0904 0.5117 0.8187
C42 C 1.0385(4) 0.4633(3) 0.8147(4)
H36 H 1.0265 0.4692 0.8634
C43 C 1.0182(3) 0.4294(3) 0.7700(4)
H37 H 0.9922 0.4121 0.7882
C44 C 0.6821(4) 0.3689(4) 0.6274(7)
C45 C 0.7285(4) 0.3912(4) 0.6449(7)
H38 H 0.7458 0.3898 0.6945
C46 C 0.7476(4) 0.4160(4) 0.5834(7)
C47 C 0.7192(4) 0.4187(3) 0.5118(6)
C48 C 0.6759(4) 0.3979(3) 0.4972(5)
H39 H 0.6575 0.4008 0.4486
C49 C 0.6579(4) 0.3717(4) 0.5544(6)
C50 C 0.6132(4) 0.3458(3) 0.5404(6)
C51 C 0.5972(4) 0.3199(4) 0.6007(6)
C52 C 0.5550(4) 0.2938(4) 0.5929(6)
H40 H 0.5351 0.2936 0.5454
C53 C 0.5416(4) 0.2686(4) 0.6511(7)
C54 C 0.5701(4) 0.2704(4) 0.7285(7)
C55 C 0.6112(5) 0.2992(4) 0.7376(7)
H41 H 0.6291 0.3026 0.7865
C56 C 0.6254(4) 0.3226(4) 0.6741(7)
C57 C 0.5865(3) 0.3458(3) 0.4633(4)
C58 C 0.5961(3) 0.3149(3) 0.4082(5)
H42 H 0.6191 0.2921 0.4207
C59 C 0.5720(4) 0.3175(3) 0.3349(5)
H43 H 0.5786 0.2964 0.2973
C60 C 0.5384(4) 0.3509(4) 0.3167(5)
H44 H 0.5219 0.3526 0.2665
C61 C 0.5288(4) 0.3817(3) 0.3717(6)
H45 H 0.5058 0.4045 0.3593
C62 C 0.5529(4) 0.3791(3) 0.4451(6)
H46 H 0.5463 0.4002 0.4827
C63 C 0.6358(4) 0.0953(4) 0.8147(6)
C64 C 0.6187(4) 0.1205(4) 0.7501(7)
H47 H 0.6355 0.1209 0.7042
C65 C 0.5748(4) 0.1452(4) 0.7582(6)
C66 C 0.5505(4) 0.1444(4) 0.8299(6)
C67 C 0.5694(4) 0.1195(4) 0.8894(6)
H48 H 0.5531 0.1196 0.9359
C68 C 0.6120(4) 0.0936(3) 0.8849(6)
C69 C 0.6342(4) 0.0670(3) 0.9454(6)
C70 C 0.6758(4) 0.0435(4) 0.9352(6)
C71 C 0.7017(4) 0.0148(3) 0.9905(6)
H49 H 0.6884 0.0114 1.0390
C72 C 0.7432(4) -0.0073(4) 0.9780(6)
C73 C 0.7646(4) -0.0019(3) 0.9028(6)
C74 C 0.7417(4) 0.0256(4) 0.8456(7)
H50 H 0.7550 0.0293 0.7971
C75 C 0.6992(4) 0.0468(4) 0.8638(6)
C76 C 0.6094(4) 0.0652(4) 1.0165(5)
C77 C 0.5839(5) 0.0273(3) 1.0319(7)
H51 H 0.5842 0.0034 0.9975
C78 C 0.5581(5) 0.0243(4) 1.0977(9)
H52 H 0.5407 -0.0016 1.1082
C79 C 0.5578(5) 0.0592(5) 1.1481(7)
H53 H 0.5401 0.0572 1.1930
C80 C 0.5832(6) 0.0971(4) 1.1327(7)
H54 H 0.5830 0.1210 1.1671
C81 C 0.6090(5) 0.1001(3) 1.0669(7)
H55 H 0.6264 0.1260 1.0564
O8 O 0.8152(3) -0.1089(3) 0.9517(5)
O9 O 0.8460(3) -0.0762(3) 1.0911(5)
O10 O 0.8972(2) -0.0586(2) 0.9454(4)
O11 O 0.8608(3) 0.0036(2) 1.0210(4)
O12 O 1.1328(3) 0.1527(2) 0.7708(4)
O13 O 1.0823(2) 0.2104(2) 0.8388(4)
O14 O 0.9719(3) 0.1050(2) 0.9247(4)
O15 O 1.1921(3) 0.2108(3) 0.7069(5)
O16 O 1.1842(3) 0.2256(2) 0.8565(5)
O17 O 1.0876(3) 0.2182(2) 0.6829(4)
O18 O 1.1297(3) 0.2788(2) 0.7641(5)
O19 O 0.8758(2) 0.4729(2) 0.5378(5)
O20 O 0.8376(3) 0.4068(2) 0.4675(5)
O21 O 0.9690(2) 0.3163(2) 0.5649(4)
O22 O 0.8130(2) 0.4816(3) 0.3883(6)
O23 O 0.7915(3) 0.5208(3) 0.5220(5)
O24 O 0.7891(3) 0.4376(3) 0.5903(4)
O25 O 0.7410(2) 0.4431(3) 0.4558(4)
O26 O 0.5029(3) 0.2426(3) 0.6465(6)
O27 O 0.5553(4) 0.2469(3) 0.7797(5)
O28 O 0.6658(3) 0.3470(3) 0.6860(5)
O29 O 0.4541(4) 0.2396(3) 0.7965(7)
O30 O 0.4480(4) 0.1730(3) 0.6878(8)
O31 O 0.5112(3) 0.1699(2) 0.8306(5)
O32 O 0.5532(3) 0.1691(3) 0.7033(5)
O33 O 0.7671(2) -0.0349(3) 1.0235(4)
O34 O 0.8034(3) -0.0254(2) 0.8939(4)
O35 O 0.6781(3) 0.0730(3) 0.8080(4)
Mo1 Mo 0.83177(3) -0.06102(8) 0.99626(5)
Mo2 Mo 1.14821(3) 0.21624(7) 0.77373(5)
Mo3 Mo 0.80670(3) 0.47130(8) 0.48354(5)
Mo4 Mo 0.48911(4) 0.20670(8) 0.74077(8)
C82 C 0.7563(4) 0.8396(4) 0.6461(6)
H56 H 0.7509 0.8686 0.6225
H57 H 0.7884 0.8283 0.6299
C83 C 0.7150(5) 0.8099(4) 0.6155(7)
H58 H 0.6821 0.8221 0.6262
H59 H 0.7186 0.7811 0.6402
C84 C 0.7189(5) 0.8057(4) 0.5241(7)
H60 H 0.6871 0.7933 0.5013
H61 H 0.7217 0.8353 0.5029
C85 C 0.7610(7) 0.7788(7) 0.4968(12)
H62 H 0.7590 0.7789 0.4405
H63 H 0.7582 0.7490 0.5152
H64 H 0.7930 0.7912 0.5168
C86 C 0.7616(5) 0.8020(4) 0.7758(8)
H65 H 0.7296 0.7866 0.7634
H66 H 0.7647 0.8077 0.8318
C87 C 0.8059(6) 0.7717(4) 0.7550(9)
H67 H 0.8066 0.7698 0.6985
H68 H 0.8380 0.7841 0.7763
C88 C 0.8101(12) 0.7360(8) 0.8186(15)
H69 H 0.8237 0.7489 0.8679
H70 H 0.7765 0.7242 0.8261
C89 C 0.8441(13) 0.6996(7) 0.7954(18)
H71 H 0.8465 0.6773 0.8356
H72 H 0.8774 0.7113 0.7887
H73 H 0.8303 0.6867 0.7470
C90 C 0.7133(5) 0.8681(4) 0.7537(7)
H74 H 0.7123 0.8970 0.7289
H75 H 0.6839 0.8515 0.7322
C91 C 0.7098(5) 0.8738(5) 0.8381(8)
H76 H 0.7422 0.8841 0.8622
H77 H 0.7021 0.8456 0.8615
C92 C 0.6684(6) 0.9070(6) 0.8536(9)
H78 H 0.6786 0.9365 0.8386
H79 H 0.6369 0.8995 0.8232
C93 C 0.6604(7) 0.9059(7) 0.9406(11)
H80 H 0.6343 0.9267 0.9516
H81 H 0.6916 0.9136 0.9703
H82 H 0.6502 0.8767 0.9549
C94 C 0.8079(5) 0.8722(4) 0.7535(7)
H83 H 0.8157 0.8707 0.8098
H84 H 0.8359 0.8583 0.7293
C95 C 0.8067(4) 0.9187(4) 0.7309(7)
H85 H 0.7842 0.9350 0.7630
H86 H 0.7937 0.9216 0.6765
C96 C 0.8585(5) 0.9371(5) 0.7418(8)
H87 H 0.8735 0.9282 0.7930
H88 H 0.8788 0.9241 0.7028
C97 C 0.8614(6) 0.9852(5) 0.7358(9)
H89 H 0.8964 0.9943 0.7436
H90 H 0.8422 0.9984 0.7752
H91 H 0.8476 0.9944 0.6848
N1 N 0.7606(3) 0.8446(4) 0.7335(6)
C100 C 0.1789(5) 0.0887(4) 0.6509(7)
H97 H 0.1432 0.0816 0.6540
H98 H 0.1876 0.1121 0.6885
C101 C 0.2107(6) 0.0485(5) 0.6723(8)
H99 H 0.2460 0.0571 0.6838
H100 H 0.2090 0.0279 0.6286
C102 C 0.1909(6) 0.0265(5) 0.7432(9)
H101 H 0.1855 0.0486 0.7828
H102 H 0.1584 0.0124 0.7284
C103 C 0.2284(8) -0.0077(6) 0.7766(11)
H103 H 0.2153 -0.0214 0.8215
H104 H 0.2604 0.0063 0.7919
H105 H 0.2333 -0.0298 0.7376
C104 C 0.2403(4) 0.1127(5) 0.5586(8)
H106 H 0.2427 0.1220 0.5047
H107 H 0.2595 0.0854 0.5667
C105 C 0.2631(4) 0.1476(5) 0.6127(9)
H108 H 0.2585 0.1396 0.6666
H109 H 0.2461 0.1757 0.6016
C106 C 0.3198(4) 0.1520(5) 0.6013(10)
H110 H 0.3249 0.1536 0.5458
H111 H 0.3332 0.1788 0.6263
C107 C 0.3473(6) 0.1121(7) 0.6373(13)
H112 H 0.3831 0.1145 0.6305
H113 H 0.3340 0.0856 0.6120
H114 H 0.3423 0.1108 0.6923
C108 C 0.1548(5) 0.1441(4) 0.5674(7)
H115 H 0.1667 0.1645 0.6087
H116 H 0.1200 0.1360 0.5756
C109 C 0.1560(7) 0.1669(4) 0.4890(7)
H117 H 0.1423 0.1475 0.4473
H118 H 0.1908 0.1744 0.4792
C110 C 0.1236(7) 0.2091(5) 0.4909(9)
H119 H 0.0887 0.2014 0.4996
H120 H 0.1368 0.2280 0.5336
C111 C 0.1252(8) 0.2331(6) 0.4139(10)
H121 H 0.1050 0.2596 0.4147
H122 H 0.1118 0.2143 0.3719
H123 H 0.1598 0.2408 0.4058
C112 C 0.1700(4) 0.0720(5) 0.5123(7)
C113 C 0.1143(4) 0.0621(5) 0.5154(9)
H124 H 0.0951 0.0895 0.5115
H125 H 0.1087 0.0484 0.5654
C114 C 0.0956(6) 0.0316(5) 0.4499(9)
H126 H 0.0589 0.0288 0.4489
H127 H 0.1039 0.0440 0.4002
C115 C 0.1194(9) -0.0133(5) 0.4600(12)
H128 H 0.1069 -0.0321 0.4176
H129 H 0.1108 -0.0259 0.5089
H130 H 0.1558 -0.0107 0.4602
N2 N 0.1865(3) 0.1046(3) 0.5722(5)
C116 C 0.9635(5) 0.8088(5) 0.9517(8)
H131 H 0.9832 0.7899 0.9195
H132 H 0.9463 0.7900 0.9872
C117 C 1.0293(5) 0.8698(4) 0.9499(7)
H133 H 1.0521 0.8877 0.9840
H134 H 1.0054 0.8898 0.9219
C118 C 1.0615(7) 0.8468(6) 0.8882(11)
H135 H 1.0786 0.8689 0.8596
H136 H 1.0394 0.8297 0.8525
H137 H 1.0864 0.8276 0.9148
C119 C 0.9237(6) 0.8341(5) 0.8988(9)
H138 H 0.9019 0.8134 0.8698
H139 H 0.9407 0.8524 0.8629
H140 H 0.9037 0.8524 0.9305
N3 N 1.0000 0.8405(4) 1.0000
C116A C 1.0365(5) 0.8088(5) 1.0483(8)
H131A H 1.0168 0.7899 1.0805
H132A H 1.0537 0.7900 1.0128
C117A C 0.9707(5) 0.8698(4) 1.0501(7)
H133A H 0.9479 0.8877 1.0160
H134A H 0.9946 0.8898 1.0781
C118A C 0.9385(7) 0.8468(6) 1.1118(11)
H135A H 0.9214 0.8689 1.1404
H136A H 0.9606 0.8297 1.1475
H137A H 0.9136 0.8276 1.0852
C119A C 1.0763(6) 0.8341(5) 1.1012(9)
H138A H 1.0981 0.8134 1.1302
H139A H 1.0593 0.8524 1.1371
H140A H 1.0963 0.8524 1.0695
C120 C 0.9881(5) 0.5959(4) 0.5644(7)
H141 H 0.9579 0.6128 0.5473
H142 H 1.0159 0.6168 0.5735
C121 C 0.9789(7) 0.5738(6) 0.6435(10)
H143 H 0.9715 0.5962 0.6808
H144 H 1.0088 0.5578 0.6625
H145 H 0.9506 0.5538 0.6363
C122 C 0.9560(5) 0.5347(5) 0.4751(8)
H146 H 0.9486 0.5164 0.5194
H147 H 0.9662 0.5154 0.4338
C123 C 0.9069(6) 0.5611(5) 0.4449(9)
H148 H 0.8800 0.5406 0.4297
H149 H 0.9141 0.5789 0.4005
H150 H 0.8965 0.5799 0.4860
N4 N 1.0000 0.5665(4) 0.5000
C120A C 1.0119(5) 0.5959(4) 0.4356(7)
H141A H 1.0421 0.6128 0.4527
H142A H 0.9841 0.6168 0.4265
C121A C 1.0211(7) 0.5738(6) 0.3565(10)
H143A H 1.0285 0.5962 0.3192
H144A H 0.9912 0.5578 0.3375
H145A H 1.0494 0.5538 0.3637
C122A C 1.0440(5) 0.5347(5) 0.5249(8)
H146A H 1.0514 0.5164 0.4806
H147A H 1.0338 0.5154 0.5662
C123A C 1.0931(6) 0.5611(5) 0.5551(9)
H148A H 1.1200 0.5406 0.5703
H149A H 1.0859 0.5789 0.5995
H150A H 1.1035 0.5799 0.5140
N5 N 0.8043(4) 0.1781(4) 0.9327(7)
C124 C 0.7528(5) 0.1769(7) 0.8958(10)
H151 H 0.7424 0.1463 0.8879
H152 H 0.7523 0.1909 0.8447
C125 C 0.7153(5) 0.1999(8) 0.9437(9)
H153 H 0.7302 0.2271 0.9654
H154 H 0.7073 0.1810 0.9870
C126 C 0.6672(6) 0.2105(8) 0.8934(10)
H155 H 0.6752 0.2307 0.8521
H156 H 0.6539 0.1834 0.8689
C127 C 0.6270(6) 0.2308(8) 0.9395(13)
H157 H 0.5972 0.2369 0.9051
H158 H 0.6397 0.2579 0.9630
H159 H 0.6184 0.2107 0.9798
C128 C 0.8102(8) 0.1566(5) 1.0086(8)
H160 H 0.7950 0.1751 1.0469
H161 H 0.8462 0.1538 1.0247
C129 C 0.7863(8) 0.1121(5) 1.0086(9)
H162 H 0.8046 0.0922 0.9762
H163 H 0.7514 0.1141 0.9860
C130 C 0.7867(7) 0.0934(6) 1.0902(10)
H164 H 0.7829 0.0614 1.0872
H165 H 0.8191 0.0998 1.1187
C131 C 0.7444(9) 0.1125(9) 1.1336(11)
H166 H 0.7455 0.1000 1.1853
H167 H 0.7122 0.1057 1.1058
H168 H 0.7483 0.1440 1.1373
C132 C 0.8388(7) 0.1518(6) 0.8890(9)
H169 H 0.8283 0.1210 0.8895
H170 H 0.8730 0.1537 0.9144
C133 C 0.8393(7) 0.1672(8) 0.8060(8)
H171 H 0.8395 0.1993 0.8046
H172 H 0.8087 0.1569 0.7759
C134 C 0.8861(7) 0.1493(7) 0.7700(11)
H173 H 0.8914 0.1656 0.7224
H174 H 0.9159 0.1533 0.8064
C135 C 0.8791(10) 0.1009(7) 0.7513(15)
H175 H 0.9088 0.0898 0.7286
H176 H 0.8497 0.0971 0.7148
H177 H 0.8742 0.0849 0.7986
C136 C 0.8190(5) 0.2237(4) 0.9417(12)
H178 H 0.7962 0.2383 0.9753
H179 H 0.8153 0.2380 0.8908
C137 C 0.8730(5) 0.2296(5) 0.9762(14)
H180 H 0.8967 0.2212 0.9382
H181 H 0.8792 0.2110 1.0222
C138 C 0.8802(4) 0.2781(5) 0.9984(13)
H182 H 0.8724 0.2964 0.9525
H183 H 0.8569 0.2859 1.0374
C139 C 0.9338(7) 0.2868(7) 1.0306(14)
H184 H 0.9374 0.3176 1.0442
H185 H 0.9568 0.2795 0.9918
H186 H 0.9414 0.2690 1.0766
loop_
_geom_bond_atom_site_label_1
_geom_bond_atom_site_label_2
_geom_bond_site_symmetry_1
_geom_bond_site_symmetry_2
C1 H1 1_555 1_555
H2 C1 1_555 1_555
H3 C1 1_555 1_555
O1 C1 1_555 1_555
H4 O1 1_555 1_555
C2 H5 1_555 1_555
H6 C2 1_555 1_555
H7 C2 1_555 1_555
O3 C2 1_555 1_555
H8 O3 1_555 1_555
C3 H9 1_555 1_555
H10 C3 1_555 1_555
H11 C3 1_555 1_555
O4 C3 1_555 1_555
H12 O4 1_555 1_555
C4 H13 1_555 1_555
H14 C4 1_555 1_555
H15 C4 1_555 1_555
O5 C4 1_555 1_555
H16 O5 1_555 1_555
C5 H17 1_555 1_555
H18 C5 1_555 1_555
H19 C5 1_555 1_555
O6 C5 1_555 1_555
H20 O6 1_555 1_555
C6 C7 1_555 1_555
C7 H21 1_555 1_555
C8 C7 1_555 1_555
C9 C8 1_555 1_555
C10 C9 1_555 1_555
H22 C10 1_555 1_555
C11 C6 1_555 1_555
C12 C11 1_555 1_555
C13 C12 1_555 1_555
C14 C13 1_555 1_555
H23 C14 1_555 1_555
C15 C14 1_555 1_555
C16 C15 1_555 1_555
C17 C16 1_555 1_555
H24 C17 1_555 1_555
C18 C13 1_555 1_555
C19 C12 1_555 1_555
C20 C19 1_555 1_555
C21 C20 1_555 1_555
H25 C21 1_555 1_555
C22 C21 1_555 1_555
H26 C22 1_555 1_555
C23 C22 1_555 1_555
H27 C23 1_555 1_555
C24 C19 1_555 1_555
H28 C24 1_555 1_555
C25 C26 1_555 1_555
C26 H29 1_555 1_555
C27 C26 1_555 1_555
C28 C27 1_555 1_555
C29 C28 1_555 1_555
H30 C29 1_555 1_555
C30 C25 1_555 1_555
C31 C30 1_555 1_555
C32 C31 1_555 1_555
C33 C32 1_555 1_555
H31 C33 1_555 1_555
C34 C33 1_555 1_555
C35 C34 1_555 1_555
C36 C35 1_555 1_555
H32 C36 1_555 1_555
C37 C32 1_555 1_555
C38 C31 1_555 1_555
C39 C38 1_555 1_555
H33 C39 1_555 1_555
C40 C39 1_555 1_555
H34 C40 1_555 1_555
C41 C40 1_555 1_555
H35 C41 1_555 1_555
C42 C41 1_555 1_555
H36 C42 1_555 1_555
C43 C38 1_555 1_555
H37 C43 1_555 1_555
C44 C45 1_555 1_555
C45 H38 1_555 1_555
C46 C45 1_555 1_555
C47 C46 1_555 1_555
C48 C47 1_555 1_555
H39 C48 1_555 1_555
C49 C44 1_555 1_555
C50 C49 1_555 1_555
C51 C50 1_555 1_555
C52 C51 1_555 1_555
H40 C52 1_555 1_555
C53 C52 1_555 1_555
C54 C53 1_555 1_555
C55 C54 1_555 1_555
H41 C55 1_555 1_555
C56 C51 1_555 1_555
C57 C50 1_555 1_555
C58 C57 1_555 1_555
H42 C58 1_555 1_555
C59 C58 1_555 1_555
H43 C59 1_555 1_555
C60 C59 1_555 1_555
H44 C60 1_555 1_555
C61 C60 1_555 1_555
H45 C61 1_555 1_555
C62 C57 1_555 1_555
H46 C62 1_555 1_555
C63 C64 1_555 1_555
C64 H47 1_555 1_555
C65 C64 1_555 1_555
C66 C65 1_555 1_555
C67 C66 1_555 1_555
H48 C67 1_555 1_555
C68 C63 1_555 1_555
C69 C68 1_555 1_555
C70 C69 1_555 1_555
C71 C70 1_555 1_555
H49 C71 1_555 1_555
C72 C71 1_555 1_555
C73 C72 1_555 1_555
C74 C73 1_555 1_555
H50 C74 1_555 1_555
C75 C70 1_555 1_555
C76 C69 1_555 1_555
C77 C76 1_555 1_555
H51 C77 1_555 1_555
C78 C77 1_555 1_555
H52 C78 1_555 1_555
C79 C78 1_555 1_555
H53 C79 1_555 1_555
C80 C79 1_555 1_555
H54 C80 1_555 1_555
C81 C76 1_555 1_555
H55 C81 1_555 1_555
O8 Mo1 1_555 1_555
O9 Mo1 1_555 1_555
O10 C9 1_555 1_555
O11 C8 1_555 1_555
O12 C15 1_555 1_555
O13 C16 1_555 1_555
O14 C6 1_555 1_555
O15 Mo2 1_555 1_555
O16 Mo2 1_555 1_555
O17 C27 1_555 1_555
O18 C28 1_555 1_555
O19 C34 1_555 1_555
O20 C35 1_555 1_555
O21 C25 1_555 1_555
O22 Mo3 1_555 1_555
O23 Mo3 1_555 1_555
O24 C46 1_555 1_555
O25 C47 1_555 1_555
O26 C53 1_555 1_555
O27 C54 1_555 1_555
O28 C44 1_555 1_555
O29 Mo4 1_555 1_555
O30 Mo4 1_555 1_555
O31 C66 1_555 1_555
O32 C65 1_555 1_555
O33 C72 1_555 1_555
O34 C73 1_555 1_555
O35 C63 1_555 1_555
Mo1 O10 1_555 1_555
Mo2 O12 1_555 1_555
Mo3 O19 1_555 1_555
Mo4 O26 1_555 1_555
C82 H56 1_555 1_555
H57 C82 1_555 1_555
C83 C82 1_555 1_555
H58 C83 1_555 1_555
H59 C83 1_555 1_555
C84 C83 1_555 1_555
H60 C84 1_555 1_555
H61 C84 1_555 1_555
C85 C84 1_555 1_555
H62 C85 1_555 1_555
H63 C85 1_555 1_555
H64 C85 1_555 1_555
C86 H65 1_555 1_555
H66 C86 1_555 1_555
C87 C86 1_555 1_555
H67 C87 1_555 1_555
H68 C87 1_555 1_555
C88 C87 1_555 1_555
H69 C88 1_555 1_555
H70 C88 1_555 1_555
C89 C88 1_555 1_555
H71 C89 1_555 1_555
H72 C89 1_555 1_555
H73 C89 1_555 1_555
C90 H74 1_555 1_555
H75 C90 1_555 1_555
C91 C90 1_555 1_555
H76 C91 1_555 1_555
H77 C91 1_555 1_555
C92 C91 1_555 1_555
H78 C92 1_555 1_555
H79 C92 1_555 1_555
C93 C92 1_555 1_555
H80 C93 1_555 1_555
H81 C93 1_555 1_555
H82 C93 1_555 1_555
C94 H83 1_555 1_555
H84 C94 1_555 1_555
C95 C94 1_555 1_555
H85 C95 1_555 1_555
H86 C95 1_555 1_555
C96 C95 1_555 1_555
H87 C96 1_555 1_555
H88 C96 1_555 1_555
C97 C96 1_555 1_555
H89 C97 1_555 1_555
H90 C97 1_555 1_555
H91 C97 1_555 1_555
N1 C82 1_555 1_555
C100 H97 1_555 1_555
H98 C100 1_555 1_555
C101 C100 1_555 1_555
H99 C101 1_555 1_555
H100 C101 1_555 1_555
C102 C101 1_555 1_555
H101 C102 1_555 1_555
H102 C102 1_555 1_555
C103 C102 1_555 1_555
H103 C103 1_555 1_555
H104 C103 1_555 1_555
H105 C103 1_555 1_555
C104 H106 1_555 1_555
H107 C104 1_555 1_555
C105 C104 1_555 1_555
H108 C105 1_555 1_555
H109 C105 1_555 1_555
C106 C105 1_555 1_555
H110 C106 1_555 1_555
H111 C106 1_555 1_555
C107 C106 1_555 1_555
H112 C107 1_555 1_555
H113 C107 1_555 1_555
H114 C107 1_555 1_555
C108 H115 1_555 1_555
H116 C108 1_555 1_555
C109 C108 1_555 1_555
H117 C109 1_555 1_555
H118 C109 1_555 1_555
C110 C109 1_555 1_555
H119 C110 1_555 1_555
H120 C110 1_555 1_555
C111 C110 1_555 1_555
H121 C111 1_555 1_555
H122 C111 1_555 1_555
H123 C111 1_555 1_555
C112 C113 1_555 1_555
C113 H124 1_555 1_555
H125 C113 1_555 1_555
C114 C113 1_555 1_555
H126 C114 1_555 1_555
H127 C114 1_555 1_555
C115 C114 1_555 1_555
H128 C115 1_555 1_555
H129 C115 1_555 1_555
H130 C115 1_555 1_555
N2 C100 1_555 1_555
C116 H131 1_555 1_555
H132 C116 1_555 1_555
C117 H133 1_555 1_555
H134 C117 1_555 1_555
C118 C117 1_555 1_555
H135 C118 1_555 1_555
H136 C118 1_555 1_555
H137 C118 1_555 1_555
C119 C116 1_555 1_555
H138 C119 1_555 1_555
H139 C119 1_555 1_555
H140 C119 1_555 1_555
N3 C116 1_555 1_555
C120 H141 1_555 1_555
H142 C120 1_555 1_555
C121 C120 1_555 1_555
H143 C121 1_555 1_555
H144 C121 1_555 1_555
H145 C121 1_555 1_555
C122 H146 1_555 1_555
H147 C122 1_555 1_555
C123 C122 1_555 1_555
H148 C123 1_555 1_555
H149 C123 1_555 1_555
H150 C123 1_555 1_555
N4 C120 1_555 1_555
N5 C124 1_555 1_555
C124 H151 1_555 1_555
H152 C124 1_555 1_555
C125 C124 1_555 1_555
H153 C125 1_555 1_555
H154 C125 1_555 1_555
C126 C125 1_555 1_555
H155 C126 1_555 1_555
H156 C126 1_555 1_555
C127 C126 1_555 1_555
H157 C127 1_555 1_555
H158 C127 1_555 1_555
H159 C127 1_555 1_555
C128 N5 1_555 1_555
H160 C128 1_555 1_555
H161 C128 1_555 1_555
C129 C128 1_555 1_555
H162 C129 1_555 1_555
H163 C129 1_555 1_555
C130 C129 1_555 1_555
H164 C130 1_555 1_555
H165 C130 1_555 1_555
C131 C130 1_555 1_555
H166 C131 1_555 1_555
H167 C131 1_555 1_555
H168 C131 1_555 1_555
C132 N5 1_555 1_555
H169 C132 1_555 1_555
H170 C132 1_555 1_555
C133 C132 1_555 1_555
H171 C133 1_555 1_555
H172 C133 1_555 1_555
C134 C133 1_555 1_555
H173 C134 1_555 1_555
H174 C134 1_555 1_555
C135 C134 1_555 1_555
H175 C135 1_555 1_555
H176 C135 1_555 1_555
H177 C135 1_555 1_555
C136 N5 1_555 1_555
H178 C136 1_555 1_555
H179 C136 1_555 1_555
C137 C136 1_555 1_555
H180 C137 1_555 1_555
H181 C137 1_555 1_555
C138 C137 1_555 1_555
H182 C138 1_555 1_555
H183 C138 1_555 1_555
C139 C138 1_555 1_555
H184 C139 1_555 1_555
H185 C139 1_555 1_555
H186 C139 1_555 1_555
C1A H1A 1_555 1_555
H2A C1A 1_555 1_555
H3A C1A 1_555 1_555
O1A C1A 1_555 1_555
H4A O1A 1_555 1_555
C116A N3 1_555 1_555
H131A C116A 1_555 1_555
H132A C116A 1_555 1_555
C117A N3 1_555 1_555
H133A C117A 1_555 1_555
H134A C117A 1_555 1_555
C118A C117A 1_555 1_555
H135A C118A 1_555 1_555
H136A C118A 1_555 1_555
H137A C118A 1_555 1_555
C119A C116A 1_555 1_555
H138A C119A 1_555 1_555
H139A C119A 1_555 1_555
H140A C119A 1_555 1_555
C120A N4 1_555 1_555
H141A C120A 1_555 1_555
H142A C120A 1_555 1_555
C121A C120A 1_555 1_555
H143A C121A 1_555 1_555
H144A C121A 1_555 1_555
H145A C121A 1_555 1_555
C122A N4 1_555 1_555
H146A C122A 1_555 1_555
H147A C122A 1_555 1_555
C123A C122A 1_555 1_555
H148A C123A 1_555 1_555
H149A C123A 1_555 1_555
H150A C123A 1_555 1_555
C10 C11 1_555 1_555
C17 C18 1_555 1_555
C18 O14 1_555 1_555
C23 C24 1_555 1_555
C29 C30 1_555 1_555
C36 C37 1_555 1_555
C37 O21 1_555 1_555
C42 C43 1_555 1_555
C48 C49 1_555 1_555
C55 C56 1_555 1_555
C56 O28 1_555 1_555
C61 C62 1_555 1_555
C67 C68 1_555 1_555
C74 C75 1_555 1_555
C75 O35 1_555 1_555
C80 C81 1_555 1_555
O11 Mo1 1_555 1_555
O13 Mo2 1_555 1_555
O17 Mo2 1_555 1_555
O18 Mo2 1_555 1_555
O20 Mo3 1_555 1_555
O24 Mo3 1_555 1_555
O25 Mo3 1_555 1_555
O27 Mo4 1_555 1_555
O31 Mo4 1_555 1_555
O32 Mo4 1_555 1_555
O33 Mo1 1_555 1_555
O34 Mo1 1_555 1_555
C86 N1 1_555 1_555
C90 N1 1_555 1_555
C94 N1 1_555 1_555
C104 N2 1_555 1_555
C108 N2 1_555 1_555
C112 N2 1_555 1_555
C117 N3 1_555 1_555
C122 N4 1_555 1_555

#END
