
#######################################################################
#
#                 Cambridge Crystallographic Data Centre
#                                CCDC 
#
#######################################################################
#
# If this CIF has been generated from an entry in the Cambridge 
# Structural Database, then it will include bibliographic, chemical, 
# crystal, experimental, refinement or atomic coordinate data resulting 
# from the CCDC's data processing and validation procedures.
#
#######################################################################

data_TISTEW
_chemical_formula_moiety         
'C76 H36 O28 W4 4-,0.5(C1 H4 O1),0.5(H2 O1),C36 H30 N1 P2 1+,3(C16 H36 N1 1+)'
_chemical_name_systematic        
'tris(tetra-n-butylammonium) bis(triphenylphosphine)iminium tetrakis(\m-3-oxo-9-phenyl-3H-xanthene-2,6,7-triolato)-octaoxo-tetra-tungsten methanol solvate hemihydrate'
_symmetry_cell_setting           triclinic
_symmetry_space_group_name_H-M   'P -1'
_symmetry_Int_Tables_number      2
_space_group_name_Hall           '-P 1'
loop_
_symmetry_equiv_pos_site_id
_symmetry_equiv_pos_as_xyz
1 x,y,z
2 -x,-y,-z
_cell_length_a                   18.4066(4)
_cell_length_b                   20.8649(2)
_cell_length_c                   21.3598(5)
_cell_angle_alpha                88.3120(10)
_cell_angle_beta                 65.145(2)
_cell_angle_gamma                83.7260(10)
_cell_volume                     7397.62
_exptl_crystal_colour            red
_exptl_crystal_description       rod
_cell_formula_units_Z            2
loop_
_atom_site_label
_atom_site_type_symbol
_atom_site_fract_x
_atom_site_fract_y
_atom_site_fract_z
O1 O 0.7759(14) 0.1726(11) 0.7887(12)
C1 C 0.738(2) 0.2302(15) 0.7864(16)
P1 P 0.8436(5) -0.0941(3) 0.9164(3)
P2 P 0.6824(5) -0.0384(3) 1.0086(4)
N1 N 0.7875(10) -0.0310(7) 0.9579(10)
C2 C 0.6777(10) -0.0471(9) 1.0965(7)
C3 C 0.6078(9) -0.0614(10) 1.1521(10)
H1 H 0.5615 -0.0680 1.1452
C4 C 0.6058(9) -0.0659(11) 1.2179(8)
H2 H 0.5580 -0.0756 1.2559
C5 C 0.6736(10) -0.0561(9) 1.2280(6)
H3 H 0.6722 -0.0592 1.2729
C6 C 0.7435(8) -0.0419(8) 1.1724(8)
H4 H 0.7898 -0.0353 1.1793
C7 C 0.7455(8) -0.0374(7) 1.1066(6)
H5 H 0.7933 -0.0277 1.0686
C8 C 0.6307(11) 0.0358(8) 1.0041(11)
C9 C 0.5542(12) 0.0516(9) 1.0561(9)
H6 H 0.5338 0.0246 1.0949
C10 C 0.5075(10) 0.1069(10) 1.0512(11)
H7 H 0.4552 0.1178 1.0868
C11 C 0.5374(14) 0.1464(9) 0.9944(13)
H8 H 0.5055 0.1842 0.9911
C12 C 0.6139(15) 0.1305(11) 0.9424(11)
H9 H 0.6343 0.1575 0.9036
C13 C 0.6606(11) 0.0752(11) 0.9473(10)
H10 H 0.7129 0.0644 0.9117
C14 C 0.9360(7) -0.0522(6) 0.8766(8)
C15 C 0.9354(7) 0.0126(6) 0.8903(7)
H11 H 0.8859 0.0378 0.9163
C16 C 1.0072(9) 0.0406(5) 0.8659(8)
H12 H 1.0068 0.0848 0.8753
C17 C 1.0797(7) 0.0037(7) 0.8279(8)
H13 H 1.1288 0.0228 0.8112
C18 C 1.0803(7) -0.0611(6) 0.8142(8)
H14 H 1.1298 -0.0863 0.7881
C19 C 1.0084(9) -0.0891(5) 0.8385(8)
H15 H 1.0088 -0.1334 0.8291
C20 C 0.8346(12) -0.1404(7) 0.8505(8)
C21 C 0.8000(16) -0.1057(7) 0.8115(12)
H16 H 0.7840 -0.0608 0.8201
C22 C 0.789(2) -0.1367(11) 0.7600(14)
H17 H 0.7653 -0.1130 0.7333
C23 C 0.812(2) -0.2024(11) 0.7474(13)
H18 H 0.8049 -0.2236 0.7122
C24 C 0.8470(14) -0.2371(7) 0.7864(10)
H19 H 0.8631 -0.2820 0.7779
C25 C 0.8581(10) -0.2061(7) 0.8380(8)
H20 H 0.8817 -0.2298 0.8647
C26 C 0.8585(11) -0.1472(8) 0.9797(8)
C27 C 0.9182(10) -0.1410(8) 1.0022(9)
H21 H 0.9577 -0.1123 0.9798
C28 C 0.9200(10) -0.1769(9) 1.0575(9)
H22 H 0.9608 -0.1727 1.0729
C29 C 0.8622(11) -0.2189(8) 1.0903(8)
H23 H 0.8634 -0.2433 1.1281
C30 C 0.8025(10) -0.2250(8) 1.0678(9)
H24 H 0.7630 -0.2537 1.0902
C31 C 0.8007(10) -0.1892(9) 1.0125(9)
H25 H 0.7599 -0.1934 0.9971
C32A C 0.6265(16) -0.1012(10) 0.9941(14)
C33A C 0.6155(16) -0.1575(13) 1.0320(11)
H26A H 0.6241 -0.1597 1.0729
C34A C 0.5919(16) -0.2104(10) 1.0101(13)
H27A H 0.5844 -0.2488 1.0361
C35A C 0.5793(15) -0.2071(10) 0.9503(14)
H28A H 0.5632 -0.2433 0.9354
C36A C 0.5903(15) -0.1509(13) 0.9124(11)
H29A H 0.5816 -0.1486 0.8715
C37A C 0.6138(15) -0.0979(10) 0.9343(13)
H30A H 0.6213 -0.0595 0.9083
C32 C 0.3735(16) 0.1012(10) 1.0059(14)
C33 C 0.3845(16) 0.1575(13) 0.9680(11)
H26 H 0.3759 0.1597 0.9271
C34 C 0.4081(16) 0.2104(10) 0.9899(13)
H27 H 0.4156 0.2488 0.9639
C35 C 0.4207(15) 0.2071(10) 1.0497(14)
H28 H 0.4368 0.2433 1.0646
C36 C 0.4097(15) 0.1509(13) 1.0876(11)
H29 H 0.4184 0.1486 1.1285
C37 C 0.3862(15) 0.0979(10) 1.0657(13)
H30 H 0.3787 0.0595 1.0917
P1A P 0.1564(5) 0.0941(3) 1.0836(3)
P2A P 0.3176(5) 0.0384(3) 0.9914(4)
N1A N 0.2125(10) 0.0310(7) 1.0421(10)
C2A C 0.3223(10) 0.0471(9) 0.9035(7)
C3A C 0.3922(9) 0.0614(10) 0.8479(10)
H1A H 0.4385 0.0680 0.8548
C4A C 0.3942(9) 0.0659(11) 0.7821(8)
H2A H 0.4420 0.0756 0.7441
C5A C 0.3264(10) 0.0561(9) 0.7720(6)
H3A H 0.3278 0.0592 0.7271
C6A C 0.2565(8) 0.0419(8) 0.8276(8)
H4A H 0.2102 0.0353 0.8207
C7A C 0.2545(8) 0.0374(7) 0.8934(6)
H5A H 0.2067 0.0277 0.9314
C8A C 0.3693(11) -0.0358(8) 0.9959(11)
C9A C 0.4458(12) -0.0516(9) 0.9439(9)
H6A H 0.4662 -0.0246 0.9051
C10A C 0.4925(10) -0.1069(10) 0.9488(11)
H7A H 0.5448 -0.1178 0.9132
C11A C 0.4626(14) -0.1464(9) 1.0056(13)
H8A H 0.4945 -0.1842 1.0089
C12A C 0.3861(15) -0.1305(11) 1.0576(11)
H9A H 0.3657 -0.1575 1.0964
C13A C 0.3394(11) -0.0752(11) 1.0527(10)
H10A H 0.2871 -0.0644 1.0883
C14A C 0.0640(7) 0.0522(6) 1.1234(8)
C15A C 0.0646(7) -0.0126(6) 1.1097(7)
H11A H 0.1141 -0.0378 1.0837
C16A C -0.0072(9) -0.0406(5) 1.1341(8)
H12A H -0.0068 -0.0848 1.1247
C17A C -0.0797(7) -0.0037(7) 1.1721(8)
H13A H -0.1288 -0.0228 1.1888
C18A C -0.0803(7) 0.0611(6) 1.1858(8)
H14A H -0.1298 0.0863 1.2119
C19A C -0.0084(9) 0.0891(5) 1.1615(8)
H15A H -0.0088 0.1334 1.1709
C20A C 0.1654(12) 0.1404(7) 1.1495(8)
C21A C 0.2000(16) 0.1057(7) 1.1885(12)
H16A H 0.2160 0.0608 1.1799
C22A C 0.211(2) 0.1367(11) 1.2400(14)
H17A H 0.2347 0.1130 1.2667
C23A C 0.188(2) 0.2024(11) 1.2526(13)
H18A H 0.1951 0.2236 1.2878
C24A C 0.1530(14) 0.2371(7) 1.2136(10)
H19A H 0.1369 0.2820 1.2221
C25A C 0.1419(10) 0.2061(7) 1.1620(8)
H20A H 0.1183 0.2298 1.1353
C26A C 0.1415(11) 0.1472(8) 1.0203(8)
C27A C 0.0818(10) 0.1410(8) 0.9978(9)
H21A H 0.0423 0.1123 1.0202
C28A C 0.0800(10) 0.1769(9) 0.9425(9)
H22A H 0.0392 0.1727 0.9271
C29A C 0.1378(11) 0.2189(8) 0.9097(8)
H23A H 0.1366 0.2433 0.8719
C30A C 0.1975(10) 0.2250(8) 0.9322(9)
H24A H 0.2370 0.2537 0.9098
C31A C 0.1993(10) 0.1892(9) 0.9875(9)
H25A H 0.2401 0.1934 1.0029
O2 O 1.1135(14) -0.2177(11) 0.8009(12)
C38 C 1.113(3) -0.2248(19) 0.868(2)
C39 C 0.9830(19) 0.3983(14) 0.9897(16)
H31 H 0.9399 0.3832 1.0312
H32 H 1.0199 0.4191 1.0029
H33 H 1.0127 0.3614 0.9588
N2 N 1.1452(5) 0.4489(4) 0.7871(4)
C40 C 1.1002(6) 0.4416(5) 0.7394(5)
H34 H 1.0840 0.3974 0.7435
H35 H 1.0507 0.4722 0.7556
C41 C 1.1509(6) 0.4538(5) 0.6658(5)
H36 H 1.2004 0.4232 0.6487
H37 H 1.1668 0.4982 0.6608
C42 C 1.1017(7) 0.4453(5) 0.6231(5)
H38 H 1.0863 0.4008 0.6278
H39 H 1.0519 0.4756 0.6406
C43 C 1.1515(8) 0.4582(6) 0.5499(7)
C44 C 1.2281(6) 0.4086(5) 0.7579(6)
H40 H 1.2629 0.4272 0.7136
H41 H 1.2534 0.4122 0.7903
C45 C 1.2253(7) 0.3381(5) 0.7461(6)
H42 H 1.2074 0.3334 0.7090
H43 H 1.1862 0.3199 0.7887
C46 C 1.3094(8) 0.3009(6) 0.7257(7)
H44 H 1.3462 0.3163 0.6803
H45 H 1.3298 0.3116 0.7598
C47 C 1.3128(9) 0.2302(6) 0.7214(8)
H46 H 1.3683 0.2110 0.7081
H47 H 1.2944 0.2187 0.6867
H48 H 1.2780 0.2140 0.7664
C48 C 1.1577(7) 0.5208(5) 0.7883(5)
H49 H 1.1950 0.5333 0.7417
H50 H 1.1055 0.5476 0.8009
C49 C 1.1918(7) 0.5339(5) 0.8396(6)
H51 H 1.2459 0.5099 0.8253
H52 H 1.1565 0.5191 0.8858
C50 C 1.1977(7) 0.6071(5) 0.8426(6)
H53 H 1.2254 0.6228 0.7951
H54 H 1.1427 0.6301 0.8632
C51 C 1.2433(8) 0.6232(6) 0.8851(6)
H55 H 1.2454 0.6699 0.8856
H56 H 1.2982 0.6013 0.8644
H57 H 1.2154 0.6086 0.9325
C52 C 1.0924(6) 0.4236(5) 0.8579(5)
H58 H 1.1221 0.4217 0.8873
H59 H 1.0816 0.3792 0.8522
C53 C 1.0114(8) 0.4657(6) 0.8947(7)
H60 H 1.0218 0.5086 0.9057
H61 H 0.9846 0.4722 0.8630
C54 C 0.9549(10) 0.4357(8) 0.9611(9)
H62 H 0.9234 0.4713 0.9942
H63 H 0.9162 0.4139 0.9503
O3 O 0.3422(14) 0.5808(10) 0.6578(12)
C55 C 0.6488(5) 0.1735(4) 0.1216(4)
C56 C 0.6178(6) 0.1328(4) 0.1770(4)
H64 H 0.6505 0.0963 0.1818
C57 C 0.5388(5) 0.1456(4) 0.2253(4)
C58 C 0.4887(5) 0.1987(4) 0.2125(4)
C59 C 0.5185(5) 0.2372(3) 0.1567(4)
H65 H 0.4843 0.2712 0.1494
C60 C 0.6024(5) 0.2263(4) 0.1085(4)
C61 C 0.6370(4) 0.2634(3) 0.0507(3)
C62 C 0.7181(4) 0.2476(3) 0.0047(3)
C63 C 0.7591(5) 0.2833(3) -0.0561(4)
H66 H 0.7325 0.3205 -0.0671
C64 C 0.8383(5) 0.2622(3) -0.0984(4)
C65 C 0.8807(5) 0.2079(4) -0.0824(4)
C66 C 0.8431(5) 0.1734(4) -0.0233(4)
H67 H 0.8708 0.1367 -0.0126
C67 C 0.7632(5) 0.1939(4) 0.0200(4)
C68 C 0.5885(4) 0.3184(3) 0.0367(3)
C69 C 0.5744(5) 0.3182(4) -0.0229(4)
H68 H 0.5985 0.2837 -0.0556
C70 C 0.5255(5) 0.3683(4) -0.0346(4)
H69 H 0.5158 0.3678 -0.0748
C71 C 0.4911(5) 0.4188(3) 0.0127(4)
H70 H 0.4560 0.4521 0.0056
C72 C 0.5069(4) 0.4214(3) 0.0700(4)
H71 H 0.4849 0.4573 0.1010
C73 C 0.5556(4) 0.3709(3) 0.0823(4)
H72 H 0.5662 0.3725 0.1221
C74 C 1.0300(5) 0.0216(3) -0.3166(4)
C75 C 0.9686(5) 0.0740(3) -0.2901(4)
H73 H 0.9150 0.0705 -0.2838
C76 C 0.9903(5) 0.1297(3) -0.2741(4)
C77 C 1.0715(4) 0.1342(3) -0.2831(4)
C78 C 1.1309(5) 0.0842(3) -0.3122(4)
H74 H 1.1849 0.0888 -0.3203
C79 C 1.1113(4) 0.0250(3) -0.3304(4)
C80 C 1.1647(4) -0.0296(3) -0.3549(4)
C81 C 1.1380(4) -0.0877(3) -0.3616(4)
C82 C 1.1898(5) -0.1485(3) -0.3825(4)
H75 H 1.2462 -0.1497 -0.3964
C83 C 1.1557(5) -0.2035(4) -0.3816(5)
C84 C 1.0709(4) -0.2036(4) -0.3661(4)
C85 C 1.0219(5) -0.1442(4) -0.3479(5)
H76 H 0.9661 -0.1420 -0.3372
C86 C 1.0559(4) -0.0898(3) -0.3458(4)
C87 C 1.2531(4) -0.0261(3) -0.3722(4)
C88 C 1.2900(5) -0.0611(4) -0.3352(5)
H77 H 1.2598 -0.0881 -0.2993
C89 C 1.3704(5) -0.0571(5) -0.3499(6)
H78 H 1.3965 -0.0794 -0.3244
C90 C 1.4131(6) -0.0146(6) -0.4095(6)
H79 H 1.4687 -0.0112 -0.4231
C91 C 1.3763(6) 0.0180(5) -0.4436(7)
H80 H 1.4050 0.0450 -0.4804
C92 C 1.2957(5) 0.0128(4) -0.4256(5)
H81 H 1.2694 0.0362 -0.4503
C93 C 0.9210(5) -0.3758(4) -0.1368(4)
C94 C 0.9884(5) -0.3428(4) -0.1690(5)
H82 H 1.0059 -0.3170 -0.1432
C95 C 1.0296(5) -0.3490(3) -0.2407(5)
C96 C 1.0019(5) -0.3889(3) -0.2775(5)
C97 C 0.9365(5) -0.4224(3) -0.2457(4)
H83 H 0.9190 -0.4479 -0.2718
C98 C 0.8944(4) -0.4180(3) -0.1712(4)
C99 C 0.8271(4) -0.4515(3) -0.1325(4)
C100 C 0.7871(4) -0.4413(3) -0.0606(4)
C101 C 0.7188(5) -0.4717(3) -0.0154(4)
H84 H 0.6986 -0.5030 -0.0335
C102 C 0.6826(5) -0.4571(3) 0.0522(4)
C103 C 0.7122(5) -0.4118(4) 0.0833(4)
C104 C 0.7811(6) -0.3829(4) 0.0408(5)
H85 H 0.8032 -0.3536 0.0595
C105 C 0.8160(5) -0.3978(3) -0.0284(4)
C106 C 0.7972(4) -0.4964(3) -0.1664(4)
C107 C 0.8469(5) -0.5522(3) -0.2008(4)
H86 H 0.9004 -0.5594 -0.2046
C108 C 0.8176(5) -0.5977(4) -0.2298(5)
H87 H 0.8509 -0.6356 -0.2522
C109 C 0.7396(6) -0.5865(4) -0.2252(5)
H88 H 0.7195 -0.6173 -0.2439
C110 C 0.6897(6) -0.5292(4) -0.1928(5)
H89 H 0.6371 -0.5207 -0.1912
C111 C 0.7196(5) -0.4855(4) -0.1631(4)
H90 H 0.6862 -0.4476 -0.1403
C112 C 0.4509(5) -0.2080(4) 0.2440(4)
C113 C 0.4716(6) -0.2546(4) 0.1930(4)
H91 H 0.4687 -0.2446 0.1504
C114 C 0.4973(6) -0.3180(4) 0.2068(4)
C115 C 0.5038(5) -0.3312(4) 0.2701(4)
C116 C 0.4827(5) -0.2838(4) 0.3204(4)
H92 H 0.4862 -0.2936 0.3628
C117 C 0.4557(5) -0.2203(4) 0.3079(4)
C118 C 0.4372(5) -0.1675(4) 0.3557(4)
C119 C 0.4162(5) -0.1054(4) 0.3370(4)
C120 C 0.4008(5) -0.0485(4) 0.3796(4)
H93 H 0.3997 -0.0521 0.4244
C121 C 0.3878(5) 0.0098(3) 0.3547(4)
C122 C 0.3843(6) 0.0179(4) 0.2893(4)
C123 C 0.3955(6) -0.0373(4) 0.2481(5)
H94 H 0.3923 -0.0337 0.2049
C124 C 0.4114(6) -0.0963(4) 0.2726(4)
C125 C 0.4435(5) -0.1793(3) 0.4216(4)
C126 C 0.3873(5) -0.2153(4) 0.4726(4)
H95 H 0.3454 -0.2313 0.4648
C127 C 0.3944(5) -0.2271(4) 0.5347(4)
H96 H 0.3574 -0.2516 0.5693
C128 C 0.4574(6) -0.2024(4) 0.5462(4)
H97 H 0.4619 -0.2098 0.5886
C129 C 0.5123(5) -0.1674(4) 0.4948(4)
H98 H 0.5545 -0.1512 0.5019
C130 C 0.5051(5) -0.1560(4) 0.4328(4)
H99 H 0.5427 -0.1321 0.3979
O4 O 0.3998(4) 0.1910(3) 0.3980(3)
O5 O 0.2759(4) 0.1746(3) 0.3642(3)
O6 O 0.4111(3) 0.2046(2) 0.2595(3)
O7 O 0.5030(4) 0.1142(3) 0.2804(3)
O8 O 0.8799(3) 0.2907(2) -0.1578(3)
O9 O 0.9540(3) 0.1939(3) -0.1272(3)
O10 O 0.7279(4) 0.1589(3) 0.0776(3)
O11 O 1.0451(4) 0.2952(3) -0.1818(4)
O12 O 0.9958(4) 0.3059(3) -0.2846(3)
O13 O 1.0837(3) 0.1898(2) -0.2606(3)
O14 O 0.9419(3) 0.1824(2) -0.2482(3)
O15 O 1.1966(3) -0.2623(2) -0.3963(4)
O16 O 1.0471(3) -0.2576(2) -0.3693(3)
O17 O 1.0045(3) -0.0341(2) -0.3272(3)
O18 O 1.2174(4) -0.3920(3) -0.3862(4)
O19 O 1.1453(4) -0.3492(3) -0.4715(4)
O20 O 1.0452(3) -0.3901(3) -0.3470(3)
O21 O 1.0932(3) -0.3204(3) -0.2777(4)
O22 O 0.6159(3) -0.4815(2) 0.0981(3)
O23 O 0.6729(4) -0.4015(3) 0.1486(3)
O24 O 0.8820(3) -0.3672(2) -0.0668(3)
O25 O 0.6138(4) -0.5066(3) 0.2350(3)
O26 O 0.4808(4) -0.4894(3) 0.2104(3)
O27 O 0.5311(3) -0.3914(2) 0.2758(3)
O28 O 0.5201(4) -0.3655(3) 0.1639(3)
O29 O 0.3761(4) 0.0660(2) 0.3903(3)
O30 O 0.3717(4) 0.0760(3) 0.2719(3)
O31 O 0.4270(4) -0.1482(3) 0.2290(3)
W1 W 0.37685(2) 0.148952(16) 0.341425(18)
W2 W 0.99245(2) 0.257471(16) -0.215994(19)
W3 W 1.13937(2) -0.339386(17) -0.38878(2)
W4 W 0.56597(2) -0.453556(16) 0.196754(18)
N3 N 1.0337(6) 0.2215(4) 0.5291(5)
C131 C 1.0215(8) 0.2859(6) 0.4990(6)
H100 H 0.9939 0.2809 0.4687
H101 H 1.0745 0.3010 0.4704
C132 C 0.9703(8) 0.3376(6) 0.5565(7)
H102 H 0.9135 0.3282 0.5781
H103 H 0.9907 0.3360 0.5928
C133 C 0.9756(9) 0.4041(6) 0.5256(7)
H104 H 0.9556 0.4055 0.4891
H105 H 1.0325 0.4134 0.5042
C134 C 0.9237(9) 0.4571(7) 0.5831(8)
H106 H 0.9278 0.4998 0.5623
H107 H 0.9440 0.4562 0.6189
H108 H 0.8673 0.4482 0.6038
C135 C 1.0855(7) 0.2255(6) 0.5700(6)
H109 H 1.0542 0.2529 0.6117
H110 H 1.0965 0.1818 0.5854
C136 C 1.1640(7) 0.2523(6) 0.5295(6)
H111 H 1.1545 0.2983 0.5193
H112 H 1.1943 0.2281 0.4853
C137 C 1.2133(9) 0.2450(7) 0.5759(8)
H113 H 1.1784 0.2623 0.6229
H114 H 1.2294 0.1987 0.5798
C138 C 1.2793(10) 0.2763(8) 0.5490(9)
H115 H 1.3081 0.2709 0.5786
H116 H 1.2635 0.3223 0.5459
H117 H 1.3144 0.2587 0.5028
C139 C 1.0779(7) 0.1719(5) 0.4696(6)
H118 H 1.0446 0.1688 0.4438
H119 H 1.1292 0.1877 0.4375
C140 C 1.0960(9) 0.1055(6) 0.4924(7)
H120 H 1.0461 0.0900 0.5274
H121 H 1.1350 0.1063 0.5131
C141 C 1.1311(9) 0.0615(7) 0.4293(8)
H122 H 1.1801 0.0780 0.3942
H123 H 1.0916 0.0609 0.4091
C142 C 1.1530(11) -0.0093(8) 0.4493(9)
H124 H 1.1756 -0.0373 0.4081
H125 H 1.1042 -0.0258 0.4836
H126 H 1.1926 -0.0086 0.4687
C143 C 0.9539(11) 0.2026(9) 0.5822(10)
H127 H 0.9633 0.1617 0.6036
H128 H 0.9296 0.2363 0.6191
C144 C 0.8969(11) 0.1947(9) 0.5510(10)
H129 H 0.9172 0.1570 0.5189
H130 H 0.8925 0.2334 0.5244
C145 C 0.8114(11) 0.1844(9) 0.6097(10)
H131 H 0.7836 0.1568 0.5919
H132 H 0.8179 0.1623 0.6490
C146 C 0.7596(11) 0.2511(8) 0.6348(9)
H133 H 0.7067 0.2442 0.6712
H134 H 0.7527 0.2726 0.5960
H135 H 0.7870 0.2781 0.6529
N4 N 0.4179(7) 0.3998(6) 0.3693(6)
C147 C 0.5022(9) 0.3815(7) 0.3125(8)
H136 H 0.5000 0.3875 0.2672
H137 H 0.5387 0.4117 0.3154
C148 C 0.5381(10) 0.3135(8) 0.3152(10)
H138 H 0.5028 0.2826 0.3116
H139 H 0.5419 0.3069 0.3598
C149 C 0.6217(11) 0.3011(9) 0.2560(10)
H140 H 0.6163 0.2936 0.2127
H141 H 0.6506 0.3398 0.2500
C150 C 0.6707(12) 0.2434(11) 0.2692(13)
H142 H 0.7238 0.2371 0.2302
H143 H 0.6428 0.2049 0.2743
H144 H 0.6771 0.2511 0.3115
C151 C 0.4131(10) 0.3817(8) 0.4429(8)
H145 H 0.3593 0.3975 0.4785
H146 H 0.4206 0.3342 0.4462
C152 C 0.4781(11) 0.4116(9) 0.4561(8)
H147 H 0.4684 0.4593 0.4569
H148 H 0.5320 0.3984 0.4190
C153 C 0.4738(13) 0.3868(10) 0.5288(10)
H149 H 0.4620 0.3413 0.5346
H150 H 0.5266 0.3888 0.5303
C154 C 0.4097(15) 0.4272(11) 0.5867(10)
H151 H 0.4079 0.4113 0.6309
H152 H 0.3574 0.4247 0.5856
H153 H 0.4219 0.4722 0.5813
C155 C 0.3574(10) 0.3615(8) 0.3609(8)
H154 H 0.3037 0.3733 0.3988
H155 H 0.3726 0.3150 0.3646
C156 C 0.3523(10) 0.3734(9) 0.2907(8)
H156 H 0.3460 0.4204 0.2832
H157 H 0.4026 0.3544 0.2527
C157 C 0.2805(12) 0.3428(10) 0.2905(11)
H158 H 0.2859 0.2963 0.3005
H159 H 0.2810 0.3467 0.2440
C158 C 0.1992(12) 0.3749(12) 0.3444(13)
H160 H 0.1550 0.3540 0.3425
H161 H 0.1931 0.4208 0.3342
H162 H 0.1980 0.3704 0.3906
C159 C 0.4003(9) 0.4731(6) 0.3601(9)
H163 H 0.4149 0.4817 0.3106
H164 H 0.4340 0.4972 0.3748
C160 C 0.3097(9) 0.4975(7) 0.4030(10)
H165 H 0.2928 0.4876 0.4524
H166 H 0.2749 0.4774 0.3860
C161 C 0.3047(13) 0.5758(8) 0.3913(12)
H167 H 0.3314 0.5854 0.3416
H168 H 0.2478 0.5949 0.4096
C162 C 0.3468(16) 0.6028(10) 0.4296(14)
H169 H 0.3453 0.6496 0.4241
H170 H 0.4029 0.5834 0.4111
H171 H 0.3197 0.5929 0.4787
P3? P 0.8019(6) -0.0393(5) 0.9080(6)
P4? P 0.7358(10) -0.1269(8) 1.0200(8)
N5? N 0.743(2) -0.0624(17) 0.9801(19)
C163? C 0.834(2) -0.0954(16) 0.8265(17)
C164? C 0.787(3) -0.0864(17) 0.789(2)
H172? H 0.7577 -0.0457 0.7907
C165? C 0.784(3) -0.137(2) 0.750(3)
H173? H 0.7524 -0.1306 0.7240
C166? C 0.827(3) -0.1963(18) 0.747(2)
H174? H 0.8253 -0.2307 0.7203
C167? C 0.874(2) -0.2053(13) 0.7847(19)
H175? H 0.9035 -0.2459 0.7831
C168? C 0.8770(19) -0.1549(18) 0.8243(17)
H176? H 0.9087 -0.1611 0.8498
C169? C 0.8944(12) -0.0110(12) 0.9692(11)
H177? H 0.8451 -0.0108 1.0092
C170? C 0.9641(15) 0.0010(12) 0.9752(10)
H178? H 0.9623 0.0093 1.0193
C171? C 1.0363(12) 0.0007(12) 0.9167(13)
H179? H 1.0839 0.0088 0.9208
C172? C 1.0388(13) -0.0115(13) 0.8521(11)
H180? H 1.0882 -0.0117 0.8121
C173? C 0.9692(17) -0.0234(13) 0.8461(11)
H181? H 0.9709 -0.0317 0.8020
C174? C 0.8970(13) -0.0231(13) 0.9046(14)
C175? C 0.761(2) 0.0361(16) 0.8904(18)
C176? C 0.678(2) 0.0446(18) 0.9142(19)
H182? H 0.6462 0.0118 0.9401
C177? C 0.640(2) 0.1012(17) 0.9002(19)
H183? H 0.5831 0.1070 0.9165
C178? C 0.686(2) 0.1492(16) 0.8623(17)
H184? H 0.6603 0.1878 0.8527
C179? C 0.769(2) 0.1406(16) 0.8385(17)
H185? H 0.8006 0.1734 0.8126
C180? C 0.807(2) 0.0841(15) 0.8525(17)
H186? H 0.8636 0.0782 0.8363
C181? C 0.309(2) 0.1756(15) 1.005(2)
C182? C 0.307(2) 0.1832(16) 1.0699(19)
H187? H 0.2884 0.1508 1.1034
C183? C 0.333(2) 0.238(2) 1.0860(16)
H188? H 0.3315 0.2433 1.1306
C184? C 0.361(2) 0.2854(15) 1.037(2)
H189? H 0.3781 0.3230 1.0480
C185? C 0.363(2) 0.2779(16) 0.9718(19)
H190? H 0.3815 0.3102 0.9383
C186? C 0.337(2) 0.223(2) 0.9557(16)
H191? H 0.3384 0.2178 0.9111
C187? C 0.9154(19) 0.3876(14) 0.9468(16)
H192? H 0.9516 0.3651 0.9035
H193? H 0.8669 0.4076 0.9426
H194? H 0.9001 0.3566 0.9845
P5? P 0.8945(12) -0.1049(7) 0.9148(8)
P6? P 0.6634(12) -0.0691(10) 1.0455(11)
C188? C 0.740(3) -0.098(2) 1.125(2)
C189? C 0.668(4) -0.070(3) 1.125(3)
C190? C 0.749(3) -0.102(2) 1.186(3)
H195? H 0.7983 -0.1213 1.1864
C191? C 0.687(4) -0.078(3) 1.247(2)
H196? H 0.6930 -0.0806 1.2893
C192? C 0.615(4) -0.050(3) 1.247(3)
H197? H 0.5718 -0.0334 1.2890
C193? C 0.605(3) -0.046(3) 1.186(4)
H198? H 0.5559 -0.0270 1.1859
H199? H 0.7823 -0.1148 1.0832
loop_
_geom_bond_atom_site_label_1
_geom_bond_atom_site_label_2
_geom_bond_site_symmetry_1
_geom_bond_site_symmetry_2
O1 C1 1_555 1_555
P1 N1 1_555 1_555
P2 N1 1_555 1_555
C2 P2 1_555 1_555
C3 C2 1_555 1_555
H1 C3 1_555 1_555
C4 C3 1_555 1_555
H2 C4 1_555 1_555
C5 C4 1_555 1_555
H3 C5 1_555 1_555
C6 C5 1_555 1_555
H4 C6 1_555 1_555
C7 C2 1_555 1_555
H5 C7 1_555 1_555
C8 P2 1_555 1_555
C9 C8 1_555 1_555
H6 C9 1_555 1_555
C10 C9 1_555 1_555
H7 C10 1_555 1_555
C11 C10 1_555 1_555
H8 C11 1_555 1_555
C12 C11 1_555 1_555
H9 C12 1_555 1_555
C13 C8 1_555 1_555
H10 C13 1_555 1_555
C14 P1 1_555 1_555
C15 C14 1_555 1_555
H11 C15 1_555 1_555
C16 C15 1_555 1_555
H12 C16 1_555 1_555
C17 C16 1_555 1_555
H13 C17 1_555 1_555
C18 C17 1_555 1_555
H14 C18 1_555 1_555
C19 C14 1_555 1_555
H15 C19 1_555 1_555
C20 P1 1_555 1_555
C21 C20 1_555 1_555
H16 C21 1_555 1_555
C22 C21 1_555 1_555
H17 C22 1_555 1_555
C23 C22 1_555 1_555
H18 C23 1_555 1_555
C24 C23 1_555 1_555
H19 C24 1_555 1_555
C25 C20 1_555 1_555
H20 C25 1_555 1_555
C26 P1 1_555 1_555
C27 C26 1_555 1_555
H21 C27 1_555 1_555
C28 C27 1_555 1_555
H22 C28 1_555 1_555
C29 C28 1_555 1_555
H23 C29 1_555 1_555
C30 C29 1_555 1_555
H24 C30 1_555 1_555
C31 C26 1_555 1_555
H25 C31 1_555 1_555
C32 C33 1_555 1_555
C33 H26 1_555 1_555
C34 C33 1_555 1_555
H27 C34 1_555 1_555
C35 C34 1_555 1_555
H28 C35 1_555 1_555
C36 C35 1_555 1_555
H29 C36 1_555 1_555
C37 C32 1_555 1_555
H30 C37 1_555 1_555
O2 C38 1_555 1_555
C39 H31 1_555 1_555
H32 C39 1_555 1_555
H33 C39 1_555 1_555
N2 C40 1_555 1_555
C40 H34 1_555 1_555
H35 C40 1_555 1_555
C41 C40 1_555 1_555
H36 C41 1_555 1_555
H37 C41 1_555 1_555
C42 C41 1_555 1_555
H38 C42 1_555 1_555
H39 C42 1_555 1_555
C43 C42 1_555 1_555
C44 N2 1_555 1_555
H40 C44 1_555 1_555
H41 C44 1_555 1_555
C45 C44 1_555 1_555
H42 C45 1_555 1_555
H43 C45 1_555 1_555
C46 C45 1_555 1_555
H44 C46 1_555 1_555
H45 C46 1_555 1_555
C47 C46 1_555 1_555
H46 C47 1_555 1_555
H47 C47 1_555 1_555
H48 C47 1_555 1_555
C48 N2 1_555 1_555
H49 C48 1_555 1_555
H50 C48 1_555 1_555
C49 C48 1_555 1_555
H51 C49 1_555 1_555
H52 C49 1_555 1_555
C50 C49 1_555 1_555
H53 C50 1_555 1_555
H54 C50 1_555 1_555
C51 C50 1_555 1_555
H55 C51 1_555 1_555
H56 C51 1_555 1_555
H57 C51 1_555 1_555
C52 N2 1_555 1_555
H58 C52 1_555 1_555
H59 C52 1_555 1_555
C53 C52 1_555 1_555
H60 C53 1_555 1_555
H61 C53 1_555 1_555
C54 C39 1_555 1_555
H62 C54 1_555 1_555
H63 C54 1_555 1_555
C55 C56 1_555 1_555
C56 H64 1_555 1_555
C57 C56 1_555 1_555
C58 C57 1_555 1_555
C59 C58 1_555 1_555
H65 C59 1_555 1_555
C60 C55 1_555 1_555
C61 C60 1_555 1_555
C62 C61 1_555 1_555
C63 C62 1_555 1_555
H66 C63 1_555 1_555
C64 C63 1_555 1_555
C65 C64 1_555 1_555
C66 C65 1_555 1_555
H67 C66 1_555 1_555
C67 C62 1_555 1_555
C68 C61 1_555 1_555
C69 C68 1_555 1_555
H68 C69 1_555 1_555
C70 C69 1_555 1_555
H69 C70 1_555 1_555
C71 C70 1_555 1_555
H70 C71 1_555 1_555
C72 C71 1_555 1_555
H71 C72 1_555 1_555
C73 C68 1_555 1_555
H72 C73 1_555 1_555
C74 C75 1_555 1_555
C75 H73 1_555 1_555
C76 C75 1_555 1_555
C77 C76 1_555 1_555
C78 C77 1_555 1_555
H74 C78 1_555 1_555
C79 C74 1_555 1_555
C80 C79 1_555 1_555
C81 C80 1_555 1_555
C82 C81 1_555 1_555
H75 C82 1_555 1_555
C83 C82 1_555 1_555
C84 C83 1_555 1_555
C85 C84 1_555 1_555
H76 C85 1_555 1_555
C86 C81 1_555 1_555
C87 C80 1_555 1_555
C88 C87 1_555 1_555
H77 C88 1_555 1_555
C89 C88 1_555 1_555
H78 C89 1_555 1_555
C90 C89 1_555 1_555
H79 C90 1_555 1_555
C91 C90 1_555 1_555
H80 C91 1_555 1_555
C92 C87 1_555 1_555
H81 C92 1_555 1_555
C93 C94 1_555 1_555
C94 H82 1_555 1_555
C95 C94 1_555 1_555
C96 C95 1_555 1_555
C97 C96 1_555 1_555
H83 C97 1_555 1_555
C98 C93 1_555 1_555
C99 C98 1_555 1_555
C100 C99 1_555 1_555
C101 C100 1_555 1_555
H84 C101 1_555 1_555
C102 C101 1_555 1_555
C103 C102 1_555 1_555
C104 C103 1_555 1_555
H85 C104 1_555 1_555
C105 C100 1_555 1_555
C106 C99 1_555 1_555
C107 C106 1_555 1_555
H86 C107 1_555 1_555
C108 C107 1_555 1_555
H87 C108 1_555 1_555
C109 C108 1_555 1_555
H88 C109 1_555 1_555
C110 C109 1_555 1_555
H89 C110 1_555 1_555
C111 C106 1_555 1_555
H90 C111 1_555 1_555
C112 C113 1_555 1_555
C113 H91 1_555 1_555
C114 C113 1_555 1_555
C115 C114 1_555 1_555
C116 C115 1_555 1_555
H92 C116 1_555 1_555
C117 C112 1_555 1_555
C118 C117 1_555 1_555
C119 C118 1_555 1_555
C120 C119 1_555 1_555
H93 C120 1_555 1_555
C121 C120 1_555 1_555
C122 C121 1_555 1_555
C123 C122 1_555 1_555
H94 C123 1_555 1_555
C124 C119 1_555 1_555
C125 C118 1_555 1_555
C126 C125 1_555 1_555
H95 C126 1_555 1_555
C127 C126 1_555 1_555
H96 C127 1_555 1_555
C128 C127 1_555 1_555
H97 C128 1_555 1_555
C129 C128 1_555 1_555
H98 C129 1_555 1_555
C130 C125 1_555 1_555
H99 C130 1_555 1_555
O4 W1 1_555 1_555
O5 W1 1_555 1_555
O6 C58 1_555 1_555
O7 C57 1_555 1_555
O8 C64 1_555 1_555
O9 C65 1_555 1_555
O10 C55 1_555 1_555
O11 W2 1_555 1_555
O12 W2 1_555 1_555
O13 C77 1_555 1_555
O14 C76 1_555 1_555
O15 C83 1_555 1_555
O16 C84 1_555 1_555
O17 C74 1_555 1_555
O18 W3 1_555 1_555
O19 W3 1_555 1_555
O20 C96 1_555 1_555
O21 C95 1_555 1_555
O22 C102 1_555 1_555
O23 C103 1_555 1_555
O24 C93 1_555 1_555
O25 W4 1_555 1_555
O26 W4 1_555 1_555
O27 C115 1_555 1_555
O28 C114 1_555 1_555
O29 C121 1_555 1_555
O30 C122 1_555 1_555
O31 C112 1_555 1_555
W1 O6 1_555 1_555
W2 O8 1_555 1_555
W3 O15 1_555 1_555
W4 O22 1_555 1_555
N3 C131 1_555 1_555
C131 H100 1_555 1_555
H101 C131 1_555 1_555
C132 C131 1_555 1_555
H102 C132 1_555 1_555
H103 C132 1_555 1_555
C133 C132 1_555 1_555
H104 C133 1_555 1_555
H105 C133 1_555 1_555
C134 C133 1_555 1_555
H106 C134 1_555 1_555
H107 C134 1_555 1_555
H108 C134 1_555 1_555
C135 N3 1_555 1_555
H109 C135 1_555 1_555
H110 C135 1_555 1_555
C136 C135 1_555 1_555
H111 C136 1_555 1_555
H112 C136 1_555 1_555
C137 C136 1_555 1_555
H113 C137 1_555 1_555
H114 C137 1_555 1_555
C138 C137 1_555 1_555
H115 C138 1_555 1_555
H116 C138 1_555 1_555
H117 C138 1_555 1_555
C139 N3 1_555 1_555
H118 C139 1_555 1_555
H119 C139 1_555 1_555
C140 C139 1_555 1_555
H120 C140 1_555 1_555
H121 C140 1_555 1_555
C141 C140 1_555 1_555
H122 C141 1_555 1_555
H123 C141 1_555 1_555
C142 C141 1_555 1_555
H124 C142 1_555 1_555
H125 C142 1_555 1_555
H126 C142 1_555 1_555
C143 N3 1_555 1_555
H127 C143 1_555 1_555
H128 C143 1_555 1_555
C144 C143 1_555 1_555
H129 C144 1_555 1_555
H130 C144 1_555 1_555
C145 C144 1_555 1_555
H131 C145 1_555 1_555
H132 C145 1_555 1_555
C146 C145 1_555 1_555
H133 C146 1_555 1_555
H134 C146 1_555 1_555
H135 C146 1_555 1_555
N4 C147 1_555 1_555
C147 H136 1_555 1_555
H137 C147 1_555 1_555
C148 C147 1_555 1_555
H138 C148 1_555 1_555
H139 C148 1_555 1_555
C149 C148 1_555 1_555
H140 C149 1_555 1_555
H141 C149 1_555 1_555
C150 C149 1_555 1_555
H142 C150 1_555 1_555
H143 C150 1_555 1_555
H144 C150 1_555 1_555
C151 N4 1_555 1_555
H145 C151 1_555 1_555
H146 C151 1_555 1_555
C152 C151 1_555 1_555
H147 C152 1_555 1_555
H148 C152 1_555 1_555
C153 C152 1_555 1_555
H149 C153 1_555 1_555
H150 C153 1_555 1_555
C154 C153 1_555 1_555
H151 C154 1_555 1_555
H152 C154 1_555 1_555
H153 C154 1_555 1_555
C155 N4 1_555 1_555
H154 C155 1_555 1_555
H155 C155 1_555 1_555
C156 C155 1_555 1_555
H156 C156 1_555 1_555
H157 C156 1_555 1_555
C157 C156 1_555 1_555
H158 C157 1_555 1_555
H159 C157 1_555 1_555
C158 C157 1_555 1_555
H160 C158 1_555 1_555
H161 C158 1_555 1_555
H162 C158 1_555 1_555
C159 N4 1_555 1_555
H163 C159 1_555 1_555
H164 C159 1_555 1_555
C160 C159 1_555 1_555
H165 C160 1_555 1_555
H166 C160 1_555 1_555
C161 C160 1_555 1_555
H167 C161 1_555 1_555
H168 C161 1_555 1_555
C162 C161 1_555 1_555
H169 C162 1_555 1_555
H170 C162 1_555 1_555
H171 C162 1_555 1_555
C32A P2 1_555 1_555
C33A C32A 1_555 1_555
H26A C33A 1_555 1_555
C34A C33A 1_555 1_555
H27A C34A 1_555 1_555
C35A C34A 1_555 1_555
H28A C35A 1_555 1_555
C36A C35A 1_555 1_555
H29A C36A 1_555 1_555
C37A C32A 1_555 1_555
H30A C37A 1_555 1_555
P1A N1A 1_555 1_555
P2A C32 1_555 1_555
N1A P2A 1_555 1_555
C2A P2A 1_555 1_555
C3A C2A 1_555 1_555
H1A C3A 1_555 1_555
C4A C3A 1_555 1_555
H2A C4A 1_555 1_555
C5A C4A 1_555 1_555
H3A C5A 1_555 1_555
C6A C5A 1_555 1_555
H4A C6A 1_555 1_555
C7A C2A 1_555 1_555
H5A C7A 1_555 1_555
C8A P2A 1_555 1_555
C9A C8A 1_555 1_555
H6A C9A 1_555 1_555
C10A C9A 1_555 1_555
H7A C10A 1_555 1_555
C11A C10A 1_555 1_555
H8A C11A 1_555 1_555
C12A C11A 1_555 1_555
H9A C12A 1_555 1_555
C13A C8A 1_555 1_555
H10A C13A 1_555 1_555
C14A P1A 1_555 1_555
C15A C14A 1_555 1_555
H11A C15A 1_555 1_555
C16A C15A 1_555 1_555
H12A C16A 1_555 1_555
C17A C16A 1_555 1_555
H13A C17A 1_555 1_555
C18A C17A 1_555 1_555
H14A C18A 1_555 1_555
C19A C14A 1_555 1_555
H15A C19A 1_555 1_555
C20A P1A 1_555 1_555
C21A C20A 1_555 1_555
H16A C21A 1_555 1_555
C22A C21A 1_555 1_555
H17A C22A 1_555 1_555
C23A C22A 1_555 1_555
H18A C23A 1_555 1_555
C24A C23A 1_555 1_555
H19A C24A 1_555 1_555
C25A C20A 1_555 1_555
H20A C25A 1_555 1_555
C26A P1A 1_555 1_555
C27A C26A 1_555 1_555
H21A C27A 1_555 1_555
C28A C27A 1_555 1_555
H22A C28A 1_555 1_555
C29A C28A 1_555 1_555
H23A C29A 1_555 1_555
C30A C29A 1_555 1_555
H24A C30A 1_555 1_555
C31A C26A 1_555 1_555
H25A C31A 1_555 1_555
C6 C7 1_555 1_555
C12 C13 1_555 1_555
C18 C19 1_555 1_555
C24 C25 1_555 1_555
C30 C31 1_555 1_555
C36 C37 1_555 1_555
C53 C54 1_555 1_555
C59 C60 1_555 1_555
C66 C67 1_555 1_555
C67 O10 1_555 1_555
C72 C73 1_555 1_555
C78 C79 1_555 1_555
C85 C86 1_555 1_555
C86 O17 1_555 1_555
C91 C92 1_555 1_555
C97 C98 1_555 1_555
C104 C105 1_555 1_555
C105 O24 1_555 1_555
C110 C111 1_555 1_555
C116 C117 1_555 1_555
C123 C124 1_555 1_555
C124 O31 1_555 1_555
C129 C130 1_555 1_555
O7 W1 1_555 1_555
O9 W2 1_555 1_555
O13 W2 1_555 1_555
O14 W2 1_555 1_555
O16 W3 1_555 1_555
O20 W3 1_555 1_555
O21 W3 1_555 1_555
O23 W4 1_555 1_555
O27 W4 1_555 1_555
O28 W4 1_555 1_555
O29 W1 1_555 1_555
O30 W1 1_555 1_555
C36A C37A 1_555 1_555
C6A C7A 1_555 1_555
C12A C13A 1_555 1_555
C18A C19A 1_555 1_555
C24A C25A 1_555 1_555
C30A C31A 1_555 1_555

#END
