
#######################################################################
#
#                 Cambridge Crystallographic Data Centre
#                                CCDC 
#
#######################################################################
#
# If this CIF has been generated from an entry in the Cambridge 
# Structural Database, then it will include bibliographic, chemical, 
# crystal, experimental, refinement or atomic coordinate data resulting 
# from the CCDC's data processing and validation procedures.
#
#######################################################################

data_TISTAS
_chemical_formula_moiety         
'C76 H36 Mo4 O28 4-,C36 H30 N1 P2 1+,3(C16 H36 N1 1+),4.5(C1 H4 O1),H2 O1'
_chemical_name_systematic        
'bis(triphenylphosphoranylidene)animinium tris(tetra-n-butylammonium) tetrakis(\m~2~-2,6-dioxy-3-oxo-9-phenylxanthen-7-olate)-octakis(oxido)-tetra-molybdenum methanol solvate monohydrate'
_symmetry_cell_setting           triclinic
_symmetry_space_group_name_H-M   'P -1'
_symmetry_Int_Tables_number      2
_space_group_name_Hall           '-P 1'
loop_
_symmetry_equiv_pos_site_id
_symmetry_equiv_pos_as_xyz
1 x,y,z
2 -x,-y,-z
_cell_length_a                   18.9580(3)
_cell_length_b                   21.1324(6)
_cell_length_c                   22.6782(4)
_cell_angle_alpha                75.049(2)
_cell_angle_beta                 82.216(2)
_cell_angle_gamma                63.834(2)
_cell_volume                     7875.93
_exptl_crystal_colour            red
_exptl_crystal_description       rod
_cell_formula_units_Z            2
loop_
_atom_site_label
_atom_site_type_symbol
_atom_site_fract_x
_atom_site_fract_y
_atom_site_fract_z
C1 C 0.2885(3) 0.0211(3) 0.4708(2)
C2 C 0.2667(3) 0.0832(3) 0.4250(2)
H1 H 0.2688 0.1255 0.4302
C3 C 0.2412(3) 0.0813(3) 0.3703(2)
C4 C 0.2394(3) 0.0164(3) 0.3644(2)
C5 C 0.2654(3) -0.0455(3) 0.4091(2)
H2 H 0.2671 -0.0888 0.4026
C6 C 0.2902(3) -0.0449(3) 0.4660(2)
C7 C 0.3114(3) -0.1040(3) 0.5168(2)
C8 C 0.3259(3) -0.0953(3) 0.5727(2)
C9 C 0.3440(3) -0.1507(3) 0.6282(2)
H3 H 0.3507 -0.1980 0.6282
C10 C 0.3515(3) -0.1344(3) 0.6811(2)
C11 C 0.3453(3) -0.0641(3) 0.6824(2)
C12 C 0.3307(3) -0.0106(3) 0.6277(2)
H4 H 0.3273 0.0358 0.6273
C13 C 0.3215(3) -0.0267(3) 0.5752(2)
C14 C 0.3154(3) -0.1742(3) 0.5112(2)
C15 C 0.2663(3) -0.2032(3) 0.5485(3)
H5 H 0.2326 -0.1796 0.5787
C16 C 0.2681(4) -0.2680(4) 0.5405(3)
H6 H 0.2345 -0.2877 0.5649
C17 C 0.3185(4) -0.3030(4) 0.4972(3)
H7 H 0.3193 -0.3465 0.4921
C18 C 0.3681(4) -0.2747(3) 0.4611(3)
H8 H 0.4029 -0.2990 0.4317
C19 C 0.3661(3) -0.2103(3) 0.4686(2)
H9 H 0.3999 -0.1910 0.4442
C20 C 0.0881(3) 0.0706(3) 0.8453(2)
C21 C 0.1183(3) 0.0160(3) 0.8139(2)
H10 H 0.0855 0.0103 0.7895
C22 C 0.1980(3) -0.0307(3) 0.8188(2)
C23 C 0.2468(3) -0.0207(3) 0.8567(2)
C24 C 0.2157(3) 0.0344(3) 0.8868(2)
H11 H 0.2485 0.0406 0.9108
C25 C 0.1341(3) 0.0828(3) 0.8822(2)
C26 C 0.0960(3) 0.1390(3) 0.9134(2)
C27 C 0.0151(3) 0.1820(3) 0.9082(2)
C28 C -0.0284(3) 0.2404(3) 0.9380(2)
H12 H -0.0020 0.2529 0.9626
C29 C -0.1082(3) 0.2786(3) 0.9312(2)
C30 C -0.1499(3) 0.2621(3) 0.8933(2)
C31 C -0.1082(3) 0.2056(3) 0.8623(2)
H13 H -0.1345 0.1941 0.8367
C32 C -0.0276(3) 0.1673(3) 0.8704(2)
C33 C 0.1424(3) 0.1504(3) 0.9551(2)
C34 C 0.1407(4) 0.1206(3) 1.0173(3)
H14 H 0.1100 0.0942 1.0329
C35 C 0.1849(4) 0.1297(4) 1.0570(3)
H15 H 0.1840 0.1098 1.0996
C36 C 0.2292(4) 0.1677(4) 1.0337(3)
H16 H 0.2598 0.1726 1.0607
C37 C 0.2308(5) 0.1992(4) 0.9717(4)
H17 H 0.2614 0.2257 0.9566
C38 C 0.1856(4) 0.1908(4) 0.9312(3)
H18 H 0.1848 0.2124 0.8888
C39 C -0.2905(3) 0.5350(3) 0.7041(2)
C40 C -0.2340(3) 0.4961(3) 0.7473(2)
H19 H -0.1811 0.4894 0.7382
C41 C -0.2566(3) 0.4666(3) 0.8056(3)
C42 C -0.3376(3) 0.4781(3) 0.8182(3)
C43 C -0.3933(3) 0.5175(3) 0.7748(2)
H20 H -0.4463 0.5247 0.7840
C44 C -0.3710(3) 0.5482(3) 0.7146(2)
C45 C -0.4231(3) 0.5891(3) 0.6672(2)
C46 C -0.3956(3) 0.6136(3) 0.6089(2)
C47 C -0.4438(3) 0.6494(3) 0.5563(2)
H21 H -0.4987 0.6622 0.5598
C48 C -0.4088(3) 0.6648(3) 0.5007(2)
C49 C -0.3269(3) 0.6488(3) 0.4943(2)
C50 C -0.2803(3) 0.6170(3) 0.5460(2)
H22 H -0.2265 0.6086 0.5433
C51 C -0.3151(3) 0.5984(3) 0.6011(2)
C52 C -0.5088(3) 0.6034(3) 0.6778(2)
C53 C -0.5346(4) 0.5581(4) 0.6631(3)
H23 H -0.4987 0.5185 0.6462
C54 C -0.6139(4) 0.5701(4) 0.6729(3)
H24 H -0.6319 0.5389 0.6627
C55 C -0.6658(4) 0.6281(3) 0.6978(3)
H25 H -0.7194 0.6367 0.7051
C56 C -0.6391(4) 0.6726(4) 0.7117(3)
H26 H -0.6752 0.7127 0.7279
C57 C -0.5604(4) 0.6611(3) 0.7027(3)
H27 H -0.5427 0.6922 0.7135
C58 C -0.1722(3) 0.4449(3) 0.3327(2)
C59 C -0.2398(3) 0.4721(3) 0.3681(2)
H28 H -0.2579 0.4407 0.3969
C60 C -0.2803(3) 0.5472(3) 0.3600(2)
C61 C -0.2496(3) 0.5933(3) 0.3163(2)
C62 C -0.1838(3) 0.5643(3) 0.2819(2)
H29 H -0.1655 0.5954 0.2529
C63 C -0.1422(3) 0.4886(3) 0.2884(2)
C64 C -0.0733(3) 0.4538(3) 0.2543(2)
C65 C -0.0356(3) 0.3780(3) 0.2661(2)
C66 C 0.0331(3) 0.3374(3) 0.2343(2)
H30 H 0.0562 0.3621 0.2026
C67 C 0.0660(3) 0.2642(3) 0.2489(2)
C68 C 0.0327(3) 0.2239(3) 0.2960(2)
C69 C -0.0382(3) 0.2624(3) 0.3262(2)
H31 H -0.0635 0.2376 0.3555
C70 C -0.0693(3) 0.3373(3) 0.3114(2)
C71 C -0.0406(3) 0.4969(3) 0.2058(2)
C72 C 0.0378(3) 0.4852(3) 0.2075(2)
H32 H 0.0690 0.4519 0.2410
C73 C 0.0706(3) 0.5221(3) 0.1605(2)
H33 H 0.1244 0.5127 0.1613
C74 C 0.0233(3) 0.5737(3) 0.1115(3)
H34 H 0.0450 0.5992 0.0793
C75 C -0.0551(3) 0.5865(3) 0.1109(3)
H35 H -0.0873 0.6219 0.0787
C76 C -0.0875(3) 0.5478(3) 0.1575(2)
H36 H -0.1409 0.5561 0.1561
O1 O 0.25985(19) 0.10783(19) 0.20531(15)
O2 O 0.1287(2) 0.08759(19) 0.20932(16)
O3 O 0.21176(19) 0.02132(18) 0.31093(15)
O4 O 0.21847(19) 0.13522(17) 0.32340(14)
O5 O 0.35467(19) -0.05538(18) 0.73442(14)
O6 O 0.3639(2) -0.18027(18) 0.73588(15)
O7 O 0.30599(19) 0.02747(17) 0.52494(14)
O8 O 0.4553(2) -0.1699(2) 0.82483(17)
O9 O 0.3397(2) -0.2144(2) 0.85602(17)
O10 O 0.32128(19) -0.0700(2) 0.85952(15)
O11 O 0.2329(2) -0.0844(2) 0.79310(15)
O12 O -0.15297(19) 0.3330(2) 0.95840(14)
O13 O -0.2246(2) 0.3026(2) 0.88880(16)
O14 O 0.0094(2) 0.1134(2) 0.84007(15)
O15 O -0.3174(2) 0.3538(2) 0.98501(16)
O16 O -0.2716(2) 0.4606(2) 0.96654(17)
O17 O -0.3511(2) 0.4449(2) 0.87450(15)
O18 O -0.2097(2) 0.4290(2) 0.85062(15)
O19 O -0.44693(19) 0.69328(19) 0.44768(14)
O20 O -0.30121(19) 0.66465(19) 0.43882(14)
O21 O -0.26538(19) 0.5620(2) 0.64872(14)
O22 O -0.4632(2) 0.7089(2) 0.32957(16)
O23 O -0.3893(2) 0.7832(2) 0.34924(16)
O24 O -0.2918(2) 0.66402(18) 0.31296(15)
O25 O -0.3441(2) 0.58050(19) 0.38903(15)
O26 O 0.13107(18) 0.22231(18) 0.22099(14)
O27 O 0.0692(2) 0.15436(18) 0.30574(16)
O28 O -0.13551(19) 0.37090(18) 0.34269(15)
Mo1 Mo 0.17683(2) 0.11549(2) 0.248721(17)
Mo2 Mo 0.35888(2) -0.14551(2) 0.810777(18)
Mo3 Mo -0.26546(2) 0.39369(3) 0.935068(18)
Mo4 Mo -0.38700(2) 0.69854(2) 0.368700(17)
N1 N 0.5108(5) 0.6801(5) -0.0103(4)
C77 C 0.6206(13) 0.6807(13) -0.0929(8)
H37 H 0.5985 0.6657 -0.1211
H38 H 0.5984 0.7342 -0.1027
C78 C 0.4516(11) 0.5911(9) -0.1114(7)
H39 H 0.4766 0.6066 -0.1502
H40 H 0.3958 0.6263 -0.1114
C79 C 0.5991(8) 0.6527(7) -0.0257(6)
H41 H 0.6228 0.5992 -0.0168
H42 H 0.6233 0.6671 0.0015
C80 C 0.4999(6) 0.6388(6) 0.0536(4)
H43 H 0.4439 0.6473 0.0597
H44 H 0.5314 0.5864 0.0559
C81 C 0.4771(6) 0.7625(6) -0.0137(5)
H45 H 0.5092 0.7707 0.0120
H46 H 0.4829 0.7872 -0.0563
C82 C 0.7359(12) 0.6717(11) -0.1663(8)
H47 H 0.7935 0.6506 -0.1698
H48 H 0.7150 0.7245 -0.1780
H49 H 0.7155 0.6545 -0.1933
C83 C 0.4919(6) 0.5928(6) -0.0585(5)
H50 H 0.4771 0.5665 -0.0197
H51 H 0.5497 0.5689 -0.0643
C84 C 0.5187(7) 0.6082(6) 0.1655(5)
H52 H 0.5549 0.5579 0.1633
H53 H 0.4647 0.6113 0.1724
C85 C 0.4668(6) 0.6696(5) -0.0562(4)
H54 H 0.4099 0.6909 -0.0458
H55 H 0.4745 0.6966 -0.0974
C86 C 0.5229(6) 0.6585(6) 0.1058(4)
H56 H 0.5770 0.6551 0.0983
H57 H 0.4869 0.7090 0.1077
C87 C 0.7107(7) 0.6486(7) -0.1001(5)
H58 H 0.7321 0.6653 -0.0728
H59 H 0.7325 0.5952 -0.0881
C88 C 0.392(2) 0.7970(17) 0.0064(14)
H60 H 0.3575 0.8030 -0.0255
H61 H 0.3819 0.7661 0.0444
C89 C 0.5412(8) 0.6276(7) 0.2210(6)
H62 H 0.5378 0.5939 0.2590
H63 H 0.5048 0.6771 0.2238
H64 H 0.5950 0.6237 0.2148
C90 C 0.4556(8) 0.5162(8) -0.1090(6)
H65 H 0.4288 0.5188 -0.1442
H66 H 0.4299 0.5009 -0.0712
H67 H 0.5107 0.4812 -0.1101
C91 C 0.3760(8) 0.8693(8) 0.0172(7)
H68 H 0.4127 0.8623 0.0480
H69 H 0.3865 0.8993 -0.0212
C92 C 0.2952(11) 0.9080(11) 0.0384(9)
H70 H 0.2882 0.9547 0.0446
H71 H 0.2848 0.8792 0.0769
H72 H 0.2585 0.9162 0.0077
C109 C 0.9311(3) 0.1819(3) 0.1895(3)
H109 H 0.9659 0.1958 0.2069
H110 H 0.9649 0.1390 0.1726
C110 C 0.8785(4) 0.1610(3) 0.2410(3)
H111 H 0.8389 0.1524 0.2240
H112 H 0.8507 0.2003 0.2632
C111 C 0.9333(4) 0.0905(3) 0.2848(3)
H113 H 0.9649 0.0533 0.2612
H114 H 0.9699 0.1008 0.3040
C112 C 0.8845(4) 0.0614(4) 0.3351(3)
H115 H 0.9199 0.0173 0.3621
H116 H 0.8488 0.0506 0.3162
H117 H 0.8538 0.0980 0.3589
C113 C 0.9053(12) 0.0559(11) 0.0158(8)
H118 H 0.8783 0.0438 -0.0105
H119 H 0.9279 0.0147 0.0502
H120 H 0.9473 0.0670 -0.0077
C114 C 0.8435(10) 0.2040(11) 0.1040(7)
H121 H 0.8052 0.1926 0.1338
H122 H 0.8134 0.2404 0.0686
C115 C 0.8460(11) 0.1223(11) 0.0402(8)
H123 H 0.8033 0.1122 0.0647
H124 H 0.8228 0.1649 0.0064
C116 C 0.8989(11) 0.1346(11) 0.0817(8)
H125 H 0.9194 0.0929 0.1168
H126 H 0.9439 0.1408 0.0576
C117 C 0.9458(3) 0.2581(3) 0.0902(3)
H127 H 0.9176 0.2918 0.0530
H128 H 0.9822 0.2120 0.0788
C118 C 0.9944(3) 0.2899(3) 0.1111(3)
H129 H 1.0356 0.2517 0.1392
H130 H 0.9602 0.3284 0.1328
C119 C 1.0326(4) 0.3215(4) 0.0530(3)
H131 H 1.0639 0.2830 0.0305
H132 H 0.9907 0.3605 0.0260
C120 C 1.0863(5) 0.3519(5) 0.0696(4)
H133 H 1.1094 0.3713 0.0322
H134 H 1.1282 0.3131 0.0958
H135 H 1.0551 0.3905 0.0913
C121 C 0.7876(12) 0.4457(11) 0.1799(9)
H136 H 0.7526 0.4854 0.1994
H137 H 0.8246 0.4604 0.1520
H138 H 0.8168 0.4031 0.2113
C122 C 0.7374(8) 0.4268(7) 0.1431(6)
H139 H 0.6994 0.4132 0.1715
H140 H 0.7072 0.4704 0.1122
C123 C 0.7877(8) 0.3652(8) 0.1112(6)
H141 H 0.8284 0.3768 0.0846
H142 H 0.7544 0.3586 0.0854
C124 C 0.8281(8) 0.2936(8) 0.1613(6)
H143 H 0.8486 0.3043 0.1936
H144 H 0.7886 0.2753 0.1804
N3 N 0.8857(3) 0.2439(3) 0.1375(2)
C134 C 0.0301(3) 0.1702(3) 0.5042(2)
C135 C -0.0429(5) 0.1870(4) 0.4807(3)
H166 H -0.0862 0.2326 0.4804
C136 C -0.0497(5) 0.1338(4) 0.4576(4)
H167 H -0.0984 0.1433 0.4422
C137 C 0.0142(5) 0.0681(4) 0.4575(3)
H168 H 0.0100 0.0339 0.4396
C138 C 0.0847(4) 0.0515(4) 0.4834(3)
H169 H 0.1275 0.0054 0.4847
C139 C 0.0923(4) 0.1024(3) 0.5071(3)
H170 H 0.1399 0.0908 0.5254
C140 C 0.0721(3) 0.2910(3) 0.4576(2)
C141 C 0.1144(3) 0.2564(3) 0.4117(2)
H171 H 0.1209 0.2088 0.4130
C142 C 0.1475(3) 0.2916(3) 0.3633(2)
H172 H 0.1786 0.2672 0.3327
C143 C 0.1349(3) 0.3624(3) 0.3600(2)
H173 H 0.1568 0.3866 0.3269
C144 C 0.0891(3) 0.3986(3) 0.4062(2)
H174 H 0.0801 0.4471 0.4039
C145 C 0.0576(3) 0.3629(3) 0.4546(2)
H175 H 0.0264 0.3869 0.4855
C146 C 0.1198(3) 0.2000(3) 0.5783(2)
C147 C 0.1768(3) 0.2270(3) 0.5726(3)
H176 H 0.1796 0.2613 0.5369
C148 C 0.2293(4) 0.2030(3) 0.6197(3)
H177 H 0.2678 0.2212 0.6164
C149 C 0.2249(4) 0.1520(4) 0.6720(3)
H178 H 0.2600 0.1361 0.7044
C150 C 0.1690(4) 0.1246(4) 0.6765(3)
H179 H 0.1667 0.0897 0.7119
C151 C 0.1164(3) 0.1476(3) 0.6297(2)
H180 H 0.0791 0.1281 0.6326
C152 C -0.1856(3) 0.3654(4) 0.5969(3)
C153 C -0.2046(3) 0.4127(3) 0.5390(2)
H181 H -0.1646 0.4118 0.5086
C154 C -0.2832(3) 0.4612(3) 0.5268(2)
H182 H -0.2963 0.4937 0.4881
C155 C -0.3420(3) 0.4621(3) 0.5706(2)
H183 H -0.3952 0.4942 0.5612
C156 C -0.3239(4) 0.4168(5) 0.6275(3)
H184 H -0.3640 0.4179 0.6578
C157 C -0.2445(4) 0.3687(5) 0.6401(3)
H185 H -0.2316 0.3378 0.6795
C158 C -0.0632(3) 0.1691(3) 0.7000(2)
H186 H -0.0320 0.1800 0.7216
C159 C -0.0995(3) 0.2167(3) 0.6461(2)
C160 C -0.1449(5) 0.2001(5) 0.6154(3)
H187 H -0.1697 0.2323 0.5789
C161 C -0.1548(6) 0.1376(6) 0.6372(4)
H188 H -0.1873 0.1279 0.6158
C162 C -0.1186(5) 0.0880(5) 0.6898(3)
H189 H -0.1243 0.0440 0.7038
C163 C -0.0734(3) 0.1057(3) 0.7215(3)
H190 H -0.0492 0.0737 0.7583
C164 C -0.0468(3) 0.3195(3) 0.6682(2)
C165 C -0.0779(3) 0.3183(3) 0.7284(2)
H191 H -0.1222 0.3078 0.7405
C166 C -0.0419(3) 0.3329(3) 0.7700(2)
H192 H -0.0630 0.3335 0.8104
C167 C 0.0236(4) 0.3465(3) 0.7535(3)
H193 H 0.0490 0.3540 0.7826
C168 C 0.0522(4) 0.3490(3) 0.6930(3)
H194 H 0.0963 0.3599 0.6811
C169 C 0.0177(3) 0.3361(3) 0.6506(2)
H195 H 0.0376 0.3384 0.6097
N4 N -0.0388(2) 0.2974(2) 0.54942(19)
P1 P 0.04064(8) 0.24189(7) 0.52524(6)
P2 P -0.08780(8) 0.29847(8) 0.61268(6)
C170 C 0.4740(3) 0.0460(3) 0.6711(2)
H196 H 0.4386 0.0924 0.6824
H197 H 0.4419 0.0201 0.6698
C171 C 0.5097(3) 0.0621(3) 0.6069(3)
H198 H 0.5363 0.0935 0.6060
H199 H 0.5493 0.0164 0.5966
C172 C 0.4444(3) 0.0999(3) 0.5600(3)
H200 H 0.4031 0.1433 0.5727
H201 H 0.4203 0.0669 0.5597
C173 C 0.4738(4) 0.1227(4) 0.4950(3)
H202 H 0.4297 0.1465 0.4672
H203 H 0.5139 0.0799 0.4817
H204 H 0.4966 0.1564 0.4947
C174 C 0.5903(3) -0.0723(3) 0.7057(2)
H205 H 0.6202 -0.0638 0.6675
H206 H 0.6286 -0.1002 0.7387
C175 C 0.5509(3) -0.1177(3) 0.6982(3)
H207 H 0.5127 -0.0915 0.6649
H208 H 0.5223 -0.1290 0.7364
C176 C 0.6163(4) -0.1887(3) 0.6827(3)
H209 H 0.6564 -0.2125 0.7147
H210 H 0.6424 -0.1770 0.6433
C177 C 0.5810(5) -0.2418(4) 0.6786(4)
H211 H 0.6231 -0.2860 0.6688
H212 H 0.5419 -0.2186 0.6465
H213 H 0.5558 -0.2540 0.7178
C178 C 0.5879(3) 0.0368(3) 0.7244(2)
H214 H 0.6136 0.0451 0.6840
H215 H 0.6298 0.0031 0.7538
C179 C 0.5450(3) 0.1093(3) 0.7444(3)
H216 H 0.5194 0.1022 0.7850
H217 H 0.5041 0.1445 0.7148
C180 C 0.6080(4) 0.1383(4) 0.7471(3)
H218 H 0.6366 0.1402 0.7073
H219 H 0.5803 0.1883 0.7533
C181 C 0.6657(5) 0.0940(5) 0.7960(4)
H220 H 0.7027 0.1152 0.7949
H221 H 0.6945 0.0446 0.7896
H222 H 0.6381 0.0928 0.8357
C182 C 0.4887(3) -0.0088(3) 0.7801(2)
H223 H 0.4559 -0.0329 0.7754
H224 H 0.4529 0.0395 0.7876
C183 C 0.5402(4) -0.0532(4) 0.8359(3)
H225 H 0.5701 -0.1041 0.8324
H226 H 0.5782 -0.0336 0.8384
C184 C 0.4870(5) -0.0492(5) 0.8928(4)
H227 H 0.4531 -0.0737 0.8924
H228 H 0.4528 0.0020 0.8937
C185 C 0.5387(7) -0.0864(6) 0.9500(5)
H229 H 0.5049 -0.0840 0.9869
H230 H 0.5718 -0.0616 0.9503
H231 H 0.5722 -0.1371 0.9490
N5 N 0.5352(2) 0.0008(2) 0.72029(19)
C187 C 0.1314(6) 0.9666(5) 0.1318(4)
H235 H 0.1586 0.9860 0.0973
H236 H 0.1107 0.9374 0.1188
H237 H 0.1683 0.9363 0.1649
O31 O 0.0700(3) 1.0231(3) 0.1524(2)
C188 C 0.8931(4) 0.5346(4) 0.4449(3)
H238 H 0.9482 0.5136 0.4562
H239 H 0.8898 0.5216 0.4072
H240 H 0.8634 0.5157 0.4777
O32 O 0.8612(2) 0.6103(2) 0.43574(18)
O33 O 0.7280(7) 0.7485(7) 0.2001(5)
C189 C 0.6959(11) 0.8147(10) 0.2062(8)
H241 H 0.6606 0.8187 0.2422
H242 H 0.6659 0.8465 0.1698
H243 H 0.7370 0.8290 0.2113
O34 O 0.2977(5) 0.6759(5) 0.2163(4)
C190 C 0.2956(6) 0.7337(6) 0.2225(5)
O36 O 0.4625(9) 0.6293(8) 0.3288(7)
O37 O 0.5222(5) 0.5440(4) 0.4458(4)
C191 C 0.4905(10) 0.5902(9) 0.3875(8)
loop_
_geom_bond_atom_site_label_1
_geom_bond_atom_site_label_2
_geom_bond_site_symmetry_1
_geom_bond_site_symmetry_2
C1 C2 1_555 1_555
C2 H1 1_555 1_555
C3 C2 1_555 1_555
C4 C3 1_555 1_555
C5 C4 1_555 1_555
H2 C5 1_555 1_555
C6 C1 1_555 1_555
C7 C6 1_555 1_555
C8 C7 1_555 1_555
C9 C8 1_555 1_555
H3 C9 1_555 1_555
C10 C9 1_555 1_555
C11 C10 1_555 1_555
C12 C11 1_555 1_555
H4 C12 1_555 1_555
C13 C8 1_555 1_555
C14 C7 1_555 1_555
C15 C14 1_555 1_555
H5 C15 1_555 1_555
C16 C15 1_555 1_555
H6 C16 1_555 1_555
C17 C16 1_555 1_555
H7 C17 1_555 1_555
C18 C17 1_555 1_555
H8 C18 1_555 1_555
C19 C14 1_555 1_555
H9 C19 1_555 1_555
C20 C21 1_555 1_555
C21 H10 1_555 1_555
C22 C21 1_555 1_555
C23 C22 1_555 1_555
C24 C23 1_555 1_555
H11 C24 1_555 1_555
C25 C20 1_555 1_555
C26 C25 1_555 1_555
C27 C26 1_555 1_555
C28 C27 1_555 1_555
H12 C28 1_555 1_555
C29 C28 1_555 1_555
C30 C29 1_555 1_555
C31 C30 1_555 1_555
H13 C31 1_555 1_555
C32 C27 1_555 1_555
C33 C26 1_555 1_555
C34 C33 1_555 1_555
H14 C34 1_555 1_555
C35 C34 1_555 1_555
H15 C35 1_555 1_555
C36 C35 1_555 1_555
H16 C36 1_555 1_555
C37 C36 1_555 1_555
H17 C37 1_555 1_555
C38 C33 1_555 1_555
H18 C38 1_555 1_555
C39 C40 1_555 1_555
C40 H19 1_555 1_555
C41 C40 1_555 1_555
C42 C41 1_555 1_555
C43 C42 1_555 1_555
H20 C43 1_555 1_555
C44 C39 1_555 1_555
C45 C44 1_555 1_555
C46 C45 1_555 1_555
C47 C46 1_555 1_555
H21 C47 1_555 1_555
C48 C47 1_555 1_555
C49 C48 1_555 1_555
C50 C49 1_555 1_555
H22 C50 1_555 1_555
C51 C46 1_555 1_555
C52 C45 1_555 1_555
C53 C52 1_555 1_555
H23 C53 1_555 1_555
C54 C53 1_555 1_555
H24 C54 1_555 1_555
C55 C54 1_555 1_555
H25 C55 1_555 1_555
C56 C55 1_555 1_555
H26 C56 1_555 1_555
C57 C52 1_555 1_555
H27 C57 1_555 1_555
C58 C59 1_555 1_555
C59 H28 1_555 1_555
C60 C59 1_555 1_555
C61 C60 1_555 1_555
C62 C61 1_555 1_555
H29 C62 1_555 1_555
C63 C58 1_555 1_555
C64 C63 1_555 1_555
C65 C64 1_555 1_555
C66 C65 1_555 1_555
H30 C66 1_555 1_555
C67 C66 1_555 1_555
C68 C67 1_555 1_555
C69 C68 1_555 1_555
H31 C69 1_555 1_555
C70 C65 1_555 1_555
C71 C64 1_555 1_555
C72 C71 1_555 1_555
H32 C72 1_555 1_555
C73 C72 1_555 1_555
H33 C73 1_555 1_555
C74 C73 1_555 1_555
H34 C74 1_555 1_555
C75 C74 1_555 1_555
H35 C75 1_555 1_555
C76 C71 1_555 1_555
H36 C76 1_555 1_555
O1 Mo1 1_555 1_555
O2 Mo1 1_555 1_555
O3 C4 1_555 1_555
O4 C3 1_555 1_555
O5 C11 1_555 1_555
O6 C10 1_555 1_555
O7 C1 1_555 1_555
O8 Mo2 1_555 1_555
O9 Mo2 1_555 1_555
O10 C23 1_555 1_555
O11 C22 1_555 1_555
O12 C29 1_555 1_555
O13 C30 1_555 1_555
O14 C20 1_555 1_555
O15 Mo3 1_555 1_555
O16 Mo3 1_555 1_555
O17 C42 1_555 1_555
O18 C41 1_555 1_555
O19 C48 1_555 1_555
O20 C49 1_555 1_555
O21 C39 1_555 1_555
O22 Mo4 1_555 1_555
O23 Mo4 1_555 1_555
O24 C61 1_555 1_555
O25 C60 1_555 1_555
O26 C67 1_555 1_555
O27 C68 1_555 1_555
O28 C58 1_555 1_555
Mo1 O3 1_555 1_555
Mo2 O5 1_555 1_555
Mo3 O12 1_555 1_555
Mo4 O19 1_555 1_555
N1 C79 1_555 1_555
C77 H37 1_555 1_555
H38 C77 1_555 1_555
C78 H39 1_555 1_555
H40 C78 1_555 1_555
C79 C77 1_555 1_555
H41 C79 1_555 1_555
H42 C79 1_555 1_555
C80 N1 1_555 1_555
H43 C80 1_555 1_555
H44 C80 1_555 1_555
C81 N1 1_555 1_555
H45 C81 1_555 1_555
H46 C81 1_555 1_555
C82 H47 1_555 1_555
H48 C82 1_555 1_555
H49 C82 1_555 1_555
C83 C78 1_555 1_555
H50 C83 1_555 1_555
H51 C83 1_555 1_555
C84 H52 1_555 1_555
H53 C84 1_555 1_555
C85 N1 1_555 1_555
H54 C85 1_555 1_555
H55 C85 1_555 1_555
C86 C80 1_555 1_555
H56 C86 1_555 1_555
H57 C86 1_555 1_555
C87 C77 1_555 1_555
H58 C87 1_555 1_555
H59 C87 1_555 1_555
C88 C81 1_555 1_555
H60 C88 1_555 1_555
H61 C88 1_555 1_555
C89 C84 1_555 1_555
H62 C89 1_555 1_555
H63 C89 1_555 1_555
H64 C89 1_555 1_555
C90 C78 1_555 1_555
H65 C90 1_555 1_555
H66 C90 1_555 1_555
H67 C90 1_555 1_555
C91 C88 1_555 1_555
H68 C91 1_555 1_555
H69 C91 1_555 1_555
C92 C91 1_555 1_555
H70 C92 1_555 1_555
H71 C92 1_555 1_555
H72 C92 1_555 1_555
C109 H109 1_555 1_555
H110 C109 1_555 1_555
C110 C109 1_555 1_555
H111 C110 1_555 1_555
H112 C110 1_555 1_555
C111 C110 1_555 1_555
H113 C111 1_555 1_555
H114 C111 1_555 1_555
C112 C111 1_555 1_555
H115 C112 1_555 1_555
H116 C112 1_555 1_555
H117 C112 1_555 1_555
C113 H118 1_555 1_555
H119 C113 1_555 1_555
H120 C113 1_555 1_555
C114 H121 1_555 1_555
H122 C114 1_555 1_555
C115 C113 1_555 1_555
H123 C115 1_555 1_555
H124 C115 1_555 1_555
C116 C114 1_555 1_555
H125 C116 1_555 1_555
H126 C116 1_555 1_555
C117 H127 1_555 1_555
H128 C117 1_555 1_555
C118 C117 1_555 1_555
H129 C118 1_555 1_555
H130 C118 1_555 1_555
C119 C118 1_555 1_555
H131 C119 1_555 1_555
H132 C119 1_555 1_555
C120 C119 1_555 1_555
H133 C120 1_555 1_555
H134 C120 1_555 1_555
H135 C120 1_555 1_555
C121 H136 1_555 1_555
H137 C121 1_555 1_555
H138 C121 1_555 1_555
C122 C121 1_555 1_555
H139 C122 1_555 1_555
H140 C122 1_555 1_555
C123 C122 1_555 1_555
H141 C123 1_555 1_555
H142 C123 1_555 1_555
C124 C123 1_555 1_555
H143 C124 1_555 1_555
H144 C124 1_555 1_555
N3 C109 1_555 1_555
C134 C135 1_555 1_555
C135 H166 1_555 1_555
C136 C135 1_555 1_555
H167 C136 1_555 1_555
C137 C136 1_555 1_555
H168 C137 1_555 1_555
C138 C137 1_555 1_555
H169 C138 1_555 1_555
C139 C134 1_555 1_555
H170 C139 1_555 1_555
C140 C141 1_555 1_555
C141 H171 1_555 1_555
C142 C141 1_555 1_555
H172 C142 1_555 1_555
C143 C142 1_555 1_555
H173 C143 1_555 1_555
C144 C143 1_555 1_555
H174 C144 1_555 1_555
C145 C140 1_555 1_555
H175 C145 1_555 1_555
C146 C147 1_555 1_555
C147 H176 1_555 1_555
C148 C147 1_555 1_555
H177 C148 1_555 1_555
C149 C148 1_555 1_555
H178 C149 1_555 1_555
C150 C149 1_555 1_555
H179 C150 1_555 1_555
C151 C146 1_555 1_555
H180 C151 1_555 1_555
C152 C153 1_555 1_555
C153 H181 1_555 1_555
C154 C153 1_555 1_555
H182 C154 1_555 1_555
C155 C154 1_555 1_555
H183 C155 1_555 1_555
C156 C155 1_555 1_555
H184 C156 1_555 1_555
C157 C152 1_555 1_555
H185 C157 1_555 1_555
C158 H186 1_555 1_555
C159 C158 1_555 1_555
C160 C159 1_555 1_555
H187 C160 1_555 1_555
C161 C160 1_555 1_555
H188 C161 1_555 1_555
C162 C161 1_555 1_555
H189 C162 1_555 1_555
C163 C158 1_555 1_555
H190 C163 1_555 1_555
C164 C165 1_555 1_555
C165 H191 1_555 1_555
C166 C165 1_555 1_555
H192 C166 1_555 1_555
C167 C166 1_555 1_555
H193 C167 1_555 1_555
C168 C167 1_555 1_555
H194 C168 1_555 1_555
C169 C164 1_555 1_555
H195 C169 1_555 1_555
N4 P1 1_555 1_555
P1 C134 1_555 1_555
P2 C152 1_555 1_555
C170 H196 1_555 1_555
H197 C170 1_555 1_555
C171 C170 1_555 1_555
H198 C171 1_555 1_555
H199 C171 1_555 1_555
C172 C171 1_555 1_555
H200 C172 1_555 1_555
H201 C172 1_555 1_555
C173 C172 1_555 1_555
H202 C173 1_555 1_555
H203 C173 1_555 1_555
H204 C173 1_555 1_555
C174 H205 1_555 1_555
H206 C174 1_555 1_555
C175 C174 1_555 1_555
H207 C175 1_555 1_555
H208 C175 1_555 1_555
C176 C175 1_555 1_555
H209 C176 1_555 1_555
H210 C176 1_555 1_555
C177 C176 1_555 1_555
H211 C177 1_555 1_555
H212 C177 1_555 1_555
H213 C177 1_555 1_555
C178 H214 1_555 1_555
H215 C178 1_555 1_555
C179 C178 1_555 1_555
H216 C179 1_555 1_555
H217 C179 1_555 1_555
C180 C179 1_555 1_555
H218 C180 1_555 1_555
H219 C180 1_555 1_555
C181 C180 1_555 1_555
H220 C181 1_555 1_555
H221 C181 1_555 1_555
H222 C181 1_555 1_555
C182 H223 1_555 1_555
H224 C182 1_555 1_555
C183 C182 1_555 1_555
H225 C183 1_555 1_555
H226 C183 1_555 1_555
C184 C183 1_555 1_555
H227 C184 1_555 1_555
H228 C184 1_555 1_555
C185 C184 1_555 1_555
H229 C185 1_555 1_555
H230 C185 1_555 1_555
H231 C185 1_555 1_555
N5 C170 1_555 1_555
C187 H235 1_555 1_555
H236 C187 1_555 1_555
H237 C187 1_555 1_555
O31 C187 1_555 1_555
C188 H238 1_555 1_555
H239 C188 1_555 1_555
H240 C188 1_555 1_555
O32 C188 1_555 1_555
O33 C189 1_555 1_555
C189 H241 1_555 1_555
H242 C189 1_555 1_555
H243 C189 1_555 1_555
O34 C190 1_555 1_555
O37 C191 1_555 1_555
C5 C6 1_555 1_555
C12 C13 1_555 1_555
C13 O7 1_555 1_555
C18 C19 1_555 1_555
C24 C25 1_555 1_555
C31 C32 1_555 1_555
C32 O14 1_555 1_555
C37 C38 1_555 1_555
C43 C44 1_555 1_555
C50 C51 1_555 1_555
C51 O21 1_555 1_555
C56 C57 1_555 1_555
C62 C63 1_555 1_555
C69 C70 1_555 1_555
C70 O28 1_555 1_555
C75 C76 1_555 1_555
O4 Mo1 1_555 1_555
O6 Mo2 1_555 1_555
O10 Mo2 1_555 1_555
O11 Mo2 1_555 1_555
O13 Mo3 1_555 1_555
O17 Mo3 1_555 1_555
O18 Mo3 1_555 1_555
O20 Mo4 1_555 1_555
O24 Mo4 1_555 1_555
O25 Mo4 1_555 1_555
O26 Mo1 1_555 1_555
O27 Mo1 1_555 1_555
C82 C87 1_555 1_555
C83 C85 1_555 1_555
C84 C86 1_555 1_555
C114 N3 1_555 1_555
C115 C116 1_555 1_555
C117 N3 1_555 1_555
C124 N3 1_555 1_555
C138 C139 1_555 1_555
C140 P1 1_555 1_555
C144 C145 1_555 1_555
C146 P1 1_555 1_555
C150 C151 1_555 1_555
C156 C157 1_555 1_555
C159 P2 1_555 1_555
C162 C163 1_555 1_555
C164 P2 1_555 1_555
C168 C169 1_555 1_555
N4 P2 1_555 1_555
C174 N5 1_555 1_555
C178 N5 1_555 1_555
C182 N5 1_555 1_555

#END
