# generated using pymatgen
data_Mo4P2H246C192N5O38
_symmetry_space_group_name_H-M   'P 1'
_cell_length_a   18.95800000
_cell_length_b   21.13240000
_cell_length_c   22.67820000
_cell_angle_alpha   75.04900000
_cell_angle_beta   82.21600000
_cell_angle_gamma   63.83400000
_symmetry_Int_Tables_number   1
_chemical_formula_structural   Mo4P2H246C192N5O38
_chemical_formula_sum   'Mo8 P4 H492 C384 N10 O76'
_cell_volume   7875.92586776
_cell_formula_units_Z   2
loop_
 _symmetry_equiv_pos_site_id
 _symmetry_equiv_pos_as_xyz
  1  'x, y, z'
loop_
 _atom_site_type_symbol
 _atom_site_label
 _atom_site_symmetry_multiplicity
 _atom_site_fract_x
 _atom_site_fract_y
 _atom_site_fract_z
 _atom_site_occupancy
  Mo  Mo1  1  0.176830  0.115490  0.248721  1
  Mo  Mo2  1  0.823170  0.884510  0.751279  1
  Mo  Mo3  1  0.358880  0.854490  0.810777  1
  Mo  Mo4  1  0.641120  0.145510  0.189223  1
  Mo  Mo5  1  0.734540  0.393690  0.935068  1
  Mo  Mo6  1  0.265460  0.606310  0.064932  1
  Mo  Mo7  1  0.613000  0.698540  0.368700  1
  Mo  Mo8  1  0.387000  0.301460  0.631300  1
  P  P9  1  0.040640  0.241890  0.525240  1
  P  P10  1  0.959360  0.758110  0.474760  1
  P  P11  1  0.912200  0.298470  0.612680  1
  P  P12  1  0.087800  0.701530  0.387320  1
  H  H13  1  0.268800  0.125500  0.430200  1
  H  H14  1  0.731200  0.874500  0.569800  1
  H  H15  1  0.267100  0.911200  0.402600  1
  H  H16  1  0.732900  0.088800  0.597400  1
  H  H17  1  0.350700  0.802000  0.628200  1
  H  H18  1  0.649300  0.198000  0.371800  1
  H  H19  1  0.327300  0.035800  0.627300  1
  H  H20  1  0.672700  0.964200  0.372700  1
  H  H21  1  0.232600  0.820400  0.578700  1
  H  H22  1  0.767400  0.179600  0.421300  1
  H  H23  1  0.234500  0.712300  0.564900  1
  H  H24  1  0.765500  0.287700  0.435100  1
  H  H25  1  0.319300  0.653500  0.492100  1
  H  H26  1  0.680700  0.346500  0.507900  1
  H  H27  1  0.402900  0.701000  0.431700  1
  H  H28  1  0.597100  0.299000  0.568300  1
  H  H29  1  0.399900  0.809000  0.444200  1
  H  H30  1  0.600100  0.191000  0.555800  1
  H  H31  1  0.085500  0.010300  0.789500  1
  H  H32  1  0.914500  0.989700  0.210500  1
  H  H33  1  0.248500  0.040600  0.910800  1
  H  H34  1  0.751500  0.959400  0.089200  1
  H  H35  1  0.998000  0.252900  0.962600  1
  H  H36  1  0.002000  0.747100  0.037400  1
  H  H37  1  0.865500  0.194100  0.836700  1
  H  H38  1  0.134500  0.805900  0.163300  1
  H  H39  1  0.110000  0.094200  0.032900  1
  H  H40  1  0.890000  0.905800  0.967100  1
  H  H41  1  0.184000  0.109800  0.099600  1
  H  H42  1  0.816000  0.890200  0.900400  1
  H  H43  1  0.259800  0.172600  0.060700  1
  H  H44  1  0.740200  0.827400  0.939300  1
  H  H45  1  0.261400  0.225700  0.956600  1
  H  H46  1  0.738600  0.774300  0.043400  1
  H  H47  1  0.184800  0.212400  0.888800  1
  H  H48  1  0.815200  0.787600  0.111200  1
  H  H49  1  0.818900  0.489400  0.738200  1
  H  H50  1  0.181100  0.510600  0.261800  1
  H  H51  1  0.553700  0.524700  0.784000  1
  H  H52  1  0.446300  0.475300  0.216000  1
  H  H53  1  0.501300  0.662200  0.559800  1
  H  H54  1  0.498700  0.337800  0.440200  1
  H  H55  1  0.773500  0.608600  0.543300  1
  H  H56  1  0.226500  0.391400  0.456700  1
  H  H57  1  0.501300  0.518500  0.646200  1
  H  H58  1  0.498700  0.481500  0.353800  1
  H  H59  1  0.368100  0.538900  0.662700  1
  H  H60  1  0.631900  0.461100  0.337300  1
  H  H61  1  0.280600  0.636700  0.705100  1
  H  H62  1  0.719400  0.363300  0.294900  1
  H  H63  1  0.324800  0.712700  0.727900  1
  H  H64  1  0.675200  0.287300  0.272100  1
  H  H65  1  0.457300  0.692200  0.713500  1
  H  H66  1  0.542700  0.307800  0.286500  1
  H  H67  1  0.742100  0.440700  0.396900  1
  H  H68  1  0.257900  0.559300  0.603100  1
  H  H69  1  0.834500  0.595400  0.252900  1
  H  H70  1  0.165500  0.404600  0.747100  1
  H  H71  1  0.056200  0.362100  0.202600  1
  H  H72  1  0.943800  0.637900  0.797400  1
  H  H73  1  0.936500  0.237600  0.355500  1
  H  H74  1  0.063500  0.762400  0.644500  1
  H  H75  1  0.069000  0.451900  0.241000  1
  H  H76  1  0.931000  0.548100  0.759000  1
  H  H77  1  0.124400  0.512700  0.161300  1
  H  H78  1  0.875600  0.487300  0.838700  1
  H  H79  1  0.045000  0.599200  0.079300  1
  H  H80  1  0.955000  0.400800  0.920700  1
  H  H81  1  0.912700  0.621900  0.078700  1
  H  H82  1  0.087300  0.378100  0.921300  1
  H  H83  1  0.859100  0.556100  0.156100  1
  H  H84  1  0.140900  0.443900  0.843900  1
  H  H85  1  0.598500  0.665700  0.878900  1
  H  H86  1  0.401500  0.334300  0.121100  1
  H  H87  1  0.598400  0.734200  0.897300  1
  H  H88  1  0.401600  0.265800  0.102700  1
  H  H89  1  0.476600  0.606600  0.849800  1
  H  H90  1  0.523400  0.393400  0.150200  1
  H  H91  1  0.395800  0.626300  0.888600  1
  H  H92  1  0.604200  0.373700  0.111400  1
  H  H93  1  0.622800  0.599200  0.983200  1
  H  H94  1  0.377200  0.400800  0.016800  1
  H  H95  1  0.623300  0.667100  0.001500  1
  H  H96  1  0.376700  0.332900  0.998500  1
  H  H97  1  0.443900  0.647300  0.059700  1
  H  H98  1  0.556100  0.352700  0.940300  1
  H  H99  1  0.531400  0.586400  0.055900  1
  H  H100  1  0.468600  0.413600  0.944100  1
  H  H101  1  0.509200  0.770700  0.012000  1
  H  H102  1  0.490800  0.229300  0.988000  1
  H  H103  1  0.482900  0.787200  0.943700  1
  H  H104  1  0.517100  0.212800  0.056300  1
  H  H105  1  0.793500  0.650600  0.830200  1
  H  H106  1  0.206500  0.349400  0.169800  1
  H  H107  1  0.715000  0.724500  0.822000  1
  H  H108  1  0.285000  0.275500  0.178000  1
  H  H109  1  0.715500  0.654500  0.806700  1
  H  H110  1  0.284500  0.345500  0.193300  1
  H  H111  1  0.477100  0.566500  0.980300  1
  H  H112  1  0.522900  0.433500  0.019700  1
  H  H113  1  0.549700  0.568900  0.935700  1
  H  H114  1  0.450300  0.431100  0.064300  1
  H  H115  1  0.554900  0.557900  0.163300  1
  H  H116  1  0.445100  0.442100  0.836700  1
  H  H117  1  0.464700  0.611300  0.172400  1
  H  H118  1  0.535300  0.388700  0.827600  1
  H  H119  1  0.409900  0.690900  0.954200  1
  H  H120  1  0.590100  0.309100  0.045800  1
  H  H121  1  0.474500  0.696600  0.902600  1
  H  H122  1  0.525500  0.303400  0.097400  1
  H  H123  1  0.577000  0.655100  0.098300  1
  H  H124  1  0.423000  0.344900  0.901700  1
  H  H125  1  0.486900  0.709000  0.107700  1
  H  H126  1  0.513100  0.291000  0.892300  1
  H  H127  1  0.732100  0.665300  0.927200  1
  H  H128  1  0.267900  0.334700  0.072800  1
  H  H129  1  0.732500  0.595200  0.911900  1
  H  H130  1  0.267500  0.404800  0.088100  1
  H  H131  1  0.357500  0.803000  0.974500  1
  H  H132  1  0.642500  0.197000  0.025500  1
  H  H133  1  0.381900  0.766100  0.044400  1
  H  H134  1  0.618100  0.233900  0.955600  1
  H  H135  1  0.537800  0.593900  0.259000  1
  H  H136  1  0.462200  0.406100  0.741000  1
  H  H137  1  0.504800  0.677100  0.223800  1
  H  H138  1  0.495200  0.322900  0.776200  1
  H  H139  1  0.595000  0.623700  0.214800  1
  H  H140  1  0.405000  0.376300  0.785200  1
  H  H141  1  0.428800  0.518800  0.855800  1
  H  H142  1  0.571200  0.481200  0.144200  1
  H  H143  1  0.429900  0.500900  0.928800  1
  H  H144  1  0.570100  0.499100  0.071200  1
  H  H145  1  0.510700  0.481200  0.889900  1
  H  H146  1  0.489300  0.518800  0.110100  1
  H  H147  1  0.412700  0.862300  0.048000  1
  H  H148  1  0.587300  0.137700  0.952000  1
  H  H149  1  0.386500  0.899300  0.978800  1
  H  H150  1  0.613500  0.100700  0.021200  1
  H  H151  1  0.288200  0.954700  0.044600  1
  H  H152  1  0.711800  0.045300  0.955400  1
  H  H153  1  0.284800  0.879200  0.076900  1
  H  H154  1  0.715200  0.120800  0.923100  1
  H  H155  1  0.258500  0.916200  0.007700  1
  H  H156  1  0.741500  0.083800  0.992300  1
  H  H157  1  0.965900  0.195800  0.206900  1
  H  H158  1  0.034100  0.804200  0.793100  1
  H  H159  1  0.964900  0.139000  0.172600  1
  H  H160  1  0.035100  0.861000  0.827400  1
  H  H161  1  0.838900  0.152400  0.224000  1
  H  H162  1  0.161100  0.847600  0.776000  1
  H  H163  1  0.850700  0.200300  0.263200  1
  H  H164  1  0.149300  0.799700  0.736800  1
  H  H165  1  0.964900  0.053300  0.261200  1
  H  H166  1  0.035100  0.946700  0.738800  1
  H  H167  1  0.969900  0.100800  0.304000  1
  H  H168  1  0.030100  0.899200  0.696000  1
  H  H169  1  0.919900  0.017300  0.362100  1
  H  H170  1  0.080100  0.982700  0.637900  1
  H  H171  1  0.848800  0.050600  0.316200  1
  H  H172  1  0.151200  0.949400  0.683800  1
  H  H173  1  0.853800  0.098000  0.358900  1
  H  H174  1  0.146200  0.902000  0.641100  1
  H  H175  1  0.878300  0.043800  0.989500  1
  H  H176  1  0.121700  0.956200  0.010500  1
  H  H177  1  0.927900  0.014700  0.050200  1
  H  H178  1  0.072100  0.985300  0.949800  1
  H  H179  1  0.947300  0.067000  0.992300  1
  H  H180  1  0.052700  0.933000  0.007700  1
  H  H181  1  0.805200  0.192600  0.133800  1
  H  H182  1  0.194800  0.807400  0.866200  1
  H  H183  1  0.813400  0.240400  0.068600  1
  H  H184  1  0.186600  0.759600  0.931400  1
  H  H185  1  0.803300  0.112200  0.064700  1
  H  H186  1  0.196700  0.887800  0.935300  1
  H  H187  1  0.822800  0.164900  0.006400  1
  H  H188  1  0.177200  0.835100  0.993600  1
  H  H189  1  0.919400  0.092900  0.116800  1
  H  H190  1  0.080600  0.907100  0.883200  1
  H  H191  1  0.943900  0.140800  0.057600  1
  H  H192  1  0.056100  0.859200  0.942400  1
  H  H193  1  0.917600  0.291800  0.053000  1
  H  H194  1  0.082400  0.708200  0.947000  1
  H  H195  1  0.982200  0.212000  0.078800  1
  H  H196  1  0.017800  0.788000  0.921200  1
  H  H197  1  0.035600  0.251700  0.139200  1
  H  H198  1  0.964400  0.748300  0.860800  1
  H  H199  1  0.960200  0.328400  0.132800  1
  H  H200  1  0.039800  0.671600  0.867200  1
  H  H201  1  0.063900  0.283000  0.030500  1
  H  H202  1  0.936100  0.717000  0.969500  1
  H  H203  1  0.990700  0.360500  0.026000  1
  H  H204  1  0.009300  0.639500  0.974000  1
  H  H205  1  0.109400  0.371300  0.032200  1
  H  H206  1  0.890600  0.628700  0.967800  1
  H  H207  1  0.128200  0.313100  0.095800  1
  H  H208  1  0.871800  0.686900  0.904200  1
  H  H209  1  0.055100  0.390500  0.091300  1
  H  H210  1  0.944900  0.609500  0.908700  1
  H  H211  1  0.752600  0.485400  0.199400  1
  H  H212  1  0.247400  0.514600  0.800600  1
  H  H213  1  0.824600  0.460400  0.152000  1
  H  H214  1  0.175400  0.539600  0.848000  1
  H  H215  1  0.816800  0.403100  0.211300  1
  H  H216  1  0.183200  0.596900  0.788700  1
  H  H217  1  0.699400  0.413200  0.171500  1
  H  H218  1  0.300600  0.586800  0.828500  1
  H  H219  1  0.707200  0.470400  0.112200  1
  H  H220  1  0.292800  0.529600  0.887800  1
  H  H221  1  0.828400  0.376800  0.084600  1
  H  H222  1  0.171600  0.623200  0.915400  1
  H  H223  1  0.754400  0.358600  0.085400  1
  H  H224  1  0.245600  0.641400  0.914600  1
  H  H225  1  0.848600  0.304300  0.193600  1
  H  H226  1  0.151400  0.695700  0.806400  1
  H  H227  1  0.788600  0.275300  0.180400  1
  H  H228  1  0.211400  0.724700  0.819600  1
  H  H229  1  0.913800  0.232600  0.480400  1
  H  H230  1  0.086200  0.767400  0.519600  1
  H  H231  1  0.901600  0.143300  0.442200  1
  H  H232  1  0.098400  0.856700  0.557800  1
  H  H233  1  0.010000  0.033900  0.439600  1
  H  H234  1  0.990000  0.966100  0.560400  1
  H  H235  1  0.127500  0.005400  0.484700  1
  H  H236  1  0.872500  0.994600  0.515300  1
  H  H237  1  0.139900  0.090800  0.525400  1
  H  H238  1  0.860100  0.909200  0.474600  1
  H  H239  1  0.120900  0.208800  0.413000  1
  H  H240  1  0.879100  0.791200  0.587000  1
  H  H241  1  0.178600  0.267200  0.332700  1
  H  H242  1  0.821400  0.732800  0.667300  1
  H  H243  1  0.156800  0.386600  0.326900  1
  H  H244  1  0.843200  0.613400  0.673100  1
  H  H245  1  0.080100  0.447100  0.403900  1
  H  H246  1  0.919900  0.552900  0.596100  1
  H  H247  1  0.026400  0.386900  0.485500  1
  H  H248  1  0.973600  0.613100  0.514500  1
  H  H249  1  0.179600  0.261300  0.536900  1
  H  H250  1  0.820400  0.738700  0.463100  1
  H  H251  1  0.267800  0.221200  0.616400  1
  H  H252  1  0.732200  0.778800  0.383600  1
  H  H253  1  0.260000  0.136100  0.704400  1
  H  H254  1  0.740000  0.863900  0.295600  1
  H  H255  1  0.166700  0.089700  0.711900  1
  H  H256  1  0.833300  0.910300  0.288100  1
  H  H257  1  0.079100  0.128100  0.632600  1
  H  H258  1  0.920900  0.871900  0.367400  1
  H  H259  1  0.835400  0.411800  0.508600  1
  H  H260  1  0.164600  0.588200  0.491400  1
  H  H261  1  0.703700  0.493700  0.488100  1
  H  H262  1  0.296300  0.506300  0.511900  1
  H  H263  1  0.604800  0.494200  0.561200  1
  H  H264  1  0.395200  0.505800  0.438800  1
  H  H265  1  0.636000  0.417900  0.657800  1
  H  H266  1  0.364000  0.582100  0.342200  1
  H  H267  1  0.768400  0.337800  0.679500  1
  H  H268  1  0.231600  0.662200  0.320500  1
  H  H269  1  0.968000  0.180000  0.721600  1
  H  H270  1  0.032000  0.820000  0.278400  1
  H  H271  1  0.830300  0.232300  0.578900  1
  H  H272  1  0.169700  0.767700  0.421100  1
  H  H273  1  0.812700  0.127900  0.615800  1
  H  H274  1  0.187300  0.872100  0.384200  1
  H  H275  1  0.875700  0.044000  0.703800  1
  H  H276  1  0.124300  0.956000  0.296200  1
  H  H277  1  0.950800  0.073700  0.758300  1
  H  H278  1  0.049200  0.926300  0.241700  1
  H  H279  1  0.877800  0.307800  0.740500  1
  H  H280  1  0.122200  0.692200  0.259500  1
  H  H281  1  0.937000  0.333500  0.810400  1
  H  H282  1  0.063000  0.666500  0.189600  1
  H  H283  1  0.049000  0.354000  0.782600  1
  H  H284  1  0.951000  0.646000  0.217400  1
  H  H285  1  0.096300  0.359900  0.681100  1
  H  H286  1  0.903700  0.640100  0.318900  1
  H  H287  1  0.037600  0.338400  0.609700  1
  H  H288  1  0.962400  0.661600  0.390300  1
  H  H289  1  0.438600  0.092400  0.682400  1
  H  H290  1  0.561400  0.907600  0.317600  1
  H  H291  1  0.441900  0.020100  0.669800  1
  H  H292  1  0.558100  0.979900  0.330200  1
  H  H293  1  0.536300  0.093500  0.606000  1
  H  H294  1  0.463700  0.906500  0.394000  1
  H  H295  1  0.549300  0.016400  0.596600  1
  H  H296  1  0.450700  0.983600  0.403400  1
  H  H297  1  0.403100  0.143300  0.572700  1
  H  H298  1  0.596900  0.856700  0.427300  1
  H  H299  1  0.420300  0.066900  0.559700  1
  H  H300  1  0.579700  0.933100  0.440300  1
  H  H301  1  0.429700  0.146500  0.467200  1
  H  H302  1  0.570300  0.853500  0.532800  1
  H  H303  1  0.513900  0.079900  0.481700  1
  H  H304  1  0.486100  0.920100  0.518300  1
  H  H305  1  0.496600  0.156400  0.494700  1
  H  H306  1  0.503400  0.843600  0.505300  1
  H  H307  1  0.620200  0.936200  0.667500  1
  H  H308  1  0.379800  0.063800  0.332500  1
  H  H309  1  0.628600  0.899800  0.738700  1
  H  H310  1  0.371400  0.100200  0.261300  1
  H  H311  1  0.512700  0.908500  0.664900  1
  H  H312  1  0.487300  0.091500  0.335100  1
  H  H313  1  0.522300  0.871000  0.736400  1
  H  H314  1  0.477700  0.129000  0.263600  1
  H  H315  1  0.656400  0.787500  0.714700  1
  H  H316  1  0.343600  0.212500  0.285300  1
  H  H317  1  0.642400  0.823000  0.643300  1
  H  H318  1  0.357600  0.177000  0.356700  1
  H  H319  1  0.623100  0.714000  0.668800  1
  H  H320  1  0.376900  0.286000  0.331200  1
  H  H321  1  0.541900  0.781400  0.646500  1
  H  H322  1  0.458100  0.218600  0.353500  1
  H  H323  1  0.555800  0.746000  0.717800  1
  H  H324  1  0.444200  0.254000  0.282200  1
  H  H325  1  0.613600  0.045100  0.684000  1
  H  H326  1  0.386400  0.954900  0.316000  1
  H  H327  1  0.629800  0.003100  0.753800  1
  H  H328  1  0.370200  0.996900  0.246200  1
  H  H329  1  0.519400  0.102200  0.785000  1
  H  H330  1  0.480600  0.897800  0.215000  1
  H  H331  1  0.504100  0.144500  0.714800  1
  H  H332  1  0.495900  0.855500  0.285200  1
  H  H333  1  0.636600  0.140200  0.707300  1
  H  H334  1  0.363400  0.859800  0.292700  1
  H  H335  1  0.580300  0.188300  0.753300  1
  H  H336  1  0.419700  0.811700  0.246700  1
  H  H337  1  0.702700  0.115200  0.794900  1
  H  H338  1  0.297300  0.884800  0.205100  1
  H  H339  1  0.694500  0.044600  0.789600  1
  H  H340  1  0.305500  0.955400  0.210400  1
  H  H341  1  0.638100  0.092800  0.835700  1
  H  H342  1  0.361900  0.907200  0.164300  1
  H  H343  1  0.455900  0.967100  0.775400  1
  H  H344  1  0.544100  0.032900  0.224600  1
  H  H345  1  0.452900  0.039500  0.787600  1
  H  H346  1  0.547100  0.960500  0.212400  1
  H  H347  1  0.570100  0.895900  0.832400  1
  H  H348  1  0.429900  0.104100  0.167600  1
  H  H349  1  0.578200  0.966400  0.838400  1
  H  H350  1  0.421800  0.033600  0.161600  1
  H  H351  1  0.453100  0.926300  0.892400  1
  H  H352  1  0.546900  0.073700  0.107600  1
  H  H353  1  0.452800  0.002000  0.893700  1
  H  H354  1  0.547200  0.998000  0.106300  1
  H  H355  1  0.504900  0.916000  0.986900  1
  H  H356  1  0.495100  0.084000  0.013100  1
  H  H357  1  0.571800  0.938400  0.950300  1
  H  H358  1  0.428200  0.061600  0.049700  1
  H  H359  1  0.572200  0.862900  0.949000  1
  H  H360  1  0.427800  0.137100  0.051000  1
  H  H361  1  0.158600  0.986000  0.097300  1
  H  H362  1  0.841400  0.014000  0.902700  1
  H  H363  1  0.110700  0.937400  0.118800  1
  H  H364  1  0.889300  0.062600  0.881200  1
  H  H365  1  0.168300  0.936300  0.164900  1
  H  H366  1  0.831700  0.063700  0.835100  1
  H  H367  1  0.948200  0.513600  0.456200  1
  H  H368  1  0.051800  0.486400  0.543800  1
  H  H369  1  0.889800  0.521600  0.407200  1
  H  H370  1  0.110200  0.478400  0.592800  1
  H  H371  1  0.863400  0.515700  0.477700  1
  H  H372  1  0.136600  0.484300  0.522300  1
  H  H373  1  0.660600  0.818700  0.242200  1
  H  H374  1  0.339400  0.181300  0.757800  1
  H  H375  1  0.665900  0.846500  0.169800  1
  H  H376  1  0.334100  0.153500  0.830200  1
  H  H377  1  0.737000  0.829000  0.211300  1
  H  H378  1  0.263000  0.171000  0.788700  1
  H  H379  1  0.537400  0.756600  0.968500  1
  H  H380  1  0.462600  0.243400  0.031500  1
  H  H381  1  0.481100  0.753400  0.923900  1
  H  H382  1  0.518900  0.246600  0.076100  1
  H  H383  1  0.862600  0.509000  0.053200  1
  H  H384  1  0.137400  0.491000  0.946800  1
  H  H385  1  0.847900  0.553400  0.983800  1
  H  H386  1  0.152100  0.446600  0.016200  1
  H  H387  1  0.796200  0.510400  0.015500  1
  H  H388  1  0.203800  0.489600  0.984500  1
  H  H389  1  0.678000  0.566100  0.992100  1
  H  H390  1  0.322000  0.433900  0.007900  1
  H  H391  1  0.615800  0.612400  0.036900  1
  H  H392  1  0.384200  0.387600  0.963100  1
  H  H393  1  0.788700  0.634600  0.051300  1
  H  H394  1  0.211300  0.365400  0.948700  1
  H  H395  1  0.736900  0.591600  0.083100  1
  H  H396  1  0.263100  0.408400  0.916900  1
  H  H397  1  0.719800  0.665500  0.955200  1
  H  H398  1  0.280200  0.334500  0.044800  1
  H  H399  1  0.663900  0.703600  0.007600  1
  H  H400  1  0.336100  0.296400  0.992400  1
  H  H401  1  0.758200  0.606300  0.783800  1
  H  H402  1  0.241800  0.393700  0.216200  1
  H  H403  1  0.677100  0.677300  0.773600  1
  H  H404  1  0.322900  0.322700  0.226400  1
  H  H405  1  0.666900  0.578500  0.855300  1
  H  H406  1  0.333100  0.421500  0.144700  1
  H  H407  1  0.725200  0.586700  0.894900  1
  H  H408  1  0.274800  0.413300  0.105100  1
  H  H409  1  0.596000  0.552400  0.936100  1
  H  H410  1  0.404000  0.447600  0.063900  1
  H  H411  1  0.529900  0.582300  0.986400  1
  H  H412  1  0.470100  0.417700  0.013600  1
  H  H413  1  0.510400  0.629700  0.856700  1
  H  H414  1  0.489600  0.370300  0.143300  1
  H  H415  1  0.445500  0.670600  0.903800  1
  H  H416  1  0.554500  0.329400  0.096200  1
  H  H417  1  0.372100  0.549600  0.877500  1
  H  H418  1  0.627900  0.450400  0.122500  1
  H  H419  1  0.410900  0.593900  0.826700  1
  H  H420  1  0.589100  0.406100  0.173300  1
  H  H421  1  0.348500  0.632800  0.875500  1
  H  H422  1  0.651500  0.367200  0.124500  1
  H  H423  1  0.632600  0.712500  0.886800  1
  H  H424  1  0.367400  0.287500  0.113200  1
  H  H425  1  0.573200  0.697100  0.855000  1
  H  H426  1  0.426800  0.302900  0.145000  1
  H  H427  1  0.498700  0.518900  0.904400  1
  H  H428  1  0.501300  0.481100  0.095600  1
  H  H429  1  0.436200  0.557800  0.953300  1
  H  H430  1  0.563800  0.442200  0.046700  1
  H  H431  1  0.781200  0.709100  0.772300  1
  H  H432  1  0.218800  0.290900  0.227700  1
  H  H433  1  0.804700  0.659800  0.839500  1
  H  H434  1  0.195300  0.340200  0.160500  1
  H  H435  1  0.723500  0.731000  0.829300  1
  H  H436  1  0.276500  0.269000  0.170700  1
  H  H437  1  0.492000  0.688500  0.051500  1
  H  H438  1  0.508000  0.311500  0.948500  1
  H  H439  1  0.434700  0.686500  0.006600  1
  H  H440  1  0.565300  0.313500  0.993400  1
  H  H441  1  0.428300  0.817300  0.025200  1
  H  H442  1  0.571700  0.182700  0.974800  1
  H  H443  1  0.368800  0.812700  0.984900  1
  H  H444  1  0.631200  0.187300  0.015100  1
  H  H445  1  0.310500  0.839300  0.075000  1
  H  H446  1  0.689500  0.160700  0.925000  1
  H  H447  1  0.377200  0.766800  0.111900  1
  H  H448  1  0.622800  0.233200  0.888100  1
  H  H449  1  0.317400  0.762200  0.071400  1
  H  H450  1  0.682600  0.237800  0.928600  1
  H  H451  1  0.807600  0.283300  0.072000  1
  H  H452  1  0.192400  0.716700  0.928000  1
  H  H453  1  0.784400  0.238300  0.134000  1
  H  H454  1  0.215600  0.761700  0.866000  1
  H  H455  1  0.889900  0.127600  0.115100  1
  H  H456  1  0.110100  0.872400  0.884900  1
  H  H457  1  0.915300  0.172000  0.054000  1
  H  H458  1  0.084700  0.828000  0.946000  1
  H  H459  1  0.785800  0.210600  0.012900  1
  H  H460  1  0.214200  0.789400  0.987100  1
  H  H461  1  0.767600  0.158500  0.072100  1
  H  H462  1  0.232400  0.841500  0.927900  1
  H  H463  1  0.817700  0.095200  0.989800  1
  H  H464  1  0.182300  0.904800  0.010200  1
  H  H465  1  0.878100  0.054800  0.044500  1
  H  H466  1  0.121900  0.945200  0.955500  1
  H  H467  1  0.896300  0.106800  0.985600  1
  H  H468  1  0.103700  0.893200  0.014400  1
  H  H469  1  0.728900  0.449600  0.179000  1
  H  H470  1  0.271100  0.550400  0.821000  1
  H  H471  1  0.812400  0.452300  0.176000  1
  H  H472  1  0.187600  0.547700  0.824000  1
  H  H473  1  0.717100  0.566200  0.129200  1
  H  H474  1  0.282900  0.433800  0.870800  1
  H  H475  1  0.698900  0.530500  0.082400  1
  H  H476  1  0.301100  0.469500  0.917600  1
  H  H477  1  0.782400  0.533200  0.079400  1
  H  H478  1  0.217600  0.466800  0.920600  1
  H  H479  1  0.768100  0.394200  0.091900  1
  H  H480  1  0.231900  0.605800  0.908100  1
  H  H481  1  0.852100  0.396200  0.089800  1
  H  H482  1  0.147900  0.603800  0.910200  1
  H  H483  1  0.793200  0.316700  0.190600  1
  H  H484  1  0.206800  0.683300  0.809400  1
  H  H485  1  0.874800  0.321300  0.191700  1
  H  H486  1  0.125200  0.678700  0.808300  1
  H  H487  1  0.666667  0.640200  0.193500  1
  H  H488  1  0.333333  0.359800  0.806500  1
  H  H489  1  0.644500  0.575000  0.228300  1
  H  H490  1  0.355500  0.425000  0.771700  1
  H  H491  1  0.585900  0.656300  0.232100  1
  H  H492  1  0.414100  0.343700  0.767900  1
  H  H493  1  0.415700  0.002600  0.945400  1
  H  H494  1  0.584300  0.997400  0.054600  1
  H  H495  1  0.409900  0.043800  0.875100  1
  H  H496  1  0.590100  0.956200  0.124900  1
  H  H497  1  0.480500  0.031200  0.914800  1
  H  H498  1  0.519500  0.968800  0.085200  1
  H  H499  1  0.549200  0.826100  0.151500  1
  H  H500  1  0.450800  0.173900  0.848500  1
  H  H501  1  0.513300  0.804400  0.104000  1
  H  H502  1  0.486700  0.195600  0.896000  1
  H  H503  1  0.560200  0.853600  0.079700  1
  H  H504  1  0.439800  0.146400  0.920300  1
  C  C505  1  0.288500  0.021100  0.470800  1
  C  C506  1  0.711500  0.978900  0.529200  1
  C  C507  1  0.266700  0.083200  0.425000  1
  C  C508  1  0.733300  0.916800  0.575000  1
  C  C509  1  0.241200  0.081300  0.370300  1
  C  C510  1  0.758800  0.918700  0.629700  1
  C  C511  1  0.239400  0.016400  0.364400  1
  C  C512  1  0.760600  0.983600  0.635600  1
  C  C513  1  0.265400  0.954500  0.409100  1
  C  C514  1  0.734600  0.045500  0.590900  1
  C  C515  1  0.290200  0.955100  0.466000  1
  C  C516  1  0.709800  0.044900  0.534000  1
  C  C517  1  0.311400  0.896000  0.516800  1
  C  C518  1  0.688600  0.104000  0.483200  1
  C  C519  1  0.325900  0.904700  0.572700  1
  C  C520  1  0.674100  0.095300  0.427300  1
  C  C521  1  0.344000  0.849300  0.628200  1
  C  C522  1  0.656000  0.150700  0.371800  1
  C  C523  1  0.351500  0.865600  0.681100  1
  C  C524  1  0.648500  0.134400  0.318900  1
  C  C525  1  0.345300  0.935900  0.682400  1
  C  C526  1  0.654700  0.064100  0.317600  1
  C  C527  1  0.330700  0.989400  0.627700  1
  C  C528  1  0.669300  0.010600  0.372300  1
  C  C529  1  0.321500  0.973300  0.575200  1
  C  C530  1  0.678500  0.026700  0.424800  1
  C  C531  1  0.315400  0.825800  0.511200  1
  C  C532  1  0.684600  0.174200  0.488800  1
  C  C533  1  0.266300  0.796800  0.548500  1
  C  C534  1  0.733700  0.203200  0.451500  1
  C  C535  1  0.268100  0.732000  0.540500  1
  C  C536  1  0.731900  0.268000  0.459500  1
  C  C537  1  0.318500  0.697000  0.497200  1
  C  C538  1  0.681500  0.303000  0.502800  1
  C  C539  1  0.368100  0.725300  0.461100  1
  C  C540  1  0.631900  0.274700  0.538900  1
  C  C541  1  0.366100  0.789700  0.468600  1
  C  C542  1  0.633900  0.210300  0.531400  1
  C  C543  1  0.088100  0.070600  0.845300  1
  C  C544  1  0.911900  0.929400  0.154700  1
  C  C545  1  0.118300  0.016000  0.813900  1
  C  C546  1  0.881700  0.984000  0.186100  1
  C  C547  1  0.198000  0.969300  0.818800  1
  C  C548  1  0.802000  0.030700  0.181200  1
  C  C549  1  0.246800  0.979300  0.856700  1
  C  C550  1  0.753200  0.020700  0.143300  1
  C  C551  1  0.215700  0.034400  0.886800  1
  C  C552  1  0.784300  0.965600  0.113200  1
  C  C553  1  0.134100  0.082800  0.882200  1
  C  C554  1  0.865900  0.917200  0.117800  1
  C  C555  1  0.096000  0.139000  0.913400  1
  C  C556  1  0.904000  0.861000  0.086600  1
  C  C557  1  0.015100  0.182000  0.908200  1
  C  C558  1  0.984900  0.818000  0.091800  1
  C  C559  1  0.971600  0.240400  0.938000  1
  C  C560  1  0.028400  0.759600  0.062000  1
  C  C561  1  0.891800  0.278600  0.931200  1
  C  C562  1  0.108200  0.721400  0.068800  1
  C  C563  1  0.850100  0.262100  0.893300  1
  C  C564  1  0.149900  0.737900  0.106700  1
  C  C565  1  0.891800  0.205600  0.862300  1
  C  C566  1  0.108200  0.794400  0.137700  1
  C  C567  1  0.972400  0.167300  0.870400  1
  C  C568  1  0.027600  0.832700  0.129600  1
  C  C569  1  0.142400  0.150400  0.955100  1
  C  C570  1  0.857600  0.849600  0.044900  1
  C  C571  1  0.140700  0.120600  0.017300  1
  C  C572  1  0.859300  0.879400  0.982700  1
  C  C573  1  0.184900  0.129700  0.057000  1
  C  C574  1  0.815100  0.870300  0.943000  1
  C  C575  1  0.229200  0.167700  0.033700  1
  C  C576  1  0.770800  0.832300  0.966300  1
  C  C577  1  0.230800  0.199200  0.971700  1
  C  C578  1  0.769200  0.800800  0.028300  1
  C  C579  1  0.185600  0.190800  0.931200  1
  C  C580  1  0.814400  0.809200  0.068800  1
  C  C581  1  0.709500  0.535000  0.704100  1
  C  C582  1  0.290500  0.465000  0.295900  1
  C  C583  1  0.766000  0.496100  0.747300  1
  C  C584  1  0.234000  0.503900  0.252700  1
  C  C585  1  0.743400  0.466600  0.805600  1
  C  C586  1  0.256600  0.533400  0.194400  1
  C  C587  1  0.662400  0.478100  0.818200  1
  C  C588  1  0.337600  0.521900  0.181800  1
  C  C589  1  0.606700  0.517500  0.774800  1
  C  C590  1  0.393300  0.482500  0.225200  1
  C  C591  1  0.629000  0.548200  0.714600  1
  C  C592  1  0.371000  0.451800  0.285400  1
  C  C593  1  0.576900  0.589100  0.667200  1
  C  C594  1  0.423100  0.410900  0.332800  1
  C  C595  1  0.604400  0.613600  0.608900  1
  C  C596  1  0.395600  0.386400  0.391100  1
  C  C597  1  0.556200  0.649400  0.556300  1
  C  C598  1  0.443800  0.350600  0.443700  1
  C  C599  1  0.591200  0.664800  0.500700  1
  C  C600  1  0.408800  0.335200  0.499300  1
  C  C601  1  0.673100  0.648800  0.494300  1
  C  C602  1  0.326900  0.351200  0.505700  1
  C  C603  1  0.719700  0.617000  0.546000  1
  C  C604  1  0.280300  0.383000  0.454000  1
  C  C605  1  0.684900  0.598400  0.601100  1
  C  C606  1  0.315100  0.401600  0.398900  1
  C  C607  1  0.491200  0.603400  0.677800  1
  C  C608  1  0.508800  0.396600  0.322200  1
  C  C609  1  0.465400  0.558100  0.663100  1
  C  C610  1  0.534600  0.441900  0.336900  1
  C  C611  1  0.386100  0.570100  0.672900  1
  C  C612  1  0.613900  0.429900  0.327100  1
  C  C613  1  0.334200  0.628100  0.697800  1
  C  C614  1  0.665800  0.371900  0.302200  1
  C  C615  1  0.360900  0.672600  0.711700  1
  C  C616  1  0.639100  0.327400  0.288300  1
  C  C617  1  0.439600  0.661100  0.702700  1
  C  C618  1  0.560400  0.338900  0.297300  1
  C  C619  1  0.827800  0.444900  0.332700  1
  C  C620  1  0.172200  0.555100  0.667300  1
  C  C621  1  0.760200  0.472100  0.368100  1
  C  C622  1  0.239800  0.527900  0.631900  1
  C  C623  1  0.719700  0.547200  0.360000  1
  C  C624  1  0.280300  0.452800  0.640000  1
  C  C625  1  0.750400  0.593300  0.316300  1
  C  C626  1  0.249600  0.406700  0.683700  1
  C  C627  1  0.816200  0.564300  0.281900  1
  C  C628  1  0.183800  0.435700  0.718100  1
  C  C629  1  0.857800  0.488600  0.288400  1
  C  C630  1  0.142200  0.511400  0.711600  1
  C  C631  1  0.926700  0.453800  0.254300  1
  C  C632  1  0.073300  0.546200  0.745700  1
  C  C633  1  0.964400  0.378000  0.266100  1
  C  C634  1  0.035600  0.622000  0.733900  1
  C  C635  1  0.033100  0.337400  0.234300  1
  C  C636  1  0.966900  0.662600  0.765700  1
  C  C637  1  0.066000  0.264200  0.248900  1
  C  C638  1  0.934000  0.735800  0.751100  1
  C  C639  1  0.032700  0.223900  0.296000  1
  C  C640  1  0.967300  0.776100  0.704000  1
  C  C641  1  0.961800  0.262400  0.326200  1
  C  C642  1  0.038200  0.737600  0.673800  1
  C  C643  1  0.930700  0.337300  0.311400  1
  C  C644  1  0.069300  0.662700  0.688600  1
  C  C645  1  0.959400  0.496900  0.205800  1
  C  C646  1  0.040600  0.503100  0.794200  1
  C  C647  1  0.037800  0.485200  0.207500  1
  C  C648  1  0.962200  0.514800  0.792500  1
  C  C649  1  0.070600  0.522100  0.160500  1
  C  C650  1  0.929400  0.477900  0.839500  1
  C  C651  1  0.023300  0.573700  0.111500  1
  C  C652  1  0.976700  0.426300  0.888500  1
  C  C653  1  0.944900  0.586500  0.110900  1
  C  C654  1  0.055100  0.413500  0.889100  1
  C  C655  1  0.912500  0.547800  0.157500  1
  C  C656  1  0.087500  0.452200  0.842500  1
  C  C657  1  0.620600  0.680700  0.907100  1
  C  C658  1  0.379400  0.319300  0.092900  1
  C  C659  1  0.451600  0.591100  0.888600  1
  C  C660  1  0.548400  0.408900  0.111400  1
  C  C661  1  0.599100  0.652700  0.974300  1
  C  C662  1  0.400900  0.347300  0.025700  1
  C  C663  1  0.499900  0.638800  0.053600  1
  C  C664  1  0.500100  0.361200  0.946400  1
  C  C665  1  0.477100  0.762500  0.986300  1
  C  C666  1  0.522900  0.237500  0.013700  1
  C  C667  1  0.735900  0.671700  0.833700  1
  C  C668  1  0.264100  0.328300  0.166300  1
  C  C669  1  0.491900  0.592800  0.941500  1
  C  C670  1  0.508100  0.407200  0.058500  1
  C  C671  1  0.518700  0.608200  0.165500  1
  C  C672  1  0.481300  0.391800  0.834500  1
  C  C673  1  0.466800  0.669600  0.943800  1
  C  C674  1  0.533200  0.330400  0.056200  1
  C  C675  1  0.522900  0.658500  0.105800  1
  C  C676  1  0.477100  0.341500  0.894200  1
  C  C677  1  0.710700  0.648600  0.899900  1
  C  C678  1  0.289300  0.351400  0.100100  1
  C  C679  1  0.392000  0.797000  0.006400  1
  C  C680  1  0.608000  0.203000  0.993600  1
  C  C681  1  0.541200  0.627600  0.221000  1
  C  C682  1  0.458800  0.372400  0.779000  1
  C  C683  1  0.455600  0.516200  0.891000  1
  C  C684  1  0.544400  0.483800  0.109000  1
  C  C685  1  0.376000  0.869300  0.017200  1
  C  C686  1  0.624000  0.130700  0.982800  1
  C  C687  1  0.295200  0.908000  0.038400  1
  C  C688  1  0.704800  0.092000  0.961600  1
  C  C689  1  0.931100  0.181900  0.189500  1
  C  C690  1  0.068900  0.818100  0.810500  1
  C  C691  1  0.878500  0.161000  0.241000  1
  C  C692  1  0.121500  0.839000  0.759000  1
  C  C693  1  0.933300  0.090500  0.284800  1
  C  C694  1  0.066700  0.909500  0.715200  1
  C  C695  1  0.884500  0.061400  0.335100  1
  C  C696  1  0.115500  0.938600  0.664900  1
  C  C697  1  0.905300  0.055900  0.015800  1
  C  C698  1  0.094700  0.944100  0.984200  1
  C  C699  1  0.843500  0.204000  0.104000  1
  C  C700  1  0.156500  0.796000  0.896000  1
  C  C701  1  0.846000  0.122300  0.040200  1
  C  C702  1  0.154000  0.877700  0.959800  1
  C  C703  1  0.898900  0.134600  0.081700  1
  C  C704  1  0.101100  0.865400  0.918300  1
  C  C705  1  0.945800  0.258100  0.090200  1
  C  C706  1  0.054200  0.741900  0.909800  1
  C  C707  1  0.994400  0.289900  0.111100  1
  C  C708  1  0.005600  0.710100  0.888900  1
  C  C709  1  0.032600  0.321500  0.053000  1
  C  C710  1  0.967400  0.678500  0.947000  1
  C  C711  1  0.086300  0.351900  0.069600  1
  C  C712  1  0.913700  0.648100  0.930400  1
  C  C713  1  0.787600  0.445700  0.179900  1
  C  C714  1  0.212400  0.554300  0.820100  1
  C  C715  1  0.737400  0.426800  0.143100  1
  C  C716  1  0.262600  0.573200  0.856900  1
  C  C717  1  0.787700  0.365200  0.111200  1
  C  C718  1  0.212300  0.634800  0.888800  1
  C  C719  1  0.828100  0.293600  0.161300  1
  C  C720  1  0.171900  0.706400  0.838700  1
  C  C721  1  0.030100  0.170200  0.504200  1
  C  C722  1  0.969900  0.829800  0.495800  1
  C  C723  1  0.957100  0.187000  0.480700  1
  C  C724  1  0.042900  0.813000  0.519300  1
  C  C725  1  0.950300  0.133800  0.457600  1
  C  C726  1  0.049700  0.866200  0.542400  1
  C  C727  1  0.014200  0.068100  0.457500  1
  C  C728  1  0.985800  0.931900  0.542500  1
  C  C729  1  0.084700  0.051500  0.483400  1
  C  C730  1  0.915300  0.948500  0.516600  1
  C  C731  1  0.092300  0.102400  0.507100  1
  C  C732  1  0.907700  0.897600  0.492900  1
  C  C733  1  0.072100  0.291000  0.457600  1
  C  C734  1  0.927900  0.709000  0.542400  1
  C  C735  1  0.114400  0.256400  0.411700  1
  C  C736  1  0.885600  0.743600  0.588300  1
  C  C737  1  0.147500  0.291600  0.363300  1
  C  C738  1  0.852500  0.708400  0.636700  1
  C  C739  1  0.134900  0.362400  0.360000  1
  C  C740  1  0.865100  0.637600  0.640000  1
  C  C741  1  0.089100  0.398600  0.406200  1
  C  C742  1  0.910900  0.601400  0.593800  1
  C  C743  1  0.057600  0.362900  0.454600  1
  C  C744  1  0.942400  0.637100  0.545400  1
  C  C745  1  0.119800  0.200000  0.578300  1
  C  C746  1  0.880200  0.800000  0.421700  1
  C  C747  1  0.176800  0.227000  0.572600  1
  C  C748  1  0.823200  0.773000  0.427400  1
  C  C749  1  0.229300  0.203000  0.619700  1
  C  C750  1  0.770700  0.797000  0.380300  1
  C  C751  1  0.224900  0.152000  0.672000  1
  C  C752  1  0.775100  0.848000  0.328000  1
  C  C753  1  0.169000  0.124600  0.676500  1
  C  C754  1  0.831000  0.875400  0.323500  1
  C  C755  1  0.116400  0.147600  0.629700  1
  C  C756  1  0.883600  0.852400  0.370300  1
  C  C757  1  0.814400  0.365400  0.596900  1
  C  C758  1  0.185600  0.634600  0.403100  1
  C  C759  1  0.795400  0.412700  0.539000  1
  C  C760  1  0.204600  0.587300  0.461000  1
  C  C761  1  0.716800  0.461200  0.526800  1
  C  C762  1  0.283200  0.538800  0.473200  1
  C  C763  1  0.658000  0.462100  0.570600  1
  C  C764  1  0.342000  0.537900  0.429400  1
  C  C765  1  0.676100  0.416800  0.627500  1
  C  C766  1  0.323900  0.583200  0.372500  1
  C  C767  1  0.755500  0.368700  0.640100  1
  C  C768  1  0.244500  0.631300  0.359900  1
  C  C769  1  0.936800  0.169100  0.700000  1
  C  C770  1  0.063200  0.830900  0.300000  1
  C  C771  1  0.900500  0.216700  0.646100  1
  C  C772  1  0.099500  0.783300  0.353900  1
  C  C773  1  0.855100  0.200100  0.615400  1
  C  C774  1  0.144900  0.799900  0.384600  1
  C  C775  1  0.845200  0.137600  0.637200  1
  C  C776  1  0.154800  0.862400  0.362800  1
  C  C777  1  0.881400  0.088000  0.689800  1
  C  C778  1  0.118600  0.912000  0.310200  1
  C  C779  1  0.926600  0.105700  0.721500  1
  C  C780  1  0.073400  0.894300  0.278500  1
  C  C781  1  0.953200  0.319500  0.668200  1
  C  C782  1  0.046800  0.680500  0.331800  1
  C  C783  1  0.922100  0.318300  0.728400  1
  C  C784  1  0.077900  0.681700  0.271600  1
  C  C785  1  0.958100  0.332900  0.770000  1
  C  C786  1  0.041900  0.667100  0.230000  1
  C  C787  1  0.023600  0.346500  0.753500  1
  C  C788  1  0.976400  0.653500  0.246500  1
  C  C789  1  0.052200  0.349000  0.693000  1
  C  C790  1  0.947800  0.651000  0.307000  1
  C  C791  1  0.017700  0.336100  0.650600  1
  C  C792  1  0.982300  0.663900  0.349400  1
  C  C793  1  0.474000  0.046000  0.671100  1
  C  C794  1  0.526000  0.954000  0.328900  1
  C  C795  1  0.509700  0.062100  0.606900  1
  C  C796  1  0.490300  0.937900  0.393100  1
  C  C797  1  0.444400  0.099900  0.560000  1
  C  C798  1  0.555600  0.900100  0.440000  1
  C  C799  1  0.473800  0.122700  0.495000  1
  C  C800  1  0.526200  0.877300  0.505000  1
  C  C801  1  0.590300  0.927700  0.705700  1
  C  C802  1  0.409700  0.072300  0.294300  1
  C  C803  1  0.550900  0.882300  0.698200  1
  C  C804  1  0.449100  0.117700  0.301800  1
  C  C805  1  0.616300  0.811300  0.682700  1
  C  C806  1  0.383700  0.188700  0.317300  1
  C  C807  1  0.581000  0.758200  0.678600  1
  C  C808  1  0.419000  0.241800  0.321400  1
  C  C809  1  0.587900  0.036800  0.724400  1
  C  C810  1  0.412100  0.963200  0.275600  1
  C  C811  1  0.545000  0.109300  0.744400  1
  C  C812  1  0.455000  0.890700  0.255600  1
  C  C813  1  0.608000  0.138300  0.747100  1
  C  C814  1  0.392000  0.861700  0.252900  1
  C  C815  1  0.665700  0.094000  0.796000  1
  C  C816  1  0.334300  0.906000  0.204000  1
  C  C817  1  0.488700  0.991200  0.780100  1
  C  C818  1  0.511300  0.008800  0.219900  1
  C  C819  1  0.540200  0.946800  0.835900  1
  C  C820  1  0.459800  0.053200  0.164100  1
  C  C821  1  0.487000  0.950800  0.892800  1
  C  C822  1  0.513000  0.049200  0.107200  1
  C  C823  1  0.538700  0.913600  0.950000  1
  C  C824  1  0.461300  0.086400  0.050000  1
  C  C825  1  0.131400  0.966600  0.131800  1
  C  C826  1  0.868600  0.033400  0.868200  1
  C  C827  1  0.893100  0.534600  0.444900  1
  C  C828  1  0.106900  0.465400  0.555100  1
  C  C829  1  0.695900  0.814700  0.206200  1
  C  C830  1  0.304100  0.185300  0.793800  1
  C  C831  1  0.295600  0.733700  0.222500  1
  C  C832  1  0.704400  0.266300  0.777500  1
  C  C833  1  0.490500  0.590200  0.387500  1
  C  C834  1  0.509500  0.409800  0.612500  1
  C  C835  1  0.513400  0.726400  0.960700  1
  C  C836  1  0.486600  0.273600  0.039300  1
  C  C837  1  0.822700  0.538600  0.022100  1
  C  C838  1  0.177300  0.461400  0.977900  1
  C  C839  1  0.643300  0.616000  0.996700  1
  C  C840  1  0.356700  0.384000  0.003300  1
  C  C841  1  0.761500  0.606800  0.043900  1
  C  C842  1  0.238500  0.393200  0.956100  1
  C  C843  1  0.696000  0.656500  0.996300  1
  C  C844  1  0.304000  0.343500  0.003700  1
  C  C845  1  0.720100  0.646200  0.802600  1
  C  C846  1  0.279900  0.353800  0.197400  1
  C  C847  1  0.684700  0.612900  0.863300  1
  C  C848  1  0.315300  0.387100  0.136700  1
  C  C849  1  0.551400  0.596300  0.945400  1
  C  C850  1  0.448600  0.403700  0.054600  1
  C  C851  1  0.488000  0.623500  0.898700  1
  C  C852  1  0.512000  0.376500  0.101300  1
  C  C853  1  0.391400  0.587200  0.869100  1
  C  C854  1  0.608600  0.412800  0.130900  1
  C  C855  1  0.615500  0.675000  0.885100  1
  C  C856  1  0.384500  0.325000  0.114900  1
  C  C857  1  0.455700  0.565300  0.910500  1
  C  C858  1  0.544300  0.434700  0.089500  1
  C  C859  1  0.761000  0.690400  0.811700  1
  C  C860  1  0.239000  0.309600  0.188300  1
  C  C861  1  0.460800  0.715100  0.014100  1
  C  C862  1  0.539200  0.284900  0.985900  1
  C  C863  1  0.400000  0.788000  0.022200  1
  C  C864  1  0.600000  0.212000  0.977800  1
  C  C865  1  0.347100  0.789200  0.074300  1
  C  C866  1  0.652900  0.210800  0.925700  1
  C  C867  1  0.828500  0.240300  0.106000  1
  C  C868  1  0.171500  0.759700  0.894000  1
  C  C869  1  0.870100  0.170500  0.080900  1
  C  C870  1  0.129900  0.829500  0.919100  1
  C  C871  1  0.809900  0.165400  0.044300  1
  C  C872  1  0.190100  0.834600  0.955700  1
  C  C873  1  0.854700  0.099300  0.013100  1
  C  C874  1  0.145300  0.900700  0.986900  1
  C  C875  1  0.771800  0.454900  0.151100  1
  C  C876  1  0.228200  0.545100  0.848900  1
  C  C877  1  0.739700  0.527600  0.106600  1
  C  C878  1  0.260300  0.472400  0.893400  1
  C  C879  1  0.808200  0.392100  0.117100  1
  C  C880  1  0.191800  0.607900  0.882900  1
  C  C881  1  0.838500  0.320000  0.164900  1
  C  C882  1  0.161500  0.680000  0.835100  1
  C  C883  1  0.623500  0.625600  0.205800  1
  C  C884  1  0.376500  0.374400  0.794200  1
  C  C885  1  0.446000  0.010400  0.907900  1
  C  C886  1  0.554000  0.989600  0.092100  1
  C  C887  1  0.557300  0.813500  0.111700  1
  C  C888  1  0.442700  0.186500  0.888300  1
  N  N889  1  0.510800  0.680100  0.989700  1
  N  N890  1  0.489200  0.319900  0.010300  1
  N  N891  1  0.885700  0.243900  0.137500  1
  N  N892  1  0.114300  0.756100  0.862500  1
  N  N893  1  0.961200  0.297400  0.549420  1
  N  N894  1  0.038800  0.702600  0.450580  1
  N  N895  1  0.535200  0.000800  0.720290  1
  N  N896  1  0.464800  0.999200  0.279710  1
  N  N897  1  0.582600  0.651800  0.947100  1
  N  N898  1  0.417400  0.348200  0.052900  1
  O  O899  1  0.259850  0.107830  0.205310  1
  O  O900  1  0.740150  0.892170  0.794690  1
  O  O901  1  0.128700  0.087590  0.209320  1
  O  O902  1  0.871300  0.912410  0.790680  1
  O  O903  1  0.211760  0.021320  0.310930  1
  O  O904  1  0.788240  0.978680  0.689070  1
  O  O905  1  0.218470  0.135220  0.323400  1
  O  O906  1  0.781530  0.864780  0.676600  1
  O  O907  1  0.354670  0.944620  0.734420  1
  O  O908  1  0.645330  0.055380  0.265580  1
  O  O909  1  0.363900  0.819730  0.735880  1
  O  O910  1  0.636100  0.180270  0.264120  1
  O  O911  1  0.305990  0.027470  0.524940  1
  O  O912  1  0.694010  0.972530  0.475060  1
  O  O913  1  0.455300  0.830100  0.824830  1
  O  O914  1  0.544700  0.169900  0.175170  1
  O  O915  1  0.339700  0.785600  0.856020  1
  O  O916  1  0.660300  0.214400  0.143980  1
  O  O917  1  0.321280  0.930000  0.859520  1
  O  O918  1  0.678720  0.070000  0.140480  1
  O  O919  1  0.232900  0.915600  0.793100  1
  O  O920  1  0.767100  0.084400  0.206900  1
  O  O921  1  0.847030  0.333000  0.958400  1
  O  O922  1  0.152970  0.667000  0.041600  1
  O  O923  1  0.775400  0.302600  0.888800  1
  O  O924  1  0.224600  0.697400  0.111200  1
  O  O925  1  0.009400  0.113400  0.840070  1
  O  O926  1  0.990600  0.886600  0.159930  1
  O  O927  1  0.682600  0.353800  0.985010  1
  O  O928  1  0.317400  0.646200  0.014990  1
  O  O929  1  0.728400  0.460600  0.966540  1
  O  O930  1  0.271600  0.539400  0.033460  1
  O  O931  1  0.648900  0.444900  0.874500  1
  O  O932  1  0.351100  0.555100  0.125500  1
  O  O933  1  0.790300  0.429000  0.850620  1
  O  O934  1  0.209700  0.571000  0.149380  1
  O  O935  1  0.553070  0.693280  0.447680  1
  O  O936  1  0.446930  0.306720  0.552320  1
  O  O937  1  0.698790  0.664650  0.438820  1
  O  O938  1  0.301210  0.335350  0.561180  1
  O  O939  1  0.734620  0.562000  0.648720  1
  O  O940  1  0.265380  0.438000  0.351280  1
  O  O941  1  0.536800  0.708900  0.329570  1
  O  O942  1  0.463200  0.291100  0.670430  1
  O  O943  1  0.610700  0.783200  0.349240  1
  O  O944  1  0.389300  0.216800  0.650760  1
  O  O945  1  0.708200  0.664020  0.312960  1
  O  O946  1  0.291800  0.335980  0.687040  1
  O  O947  1  0.655900  0.580500  0.389030  1
  O  O948  1  0.344100  0.419500  0.610970  1
  O  O949  1  0.131070  0.222310  0.220990  1
  O  O950  1  0.868930  0.777690  0.779010  1
  O  O951  1  0.069200  0.154360  0.305740  1
  O  O952  1  0.930800  0.845640  0.694260  1
  O  O953  1  0.864490  0.370900  0.342690  1
  O  O954  1  0.135510  0.629100  0.657310  1
  O  O955  1  0.070000  0.023100  0.152400  1
  O  O956  1  0.930000  0.976900  0.847600  1
  O  O957  1  0.861200  0.610300  0.435740  1
  O  O958  1  0.138800  0.389700  0.564260  1
  O  O959  1  0.728000  0.748500  0.200100  1
  O  O960  1  0.272000  0.251500  0.799900  1
  O  O961  1  0.297700  0.675900  0.216300  1
  O  O962  1  0.702300  0.324100  0.783700  1
  O  O963  1  0.462500  0.629300  0.328800  1
  O  O964  1  0.537500  0.370700  0.671200  1
  O  O965  1  0.522200  0.544000  0.445800  1
  O  O966  1  0.477800  0.456000  0.554200  1
  O  O967  1  0.467000  0.604200  0.212400  1
  O  O968  1  0.533000  0.395800  0.787600  1
  O  O969  1  0.585400  0.633200  0.153500  1
  O  O970  1  0.414600  0.366800  0.846500  1
  O  O971  1  0.324100  0.745900  0.154100  1
  O  O972  1  0.675900  0.254100  0.845900  1
  O  O973  1  0.635100  0.744600  0.111400  1
  O  O974  1  0.364900  0.255400  0.888600  1
