# generated using pymatgen
data_P6H199W4C193N5O31
_symmetry_space_group_name_H-M   'P 1'
_cell_length_a   18.40660000
_cell_length_b   20.86490000
_cell_length_c   21.35980000
_cell_angle_alpha   88.31200000
_cell_angle_beta   65.14500000
_cell_angle_gamma   83.72600000
_symmetry_Int_Tables_number   1
_chemical_formula_structural   P6H199W4C193N5O31
_chemical_formula_sum   'P12 H398 W8 C386 N10 O62'
_cell_volume   7397.62215997
_cell_formula_units_Z   2
loop_
 _symmetry_equiv_pos_site_id
 _symmetry_equiv_pos_as_xyz
  1  'x, y, z'
loop_
 _atom_site_type_symbol
 _atom_site_label
 _atom_site_symmetry_multiplicity
 _atom_site_fract_x
 _atom_site_fract_y
 _atom_site_fract_z
 _atom_site_occupancy
  P  P1  1  0.801900  0.960700  0.908000  1
  P  P2  1  0.198100  0.039300  0.092000  1
  P  P3  1  0.735800  0.873100  0.020000  1
  P  P4  1  0.264200  0.126900  0.980000  1
  P  P5  1  0.894500  0.895100  0.914800  1
  P  P6  1  0.105500  0.104900  0.085200  1
  P  P7  1  0.663400  0.930900  0.045500  1
  P  P8  1  0.336600  0.069100  0.954500  1
  P  P9  1  0.843600  0.905900  0.916400  1.0
  P  P10  1  0.156400  0.094100  0.083600  1.0
  P  P11  1  0.682400  0.961600  0.008600  1.0
  P  P12  1  0.317600  0.038400  0.991400  1.0
  H  H13  1  0.939900  0.383200  0.031200  1
  H  H14  1  0.060100  0.616800  0.968800  1
  H  H15  1  0.019900  0.419100  0.002900  1
  H  H16  1  0.980100  0.580900  0.997100  1
  H  H17  1  0.012700  0.361400  0.958800  1
  H  H18  1  0.987300  0.638600  0.041200  1
  H  H19  1  0.084000  0.397400  0.743500  1
  H  H20  1  0.916000  0.602600  0.256500  1
  H  H21  1  0.050700  0.472200  0.755600  1
  H  H22  1  0.949300  0.527800  0.244400  1
  H  H23  1  0.200400  0.423200  0.648700  1
  H  H24  1  0.799600  0.576800  0.351300  1
  H  H25  1  0.166800  0.498200  0.660800  1
  H  H26  1  0.833200  0.501800  0.339200  1
  H  H27  1  0.086300  0.400800  0.627800  1
  H  H28  1  0.913700  0.599200  0.372200  1
  H  H29  1  0.051900  0.475600  0.640600  1
  H  H30  1  0.948100  0.524400  0.359400  1
  H  H31  1  0.262900  0.427200  0.713600  1
  H  H32  1  0.737100  0.572800  0.286400  1
  H  H33  1  0.253400  0.412200  0.790300  1
  H  H34  1  0.746600  0.587800  0.209700  1
  H  H35  1  0.207400  0.333400  0.709000  1
  H  H36  1  0.792600  0.666600  0.291000  1
  H  H37  1  0.186200  0.319900  0.788700  1
  H  H38  1  0.813800  0.680100  0.211300  1
  H  H39  1  0.346200  0.316300  0.680300  1
  H  H40  1  0.653800  0.683700  0.319700  1
  H  H41  1  0.329800  0.311600  0.759800  1
  H  H42  1  0.670200  0.688400  0.240200  1
  H  H43  1  0.368300  0.211000  0.708100  1
  H  H44  1  0.631700  0.789000  0.291900  1
  H  H45  1  0.294400  0.218700  0.686700  1
  H  H46  1  0.705600  0.781300  0.313300  1
  H  H47  1  0.278000  0.214000  0.766400  1
  H  H48  1  0.722000  0.786000  0.233600  1
  H  H49  1  0.195000  0.533300  0.741700  1
  H  H50  1  0.805000  0.466700  0.258300  1
  H  H51  1  0.105500  0.547600  0.800900  1
  H  H52  1  0.894500  0.452400  0.199100  1
  H  H53  1  0.245900  0.509900  0.825300  1
  H  H54  1  0.754100  0.490100  0.174700  1
  H  H55  1  0.156500  0.519100  0.885800  1
  H  H56  1  0.843500  0.480900  0.114200  1
  H  H57  1  0.225400  0.622800  0.795100  1
  H  H58  1  0.774600  0.377200  0.204900  1
  H  H59  1  0.142700  0.630100  0.863200  1
  H  H60  1  0.857300  0.369900  0.136800  1
  H  H61  1  0.245400  0.669900  0.885600  1
  H  H62  1  0.754600  0.330100  0.114400  1
  H  H63  1  0.298200  0.601300  0.864400  1
  H  H64  1  0.701800  0.398700  0.135600  1
  H  H65  1  0.215400  0.608600  0.932500  1
  H  H66  1  0.784600  0.391400  0.067500  1
  H  H67  1  0.122100  0.421700  0.887300  1
  H  H68  1  0.877900  0.578300  0.112700  1
  H  H69  1  0.081600  0.379200  0.852200  1
  H  H70  1  0.918400  0.620800  0.147800  1
  H  H71  1  0.021800  0.508600  0.905700  1
  H  H72  1  0.978200  0.491400  0.094300  1
  H  H73  1  0.984600  0.472200  0.863000  1
  H  H74  1  0.015400  0.527800  0.137000  1
  H  H75  1  0.923400  0.471300  0.994200  1
  H  H76  1  0.076600  0.528700  0.005800  1
  H  H77  1  0.916200  0.413900  0.950300  1
  H  H78  1  0.083800  0.586100  0.049700  1
  H  H79  1  0.650500  0.096300  0.181800  1
  H  H80  1  0.349500  0.903700  0.818200  1
  H  H81  1  0.484300  0.271200  0.149400  1
  H  H82  1  0.515700  0.728800  0.850600  1
  H  H83  1  0.732500  0.320500  0.932900  1
  H  H84  1  0.267500  0.679500  0.067100  1
  H  H85  1  0.870800  0.136700  0.987400  1
  H  H86  1  0.129200  0.863300  0.012600  1
  H  H87  1  0.598500  0.283700  0.944400  1
  H  H88  1  0.401500  0.716300  0.055600  1
  H  H89  1  0.515800  0.367800  0.925200  1
  H  H90  1  0.484200  0.632200  0.074800  1
  H  H91  1  0.456000  0.452100  0.005600  1
  H  H92  1  0.544000  0.547900  0.994400  1
  H  H93  1  0.484900  0.457300  0.101000  1
  H  H94  1  0.515100  0.542700  0.899000  1
  H  H95  1  0.566200  0.372500  0.122100  1
  H  H96  1  0.433800  0.627500  0.877900  1
  H  H97  1  0.915000  0.070500  0.716200  1
  H  H98  1  0.085000  0.929500  0.283800  1
  H  H99  1  0.184900  0.088800  0.679700  1
  H  H100  1  0.815100  0.911200  0.320300  1
  H  H101  1  0.246200  0.850300  0.603600  1
  H  H102  1  0.753800  0.149700  0.396400  1
  H  H103  1  0.966100  0.858000  0.662800  1
  H  H104  1  0.033900  0.142000  0.337200  1
  H  H105  1  0.259800  0.911900  0.700700  1
  H  H106  1  0.740200  0.088100  0.299300  1
  H  H107  1  0.396500  0.920600  0.675600  1
  H  H108  1  0.603500  0.079400  0.324400  1
  H  H109  1  0.468700  0.988800  0.576900  1
  H  H110  1  0.531300  0.011200  0.423100  1
  H  H111  1  0.405000  0.045000  0.519600  1
  H  H112  1  0.595000  0.955000  0.480400  1
  H  H113  1  0.269400  0.036200  0.549700  1
  H  H114  1  0.730600  0.963800  0.450300  1
  H  H115  1  0.005900  0.683000  0.856800  1
  H  H116  1  0.994100  0.317000  0.143200  1
  H  H117  1  0.919000  0.552100  0.728200  1
  H  H118  1  0.081000  0.447900  0.271800  1
  H  H119  1  0.698600  0.497000  0.966500  1
  H  H120  1  0.301400  0.503000  0.033500  1
  H  H121  1  0.803200  0.646400  0.059500  1
  H  H122  1  0.196800  0.353600  0.940500  1
  H  H123  1  0.900400  0.440600  0.795400  1
  H  H124  1  0.099600  0.559400  0.204600  1
  H  H125  1  0.850900  0.364400  0.747800  1
  H  H126  1  0.149100  0.635600  0.252200  1
  H  H127  1  0.719500  0.382700  0.756100  1
  H  H128  1  0.280500  0.617300  0.243900  1
  H  H129  1  0.637100  0.479300  0.808800  1
  H  H130  1  0.362900  0.520700  0.191200  1
  H  H131  1  0.686200  0.552400  0.859700  1
  H  H132  1  0.313800  0.447600  0.140300  1
  H  H133  1  0.468700  0.755400  0.150400  1
  H  H134  1  0.531300  0.244600  0.849600  1
  H  H135  1  0.486200  0.706400  0.362800  1
  H  H136  1  0.513800  0.293600  0.637200  1
  H  H137  1  0.399700  0.947900  0.424400  1
  H  H138  1  0.600300  0.052100  0.575600  1
  H  H139  1  0.392300  0.966300  0.204900  1
  H  H140  1  0.607700  0.033700  0.795100  1
  H  H141  1  0.345400  0.768700  0.464800  1
  H  H142  1  0.654600  0.231300  0.535200  1
  H  H143  1  0.357400  0.748400  0.569300  1
  H  H144  1  0.642600  0.251600  0.430700  1
  H  H145  1  0.461900  0.790200  0.588600  1
  H  H146  1  0.538100  0.209800  0.411400  1
  H  H147  1  0.554500  0.848800  0.501900  1
  H  H148  1  0.445500  0.151200  0.498100  1
  H  H149  1  0.542700  0.867900  0.397900  1
  H  H150  1  0.457300  0.132100  0.602100  1
  H  H151  1  0.993900  0.280900  0.468700  1
  H  H152  1  0.006100  0.719100  0.531300  1
  H  H153  1  0.074500  0.301000  0.470400  1
  H  H154  1  0.925500  0.699000  0.529600  1
  H  H155  1  0.913500  0.328200  0.578100  1
  H  H156  1  0.086500  0.671800  0.421900  1
  H  H157  1  0.990700  0.336000  0.592800  1
  H  H158  1  0.009300  0.664000  0.407200  1
  H  H159  1  0.955600  0.405500  0.489100  1
  H  H160  1  0.044400  0.594500  0.510900  1
  H  H161  1  0.032500  0.413400  0.504200  1
  H  H162  1  0.967500  0.586600  0.495800  1
  H  H163  1  0.927800  0.499800  0.562300  1
  H  H164  1  0.072200  0.500200  0.437700  1
  H  H165  1  0.944000  0.456200  0.618900  1
  H  H166  1  0.056000  0.543800  0.381100  1
  H  H167  1  0.867300  0.448200  0.603800  1
  H  H168  1  0.132700  0.551800  0.396200  1
  H  H169  1  0.054200  0.252900  0.611700  1
  H  H170  1  0.945800  0.747100  0.388300  1
  H  H171  1  0.096500  0.181800  0.585400  1
  H  H172  1  0.903500  0.818200  0.414600  1
  H  H173  1  0.154500  0.298300  0.519300  1
  H  H174  1  0.845500  0.701700  0.480700  1
  H  H175  1  0.194300  0.228100  0.485300  1
  H  H176  1  0.805700  0.771900  0.514700  1
  H  H177  1  0.178400  0.262300  0.622900  1
  H  H178  1  0.821600  0.737700  0.377100  1
  H  H179  1  0.229400  0.198700  0.579800  1
  H  H180  1  0.770600  0.801300  0.420200  1
  H  H181  1  0.308100  0.270900  0.578600  1
  H  H182  1  0.691900  0.729100  0.421400  1
  H  H183  1  0.263500  0.322300  0.545900  1
  H  H184  1  0.736500  0.677700  0.454100  1
  H  H185  1  0.314400  0.258700  0.502800  1
  H  H186  1  0.685600  0.741300  0.497200  1
  H  H187  1  0.044600  0.168800  0.443800  1
  H  H188  1  0.955400  0.831200  0.556200  1
  H  H189  1  0.129200  0.187700  0.437500  1
  H  H190  1  0.870800  0.812300  0.562500  1
  H  H191  1  0.046100  0.090000  0.527400  1
  H  H192  1  0.953900  0.910000  0.472600  1
  H  H193  1  0.135000  0.106300  0.513100  1
  H  H194  1  0.865000  0.893700  0.486900  1
  H  H195  1  0.180100  0.078000  0.394200  1
  H  H196  1  0.819900  0.922000  0.605800  1
  H  H197  1  0.091600  0.060900  0.409100  1
  H  H198  1  0.908400  0.939100  0.590900  1
  H  H199  1  0.175600  0.962700  0.408100  1
  H  H200  1  0.824400  0.037300  0.591900  1
  H  H201  1  0.104200  0.974200  0.483600  1
  H  H202  1  0.895800  0.025800  0.516400  1
  H  H203  1  0.192600  0.991400  0.468700  1
  H  H204  1  0.807400  0.008600  0.531300  1
  H  H205  1  0.963300  0.161700  0.603600  1
  H  H206  1  0.036700  0.838300  0.396400  1
  H  H207  1  0.929600  0.236300  0.619100  1
  H  H208  1  0.070400  0.763700  0.380900  1
  H  H209  1  0.917200  0.157000  0.518900  1
  H  H210  1  0.082800  0.843000  0.481100  1
  H  H211  1  0.892500  0.233400  0.524400  1
  H  H212  1  0.107500  0.766600  0.475600  1
  H  H213  1  0.783600  0.156800  0.591900  1
  H  H214  1  0.216400  0.843200  0.408100  1
  H  H215  1  0.817900  0.162300  0.649000  1
  H  H216  1  0.182100  0.837700  0.351000  1
  H  H217  1  0.706700  0.244200  0.671200  1
  H  H218  1  0.293300  0.755800  0.328800  1
  H  H219  1  0.752700  0.272600  0.596000  1
  H  H220  1  0.247300  0.727400  0.404000  1
  H  H221  1  0.787000  0.278100  0.652900  1
  H  H222  1  0.213000  0.721900  0.347100  1
  H  H223  1  0.500000  0.387500  0.267200  1
  H  H224  1  0.500000  0.612500  0.732800  1
  H  H225  1  0.538700  0.411700  0.315400  1
  H  H226  1  0.461300  0.588300  0.684600  1
  H  H227  1  0.502800  0.282600  0.311600  1
  H  H228  1  0.497200  0.717400  0.688400  1
  H  H229  1  0.541900  0.306900  0.359800  1
  H  H230  1  0.458100  0.693100  0.640200  1
  H  H231  1  0.616300  0.293600  0.212700  1
  H  H232  1  0.383700  0.706400  0.787300  1
  H  H233  1  0.650600  0.339800  0.250000  1
  H  H234  1  0.349400  0.660200  0.750000  1
  H  H235  1  0.723800  0.237100  0.230200  1
  H  H236  1  0.276200  0.762900  0.769800  1
  H  H237  1  0.642800  0.204900  0.274300  1
  H  H238  1  0.357200  0.795100  0.725700  1
  H  H239  1  0.677100  0.251100  0.311500  1
  H  H240  1  0.322900  0.748900  0.688500  1
  H  H241  1  0.359300  0.397500  0.478500  1
  H  H242  1  0.640700  0.602500  0.521500  1
  H  H243  1  0.420600  0.334200  0.446200  1
  H  H244  1  0.579400  0.665800  0.553800  1
  H  H245  1  0.468400  0.459300  0.456900  1
  H  H246  1  0.531600  0.540700  0.543100  1
  H  H247  1  0.532000  0.398400  0.419000  1
  H  H248  1  0.468000  0.601600  0.581000  1
  H  H249  1  0.462000  0.341300  0.534600  1
  H  H250  1  0.538000  0.658700  0.465400  1
  H  H251  1  0.526600  0.388800  0.530300  1
  H  H252  1  0.473400  0.611200  0.469700  1
  H  H253  1  0.407900  0.411300  0.630900  1
  H  H254  1  0.592100  0.588700  0.369100  1
  H  H255  1  0.357400  0.424700  0.585600  1
  H  H256  1  0.642600  0.575300  0.414400  1
  H  H257  1  0.421900  0.472200  0.581300  1
  H  H258  1  0.578100  0.527800  0.418700  1
  H  H259  1  0.303700  0.373300  0.398800  1
  H  H260  1  0.696300  0.626700  0.601200  1
  H  H261  1  0.372600  0.315000  0.364600  1
  H  H262  1  0.627400  0.685000  0.635400  1
  H  H263  1  0.346000  0.420400  0.283200  1
  H  H264  1  0.654000  0.579600  0.716800  1
  H  H265  1  0.402600  0.354400  0.252700  1
  H  H266  1  0.597400  0.645600  0.747300  1
  H  H267  1  0.285900  0.296300  0.300500  1
  H  H268  1  0.714100  0.703700  0.699500  1
  H  H269  1  0.281000  0.346700  0.244000  1
  H  H270  1  0.719000  0.653300  0.756000  1
  H  H271  1  0.155000  0.354000  0.342500  1
  H  H272  1  0.845000  0.646000  0.657500  1
  H  H273  1  0.193100  0.420800  0.334200  1
  H  H274  1  0.806900  0.579200  0.665800  1
  H  H275  1  0.198000  0.370400  0.390600  1
  H  H276  1  0.802000  0.629600  0.609400  1
  H  H277  1  0.414900  0.481700  0.310600  1
  H  H278  1  0.585100  0.518300  0.689400  1
  H  H279  1  0.434000  0.497200  0.374800  1
  H  H280  1  0.566000  0.502800  0.625200  1
  H  H281  1  0.292800  0.487600  0.452400  1
  H  H282  1  0.707200  0.512400  0.547600  1
  H  H283  1  0.274900  0.477400  0.386000  1
  H  H284  1  0.725100  0.522600  0.614000  1
  H  H285  1  0.331400  0.585400  0.341600  1
  H  H286  1  0.668600  0.414600  0.658400  1
  H  H287  1  0.247800  0.594900  0.409600  1
  H  H288  1  0.752200  0.405100  0.590400  1
  H  H289  1  0.345300  0.649600  0.424100  1
  H  H290  1  0.654700  0.350400  0.575900  1
  H  H291  1  0.402900  0.583400  0.411100  1
  H  H292  1  0.597100  0.416600  0.588900  1
  H  H293  1  0.319700  0.592900  0.478700  1
  H  H294  1  0.680300  0.407100  0.521300  1
  H  H295  1  0.757700  0.954300  0.790700  1
  H  H296  1  0.242300  0.045700  0.209300  1
  H  H297  1  0.752400  0.869400  0.724000  1
  H  H298  1  0.247600  0.130600  0.276000  1
  H  H299  1  0.825300  0.769300  0.720300  1
  H  H300  1  0.174700  0.230700  0.279700  1
  H  H301  1  0.903500  0.754100  0.783100  1
  H  H302  1  0.096500  0.245900  0.216900  1
  H  H303  1  0.908700  0.838900  0.849800  1
  H  H304  1  0.091300  0.161100  0.150200  1
  H  H305  1  0.845100  0.989200  0.009200  1
  H  H306  1  0.154900  0.010800  0.990800  1
  H  H307  1  0.962300  0.009300  0.019300  1
  H  H308  1  0.037700  0.990700  0.980700  1
  H  H309  1  0.083900  0.008800  0.920800  1
  H  H310  1  0.916100  0.991200  0.079200  1
  H  H311  1  0.088200  0.988300  0.812100  1
  H  H312  1  0.911800  0.011700  0.187900  1
  H  H313  1  0.970900  0.968300  0.802000  1
  H  H314  1  0.029100  0.031700  0.198000  1
  H  H315  1  0.646200  0.011800  0.940100  1
  H  H316  1  0.353800  0.988200  0.059900  1
  H  H317  1  0.583100  0.107000  0.916500  1
  H  H318  1  0.416900  0.893000  0.083500  1
  H  H319  1  0.660300  0.187800  0.852700  1
  H  H320  1  0.339700  0.812200  0.147300  1
  H  H321  1  0.800600  0.173400  0.812600  1
  H  H322  1  0.199400  0.826600  0.187400  1
  H  H323  1  0.863600  0.078200  0.836300  1
  H  H324  1  0.136400  0.921800  0.163700  1
  H  H325  1  0.288400  0.150800  0.103400  1
  H  H326  1  0.711600  0.849200  0.896600  1
  H  H327  1  0.331500  0.243300  0.130600  1
  H  H328  1  0.668500  0.756700  0.869400  1
  H  H329  1  0.378100  0.323000  0.048000  1
  H  H330  1  0.621900  0.677000  0.952000  1
  H  H331  1  0.381500  0.310200  0.938300  1
  H  H332  1  0.618500  0.689800  0.061700  1
  H  H333  1  0.338400  0.217800  0.911100  1
  H  H334  1  0.661600  0.782200  0.088900  1
  H  H335  1  0.951600  0.365100  0.903500  1
  H  H336  1  0.048400  0.634900  0.096500  1
  H  H337  1  0.866900  0.407600  0.942600  1
  H  H338  1  0.133100  0.592400  0.057400  1
  H  H339  1  0.900100  0.356600  0.984500  1
  H  H340  1  0.099900  0.643400  0.015500  1
  H  H341  1  0.798300  0.878700  0.186400  1
  H  H342  1  0.201700  0.121300  0.813600  1
  H  H343  1  0.693000  0.919400  0.289300  1
  H  H344  1  0.307000  0.080600  0.710700  1
  H  H345  1  0.571800  0.966600  0.289000  1
  H  H346  1  0.428200  0.033400  0.711000  1
  H  H347  1  0.555900  0.973000  0.185900  1
  H  H348  1  0.444100  0.027000  0.814100  1
  H  H349  1  0.782300  0.885200  0.083200  1
  H  H350  1  0.217700  0.114800  0.916800  1
  H  H351  1  0.561500  0.932000  0.145200  1.0
  H  H352  1  0.438500  0.068000  0.854800  1.0
  H  H353  1  0.558000  0.924400  0.255900  1.0
  H  H354  1  0.442000  0.075600  0.744100  1.0
  H  H355  1  0.672200  0.940800  0.272900  1.0
  H  H356  1  0.327800  0.059200  0.727100  1.0
  H  H357  1  0.789800  0.964700  0.179300  1.0
  H  H358  1  0.210200  0.035300  0.820700  1.0
  H  H359  1  0.793300  0.972300  0.068600  1.0
  H  H360  1  0.206700  0.027700  0.931400  1.0
  H  H361  1  0.533800  0.024600  0.094900  1.0
  H  H362  1  0.466200  0.975400  0.905100  1.0
  H  H363  1  0.455200  0.117800  0.086800  1.0
  H  H364  1  0.544800  0.882200  0.913200  1.0
  H  H365  1  0.505500  0.184200  0.991100  1.0
  H  H366  1  0.494500  0.815800  0.008900  1.0
  H  H367  1  0.634300  0.157500  0.903600  1.0
  H  H368  1  0.365700  0.842500  0.096400  1.0
  H  H369  1  0.712900  0.064400  0.911700  1.0
  H  H370  1  0.287100  0.935600  0.088300  1.0
  H  H371  1  0.885900  0.037800  0.916300  1.0
  H  H372  1  0.114100  0.962200  0.083700  1.0
  H  H373  1  0.006800  0.084800  0.875300  1.0
  H  H374  1  0.993200  0.915200  0.124700  1.0
  H  H375  1  0.128800  0.022800  0.811200  1.0
  H  H376  1  0.871200  0.977200  0.188800  1.0
  H  H377  1  0.129800  0.913700  0.788100  1.0
  H  H378  1  0.870200  0.086300  0.211900  1.0
  H  H379  1  0.008800  0.866600  0.829100  1.0
  H  H380  1  0.991200  0.133400  0.170900  1.0
  H  H381  1  0.784000  0.939200  0.820100  1.0
  H  H382  1  0.216000  0.060800  0.179900  1.0
  H  H383  1  0.765300  0.887000  0.733300  1.0
  H  H384  1  0.234700  0.113000  0.266700  1.0
  H  H385  1  0.804900  0.776400  0.712200  1.0
  H  H386  1  0.195100  0.223600  0.287800  1.0
  H  H387  1  0.863100  0.718000  0.777900  1.0
  H  H388  1  0.136900  0.282000  0.222100  1.0
  H  H389  1  0.881700  0.770200  0.864700  1.0
  H  H390  1  0.118300  0.229800  0.135300  1.0
  H  H391  1  0.957700  0.887700  0.979800  1.0
  H  H392  1  0.042300  0.112300  0.020200  1.0
  H  H393  1  0.960800  0.827300  0.072900  1.0
  H  H394  1  0.039200  0.172700  0.927100  1.0
  H  H395  1  0.863400  0.756700  0.128100  1.0
  H  H396  1  0.136600  0.243300  0.871900  1.0
  H  H397  1  0.763000  0.746300  0.090200  1.0
  H  H398  1  0.237000  0.253700  0.909800  1.0
  H  H399  1  0.759900  0.806600  0.997100  1.0
  H  H400  1  0.240100  0.193400  0.002900  1.0
  H  H401  1  0.624100  0.840300  0.072900  1.0
  H  H402  1  0.375900  0.159700  0.927100  1.0
  H  H403  1  0.584400  0.751200  0.036100  1.0
  H  H404  1  0.415600  0.248800  0.963900  1.0
  H  H405  1  0.563200  0.756700  0.935400  1.0
  H  H406  1  0.436800  0.243300  0.064600  1.0
  H  H407  1  0.581600  0.851400  0.871500  1.0
  H  H408  1  0.418400  0.148600  0.128500  1.0
  H  H409  1  0.621300  0.940500  0.908300  1.0
  H  H410  1  0.378700  0.059500  0.091700  1.0
  W  W411  1  0.376850  0.148952  0.341425  1
  W  W412  1  0.623150  0.851048  0.658575  1
  W  W413  1  0.992450  0.257471  0.784006  1
  W  W414  1  0.007550  0.742529  0.215994  1
  W  W415  1  0.139370  0.660614  0.611220  1
  W  W416  1  0.860630  0.339386  0.388780  1
  W  W417  1  0.565970  0.546444  0.196754  1
  W  W418  1  0.434030  0.453556  0.803246  1
  C  C419  1  0.738000  0.230200  0.786400  1
  C  C420  1  0.262000  0.769800  0.213600  1
  C  C421  1  0.113000  0.775200  0.868000  1
  C  C422  1  0.887000  0.224800  0.132000  1
  C  C423  1  0.983000  0.398300  0.989700  1
  C  C424  1  0.017000  0.601700  0.010300  1
  C  C425  1  0.100200  0.441600  0.739400  1
  C  C426  1  0.899800  0.558400  0.260600  1
  C  C427  1  0.150900  0.453800  0.665800  1
  C  C428  1  0.849100  0.546200  0.334200  1
  C  C429  1  0.101700  0.445300  0.623100  1
  C  C430  1  0.898300  0.554700  0.376900  1
  C  C431  1  0.151500  0.458200  0.549900  1
  C  C432  1  0.848500  0.541800  0.450100  1
  C  C433  1  0.228100  0.408600  0.757900  1
  C  C434  1  0.771900  0.591400  0.242100  1
  C  C435  1  0.225300  0.338100  0.746100  1
  C  C436  1  0.774700  0.661900  0.253900  1
  C  C437  1  0.309400  0.300900  0.725700  1
  C  C438  1  0.690600  0.699100  0.274300  1
  C  C439  1  0.312800  0.230200  0.721400  1
  C  C440  1  0.687200  0.769800  0.278600  1
  C  C441  1  0.157700  0.520800  0.788300  1
  C  C442  1  0.842300  0.479200  0.211700  1
  C  C443  1  0.191800  0.533900  0.839600  1
  C  C444  1  0.808200  0.466100  0.160400  1
  C  C445  1  0.197700  0.607100  0.842600  1
  C  C446  1  0.802300  0.392900  0.157400  1
  C  C447  1  0.243300  0.623200  0.885100  1
  C  C448  1  0.756700  0.376800  0.114900  1
  C  C449  1  0.092400  0.423600  0.857900  1
  C  C450  1  0.907600  0.576400  0.142100  1
  C  C451  1  0.011400  0.465700  0.894700  1
  C  C452  1  0.988600  0.534300  0.105300  1
  C  C453  1  0.954900  0.435700  0.961100  1
  C  C454  1  0.045100  0.564300  0.038900  1
  C  C455  1  0.648800  0.173500  0.121600  1
  C  C456  1  0.351200  0.826500  0.878400  1
  C  C457  1  0.617800  0.132800  0.177000  1
  C  C458  1  0.382200  0.867200  0.823000  1
  C  C459  1  0.538800  0.145600  0.225300  1
  C  C460  1  0.461200  0.854400  0.774700  1
  C  C461  1  0.488700  0.198700  0.212500  1
  C  C462  1  0.511300  0.801300  0.787500  1
  C  C463  1  0.518500  0.237200  0.156700  1
  C  C464  1  0.481500  0.762800  0.843300  1
  C  C465  1  0.602400  0.226300  0.108500  1
  C  C466  1  0.397600  0.773700  0.891500  1
  C  C467  1  0.637000  0.263400  0.050700  1
  C  C468  1  0.363000  0.736600  0.949300  1
  C  C469  1  0.718100  0.247600  0.004700  1
  C  C470  1  0.281900  0.752400  0.995300  1
  C  C471  1  0.759100  0.283300  0.943900  1
  C  C472  1  0.240900  0.716700  0.056100  1
  C  C473  1  0.838300  0.262200  0.901600  1
  C  C474  1  0.161700  0.737800  0.098400  1
  C  C475  1  0.880700  0.207900  0.917600  1
  C  C476  1  0.119300  0.792100  0.082400  1
  C  C477  1  0.843100  0.173400  0.976700  1
  C  C478  1  0.156900  0.826600  0.023300  1
  C  C479  1  0.763200  0.193900  0.020000  1
  C  C480  1  0.236800  0.806100  0.980000  1
  C  C481  1  0.588500  0.318400  0.036700  1
  C  C482  1  0.411500  0.681600  0.963300  1
  C  C483  1  0.574400  0.318200  0.977100  1
  C  C484  1  0.425600  0.681800  0.022900  1
  C  C485  1  0.525500  0.368300  0.965400  1
  C  C486  1  0.474500  0.631700  0.034600  1
  C  C487  1  0.491100  0.418800  0.012700  1
  C  C488  1  0.508900  0.581200  0.987300  1
  C  C489  1  0.506900  0.421400  0.070000  1
  C  C490  1  0.493100  0.578600  0.930000  1
  C  C491  1  0.555600  0.370900  0.082300  1
  C  C492  1  0.444400  0.629100  0.917700  1
  C  C493  1  0.030000  0.021600  0.683400  1
  C  C494  1  0.970000  0.978400  0.316600  1
  C  C495  1  0.968600  0.074000  0.709900  1
  C  C496  1  0.031400  0.926000  0.290100  1
  C  C497  1  0.990300  0.129700  0.725900  1
  C  C498  1  0.009700  0.870300  0.274100  1
  C  C499  1  0.071500  0.134200  0.716900  1
  C  C500  1  0.928500  0.865800  0.283100  1
  C  C501  1  0.130900  0.084200  0.687800  1
  C  C502  1  0.869100  0.915800  0.312200  1
  C  C503  1  0.111300  0.025000  0.669600  1
  C  C504  1  0.888700  0.975000  0.330400  1
  C  C505  1  0.164700  0.970400  0.645100  1
  C  C506  1  0.835300  0.029600  0.354900  1
  C  C507  1  0.138000  0.912300  0.638400  1
  C  C508  1  0.862000  0.087700  0.361600  1
  C  C509  1  0.189800  0.851500  0.617500  1
  C  C510  1  0.810200  0.148500  0.382500  1
  C  C511  1  0.155700  0.796500  0.618400  1
  C  C512  1  0.844300  0.203500  0.381600  1
  C  C513  1  0.070900  0.796400  0.633900  1
  C  C514  1  0.929100  0.203600  0.366100  1
  C  C515  1  0.021900  0.855800  0.652100  1
  C  C516  1  0.978100  0.144200  0.347900  1
  C  C517  1  0.055900  0.910200  0.654200  1
  C  C518  1  0.944100  0.089800  0.345800  1
  C  C519  1  0.253100  0.973900  0.627800  1
  C  C520  1  0.746900  0.026100  0.372200  1
  C  C521  1  0.290000  0.938900  0.664800  1
  C  C522  1  0.710000  0.061100  0.335200  1
  C  C523  1  0.370400  0.942900  0.650100  1
  C  C524  1  0.629600  0.057100  0.349900  1
  C  C525  1  0.413100  0.985400  0.590500  1
  C  C526  1  0.586900  0.014600  0.409500  1
  C  C527  1  0.376300  0.018000  0.556400  1
  C  C528  1  0.623700  0.982000  0.443600  1
  C  C529  1  0.295700  0.012800  0.574400  1
  C  C530  1  0.704300  0.987200  0.425600  1
  C  C531  1  0.921000  0.624200  0.863200  1
  C  C532  1  0.079000  0.375800  0.136800  1
  C  C533  1  0.988400  0.657200  0.831000  1
  C  C534  1  0.011600  0.342800  0.169000  1
  C  C535  1  0.029600  0.651000  0.759300  1
  C  C536  1  0.970400  0.349000  0.240700  1
  C  C537  1  0.001900  0.611100  0.722500  1
  C  C538  1  0.998100  0.388900  0.277500  1
  C  C539  1  0.936500  0.577600  0.754300  1
  C  C540  1  0.063500  0.422400  0.245700  1
  C  C541  1  0.894400  0.582000  0.828800  1
  C  C542  1  0.105600  0.418000  0.171200  1
  C  C543  1  0.827100  0.548500  0.867500  1
  C  C544  1  0.172900  0.451500  0.132500  1
  C  C545  1  0.787100  0.558700  0.939400  1
  C  C546  1  0.212900  0.441300  0.060600  1
  C  C547  1  0.718800  0.528300  0.984600  1
  C  C548  1  0.281200  0.471700  0.015400  1
  C  C549  1  0.682600  0.542900  0.052200  1
  C  C550  1  0.317400  0.457100  0.947800  1
  C  C551  1  0.712200  0.588200  0.083300  1
  C  C552  1  0.287800  0.411800  0.916700  1
  C  C553  1  0.781100  0.617100  0.040800  1
  C  C554  1  0.218900  0.382900  0.959200  1
  C  C555  1  0.816000  0.602200  0.971600  1
  C  C556  1  0.184000  0.397800  0.028400  1
  C  C557  1  0.797200  0.503600  0.833600  1
  C  C558  1  0.202800  0.496400  0.166400  1
  C  C559  1  0.846900  0.447800  0.799200  1
  C  C560  1  0.153100  0.552200  0.200800  1
  C  C561  1  0.817600  0.402300  0.770200  1
  C  C562  1  0.182400  0.597700  0.229800  1
  C  C563  1  0.739600  0.413500  0.774800  1
  C  C564  1  0.260400  0.586500  0.225200  1
  C  C565  1  0.689700  0.470800  0.807200  1
  C  C566  1  0.310300  0.529200  0.192800  1
  C  C567  1  0.719600  0.514500  0.836900  1
  C  C568  1  0.280400  0.485500  0.163100  1
  C  C569  1  0.450900  0.792000  0.244000  1
  C  C570  1  0.549100  0.208000  0.756000  1
  C  C571  1  0.471600  0.745400  0.193000  1
  C  C572  1  0.528400  0.254600  0.807000  1
  C  C573  1  0.497300  0.682000  0.206800  1
  C  C574  1  0.502700  0.318000  0.793200  1
  C  C575  1  0.503800  0.668800  0.270100  1
  C  C576  1  0.496200  0.331200  0.729900  1
  C  C577  1  0.482700  0.716200  0.320400  1
  C  C578  1  0.517300  0.283800  0.679600  1
  C  C579  1  0.455700  0.779700  0.307900  1
  C  C580  1  0.544300  0.220300  0.692100  1
  C  C581  1  0.437200  0.832500  0.355700  1
  C  C582  1  0.562800  0.167500  0.644300  1
  C  C583  1  0.416200  0.894600  0.337000  1
  C  C584  1  0.583800  0.105400  0.663000  1
  C  C585  1  0.400800  0.951500  0.379600  1
  C  C586  1  0.599200  0.048500  0.620400  1
  C  C587  1  0.387800  0.009800  0.354700  1
  C  C588  1  0.612200  0.990200  0.645300  1
  C  C589  1  0.384300  0.017900  0.289300  1
  C  C590  1  0.615700  0.982100  0.710700  1
  C  C591  1  0.395500  0.962700  0.248100  1
  C  C592  1  0.604500  0.037300  0.751900  1
  C  C593  1  0.411400  0.903700  0.272600  1
  C  C594  1  0.588600  0.096300  0.727400  1
  C  C595  1  0.443500  0.820700  0.421600  1
  C  C596  1  0.556500  0.179300  0.578400  1
  C  C597  1  0.387300  0.784700  0.472600  1
  C  C598  1  0.612700  0.215300  0.527400  1
  C  C599  1  0.394400  0.772900  0.534700  1
  C  C600  1  0.605600  0.227100  0.465300  1
  C  C601  1  0.457400  0.797600  0.546200  1
  C  C602  1  0.542600  0.202400  0.453800  1
  C  C603  1  0.512300  0.832600  0.494800  1
  C  C604  1  0.487700  0.167400  0.505200  1
  C  C605  1  0.505100  0.844000  0.432800  1
  C  C606  1  0.494900  0.156000  0.567200  1
  C  C607  1  0.021500  0.285900  0.499000  1
  C  C608  1  0.978500  0.714100  0.501000  1
  C  C609  1  0.970300  0.337600  0.556500  1
  C  C610  1  0.029700  0.662400  0.443500  1
  C  C611  1  0.975600  0.404100  0.525600  1
  C  C612  1  0.024400  0.595900  0.474400  1
  C  C613  1  0.923700  0.457100  0.583100  1
  C  C614  1  0.076300  0.542900  0.416900  1
  C  C615  1  0.085500  0.225500  0.570000  1
  C  C616  1  0.914500  0.774500  0.430000  1
  C  C617  1  0.164000  0.252300  0.529500  1
  C  C618  1  0.836000  0.747700  0.470500  1
  C  C619  1  0.213300  0.245000  0.575900  1
  C  C620  1  0.786700  0.755000  0.424100  1
  C  C621  1  0.279300  0.276300  0.549000  1
  C  C622  1  0.720700  0.723700  0.451000  1
  C  C623  1  0.077900  0.171900  0.469600  1
  C  C624  1  0.922100  0.828100  0.530400  1
  C  C625  1  0.096000  0.105500  0.492400  1
  C  C626  1  0.904000  0.894500  0.507600  1
  C  C627  1  0.131100  0.061500  0.429300  1
  C  C628  1  0.868900  0.938500  0.570700  1
  C  C629  1  0.153000  0.990700  0.449300  1
  C  C630  1  0.847000  0.009300  0.550700  1
  C  C631  1  0.953900  0.202600  0.582200  1
  C  C632  1  0.046100  0.797400  0.417800  1
  C  C633  1  0.896900  0.194700  0.551000  1
  C  C634  1  0.103100  0.805300  0.449000  1
  C  C635  1  0.811400  0.184400  0.609700  1
  C  C636  1  0.188600  0.815600  0.390300  1
  C  C637  1  0.759600  0.251100  0.634800  1
  C  C638  1  0.240400  0.748900  0.365200  1
  C  C639  1  0.502200  0.381500  0.312500  1
  C  C640  1  0.497800  0.618500  0.687500  1
  C  C641  1  0.538100  0.313500  0.315200  1
  C  C642  1  0.461900  0.686500  0.684800  1
  C  C643  1  0.621700  0.301100  0.256000  1
  C  C644  1  0.378300  0.698900  0.744000  1
  C  C645  1  0.670700  0.243400  0.269200  1
  C  C646  1  0.329300  0.756600  0.730800  1
  C  C647  1  0.413100  0.381700  0.442900  1
  C  C648  1  0.586900  0.618300  0.557100  1
  C  C649  1  0.478100  0.411600  0.456100  1
  C  C650  1  0.521900  0.588400  0.543900  1
  C  C651  1  0.473800  0.386800  0.528800  1
  C  C652  1  0.526200  0.613200  0.471200  1
  C  C653  1  0.409700  0.427200  0.586700  1
  C  C654  1  0.590300  0.572800  0.413300  1
  C  C655  1  0.357400  0.361500  0.360900  1
  C  C656  1  0.642600  0.638500  0.639100  1
  C  C657  1  0.352300  0.373400  0.290700  1
  C  C658  1  0.647700  0.626600  0.709300  1
  C  C659  1  0.280500  0.342800  0.290500  1
  C  C660  1  0.719500  0.657200  0.709500  1
  C  C661  1  0.199200  0.374900  0.344400  1
  C  C662  1  0.800800  0.625100  0.655600  1
  C  C663  1  0.400300  0.473100  0.360100  1
  C  C664  1  0.599700  0.526900  0.639900  1
  C  C665  1  0.309700  0.497500  0.403000  1
  C  C666  1  0.690300  0.502500  0.597000  1
  C  C667  1  0.304700  0.575800  0.391300  1
  C  C668  1  0.695300  0.424200  0.608700  1
  C  C669  1  0.346800  0.602800  0.429600  1
  C  C670  1  0.653200  0.397200  0.570400  1
  C  C671  1  0.834000  0.904600  0.826500  1
  C  C672  1  0.166000  0.095400  0.173500  1
  C  C673  1  0.787000  0.913600  0.789000  1
  C  C674  1  0.213000  0.086400  0.211000  1
  C  C675  1  0.784000  0.863000  0.750000  1
  C  C676  1  0.216000  0.137000  0.250000  1
  C  C677  1  0.827000  0.803700  0.747000  1
  C  C678  1  0.173000  0.196300  0.253000  1
  C  C679  1  0.874000  0.794700  0.784700  1
  C  C680  1  0.126000  0.205300  0.215300  1
  C  C681  1  0.877000  0.845100  0.824300  1
  C  C682  1  0.123000  0.154900  0.175700  1
  C  C683  1  0.894400  0.989000  0.969200  1
  C  C684  1  0.105600  0.011000  0.030800  1
  C  C685  1  0.964100  0.001000  0.975200  1
  C  C686  1  0.035900  0.999000  0.024800  1
  C  C687  1  0.036300  0.000700  0.916700  1
  C  C688  1  0.963700  0.999300  0.083300  1
  C  C689  1  0.038800  0.988500  0.852100  1
  C  C690  1  0.961200  0.011500  0.147900  1
  C  C691  1  0.969200  0.976600  0.846100  1
  C  C692  1  0.030800  0.023400  0.153900  1
  C  C693  1  0.897000  0.976900  0.904600  1
  C  C694  1  0.103000  0.023100  0.095400  1
  C  C695  1  0.761000  0.036100  0.890400  1
  C  C696  1  0.239000  0.963900  0.109600  1
  C  C697  1  0.678000  0.044600  0.914200  1
  C  C698  1  0.322000  0.955400  0.085800  1
  C  C699  1  0.640000  0.101200  0.900200  1
  C  C700  1  0.360000  0.898800  0.099800  1
  C  C701  1  0.686000  0.149200  0.862300  1
  C  C702  1  0.314000  0.850800  0.137700  1
  C  C703  1  0.769000  0.140600  0.838500  1
  C  C704  1  0.231000  0.859400  0.161500  1
  C  C705  1  0.807000  0.084100  0.852500  1
  C  C706  1  0.193000  0.915900  0.147500  1
  C  C707  1  0.309000  0.175600  0.005000  1
  C  C708  1  0.691000  0.824400  0.995000  1
  C  C709  1  0.307000  0.183200  0.069900  1
  C  C710  1  0.693000  0.816800  0.930100  1
  C  C711  1  0.333000  0.238000  0.086000  1
  C  C712  1  0.667000  0.762000  0.914000  1
  C  C713  1  0.361000  0.285400  0.037000  1
  C  C714  1  0.639000  0.714600  0.963000  1
  C  C715  1  0.363000  0.277900  0.971800  1
  C  C716  1  0.637000  0.722100  0.028200  1
  C  C717  1  0.337000  0.223000  0.955700  1
  C  C718  1  0.663000  0.777000  0.044300  1
  C  C719  1  0.915400  0.387600  0.946800  1
  C  C720  1  0.084600  0.612400  0.053200  1
  C  C721  1  0.740000  0.902000  0.125000  1
  C  C722  1  0.260000  0.098000  0.875000  1
  C  C723  1  0.668000  0.930000  0.125000  1
  C  C724  1  0.332000  0.070000  0.875000  1
  C  C725  1  0.749000  0.898000  0.186000  1
  C  C726  1  0.251000  0.102000  0.814000  1
  C  C727  1  0.687000  0.922000  0.247000  1
  C  C728  1  0.313000  0.078000  0.753000  1
  C  C729  1  0.615000  0.950000  0.247000  1
  C  C730  1  0.385000  0.050000  0.753000  1
  C  C731  1  0.605000  0.954000  0.186000  1
  C  C732  1  0.395000  0.046000  0.814000  1
  C  C733  1  0.677700  0.952900  0.096500  1.0
  C  C734  1  0.322300  0.047100  0.903500  1.0
  C  C735  1  0.607800  0.938600  0.152100  1.0
  C  C736  1  0.392200  0.061400  0.847900  1.0
  C  C737  1  0.605800  0.934100  0.217900  1.0
  C  C738  1  0.394200  0.065900  0.782100  1.0
  C  C739  1  0.673600  0.943900  0.228000  1.0
  C  C740  1  0.326400  0.056100  0.772000  1.0
  C  C741  1  0.743500  0.958100  0.172400  1.0
  C  C742  1  0.256500  0.041900  0.827600  1.0
  C  C743  1  0.745500  0.962600  0.106600  1.0
  C  C744  1  0.254500  0.037400  0.893400  1.0
  C  C745  1  0.630700  0.035800  0.004100  1.0
  C  C746  1  0.369300  0.964200  0.995900  1.0
  C  C747  1  0.554200  0.051600  0.056100  1.0
  C  C748  1  0.445800  0.948400  0.943900  1.0
  C  C749  1  0.507500  0.106900  0.051200  1.0
  C  C750  1  0.492500  0.893100  0.948800  1.0
  C  C751  1  0.537400  0.146400  0.994400  1.0
  C  C752  1  0.462600  0.853600  0.005600  1.0
  C  C753  1  0.613900  0.130500  0.942400  1.0
  C  C754  1  0.386100  0.869500  0.057600  1.0
  C  C755  1  0.660600  0.075200  0.947300  1.0
  C  C756  1  0.339400  0.924800  0.052700  1.0
  C  C757  1  0.936000  0.947800  0.876600  1.0
  C  C758  1  0.064000  0.052200  0.123400  1.0
  C  C759  1  0.935400  0.012600  0.890300  1.0
  C  C760  1  0.064600  0.987400  0.109700  1.0
  C  C761  1  0.007200  0.040600  0.865900  1.0
  C  C762  1  0.992800  0.959400  0.134100  1.0
  C  C763  1  0.079700  0.003700  0.827900  1.0
  C  C764  1  0.920300  0.996300  0.172100  1.0
  C  C765  1  0.080300  0.938900  0.814200  1.0
  C  C766  1  0.919700  0.061100  0.185800  1.0
  C  C767  1  0.008400  0.910900  0.838500  1.0
  C  C768  1  0.991600  0.089100  0.161500  1.0
  C  C769  1  0.834600  0.859600  0.850500  1.0
  C  C770  1  0.165400  0.140400  0.149500  1.0
  C  C771  1  0.800000  0.894300  0.811500  1.0
  C  C772  1  0.200000  0.105700  0.188500  1.0
  C  C773  1  0.789000  0.863300  0.760000  1.0
  C  C774  1  0.211000  0.136700  0.240000  1.0
  C  C775  1  0.812000  0.797600  0.747400  1.0
  C  C776  1  0.188000  0.202400  0.252600  1.0
  C  C777  1  0.847000  0.762900  0.786400  1.0
  C  C778  1  0.153000  0.237100  0.213600  1.0
  C  C779  1  0.858100  0.793900  0.838000  1.0
  C  C780  1  0.141900  0.206100  0.162000  1.0
  C  C781  1  0.858500  0.852800  0.979700  1.0
  C  C782  1  0.141500  0.147200  0.020300  1.0
  C  C783  1  0.918200  0.859000  0.002200  1.0
  C  C784  1  0.081800  0.141000  0.997800  1.0
  C  C785  1  0.920000  0.823100  0.057500  1.0
  C  C786  1  0.080000  0.176900  0.942500  1.0
  C  C787  1  0.862200  0.781100  0.090300  1.0
  C  C788  1  0.137800  0.218900  0.909700  1.0
  C  C789  1  0.802500  0.775000  0.067800  1.0
  C  C790  1  0.197500  0.225000  0.932200  1.0
  C  C791  1  0.800700  0.810800  0.012500  1.0
  C  C792  1  0.199300  0.189200  0.987500  1.0
  C  C793  1  0.626500  0.898800  0.994100  1.0
  C  C794  1  0.373500  0.101200  0.005900  1.0
  C  C795  1  0.615500  0.842500  0.032000  1.0
  C  C796  1  0.384500  0.157500  0.968000  1.0
  C  C797  1  0.591900  0.789600  0.010100  1.0
  C  C798  1  0.408100  0.210400  0.989900  1.0
  C  C799  1  0.579300  0.792900  0.950300  1.0
  C  C800  1  0.420700  0.207100  0.049700  1.0
  C  C801  1  0.590300  0.849100  0.912400  1.0
  C  C802  1  0.409700  0.150900  0.087600  1.0
  C  C803  1  0.613800  0.902100  0.934300  1.0
  C  C804  1  0.386200  0.097900  0.065700  1.0
  N  N805  1  0.145200  0.448900  0.787100  1
  N  N806  1  0.854800  0.551100  0.212900  1
  N  N807  1  0.033700  0.221500  0.529100  1
  N  N808  1  0.966300  0.778500  0.470900  1
  N  N809  1  0.417900  0.399800  0.369300  1
  N  N810  1  0.582100  0.600200  0.630700  1
  N  N811  1  0.743000  0.937600  0.980100  1
  N  N812  1  0.257000  0.062400  0.019900  1
  N  N813  1  0.787500  0.969000  0.957900  1.0
  N  N814  1  0.212500  0.031000  0.042100  1.0
  O  O815  1  0.775900  0.172600  0.788700  1
  O  O816  1  0.224100  0.827400  0.211300  1
  O  O817  1  0.113500  0.782300  0.800900  1
  O  O818  1  0.886500  0.217700  0.199100  1
  O  O819  1  0.342200  0.580800  0.657800  1
  O  O820  1  0.657800  0.419200  0.342200  1
  O  O821  1  0.399800  0.191000  0.398000  1
  O  O822  1  0.600200  0.809000  0.602000  1
  O  O823  1  0.275900  0.174600  0.364200  1
  O  O824  1  0.724100  0.825400  0.635800  1
  O  O825  1  0.411100  0.204600  0.259500  1
  O  O826  1  0.588900  0.795400  0.740500  1
  O  O827  1  0.503000  0.114200  0.280400  1
  O  O828  1  0.497000  0.885800  0.719600  1
  O  O829  1  0.879900  0.290700  0.842200  1
  O  O830  1  0.120100  0.709300  0.157800  1
  O  O831  1  0.954000  0.193900  0.872800  1
  O  O832  1  0.046000  0.806100  0.127200  1
  O  O833  1  0.727900  0.158900  0.077600  1
  O  O834  1  0.272100  0.841100  0.922400  1
  O  O835  1  0.045100  0.295200  0.818200  1
  O  O836  1  0.954900  0.704800  0.181800  1
  O  O837  1  0.995800  0.305900  0.715400  1
  O  O838  1  0.004200  0.694100  0.284600  1
  O  O839  1  0.083700  0.189800  0.739400  1
  O  O840  1  0.916300  0.810200  0.260600  1
  O  O841  1  0.941900  0.182400  0.751800  1
  O  O842  1  0.058100  0.817600  0.248200  1
  O  O843  1  0.196600  0.737700  0.603700  1
  O  O844  1  0.803400  0.262300  0.396300  1
  O  O845  1  0.047100  0.742400  0.630700  1
  O  O846  1  0.952900  0.257600  0.369300  1
  O  O847  1  0.004500  0.965900  0.672800  1
  O  O848  1  0.995500  0.034100  0.327200  1
  O  O849  1  0.217400  0.608000  0.613800  1
  O  O850  1  0.782600  0.392000  0.386200  1
  O  O851  1  0.145300  0.650800  0.528500  1
  O  O852  1  0.854700  0.349200  0.471500  1
  O  O853  1  0.045200  0.609900  0.653000  1
  O  O854  1  0.954800  0.390100  0.347000  1
  O  O855  1  0.093200  0.679600  0.722300  1
  O  O856  1  0.906800  0.320400  0.277700  1
  O  O857  1  0.615900  0.518500  0.098100  1
  O  O858  1  0.384100  0.481500  0.901900  1
  O  O859  1  0.672900  0.598500  0.148600  1
  O  O860  1  0.327100  0.401500  0.851400  1
  O  O861  1  0.882000  0.632800  0.933200  1
  O  O862  1  0.118000  0.367200  0.066800  1
  O  O863  1  0.613800  0.493400  0.235000  1
  O  O864  1  0.386200  0.506600  0.765000  1
  O  O865  1  0.480800  0.510600  0.210400  1
  O  O866  1  0.519200  0.489400  0.789600  1
  O  O867  1  0.531100  0.608600  0.275800  1
  O  O868  1  0.468900  0.391400  0.724200  1
  O  O869  1  0.520100  0.634500  0.163900  1
  O  O870  1  0.479900  0.365500  0.836100  1
  O  O871  1  0.376100  0.066000  0.390300  1
  O  O872  1  0.623900  0.934000  0.609700  1
  O  O873  1  0.371700  0.076000  0.271900  1
  O  O874  1  0.628300  0.924000  0.728100  1
  O  O875  1  0.427000  0.851800  0.229000  1
  O  O876  1  0.573000  0.148200  0.771000  1
