# generated using pymatgen
data_Fe4H212C224N31(Cl5O27)2
_symmetry_space_group_name_H-M   'P 1'
_cell_length_a   20.49500000
_cell_length_b   25.67000000
_cell_length_c   25.75700000
_cell_angle_alpha   118.87300000
_cell_angle_beta   109.64000000
_cell_angle_gamma   93.55000000
_symmetry_Int_Tables_number   1
_chemical_formula_structural   Fe4H212C224N31(Cl5O27)2
_chemical_formula_sum   'Fe8 H424 C448 N62 Cl20 O108'
_cell_volume   10755.15870083
_cell_formula_units_Z   2
loop_
 _symmetry_equiv_pos_site_id
 _symmetry_equiv_pos_as_xyz
  1  'x, y, z'
loop_
 _atom_site_type_symbol
 _atom_site_label
 _atom_site_symmetry_multiplicity
 _atom_site_fract_x
 _atom_site_fract_y
 _atom_site_fract_z
 _atom_site_occupancy
  Fe  Fe1  1  0.215150  0.875130  0.518280  1
  Fe  Fe2  1  0.784850  0.124870  0.481720  1
  Fe  Fe3  1  0.108860  0.293510  0.052370  1
  Fe  Fe4  1  0.891140  0.706490  0.947630  1
  Fe  Fe5  1  0.428940  0.754560  0.041320  1
  Fe  Fe6  1  0.571060  0.245440  0.958680  1
  Fe  Fe7  1  0.778200  0.643130  0.503480  1
  Fe  Fe8  1  0.221800  0.356870  0.496520  1
  H  H9  1  0.217400  0.210500  0.680900  1
  H  H10  1  0.782600  0.789500  0.319100  1
  H  H11  1  0.161000  0.237000  0.646900  1
  H  H12  1  0.839000  0.763000  0.353100  1
  H  H13  1  0.195700  0.187400  0.605900  1
  H  H14  1  0.804300  0.812600  0.394100  1
  H  H15  1  0.052300  0.065400  0.588300  1
  H  H16  1  0.947700  0.934600  0.411700  1
  H  H17  1  0.052800  0.962100  0.529800  1
  H  H18  1  0.947200  0.037900  0.470200  1
  H  H19  1  0.235800  0.012300  0.518200  1
  H  H20  1  0.764200  0.987700  0.481800  1
  H  H21  1  0.229700  0.118600  0.577000  1
  H  H22  1  0.770300  0.881400  0.423000  1
  H  H23  1  0.053700  0.888600  0.412700  1
  H  H24  1  0.946300  0.111400  0.587300  1
  H  H25  1  0.995200  0.770200  0.320600  1
  H  H26  1  0.004800  0.229800  0.679400  1
  H  H27  1  0.006600  0.670400  0.279200  1
  H  H28  1  0.993400  0.329600  0.720800  1
  H  H29  1  0.200400  0.736000  0.429000  1
  H  H30  1  0.799600  0.264000  0.571000  1
  H  H31  1  0.040300  0.591900  0.229000  1
  H  H32  1  0.959700  0.408100  0.771000  1
  H  H33  1  0.051600  0.493300  0.186000  1
  H  H34  1  0.948400  0.506700  0.814000  1
  H  H35  1  0.211100  0.544500  0.359600  1
  H  H36  1  0.788900  0.455500  0.640400  1
  H  H37  1  0.196700  0.643900  0.403400  1
  H  H38  1  0.803300  0.356100  0.596600  1
  H  H39  1  0.154000  0.435700  0.319000  1
  H  H40  1  0.846000  0.564300  0.681000  1
  H  H41  1  0.146800  0.329500  0.264400  1
  H  H42  1  0.853200  0.670500  0.735600  1
  H  H43  1  0.115500  0.427300  0.150700  1
  H  H44  1  0.884500  0.572700  0.849300  1
  H  H45  1  0.136000  0.230500  0.157800  1
  H  H46  1  0.864000  0.769500  0.842200  1
  H  H47  1  0.230800  0.198700  0.075500  1
  H  H48  1  0.769200  0.801300  0.924500  1
  H  H49  1  0.246100  0.103600  0.012000  1
  H  H50  1  0.753900  0.896400  0.988000  1
  H  H51  1  0.033700  0.029400  0.927900  1
  H  H52  1  0.966300  0.970600  0.072100  1
  H  H53  1  0.016700  0.124200  0.995800  1
  H  H54  1  0.983300  0.875800  0.004200  1
  H  H55  1  0.164700  0.091600  0.815900  1
  H  H56  1  0.835300  0.908400  0.184100  1
  H  H57  1  0.241600  0.141700  0.861100  1
  H  H58  1  0.758400  0.858300  0.138900  1
  H  H59  1  0.204900  0.113100  0.890900  1
  H  H60  1  0.795100  0.886900  0.109100  1
  H  H61  1  0.299500  0.969100  0.787500  1
  H  H62  1  0.700500  0.030900  0.212500  1
  H  H63  1  0.316200  0.926500  0.692600  1
  H  H64  1  0.683800  0.073500  0.307400  1
  H  H65  1  0.228800  0.045000  0.651300  1
  H  H66  1  0.771200  0.955000  0.348700  1
  H  H67  1  0.215000  0.092400  0.749300  1
  H  H68  1  0.785000  0.907600  0.250700  1
  H  H69  1  0.376600  0.005700  0.638200  1
  H  H70  1  0.623400  0.994300  0.361800  1
  H  H71  1  0.446200  0.985700  0.565100  1
  H  H72  1  0.553800  0.014300  0.434900  1
  H  H73  1  0.441600  0.934700  0.459000  1
  H  H74  1  0.558400  0.065300  0.541000  1
  H  H75  1  0.235300  0.841600  0.391800  1
  H  H76  1  0.764700  0.158400  0.608200  1
  H  H77  1  0.244900  0.781100  0.301200  1
  H  H78  1  0.755100  0.218900  0.698800  1
  H  H79  1  0.227000  0.743900  0.194600  1
  H  H80  1  0.773000  0.256100  0.805400  1
  H  H81  1  0.392200  0.885400  0.258600  1
  H  H82  1  0.607800  0.114600  0.741400  1
  H  H83  1  0.405400  0.924600  0.365600  1
  H  H84  1  0.594600  0.075400  0.634400  1
  H  H85  1  0.403100  0.804300  0.168200  1
  H  H86  1  0.596900  0.195700  0.831800  1
  H  H87  1  0.178600  0.735600  0.000500  1
  H  H88  1  0.821400  0.264400  0.999500  1
  H  H89  1  0.188100  0.763000  0.103900  1
  H  H90  1  0.811900  0.237000  0.896100  1
  H  H91  1  0.242700  0.710900  0.921900  1
  H  H92  1  0.757300  0.289100  0.078100  1
  H  H93  1  0.367700  0.617400  0.890400  1
  H  H94  1  0.632300  0.382600  0.109600  1
  H  H95  1  0.363000  0.566500  0.785000  1
  H  H96  1  0.637000  0.433500  0.215000  1
  H  H97  1  0.306500  0.706100  0.765400  1
  H  H98  1  0.693500  0.293900  0.234600  1
  H  H99  1  0.315900  0.759100  0.872700  1
  H  H100  1  0.684100  0.240900  0.127300  1
  H  H101  1  0.253400  0.632500  0.666900  1
  H  H102  1  0.746600  0.367500  0.333100  1
  H  H103  1  0.275100  0.582400  0.612600  1
  H  H104  1  0.724900  0.417600  0.387400  1
  H  H105  1  0.329800  0.649500  0.666900  1
  H  H106  1  0.670200  0.350500  0.333100  1
  H  H107  1  0.827900  0.160300  0.127100  1
  H  H108  1  0.172100  0.839700  0.872900  1
  H  H109  1  0.745500  0.125400  0.076400  1
  H  H110  1  0.254500  0.874600  0.923600  1
  H  H111  1  0.779400  0.194200  0.097600  1
  H  H112  1  0.220600  0.805800  0.902400  1
  H  H113  1  0.848800  0.105800  0.945400  1
  H  H114  1  0.151200  0.894200  0.054600  1
  H  H115  1  0.927000  0.170000  0.938900  1
  H  H116  1  0.073000  0.830000  0.061100  1
  H  H117  1  0.970700  0.307900  0.123800  1
  H  H118  1  0.029300  0.692100  0.876200  1
  H  H119  1  0.889500  0.243900  0.128700  1
  H  H120  1  0.110500  0.756100  0.871300  1
  H  H121  1  0.937500  0.334400  0.019800  1
  H  H122  1  0.062500  0.665600  0.980200  1
  H  H123  1  0.980300  0.434400  0.019700  1
  H  H124  1  0.019700  0.565600  0.980300  1
  H  H125  1  0.069900  0.497000  0.024700  1
  H  H126  1  0.930100  0.503000  0.975300  1
  H  H127  1  0.195600  0.385400  0.038600  1
  H  H128  1  0.804400  0.614600  0.961400  1
  H  H129  1  0.233000  0.407200  0.976200  1
  H  H130  1  0.767000  0.592800  0.023800  1
  H  H131  1  0.331900  0.461200  0.982200  1
  H  H132  1  0.668100  0.538800  0.017800  1
  H  H133  1  0.281500  0.621600  0.080500  1
  H  H134  1  0.718500  0.378400  0.919500  1
  H  H135  1  0.180700  0.562900  0.072700  1
  H  H136  1  0.819300  0.437100  0.927300  1
  H  H137  1  0.438700  0.524600  0.017300  1
  H  H138  1  0.561300  0.475400  0.982700  1
  H  H139  1  0.521900  0.579200  0.004600  1
  H  H140  1  0.478100  0.420800  0.995400  1
  H  H141  1  0.330100  0.654700  0.035200  1
  H  H142  1  0.669900  0.345300  0.964800  1
  H  H143  1  0.557200  0.669800  0.990700  1
  H  H144  1  0.442800  0.330200  0.009300  1
  H  H145  1  0.607100  0.832600  0.078600  1
  H  H146  1  0.392900  0.167400  0.921400  1
  H  H147  1  0.656400  0.891500  0.047200  1
  H  H148  1  0.343600  0.108500  0.952800  1
  H  H149  1  0.532400  0.761300  0.858500  1
  H  H150  1  0.467600  0.238700  0.141500  1
  H  H151  1  0.484000  0.704800  0.891800  1
  H  H152  1  0.516000  0.295200  0.108200  1
  H  H153  1  0.616000  0.818100  0.846400  1
  H  H154  1  0.384000  0.181900  0.153600  1
  H  H155  1  0.624400  0.889200  0.869200  1
  H  H156  1  0.375600  0.110800  0.130800  1
  H  H157  1  0.550200  0.847300  0.852300  1
  H  H158  1  0.449800  0.152700  0.147700  1
  H  H159  1  0.798200  0.105700  0.716400  1
  H  H160  1  0.201800  0.894300  0.283600  1
  H  H161  1  0.797000  0.056100  0.647400  1
  H  H162  1  0.203000  0.943900  0.352600  1
  H  H163  1  0.850200  0.124300  0.690100  1
  H  H164  1  0.149800  0.875700  0.309900  1
  H  H165  1  0.898500  0.190100  0.800900  1
  H  H166  1  0.101500  0.809900  0.199100  1
  H  H167  1  0.993400  0.259000  0.904000  1
  H  H168  1  0.006600  0.741000  0.096000  1
  H  H169  1  0.082700  0.118800  0.887700  1
  H  H170  1  0.917300  0.881200  0.112300  1
  H  H171  1  0.986100  0.050000  0.788100  1
  H  H172  1  0.013900  0.950000  0.211900  1
  H  H173  1  0.177700  0.219100  0.926800  1
  H  H174  1  0.822300  0.780900  0.073200  1
  H  H175  1  0.315100  0.274000  0.000200  1
  H  H176  1  0.684900  0.726000  0.999800  1
  H  H177  1  0.405500  0.343200  0.105000  1
  H  H178  1  0.594500  0.656800  0.895000  1
  H  H179  1  0.253400  0.367400  0.174800  1
  H  H180  1  0.746600  0.632600  0.825200  1
  H  H181  1  0.481800  0.383300  0.198100  1
  H  H182  1  0.518200  0.616700  0.801900  1
  H  H183  1  0.570500  0.448900  0.301300  1
  H  H184  1  0.429500  0.551100  0.698700  1
  H  H185  1  0.419200  0.501000  0.370100  1
  H  H186  1  0.580800  0.499000  0.629900  1
  H  H187  1  0.331200  0.434700  0.266200  1
  H  H188  1  0.668800  0.565300  0.733800  1
  H  H189  1  0.637500  0.545000  0.384700  1
  H  H190  1  0.362500  0.455000  0.615300  1
  H  H191  1  0.607800  0.580500  0.568200  1
  H  H192  1  0.392200  0.419500  0.431800  1
  H  H193  1  0.510000  0.521500  0.466100  1
  H  H194  1  0.490000  0.478500  0.533900  1
  H  H195  1  0.744000  0.643100  0.635400  1
  H  H196  1  0.256000  0.356900  0.364600  1
  H  H197  1  0.799800  0.761600  0.687500  1
  H  H198  1  0.200200  0.238400  0.312500  1
  H  H199  1  0.896200  0.836300  0.786600  1
  H  H200  1  0.103800  0.163700  0.213400  1
  H  H201  1  0.029000  0.729800  0.738000  1
  H  H202  1  0.971000  0.270200  0.262000  1
  H  H203  1  0.932600  0.656200  0.636500  1
  H  H204  1  0.067400  0.343800  0.363500  1
  H  H205  1  0.996300  0.905100  0.860100  1
  H  H206  1  0.003700  0.094900  0.139900  1
  H  H207  1  0.067100  0.908100  0.913800  1
  H  H208  1  0.932900  0.091900  0.086200  1
  H  H209  1  0.990300  0.867000  0.893100  1
  H  H210  1  0.009700  0.133000  0.106900  1
  H  H211  1  0.984200  0.522200  0.698100  1
  H  H212  1  0.015800  0.477800  0.301900  1
  H  H213  1  0.030200  0.472800  0.683300  1
  H  H214  1  0.969800  0.527200  0.316700  1
  H  H215  1  0.947500  0.453800  0.634500  1
  H  H216  1  0.052500  0.546200  0.365500  1
  H  H217  1  0.874200  0.493000  0.597400  1
  H  H218  1  0.125800  0.507000  0.402600  1
  H  H219  1  0.794300  0.521900  0.532800  1
  H  H220  1  0.205700  0.478100  0.467200  1
  H  H221  1  0.954900  0.577800  0.498100  1
  H  H222  1  0.045100  0.422200  0.501900  1
  H  H223  1  0.035600  0.556800  0.568400  1
  H  H224  1  0.964400  0.443200  0.431600  1
  H  H225  1  0.824700  0.511400  0.390400  1
  H  H226  1  0.175300  0.488600  0.609600  1
  H  H227  1  0.767000  0.516800  0.285500  1
  H  H228  1  0.233000  0.483200  0.714500  1
  H  H229  1  0.713200  0.574600  0.243300  1
  H  H230  1  0.286800  0.425400  0.756700  1
  H  H231  1  0.700900  0.687300  0.413300  1
  H  H232  1  0.299100  0.312700  0.586700  1
  H  H233  1  0.680100  0.748200  0.385000  1
  H  H234  1  0.319900  0.251800  0.615000  1
  H  H235  1  0.630200  0.809000  0.344900  1
  H  H236  1  0.369800  0.191000  0.655100  1
  H  H237  1  0.594400  0.671800  0.163500  1
  H  H238  1  0.405600  0.328200  0.836500  1
  H  H239  1  0.641400  0.612700  0.202200  1
  H  H240  1  0.358600  0.387300  0.797800  1
  H  H241  1  0.642800  0.870600  0.303000  1
  H  H242  1  0.357200  0.129400  0.697000  1
  H  H243  1  0.599200  0.924500  0.254600  1
  H  H244  1  0.400800  0.075500  0.745400  1
  H  H245  1  0.509200  0.713000  0.134400  1
  H  H246  1  0.490800  0.287000  0.865600  1
  H  H247  1  0.515100  0.922100  0.152700  1
  H  H248  1  0.484900  0.077900  0.847300  1
  H  H249  1  0.398800  0.937800  0.108500  1
  H  H250  1  0.601200  0.062200  0.891500  1
  H  H251  1  0.370200  0.998700  0.064400  1
  H  H252  1  0.629800  0.001300  0.935600  1
  H  H253  1  0.417100  0.884400  0.915600  1
  H  H254  1  0.582900  0.115600  0.084400  1
  H  H255  1  0.448300  0.827200  0.962700  1
  H  H256  1  0.551700  0.172800  0.037300  1
  H  H257  1  0.374800  0.002800  0.896400  1
  H  H258  1  0.625200  0.997200  0.103600  1
  H  H259  1  0.371300  0.932700  0.875700  1
  H  H260  1  0.628700  0.067300  0.124300  1
  H  H261  1  0.445900  0.985300  0.925700  1
  H  H262  1  0.554100  0.014700  0.074300  1
  H  H263  1  0.913200  0.959100  0.642700  1
  H  H264  1  0.086800  0.040900  0.357300  1
  H  H265  1  0.838400  0.949200  0.587800  1
  H  H266  1  0.161600  0.050800  0.412200  1
  H  H267  1  0.912400  0.982500  0.595100  1
  H  H268  1  0.087600  0.017500  0.404900  1
  H  H269  1  0.025200  0.964200  0.645400  1
  H  H270  1  0.974800  0.035800  0.354600  1
  H  H271  1  0.133400  0.943700  0.647700  1
  H  H272  1  0.866600  0.056300  0.352300  1
  H  H273  1  0.031100  0.785400  0.472400  1
  H  H274  1  0.968900  0.214600  0.527600  1
  H  H275  1  0.921700  0.803000  0.473400  1
  H  H276  1  0.078300  0.197000  0.526600  1
  H  H277  1  0.170800  0.811100  0.607000  1
  H  H278  1  0.829200  0.188900  0.393000  1
  H  H279  1  0.282500  0.769800  0.634300  1
  H  H280  1  0.717500  0.230200  0.365700  1
  H  H281  1  0.388300  0.751900  0.621000  1
  H  H282  1  0.611700  0.248100  0.379000  1
  H  H283  1  0.351000  0.828700  0.512300  1
  H  H284  1  0.649000  0.171300  0.487700  1
  H  H285  1  0.467900  0.858800  0.552300  1
  H  H286  1  0.532100  0.141200  0.447700  1
  H  H287  1  0.580900  0.854200  0.551300  1
  H  H288  1  0.419100  0.145800  0.448700  1
  H  H289  1  0.561600  0.697900  0.554200  1
  H  H290  1  0.438400  0.302100  0.445800  1
  H  H291  1  0.449700  0.703200  0.556700  1
  H  H292  1  0.550300  0.296800  0.443300  1
  H  H293  1  0.638500  0.682800  0.506900  1
  H  H294  1  0.361500  0.317200  0.493100  1
  H  H295  1  0.701100  0.870100  0.609200  1
  H  H296  1  0.298900  0.129900  0.390800  1
  H  H297  1  0.816100  0.865500  0.615100  1
  H  H298  1  0.183900  0.134500  0.384900  1
  H  H299  1  0.900900  0.797100  0.580900  1
  H  H300  1  0.099100  0.202900  0.419100  1
  H  H301  1  0.998800  0.733300  0.620200  1
  H  H302  1  0.001200  0.266700  0.379800  1
  H  H303  1  0.100800  0.710000  0.602100  1
  H  H304  1  0.899200  0.290000  0.397900  1
  H  H305  1  0.988500  0.641900  0.409700  1
  H  H306  1  0.011500  0.358100  0.590300  1
  H  H307  1  0.886400  0.663500  0.426700  1
  H  H308  1  0.113600  0.336500  0.573300  1
  H  H309  1  0.182900  0.681900  0.577400  1
  H  H310  1  0.817100  0.318100  0.422600  1
  H  H311  1  0.203600  0.637400  0.519300  1
  H  H312  1  0.796400  0.362600  0.480700  1
  H  H313  1  0.141700  0.609700  0.531100  1
  H  H314  1  0.858300  0.390300  0.468900  1
  H  H315  1  0.238100  0.023300  0.922300  1
  H  H316  1  0.761900  0.976700  0.077700  1
  H  H317  1  0.208100  0.950500  0.888800  1
  H  H318  1  0.791900  0.049500  0.111200  1
  H  H319  1  0.240300  0.995500  0.966500  1
  H  H320  1  0.759700  0.004500  0.033500  1
  H  H321  1  0.091200  0.881200  0.776100  1
  H  H322  1  0.908800  0.118800  0.223900  1
  H  H323  1  0.119300  0.936200  0.769400  1
  H  H324  1  0.880700  0.063800  0.230600  1
  H  H325  1  0.086700  0.866900  0.707100  1
  H  H326  1  0.913300  0.133100  0.292900  1
  H  H327  1  0.043300  0.247700  0.784100  1
  H  H328  1  0.956700  0.752300  0.215900  1
  H  H329  1  0.120600  0.245700  0.782500  1
  H  H330  1  0.879400  0.754300  0.217500  1
  H  H331  1  0.099700  0.229600  0.828600  1
  H  H332  1  0.900300  0.770400  0.171400  1
  H  H333  1  0.522500  0.624000  0.668700  1
  H  H334  1  0.477500  0.376000  0.331300  1
  H  H335  1  0.561500  0.676600  0.664100  1
  H  H336  1  0.438500  0.323400  0.335900  1
  H  H337  1  0.483900  0.631700  0.608500  1
  H  H338  1  0.516100  0.368300  0.391500  1
  H  H339  1  0.784600  0.917200  0.808000  1
  H  H340  1  0.215400  0.082800  0.192000  1
  H  H341  1  0.727400  0.079300  0.824600  1
  H  H342  1  0.272600  0.920700  0.175400  1
  H  H343  1  0.739100  0.064000  0.760900  1
  H  H344  1  0.260900  0.936000  0.239100  1
  H  H345  1  0.807100  0.093600  0.829500  1
  H  H346  1  0.192900  0.906400  0.170500  1
  H  H347  1  0.771800  0.997200  0.928500  1
  H  H348  1  0.228200  0.002800  0.071500  1
  H  H349  1  0.750800  0.923300  0.891000  1
  H  H350  1  0.249200  0.076700  0.109000  1
  H  H351  1  0.703800  0.956500  0.859400  1
  H  H352  1  0.296200  0.043500  0.140600  1
  H  H353  1  0.712700  0.972000  0.764200  1
  H  H354  1  0.287300  0.028000  0.235800  1
  H  H355  1  0.884200  0.004900  0.939000  1
  H  H356  1  0.115800  0.995100  0.061000  1
  H  H357  1  0.902900  0.953900  0.882800  1
  H  H358  1  0.097100  0.046100  0.117200  1
  H  H359  1  0.857800  0.933400  0.913000  1
  H  H360  1  0.142200  0.066600  0.087000  1
  H  H361  1  0.804900  0.932700  0.734000  1
  H  H362  1  0.195100  0.067300  0.266000  1
  H  H363  1  0.856000  0.001000  0.771900  1
  H  H364  1  0.144000  0.999000  0.228100  1
  H  H365  1  0.785100  0.976500  0.706500  1
  H  H366  1  0.214900  0.023500  0.293500  1
  H  H367  1  0.422400  0.654500  0.196600  1
  H  H368  1  0.577600  0.345500  0.803400  1
  H  H369  1  0.443400  0.725400  0.218800  1
  H  H370  1  0.556600  0.274600  0.781200  1
  H  H371  1  0.370000  0.696600  0.216200  1
  H  H372  1  0.630000  0.303400  0.783800  1
  H  H373  1  0.475400  0.703300  0.405700  1
  H  H374  1  0.524600  0.296700  0.594300  1
  H  H375  1  0.518900  0.786300  0.392300  1
  H  H376  1  0.481100  0.213700  0.607700  1
  H  H377  1  0.434200  0.770100  0.372900  1
  H  H378  1  0.565800  0.229900  0.627100  1
  H  H379  1  0.467000  0.807100  0.348000  1
  H  H380  1  0.533000  0.192900  0.652000  1
  H  H381  1  0.509900  0.710100  0.303400  1
  H  H382  1  0.490100  0.289900  0.696600  1
  H  H383  1  0.570600  0.681700  0.392300  1
  H  H384  1  0.429400  0.318300  0.607700  1
  H  H385  1  0.526900  0.618400  0.323300  1
  H  H386  1  0.473100  0.381600  0.676700  1
  H  H387  1  0.541400  0.620700  0.389600  1
  H  H388  1  0.458600  0.379300  0.610400  1
  H  H389  1  0.367400  0.637900  0.373400  1
  H  H390  1  0.632600  0.362100  0.626600  1
  H  H391  1  0.431200  0.616800  0.407900  1
  H  H392  1  0.568800  0.383200  0.592100  1
  H  H393  1  0.389400  0.578300  0.330000  1
  H  H394  1  0.610600  0.421700  0.670000  1
  H  H395  1  0.813300  0.464500  0.256400  1
  H  H396  1  0.186700  0.535500  0.743600  1
  H  H397  1  0.855300  0.476600  0.335700  1
  H  H398  1  0.144700  0.523400  0.664300  1
  H  H399  1  0.767000  0.425700  0.281000  1
  H  H400  1  0.233000  0.574300  0.719000  1
  H  H401  1  0.258300  0.633800  0.266800  1
  H  H402  1  0.741700  0.366200  0.733200  1
  H  H403  1  0.197300  0.604500  0.194500  1
  H  H404  1  0.802700  0.395500  0.805500  1
  H  H405  1  0.280300  0.623500  0.209200  1
  H  H406  1  0.719700  0.376500  0.790800  1
  H  H407  1  0.809300  0.633800  0.168700  1
  H  H408  1  0.190700  0.366200  0.831300  1
  H  H409  1  0.788000  0.566200  0.155500  1
  H  H410  1  0.212000  0.433800  0.844500  1
  H  H411  1  0.866000  0.593500  0.164500  1
  H  H412  1  0.134000  0.406500  0.835500  1
  H  H413  1  0.376000  0.513300  0.077700  1
  H  H414  1  0.624000  0.486700  0.922300  1
  H  H415  1  0.233000  0.575000  0.983800  1
  H  H416  1  0.767000  0.425000  0.016200  1
  H  H417  1  0.284700  0.462600  0.082100  1
  H  H418  1  0.715300  0.537400  0.917900  1
  H  H419  1  0.142700  0.524700  0.990600  1
  H  H420  1  0.857300  0.475300  0.009400  1
  H  H421  1  0.417000  0.647300  0.391200  1
  H  H422  1  0.583000  0.352700  0.608800  1
  H  H423  1  0.338300  0.600200  0.344200  1
  H  H424  1  0.661700  0.399800  0.655800  1
  H  H425  1  0.366100  0.634800  0.421700  1
  H  H426  1  0.633900  0.365200  0.578300  1
  H  H427  1  0.360800  0.538100  0.149200  1
  H  H428  1  0.639200  0.461900  0.850800  1
  H  H429  1  0.389400  0.482500  0.152100  1
  H  H430  1  0.610600  0.517500  0.847900  1
  H  H431  1  0.412100  0.548600  0.217900  1
  H  H432  1  0.587900  0.451400  0.782100  1
  C  C433  1  0.178100  0.200400  0.640100  1
  C  C434  1  0.821900  0.799600  0.359900  1
  C  C435  1  0.089300  0.055000  0.573800  1
  C  C436  1  0.910700  0.945000  0.426200  1
  C  C437  1  0.090200  0.993600  0.539500  1
  C  C438  1  0.909800  0.006400  0.460500  1
  C  C439  1  0.144600  0.977200  0.519200  1
  C  C440  1  0.855400  0.022800  0.480800  1
  C  C441  1  0.198100  0.022100  0.531800  1
  C  C442  1  0.801900  0.977900  0.468200  1
  C  C443  1  0.194300  0.085300  0.566800  1
  C  C444  1  0.805700  0.914700  0.433200  1
  C  C445  1  0.137000  0.095900  0.585100  1
  C  C446  1  0.863000  0.904100  0.414900  1
  C  C447  1  0.091500  0.875200  0.431800  1
  C  C448  1  0.908500  0.124800  0.568200  1
  C  C449  1  0.091400  0.811000  0.400600  1
  C  C450  1  0.908600  0.189000  0.599400  1
  C  C451  1  0.037100  0.762500  0.342700  1
  C  C452  1  0.962900  0.237500  0.657300  1
  C  C453  1  0.044400  0.703800  0.317800  1
  C  C454  1  0.955600  0.296200  0.682200  1
  C  C455  1  0.106300  0.692600  0.348400  1
  C  C456  1  0.893700  0.307400  0.651600  1
  C  C457  1  0.158100  0.743100  0.406600  1
  C  C458  1  0.841900  0.256900  0.593400  1
  C  C459  1  0.116800  0.629500  0.321500  1
  C  C460  1  0.883200  0.370500  0.678500  1
  C  C461  1  0.074700  0.582500  0.256300  1
  C  C462  1  0.925300  0.417500  0.743700  1
  C  C463  1  0.081300  0.523600  0.230500  1
  C  C464  1  0.918700  0.476400  0.769500  1
  C  C465  1  0.130400  0.506800  0.267700  1
  C  C466  1  0.869600  0.493200  0.732300  1
  C  C467  1  0.175200  0.553700  0.333100  1
  C  C468  1  0.824800  0.446300  0.666900  1
  C  C469  1  0.167000  0.613400  0.358900  1
  C  C470  1  0.833000  0.386600  0.641100  1
  C  C471  1  0.133700  0.442700  0.240000  1
  C  C472  1  0.866300  0.557300  0.760000  1
  C  C473  1  0.144400  0.413200  0.274000  1
  C  C474  1  0.855600  0.586800  0.726000  1
  C  C475  1  0.141000  0.350400  0.241900  1
  C  C476  1  0.859000  0.649600  0.758100  1
  C  C477  1  0.128900  0.318700  0.175800  1
  C  C478  1  0.871100  0.681300  0.824200  1
  C  C479  1  0.122500  0.407500  0.174500  1
  C  C480  1  0.877500  0.592500  0.825500  1
  C  C481  1  0.128200  0.255000  0.139200  1
  C  C482  1  0.871800  0.745000  0.860800  1
  C  C483  1  0.123200  0.171800  0.041000  1
  C  C484  1  0.876800  0.828200  0.959000  1
  C  C485  1  0.189800  0.164000  0.045300  1
  C  C486  1  0.810200  0.836000  0.954700  1
  C  C487  1  0.199100  0.107900  0.007500  1
  C  C488  1  0.800900  0.892100  0.992500  1
  C  C489  1  0.139700  0.057400  0.962400  1
  C  C490  1  0.860300  0.942600  0.037600  1
  C  C491  1  0.074300  0.064300  0.958600  1
  C  C492  1  0.925700  0.935700  0.041400  1
  C  C493  1  0.063400  0.120800  0.998200  1
  C  C494  1  0.936600  0.879200  0.001800  1
  C  C495  1  0.211600  0.104400  0.851900  1
  C  C496  1  0.788400  0.895600  0.148100  1
  C  C497  1  0.256000  0.034400  0.776700  1
  C  C498  1  0.744000  0.965600  0.223300  1
  C  C499  1  0.285800  0.985100  0.760300  1
  C  C500  1  0.714200  0.014900  0.239700  1
  C  C501  1  0.295200  0.960100  0.704000  1
  C  C502  1  0.704800  0.039900  0.296000  1
  C  C503  1  0.275100  0.981900  0.662600  1
  C  C504  1  0.724900  0.018100  0.337400  1
  C  C505  1  0.244200  0.030300  0.679700  1
  C  C506  1  0.755800  0.969700  0.320300  1
  C  C507  1  0.235000  0.058200  0.737200  1
  C  C508  1  0.765000  0.941800  0.262800  1
  C  C509  1  0.338400  0.972200  0.599900  1
  C  C510  1  0.661600  0.027800  0.400100  1
  C  C511  1  0.342300  0.942100  0.537300  1
  C  C512  1  0.657700  0.057900  0.462700  1
  C  C513  1  0.403400  0.956200  0.528600  1
  C  C514  1  0.596600  0.043800  0.471400  1
  C  C515  1  0.400600  0.926500  0.466100  1
  C  C516  1  0.599400  0.073500  0.533900  1
  C  C517  1  0.336100  0.884300  0.414000  1
  C  C518  1  0.663900  0.115700  0.586000  1
  C  C519  1  0.278900  0.870800  0.427300  1
  C  C520  1  0.721100  0.129200  0.572700  1
  C  C521  1  0.326100  0.856700  0.344000  1
  C  C522  1  0.673900  0.143300  0.656000  1
  C  C523  1  0.274500  0.803100  0.292700  1
  C  C524  1  0.725500  0.196900  0.707300  1
  C  C525  1  0.264200  0.780400  0.229200  1
  C  C526  1  0.735800  0.219600  0.770800  1
  C  C527  1  0.307700  0.810200  0.215600  1
  C  C528  1  0.692300  0.189800  0.784400  1
  C  C529  1  0.361300  0.864300  0.267000  1
  C  C530  1  0.638700  0.135700  0.733000  1
  C  C531  1  0.369500  0.887300  0.330800  1
  C  C532  1  0.630500  0.112700  0.669200  1
  C  C533  1  0.296800  0.788200  0.147200  1
  C  C534  1  0.703200  0.211800  0.852800  1
  C  C535  1  0.356700  0.788600  0.133300  1
  C  C536  1  0.643300  0.211400  0.866700  1
  C  C537  1  0.284200  0.748300  0.024300  1
  C  C538  1  0.715800  0.251700  0.975700  1
  C  C539  1  0.224400  0.748100  0.035000  1
  C  C540  1  0.775600  0.251900  0.965000  1
  C  C541  1  0.230200  0.766000  0.096500  1
  C  C542  1  0.769800  0.234000  0.903500  1
  C  C543  1  0.285600  0.725100  0.960000  1
  C  C544  1  0.714400  0.274900  0.040000  1
  C  C545  1  0.344200  0.694200  0.892100  1
  C  C546  1  0.655800  0.305800  0.107900  1
  C  C547  1  0.356500  0.636000  0.865500  1
  C  C548  1  0.643500  0.364000  0.134500  1
  C  C549  1  0.352300  0.605300  0.802500  1
  C  C550  1  0.647700  0.394700  0.197500  1
  C  C551  1  0.332800  0.631100  0.765500  1
  C  C552  1  0.667200  0.368900  0.234500  1
  C  C553  1  0.319500  0.688300  0.791000  1
  C  C554  1  0.680500  0.311700  0.209000  1
  C  C555  1  0.325200  0.719800  0.854800  1
  C  C556  1  0.674800  0.280200  0.145200  1
  C  C557  1  0.293200  0.616400  0.658300  1
  C  C558  1  0.706800  0.383600  0.341700  1
  C  C559  1  0.789100  0.154400  0.088300  1
  C  C560  1  0.210900  0.845600  0.911700  1
  C  C561  1  0.859800  0.170400  0.036600  1
  C  C562  1  0.140200  0.829600  0.963400  1
  C  C563  1  0.872400  0.147300  0.980900  1
  C  C564  1  0.127600  0.852700  0.019100  1
  C  C565  1  0.919600  0.185200  0.977600  1
  C  C566  1  0.080400  0.814800  0.022400  1
  C  C567  1  0.956500  0.245300  0.030200  1
  C  C568  1  0.043500  0.754700  0.969800  1
  C  C569  1  0.945300  0.267200  0.087200  1
  C  C570  1  0.054700  0.732800  0.912800  1
  C  C571  1  0.896900  0.229300  0.090100  1
  C  C572  1  0.103100  0.770700  0.909900  1
  C  C573  1  0.984500  0.330300  0.024400  1
  C  C574  1  0.015500  0.669700  0.975600  1
  C  C575  1  0.036700  0.374700  0.027500  1
  C  C576  1  0.963300  0.625300  0.972500  1
  C  C577  1  0.025200  0.425100  0.023800  1
  C  C578  1  0.974800  0.574900  0.976200  1
  C  C579  1  0.077400  0.461400  0.025900  1
  C  C580  1  0.922600  0.538600  0.974100  1
  C  C581  1  0.143500  0.446500  0.029700  1
  C  C582  1  0.856500  0.553500  0.970300  1
  C  C583  1  0.151100  0.395700  0.034600  1
  C  C584  1  0.848900  0.604300  0.965400  1
  C  C585  1  0.202800  0.482600  0.030300  1
  C  C586  1  0.797200  0.517400  0.969700  1
  C  C587  1  0.316000  0.549600  0.029000  1
  C  C588  1  0.684000  0.450400  0.971000  1
  C  C589  1  0.372500  0.581700  0.024400  1
  C  C590  1  0.627500  0.418300  0.975600  1
  C  C591  1  0.244500  0.451000  0.998700  1
  C  C592  1  0.755500  0.549000  0.001300  1
  C  C593  1  0.301300  0.482700  0.000100  1
  C  C594  1  0.698700  0.517300  0.999900  1
  C  C595  1  0.272000  0.577900  0.058200  1
  C  C596  1  0.728000  0.422100  0.941800  1
  C  C597  1  0.212800  0.542900  0.055900  1
  C  C598  1  0.787200  0.457100  0.944100  1
  C  C599  1  0.432100  0.560900  0.017400  1
  C  C600  1  0.567900  0.439100  0.982600  1
  C  C601  1  0.481700  0.593500  0.010400  1
  C  C602  1  0.518300  0.406500  0.989600  1
  C  C603  1  0.472000  0.645800  0.012000  1
  C  C604  1  0.528000  0.354200  0.988000  1
  C  C605  1  0.368900  0.638500  0.028400  1
  C  C606  1  0.631100  0.361500  0.971600  1
  C  C607  1  0.518100  0.682100  0.001000  1
  C  C608  1  0.481900  0.317900  0.999000  1
  C  C609  1  0.538000  0.764600  0.987600  1
  C  C610  1  0.462000  0.235400  0.012400  1
  C  C611  1  0.590600  0.818700  0.033700  1
  C  C612  1  0.409400  0.181300  0.966300  1
  C  C613  1  0.620300  0.853600  0.015000  1
  C  C614  1  0.379700  0.146400  0.985000  1
  C  C615  1  0.597300  0.833400  0.949900  1
  C  C616  1  0.402700  0.166600  0.050100  1
  C  C617  1  0.547200  0.777100  0.903700  1
  C  C618  1  0.452800  0.222900  0.096300  1
  C  C619  1  0.518500  0.743700  0.923900  1
  C  C620  1  0.481500  0.256300  0.076100  1
  C  C621  1  0.602700  0.855500  0.871200  1
  C  C622  1  0.397300  0.144500  0.128800  1
  C  C623  1  0.827600  0.090800  0.691900  1
  C  C624  1  0.172400  0.909200  0.308100  1
  C  C625  1  0.934400  0.114700  0.783800  1
  C  C626  1  0.065600  0.885300  0.216200  1
  C  C627  1  0.936100  0.175600  0.818500  1
  C  C628  1  0.063900  0.824400  0.181500  1
  C  C629  1  0.992900  0.216800  0.879800  1
  C  C630  1  0.007100  0.783200  0.120200  1
  C  C631  1  0.047000  0.196100  0.904500  1
  C  C632  1  0.953000  0.803900  0.095500  1
  C  C633  1  0.045000  0.133200  0.870000  1
  C  C634  1  0.955000  0.866800  0.130000  1
  C  C635  1  0.988500  0.092800  0.810800  1
  C  C636  1  0.011500  0.907200  0.189200  1
  C  C637  1  0.171500  0.241900  0.966000  1
  C  C638  1  0.828500  0.758100  0.034000  1
  C  C639  1  0.232700  0.283100  0.028400  1
  C  C640  1  0.767300  0.716900  0.971600  1
  C  C641  1  0.303400  0.293900  0.036600  1
  C  C642  1  0.696600  0.706100  0.963400  1
  C  C643  1  0.356800  0.334400  0.098800  1
  C  C644  1  0.643200  0.665600  0.901200  1
  C  C645  1  0.339600  0.362300  0.152600  1
  C  C646  1  0.660400  0.637700  0.847400  1
  C  C647  1  0.266500  0.348800  0.139100  1
  C  C648  1  0.733500  0.651200  0.860900  1
  C  C649  1  0.395800  0.405100  0.220300  1
  C  C650  1  0.604200  0.594900  0.779700  1
  C  C651  1  0.469100  0.408300  0.232800  1
  C  C652  1  0.530900  0.591700  0.767200  1
  C  C653  1  0.521600  0.447200  0.294300  1
  C  C654  1  0.478400  0.552800  0.705700  1
  C  C655  1  0.506100  0.484800  0.347500  1
  C  C656  1  0.493900  0.515200  0.652500  1
  C  C657  1  0.432500  0.478100  0.335200  1
  C  C658  1  0.567500  0.521900  0.664800  1
  C  C659  1  0.380200  0.438800  0.273000  1
  C  C660  1  0.619800  0.561200  0.727000  1
  C  C661  1  0.563500  0.525600  0.414100  1
  C  C662  1  0.436500  0.474400  0.585900  1
  C  C663  1  0.631000  0.553000  0.422400  1
  C  C664  1  0.369000  0.447000  0.577600  1
  C  C665  1  0.677700  0.597600  0.534900  1
  C  C666  1  0.322300  0.402400  0.465100  1
  C  C667  1  0.613000  0.573100  0.530200  1
  C  C668  1  0.387000  0.426900  0.469800  1
  C  C669  1  0.555300  0.537600  0.469500  1
  C  C670  1  0.444700  0.462400  0.530500  1
  C  C671  1  0.742000  0.635300  0.594800  1
  C  C672  1  0.258000  0.364700  0.405200  1
  C  C673  1  0.858000  0.702800  0.652600  1
  C  C674  1  0.142000  0.297200  0.347400  1
  C  C675  1  0.846600  0.755600  0.697300  1
  C  C676  1  0.153400  0.244400  0.302700  1
  C  C677  1  0.903700  0.799700  0.756500  1
  C  C678  1  0.096300  0.200300  0.243500  1
  C  C679  1  0.971100  0.789700  0.770900  1
  C  C680  1  0.028900  0.210300  0.229100  1
  C  C681  1  0.982600  0.736600  0.727400  1
  C  C682  1  0.017400  0.263400  0.272600  1
  C  C683  1  0.925100  0.692600  0.667000  1
  C  C684  1  0.074900  0.307400  0.333000  1
  C  C685  1  0.020300  0.881600  0.877500  1
  C  C686  1  0.979700  0.118400  0.122500  1
  C  C687  1  0.992100  0.487500  0.663600  1
  C  C688  1  0.007900  0.512500  0.336400  1
  C  C689  1  0.962100  0.523000  0.589200  1
  C  C690  1  0.037900  0.477000  0.410800  1
  C  C691  1  0.890800  0.511700  0.578400  1
  C  C692  1  0.109200  0.488300  0.421600  1
  C  C693  1  0.843300  0.528100  0.539300  1
  C  C694  1  0.156700  0.471900  0.460700  1
  C  C695  1  0.866900  0.553200  0.510200  1
  C  C696  1  0.133100  0.446800  0.489800  1
  C  C697  1  0.938900  0.562200  0.519800  1
  C  C698  1  0.061100  0.437800  0.480200  1
  C  C699  1  0.986100  0.548600  0.560100  1
  C  C700  1  0.013900  0.451400  0.439900  1
  C  C701  1  0.808600  0.546700  0.411200  1
  C  C702  1  0.191400  0.453300  0.588800  1
  C  C703  1  0.769500  0.573800  0.376000  1
  C  C704  1  0.230500  0.426200  0.624000  1
  C  C705  1  0.755000  0.552700  0.311600  1
  C  C706  1  0.245000  0.447300  0.688400  1
  C  C707  1  0.722100  0.586600  0.286700  1
  C  C708  1  0.277900  0.413400  0.713300  1
  C  C709  1  0.702100  0.637300  0.323900  1
  C  C710  1  0.297900  0.362700  0.676100  1
  C  C711  1  0.715900  0.653500  0.387500  1
  C  C712  1  0.284100  0.346500  0.612500  1
  C  C713  1  0.666900  0.675000  0.298800  1
  C  C714  1  0.333100  0.325000  0.701200  1
  C  C715  1  0.662700  0.732400  0.339600  1
  C  C716  1  0.337300  0.267600  0.660400  1
  C  C717  1  0.632700  0.769300  0.315600  1
  C  C718  1  0.367300  0.230700  0.684400  1
  C  C719  1  0.607300  0.747100  0.249700  1
  C  C720  1  0.392700  0.252900  0.750300  1
  C  C721  1  0.611800  0.688000  0.209000  1
  C  C722  1  0.388200  0.312000  0.791000  1
  C  C723  1  0.639900  0.652700  0.231800  1
  C  C724  1  0.360100  0.347300  0.768200  1
  C  C725  1  0.580900  0.784700  0.223900  1
  C  C726  1  0.419100  0.215300  0.776100  1
  C  C727  1  0.607300  0.849100  0.259200  1
  C  C728  1  0.392700  0.150900  0.740800  1
  C  C729  1  0.581700  0.880700  0.230300  1
  C  C730  1  0.418300  0.119300  0.769700  1
  C  C731  1  0.531100  0.850300  0.166500  1
  C  C732  1  0.468900  0.149700  0.833500  1
  C  C733  1  0.528100  0.756700  0.159100  1
  C  C734  1  0.471900  0.243300  0.840900  1
  C  C735  1  0.501000  0.878400  0.131900  1
  C  C736  1  0.499000  0.121600  0.868100  1
  C  C737  1  0.426800  0.876800  0.040000  1
  C  C738  1  0.573200  0.123200  0.960000  1
  C  C739  1  0.403500  0.927200  0.069400  1
  C  C740  1  0.596500  0.072800  0.930600  1
  C  C741  1  0.386300  0.963500  0.043200  1
  C  C742  1  0.613700  0.036500  0.956800  1
  C  C743  1  0.392900  0.947900  0.985800  1
  C  C744  1  0.607100  0.052100  0.014200  1
  C  C745  1  0.414300  0.896600  0.955800  1
  C  C746  1  0.585700  0.103400  0.044200  1
  C  C747  1  0.431900  0.862200  0.983700  1
  C  C748  1  0.568100  0.137800  0.016300  1
  C  C749  1  0.393600  0.976000  0.911500  1
  C  C750  1  0.606400  0.024000  0.088500  1
  C  C751  1  0.889200  0.950200  0.598200  1
  C  C752  1  0.110800  0.049800  0.401800  1
  C  C753  1  0.961600  0.884400  0.558200  1
  C  C754  1  0.038400  0.115600  0.441800  1
  C  C755  1  0.026100  0.927100  0.610500  1
  C  C756  1  0.973900  0.072900  0.389500  1
  C  C757  1  0.090000  0.915300  0.611100  1
  C  C758  1  0.910000  0.084700  0.388900  1
  C  C759  1  0.093600  0.863000  0.559700  1
  C  C760  1  0.906400  0.137000  0.440300  1
  C  C761  1  0.030300  0.821600  0.508300  1
  C  C762  1  0.969700  0.178400  0.491700  1
  C  C763  1  0.965100  0.832600  0.508800  1
  C  C764  1  0.034900  0.167400  0.491200  1
  C  C765  1  0.191500  0.823500  0.585400  1
  C  C766  1  0.808500  0.176500  0.414600  1
  C  C767  1  0.257000  0.810500  0.581500  1
  C  C768  1  0.743000  0.189500  0.418500  1
  C  C769  1  0.297600  0.781900  0.609700  1
  C  C770  1  0.702400  0.218100  0.390300  1
  C  C771  1  0.360100  0.771200  0.601900  1
  C  C772  1  0.639900  0.228800  0.398100  1
  C  C773  1  0.380900  0.789600  0.564900  1
  C  C774  1  0.619100  0.210400  0.435100  1
  C  C775  1  0.337600  0.817200  0.538100  1
  C  C776  1  0.662400  0.182800  0.461900  1
  C  C777  1  0.449300  0.782000  0.557500  1
  C  C778  1  0.550700  0.218000  0.442500  1
  C  C779  1  0.487700  0.826900  0.554000  1
  C  C780  1  0.512300  0.173100  0.446000  1
  C  C781  1  0.554600  0.823800  0.553100  1
  C  C782  1  0.445400  0.176200  0.446900  1
  C  C783  1  0.583700  0.777200  0.554600  1
  C  C784  1  0.416300  0.222800  0.445400  1
  C  C785  1  0.543300  0.731200  0.555000  1
  C  C786  1  0.456700  0.268800  0.445000  1
  C  C787  1  0.476700  0.734500  0.556500  1
  C  C788  1  0.523300  0.265500  0.443500  1
  C  C789  1  0.675100  0.720100  0.529100  1
  C  C790  1  0.324900  0.279900  0.470900  1
  C  C791  1  0.658100  0.776700  0.557600  1
  C  C792  1  0.341900  0.223300  0.442400  1
  C  C793  1  0.711400  0.831300  0.589900  1
  C  C794  1  0.288600  0.168700  0.410100  1
  C  C795  1  0.779100  0.828500  0.593400  1
  C  C796  1  0.220900  0.171500  0.406600  1
  C  C797  1  0.794100  0.771600  0.565400  1
  C  C798  1  0.205900  0.228400  0.434600  1
  C  C799  1  0.861200  0.762900  0.562400  1
  C  C800  1  0.138800  0.237100  0.437600  1
  C  C801  1  0.932000  0.697600  0.524500  1
  C  C802  1  0.068000  0.302400  0.475500  1
  C  C803  1  0.996400  0.713400  0.577200  1
  C  C804  1  0.003600  0.286600  0.422800  1
  C  C805  1  0.057100  0.700000  0.566400  1
  C  C806  1  0.942900  0.300000  0.433600  1
  C  C807  1  0.054400  0.672800  0.505600  1
  C  C808  1  0.945600  0.327200  0.494400  1
  C  C809  1  0.989800  0.659500  0.452200  1
  C  C810  1  0.010200  0.340500  0.547800  1
  C  C811  1  0.929600  0.672100  0.462200  1
  C  C812  1  0.070400  0.327900  0.537800  1
  C  C813  1  0.164100  0.645700  0.532700  1
  C  C814  1  0.835900  0.354300  0.467300  1
  C  C815  1  0.212800  0.991500  0.924800  1
  C  C816  1  0.787200  0.008500  0.075200  1
  C  C817  1  0.013000  0.906600  0.731600  1
  C  C818  1  0.987000  0.093400  0.268400  1
  C  C819  1  0.083000  0.896900  0.747300  1
  C  C820  1  0.917000  0.103100  0.252700  1
  C  C821  1  0.050400  0.158300  0.731100  1
  C  C822  1  0.949600  0.841700  0.268900  1
  C  C823  1  0.081300  0.226500  0.786600  1
  C  C824  1  0.918700  0.773500  0.213400  1
  C  C825  1  0.515000  0.653800  0.655300  1
  C  C826  1  0.485000  0.346200  0.344700  1
  C  C827  1  0.482800  0.694600  0.689800  1
  C  C828  1  0.517200  0.305400  0.310200  1
  C  C829  1  0.800300  0.956600  0.851300  1
  C  C830  1  0.199700  0.043400  0.148700  1
  C  C831  1  0.758600  0.065100  0.801800  1
  C  C832  1  0.241400  0.934900  0.198200  1
  C  C833  1  0.752500  0.958600  0.885600  1
  C  C834  1  0.247500  0.041400  0.114400  1
  C  C835  1  0.762100  0.000600  0.787200  1
  C  C836  1  0.237900  0.999400  0.212800  1
  C  C837  1  0.866700  0.962700  0.900500  1
  C  C838  1  0.133300  0.037300  0.099500  1
  C  C839  1  0.806000  0.975400  0.746100  1
  C  C840  1  0.194000  0.024600  0.253900  1
  C  C841  1  0.420400  0.696100  0.225700  1
  C  C842  1  0.579600  0.303900  0.774300  1
  C  C843  1  0.462100  0.660700  0.366600  1
  C  C844  1  0.537900  0.339300  0.633400  1
  C  C845  1  0.471100  0.774800  0.357900  1
  C  C846  1  0.528900  0.225200  0.642100  1
  C  C847  1  0.460500  0.715100  0.298000  1
  C  C848  1  0.539500  0.284900  0.702000  1
  C  C849  1  0.531300  0.643900  0.368100  1
  C  C850  1  0.468700  0.356100  0.631900  1
  C  C851  1  0.407600  0.619700  0.369800  1
  C  C852  1  0.592400  0.380300  0.630200  1
  C  C853  1  0.850600  0.390800  0.258700  1
  C  C854  1  0.149400  0.609200  0.741300  1
  C  C855  1  0.819900  0.442200  0.284300  1
  C  C856  1  0.180100  0.557800  0.715700  1
  C  C857  1  0.251300  0.544100  0.205100  1
  C  C858  1  0.748700  0.455900  0.794900  1
  C  C859  1  0.246000  0.606800  0.220200  1
  C  C860  1  0.754000  0.393200  0.779800  1
  C  C861  1  0.852800  0.628200  0.243600  1
  C  C862  1  0.147200  0.371800  0.756400  1
  C  C863  1  0.827000  0.604000  0.179000  1
  C  C864  1  0.173000  0.396000  0.821000  1
  C  C865  1  0.328300  0.514900  0.058400  1
  C  C866  1  0.671700  0.485100  0.941600  1
  C  C867  1  0.244000  0.551400  0.003300  1
  C  C868  1  0.756000  0.448600  0.996700  1
  C  C869  1  0.274000  0.484000  0.060100  1
  C  C870  1  0.726000  0.516000  0.939900  1
  C  C871  1  0.189900  0.520400  0.005800  1
  C  C872  1  0.810100  0.479600  0.994200  1
  C  C873  1  0.335200  0.693700  0.387500  1
  C  C874  1  0.664800  0.306300  0.612500  1
  C  C875  1  0.367200  0.638800  0.386000  1
  C  C876  1  0.632800  0.361200  0.614000  1
  C  C877  1  0.307200  0.499000  0.182900  1
  C  C878  1  0.692800  0.501000  0.817100  1
  C  C879  1  0.373000  0.518900  0.174800  1
  C  C880  1  0.627000  0.481100  0.825200  1
  N  N881  1  0.145600  0.913600  0.487000  1
  N  N882  1  0.854400  0.086400  0.513000  1
  N  N883  1  0.152000  0.800800  0.432800  1
  N  N884  1  0.848000  0.199200  0.567200  1
  N  N885  1  0.121100  0.347400  0.143000  1
  N  N886  1  0.878900  0.652600  0.857000  1
  N  N887  1  0.116000  0.233400  0.078500  1
  N  N888  1  0.884000  0.766600  0.921500  1
  N  N889  1  0.281800  0.951900  0.601200  1
  N  N890  1  0.718200  0.048100  0.398800  1
  N  N891  1  0.282900  0.897400  0.487700  1
  N  N892  1  0.717100  0.102600  0.512300  1
  N  N893  1  0.352300  0.767700  0.071700  1
  N  N894  1  0.647700  0.232300  0.928300  1
  N  N895  1  0.346900  0.724800  0.957900  1
  N  N896  1  0.653100  0.275200  0.042100  1
  N  N897  1  0.161400  0.852300  0.559200  1
  N  N898  1  0.838600  0.147700  0.440800  1
  N  N899  1  0.276900  0.828700  0.546600  1
  N  N900  1  0.723100  0.171300  0.453400  1
  N  N901  1  0.740700  0.717000  0.532200  1
  N  N902  1  0.259300  0.283000  0.467800  1
  N  N903  1  0.865900  0.706800  0.533500  1
  N  N904  1  0.134100  0.293200  0.466500  1
  N  N905  1  0.005800  0.285700  0.028200  1
  N  N906  1  0.994200  0.714300  0.971800  1
  N  N907  1  0.100600  0.360100  0.034100  1
  N  N908  1  0.899400  0.639900  0.965900  1
  N  N909  1  0.417500  0.669900  0.023000  1
  N  N910  1  0.582500  0.330100  0.977000  1
  N  N911  1  0.501800  0.731800  0.006100  1
  N  N912  1  0.498200  0.268200  0.993900  1
  N  N913  1  0.107600  0.237600  0.966200  1
  N  N914  1  0.892400  0.762400  0.033800  1
  N  N915  1  0.213600  0.311000  0.078900  1
  N  N916  1  0.786400  0.689000  0.921100  1
  N  N917  1  0.686400  0.589600  0.480800  1
  N  N918  1  0.313600  0.410400  0.519200  1
  N  N919  1  0.797600  0.658200  0.590400  1
  N  N920  1  0.202400  0.341800  0.409600  1
  N  N921  1  0.454100  0.844400  0.071700  1
  N  N922  1  0.545900  0.155600  0.928300  1
  N  N923  1  0.503200  0.786700  0.130600  1
  N  N924  1  0.496800  0.213300  0.869400  1
  N  N925  1  0.750100  0.622300  0.413800  1
  N  N926  1  0.249900  0.377700  0.586200  1
  N  N927  1  0.820300  0.573400  0.472300  1
  N  N928  1  0.179700  0.426600  0.527700  1
  N  N929  1  0.957300  0.912300  0.718500  1
  N  N930  1  0.042700  0.087700  0.281500  1
  N  N931  1  0.014700  0.106100  0.687700  1
  N  N932  1  0.985300  0.893900  0.312300  1
  N  N933  1  0.455900  0.731300  0.722000  1
  N  N934  1  0.544100  0.268700  0.278000  1
  N  N935  1  0.875200  0.349700  0.238200  1
  N  N936  1  0.124800  0.650300  0.761800  1
  N  N937  1  0.258600  0.496700  0.193900  1
  N  N938  1  0.741400  0.503300  0.806100  1
  N  N939  1  0.880400  0.646200  0.295000  1
  N  N940  1  0.119600  0.353800  0.705000  1
  N  N941  1  0.309900  0.732600  0.384700  1
  N  N942  1  0.690100  0.267400  0.615300  1
  Cl  Cl943  1  0.339980  0.561760  0.480730  1
  Cl  Cl944  1  0.660020  0.438240  0.519270  1
  Cl  Cl945  1  0.459900  0.510510  0.850320  1
  Cl  Cl946  1  0.540100  0.489490  0.149680  1
  Cl  Cl947  1  0.780930  0.199800  0.254650  1
  Cl  Cl948  1  0.219070  0.800200  0.745350  1
  Cl  Cl949  1  0.871900  0.428400  0.128700  1
  Cl  Cl950  1  0.128100  0.571600  0.871300  1
  Cl  Cl951  1  0.697300  0.746200  0.748600  1
  Cl  Cl952  1  0.302700  0.253800  0.251400  1
  Cl  Cl953  1  0.072920  0.658960  0.148250  1
  Cl  Cl954  1  0.927080  0.341040  0.851750  1
  Cl  Cl955  1  0.364370  0.083330  0.515750  1
  Cl  Cl956  1  0.635630  0.916670  0.484250  1
  Cl  Cl957  1  0.713800  0.714500  0.121100  1
  Cl  Cl958  1  0.286200  0.285500  0.878900  1
  Cl  Cl959  1  0.524400  0.986700  0.717800  1
  Cl  Cl960  1  0.475600  0.013300  0.282200  1
  Cl  Cl961  1  0.519300  0.996600  0.701700  1
  Cl  Cl962  1  0.480700  0.003400  0.298300  1
  O  O963  1  0.125600  0.155900  0.622400  1
  O  O964  1  0.874400  0.844100  0.377600  1
  O  O965  1  0.141900  0.999000  0.920000  1
  O  O966  1  0.858100  0.001000  0.080000  1
  O  O967  1  0.245900  0.056500  0.834300  1
  O  O968  1  0.754100  0.943500  0.165700  1
  O  O969  1  0.325100  0.594000  0.700900  1
  O  O970  1  0.674900  0.406000  0.299100  1
  O  O971  1  0.810200  0.130100  0.035100  1
  O  O972  1  0.189800  0.869900  0.964900  1
  O  O973  1  0.628000  0.872500  0.937300  1
  O  O974  1  0.372000  0.127500  0.062700  1
  O  O975  1  0.882200  0.070800  0.723600  1
  O  O976  1  0.117800  0.929200  0.276400  1
  O  O977  1  0.030600  0.829600  0.827100  1
  O  O978  1  0.969400  0.170400  0.172900  1
  O  O979  1  0.013800  0.507700  0.626400  1
  O  O980  1  0.986200  0.492300  0.373600  1
  O  O981  1  0.377400  0.986500  0.963900  1
  O  O982  1  0.622600  0.013500  0.036100  1
  O  O983  1  0.894600  0.891100  0.552700  1
  O  O984  1  0.105400  0.108900  0.447300  1
  O  O985  1  0.111200  0.657500  0.489300  1
  O  O986  1  0.888800  0.342500  0.510700  1
  O  O987  1  0.295300  0.506200  0.418000  1
  O  O988  1  0.704700  0.493800  0.582000  1
  O  O989  1  0.337400  0.555300  0.532600  1
  O  O990  1  0.662600  0.444700  0.467400  1
  O  O991  1  0.314300  0.613700  0.483700  1
  O  O992  1  0.685700  0.386300  0.516300  1
  O  O993  1  0.412500  0.571500  0.487700  1
  O  O994  1  0.587500  0.428500  0.512300  1
  O  O995  1  0.500900  0.571500  0.881400  1
  O  O996  1  0.499100  0.428500  0.118600  1
  O  O997  1  0.498900  0.479900  0.878100  1
  O  O998  1  0.501100  0.520100  0.121900  1
  O  O999  1  0.441400  0.478100  0.781900  1
  O  O1000  1  0.558600  0.521900  0.218100  1
  O  O1001  1  0.394200  0.512300  0.860900  1
  O  O1002  1  0.605800  0.487700  0.139100  1
  O  O1003  1  0.851300  0.219900  0.259700  1
  O  O1004  1  0.148700  0.780100  0.740300  1
  O  O1005  1  0.768000  0.252300  0.302800  1
  O  O1006  1  0.232000  0.747700  0.697200  1
  O  O1007  1  0.780200  0.153800  0.270200  1
  O  O1008  1  0.219800  0.846200  0.729800  1
  O  O1009  1  0.727500  0.178400  0.190600  1
  O  O1010  1  0.272500  0.821600  0.809400  1
  O  O1011  1  0.890200  0.386300  0.140300  1
  O  O1012  1  0.109800  0.613700  0.859700  1
  O  O1013  1  0.882800  0.484700  0.184000  1
  O  O1014  1  0.117200  0.515300  0.816000  1
  O  O1015  1  0.897400  0.434700  0.090900  1
  O  O1016  1  0.102600  0.565300  0.909100  1
  O  O1017  1  0.786100  0.408000  0.086500  1
  O  O1018  1  0.213900  0.592000  0.913500  1
  O  O1019  1  0.667800  0.726900  0.684500  1
  O  O1020  1  0.332200  0.273100  0.315500  1
  O  O1021  1  0.759000  0.798900  0.788300  1
  O  O1022  1  0.241000  0.201100  0.211700  1
  O  O1023  1  0.725400  0.690300  0.741300  1
  O  O1024  1  0.274600  0.309700  0.258700  1
  O  O1025  1  0.656500  0.739900  0.779700  1
  O  O1026  1  0.343500  0.260100  0.220300  1
  O  O1027  1  0.118800  0.694900  0.216900  1
  O  O1028  1  0.881200  0.305100  0.783100  1
  O  O1029  1  0.000200  0.662300  0.135800  1
  O  O1030  1  0.999800  0.337700  0.864200  1
  O  O1031  1  0.074100  0.596900  0.125100  1
  O  O1032  1  0.925900  0.403100  0.874900  1
  O  O1033  1  0.098500  0.680300  0.114300  1
  O  O1034  1  0.901500  0.319700  0.885700  1
  O  O1035  1  0.350600  0.139000  0.522700  1
  O  O1036  1  0.649400  0.861000  0.477300  1
  O  O1037  1  0.373700  0.086100  0.575900  1
  O  O1038  1  0.626300  0.913900  0.424100  1
  O  O1039  1  0.303800  0.030200  0.461600  1
  O  O1040  1  0.696200  0.969800  0.538400  1
  O  O1041  1  0.428300  0.076800  0.505200  1
  O  O1042  1  0.571700  0.923200  0.494800  1
  O  O1043  1  0.765700  0.705500  0.094100  1
  O  O1044  1  0.234300  0.294500  0.905900  1
  O  O1045  1  0.660000  0.656000  0.080700  1
  O  O1046  1  0.340000  0.344000  0.919300  1
  O  O1047  1  0.746700  0.733400  0.188500  1
  O  O1048  1  0.253300  0.266600  0.811500  1
  O  O1049  1  0.678000  0.756200  0.114000  1
  O  O1050  1  0.322000  0.243800  0.886000  1
  O  O1051  1  0.798400  0.008300  0.846800  1
  O  O1052  1  0.201600  0.991700  0.153200  1
  O  O1053  1  0.424200  0.664700  0.305000  1
  O  O1054  1  0.575800  0.335300  0.695000  1
  O  O1055  1  0.452200  0.969300  0.710800  1
  O  O1056  1  0.547800  0.030700  0.289200  1
  O  O1057  1  0.521400  0.988700  0.662000  1
  O  O1058  1  0.478600  0.011300  0.338000  1
  O  O1059  1  0.562500  0.046800  0.776400  1
  O  O1060  1  0.437500  0.953200  0.223600  1
  O  O1061  1  0.561400  0.941900  0.721800  1
  O  O1062  1  0.438600  0.058100  0.278200  1
  O  O1063  1  0.456600  0.945700  0.670300  1
  O  O1064  1  0.543400  0.054300  0.329700  1
  O  O1065  1  0.498000  0.044900  0.692200  1
  O  O1066  1  0.502000  0.955100  0.307800  1
  O  O1067  1  0.552600  0.020200  0.770700  1
  O  O1068  1  0.447400  0.979800  0.229300  1
  O  O1069  1  0.569800  0.975400  0.673800  1
  O  O1070  1  0.430200  0.024600  0.326200  1
