# generated using pymatgen
data_Fe4B4H174C204N29(O3F4)4
_symmetry_space_group_name_H-M   'P 1'
_cell_length_a   20.85200000
_cell_length_b   27.19100000
_cell_length_c   39.82500000
_cell_angle_alpha   90.00000000
_cell_angle_beta   90.00000000
_cell_angle_gamma   96.36900000
_symmetry_Int_Tables_number   1
_chemical_formula_structural   Fe4B4H174C204N29(O3F4)4
_chemical_formula_sum   'Fe16 B16 H696 C816 N116 O48 F64'
_cell_volume   22440.88322107
_cell_formula_units_Z   4
loop_
 _symmetry_equiv_pos_site_id
 _symmetry_equiv_pos_as_xyz
  1  'x, y, z'
loop_
 _atom_site_type_symbol
 _atom_site_label
 _atom_site_symmetry_multiplicity
 _atom_site_fract_x
 _atom_site_fract_y
 _atom_site_fract_z
 _atom_site_occupancy
  Fe  Fe1  1  0.750480  0.127090  0.489590  1
  Fe  Fe2  1  0.749520  0.872910  0.989590  1
  Fe  Fe3  1  0.249520  0.872910  0.510410  1
  Fe  Fe4  1  0.250480  0.127090  0.010410  1
  Fe  Fe5  1  0.945570  0.484980  0.703340  1
  Fe  Fe6  1  0.554430  0.515020  0.203340  1
  Fe  Fe7  1  0.054430  0.515020  0.296660  1
  Fe  Fe8  1  0.445570  0.484980  0.796660  1
  Fe  Fe9  1  0.350740  0.335410  0.482000  1
  Fe  Fe10  1  0.149260  0.664590  0.982000  1
  Fe  Fe11  1  0.649260  0.664590  0.518000  1
  Fe  Fe12  1  0.850740  0.335410  0.018000  1
  Fe  Fe13  1  0.150540  0.046460  0.734640  1
  Fe  Fe14  1  0.349460  0.953540  0.234640  1
  Fe  Fe15  1  0.849460  0.953540  0.265360  1
  Fe  Fe16  1  0.650540  0.046460  0.765360  1
  B  B17  1  0.189700  0.642000  0.180400  1
  B  B18  1  0.310300  0.358000  0.680400  1
  B  B19  1  0.810300  0.358000  0.819600  1
  B  B20  1  0.689700  0.642000  0.319600  1
  B  B21  1  0.161000  0.366000  0.391900  1
  B  B22  1  0.339000  0.634000  0.891900  1
  B  B23  1  0.839000  0.634000  0.608100  1
  B  B24  1  0.661000  0.366000  0.108100  1
  B  B25  1  0.154600  0.072900  0.512800  1
  B  B26  1  0.345400  0.927100  0.012800  1
  B  B27  1  0.845400  0.927100  0.487200  1
  B  B28  1  0.654600  0.072900  0.987200  1
  B  B29  1  0.186000  0.814400  0.325700  1
  B  B30  1  0.314000  0.185600  0.825700  1
  B  B31  1  0.814000  0.185600  0.674300  1
  B  B32  1  0.686000  0.814400  0.174300  1
  H  H33  1  0.697700  0.156300  0.354900  1
  H  H34  1  0.802300  0.843700  0.854900  1
  H  H35  1  0.302300  0.843700  0.645100  1
  H  H36  1  0.197700  0.156300  0.145100  1
  H  H37  1  0.766000  0.152700  0.406900  1
  H  H38  1  0.734000  0.847300  0.906900  1
  H  H39  1  0.234000  0.847300  0.593100  1
  H  H40  1  0.266000  0.152700  0.093100  1
  H  H41  1  0.689800  0.018100  0.423200  1
  H  H42  1  0.810200  0.981900  0.923200  1
  H  H43  1  0.310200  0.981900  0.576800  1
  H  H44  1  0.189800  0.018100  0.076800  1
  H  H45  1  0.625000  0.019400  0.375100  1
  H  H46  1  0.875000  0.980600  0.875100  1
  H  H47  1  0.375000  0.980600  0.624900  1
  H  H48  1  0.125000  0.019400  0.124900  1
  H  H49  1  0.833000  0.052800  0.430400  1
  H  H50  1  0.667000  0.947200  0.930400  1
  H  H51  1  0.167000  0.947200  0.569600  1
  H  H52  1  0.333000  0.052800  0.069600  1
  H  H53  1  0.925700  0.033500  0.468500  1
  H  H54  1  0.574300  0.966500  0.968500  1
  H  H55  1  0.074300  0.966500  0.531500  1
  H  H56  1  0.425700  0.033500  0.031500  1
  H  H57  1  0.971100  0.035300  0.522400  1
  H  H58  1  0.528900  0.964700  0.022400  1
  H  H59  1  0.028900  0.964700  0.477600  1
  H  H60  1  0.471100  0.035300  0.977600  1
  H  H61  1  0.824200  0.108200  0.553400  1
  H  H62  1  0.675800  0.891800  0.053400  1
  H  H63  1  0.175800  0.891800  0.446600  1
  H  H64  1  0.324200  0.108200  0.946600  1
  H  H65  1  0.003700  0.040900  0.569400  1
  H  H66  1  0.496300  0.959100  0.069400  1
  H  H67  1  0.996300  0.959100  0.430600  1
  H  H68  1  0.503700  0.040900  0.930600  1
  H  H69  1  0.033600  0.032200  0.624000  1
  H  H70  1  0.466400  0.967800  0.124000  1
  H  H71  1  0.966400  0.967800  0.376000  1
  H  H72  1  0.533600  0.032200  0.876000  1
  H  H73  1  0.878300  0.092100  0.654100  1
  H  H74  1  0.621700  0.907900  0.154100  1
  H  H75  1  0.121700  0.907900  0.345900  1
  H  H76  1  0.378300  0.092100  0.845900  1
  H  H77  1  0.847700  0.095300  0.598700  1
  H  H78  1  0.652300  0.904700  0.098700  1
  H  H79  1  0.152300  0.904700  0.401300  1
  H  H80  1  0.347700  0.095300  0.901300  1
  H  H81  1  0.072800  0.058600  0.671800  1
  H  H82  1  0.427200  0.941400  0.171800  1
  H  H83  1  0.927200  0.941400  0.328200  1
  H  H84  1  0.572800  0.058600  0.828200  1
  H  H85  1  0.925600  0.047400  0.757100  1
  H  H86  1  0.574400  0.952600  0.257100  1
  H  H87  1  0.074400  0.952600  0.242900  1
  H  H88  1  0.425600  0.047400  0.742900  1
  H  H89  1  0.890700  0.053200  0.701200  1
  H  H90  1  0.609300  0.946800  0.201200  1
  H  H91  1  0.109300  0.946800  0.298800  1
  H  H92  1  0.390700  0.053200  0.798800  1
  H  H93  1  0.020100  0.037200  0.796300  1
  H  H94  1  0.479900  0.962800  0.296300  1
  H  H95  1  0.979900  0.962800  0.203700  1
  H  H96  1  0.520100  0.037200  0.703700  1
  H  H97  1  0.183900  0.109200  0.807400  1
  H  H98  1  0.316100  0.890800  0.307400  1
  H  H99  1  0.816100  0.890800  0.192600  1
  H  H100  1  0.683900  0.109200  0.692600  1
  H  H101  1  0.236700  0.105400  0.859200  1
  H  H102  1  0.263300  0.894600  0.359200  1
  H  H103  1  0.763300  0.894600  0.140800  1
  H  H104  1  0.736700  0.105400  0.640800  1
  H  H105  1  0.149100  0.969500  0.874400  1
  H  H106  1  0.350900  0.030500  0.374400  1
  H  H107  1  0.850900  0.030500  0.125600  1
  H  H108  1  0.649100  0.969500  0.625600  1
  H  H109  1  0.520700  0.974600  0.471400  1
  H  H110  1  0.979300  0.025400  0.971400  1
  H  H111  1  0.479300  0.025400  0.528600  1
  H  H112  1  0.020700  0.974600  0.028600  1
  H  H113  1  0.565500  0.049500  0.495300  1
  H  H114  1  0.934500  0.950500  0.995300  1
  H  H115  1  0.434500  0.950500  0.504700  1
  H  H116  1  0.065500  0.049500  0.004700  1
  H  H117  1  0.740300  0.002600  0.490700  1
  H  H118  1  0.759700  0.997400  0.990700  1
  H  H119  1  0.259700  0.997400  0.509300  1
  H  H120  1  0.240300  0.002600  0.009300  1
  H  H121  1  0.695800  0.927500  0.466300  1
  H  H122  1  0.804200  0.072500  0.966300  1
  H  H123  1  0.304200  0.072500  0.533700  1
  H  H124  1  0.195800  0.927500  0.033700  1
  H  H125  1  0.631500  0.069100  0.548500  1
  H  H126  1  0.868500  0.930900  0.048500  1
  H  H127  1  0.368500  0.930900  0.451500  1
  H  H128  1  0.131500  0.069100  0.951500  1
  H  H129  1  0.636900  0.137100  0.593900  1
  H  H130  1  0.863100  0.862900  0.093900  1
  H  H131  1  0.363100  0.862900  0.406100  1
  H  H132  1  0.136900  0.137100  0.906100  1
  H  H133  1  0.690400  0.210900  0.613400  1
  H  H134  1  0.809600  0.789100  0.113400  1
  H  H135  1  0.309600  0.789100  0.386600  1
  H  H136  1  0.190400  0.210900  0.886600  1
  H  H137  1  0.804000  0.217300  0.531600  1
  H  H138  1  0.696000  0.782700  0.031600  1
  H  H139  1  0.196000  0.782700  0.468400  1
  H  H140  1  0.304000  0.217300  0.968400  1
  H  H141  1  0.821000  0.292100  0.540000  1
  H  H142  1  0.679000  0.707900  0.040000  1
  H  H143  1  0.179000  0.707900  0.460000  1
  H  H144  1  0.321000  0.292100  0.960000  1
  H  H145  1  0.864900  0.370500  0.555500  1
  H  H146  1  0.635100  0.629500  0.055500  1
  H  H147  1  0.135100  0.629500  0.444500  1
  H  H148  1  0.364900  0.370500  0.944500  1
  H  H149  1  0.813300  0.338700  0.650900  1
  H  H150  1  0.686700  0.661300  0.150900  1
  H  H151  1  0.186700  0.661300  0.349100  1
  H  H152  1  0.313300  0.338700  0.849100  1
  H  H153  1  0.766900  0.262500  0.634700  1
  H  H154  1  0.733100  0.737500  0.134700  1
  H  H155  1  0.233100  0.737500  0.365300  1
  H  H156  1  0.266900  0.262500  0.865300  1
  H  H157  1  0.852700  0.447600  0.571700  1
  H  H158  1  0.647300  0.552400  0.071700  1
  H  H159  1  0.147300  0.552400  0.428300  1
  H  H160  1  0.352700  0.447600  0.928300  1
  H  H161  1  0.895400  0.527700  0.589700  1
  H  H162  1  0.604600  0.472300  0.089700  1
  H  H163  1  0.104600  0.472300  0.410300  1
  H  H164  1  0.395400  0.527700  0.910300  1
  H  H165  1  0.891600  0.394300  0.661000  1
  H  H166  1  0.608400  0.605700  0.161000  1
  H  H167  1  0.108400  0.605700  0.339000  1
  H  H168  1  0.391600  0.394300  0.839000  1
  H  H169  1  0.932100  0.581600  0.642600  1
  H  H170  1  0.567900  0.418400  0.142600  1
  H  H171  1  0.067900  0.418400  0.357400  1
  H  H172  1  0.432100  0.581600  0.857400  1
  H  H173  1  0.068700  0.577800  0.700900  1
  H  H174  1  0.431300  0.422200  0.200900  1
  H  H175  1  0.931300  0.422200  0.299100  1
  H  H176  1  0.568700  0.577800  0.799100  1
  H  H177  1  0.116100  0.655100  0.719300  1
  H  H178  1  0.383900  0.344900  0.219300  1
  H  H179  1  0.883900  0.344900  0.280700  1
  H  H180  1  0.616100  0.655100  0.780700  1
  H  H181  1  0.941400  0.707200  0.716800  1
  H  H182  1  0.558600  0.292800  0.216800  1
  H  H183  1  0.058600  0.292800  0.283200  1
  H  H184  1  0.441400  0.707200  0.783200  1
  H  H185  1  0.894000  0.629800  0.698400  1
  H  H186  1  0.606000  0.370200  0.198400  1
  H  H187  1  0.106000  0.370200  0.301600  1
  H  H188  1  0.394000  0.629800  0.801600  1
  H  H189  1  0.497700  0.094500  0.435200  1
  H  H190  1  0.002300  0.905500  0.935200  1
  H  H191  1  0.502300  0.905500  0.564800  1
  H  H192  1  0.997700  0.094500  0.064800  1
  H  H193  1  0.609000  0.110200  0.432700  1
  H  H194  1  0.891000  0.889800  0.932700  1
  H  H195  1  0.391000  0.889800  0.567300  1
  H  H196  1  0.109000  0.110200  0.067300  1
  H  H197  1  0.606900  0.197100  0.511300  1
  H  H198  1  0.893100  0.802900  0.011300  1
  H  H199  1  0.393100  0.802900  0.488700  1
  H  H200  1  0.106900  0.197100  0.988700  1
  H  H201  1  0.493500  0.182100  0.512500  1
  H  H202  1  0.006500  0.817900  0.012500  1
  H  H203  1  0.506500  0.817900  0.487500  1
  H  H204  1  0.993500  0.182100  0.987500  1
  H  H205  1  0.684700  0.230200  0.450400  1
  H  H206  1  0.815300  0.769800  0.950400  1
  H  H207  1  0.315300  0.769800  0.549600  1
  H  H208  1  0.184700  0.230200  0.049600  1
  H  H209  1  0.789200  0.285400  0.440300  1
  H  H210  1  0.710800  0.714600  0.940300  1
  H  H211  1  0.210800  0.714600  0.559700  1
  H  H212  1  0.289200  0.285400  0.059700  1
  H  H213  1  0.901800  0.294400  0.442700  1
  H  H214  1  0.598200  0.705600  0.942700  1
  H  H215  1  0.098200  0.705600  0.557300  1
  H  H216  1  0.401800  0.294400  0.057300  1
  H  H217  1  0.893700  0.162500  0.484000  1
  H  H218  1  0.606300  0.837500  0.984000  1
  H  H219  1  0.106300  0.837500  0.516000  1
  H  H220  1  0.393700  0.162500  0.016000  1
  H  H221  1  0.002500  0.303400  0.453800  1
  H  H222  1  0.497500  0.696600  0.953800  1
  H  H223  1  0.997500  0.696600  0.546200  1
  H  H224  1  0.502500  0.303400  0.046200  1
  H  H225  1  0.112800  0.303800  0.455800  1
  H  H226  1  0.387200  0.696200  0.955800  1
  H  H227  1  0.887200  0.696200  0.544200  1
  H  H228  1  0.612800  0.303800  0.044200  1
  H  H229  1  0.094500  0.161700  0.474700  1
  H  H230  1  0.405500  0.838300  0.974700  1
  H  H231  1  0.905500  0.838300  0.525300  1
  H  H232  1  0.594500  0.161700  0.025300  1
  H  H233  1  0.982700  0.158600  0.474400  1
  H  H234  1  0.517300  0.841400  0.974400  1
  H  H235  1  0.017300  0.841400  0.525600  1
  H  H236  1  0.482700  0.158600  0.025600  1
  H  H237  1  0.184100  0.160500  0.457900  1
  H  H238  1  0.315900  0.839500  0.957900  1
  H  H239  1  0.815900  0.839500  0.542100  1
  H  H240  1  0.684100  0.160500  0.042100  1
  H  H241  1  0.296900  0.163200  0.455400  1
  H  H242  1  0.203100  0.836800  0.955400  1
  H  H243  1  0.703100  0.836800  0.544600  1
  H  H244  1  0.796900  0.163200  0.044600  1
  H  H245  1  0.207100  0.305800  0.478500  1
  H  H246  1  0.292900  0.694200  0.978500  1
  H  H247  1  0.792900  0.694200  0.521500  1
  H  H248  1  0.707100  0.305800  0.021500  1
  H  H249  1  0.408700  0.216900  0.459400  1
  H  H250  1  0.091300  0.783100  0.959400  1
  H  H251  1  0.591300  0.783100  0.540600  1
  H  H252  1  0.908700  0.216900  0.040600  1
  H  H253  1  0.488700  0.294000  0.420100  1
  H  H254  1  0.011300  0.706000  0.920100  1
  H  H255  1  0.511300  0.706000  0.579900  1
  H  H256  1  0.988700  0.294000  0.079900  1
  H  H257  1  0.603600  0.309900  0.421900  1
  H  H258  1  0.896400  0.690100  0.921900  1
  H  H259  1  0.396400  0.690100  0.578100  1
  H  H260  1  0.103600  0.309900  0.078100  1
  H  H261  1  0.602500  0.309200  0.521000  1
  H  H262  1  0.897500  0.690800  0.021000  1
  H  H263  1  0.397500  0.690800  0.479000  1
  H  H264  1  0.102500  0.309200  0.979000  1
  H  H265  1  0.489500  0.293900  0.520900  1
  H  H266  1  0.010500  0.706100  0.020900  1
  H  H267  1  0.510500  0.706100  0.479100  1
  H  H268  1  0.989500  0.293900  0.979100  1
  H  H269  1  0.584800  0.453600  0.436500  1
  H  H270  1  0.915200  0.546400  0.936500  1
  H  H271  1  0.415200  0.546400  0.563500  1
  H  H272  1  0.084800  0.453600  0.063500  1
  H  H273  1  0.531500  0.392200  0.470800  1
  H  H274  1  0.968500  0.607800  0.970800  1
  H  H275  1  0.468500  0.607800  0.529200  1
  H  H276  1  0.031500  0.392200  0.029200  1
  H  H277  1  0.376800  0.469900  0.475900  1
  H  H278  1  0.123200  0.530100  0.975900  1
  H  H279  1  0.623200  0.530100  0.524100  1
  H  H280  1  0.876800  0.469900  0.024100  1
  H  H281  1  0.430100  0.531300  0.441600  1
  H  H282  1  0.069900  0.468700  0.941600  1
  H  H283  1  0.569900  0.468700  0.558400  1
  H  H284  1  0.930100  0.531300  0.058400  1
  H  H285  1  0.464100  0.410400  0.535500  1
  H  H286  1  0.035900  0.589600  0.035500  1
  H  H287  1  0.535900  0.589600  0.464500  1
  H  H288  1  0.964100  0.410400  0.964500  1
  H  H289  1  0.440300  0.361500  0.592300  1
  H  H290  1  0.059700  0.638500  0.092300  1
  H  H291  1  0.559700  0.638500  0.407700  1
  H  H292  1  0.940300  0.361500  0.907700  1
  H  H293  1  0.386100  0.295700  0.619200  1
  H  H294  1  0.113900  0.704300  0.119200  1
  H  H295  1  0.613900  0.704300  0.380800  1
  H  H296  1  0.886100  0.295700  0.880800  1
  H  H297  1  0.298200  0.257300  0.532700  1
  H  H298  1  0.201800  0.742700  0.032700  1
  H  H299  1  0.701800  0.742700  0.467300  1
  H  H300  1  0.798200  0.257300  0.967300  1
  H  H301  1  0.337700  0.237500  0.639400  1
  H  H302  1  0.162300  0.762500  0.139400  1
  H  H303  1  0.662300  0.762500  0.360600  1
  H  H304  1  0.837700  0.237500  0.860600  1
  H  H305  1  0.285200  0.171300  0.664300  1
  H  H306  1  0.214800  0.828700  0.164300  1
  H  H307  1  0.714800  0.828700  0.335700  1
  H  H308  1  0.785200  0.171300  0.835700  1
  H  H309  1  0.215000  0.121600  0.576200  1
  H  H310  1  0.285000  0.878400  0.076200  1
  H  H311  1  0.785000  0.878400  0.423800  1
  H  H312  1  0.715000  0.121600  0.923800  1
  H  H313  1  0.258500  0.195400  0.552500  1
  H  H314  1  0.241500  0.804600  0.052500  1
  H  H315  1  0.741500  0.804600  0.447500  1
  H  H316  1  0.758500  0.195400  0.947500  1
  H  H317  1  0.226000  0.043100  0.599600  1
  H  H318  1  0.274000  0.956900  0.099600  1
  H  H319  1  0.774000  0.956900  0.400400  1
  H  H320  1  0.726000  0.043100  0.900400  1
  H  H321  1  0.195300  0.971700  0.629300  1
  H  H322  1  0.304700  0.028300  0.129300  1
  H  H323  1  0.804700  0.028300  0.370700  1
  H  H324  1  0.695300  0.971700  0.870700  1
  H  H325  1  0.207000  0.121400  0.682600  1
  H  H326  1  0.293000  0.878600  0.182600  1
  H  H327  1  0.793000  0.878600  0.317400  1
  H  H328  1  0.707000  0.121400  0.817400  1
  H  H329  1  0.142300  0.934600  0.684100  1
  H  H330  1  0.357700  0.065400  0.184100  1
  H  H331  1  0.857700  0.065400  0.315900  1
  H  H332  1  0.642300  0.934600  0.815900  1
  H  H333  1  0.170300  0.925200  0.774000  1
  H  H334  1  0.329700  0.074800  0.274000  1
  H  H335  1  0.829700  0.074800  0.226000  1
  H  H336  1  0.670300  0.925200  0.726000  1
  H  H337  1  0.105400  0.860900  0.803700  1
  H  H338  1  0.394600  0.139100  0.303700  1
  H  H339  1  0.894600  0.139100  0.196300  1
  H  H340  1  0.605400  0.860900  0.696300  1
  H  H341  1  0.956200  0.877000  0.741600  1
  H  H342  1  0.543800  0.123000  0.241600  1
  H  H343  1  0.043800  0.123000  0.258400  1
  H  H344  1  0.456200  0.877000  0.758400  1
  H  H345  1  0.017600  0.941500  0.713300  1
  H  H346  1  0.482400  0.058500  0.213300  1
  H  H347  1  0.982400  0.058500  0.286700  1
  H  H348  1  0.517600  0.941500  0.786700  1
  H  H349  1  0.849900  0.477200  0.833500  1
  H  H350  1  0.650100  0.522800  0.333500  1
  H  H351  1  0.150100  0.522800  0.166500  1
  H  H352  1  0.349900  0.477200  0.666500  1
  H  H353  1  0.902900  0.453800  0.784100  1
  H  H354  1  0.597100  0.546200  0.284100  1
  H  H355  1  0.097100  0.546200  0.215900  1
  H  H356  1  0.402900  0.453800  0.715900  1
  H  H357  1  0.986200  0.589900  0.771800  1
  H  H358  1  0.513800  0.410100  0.271800  1
  H  H359  1  0.013800  0.410100  0.228200  1
  H  H360  1  0.486200  0.589900  0.728200  1
  H  H361  1  0.933200  0.615200  0.819100  1
  H  H362  1  0.566800  0.384800  0.319100  1
  H  H363  1  0.066800  0.384800  0.180900  1
  H  H364  1  0.433200  0.615200  0.680900  1
  H  H365  1  0.067500  0.512400  0.767200  1
  H  H366  1  0.432500  0.487600  0.267200  1
  H  H367  1  0.932500  0.487600  0.232800  1
  H  H368  1  0.567500  0.512400  0.732800  1
  H  H369  1  0.165400  0.480600  0.734900  1
  H  H370  1  0.334600  0.519400  0.234900  1
  H  H371  1  0.834600  0.519400  0.265100  1
  H  H372  1  0.665400  0.480600  0.765100  1
  H  H373  1  0.206000  0.465600  0.682200  1
  H  H374  1  0.294000  0.534400  0.182200  1
  H  H375  1  0.794000  0.534400  0.317800  1
  H  H376  1  0.706000  0.465600  0.817800  1
  H  H377  1  0.032300  0.462900  0.644000  1
  H  H378  1  0.467700  0.537100  0.144000  1
  H  H379  1  0.967700  0.537100  0.356000  1
  H  H380  1  0.532300  0.462900  0.856000  1
  H  H381  1  0.218500  0.417300  0.639300  1
  H  H382  1  0.281500  0.582700  0.139300  1
  H  H383  1  0.781500  0.582700  0.360700  1
  H  H384  1  0.718500  0.417300  0.860700  1
  H  H385  1  0.259500  0.400200  0.588500  1
  H  H386  1  0.240500  0.599800  0.088500  1
  H  H387  1  0.740500  0.599800  0.411500  1
  H  H388  1  0.759500  0.400200  0.911500  1
  H  H389  1  0.118100  0.463400  0.544200  1
  H  H390  1  0.381900  0.536600  0.044200  1
  H  H391  1  0.881900  0.536600  0.455800  1
  H  H392  1  0.618100  0.463400  0.955800  1
  H  H393  1  0.080700  0.482700  0.599100  1
  H  H394  1  0.419300  0.517300  0.099100  1
  H  H395  1  0.919300  0.517300  0.400900  1
  H  H396  1  0.580700  0.482700  0.900900  1
  H  H397  1  0.169100  0.471700  0.502800  1
  H  H398  1  0.330900  0.528300  0.002800  1
  H  H399  1  0.830900  0.528300  0.497200  1
  H  H400  1  0.669100  0.471700  0.997200  1
  H  H401  1  0.216800  0.455900  0.448800  1
  H  H402  1  0.283200  0.544100  0.948800  1
  H  H403  1  0.783200  0.544100  0.551200  1
  H  H404  1  0.716800  0.455900  0.051200  1
  H  H405  1  0.269700  0.368800  0.540900  1
  H  H406  1  0.230300  0.631200  0.040900  1
  H  H407  1  0.730300  0.631200  0.459100  1
  H  H408  1  0.769700  0.368800  0.959100  1
  H  H409  1  0.289700  0.409000  0.415000  1
  H  H410  1  0.210300  0.591000  0.915000  1
  H  H411  1  0.710300  0.591000  0.585000  1
  H  H412  1  0.789700  0.409000  0.085000  1
  H  H413  1  0.411000  0.422600  0.398600  1
  H  H414  1  0.089000  0.577400  0.898600  1
  H  H415  1  0.589000  0.577400  0.601400  1
  H  H416  1  0.911000  0.422600  0.101400  1
  H  H417  1  0.463000  0.404700  0.348800  1
  H  H418  1  0.037000  0.595300  0.848800  1
  H  H419  1  0.537000  0.595300  0.651200  1
  H  H420  1  0.963000  0.404700  0.151200  1
  H  H421  1  0.391600  0.260400  0.357400  1
  H  H422  1  0.108400  0.739600  0.857400  1
  H  H423  1  0.608400  0.739600  0.642600  1
  H  H424  1  0.891600  0.260400  0.142600  1
  H  H425  1  0.339600  0.278300  0.407300  1
  H  H426  1  0.160400  0.721700  0.907300  1
  H  H427  1  0.660400  0.721700  0.592700  1
  H  H428  1  0.839600  0.278300  0.092700  1
  H  H429  1  0.333100  0.916200  0.726700  1
  H  H430  1  0.166900  0.083800  0.226700  1
  H  H431  1  0.666900  0.083800  0.273300  1
  H  H432  1  0.833100  0.916200  0.773300  1
  H  H433  1  0.290800  0.985600  0.711800  1
  H  H434  1  0.209200  0.014400  0.211800  1
  H  H435  1  0.709200  0.014400  0.288200  1
  H  H436  1  0.790800  0.985600  0.788200  1
  H  H437  1  0.259800  0.011800  0.808700  1
  H  H438  1  0.240200  0.988200  0.308700  1
  H  H439  1  0.740200  0.988200  0.191300  1
  H  H440  1  0.759800  0.011800  0.691300  1
  H  H441  1  0.315000  0.946000  0.822600  1
  H  H442  1  0.185000  0.054000  0.322600  1
  H  H443  1  0.685000  0.054000  0.177400  1
  H  H444  1  0.815000  0.946000  0.677400  1
  H  H445  1  0.312500  0.097900  0.756600  1
  H  H446  1  0.187500  0.902100  0.256600  1
  H  H447  1  0.687500  0.902100  0.243400  1
  H  H448  1  0.812500  0.097900  0.743400  1
  H  H449  1  0.304500  0.189000  0.745400  1
  H  H450  1  0.195500  0.811000  0.245400  1
  H  H451  1  0.695500  0.811000  0.254600  1
  H  H452  1  0.804500  0.189000  0.754600  1
  H  H453  1  0.235200  0.249200  0.734900  1
  H  H454  1  0.264800  0.750800  0.234900  1
  H  H455  1  0.764800  0.750800  0.265100  1
  H  H456  1  0.735200  0.249200  0.765100  1
  H  H457  1  0.088500  0.140300  0.733000  1
  H  H458  1  0.411500  0.859700  0.233000  1
  H  H459  1  0.911500  0.859700  0.267000  1
  H  H460  1  0.588500  0.140300  0.767000  1
  H  H461  1  0.158700  0.293900  0.746100  1
  H  H462  1  0.341300  0.706100  0.246100  1
  H  H463  1  0.841300  0.706100  0.253900  1
  H  H464  1  0.658700  0.293900  0.753900  1
  H  H465  1  0.083900  0.349200  0.740600  1
  H  H466  1  0.416100  0.650800  0.240600  1
  H  H467  1  0.916100  0.650800  0.259400  1
  H  H468  1  0.583900  0.349200  0.759400  1
  H  H469  1  0.955400  0.240500  0.708300  1
  H  H470  1  0.544600  0.759500  0.208300  1
  H  H471  1  0.044600  0.759500  0.291700  1
  H  H472  1  0.455400  0.240500  0.791700  1
  H  H473  1  0.039000  0.188500  0.704600  1
  H  H474  1  0.461000  0.811500  0.204600  1
  H  H475  1  0.961000  0.811500  0.295400  1
  H  H476  1  0.539000  0.188500  0.795400  1
  H  H477  1  0.886300  0.284100  0.736500  1
  H  H478  1  0.613700  0.715900  0.236500  1
  H  H479  1  0.113700  0.715900  0.263500  1
  H  H480  1  0.386300  0.284100  0.763500  1
  H  H481  1  0.810600  0.339300  0.738400  1
  H  H482  1  0.689400  0.660700  0.238400  1
  H  H483  1  0.189400  0.660700  0.261600  1
  H  H484  1  0.310600  0.339300  0.761600  1
  H  H485  1  0.019300  0.395200  0.711000  1
  H  H486  1  0.480700  0.604800  0.211000  1
  H  H487  1  0.980700  0.604800  0.289000  1
  H  H488  1  0.519300  0.395200  0.789000  1
  H  H489  1  0.787100  0.433500  0.731800  1
  H  H490  1  0.712900  0.566500  0.231800  1
  H  H491  1  0.212900  0.566500  0.268200  1
  H  H492  1  0.287100  0.433500  0.768200  1
  H  H493  1  0.833900  0.542000  0.766200  1
  H  H494  1  0.666100  0.458000  0.266200  1
  H  H495  1  0.166100  0.458000  0.233800  1
  H  H496  1  0.333900  0.542000  0.733800  1
  H  H497  1  0.760200  0.600900  0.767000  1
  H  H498  1  0.739800  0.399100  0.267000  1
  H  H499  1  0.239800  0.399100  0.233000  1
  H  H500  1  0.260200  0.600900  0.733000  1
  H  H501  1  0.702400  0.560500  0.672900  1
  H  H502  1  0.797600  0.439500  0.172900  1
  H  H503  1  0.297600  0.439500  0.327100  1
  H  H504  1  0.202400  0.560500  0.827100  1
  H  H505  1  0.776000  0.501600  0.672100  1
  H  H506  1  0.724000  0.498400  0.172100  1
  H  H507  1  0.224000  0.498400  0.327900  1
  H  H508  1  0.276000  0.501600  0.827900  1
  H  H509  1  0.342500  0.090200  0.458200  1
  H  H510  1  0.157500  0.909800  0.958200  1
  H  H511  1  0.657500  0.909800  0.541800  1
  H  H512  1  0.842500  0.090200  0.041800  1
  H  H513  1  0.405500  0.061500  0.458500  1
  H  H514  1  0.094500  0.938500  0.958500  1
  H  H515  1  0.594500  0.938500  0.541500  1
  H  H516  1  0.905500  0.061500  0.041500  1
  H  H517  1  0.397400  0.102400  0.430400  1
  H  H518  1  0.102600  0.897600  0.930400  1
  H  H519  1  0.602600  0.897600  0.569600  1
  H  H520  1  0.897400  0.102400  0.069600  1
  H  H521  1  0.549500  0.053200  0.306100  1
  H  H522  1  0.950500  0.946800  0.806100  1
  H  H523  1  0.450500  0.946800  0.693900  1
  H  H524  1  0.049500  0.053200  0.193900  1
  H  H525  1  0.542300  0.043400  0.345700  1
  H  H526  1  0.957700  0.956600  0.845700  1
  H  H527  1  0.457700  0.956600  0.654300  1
  H  H528  1  0.042300  0.043400  0.154300  1
  H  H529  1  0.595300  0.018200  0.324700  1
  H  H530  1  0.904700  0.981800  0.824700  1
  H  H531  1  0.404700  0.981800  0.675300  1
  H  H532  1  0.095300  0.018200  0.175300  1
  H  H533  1  0.583800  0.839200  0.432500  1
  H  H534  1  0.916200  0.160800  0.932500  1
  H  H535  1  0.416200  0.160800  0.567500  1
  H  H536  1  0.083800  0.839200  0.067500  1
  H  H537  1  0.631300  0.856600  0.462800  1
  H  H538  1  0.868700  0.143400  0.962800  1
  H  H539  1  0.368700  0.143400  0.537200  1
  H  H540  1  0.131300  0.856600  0.037200  1
  H  H541  1  0.644500  0.879500  0.426200  1
  H  H542  1  0.855500  0.120500  0.926200  1
  H  H543  1  0.355500  0.120500  0.573800  1
  H  H544  1  0.144500  0.879500  0.073800  1
  H  H545  1  0.495700  0.273400  0.289900  1
  H  H546  1  0.004300  0.726600  0.789900  1
  H  H547  1  0.504300  0.726600  0.710100  1
  H  H548  1  0.995700  0.273400  0.210100  1
  H  H549  1  0.422700  0.262500  0.302700  1
  H  H550  1  0.077300  0.737500  0.802700  1
  H  H551  1  0.577300  0.737500  0.697300  1
  H  H552  1  0.922700  0.262500  0.197300  1
  H  H553  1  0.481100  0.253800  0.327300  1
  H  H554  1  0.018900  0.746200  0.827300  1
  H  H555  1  0.518900  0.746200  0.672700  1
  H  H556  1  0.981100  0.253800  0.172700  1
  H  H557  1  0.760900  0.325800  0.498200  1
  H  H558  1  0.739100  0.674200  0.998200  1
  H  H559  1  0.239100  0.674200  0.501800  1
  H  H560  1  0.260900  0.325800  0.001800  1
  H  H561  1  0.702400  0.291500  0.515100  1
  H  H562  1  0.797600  0.708500  0.015100  1
  H  H563  1  0.297600  0.708500  0.484900  1
  H  H564  1  0.202400  0.291500  0.984900  1
  H  H565  1  0.702300  0.350300  0.514900  1
  H  H566  1  0.797700  0.649700  0.014900  1
  H  H567  1  0.297700  0.649700  0.485100  1
  H  H568  1  0.202300  0.350300  0.985100  1
  H  H569  1  0.637000  0.556700  0.399100  1
  H  H570  1  0.863000  0.443300  0.899100  1
  H  H571  1  0.363000  0.443300  0.600900  1
  H  H572  1  0.137000  0.556700  0.100900  1
  H  H573  1  0.619800  0.497900  0.399800  1
  H  H574  1  0.880200  0.502100  0.899800  1
  H  H575  1  0.380200  0.502100  0.600200  1
  H  H576  1  0.119800  0.497900  0.100200  1
  H  H577  1  0.635200  0.527600  0.434100  1
  H  H578  1  0.864800  0.472400  0.934100  1
  H  H579  1  0.364800  0.472400  0.565900  1
  H  H580  1  0.135200  0.527600  0.065900  1
  H  H581  1  0.384600  0.837600  0.815400  1
  H  H582  1  0.115400  0.162400  0.315400  1
  H  H583  1  0.615400  0.162400  0.184600  1
  H  H584  1  0.884600  0.837600  0.684600  1
  H  H585  1  0.326300  0.866400  0.828100  1
  H  H586  1  0.173700  0.133600  0.328100  1
  H  H587  1  0.673700  0.133600  0.171900  1
  H  H588  1  0.826300  0.866400  0.671900  1
  H  H589  1  0.397100  0.895300  0.824100  1
  H  H590  1  0.102900  0.104700  0.324100  1
  H  H591  1  0.602900  0.104700  0.175900  1
  H  H592  1  0.897100  0.895300  0.675900  1
  H  H593  1  0.903900  0.789200  0.798600  1
  H  H594  1  0.596100  0.210800  0.298600  1
  H  H595  1  0.096100  0.210800  0.201400  1
  H  H596  1  0.403900  0.789200  0.701400  1
  H  H597  1  0.922700  0.803600  0.760600  1
  H  H598  1  0.577300  0.196400  0.260600  1
  H  H599  1  0.077300  0.196400  0.239400  1
  H  H600  1  0.422700  0.803600  0.739400  1
  H  H601  1  0.899600  0.844300  0.785500  1
  H  H602  1  0.600400  0.155700  0.285500  1
  H  H603  1  0.100400  0.155700  0.214500  1
  H  H604  1  0.399600  0.844300  0.714500  1
  H  H605  1  0.249500  0.002100  0.940900  1
  H  H606  1  0.250500  0.997900  0.440900  1
  H  H607  1  0.750500  0.997900  0.059100  1
  H  H608  1  0.749500  0.002100  0.559100  1
  H  H609  1  0.242600  0.970000  0.907100  1
  H  H610  1  0.257400  0.030000  0.407100  1
  H  H611  1  0.757400  0.030000  0.092900  1
  H  H612  1  0.742600  0.970000  0.592900  1
  H  H613  1  0.179500  0.985600  0.925400  1
  H  H614  1  0.320500  0.014400  0.425400  1
  H  H615  1  0.820500  0.014400  0.074600  1
  H  H616  1  0.679500  0.985600  0.574600  1
  H  H617  1  0.835700  0.606800  0.890300  1
  H  H618  1  0.664300  0.393200  0.390300  1
  H  H619  1  0.164300  0.393200  0.109700  1
  H  H620  1  0.335700  0.606800  0.609700  1
  H  H621  1  0.848700  0.626500  0.852800  1
  H  H622  1  0.651300  0.373500  0.352800  1
  H  H623  1  0.151300  0.373500  0.147200  1
  H  H624  1  0.348700  0.626500  0.647200  1
  H  H625  1  0.907800  0.614300  0.875900  1
  H  H626  1  0.592200  0.385700  0.375900  1
  H  H627  1  0.092200  0.385700  0.124100  1
  H  H628  1  0.407800  0.614300  0.624100  1
  H  H629  1  0.063900  0.796800  0.733800  1
  H  H630  1  0.436100  0.203200  0.233800  1
  H  H631  1  0.936100  0.203200  0.266200  1
  H  H632  1  0.563900  0.796800  0.766200  1
  H  H633  1  0.996900  0.762500  0.738100  1
  H  H634  1  0.503100  0.237500  0.238100  1
  H  H635  1  0.003100  0.237500  0.261900  1
  H  H636  1  0.496900  0.762500  0.761900  1
  H  H637  1  0.028500  0.770900  0.701700  1
  H  H638  1  0.471500  0.229100  0.201700  1
  H  H639  1  0.971500  0.229100  0.298300  1
  H  H640  1  0.528500  0.770900  0.798300  1
  H  H641  1  0.096800  0.970600  0.822800  1
  H  H642  1  0.403200  0.029400  0.322800  1
  H  H643  1  0.903200  0.029400  0.177200  1
  H  H644  1  0.596800  0.970600  0.677200  1
  H  H645  1  0.665600  0.680500  0.736900  1
  H  H646  1  0.834400  0.319500  0.236900  1
  H  H647  1  0.334400  0.319500  0.263100  1
  H  H648  1  0.165600  0.680500  0.763100  1
  H  H649  1  0.680300  0.636400  0.761300  1
  H  H650  1  0.819700  0.363600  0.261300  1
  H  H651  1  0.319700  0.363600  0.238700  1
  H  H652  1  0.180300  0.636400  0.738700  1
  H  H653  1  0.613000  0.633500  0.741700  1
  H  H654  1  0.887000  0.366500  0.241700  1
  H  H655  1  0.387000  0.366500  0.258300  1
  H  H656  1  0.113000  0.633500  0.758300  1
  H  H657  1  0.145900  0.329900  0.661300  1
  H  H658  1  0.354100  0.670100  0.161300  1
  H  H659  1  0.854100  0.670100  0.338700  1
  H  H660  1  0.645900  0.329900  0.838700  1
  H  H661  1  0.136400  0.312600  0.623000  1
  H  H662  1  0.363600  0.687400  0.123000  1
  H  H663  1  0.863600  0.687400  0.377000  1
  H  H664  1  0.636400  0.312600  0.877000  1
  H  H665  1  0.103000  0.279000  0.652600  1
  H  H666  1  0.397000  0.721000  0.152600  1
  H  H667  1  0.897000  0.721000  0.347400  1
  H  H668  1  0.603000  0.279000  0.847400  1
  H  H669  1  0.032200  0.334400  0.569800  1
  H  H670  1  0.467800  0.665600  0.069800  1
  H  H671  1  0.967800  0.665600  0.430200  1
  H  H672  1  0.532200  0.334400  0.930200  1
  H  H673  1  0.013500  0.305600  0.535500  1
  H  H674  1  0.486500  0.694400  0.035500  1
  H  H675  1  0.986500  0.694400  0.464500  1
  H  H676  1  0.513500  0.305600  0.964500  1
  H  H677  1  0.049900  0.360600  0.534500  1
  H  H678  1  0.450100  0.639400  0.034500  1
  H  H679  1  0.950100  0.639400  0.465500  1
  H  H680  1  0.549900  0.360600  0.965500  1
  H  H681  1  0.977300  0.270000  0.612000  1
  H  H682  1  0.522700  0.730000  0.112000  1
  H  H683  1  0.022700  0.730000  0.388000  1
  H  H684  1  0.477300  0.270000  0.888000  1
  H  H685  1  0.970400  0.217000  0.629900  1
  H  H686  1  0.529600  0.783000  0.129900  1
  H  H687  1  0.029600  0.783000  0.370100  1
  H  H688  1  0.470400  0.217000  0.870100  1
  H  H689  1  0.908800  0.246900  0.626300  1
  H  H690  1  0.591200  0.753100  0.126300  1
  H  H691  1  0.091200  0.753100  0.373700  1
  H  H692  1  0.408800  0.246900  0.873700  1
  H  H693  1  0.034400  0.173000  0.568600  1
  H  H694  1  0.465600  0.827000  0.068600  1
  H  H695  1  0.965600  0.827000  0.431400  1
  H  H696  1  0.534400  0.173000  0.931400  1
  H  H697  1  0.084000  0.133000  0.562500  1
  H  H698  1  0.416000  0.867000  0.062500  1
  H  H699  1  0.916000  0.867000  0.437500  1
  H  H700  1  0.584000  0.133000  0.937500  1
  H  H701  1  0.110100  0.190400  0.565800  1
  H  H702  1  0.389900  0.809600  0.065800  1
  H  H703  1  0.889900  0.809600  0.434200  1
  H  H704  1  0.610100  0.190400  0.934200  1
  H  H705  1  0.213000  0.272600  0.644100  1
  H  H706  1  0.287000  0.727400  0.144100  1
  H  H707  1  0.787000  0.727400  0.355900  1
  H  H708  1  0.713000  0.272600  0.855900  1
  H  H709  1  0.152000  0.295600  0.659500  1
  H  H710  1  0.348000  0.704400  0.159500  1
  H  H711  1  0.848000  0.704400  0.340500  1
  H  H712  1  0.652000  0.295600  0.840500  1
  H  H713  1  0.157300  0.287800  0.619800  1
  H  H714  1  0.342700  0.712200  0.119800  1
  H  H715  1  0.842700  0.712200  0.380200  1
  H  H716  1  0.657300  0.287800  0.880200  1
  H  H717  1  0.005100  0.792500  0.876900  1
  H  H718  1  0.494900  0.207500  0.376900  1
  H  H719  1  0.994900  0.207500  0.123100  1
  H  H720  1  0.505100  0.792500  0.623100  1
  H  H721  1  0.942300  0.808400  0.858500  1
  H  H722  1  0.557700  0.191600  0.358500  1
  H  H723  1  0.057700  0.191600  0.141500  1
  H  H724  1  0.442300  0.808400  0.641500  1
  H  H725  1  0.948900  0.812700  0.898500  1
  H  H726  1  0.551100  0.187300  0.398500  1
  H  H727  1  0.051100  0.187300  0.101500  1
  H  H728  1  0.448900  0.812700  0.601500  1
  C  C729  1  0.655400  0.088100  0.362400  1
  C  C730  1  0.844600  0.911900  0.862400  1
  C  C731  1  0.344600  0.911900  0.637600  1
  C  C732  1  0.155400  0.088100  0.137600  1
  C  C733  1  0.694800  0.127900  0.368900  1
  C  C734  1  0.805200  0.872100  0.868900  1
  C  C735  1  0.305200  0.872100  0.631100  1
  C  C736  1  0.194800  0.127900  0.131100  1
  C  C737  1  0.736000  0.125300  0.400900  1
  C  C738  1  0.764000  0.874700  0.900900  1
  C  C739  1  0.264000  0.874700  0.599100  1
  C  C740  1  0.236000  0.125300  0.099100  1
  C  C741  1  0.730400  0.087300  0.419000  1
  C  C742  1  0.769600  0.912700  0.919000  1
  C  C743  1  0.269600  0.912700  0.581000  1
  C  C744  1  0.230400  0.087300  0.081000  1
  C  C745  1  0.691500  0.047300  0.410000  1
  C  C746  1  0.808500  0.952700  0.910000  1
  C  C747  1  0.308500  0.952700  0.590000  1
  C  C748  1  0.191500  0.047300  0.090000  1
  C  C749  1  0.653000  0.048000  0.381100  1
  C  C750  1  0.847000  0.952000  0.881100  1
  C  C751  1  0.347000  0.952000  0.618900  1
  C  C752  1  0.153000  0.048000  0.118900  1
  C  C753  1  0.817800  0.069100  0.449400  1
  C  C754  1  0.682200  0.930900  0.949400  1
  C  C755  1  0.182200  0.930900  0.550600  1
  C  C756  1  0.317800  0.069100  0.050600  1
  C  C757  1  0.849500  0.070100  0.481200  1
  C  C758  1  0.650500  0.929900  0.981200  1
  C  C759  1  0.150500  0.929900  0.518800  1
  C  C760  1  0.349500  0.070100  0.018800  1
  C  C761  1  0.905500  0.048700  0.486600  1
  C  C762  1  0.594500  0.951300  0.986600  1
  C  C763  1  0.094500  0.951300  0.513400  1
  C  C764  1  0.405500  0.048700  0.013400  1
  C  C765  1  0.932000  0.049200  0.518300  1
  C  C766  1  0.568000  0.950800  0.018300  1
  C  C767  1  0.068000  0.950800  0.481700  1
  C  C768  1  0.432000  0.049200  0.981700  1
  C  C769  1  0.901100  0.070100  0.543600  1
  C  C770  1  0.598900  0.929900  0.043600  1
  C  C771  1  0.098900  0.929900  0.456400  1
  C  C772  1  0.401100  0.070100  0.956400  1
  C  C773  1  0.845300  0.092500  0.535900  1
  C  C774  1  0.654700  0.907500  0.035900  1
  C  C775  1  0.154700  0.907500  0.464100  1
  C  C776  1  0.345300  0.092500  0.964100  1
  C  C777  1  0.923700  0.069300  0.578900  1
  C  C778  1  0.576300  0.930700  0.078900  1
  C  C779  1  0.076300  0.930700  0.421100  1
  C  C780  1  0.423700  0.069300  0.921100  1
  C  C781  1  0.977100  0.051200  0.586800  1
  C  C782  1  0.522900  0.948800  0.086800  1
  C  C783  1  0.022900  0.948800  0.413200  1
  C  C784  1  0.477100  0.051200  0.913200  1
  C  C785  1  0.995300  0.046700  0.619100  1
  C  C786  1  0.504700  0.953300  0.119100  1
  C  C787  1  0.004700  0.953300  0.380900  1
  C  C788  1  0.495300  0.046700  0.880900  1
  C  C789  1  0.958300  0.063300  0.645800  1
  C  C790  1  0.541700  0.936700  0.145800  1
  C  C791  1  0.041700  0.936700  0.354200  1
  C  C792  1  0.458300  0.063300  0.854200  1
  C  C793  1  0.905300  0.080800  0.637300  1
  C  C794  1  0.594700  0.919200  0.137300  1
  C  C795  1  0.094700  0.919200  0.362700  1
  C  C796  1  0.405300  0.080800  0.862700  1
  C  C797  1  0.887600  0.083200  0.604000  1
  C  C798  1  0.612400  0.916800  0.104000  1
  C  C799  1  0.112400  0.916800  0.396000  1
  C  C800  1  0.387600  0.083200  0.896000  1
  C  C801  1  0.978300  0.056400  0.680200  1
  C  C802  1  0.521700  0.943600  0.180200  1
  C  C803  1  0.021700  0.943600  0.319800  1
  C  C804  1  0.478300  0.056400  0.819800  1
  C  C805  1  0.041600  0.055400  0.689200  1
  C  C806  1  0.458400  0.944600  0.189200  1
  C  C807  1  0.958400  0.944600  0.310800  1
  C  C808  1  0.541600  0.055400  0.810800  1
  C  C809  1  0.018800  0.045900  0.744700  1
  C  C810  1  0.481200  0.954100  0.244700  1
  C  C811  1  0.981200  0.954100  0.255300  1
  C  C812  1  0.518800  0.045900  0.755300  1
  C  C813  1  0.955500  0.048500  0.739000  1
  C  C814  1  0.544500  0.951500  0.239000  1
  C  C815  1  0.044500  0.951500  0.261000  1
  C  C816  1  0.455500  0.048500  0.761000  1
  C  C817  1  0.935300  0.052800  0.705900  1
  C  C818  1  0.564700  0.947200  0.205900  1
  C  C819  1  0.064700  0.947200  0.294100  1
  C  C820  1  0.435300  0.052800  0.794100  1
  C  C821  1  0.046200  0.040800  0.776800  1
  C  C822  1  0.453800  0.959200  0.276800  1
  C  C823  1  0.953800  0.959200  0.223200  1
  C  C824  1  0.546200  0.040800  0.723200  1
  C  C825  1  0.137000  0.038100  0.811200  1
  C  C826  1  0.363000  0.961900  0.311200  1
  C  C827  1  0.863000  0.961900  0.188800  1
  C  C828  1  0.637000  0.038100  0.688800  1
  C  C829  1  0.177600  0.080400  0.821100  1
  C  C830  1  0.322400  0.919600  0.321100  1
  C  C831  1  0.822400  0.919600  0.178900  1
  C  C832  1  0.677600  0.080400  0.678900  1
  C  C833  1  0.207800  0.078000  0.851900  1
  C  C834  1  0.292200  0.922000  0.351900  1
  C  C835  1  0.792200  0.922000  0.148100  1
  C  C836  1  0.707800  0.078000  0.648100  1
  C  C837  1  0.197100  0.037800  0.871700  1
  C  C838  1  0.302900  0.962200  0.371700  1
  C  C839  1  0.802900  0.962200  0.128300  1
  C  C840  1  0.697100  0.037800  0.628300  1
  C  C841  1  0.156300  0.998100  0.860500  1
  C  C842  1  0.343700  0.001900  0.360500  1
  C  C843  1  0.843700  0.001900  0.139500  1
  C  C844  1  0.656300  0.998100  0.639500  1
  C  C845  1  0.604200  0.946900  0.465000  1
  C  C846  1  0.895800  0.053100  0.965000  1
  C  C847  1  0.395800  0.053100  0.535000  1
  C  C848  1  0.104200  0.946900  0.035000  1
  C  C849  1  0.566100  0.980800  0.474600  1
  C  C850  1  0.933900  0.019200  0.974600  1
  C  C851  1  0.433900  0.019200  0.525400  1
  C  C852  1  0.066100  0.980800  0.025400  1
  C  C853  1  0.592200  0.024900  0.489100  1
  C  C854  1  0.907800  0.975100  0.989100  1
  C  C855  1  0.407800  0.975100  0.510900  1
  C  C856  1  0.092200  0.024900  0.010900  1
  C  C857  1  0.658300  0.032200  0.494400  1
  C  C858  1  0.841700  0.967800  0.994400  1
  C  C859  1  0.341700  0.967800  0.505600  1
  C  C860  1  0.158300  0.032200  0.005600  1
  C  C861  1  0.695300  0.997300  0.486400  1
  C  C862  1  0.804700  0.002700  0.986400  1
  C  C863  1  0.304700  0.002700  0.513600  1
  C  C864  1  0.195300  0.997300  0.013600  1
  C  C865  1  0.669300  0.952700  0.471600  1
  C  C866  1  0.830700  0.047300  0.971600  1
  C  C867  1  0.330700  0.047300  0.528400  1
  C  C868  1  0.169300  0.952700  0.028400  1
  C  C869  1  0.664300  0.089900  0.537200  1
  C  C870  1  0.835700  0.910100  0.037200  1
  C  C871  1  0.335700  0.910100  0.462800  1
  C  C872  1  0.164300  0.089900  0.962800  1
  C  C873  1  0.689600  0.135600  0.551500  1
  C  C874  1  0.810400  0.864400  0.051500  1
  C  C875  1  0.310400  0.864400  0.448500  1
  C  C876  1  0.189600  0.135600  0.948500  1
  C  C877  1  0.671100  0.154100  0.581200  1
  C  C878  1  0.828900  0.845900  0.081200  1
  C  C879  1  0.328900  0.845900  0.418800  1
  C  C880  1  0.171100  0.154100  0.918800  1
  C  C881  1  0.702800  0.197600  0.592600  1
  C  C882  1  0.797200  0.802400  0.092600  1
  C  C883  1  0.297200  0.802400  0.407400  1
  C  C884  1  0.202800  0.197600  0.907400  1
  C  C885  1  0.752000  0.222400  0.574600  1
  C  C886  1  0.748000  0.777600  0.074600  1
  C  C887  1  0.248000  0.777600  0.425400  1
  C  C888  1  0.252000  0.222400  0.925400  1
  C  C889  1  0.769200  0.201200  0.544300  1
  C  C890  1  0.730800  0.798800  0.044300  1
  C  C891  1  0.230800  0.798800  0.455700  1
  C  C892  1  0.269200  0.201200  0.955700  1
  C  C893  1  0.786300  0.269700  0.585200  1
  C  C894  1  0.713700  0.730300  0.085200  1
  C  C895  1  0.213700  0.730300  0.414800  1
  C  C896  1  0.286300  0.269700  0.914800  1
  C  C897  1  0.817800  0.302100  0.562700  1
  C  C898  1  0.682200  0.697900  0.062700  1
  C  C899  1  0.182200  0.697900  0.437300  1
  C  C900  1  0.317800  0.302100  0.937300  1
  C  C901  1  0.844700  0.348700  0.571900  1
  C  C902  1  0.655300  0.651300  0.071900  1
  C  C903  1  0.155300  0.651300  0.428100  1
  C  C904  1  0.344700  0.348700  0.928100  1
  C  C905  1  0.842700  0.364100  0.605000  1
  C  C906  1  0.657300  0.635900  0.105000  1
  C  C907  1  0.157300  0.635900  0.395000  1
  C  C908  1  0.342700  0.364100  0.895000  1
  C  C909  1  0.813900  0.330000  0.627800  1
  C  C910  1  0.686100  0.670000  0.127800  1
  C  C911  1  0.186100  0.670000  0.372200  1
  C  C912  1  0.313900  0.330000  0.872200  1
  C  C913  1  0.786400  0.284500  0.618300  1
  C  C914  1  0.713600  0.715500  0.118300  1
  C  C915  1  0.213600  0.715500  0.381700  1
  C  C916  1  0.286400  0.284500  0.881700  1
  C  C917  1  0.867400  0.414500  0.615300  1
  C  C918  1  0.632600  0.585500  0.115300  1
  C  C919  1  0.132600  0.585500  0.384700  1
  C  C920  1  0.367400  0.414500  0.884700  1
  C  C921  1  0.868000  0.452800  0.594000  1
  C  C922  1  0.632000  0.547200  0.094000  1
  C  C923  1  0.132000  0.547200  0.406000  1
  C  C924  1  0.368000  0.452800  0.906000  1
  C  C925  1  0.891100  0.500100  0.604600  1
  C  C926  1  0.608900  0.499900  0.104600  1
  C  C927  1  0.108900  0.499900  0.395400  1
  C  C928  1  0.391100  0.500100  0.895400  1
  C  C929  1  0.907900  0.504500  0.639000  1
  C  C930  1  0.592100  0.495500  0.139000  1
  C  C931  1  0.092100  0.495500  0.361000  1
  C  C932  1  0.407900  0.504500  0.861000  1
  C  C933  1  0.891000  0.422100  0.646600  1
  C  C934  1  0.609000  0.577900  0.146600  1
  C  C935  1  0.109000  0.577900  0.353400  1
  C  C936  1  0.391000  0.422100  0.853400  1
  C  C937  1  0.931100  0.551400  0.654600  1
  C  C938  1  0.568900  0.448600  0.154600  1
  C  C939  1  0.068900  0.448600  0.345400  1
  C  C940  1  0.431100  0.551400  0.845400  1
  C  C941  1  0.976900  0.596500  0.697900  1
  C  C942  1  0.523100  0.403500  0.197900  1
  C  C943  1  0.023100  0.403500  0.302100  1
  C  C944  1  0.476900  0.596500  0.802100  1
  C  C945  1  0.042800  0.604100  0.704100  1
  C  C946  1  0.457200  0.395900  0.204100  1
  C  C947  1  0.957200  0.395900  0.295900  1
  C  C948  1  0.542800  0.604100  0.795900  1
  C  C949  1  0.071000  0.650000  0.715100  1
  C  C950  1  0.429000  0.350000  0.215100  1
  C  C951  1  0.929000  0.350000  0.284900  1
  C  C952  1  0.571000  0.650000  0.784900  1
  C  C953  1  0.033200  0.688400  0.719800  1
  C  C954  1  0.466800  0.311600  0.219800  1
  C  C955  1  0.966800  0.311600  0.280200  1
  C  C956  1  0.533200  0.688400  0.780200  1
  C  C957  1  0.967200  0.680900  0.713600  1
  C  C958  1  0.532800  0.319100  0.213600  1
  C  C959  1  0.032800  0.319100  0.286400  1
  C  C960  1  0.467200  0.680900  0.786400  1
  C  C961  1  0.939100  0.635000  0.702700  1
  C  C962  1  0.560900  0.365000  0.202700  1
  C  C963  1  0.060900  0.365000  0.297300  1
  C  C964  1  0.439100  0.635000  0.797300  1
  C  C965  1  0.488000  0.138700  0.473100  1
  C  C966  1  0.012000  0.861300  0.973100  1
  C  C967  1  0.512000  0.861300  0.526900  1
  C  C968  1  0.988000  0.138700  0.026900  1
  C  C969  1  0.520000  0.116800  0.450700  1
  C  C970  1  0.980000  0.883200  0.950700  1
  C  C971  1  0.480000  0.883200  0.549300  1
  C  C972  1  0.020000  0.116800  0.049300  1
  C  C973  1  0.585700  0.125700  0.449400  1
  C  C974  1  0.914300  0.874300  0.949400  1
  C  C975  1  0.414300  0.874300  0.550600  1
  C  C976  1  0.085700  0.125700  0.050600  1
  C  C977  1  0.617600  0.156700  0.472100  1
  C  C978  1  0.882400  0.843300  0.972100  1
  C  C979  1  0.382400  0.843300  0.527900  1
  C  C980  1  0.117600  0.156700  0.027900  1
  C  C981  1  0.585000  0.176300  0.494800  1
  C  C982  1  0.915000  0.823700  0.994800  1
  C  C983  1  0.415000  0.823700  0.505200  1
  C  C984  1  0.085000  0.176300  0.005200  1
  C  C985  1  0.517400  0.167400  0.495600  1
  C  C986  1  0.982600  0.832600  0.995600  1
  C  C987  1  0.482600  0.832600  0.504400  1
  C  C988  1  0.017400  0.167400  0.004400  1
  C  C989  1  0.711100  0.206900  0.459100  1
  C  C990  1  0.788900  0.793100  0.959100  1
  C  C991  1  0.288900  0.793100  0.540900  1
  C  C992  1  0.211100  0.206900  0.040900  1
  C  C993  1  0.778000  0.216600  0.459300  1
  C  C994  1  0.722000  0.783400  0.959300  1
  C  C995  1  0.222000  0.783400  0.540700  1
  C  C996  1  0.278000  0.216600  0.040700  1
  C  C997  1  0.811400  0.259400  0.448800  1
  C  C998  1  0.688600  0.740600  0.948800  1
  C  C999  1  0.188600  0.740600  0.551200  1
  C  C1000  1  0.311400  0.259400  0.051200  1
  C  C1001  1  0.878200  0.264700  0.450500  1
  C  C1002  1  0.621800  0.735300  0.950500  1
  C  C1003  1  0.121800  0.735300  0.549500  1
  C  C1004  1  0.378200  0.264700  0.049500  1
  C  C1005  1  0.910400  0.228500  0.463100  1
  C  C1006  1  0.589600  0.771500  0.963100  1
  C  C1007  1  0.089600  0.771500  0.536900  1
  C  C1008  1  0.410400  0.228500  0.036900  1
  C  C1009  1  0.872600  0.188500  0.474600  1
  C  C1010  1  0.627400  0.811500  0.974600  1
  C  C1011  1  0.127400  0.811500  0.525400  1
  C  C1012  1  0.372600  0.188500  0.025400  1
  C  C1013  1  0.979700  0.231900  0.465900  1
  C  C1014  1  0.520300  0.768100  0.965900  1
  C  C1015  1  0.020300  0.768100  0.534100  1
  C  C1016  1  0.479700  0.231900  0.034100  1
  C  C1017  1  0.020200  0.273700  0.459200  1
  C  C1018  1  0.479800  0.726300  0.959200  1
  C  C1019  1  0.979800  0.726300  0.540800  1
  C  C1020  1  0.520200  0.273700  0.040800  1
  C  C1021  1  0.086500  0.273700  0.460200  1
  C  C1022  1  0.413500  0.726300  0.960200  1
  C  C1023  1  0.913500  0.726300  0.539800  1
  C  C1024  1  0.586500  0.273700  0.039800  1
  C  C1025  1  0.115000  0.233400  0.467100  1
  C  C1026  1  0.385000  0.766600  0.967100  1
  C  C1027  1  0.885000  0.766600  0.532900  1
  C  C1028  1  0.615000  0.233400  0.032900  1
  C  C1029  1  0.075700  0.191500  0.471300  1
  C  C1030  1  0.424300  0.808500  0.971300  1
  C  C1031  1  0.924300  0.808500  0.528700  1
  C  C1032  1  0.575700  0.191500  0.028700  1
  C  C1033  1  0.008500  0.189300  0.471100  1
  C  C1034  1  0.491500  0.810700  0.971100  1
  C  C1035  1  0.991500  0.810700  0.528900  1
  C  C1036  1  0.508500  0.189300  0.028900  1
  C  C1037  1  0.184500  0.232200  0.467100  1
  C  C1038  1  0.315500  0.767800  0.967100  1
  C  C1039  1  0.815500  0.767800  0.532900  1
  C  C1040  1  0.684500  0.232200  0.032900  1
  C  C1041  1  0.210700  0.190800  0.461200  1
  C  C1042  1  0.289300  0.809200  0.961200  1
  C  C1043  1  0.789300  0.809200  0.538800  1
  C  C1044  1  0.710700  0.190800  0.038800  1
  C  C1045  1  0.277000  0.192300  0.459900  1
  C  C1046  1  0.223000  0.807700  0.959900  1
  C  C1047  1  0.723000  0.807700  0.540100  1
  C  C1048  1  0.777000  0.192300  0.040100  1
  C  C1049  1  0.314100  0.237500  0.465300  1
  C  C1050  1  0.185900  0.762500  0.965300  1
  C  C1051  1  0.685900  0.762500  0.534700  1
  C  C1052  1  0.814100  0.237500  0.034700  1
  C  C1053  1  0.225800  0.276400  0.473400  1
  C  C1054  1  0.274200  0.723600  0.973400  1
  C  C1055  1  0.774200  0.723600  0.526600  1
  C  C1056  1  0.725800  0.276400  0.026600  1
  C  C1057  1  0.383800  0.243400  0.464000  1
  C  C1058  1  0.116200  0.756600  0.964000  1
  C  C1059  1  0.616200  0.756600  0.536000  1
  C  C1060  1  0.883800  0.243400  0.036000  1
  C  C1061  1  0.479200  0.294800  0.469600  1
  C  C1062  1  0.020800  0.705200  0.969600  1
  C  C1063  1  0.520800  0.705200  0.530400  1
  C  C1064  1  0.979200  0.294800  0.030400  1
  C  C1065  1  0.510900  0.297700  0.440900  1
  C  C1066  1  0.989100  0.702300  0.940900  1
  C  C1067  1  0.489100  0.702300  0.559100  1
  C  C1068  1  0.010900  0.297700  0.059100  1
  C  C1069  1  0.579800  0.306800  0.442300  1
  C  C1070  1  0.920200  0.693200  0.942300  1
  C  C1071  1  0.420200  0.693200  0.557700  1
  C  C1072  1  0.079800  0.306800  0.057700  1
  C  C1073  1  0.610700  0.310900  0.470800  1
  C  C1074  1  0.889300  0.689100  0.970800  1
  C  C1075  1  0.389300  0.689100  0.529200  1
  C  C1076  1  0.110700  0.310900  0.029200  1
  C  C1077  1  0.579300  0.306400  0.500400  1
  C  C1078  1  0.920700  0.693600  0.000400  1
  C  C1079  1  0.420700  0.693600  0.499600  1
  C  C1080  1  0.079300  0.306400  0.999600  1
  C  C1081  1  0.512600  0.297800  0.500300  1
  C  C1082  1  0.987400  0.702200  0.000300  1
  C  C1083  1  0.487400  0.702200  0.499700  1
  C  C1084  1  0.012600  0.297800  0.999700  1
  C  C1085  1  0.512400  0.498300  0.435800  1
  C  C1086  1  0.987600  0.501700  0.935800  1
  C  C1087  1  0.487600  0.501700  0.564200  1
  C  C1088  1  0.012400  0.498300  0.064200  1
  C  C1089  1  0.542600  0.456900  0.444500  1
  C  C1090  1  0.957400  0.543100  0.944500  1
  C  C1091  1  0.457400  0.543100  0.555500  1
  C  C1092  1  0.042600  0.456900  0.055500  1
  C  C1093  1  0.510900  0.420500  0.464900  1
  C  C1094  1  0.989100  0.579500  0.964900  1
  C  C1095  1  0.489100  0.579500  0.535100  1
  C  C1096  1  0.010900  0.420500  0.035100  1
  C  C1097  1  0.449200  0.425300  0.476600  1
  C  C1098  1  0.050800  0.574700  0.976600  1
  C  C1099  1  0.550800  0.574700  0.523400  1
  C  C1100  1  0.949200  0.425300  0.023400  1
  C  C1101  1  0.419000  0.466600  0.467900  1
  C  C1102  1  0.081000  0.533400  0.967900  1
  C  C1103  1  0.581000  0.533400  0.532100  1
  C  C1104  1  0.919000  0.466600  0.032100  1
  C  C1105  1  0.450700  0.503100  0.447500  1
  C  C1106  1  0.049300  0.496900  0.947500  1
  C  C1107  1  0.549300  0.496900  0.552500  1
  C  C1108  1  0.950700  0.503100  0.052500  1
  C  C1109  1  0.432400  0.386500  0.526200  1
  C  C1110  1  0.067600  0.613500  0.026200  1
  C  C1111  1  0.567600  0.613500  0.473800  1
  C  C1112  1  0.932400  0.386500  0.973800  1
  C  C1113  1  0.400500  0.347500  0.546400  1
  C  C1114  1  0.099500  0.652500  0.046400  1
  C  C1115  1  0.599500  0.652500  0.453600  1
  C  C1116  1  0.900500  0.347500  0.953600  1
  C  C1117  1  0.410400  0.339300  0.580200  1
  C  C1118  1  0.089600  0.660700  0.080200  1
  C  C1119  1  0.589600  0.660700  0.419800  1
  C  C1120  1  0.910400  0.339300  0.919800  1
  C  C1121  1  0.378900  0.300800  0.595900  1
  C  C1122  1  0.121100  0.699200  0.095900  1
  C  C1123  1  0.621100  0.699200  0.404100  1
  C  C1124  1  0.878900  0.300800  0.904100  1
  C  C1125  1  0.335600  0.268100  0.578300  1
  C  C1126  1  0.164400  0.731900  0.078300  1
  C  C1127  1  0.664400  0.731900  0.421700  1
  C  C1128  1  0.835600  0.268100  0.921700  1
  C  C1129  1  0.328000  0.279200  0.545100  1
  C  C1130  1  0.172000  0.720800  0.045100  1
  C  C1131  1  0.672000  0.720800  0.454900  1
  C  C1132  1  0.828000  0.279200  0.954900  1
  C  C1133  1  0.302500  0.225000  0.593300  1
  C  C1134  1  0.197500  0.775000  0.093300  1
  C  C1135  1  0.697500  0.775000  0.406700  1
  C  C1136  1  0.802500  0.225000  0.906700  1
  C  C1137  1  0.310700  0.214700  0.626200  1
  C  C1138  1  0.189300  0.785300  0.126200  1
  C  C1139  1  0.689300  0.785300  0.373800  1
  C  C1140  1  0.810700  0.214700  0.873800  1
  C  C1141  1  0.282600  0.174100  0.640500  1
  C  C1142  1  0.217400  0.825900  0.140500  1
  C  C1143  1  0.717400  0.825900  0.359500  1
  C  C1144  1  0.782600  0.174100  0.859500  1
  C  C1145  1  0.249500  0.135400  0.622900  1
  C  C1146  1  0.250500  0.864600  0.122900  1
  C  C1147  1  0.750500  0.864600  0.377100  1
  C  C1148  1  0.749500  0.135400  0.877100  1
  C  C1149  1  0.239900  0.145300  0.589700  1
  C  C1150  1  0.260100  0.854700  0.089700  1
  C  C1151  1  0.760100  0.854700  0.410300  1
  C  C1152  1  0.739900  0.145300  0.910300  1
  C  C1153  1  0.266200  0.189600  0.575500  1
  C  C1154  1  0.233800  0.810400  0.075500  1
  C  C1155  1  0.733800  0.810400  0.424500  1
  C  C1156  1  0.766200  0.189600  0.924500  1
  C  C1157  1  0.224300  0.089400  0.638800  1
  C  C1158  1  0.275700  0.910600  0.138800  1
  C  C1159  1  0.775700  0.910600  0.361200  1
  C  C1160  1  0.724300  0.089400  0.861200  1
  C  C1161  1  0.216900  0.044900  0.622900  1
  C  C1162  1  0.283100  0.955100  0.122900  1
  C  C1163  1  0.783100  0.955100  0.377100  1
  C  C1164  1  0.716900  0.044900  0.877100  1
  C  C1165  1  0.196500  0.003000  0.640000  1
  C  C1166  1  0.303500  0.997000  0.140000  1
  C  C1167  1  0.803500  0.997000  0.360000  1
  C  C1168  1  0.696500  0.003000  0.860000  1
  C  C1169  1  0.177500  0.005800  0.672900  1
  C  C1170  1  0.322500  0.994200  0.172900  1
  C  C1171  1  0.822500  0.994200  0.327100  1
  C  C1172  1  0.677500  0.005800  0.827100  1
  C  C1173  1  0.204700  0.090200  0.671600  1
  C  C1174  1  0.295300  0.909800  0.171600  1
  C  C1175  1  0.795300  0.909800  0.328400  1
  C  C1176  1  0.704700  0.090200  0.828400  1
  C  C1177  1  0.150300  0.967200  0.692800  1
  C  C1178  1  0.349700  0.032800  0.192800  1
  C  C1179  1  0.849700  0.032800  0.307200  1
  C  C1180  1  0.650300  0.967200  0.807200  1
  C  C1181  1  0.100300  0.938700  0.741800  1
  C  C1182  1  0.399700  0.061300  0.241800  1
  C  C1183  1  0.899700  0.061300  0.258200  1
  C  C1184  1  0.600300  0.938700  0.758200  1
  C  C1185  1  0.126600  0.916100  0.767800  1
  C  C1186  1  0.373400  0.083900  0.267800  1
  C  C1187  1  0.873400  0.083900  0.232200  1
  C  C1188  1  0.626600  0.916100  0.732200  1
  C  C1189  1  0.088200  0.878400  0.785800  1
  C  C1190  1  0.411800  0.121600  0.285800  1
  C  C1191  1  0.911800  0.121600  0.214200  1
  C  C1192  1  0.588200  0.878400  0.714200  1
  C  C1193  1  0.025900  0.868500  0.776100  1
  C  C1194  1  0.474100  0.131500  0.276100  1
  C  C1195  1  0.974100  0.131500  0.223900  1
  C  C1196  1  0.525900  0.868500  0.723900  1
  C  C1197  1  0.998800  0.888400  0.748600  1
  C  C1198  1  0.501200  0.111600  0.248600  1
  C  C1199  1  0.001200  0.111600  0.251400  1
  C  C1200  1  0.498800  0.888400  0.751400  1
  C  C1201  1  0.035300  0.925200  0.731600  1
  C  C1202  1  0.464700  0.074800  0.231600  1
  C  C1203  1  0.964700  0.074800  0.268400  1
  C  C1204  1  0.535300  0.925200  0.768400  1
  C  C1205  1  0.889800  0.548500  0.830100  1
  C  C1206  1  0.610200  0.451500  0.330100  1
  C  C1207  1  0.110200  0.451500  0.169900  1
  C  C1208  1  0.389800  0.548500  0.669900  1
  C  C1209  1  0.878000  0.500300  0.821100  1
  C  C1210  1  0.622000  0.499700  0.321100  1
  C  C1211  1  0.122000  0.499700  0.178900  1
  C  C1212  1  0.378000  0.500300  0.678900  1
  C  C1213  1  0.910200  0.486900  0.792100  1
  C  C1214  1  0.589800  0.513100  0.292100  1
  C  C1215  1  0.089800  0.513100  0.207900  1
  C  C1216  1  0.410200  0.486900  0.707900  1
  C  C1217  1  0.951800  0.520600  0.775200  1
  C  C1218  1  0.548200  0.479400  0.275200  1
  C  C1219  1  0.048200  0.479400  0.224800  1
  C  C1220  1  0.451800  0.520600  0.724800  1
  C  C1221  1  0.959000  0.566400  0.784500  1
  C  C1222  1  0.541000  0.433600  0.284500  1
  C  C1223  1  0.041000  0.433600  0.215500  1
  C  C1224  1  0.459000  0.566400  0.715500  1
  C  C1225  1  0.927700  0.581500  0.812400  1
  C  C1226  1  0.572300  0.418500  0.312400  1
  C  C1227  1  0.072300  0.418500  0.187600  1
  C  C1228  1  0.427700  0.581500  0.687600  1
  C  C1229  1  0.044200  0.503800  0.747200  1
  C  C1230  1  0.455800  0.496200  0.247200  1
  C  C1231  1  0.955800  0.496200  0.252800  1
  C  C1232  1  0.544200  0.503800  0.752800  1
  C  C1233  1  0.075400  0.489300  0.718800  1
  C  C1234  1  0.424600  0.510700  0.218800  1
  C  C1235  1  0.924600  0.510700  0.281200  1
  C  C1236  1  0.575400  0.489300  0.781200  1
  C  C1237  1  0.138200  0.479800  0.715800  1
  C  C1238  1  0.361800  0.520200  0.215800  1
  C  C1239  1  0.861800  0.520200  0.284200  1
  C  C1240  1  0.638200  0.479800  0.784200  1
  C  C1241  1  0.161500  0.469200  0.684600  1
  C  C1242  1  0.338500  0.530800  0.184600  1
  C  C1243  1  0.838500  0.530800  0.315400  1
  C  C1244  1  0.661500  0.469200  0.815400  1
  C  C1245  1  0.123100  0.463700  0.657500  1
  C  C1246  1  0.376900  0.536300  0.157500  1
  C  C1247  1  0.876900  0.536300  0.342500  1
  C  C1248  1  0.623100  0.463700  0.842500  1
  C  C1249  1  0.060700  0.468800  0.662600  1
  C  C1250  1  0.439300  0.531200  0.162600  1
  C  C1251  1  0.939300  0.531200  0.337400  1
  C  C1252  1  0.560700  0.468800  0.837400  1
  C  C1253  1  0.145500  0.450100  0.625000  1
  C  C1254  1  0.354500  0.549900  0.125000  1
  C  C1255  1  0.854500  0.549900  0.375000  1
  C  C1256  1  0.645500  0.450100  0.875000  1
  C  C1257  1  0.196600  0.427300  0.620000  1
  C  C1258  1  0.303400  0.572700  0.120000  1
  C  C1259  1  0.803400  0.572700  0.380000  1
  C  C1260  1  0.696600  0.427300  0.880000  1
  C  C1261  1  0.221500  0.416500  0.589900  1
  C  C1262  1  0.278500  0.583500  0.089900  1
  C  C1263  1  0.778500  0.583500  0.410100  1
  C  C1264  1  0.721500  0.416500  0.910100  1
  C  C1265  1  0.190900  0.429500  0.561400  1
  C  C1266  1  0.309100  0.570500  0.061400  1
  C  C1267  1  0.809100  0.570500  0.438600  1
  C  C1268  1  0.690900  0.429500  0.938600  1
  C  C1269  1  0.139500  0.453600  0.563700  1
  C  C1270  1  0.360500  0.546400  0.063700  1
  C  C1271  1  0.860500  0.546400  0.436300  1
  C  C1272  1  0.639500  0.453600  0.936300  1
  C  C1273  1  0.117000  0.464600  0.597000  1
  C  C1274  1  0.383000  0.535400  0.097000  1
  C  C1275  1  0.883000  0.535400  0.403000  1
  C  C1276  1  0.617000  0.464600  0.903000  1
  C  C1277  1  0.216800  0.420200  0.527200  1
  C  C1278  1  0.283200  0.579800  0.027200  1
  C  C1279  1  0.783200  0.579800  0.472800  1
  C  C1280  1  0.716800  0.420200  0.972800  1
  C  C1281  1  0.198900  0.447900  0.500300  1
  C  C1282  1  0.301100  0.552100  0.000300  1
  C  C1283  1  0.801100  0.552100  0.499700  1
  C  C1284  1  0.698900  0.447900  0.999700  1
  C  C1285  1  0.227800  0.438700  0.468300  1
  C  C1286  1  0.272200  0.561300  0.968300  1
  C  C1287  1  0.772200  0.561300  0.531700  1
  C  C1288  1  0.727800  0.438700  0.031700  1
  C  C1289  1  0.270200  0.405600  0.466900  1
  C  C1290  1  0.229800  0.594400  0.966900  1
  C  C1291  1  0.729800  0.594400  0.533100  1
  C  C1292  1  0.770200  0.405600  0.033100  1
  C  C1293  1  0.258600  0.387800  0.522200  1
  C  C1294  1  0.241400  0.612200  0.022200  1
  C  C1295  1  0.741400  0.612200  0.477800  1
  C  C1296  1  0.758600  0.387800  0.977800  1
  C  C1297  1  0.299300  0.393800  0.435600  1
  C  C1298  1  0.200700  0.606200  0.935600  1
  C  C1299  1  0.700700  0.606200  0.564400  1
  C  C1300  1  0.799300  0.393800  0.064400  1
  C  C1301  1  0.370400  0.352200  0.407660  1
  C  C1302  1  0.129600  0.647800  0.907660  1
  C  C1303  1  0.629600  0.647800  0.592340  1
  C  C1304  1  0.870400  0.352200  0.092340  1
  C  C1305  1  0.407100  0.389700  0.390300  1
  C  C1306  1  0.092900  0.610300  0.890300  1
  C  C1307  1  0.592900  0.610300  0.609700  1
  C  C1308  1  0.907100  0.389700  0.109700  1
  C  C1309  1  0.438000  0.379000  0.360700  1
  C  C1310  1  0.062000  0.621000  0.860700  1
  C  C1311  1  0.562000  0.621000  0.639300  1
  C  C1312  1  0.938000  0.379000  0.139300  1
  C  C1313  1  0.432200  0.330900  0.348420  1
  C  C1314  1  0.067800  0.669100  0.848420  1
  C  C1315  1  0.567800  0.669100  0.651580  1
  C  C1316  1  0.932200  0.330900  0.151580  1
  C  C1317  1  0.395500  0.293400  0.365800  1
  C  C1318  1  0.104500  0.706600  0.865800  1
  C  C1319  1  0.604500  0.706600  0.634200  1
  C  C1320  1  0.895500  0.293400  0.134200  1
  C  C1321  1  0.364600  0.304000  0.395420  1
  C  C1322  1  0.135400  0.696000  0.895420  1
  C  C1323  1  0.635400  0.696000  0.604580  1
  C  C1324  1  0.864600  0.304000  0.104580  1
  C  C1325  1  0.324200  0.923700  0.774800  1
  C  C1326  1  0.175800  0.076300  0.274800  1
  C  C1327  1  0.675800  0.076300  0.225200  1
  C  C1328  1  0.824200  0.923700  0.725200  1
  C  C1329  1  0.318500  0.936700  0.743700  1
  C  C1330  1  0.181500  0.063300  0.243700  1
  C  C1331  1  0.681500  0.063300  0.256300  1
  C  C1332  1  0.818500  0.936700  0.756300  1
  C  C1333  1  0.293400  0.977200  0.734800  1
  C  C1334  1  0.206600  0.022800  0.234800  1
  C  C1335  1  0.706600  0.022800  0.265200  1
  C  C1336  1  0.793400  0.977200  0.765200  1
  C  C1337  1  0.271000  0.007000  0.758800  1
  C  C1338  1  0.229000  0.993000  0.258800  1
  C  C1339  1  0.729000  0.993000  0.241200  1
  C  C1340  1  0.771000  0.007000  0.741200  1
  C  C1341  1  0.277000  0.993000  0.791400  1
  C  C1342  1  0.223000  0.007000  0.291400  1
  C  C1343  1  0.723000  0.007000  0.208600  1
  C  C1344  1  0.777000  0.993000  0.708600  1
  C  C1345  1  0.306600  0.953200  0.799800  1
  C  C1346  1  0.193400  0.046800  0.299800  1
  C  C1347  1  0.693400  0.046800  0.200200  1
  C  C1348  1  0.806600  0.953200  0.700200  1
  C  C1349  1  0.267800  0.092500  0.751500  1
  C  C1350  1  0.232200  0.907500  0.251500  1
  C  C1351  1  0.732200  0.907500  0.248500  1
  C  C1352  1  0.767800  0.092500  0.748500  1
  C  C1353  1  0.233700  0.132000  0.745010  1
  C  C1354  1  0.266300  0.868000  0.245010  1
  C  C1355  1  0.766300  0.868000  0.254990  1
  C  C1356  1  0.733700  0.132000  0.754990  1
  C  C1357  1  0.259500  0.180000  0.742700  1
  C  C1358  1  0.240500  0.820000  0.242700  1
  C  C1359  1  0.740500  0.820000  0.257300  1
  C  C1360  1  0.759500  0.180000  0.757300  1
  C  C1361  1  0.218500  0.215400  0.736400  1
  C  C1362  1  0.281500  0.784600  0.236400  1
  C  C1363  1  0.781500  0.784600  0.263600  1
  C  C1364  1  0.718500  0.215400  0.763600  1
  C  C1365  1  0.153500  0.201700  0.732400  1
  C  C1366  1  0.346500  0.798300  0.232400  1
  C  C1367  1  0.846500  0.798300  0.267600  1
  C  C1368  1  0.653500  0.201700  0.767600  1
  C  C1369  1  0.133400  0.150600  0.734900  1
  C  C1370  1  0.366600  0.849400  0.234900  1
  C  C1371  1  0.866600  0.849400  0.265100  1
  C  C1372  1  0.633400  0.150600  0.765100  1
  C  C1373  1  0.105900  0.235900  0.727900  1
  C  C1374  1  0.394100  0.764100  0.227900  1
  C  C1375  1  0.894100  0.764100  0.272100  1
  C  C1376  1  0.605900  0.235900  0.772100  1
  C  C1377  1  0.117300  0.282600  0.737400  1
  C  C1378  1  0.382700  0.717400  0.237400  1
  C  C1379  1  0.882700  0.717400  0.262600  1
  C  C1380  1  0.617300  0.282600  0.762600  1
  C  C1381  1  0.071900  0.315400  0.735100  1
  C  C1382  1  0.428100  0.684600  0.235100  1
  C  C1383  1  0.928100  0.684600  0.264900  1
  C  C1384  1  0.571900  0.315400  0.764900  1
  C  C1385  1  0.010100  0.301000  0.725100  1
  C  C1386  1  0.489900  0.699000  0.225100  1
  C  C1387  1  0.989900  0.699000  0.274900  1
  C  C1388  1  0.510100  0.301000  0.774900  1
  C  C1389  1  0.997900  0.252800  0.715000  1
  C  C1390  1  0.502100  0.747200  0.215000  1
  C  C1391  1  0.002100  0.747200  0.285000  1
  C  C1392  1  0.497900  0.252800  0.785000  1
  C  C1393  1  0.047000  0.220400  0.714400  1
  C  C1394  1  0.453000  0.779600  0.214400  1
  C  C1395  1  0.953000  0.779600  0.285600  1
  C  C1396  1  0.547000  0.220400  0.785600  1
  C  C1397  1  0.959700  0.333333  0.724900  1
  C  C1398  1  0.540300  0.666667  0.224900  1
  C  C1399  1  0.040300  0.666667  0.275100  1
  C  C1400  1  0.459700  0.333333  0.775100  1
  C  C1401  1  0.898800  0.318200  0.732100  1
  C  C1402  1  0.601200  0.681800  0.232100  1
  C  C1403  1  0.101200  0.681800  0.267900  1
  C  C1404  1  0.398800  0.318200  0.767900  1
  C  C1405  1  0.854300  0.350400  0.733200  1
  C  C1406  1  0.645700  0.649600  0.233200  1
  C  C1407  1  0.145700  0.649600  0.266800  1
  C  C1408  1  0.354300  0.350400  0.766800  1
  C  C1409  1  0.872600  0.399000  0.726900  1
  C  C1410  1  0.627400  0.601000  0.226900  1
  C  C1411  1  0.127400  0.601000  0.273100  1
  C  C1412  1  0.372600  0.399000  0.773100  1
  C  C1413  1  0.976100  0.384100  0.717100  1
  C  C1414  1  0.523900  0.615900  0.217100  1
  C  C1415  1  0.023900  0.615900  0.282900  1
  C  C1416  1  0.476100  0.384100  0.782900  1
  C  C1417  1  0.831800  0.439200  0.726500  1
  C  C1418  1  0.668200  0.560800  0.226500  1
  C  C1419  1  0.168200  0.560800  0.273500  1
  C  C1420  1  0.331800  0.439200  0.773500  1
  C  C1421  1  0.811900  0.516200  0.719100  1
  C  C1422  1  0.688100  0.483800  0.219100  1
  C  C1423  1  0.188100  0.483800  0.280900  1
  C  C1424  1  0.311900  0.516200  0.780900  1
  C  C1425  1  0.807200  0.545700  0.747300  1
  C  C1426  1  0.692800  0.454300  0.247300  1
  C  C1427  1  0.192800  0.454300  0.252700  1
  C  C1428  1  0.307200  0.545700  0.752700  1
  C  C1429  1  0.763400  0.580700  0.747700  1
  C  C1430  1  0.736600  0.419300  0.247700  1
  C  C1431  1  0.236600  0.419300  0.252300  1
  C  C1432  1  0.263400  0.580700  0.752300  1
  C  C1433  1  0.724300  0.586200  0.720000  1
  C  C1434  1  0.775700  0.413800  0.220000  1
  C  C1435  1  0.275700  0.413800  0.280000  1
  C  C1436  1  0.224300  0.586200  0.780000  1
  C  C1437  1  0.729100  0.556700  0.691800  1
  C  C1438  1  0.770900  0.443300  0.191800  1
  C  C1439  1  0.270900  0.443300  0.308200  1
  C  C1440  1  0.229100  0.556700  0.808200  1
  C  C1441  1  0.772800  0.521700  0.691300  1
  C  C1442  1  0.727200  0.478300  0.191300  1
  C  C1443  1  0.227200  0.478300  0.308700  1
  C  C1444  1  0.272800  0.521700  0.808700  1
  C  C1445  1  0.389100  0.093200  0.453900  1
  C  C1446  1  0.110900  0.906800  0.953900  1
  C  C1447  1  0.610900  0.906800  0.546100  1
  C  C1448  1  0.889100  0.093200  0.046100  1
  C  C1449  1  0.572900  0.047900  0.326900  1
  C  C1450  1  0.927100  0.952100  0.826900  1
  C  C1451  1  0.427100  0.952100  0.673100  1
  C  C1452  1  0.072900  0.047900  0.173100  1
  C  C1453  1  0.611000  0.867300  0.442300  1
  C  C1454  1  0.889000  0.132700  0.942300  1
  C  C1455  1  0.389000  0.132700  0.557700  1
  C  C1456  1  0.111000  0.867300  0.057700  1
  C  C1457  1  0.466900  0.274600  0.309300  1
  C  C1458  1  0.033100  0.725400  0.809300  1
  C  C1459  1  0.533100  0.725400  0.690700  1
  C  C1460  1  0.966900  0.274600  0.190700  1
  C  C1461  1  0.714200  0.321800  0.502200  1
  C  C1462  1  0.785800  0.678200  0.002200  1
  C  C1463  1  0.285800  0.678200  0.497800  1
  C  C1464  1  0.214200  0.321800  0.997800  1
  C  C1465  1  0.615400  0.528800  0.411800  1
  C  C1466  1  0.884600  0.471200  0.911800  1
  C  C1467  1  0.384600  0.471200  0.588200  1
  C  C1468  1  0.115400  0.528800  0.088200  1
  C  C1469  1  0.366000  0.869200  0.814800  1
  C  C1470  1  0.134000  0.130800  0.314800  1
  C  C1471  1  0.634000  0.130800  0.185200  1
  C  C1472  1  0.866000  0.869200  0.685200  1
  C  C1473  1  0.923700  0.815500  0.783900  1
  C  C1474  1  0.576300  0.184500  0.283900  1
  C  C1475  1  0.076300  0.184500  0.216100  1
  C  C1476  1  0.423700  0.815500  0.716100  1
  C  C1477  1  0.224900  0.996000  0.920000  1
  C  C1478  1  0.275100  0.004000  0.420000  1
  C  C1479  1  0.775100  0.004000  0.080000  1
  C  C1480  1  0.724900  0.996000  0.580000  1
  C  C1481  1  0.862400  0.604500  0.870200  1
  C  C1482  1  0.637600  0.395500  0.370200  1
  C  C1483  1  0.137600  0.395500  0.129800  1
  C  C1484  1  0.362400  0.604500  0.629800  1
  C  C1485  1  0.037600  0.767100  0.725600  1
  C  C1486  1  0.462400  0.232900  0.225600  1
  C  C1487  1  0.962400  0.232900  0.274400  1
  C  C1488  1  0.537600  0.767100  0.774400  1
  C  C1489  1  0.125400  0.998200  0.830000  1
  C  C1490  1  0.374600  0.001800  0.330000  1
  C  C1491  1  0.874600  0.001800  0.170000  1
  C  C1492  1  0.625400  0.998200  0.670000  1
  C  C1493  1  0.659300  0.644600  0.740400  1
  C  C1494  1  0.840700  0.355400  0.240400  1
  C  C1495  1  0.340700  0.355400  0.259600  1
  C  C1496  1  0.159300  0.644600  0.759600  1
  C  C1497  1  0.054500  0.341100  0.642500  1
  C  C1498  1  0.445500  0.658900  0.142500  1
  C  C1499  1  0.945500  0.658900  0.357500  1
  C  C1500  1  0.554500  0.341100  0.857500  1
  C  C1501  1  0.115600  0.313000  0.645100  1
  C  C1502  1  0.384400  0.687000  0.145100  1
  C  C1503  1  0.884400  0.687000  0.354900  1
  C  C1504  1  0.615600  0.313000  0.854900  1
  C  C1505  1  0.118200  0.305700  0.546800  1
  C  C1506  1  0.381800  0.694300  0.046800  1
  C  C1507  1  0.881800  0.694300  0.453200  1
  C  C1508  1  0.618200  0.305700  0.953200  1
  C  C1509  1  0.045800  0.329000  0.546600  1
  C  C1510  1  0.454200  0.671000  0.046600  1
  C  C1511  1  0.954200  0.671000  0.453400  1
  C  C1512  1  0.545800  0.329000  0.953400  1
  C  C1513  1  0.932600  0.213800  0.581000  1
  C  C1514  1  0.567400  0.786200  0.081000  1
  C  C1515  1  0.067400  0.786200  0.419000  1
  C  C1516  1  0.432600  0.213800  0.919000  1
  C  C1517  1  0.948800  0.239300  0.615500  1
  C  C1518  1  0.551200  0.760700  0.115500  1
  C  C1519  1  0.051200  0.760700  0.384500  1
  C  C1520  1  0.448800  0.239300  0.884500  1
  C  C1521  1  0.084700  0.157900  0.612100  1
  C  C1522  1  0.415300  0.842100  0.112100  1
  C  C1523  1  0.915300  0.842100  0.387900  1
  C  C1524  1  0.584700  0.157900  0.887900  1
  C  C1525  1  0.077700  0.164200  0.573700  1
  C  C1526  1  0.422300  0.835800  0.073700  1
  C  C1527  1  0.922300  0.835800  0.426300  1
  C  C1528  1  0.577700  0.164200  0.926300  1
  C  C1529  1  0.128300  0.218800  0.645500  1
  C  C1530  1  0.371700  0.781200  0.145500  1
  C  C1531  1  0.871700  0.781200  0.354500  1
  C  C1532  1  0.628300  0.218800  0.854500  1
  C  C1533  1  0.166500  0.274200  0.641800  1
  C  C1534  1  0.333500  0.725800  0.141800  1
  C  C1535  1  0.833500  0.725800  0.358200  1
  C  C1536  1  0.666500  0.274200  0.858200  1
  C  C1537  1  0.005600  0.868700  0.873600  1
  C  C1538  1  0.494400  0.131300  0.373600  1
  C  C1539  1  0.994400  0.131300  0.126400  1
  C  C1540  1  0.505600  0.868700  0.626400  1
  C  C1541  1  0.972500  0.815800  0.877200  1
  C  C1542  1  0.527500  0.184200  0.377200  1
  C  C1543  1  0.027500  0.184200  0.122800  1
  C  C1544  1  0.472500  0.815800  0.622800  1
  N  N1545  1  0.766500  0.092100  0.448460  1
  N  N1546  1  0.733500  0.907900  0.948460  1
  N  N1547  1  0.233500  0.907900  0.551540  1
  N  N1548  1  0.266500  0.092100  0.051540  1
  N  N1549  1  0.821200  0.092400  0.505600  1
  N  N1550  1  0.678800  0.907600  0.005600  1
  N  N1551  1  0.178800  0.907600  0.494400  1
  N  N1552  1  0.321200  0.092400  0.994400  1
  N  N1553  1  0.063100  0.050100  0.720600  1
  N  N1554  1  0.436900  0.949900  0.220600  1
  N  N1555  1  0.936900  0.949900  0.279400  1
  N  N1556  1  0.563100  0.050100  0.779400  1
  N  N1557  1  0.107200  0.041000  0.778400  1
  N  N1558  1  0.392800  0.959000  0.278400  1
  N  N1559  1  0.892800  0.959000  0.221600  1
  N  N1560  1  0.607200  0.041000  0.721600  1
  N  N1561  1  0.686600  0.166100  0.471000  1
  N  N1562  1  0.813400  0.833900  0.971000  1
  N  N1563  1  0.313400  0.833900  0.529000  1
  N  N1564  1  0.186600  0.166100  0.029000  1
  N  N1565  1  0.808600  0.182300  0.474000  1
  N  N1566  1  0.691400  0.817700  0.974000  1
  N  N1567  1  0.191400  0.817700  0.526000  1
  N  N1568  1  0.308600  0.182300  0.026000  1
  N  N1569  1  0.288600  0.278000  0.472570  1
  N  N1570  1  0.211400  0.722000  0.972570  1
  N  N1571  1  0.711400  0.722000  0.527430  1
  N  N1572  1  0.788600  0.278000  0.027430  1
  N  N1573  1  0.409200  0.288800  0.469830  1
  N  N1574  1  0.090800  0.711200  0.969830  1
  N  N1575  1  0.590800  0.711200  0.530170  1
  N  N1576  1  0.909200  0.288800  0.030170  1
  N  N1577  1  0.416400  0.387700  0.495300  1
  N  N1578  1  0.083600  0.612300  0.995300  1
  N  N1579  1  0.583600  0.612300  0.504700  1
  N  N1580  1  0.916400  0.387700  0.004700  1
  N  N1581  1  0.357400  0.316900  0.528500  1
  N  N1582  1  0.142600  0.683100  0.028500  1
  N  N1583  1  0.642600  0.683100  0.471500  1
  N  N1584  1  0.857400  0.316900  0.971500  1
  N  N1585  1  0.182400  0.049600  0.689200  1
  N  N1586  1  0.317600  0.950400  0.189200  1
  N  N1587  1  0.817600  0.950400  0.310800  1
  N  N1588  1  0.682400  0.049600  0.810800  1
  N  N1589  1  0.136300  0.976300  0.722500  1
  N  N1590  1  0.363700  0.023700  0.222500  1
  N  N1591  1  0.863700  0.023700  0.277500  1
  N  N1592  1  0.636300  0.976300  0.777500  1
  N  N1593  1  0.338700  0.361400  0.437400  1
  N  N1594  1  0.161300  0.638600  0.937400  1
  N  N1595  1  0.661300  0.638600  0.562600  1
  N  N1596  1  0.838700  0.361400  0.062600  1
  N  N1597  1  0.286400  0.379500  0.493000  1
  N  N1598  1  0.213600  0.620500  0.993000  1
  N  N1599  1  0.713600  0.620500  0.507000  1
  N  N1600  1  0.786400  0.379500  0.007000  1
  N  N1601  1  0.035000  0.481400  0.691900  1
  N  N1602  1  0.465000  0.518600  0.191900  1
  N  N1603  1  0.965000  0.518600  0.308100  1
  N  N1604  1  0.535000  0.481400  0.808100  1
  N  N1605  1  0.984600  0.505200  0.745900  1
  N  N1606  1  0.515400  0.494800  0.245900  1
  N  N1607  1  0.015400  0.494800  0.254100  1
  N  N1608  1  0.484600  0.505200  0.754100  1
  N  N1609  1  0.949700  0.550600  0.684200  1
  N  N1610  1  0.550300  0.449400  0.184200  1
  N  N1611  1  0.050300  0.449400  0.315800  1
  N  N1612  1  0.449700  0.550600  0.815800  1
  N  N1613  1  0.914000  0.467500  0.658500  1
  N  N1614  1  0.586000  0.532500  0.158500  1
  N  N1615  1  0.086000  0.532500  0.341500  1
  N  N1616  1  0.414000  0.467500  0.841500  1
  N  N1617  1  0.738200  0.159200  0.532600  1
  N  N1618  1  0.761800  0.840800  0.032600  1
  N  N1619  1  0.261800  0.840800  0.467400  1
  N  N1620  1  0.238200  0.159200  0.967400  1
  N  N1621  1  0.686000  0.077100  0.509200  1
  N  N1622  1  0.814000  0.922900  0.009200  1
  N  N1623  1  0.314000  0.922900  0.490800  1
  N  N1624  1  0.186000  0.077100  0.990800  1
  N  N1625  1  0.857800  0.481900  0.719000  1
  N  N1626  1  0.642200  0.518100  0.219000  1
  N  N1627  1  0.142200  0.518100  0.281000  1
  N  N1628  1  0.357800  0.481900  0.781000  1
  N  N1629  1  0.933700  0.416100  0.718200  1
  N  N1630  1  0.566300  0.583900  0.218200  1
  N  N1631  1  0.066300  0.583900  0.281800  1
  N  N1632  1  0.433700  0.416100  0.781800  1
  N  N1633  1  0.171300  0.116900  0.739540  1
  N  N1634  1  0.328700  0.883100  0.239540  1
  N  N1635  1  0.828700  0.883100  0.260460  1
  N  N1636  1  0.671300  0.116900  0.760460  1
  N  N1637  1  0.238500  0.048200  0.750780  1
  N  N1638  1  0.261500  0.951800  0.250780  1
  N  N1639  1  0.761500  0.951800  0.249220  1
  N  N1640  1  0.738500  0.048200  0.749220  1
  N  N1641  1  0.010100  0.353600  0.632600  1
  N  N1642  1  0.489900  0.646400  0.132600  1
  N  N1643  1  0.989900  0.646400  0.367400  1
  N  N1644  1  0.510100  0.353600  0.867400  1
  N  N1645  1  0.164300  0.288400  0.552900  1
  N  N1646  1  0.335700  0.711600  0.052900  1
  N  N1647  1  0.835700  0.711600  0.447100  1
  N  N1648  1  0.664300  0.288400  0.947100  1
  N  N1649  1  0.930700  0.204000  0.553900  1
  N  N1650  1  0.569300  0.796000  0.053900  1
  N  N1651  1  0.069300  0.796000  0.446100  1
  N  N1652  1  0.430700  0.204000  0.946100  1
  N  N1653  1  0.030000  0.906900  0.870100  1
  N  N1654  1  0.470000  0.093100  0.370100  1
  N  N1655  1  0.970000  0.093100  0.129900  1
  N  N1656  1  0.530000  0.906900  0.629900  1
  N  N1657  1  0.094400  0.164800  0.644800  1
  N  N1658  1  0.405600  0.835200  0.144800  1
  N  N1659  1  0.905600  0.835200  0.355200  1
  N  N1660  1  0.594400  0.164800  0.855200  1
  O  O1661  1  0.620500  0.091300  0.333500  1
  O  O1662  1  0.879500  0.908700  0.833500  1
  O  O1663  1  0.379500  0.908700  0.666500  1
  O  O1664  1  0.120500  0.091300  0.166500  1
  O  O1665  1  0.421000  0.130700  0.475420  1
  O  O1666  1  0.079000  0.869300  0.975420  1
  O  O1667  1  0.579000  0.869300  0.524580  1
  O  O1668  1  0.921000  0.130700  0.024580  1
  O  O1669  1  0.572400  0.905700  0.450100  1
  O  O1670  1  0.927600  0.094300  0.950100  1
  O  O1671  1  0.427600  0.094300  0.549900  1
  O  O1672  1  0.072400  0.905700  0.049900  1
  O  O1673  1  0.468800  0.323300  0.320600  1
  O  O1674  1  0.031200  0.676700  0.820600  1
  O  O1675  1  0.531200  0.676700  0.679400  1
  O  O1676  1  0.968800  0.323300  0.179400  1
  O  O1677  1  0.536100  0.536000  0.416100  1
  O  O1678  1  0.963900  0.464000  0.916100  1
  O  O1679  1  0.463900  0.464000  0.583900  1
  O  O1680  1  0.036100  0.536000  0.083900  1
  O  O1681  1  0.678800  0.318500  0.468700  1
  O  O1682  1  0.821200  0.681500  0.968700  1
  O  O1683  1  0.321200  0.681500  0.531300  1
  O  O1684  1  0.178800  0.318500  0.031300  1
  O  O1685  1  0.351300  0.881300  0.780000  1
  O  O1686  1  0.148700  0.118700  0.280000  1
  O  O1687  1  0.648700  0.118700  0.220000  1
  O  O1688  1  0.851300  0.881300  0.720000  1
  O  O1689  1  0.229200  0.039300  0.901060  1
  O  O1690  1  0.270800  0.960700  0.401060  1
  O  O1691  1  0.770800  0.960700  0.098940  1
  O  O1692  1  0.729200  0.039300  0.598940  1
  O  O1693  1  0.991900  0.829700  0.794300  1
  O  O1694  1  0.508100  0.170300  0.294300  1
  O  O1695  1  0.008100  0.170300  0.205700  1
  O  O1696  1  0.491900  0.829700  0.705700  1
  O  O1697  1  0.066900  0.730900  0.729700  1
  O  O1698  1  0.433100  0.269100  0.229700  1
  O  O1699  1  0.933100  0.269100  0.270300  1
  O  O1700  1  0.566900  0.730900  0.770300  1
  O  O1701  1  0.682500  0.624300  0.717200  1
  O  O1702  1  0.817500  0.375700  0.217200  1
  O  O1703  1  0.317500  0.375700  0.282800  1
  O  O1704  1  0.182500  0.624300  0.782800  1
  O  O1705  1  0.855600  0.557500  0.858800  1
  O  O1706  1  0.644400  0.442500  0.358800  1
  O  O1707  1  0.144400  0.442500  0.141200  1
  O  O1708  1  0.355600  0.557500  0.641200  1
  F  F1709  1  0.192300  0.639200  0.147300  1
  F  F1710  1  0.307700  0.360800  0.647300  1
  F  F1711  1  0.807700  0.360800  0.852700  1
  F  F1712  1  0.692300  0.639200  0.352700  1
  F  F1713  1  0.203700  0.689700  0.191500  1
  F  F1714  1  0.296300  0.310300  0.691500  1
  F  F1715  1  0.796300  0.310300  0.808500  1
  F  F1716  1  0.703700  0.689700  0.308500  1
  F  F1717  1  0.119000  0.631600  0.187700  1
  F  F1718  1  0.381000  0.368400  0.687700  1
  F  F1719  1  0.881000  0.368400  0.812300  1
  F  F1720  1  0.619000  0.631600  0.312300  1
  F  F1721  1  0.214000  0.608100  0.196500  1
  F  F1722  1  0.286000  0.391900  0.696500  1
  F  F1723  1  0.786000  0.391900  0.803500  1
  F  F1724  1  0.714000  0.608100  0.303500  1
  F  F1725  1  0.193000  0.406300  0.383600  1
  F  F1726  1  0.307000  0.593700  0.883600  1
  F  F1727  1  0.807000  0.593700  0.616400  1
  F  F1728  1  0.693000  0.406300  0.116400  1
  F  F1729  1  0.125000  0.343500  0.366800  1
  F  F1730  1  0.375000  0.656500  0.866800  1
  F  F1731  1  0.875000  0.656500  0.633200  1
  F  F1732  1  0.625000  0.343500  0.133200  1
  F  F1733  1  0.109300  0.381500  0.415100  1
  F  F1734  1  0.390700  0.618500  0.915100  1
  F  F1735  1  0.890700  0.618500  0.584900  1
  F  F1736  1  0.609300  0.381500  0.084900  1
  F  F1737  1  0.185200  0.335100  0.408300  1
  F  F1738  1  0.314800  0.664900  0.908300  1
  F  F1739  1  0.814800  0.664900  0.591700  1
  F  F1740  1  0.685200  0.335100  0.091700  1
  F  F1741  1  0.180100  0.120900  0.517540  1
  F  F1742  1  0.319900  0.879100  0.017540  1
  F  F1743  1  0.819900  0.879100  0.482460  1
  F  F1744  1  0.680100  0.120900  0.982460  1
  F  F1745  1  0.088700  0.070200  0.512510  1
  F  F1746  1  0.411300  0.929800  0.012510  1
  F  F1747  1  0.911300  0.929800  0.487490  1
  F  F1748  1  0.588700  0.070200  0.987490  1
  F  F1749  1  0.171200  0.046400  0.540860  1
  F  F1750  1  0.328800  0.953600  0.040860  1
  F  F1751  1  0.828800  0.953600  0.459140  1
  F  F1752  1  0.671200  0.046400  0.959140  1
  F  F1753  1  0.177700  0.051700  0.485570  1
  F  F1754  1  0.322300  0.948300  0.985570  1
  F  F1755  1  0.822300  0.948300  0.514430  1
  F  F1756  1  0.677700  0.051700  0.014430  1
  F  F1757  1  0.176200  0.821700  0.358800  1
  F  F1758  1  0.323800  0.178300  0.858800  1
  F  F1759  1  0.823800  0.178300  0.641200  1
  F  F1760  1  0.676200  0.821700  0.141200  1
  F  F1761  1  0.151600  0.770700  0.315290  1
  F  F1762  1  0.348400  0.229300  0.815290  1
  F  F1763  1  0.848400  0.229300  0.684710  1
  F  F1764  1  0.651600  0.770700  0.184710  1
  F  F1765  1  0.250700  0.810100  0.320690  1
  F  F1766  1  0.249300  0.189900  0.820690  1
  F  F1767  1  0.749300  0.189900  0.679310  1
  F  F1768  1  0.750700  0.810100  0.179310  1
  F  F1769  1  0.168900  0.853400  0.306900  1
  F  F1770  1  0.331100  0.146600  0.806900  1
  F  F1771  1  0.831100  0.146600  0.693100  1
  F  F1772  1  0.668900  0.853400  0.193100  1
