
#######################################################################
#
#                 Cambridge Crystallographic Data Centre
#                                CCDC 
#
#######################################################################
#
# If this CIF has been generated from an entry in the Cambridge 
# Structural Database, then it will include bibliographic, chemical, 
# crystal, experimental, refinement or atomic coordinate data resulting 
# from the CCDC's data processing and validation procedures.
#
#######################################################################

data_TIWHIS
_chemical_formula_moiety         
'C192 H156 Fe4 N24 O12 8+,1.5(C6 H14 O1),5.5(C2 H3 N1),8(Cl1 O4 1-)'
_chemical_name_systematic        
"hexakis(\m~2~-N,N'-(1,4-Phenylenebis(pyridine-5,2-diylmethylylidene))bis(4-methoxyaniline))-tetra-iron octaperchlorate acetonitrile diisopropyl ether solvate"
_symmetry_cell_setting           triclinic
_symmetry_space_group_name_H-M   'P -1'
_symmetry_Int_Tables_number      2
_space_group_name_Hall           '-P 1'
loop_
_symmetry_equiv_pos_site_id
_symmetry_equiv_pos_as_xyz
1 x,y,z
2 -x,-y,-z
_cell_length_a                   20.495(9)
_cell_length_b                   25.670(12)
_cell_length_c                   25.757(15)
_cell_angle_alpha                118.873(17)
_cell_angle_beta                 109.64(4)
_cell_angle_gamma                93.55(3)
_cell_volume                     10755.2
_exptl_crystal_colour            purple
_exptl_crystal_description       blade
_cell_formula_units_Z            2
loop_
_atom_site_label
_atom_site_type_symbol
_atom_site_fract_x
_atom_site_fract_y
_atom_site_fract_z
Fe1 Fe 0.21515(7) 0.87513(5) 0.51828(6)
Fe2 Fe 0.10886(7) 0.29351(5) 0.05237(6)
Fe3 Fe 0.42894(7) 0.75456(6) 0.04132(6)
Fe4 Fe 0.77820(7) 0.64313(6) 0.50348(6)
N1 N 0.1456(5) 0.9136(4) 0.4870(4)
N2 N 0.1520(5) 0.8008(4) 0.4328(4)
N3 N 0.1211(4) 0.3474(3) 0.1430(3)
N4 N 0.1160(4) 0.2334(3) 0.0785(3)
N5 N 0.2818(4) 0.9519(3) 0.6012(3)
N6 N 0.2829(4) 0.8974(3) 0.4877(3)
N7 N 0.3523(4) 0.7677(3) 0.0717(3)
N8 N 0.3469(4) 0.7248(3) -0.0421(3)
N9 N 0.1614(4) 0.8523(3) 0.5592(3)
N10 N 0.2769(4) 0.8287(3) 0.5466(3)
N11 N 0.7407(4) 0.7170(3) 0.5322(3)
N12 N 0.8659(4) 0.7068(3) 0.5335(3)
N13 N 0.0058(4) 0.2857(3) 0.0282(3)
N14 N 0.1006(4) 0.3601(3) 0.0341(3)
N15 N 0.4175(4) 0.6699(3) 0.0230(3)
N16 N 0.5018(4) 0.7318(3) 0.0061(3)
N17 N 0.1076(4) 0.2376(3) -0.0338(3)
N18 N 0.2136(4) 0.3110(3) 0.0789(3)
N19 N 0.6864(4) 0.5896(3) 0.4808(3)
N20 N 0.7976(4) 0.6582(3) 0.5904(3)
N21 N 0.4541(4) 0.8444(3) 0.0717(3)
N22 N 0.5032(4) 0.7867(3) 0.1306(4)
N23 N 0.7501(4) 0.6223(3) 0.4138(4)
N24 N 0.8203(4) 0.5734(3) 0.4723(4)
C1 C 0.1781(12) 1.2004(7) 0.6401(10)
H1 H 0.2174 1.2105 0.6809
H2 H 0.1610 1.2370 0.6469
H3 H 0.1957 1.1874 0.6059
C2 C 0.0893(8) 1.0550(6) 0.5738(5)
H4 H 0.0523 1.0654 0.5883
C3 C 0.0902(6) 0.9936(5) 0.5395(5)
H5 H 0.0528 0.9621 0.5298
C4 C 0.1446(5) 0.9772(4) 0.5192(4)
C5 C 0.1981(6) 1.0221(4) 0.5318(5)
H6 H 0.2358 1.0123 0.5182
C6 C 0.1943(8) 1.0853(5) 0.5668(6)
H7 H 0.2297 1.1186 0.5770
C7 C 0.1370(7) 1.0959(5) 0.5851(5)
C8 C 0.0915(6) 0.8752(5) 0.4318(5)
H8 H 0.0537 0.8886 0.4127
C9 C 0.0914(6) 0.8110(5) 0.4006(5)
C10 C 0.0371(6) 0.7625(5) 0.3427(5)
H9 H -0.0048 0.7702 0.3206
C11 C 0.0444(6) 0.7038(5) 0.3178(5)
H10 H 0.0066 0.6704 0.2792
C12 C 0.1063(6) 0.6926(5) 0.3484(5)
C13 C 0.1581(5) 0.7431(4) 0.4066(4)
H11 H 0.2004 0.7360 0.4290
C14 C 0.1168(5) 0.6295(4) 0.3215(5)
C15 C 0.0747(6) 0.5825(5) 0.2563(5)
H12 H 0.0403 0.5919 0.2290
C16 C 0.0813(6) 0.5236(5) 0.2305(5)
H13 H 0.0516 0.4933 0.1860
C17 C 0.1304(5) 0.5068(4) 0.2677(4)
C18 C 0.1752(6) 0.5537(4) 0.3331(5)
H14 H 0.2111 0.5445 0.3596
C19 C 0.1670(6) 0.6134(4) 0.3589(5)
H15 H 0.1967 0.6439 0.4034
C20 C 0.1337(5) 0.4427(4) 0.2400(4)
C21 C 0.1444(6) 0.4132(4) 0.2740(5)
H16 H 0.1540 0.4357 0.3190
C22 C 0.1410(6) 0.3504(4) 0.2419(5)
H17 H 0.1468 0.3295 0.2644
C23 C 0.1289(5) 0.3187(4) 0.1758(4)
C24 C 0.1225(5) 0.4075(4) 0.1745(4)
H18 H 0.1155 0.4273 0.1507
C25 C 0.1282(5) 0.2550(4) 0.1392(4)
H19 H 0.1360 0.2305 0.1578
C26 C 0.1232(5) 0.1718(4) 0.0410(4)
C27 C 0.1898(5) 0.1640(4) 0.0453(5)
H20 H 0.2308 0.1987 0.0755
C28 C 0.1991(5) 0.1079(4) 0.0075(5)
H21 H 0.2461 0.1036 0.0120
C29 C 0.1397(6) 0.0574(5) -0.0376(5)
C30 C 0.0743(7) 0.0643(5) -0.0414(6)
H22 H 0.0337 0.0294 -0.0721
C31 C 0.0634(6) 0.1208(4) -0.0018(5)
H23 H 0.0167 0.1242 -0.0042
C32 C 0.2116(8) 1.1044(8) 0.8519(6)
H24 H 0.1647 1.0916 0.8159
H25 H 0.2416 1.1417 0.8611
H26 H 0.2049 1.1131 0.8909
C33 C 0.2560(6) 1.0344(5) 0.7767(4)
C34 C 0.2858(6) 0.9851(4) 0.7603(5)
H27 H 0.2995 0.9691 0.7875
C35 C 0.2952(6) 0.9601(4) 0.7040(5)
H28 H 0.3162 0.9265 0.6926
C36 C 0.2751(5) 0.9819(4) 0.6626(4)
C37 C 0.2442(6) 1.0303(4) 0.6797(4)
H29 H 0.2288 1.0450 0.6513
C38 C 0.2350(6) 1.0582(5) 0.7372(5)
H30 H 0.2150 1.0924 0.7493
C39 C 0.3384(5) 0.9722(4) 0.5999(4)
H31 H 0.3766 1.0057 0.6382
C40 C 0.3423(5) 0.9421(4) 0.5373(4)
C41 C 0.4034(5) 0.9562(5) 0.5286(5)
H32 H 0.4462 0.9857 0.5651
C42 C 0.4006(5) 0.9265(4) 0.4661(4)
H33 H 0.4416 0.9347 0.4590
C43 C 0.3361(5) 0.8843(4) 0.4140(4)
C44 C 0.2789(5) 0.8708(4) 0.4273(4)
H34 H 0.2353 0.8416 0.3918
C45 C 0.3261(5) 0.8567(4) 0.3440(4)
C46 C 0.2745(5) 0.8031(4) 0.2927(5)
H35 H 0.2449 0.7811 0.3012
C47 C 0.2642(5) 0.7804(4) 0.2292(5)
H36 H 0.2270 0.7439 0.1946
C48 C 0.3077(5) 0.8102(5) 0.2156(5)
C49 C 0.3613(6) 0.8643(5) 0.2670(5)
H37 H 0.3922 0.8854 0.2586
C50 C 0.3695(6) 0.8873(5) 0.3308(5)
H38 H 0.4054 0.9246 0.3656
C51 C 0.2968(5) 0.7882(4) 0.1472(4)
C52 C 0.3567(5) 0.7886(4) 0.1333(4)
H39 H 0.4031 0.8043 0.1682
C53 C 0.2842(5) 0.7483(4) 0.0243(4)
C54 C 0.2244(5) 0.7481(5) 0.0350(5)
H40 H 0.1786 0.7356 0.0005
C55 C 0.2302(5) 0.7660(5) 0.0965(5)
H41 H 0.1881 0.7630 0.1039
C56 C 0.2856(5) 0.7251(4) -0.0400(4)
H42 H 0.2427 0.7109 -0.0781
C57 C 0.3442(5) 0.6942(4) -0.1079(4)
C58 C 0.3565(5) 0.6360(4) -0.1345(4)
H43 H 0.3677 0.6174 -0.1096
C59 C 0.3523(5) 0.6053(5) -0.1975(4)
H44 H 0.3630 0.5665 -0.2150
C60 C 0.3328(6) 0.6311(5) -0.2345(5)
C61 C 0.3195(7) 0.6883(5) -0.2090(5)
H45 H 0.3065 0.7061 -0.2346
C62 C 0.3252(5) 0.7198(5) -0.1452(5)
H46 H 0.3159 0.7591 -0.1273
C63 C 0.2932(11) 0.6164(8) -0.3417(6)
H47 H 0.2534 0.6325 -0.3331
H48 H 0.2751 0.5824 -0.3874
H49 H 0.3298 0.6495 -0.3331
C64 C -0.2109(6) 0.1544(6) 0.0883(6)
H50 H -0.1721 0.1603 0.1271
H51 H -0.2545 0.1254 0.0764
H52 H -0.2206 0.1942 0.0976
C65 C -0.1402(5) 0.1704(5) 0.0366(5)
C66 C -0.1276(5) 0.1473(4) -0.0191(5)
H53 H -0.1512 0.1058 -0.0546
C67 C -0.0804(5) 0.1852(4) -0.0224(5)
H54 H -0.0730 0.1700 -0.0611
C68 C -0.0435(5) 0.2453(4) 0.0302(5)
C69 C -0.0547(5) 0.2672(5) 0.0872(5)
H55 H -0.0293 0.3079 0.1238
C70 C -0.1031(5) 0.2293(5) 0.0901(5)
H56 H -0.1105 0.2439 0.1287
C71 C -0.0155(5) 0.3303(4) 0.0244(4)
H57 H -0.0625 0.3344 0.0198
C72 C 0.0367(5) 0.3747(4) 0.0275(4)
C73 C 0.0252(5) 0.4251(5) 0.0238(5)
H58 H -0.0197 0.4344 0.0197
C74 C 0.0774(5) 0.4614(5) 0.0259(5)
H59 H 0.0699 0.4970 0.0247
C75 C 0.1435(5) 0.4465(4) 0.0297(5)
C76 C 0.1511(5) 0.3957(4) 0.0346(4)
H60 H 0.1956 0.3854 0.0386
C77 C 0.2028(5) 0.4826(4) 0.0303(4)
C78 C 0.3160(5) 0.5496(4) 0.0290(5)
C79 C 0.3725(5) 0.5817(4) 0.0244(5)
C80 C 0.2445(10) 0.4510(8) -0.0013(9)
H61 H 0.2330 0.4072 -0.0238
C81 C 0.3013(10) 0.4827(7) 0.0001(9)
H62 H 0.3319 0.4612 -0.0178
C82 C 0.2720(10) 0.5779(8) 0.0582(9)
H63 H 0.2815 0.6216 0.0805
C83 C 0.2128(10) 0.5429(8) 0.0559(9)
H64 H 0.1807 0.5629 0.0727
C84 C 0.4321(6) 0.5609(5) 0.0174(5)
H65 H 0.4387 0.5246 0.0173
C85 C 0.4817(6) 0.5935(5) 0.0104(5)
H66 H 0.5219 0.5792 0.0046
C86 C 0.4720(5) 0.6458(4) 0.0120(4)
C87 C 0.3689(5) 0.6385(4) 0.0284(4)
H67 H 0.3301 0.6547 0.0352
C88 C 0.5181(5) 0.6821(4) 0.0010(4)
H68 H 0.5572 0.6698 -0.0093
C89 C 0.5380(5) 0.7646(4) -0.0124(4)
C90 C 0.5906(5) 0.8187(5) 0.0337(5)
H69 H 0.6071 0.8326 0.0786
C91 C 0.6203(6) 0.8536(6) 0.0150(6)
H70 H 0.6564 0.8915 0.0472
C92 C 0.5973(6) 0.8334(6) -0.0501(6)
C93 C 0.5472(6) 0.7771(5) -0.0963(6)
H71 H 0.5324 0.7613 -0.1415
C94 C 0.5185(7) 0.7437(6) -0.0761(6)
H72 H 0.4840 0.7048 -0.1082
C95 C 0.6027(6) 0.8555(6) -0.1288(6)
H73 H 0.6160 0.8181 -0.1536
H74 H 0.6244 0.8892 -0.1308
H75 H 0.5502 0.8473 -0.1477
C96 C -0.1724(6) 0.0908(6) -0.3081(6)
H76 H -0.2018 0.1057 -0.2836
H77 H -0.2030 0.0561 -0.3526
H78 H -0.1498 0.1243 -0.3099
C97 C -0.0656(6) 0.1147(5) -0.2162(5)
C98 C -0.0639(6) 0.1756(5) -0.1815(5)
H79 H -0.1015 0.1901 -0.1991
C99 C -0.0071(6) 0.2168(4) -0.1202(5)
H80 H -0.0066 0.2590 -0.0960
C100 C 0.0470(5) 0.1961(4) -0.0955(4)
C101 C 0.0450(5) 0.1332(4) -0.1300(5)
H81 H 0.0827 0.1188 -0.1123
C102 C -0.0115(6) 0.0928(5) -0.1892(5)
H82 H -0.0139 0.0500 -0.2119
C103 C 0.1715(5) 0.2419(4) -0.0340(4)
H83 H 0.1777 0.2191 -0.0732
C104 C 0.2327(5) 0.2831(4) 0.0284(4)
C105 C 0.3034(5) 0.2939(5) 0.0366(5)
H84 H 0.3151 0.2740 0.0002
C106 C 0.3568(5) 0.3344(5) 0.0988(5)
H85 H 0.4055 0.3432 0.1050
C107 C 0.3396(5) 0.3623(4) 0.1526(4)
C108 C 0.2665(5) 0.3488(4) 0.1391(4)
H86 H 0.2534 0.3674 0.1748
C109 C 0.3958(5) 0.4051(4) 0.2203(4)
C110 C 0.4691(6) 0.4083(5) 0.2328(5)
H87 H 0.4818 0.3833 0.1981
C111 C 0.5216(6) 0.4472(5) 0.2943(5)
H88 H 0.5705 0.4489 0.3013
C112 C 0.5061(5) 0.4848(4) 0.3475(4)
C113 C 0.4325(5) 0.4781(5) 0.3352(5)
H89 H 0.4192 0.5010 0.3701
C114 C 0.3802(5) 0.4388(5) 0.2730(5)
H90 H 0.3312 0.4347 0.2662
C115 C 0.5635(5) 0.5256(4) 0.4141(4)
C116 C 0.6310(5) 0.5530(4) 0.4224(4)
H91 H 0.6375 0.5450 0.3847
C117 C 0.6777(5) 0.5976(4) 0.5349(4)
C118 C 0.6130(5) 0.5731(4) 0.5302(5)
H92 H 0.6078 0.5805 0.5682
C119 C 0.5553(5) 0.5376(4) 0.4695(5)
H93 H 0.5100 0.5215 0.4661
C120 C 0.7420(5) 0.6353(4) 0.5948(4)
H94 H 0.7440 0.6431 0.6354
C121 C 0.8580(5) 0.7028(4) 0.6526(4)
C122 C 0.8466(5) 0.7556(4) 0.6973(4)
H95 H 0.7998 0.7616 0.6875
C123 C 0.9037(5) 0.7997(4) 0.7565(5)
H96 H 0.8962 0.8363 0.7866
C124 C 0.9711(5) 0.7897(4) 0.7709(4)
C125 C 0.9826(5) 0.7366(5) 0.7274(5)
H97 H 1.0290 0.7298 0.7380
C126 C 0.9251(5) 0.6926(4) 0.6670(4)
H98 H 0.9326 0.6562 0.6365
C127 C 1.0203(6) 0.8816(5) 0.8775(5)
H99 H 0.9963 0.9051 0.8601
H100 H 1.0671 0.9081 0.9138
H101 H 0.9903 0.8670 0.8931
C128 C 0.9921(7) 0.4875(6) 0.6636(6)
H102 H 0.9842 0.5222 0.6981
H103 H 1.0302 0.4728 0.6833
H104 H 0.9475 0.4538 0.6345
C129 C 0.9621(6) 0.5230(4) 0.5892(5)
C130 C 0.8908(6) 0.5117(4) 0.5784(5)
H105 H 0.8742 0.4930 0.5974
C131 C 0.8433(5) 0.5281(4) 0.5393(5)
H106 H 0.7943 0.5219 0.5328
C132 C 0.8669(5) 0.5532(4) 0.5102(4)
C133 C 0.9389(5) 0.5622(4) 0.5198(4)
H107 H 0.9549 0.5778 0.4981
C134 C 0.9861(6) 0.5486(5) 0.5601(5)
H108 H 1.0356 0.5568 0.5684
C135 C 0.8086(5) 0.5467(4) 0.4112(5)
H109 H 0.8247 0.5114 0.3904
C136 C 0.7695(5) 0.5738(4) 0.3760(4)
C137 C 0.7550(6) 0.5527(5) 0.3116(5)
H110 H 0.7670 0.5168 0.2855
C138 C 0.7221(6) 0.5866(5) 0.2867(5)
H111 H 0.7132 0.5746 0.2433
C139 C 0.7021(5) 0.6373(4) 0.3239(4)
C140 C 0.7159(5) 0.6535(4) 0.3875(4)
H112 H 0.7009 0.6873 0.4133
C141 C 0.6669(6) 0.6750(5) 0.2988(4)
C142 C 0.6627(7) 0.7324(5) 0.3396(6)
H113 H 0.6801 0.7482 0.3850
C143 C 0.6327(6) 0.7693(5) 0.3156(5)
H114 H 0.6302 0.8090 0.3449
C144 C 0.6073(5) 0.7471(5) 0.2497(4)
C145 C 0.6118(6) 0.6880(5) 0.2090(5)
H115 H 0.5944 0.6718 0.1635
C146 C 0.6399(6) 0.6527(5) 0.2318(5)
H116 H 0.6414 0.6127 0.2022
C147 C 0.5809(6) 0.7847(4) 0.2239(4)
C148 C 0.6073(7) 0.8491(5) 0.2592(5)
H117 H 0.6428 0.8706 0.3030
C149 C 0.5817(7) 0.8807(5) 0.2303(5)
H118 H 0.5992 0.9245 0.2546
C150 C 0.5311(6) 0.8503(5) 0.1665(5)
C151 C 0.5281(5) 0.7567(4) 0.1591(4)
H119 H 0.5092 0.7130 0.1344
C152 C 0.5010(5) 0.8784(4) 0.1319(4)
H120 H 0.5151 0.9221 0.1527
C153 C 0.4268(5) 0.8768(4) 0.0400(5)
C154 C 0.4035(7) 0.9272(6) 0.0694(6)
H121 H 0.3988 0.9378 0.1085
C155 C 0.3863(8) 0.9635(7) 0.0432(6)
H122 H 0.3702 0.9987 0.0644
C156 C 0.3929(7) 0.9479(5) -0.0142(6)
C157 C 0.4143(6) 0.8966(5) -0.0442(6)
H123 H 0.4171 0.8844 -0.0844
C158 C 0.4319(6) 0.8622(5) -0.0163(5)
H124 H 0.4483 0.8272 -0.0373
C159 C 0.3936(9) 0.9760(6) -0.0885(7)
H125 H 0.3748 1.0028 -0.1036
H126 H 0.3713 0.9327 -0.1243
H127 H 0.4459 0.9853 -0.0743
C160 C -0.1108(6) 0.9502(6) 0.5982(6)
H128 H -0.0868 0.9591 0.6427
H129 H -0.1616 0.9492 0.5878
H130 H -0.0876 0.9825 0.5951
C161 C -0.0384(5) 0.8844(5) 0.5582(5)
C162 C 0.0261(6) 0.9271(5) 0.6105(6)
H131 H 0.0252 0.9642 0.6454
C163 C 0.0900(5) 0.9153(5) 0.6111(5)
H132 H 0.1334 0.9437 0.6477
C164 C 0.0936(5) 0.8630(4) 0.5597(4)
C165 C 0.0303(6) 0.8216(5) 0.5083(5)
H133 H 0.0311 0.7854 0.4724
C166 C -0.0349(6) 0.8326(6) 0.5088(6)
H134 H -0.0783 0.8030 0.4734
C167 C 0.1915(5) 0.8235(4) 0.5854(4)
H135 H 0.1708 0.8111 0.6070
C168 C 0.2570(5) 0.8105(4) 0.5815(4)
C169 C 0.2976(5) 0.7819(4) 0.6097(5)
H136 H 0.2825 0.7698 0.6343
C170 C 0.3601(5) 0.7712(5) 0.6019(5)
H137 H 0.3883 0.7519 0.6210
C171 C 0.3809(5) 0.7896(4) 0.5649(4)
C172 C 0.3376(5) 0.8172(4) 0.5381(4)
H138 H 0.3510 0.8287 0.5123
C173 C 0.4493(5) 0.7820(4) 0.5575(4)
C174 C 0.4877(5) 0.8269(4) 0.5540(4)
H139 H 0.4679 0.8588 0.5523
C175 C 0.5546(6) 0.8238(4) 0.5531(6)
H140 H 0.5809 0.8542 0.5513
C176 C 0.5837(5) 0.7772(4) 0.5546(5)
C177 C 0.5433(5) 0.7312(5) 0.5550(5)
H141 H 0.5616 0.6979 0.5542
C178 C 0.4767(5) 0.7345(5) 0.5565(5)
H142 H 0.4497 0.7032 0.5567
C179 C 0.6751(4) 0.7201(4) 0.5291(4)
H143 H 0.6385 0.6828 0.5069
C180 C 0.6581(5) 0.7767(5) 0.5576(5)
C181 C 0.7114(5) 0.8313(5) 0.5899(6)
H144 H 0.7011 0.8701 0.6092
C182 C 0.7791(5) 0.8285(5) 0.5934(6)
H145 H 0.8161 0.8655 0.6151
C183 C 0.7941(5) 0.7716(4) 0.5654(4)
C184 C 0.8612(5) 0.7629(4) 0.5624(5)
H146 H 0.9009 0.7971 0.5809
C185 C 0.9320(5) 0.6976(4) 0.5245(5)
C186 C 0.9964(5) 0.7134(4) 0.5772(5)
H147 H 0.9988 0.7333 0.6202
C187 C 1.0571(5) 0.7000(5) 0.5664(5)
H148 H 1.1008 0.7100 0.6021
C188 C 1.0544(5) 0.6728(5) 0.5056(5)
C189 C 0.9898(5) 0.6595(5) 0.4522(5)
H149 H 0.9885 0.6419 0.4097
C190 C 0.9296(5) 0.6721(4) 0.4622(5)
H150 H 0.8864 0.6635 0.4267
C191 C 1.1641(6) 0.6457(5) 0.5327(6)
H151 H 1.1829 0.6819 0.5774
H152 H 1.2036 0.6374 0.5193
H153 H 1.1417 0.6097 0.5311
O1 O 0.1256(8) 1.1559(7) 0.6224(7)
O2 O 0.1419(5) -0.0010(3) -0.0800(4)
O3 O 0.2459(5) 1.0565(4) 0.8343(3)
O4 O 0.3251(4) 0.5940(4) -0.2991(3)
O5 O -0.1898(4) 0.1301(3) 0.0351(4)
O6 O 0.6280(5) 0.8725(4) -0.0627(4)
O7 O -0.1178(4) 0.0708(4) -0.2764(4)
O8 O 1.0306(4) 0.8296(3) 0.8271(3)
O9 O 1.0138(4) 0.5077(3) 0.6264(3)
O10 O 0.3774(6) 0.9865(4) -0.0361(5)
O11 O -0.1054(4) 0.8911(4) 0.5527(4)
O12 O 1.1112(4) 0.6575(4) 0.4893(4)
C192 C 0.2128(8) -0.0085(7) -0.0752(7)
H154 H 0.2381 0.0233 -0.0777
H155 H 0.2081 -0.0495 -0.1112
H156 H 0.2403 -0.0045 -0.0335
Cl1 Cl 0.33998(13) 0.56176(11) 0.48073(12)
O13 O 0.2953(4) 0.5062(3) 0.4180(3)
O14 O 0.3374(4) 0.5553(4) 0.5326(3)
O15 O 0.3143(4) 0.6137(4) 0.4837(4)
O16 O 0.4125(4) 0.5715(4) 0.4877(4)
Cl2 Cl 0.45990(19) 0.51051(14) 0.85032(16)
O17 O 0.5009(5) 0.5715(4) 0.8814(4)
O18 O 0.4989(6) 0.4799(5) 0.8781(5)
O19 O 0.4414(6) 0.4781(4) 0.7819(4)
O20 O 0.3942(5) 0.5123(4) 0.8609(4)
Cl3 Cl 0.78093(16) 0.19980(13) 0.25465(13)
O21 O 0.8513(5) 0.2199(5) 0.2597(5)
O22 O 0.7680(5) 0.2523(4) 0.3028(4)
O23 O 0.7802(5) 0.1538(4) 0.2702(4)
O24 O 0.7275(4) 0.1784(4) 0.1906(4)
Cl4 Cl 0.8719(4) 0.4284(2) 0.1287(3)
O25 O 0.8902(17) 0.3863(16) 0.1403(15)
O26 O 0.8828(8) 0.4847(7) 0.1840(7)
O27 O 0.8974(10) 0.4347(9) 0.0909(9)
O28 O 0.7861(9) 0.4080(8) 0.0865(8)
Cl5 Cl 0.6973(2) 0.7462(3) 0.7486(2)
O29 O 0.6678(9) 0.7269(8) 0.6845(6)
O30 O 0.7590(6) 0.7989(5) 0.7883(5)
O31 O 0.7254(9) 0.6903(6) 0.7413(7)
O32 O 0.6565(10) 0.7399(9) 0.7797(8)
Cl6 Cl 0.07292(18) 0.65896(13) 0.14825(15)
O33 O 0.1188(6) 0.6949(4) 0.2169(4)
O34 O 0.0002(5) 0.6623(5) 0.1358(6)
O35 O 0.0741(6) 0.5969(4) 0.1251(4)
O36 O 0.0985(4) 0.6803(4) 0.1143(4)
Cl7 Cl 0.36437(17) 0.08333(13) 0.51575(15)
O37 O 0.3506(5) 0.1390(4) 0.5227(5)
O38 O 0.3737(5) 0.0861(4) 0.5759(4)
O39 O 0.3038(5) 0.0302(4) 0.4616(4)
O40 O 0.4283(5) 0.0768(4) 0.5052(5)
Cl8 Cl 0.7138(2) 0.7145(2) 0.1211(2)
O41 O 0.7657(6) 0.7055(8) 0.0941(6)
O42 O 0.6600(7) 0.6560(6) 0.0807(6)
O43 O 0.7467(6) 0.7334(9) 0.1885(6)
O44 O 0.6780(10) 0.7562(8) 0.1140(9)
N25 N 0.9573(8) 0.9123(8) 0.7185(8)
C197 C 1.0130(8) 0.9066(6) 0.7316(7)
C198 C 1.0830(8) 0.8969(8) 0.7473(8)
H161 H 1.0912 0.8812 0.7761
H162 H 1.1193 0.9362 0.7694
H163 H 1.0867 0.8669 0.7071
N26 N 0.0147(9) 0.1061(8) 0.6877(8)
C199 C 0.0504(12) 0.1583(11) 0.7311(11)
C200 C 0.0813(11) 0.2265(9) 0.7866(9)
H164 H 0.0433 0.2477 0.7841
H165 H 0.1206 0.2457 0.7825
H166 H 0.0997 0.2296 0.8286
C201 C 0.5150(9) 0.6538(8) 0.6553(8)
H167 H 0.5225 0.6240 0.6687
H168 H 0.5615 0.6766 0.6641
H169 H 0.4839 0.6317 0.6085
C202 C 0.4828(11) 0.6946(9) 0.6898(10)
N27 N 0.4559(10) 0.7313(9) 0.7220(9)
O45 O 0.7984(7) 0.0083(6) 0.8468(6)
C203 C 0.8003(9) -0.0434(8) 0.8513(9)
H170 H 0.7846 -0.0828 0.8080
C204 C 0.7586(15) 0.0651(12) 0.8018(13)
H171 H 0.7274 0.0793 0.8246
H172 H 0.7391 0.0640 0.7609
H173 H 0.8071 0.0936 0.8295
C205 C 0.7525(13) -0.0414(12) 0.8856(12)
H174 H 0.7718 -0.0028 0.9285
H175 H 0.7508 -0.0767 0.8910
H176 H 0.7038 -0.0435 0.8594
C206 C 0.7621(17) 0.0006(13) 0.7872(15)
H177 H 0.7127 -0.0280 0.7642
C207 C 0.8667(13) -0.0373(12) 0.9005(12)
H178 H 0.8842 0.0049 0.9390
H179 H 0.9029 -0.0461 0.8828
H180 H 0.8578 -0.0666 0.9130
C208 C 0.806(2) -0.0246(19) 0.7461(19)
H181 H 0.8049 -0.0673 0.7340
H182 H 0.8560 0.0010 0.7719
H183 H 0.7851 -0.0235 0.7065
O46 O 0.4242(8) 0.6647(6) 0.3050(7)
C209 C 0.4204(17) 0.6961(15) 0.2257(12)
H184 H 0.4224 0.6545 0.1966
H185 H 0.4434 0.7254 0.2188
H186 H 0.3700 0.6966 0.2162
C210 C 0.4621(13) 0.6607(15) 0.3666(15)
H187 H 0.4754 0.7033 0.4057
C211 C 0.4711(13) 0.7748(9) 0.3579(10)
H188 H 0.5189 0.7863 0.3923
H189 H 0.4342 0.7701 0.3729
H190 H 0.4670 0.8071 0.3480
C212 C 0.4605(16) 0.7151(10) 0.2980(10)
H191 H 0.5099 0.7101 0.3034
C213 C 0.5313(11) 0.6439(10) 0.3681(10)
H192 H 0.5706 0.6817 0.3923
H193 H 0.5269 0.6184 0.3233
H194 H 0.5414 0.6207 0.3896
C214 C 0.4076(15) 0.6197(13) 0.3698(15)
H195 H 0.3674 0.6379 0.3734
H196 H 0.4312 0.6168 0.4079
H197 H 0.3894 0.5783 0.3300
N29 N 0.8752(12) 0.3497(10) 0.2382(11)
C217 C 0.8506(10) 0.3908(9) 0.2587(8)
C218 C 0.8199(16) 0.4422(12) 0.2843(14)
H201 H 0.8133 0.4645 0.2564
H202 H 0.8553 0.4766 0.3357
H203 H 0.7670 0.4257 0.2810
Cl9 Cl 0.5244(4) 0.9867(4) 0.7178(4)
O47 O 0.4522(6) 0.9693(9) 0.7108(11)
O48 O 0.5214(9) 0.9887(7) 0.6620(6)
O49 O 0.5625(10) 1.0468(6) 0.7764(5)
O50 O 0.5614(10) 0.9419(8) 0.7218(10)
N30 N 0.2586(7) 0.4967(6) 0.1939(6)
C219 C 0.2513(11) 0.5441(8) 0.2051(9)
C220 C 0.246(2) 0.6068(11) 0.2202(17)
H204 H 0.2583 0.6338 0.2668
H205 H 0.1973 0.6045 0.1945
H206 H 0.2803 0.6235 0.2092
N31 N 0.8804(13) 0.6462(11) 0.2950(12)
C223 C 0.8528(16) 0.6282(14) 0.2436(16)
C224 C 0.827(3) 0.604(2) 0.179(2)
H210 H 0.8093 0.6338 0.1687
H211 H 0.7880 0.5662 0.1555
H212 H 0.8660 0.5935 0.1645
C193? C 0.3283(15) 0.5149(11) 0.0584(13)
H157? H 0.3760 0.5133 0.0777
C194? C 0.2440(15) 0.5514(11) 0.0033(14)
H158? H 0.2330 0.5750 -0.0162
C195? C 0.2740(14) 0.4840(10) 0.0601(13)
H159? H 0.2847 0.4626 0.0821
C196? C 0.1899(15) 0.5204(12) 0.0058(14)
H160? H 0.1427 0.5247 -0.0094
N28? N 0.3099(10) 0.7326(9) 0.3847(9)
C215? C 0.3352(16) 0.6937(14) 0.3875(14)
C216? C 0.3672(17) 0.6388(14) 0.3860(16)
H198? H 0.4170 0.6473 0.3912
H199? H 0.3383 0.6002 0.3442
H200? H 0.3661 0.6348 0.4217
Cl10? Cl 0.5193(4) 0.9966(3) 0.7017(4)
O51? O 0.4566(5) 0.9457(6) 0.6703(8)
O52? O 0.4980(11) 1.0449(7) 0.6922(11)
O53? O 0.5526(9) 1.0202(7) 0.7707(4)
O54? O 0.5698(9) 0.9754(9) 0.6738(9)
C221? C 0.3072(18) 0.4990(14) 0.1829(15)
C222? C 0.373(2) 0.5189(18) 0.1748(19)
H207? H 0.3608 0.5381 0.1492
H208? H 0.3894 0.4825 0.1521
H209? H 0.4121 0.5486 0.2179
loop_
_geom_bond_atom_site_label_1
_geom_bond_atom_site_label_2
_geom_bond_site_symmetry_1
_geom_bond_site_symmetry_2
Fe1 N1 1_555 1_555
Fe2 N3 1_555 1_555
Fe3 N7 1_555 1_555
Fe4 N11 1_555 1_555
N1 C4 1_555 1_555
N2 Fe1 1_555 1_555
N3 C23 1_555 1_555
N4 Fe2 1_555 1_555
N5 Fe1 1_555 1_555
N6 Fe1 1_555 1_555
N7 C52 1_555 1_555
N8 Fe3 1_555 1_555
N9 Fe1 1_555 1_555
N10 Fe1 1_555 1_555
N11 C179 1_555 1_555
N12 Fe4 1_555 1_555
N13 Fe2 1_555 1_555
N14 Fe2 1_555 1_555
N15 Fe3 1_555 1_555
N16 Fe3 1_555 1_555
N17 Fe2 1_555 1_555
N18 Fe2 1_555 1_555
N19 Fe4 1_555 1_555
N20 Fe4 1_555 1_555
N21 Fe3 1_555 1_555
N22 Fe3 1_555 1_555
N23 Fe4 1_555 1_555
N24 Fe4 1_555 1_555
C1 H1 1_555 1_555
H2 C1 1_555 1_555
H3 C1 1_555 1_555
C2 H4 1_555 1_555
C3 C2 1_555 1_555
H5 C3 1_555 1_555
C4 C3 1_555 1_555
C5 C4 1_555 1_555
H6 C5 1_555 1_555
C6 C5 1_555 1_555
H7 C6 1_555 1_555
C7 C2 1_555 1_555
C8 N1 1_555 1_555
H8 C8 1_555 1_555
C9 N2 1_555 1_555
C10 C9 1_555 1_555
H9 C10 1_555 1_555
C11 C10 1_555 1_555
H10 C11 1_555 1_555
C12 C11 1_555 1_555
C13 N2 1_555 1_555
H11 C13 1_555 1_555
C14 C12 1_555 1_555
C15 C14 1_555 1_555
H12 C15 1_555 1_555
C16 C15 1_555 1_555
H13 C16 1_555 1_555
C17 C16 1_555 1_555
C18 C17 1_555 1_555
H14 C18 1_555 1_555
C19 C14 1_555 1_555
H15 C19 1_555 1_555
C20 C17 1_555 1_555
C21 C20 1_555 1_555
H16 C21 1_555 1_555
C22 C21 1_555 1_555
H17 C22 1_555 1_555
C23 C22 1_555 1_555
C24 N3 1_555 1_555
H18 C24 1_555 1_555
C25 N4 1_555 1_555
H19 C25 1_555 1_555
C26 N4 1_555 1_555
C27 C26 1_555 1_555
H20 C27 1_555 1_555
C28 C27 1_555 1_555
H21 C28 1_555 1_555
C29 C28 1_555 1_555
C30 C29 1_555 1_555
H22 C30 1_555 1_555
C31 C26 1_555 1_555
H23 C31 1_555 1_555
C32 H24 1_555 1_555
H25 C32 1_555 1_555
H26 C32 1_555 1_555
C33 C34 1_555 1_555
C34 H27 1_555 1_555
C35 C34 1_555 1_555
H28 C35 1_555 1_555
C36 N5 1_555 1_555
C37 C36 1_555 1_555
H29 C37 1_555 1_555
C38 C33 1_555 1_555
H30 C38 1_555 1_555
C39 N5 1_555 1_555
H31 C39 1_555 1_555
C40 N6 1_555 1_555
C41 C40 1_555 1_555
H32 C41 1_555 1_555
C42 C41 1_555 1_555
H33 C42 1_555 1_555
C43 C42 1_555 1_555
C44 N6 1_555 1_555
H34 C44 1_555 1_555
C45 C43 1_555 1_555
C46 C45 1_555 1_555
H35 C46 1_555 1_555
C47 C46 1_555 1_555
H36 C47 1_555 1_555
C48 C47 1_555 1_555
C49 C48 1_555 1_555
H37 C49 1_555 1_555
C50 C45 1_555 1_555
H38 C50 1_555 1_555
C51 C48 1_555 1_555
C52 C51 1_555 1_555
H39 C52 1_555 1_555
C53 N7 1_555 1_555
C54 C53 1_555 1_555
H40 C54 1_555 1_555
C55 C51 1_555 1_555
H41 C55 1_555 1_555
C56 N8 1_555 1_555
H42 C56 1_555 1_555
C57 N8 1_555 1_555
C58 C57 1_555 1_555
H43 C58 1_555 1_555
C59 C58 1_555 1_555
H44 C59 1_555 1_555
C60 C59 1_555 1_555
C61 C60 1_555 1_555
H45 C61 1_555 1_555
C62 C57 1_555 1_555
H46 C62 1_555 1_555
C63 H47 1_555 1_555
H48 C63 1_555 1_555
H49 C63 1_555 1_555
C64 H50 1_555 1_555
H51 C64 1_555 1_555
H52 C64 1_555 1_555
C65 C66 1_555 1_555
C66 H53 1_555 1_555
C67 C66 1_555 1_555
H54 C67 1_555 1_555
C68 N13 1_555 1_555
C69 C68 1_555 1_555
H55 C69 1_555 1_555
C70 C65 1_555 1_555
H56 C70 1_555 1_555
C71 N13 1_555 1_555
H57 C71 1_555 1_555
C72 N14 1_555 1_555
C73 C72 1_555 1_555
H58 C73 1_555 1_555
C74 C73 1_555 1_555
H59 C74 1_555 1_555
C75 C74 1_555 1_555
C76 N14 1_555 1_555
H60 C76 1_555 1_555
C77 C75 1_555 1_555
C78 C79 1_555 1_555
C79 C84 1_555 1_555
C80 C77 1_555 1_555
H61 C80 1_555 1_555
C81 C78 1_555 1_555
H62 C81 1_555 1_555
C82 C78 1_555 1_555
H63 C82 1_555 1_555
C83 C77 1_555 1_555
H64 C83 1_555 1_555
C84 H65 1_555 1_555
C85 C84 1_555 1_555
H66 C85 1_555 1_555
C86 N15 1_555 1_555
C87 N15 1_555 1_555
H67 C87 1_555 1_555
C88 N16 1_555 1_555
H68 C88 1_555 1_555
C89 N16 1_555 1_555
C90 C89 1_555 1_555
H69 C90 1_555 1_555
C91 C90 1_555 1_555
H70 C91 1_555 1_555
C92 C91 1_555 1_555
C93 C92 1_555 1_555
H71 C93 1_555 1_555
C94 C89 1_555 1_555
H72 C94 1_555 1_555
C95 H73 1_555 1_555
H74 C95 1_555 1_555
H75 C95 1_555 1_555
C96 H76 1_555 1_555
H77 C96 1_555 1_555
H78 C96 1_555 1_555
C97 C98 1_555 1_555
C98 H79 1_555 1_555
C99 C98 1_555 1_555
H80 C99 1_555 1_555
C100 N17 1_555 1_555
C101 C100 1_555 1_555
H81 C101 1_555 1_555
C102 C97 1_555 1_555
H82 C102 1_555 1_555
C103 N17 1_555 1_555
H83 C103 1_555 1_555
C104 N18 1_555 1_555
C105 C104 1_555 1_555
H84 C105 1_555 1_555
C106 C105 1_555 1_555
H85 C106 1_555 1_555
C107 C106 1_555 1_555
C108 N18 1_555 1_555
H86 C108 1_555 1_555
C109 C107 1_555 1_555
C110 C109 1_555 1_555
H87 C110 1_555 1_555
C111 C110 1_555 1_555
H88 C111 1_555 1_555
C112 C111 1_555 1_555
C113 C112 1_555 1_555
H89 C113 1_555 1_555
C114 C109 1_555 1_555
H90 C114 1_555 1_555
C115 C112 1_555 1_555
C116 N19 1_555 1_555
H91 C116 1_555 1_555
C117 N19 1_555 1_555
C118 C117 1_555 1_555
H92 C118 1_555 1_555
C119 C115 1_555 1_555
H93 C119 1_555 1_555
C120 N20 1_555 1_555
H94 C120 1_555 1_555
C121 N20 1_555 1_555
C122 C121 1_555 1_555
H95 C122 1_555 1_555
C123 C122 1_555 1_555
H96 C123 1_555 1_555
C124 C123 1_555 1_555
C125 C124 1_555 1_555
H97 C125 1_555 1_555
C126 C121 1_555 1_555
H98 C126 1_555 1_555
C127 H99 1_555 1_555
H100 C127 1_555 1_555
H101 C127 1_555 1_555
C128 H102 1_555 1_555
H103 C128 1_555 1_555
H104 C128 1_555 1_555
C129 C130 1_555 1_555
C130 H105 1_555 1_555
C131 C130 1_555 1_555
H106 C131 1_555 1_555
C132 N24 1_555 1_555
C133 C132 1_555 1_555
H107 C133 1_555 1_555
C134 C129 1_555 1_555
H108 C134 1_555 1_555
C135 N24 1_555 1_555
H109 C135 1_555 1_555
C136 N23 1_555 1_555
C137 C136 1_555 1_555
H110 C137 1_555 1_555
C138 C137 1_555 1_555
H111 C138 1_555 1_555
C139 C138 1_555 1_555
C140 N23 1_555 1_555
H112 C140 1_555 1_555
C141 C139 1_555 1_555
C142 C141 1_555 1_555
H113 C142 1_555 1_555
C143 C142 1_555 1_555
H114 C143 1_555 1_555
C144 C143 1_555 1_555
C145 C144 1_555 1_555
H115 C145 1_555 1_555
C146 C141 1_555 1_555
H116 C146 1_555 1_555
C147 C144 1_555 1_555
C148 C147 1_555 1_555
H117 C148 1_555 1_555
C149 C148 1_555 1_555
H118 C149 1_555 1_555
C150 N22 1_555 1_555
C151 N22 1_555 1_555
H119 C151 1_555 1_555
C152 N21 1_555 1_555
H120 C152 1_555 1_555
C153 N21 1_555 1_555
C154 C153 1_555 1_555
H121 C154 1_555 1_555
C155 C154 1_555 1_555
H122 C155 1_555 1_555
C156 C155 1_555 1_555
C157 C156 1_555 1_555
H123 C157 1_555 1_555
C158 C153 1_555 1_555
H124 C158 1_555 1_555
C159 H125 1_555 1_555
H126 C159 1_555 1_555
H127 C159 1_555 1_555
C160 H128 1_555 1_555
H129 C160 1_555 1_555
H130 C160 1_555 1_555
C161 C162 1_555 1_555
C162 H131 1_555 1_555
C163 C162 1_555 1_555
H132 C163 1_555 1_555
C164 N9 1_555 1_555
C165 C164 1_555 1_555
H133 C165 1_555 1_555
C166 C161 1_555 1_555
H134 C166 1_555 1_555
C167 N9 1_555 1_555
H135 C167 1_555 1_555
C168 N10 1_555 1_555
C169 C168 1_555 1_555
H136 C169 1_555 1_555
C170 C169 1_555 1_555
H137 C170 1_555 1_555
C171 C170 1_555 1_555
C172 N10 1_555 1_555
H138 C172 1_555 1_555
C173 C171 1_555 1_555
C174 C173 1_555 1_555
H139 C174 1_555 1_555
C175 C174 1_555 1_555
H140 C175 1_555 1_555
C176 C175 1_555 1_555
C177 C176 1_555 1_555
H141 C177 1_555 1_555
C178 C173 1_555 1_555
H142 C178 1_555 1_555
C179 H143 1_555 1_555
C180 C176 1_555 1_555
C181 C180 1_555 1_555
H144 C181 1_555 1_555
C182 C181 1_555 1_555
H145 C182 1_555 1_555
C183 N11 1_555 1_555
C184 N12 1_555 1_555
H146 C184 1_555 1_555
C185 N12 1_555 1_555
C186 C185 1_555 1_555
H147 C186 1_555 1_555
C187 C186 1_555 1_555
H148 C187 1_555 1_555
C188 C187 1_555 1_555
C189 C188 1_555 1_555
H149 C189 1_555 1_555
C190 C185 1_555 1_555
H150 C190 1_555 1_555
C191 H151 1_555 1_555
H152 C191 1_555 1_555
H153 C191 1_555 1_555
O1 C1 1_555 1_555
O2 C29 1_555 1_555
O3 C32 1_555 1_555
O4 C60 1_555 1_555
O5 C64 1_555 1_555
O6 C92 1_555 1_555
O7 C96 1_555 1_555
O8 C124 1_555 1_555
O9 C128 1_555 1_555
O10 C156 1_555 1_555
O11 C160 1_555 1_555
O12 C188 1_555 1_555
C192 O2 1_555 1_555
H154 C192 1_555 1_555
H155 C192 1_555 1_555
H156 C192 1_555 1_555
Cl1 O13 1_555 1_555
O14 Cl1 1_555 1_555
O15 Cl1 1_555 1_555
O16 Cl1 1_555 1_555
Cl2 O17 1_555 1_555
O18 Cl2 1_555 1_555
O19 Cl2 1_555 1_555
O20 Cl2 1_555 1_555
Cl3 O21 1_555 1_555
O22 Cl3 1_555 1_555
O23 Cl3 1_555 1_555
O24 Cl3 1_555 1_555
Cl4 O25 1_555 1_555
O26 Cl4 1_555 1_555
O27 Cl4 1_555 1_555
O28 Cl4 1_555 1_555
Cl5 O29 1_555 1_555
O30 Cl5 1_555 1_555
O31 Cl5 1_555 1_555
O32 Cl5 1_555 1_555
Cl6 O33 1_555 1_555
O34 Cl6 1_555 1_555
O35 Cl6 1_555 1_555
O36 Cl6 1_555 1_555
Cl7 O37 1_555 1_555
O38 Cl7 1_555 1_555
O39 Cl7 1_555 1_555
O40 Cl7 1_555 1_555
Cl8 O41 1_555 1_555
O42 Cl8 1_555 1_555
O43 Cl8 1_555 1_555
O44 Cl8 1_555 1_555
N25 C197 1_555 1_555
C197 C198 1_555 1_555
C198 H161 1_555 1_555
H162 C198 1_555 1_555
H163 C198 1_555 1_555
N26 C199 1_555 1_555
C199 C200 1_555 1_555
C200 H164 1_555 1_555
H165 C200 1_555 1_555
H166 C200 1_555 1_555
C201 H167 1_555 1_555
H168 C201 1_555 1_555
H169 C201 1_555 1_555
C202 C201 1_555 1_555
N27 C202 1_555 1_555
O45 C203 1_555 1_555
C203 H170 1_555 1_555
C204 H171 1_555 1_555
H172 C204 1_555 1_555
H173 C204 1_555 1_555
C205 C203 1_555 1_555
H174 C205 1_555 1_555
H175 C205 1_555 1_555
H176 C205 1_555 1_555
C206 O45 1_555 1_555
H177 C206 1_555 1_555
C207 C203 1_555 1_555
H178 C207 1_555 1_555
H179 C207 1_555 1_555
H180 C207 1_555 1_555
C208 C206 1_555 1_555
H181 C208 1_555 1_555
H182 C208 1_555 1_555
H183 C208 1_555 1_555
O46 C210 1_555 1_555
C209 H184 1_555 1_555
H185 C209 1_555 1_555
H186 C209 1_555 1_555
C210 H187 1_555 1_555
C211 H188 1_555 1_555
H189 C211 1_555 1_555
H190 C211 1_555 1_555
C212 O46 1_555 1_555
H191 C212 1_555 1_555
C213 C210 1_555 1_555
H192 C213 1_555 1_555
H193 C213 1_555 1_555
H194 C213 1_555 1_555
C214 C210 1_555 1_555
H195 C214 1_555 1_555
H196 C214 1_555 1_555
H197 C214 1_555 1_555
N29 C217 1_555 1_555
C217 C218 1_555 1_555
C218 H201 1_555 1_555
H202 C218 1_555 1_555
H203 C218 1_555 1_555
Cl9 O47 1_555 1_555
O48 Cl9 1_555 1_555
O49 Cl9 1_555 1_555
O50 Cl9 1_555 1_555
N30 C219 1_555 1_555
C219 C220 1_555 1_555
C220 H204 1_555 1_555
H205 C220 1_555 1_555
H206 C220 1_555 1_555
N31 C223 1_555 1_555
C223 C224 1_555 1_555
C224 H210 1_555 1_555
H211 C224 1_555 1_555
H212 C224 1_555 1_555
C6 C7 1_555 1_555
C7 O1 1_555 1_555
C8 C9 1_555 1_555
C12 C13 1_555 1_555
C18 C19 1_555 1_555
C20 C24 1_555 1_555
C23 C25 1_555 1_555
C30 C31 1_555 1_555
C33 O3 1_555 1_555
C35 C36 1_555 1_555
C37 C38 1_555 1_555
C39 C40 1_555 1_555
C43 C44 1_555 1_555
C49 C50 1_555 1_555
C53 C56 1_555 1_555
C54 C55 1_555 1_555
C61 C62 1_555 1_555
C63 O4 1_555 1_555
C65 O5 1_555 1_555
C67 C68 1_555 1_555
C69 C70 1_555 1_555
C71 C72 1_555 1_555
C75 C76 1_555 1_555
C79 C87 1_555 1_555
C80 C81 1_555 1_555
C82 C83 1_555 1_555
C85 C86 1_555 1_555
C86 C88 1_555 1_555
C93 C94 1_555 1_555
C95 O6 1_555 1_555
C97 O7 1_555 1_555
C99 C100 1_555 1_555
C101 C102 1_555 1_555
C103 C104 1_555 1_555
C107 C108 1_555 1_555
C113 C114 1_555 1_555
C115 C116 1_555 1_555
C117 C120 1_555 1_555
C118 C119 1_555 1_555
C125 C126 1_555 1_555
C127 O8 1_555 1_555
C129 O9 1_555 1_555
C131 C132 1_555 1_555
C133 C134 1_555 1_555
C135 C136 1_555 1_555
C139 C140 1_555 1_555
C145 C146 1_555 1_555
C147 C151 1_555 1_555
C149 C150 1_555 1_555
C150 C152 1_555 1_555
C157 C158 1_555 1_555
C159 O10 1_555 1_555
C161 O11 1_555 1_555
C163 C164 1_555 1_555
C165 C166 1_555 1_555
C167 C168 1_555 1_555
C171 C172 1_555 1_555
C177 C178 1_555 1_555
C179 C180 1_555 1_555
C182 C183 1_555 1_555
C183 C184 1_555 1_555
C189 C190 1_555 1_555
C191 O12 1_555 1_555
C204 C206 1_555 1_555
C209 C212 1_555 1_555
C211 C212 1_555 1_555

#END
