
#######################################################################
#
#                 Cambridge Crystallographic Data Centre
#                                CCDC 
#
#######################################################################
#
# If this CIF has been generated from an entry in the Cambridge 
# Structural Database, then it will include bibliographic, chemical, 
# crystal, experimental, refinement or atomic coordinate data resulting 
# from the CCDC's data processing and validation procedures.
#
#######################################################################

data_TIWHOY
_chemical_formula_moiety         
'C192 H156 Fe4 N24 O12 8+,3.5(C2 H3 N1),8(B1 F4 1-)'
_chemical_name_systematic        
"hexakis(\m~2~-N,N'-(1,4-Phenylenebis(pyridine-5,2-diylmethylylidene))bis(4-methoxyaniline))-tetra-iron(ii) octakis(tetrafluoroborate) acetonitrile solvate"
_symmetry_cell_setting           monoclinic
_symmetry_space_group_name_H-M   'P 21/c'
_symmetry_Int_Tables_number      14
_space_group_name_Hall           '-P 2ybc'
loop_
_symmetry_equiv_pos_site_id
_symmetry_equiv_pos_as_xyz
1 x,y,z
2 -x,1/2+y,1/2-z
3 -x,-y,-z
4 x,1/2-y,1/2+z
_cell_length_a                   27.191(11)
_cell_length_b                   39.825(15)
_cell_length_c                   20.852(8)
_cell_angle_alpha                90
_cell_angle_beta                 96.369(3)
_cell_angle_gamma                90
_cell_volume                     22440.9
_exptl_crystal_colour            'dark purple'
_exptl_crystal_description       blade
_cell_formula_units_Z            4
loop_
_atom_site_label
_atom_site_type_symbol
_atom_site_fract_x
_atom_site_fract_y
_atom_site_fract_z
C1 C 0.0881(6) 0.3624(3) -0.3446(7)
C2 C 0.1279(7) 0.3689(4) -0.3052(7)
H1 H 0.1563 0.3549 -0.3023
C3 C 0.1253(7) 0.4009(4) -0.2640(6)
H2 H 0.1527 0.4069 -0.2340
C4 C 0.0873(5) 0.4190(3) -0.2696(6)
C5 C 0.0473(6) 0.4100(3) -0.3085(6)
H3 H 0.0181 0.4232 -0.3102
C6 C 0.0480(7) 0.3811(4) -0.3470(6)
H4 H 0.0194 0.3751 -0.3750
C7 C 0.0691(4) 0.4494(3) -0.1822(5)
H5 H 0.0528 0.4304 -0.1670
C8 C 0.0701(3) 0.4812(3) -0.1505(5)
C9 C 0.0487(3) 0.4866(2) -0.0945(5)
H6 H 0.0335 0.4685 -0.0743
C10 C 0.0492(4) 0.5183(3) -0.0680(5)
H7 H 0.0353 0.5224 -0.0289
C11 C 0.0701(3) 0.5436(2) -0.0989(5)
C12 C 0.0925(4) 0.5359(3) -0.1547(4)
H8 H 0.1082 0.5534 -0.1758
C13 C 0.0693(4) 0.5789(2) -0.0763(4)
C14 C 0.0512(6) 0.5868(3) -0.0229(6)
H9 H 0.0409 0.5694 0.0037
C15 C 0.0467(5) 0.6191(3) -0.0047(6)
H10 H 0.0322 0.6240 0.0336
C16 C 0.0633(4) 0.6458(2) -0.0417(5)
C17 C 0.0808(5) 0.6373(3) -0.0947(6)
H11 H 0.0921 0.6541 -0.1217
C18 C 0.0832(5) 0.6040(3) -0.1124(6)
H12 H 0.0953 0.5987 -0.1523
C19 C 0.0564(4) 0.6802(2) -0.0217(4)
C20 C 0.0554(3) 0.6892(3) 0.0416(5)
H13 H 0.0586 0.6718 0.0728
C21 C 0.0459(4) 0.7447(2) 0.0188(5)
C22 C 0.0485(5) 0.7390(3) -0.0445(5)
H14 H 0.0474 0.7571 -0.0744
C23 C 0.0528(5) 0.7059(3) -0.0647(5)
H15 H 0.0532 0.7012 -0.1093
C24 C 0.0408(4) 0.7768(3) 0.0462(5)
H16 H 0.0372 0.7963 0.0201
C25 C 0.0381(4) 0.8112(2) 0.1370(5)
C26 C 0.0804(4) 0.8211(2) 0.1776(5)
H17 H 0.1092 0.8074 0.1839
C27 C 0.0780(4) 0.8519(2) 0.2078(5)
H18 H 0.1054 0.8592 0.2367
C28 C 0.0378(4) 0.8717(3) 0.1971(5)
C29 C -0.0019(4) 0.8605(3) 0.1563(5)
H19 H -0.0305 0.8744 0.1491
C30 C -0.0531(5) 0.4650(3) -0.3958(6)
C31 C -0.0192(6) 0.4746(3) -0.4339(6)
H20 H -0.0254 0.4714 -0.4793
C32 C 0.0249(5) 0.4891(3) -0.4078(5)
H21 H 0.0495 0.4953 -0.4345
C33 C 0.0322(4) 0.4944(3) -0.3417(5)
C34 C -0.0027(5) 0.4864(3) -0.3047(6)
H22 H 0.0026 0.4907 -0.2597
C35 C -0.0473(5) 0.4716(3) -0.3307(6)
H23 H -0.0725 0.4663 -0.3042
C36 C 0.0899(4) 0.5372(3) -0.3357(5)
H24 H 0.0691 0.5485 -0.3685
C37 C 0.1356(4) 0.5515(3) -0.3104(5)
C38 C 0.1541(5) 0.5812(3) -0.3289(5)
H25 H 0.1371 0.5939 -0.3631
C39 C 0.1976(4) 0.5926(2) -0.2972(6)
H26 H 0.2109 0.6134 -0.3096
C40 C 0.2224(4) 0.5746(3) -0.2480(5)
C41 C 0.2012(4) 0.5443(3) -0.2308(5)
H27 H 0.2173 0.5316 -0.1960
C42 C 0.2697(5) 0.5852(3) -0.2137(6)
C43 C 0.3021(5) 0.5627(3) -0.1822(6)
H28 H 0.2921 0.5400 -0.1790
C44 C 0.3487(4) 0.5719(3) -0.1553(6)
H29 H 0.3705 0.5555 -0.1351
C45 C 0.3641(4) 0.6050(3) -0.1573(6)
C46 C 0.3300(5) 0.6278(3) -0.1861(6)
H30 H 0.3387 0.6509 -0.1867
C47 C 0.2845(5) 0.6183(3) -0.2136(6)
H31 H 0.2625 0.6347 -0.2331
C48 C 0.4145(4) 0.6153(3) -0.1326(7)
C49 C 0.4528(4) 0.5940(3) -0.1320(7)
H32 H 0.4476 0.5717 -0.1473
C50 C 0.5001(4) 0.6046(3) -0.1089(7)
H33 H 0.5277 0.5897 -0.1046
C51 C 0.5045(4) 0.6390(3) -0.0921(7)
C52 C 0.4221(4) 0.6466(3) -0.1090(7)
H34 H 0.3943 0.6610 -0.1084
C53 C 0.5514(4) 0.6546(3) -0.0689(7)
H35 H 0.5816 0.6426 -0.0679
C54 C 0.5965(3) 0.6979(3) -0.0231(7)
C55 C 0.6041(4) 0.7041(3) 0.0428(7)
H36 H 0.5778 0.7009 0.0687
C56 C 0.6500(4) 0.7151(3) 0.0710(6)
H37 H 0.6551 0.7193 0.1161
C57 C 0.6884(3) 0.7198(3) 0.0332(7)
C58 C 0.6809(4) 0.7136(3) -0.0328(7)
H38 H 0.7072 0.7168 -0.0586
C59 C 0.6350(4) 0.7027(3) -0.0609(6)
H39 H 0.6298 0.6984 -0.1060
C60 C 0.1387(5) 0.4731(3) -0.5120(5)
C61 C 0.1168(6) 0.4507(3) -0.4800(5)
H40 H 0.0945 0.4352 -0.5023
C62 C 0.1257(5) 0.4494(3) -0.4143(6)
H41 H 0.1102 0.4327 -0.3910
C63 C 0.1567(4) 0.4721(3) -0.3824(4)
C64 C 0.1763(4) 0.4948(3) -0.4150(5)
H42 H 0.1971 0.5113 -0.3931
C65 C 0.1674(5) 0.4956(3) -0.4826(6)
H43 H 0.1821 0.5125 -0.5065
C66 C 0.2069(6) 0.4591(4) -0.2889(6)
H44 H 0.2302 0.4504 -0.3153
C67 C 0.2166(5) 0.4593(4) -0.2220(6)
C68 C 0.2594(5) 0.4488(3) -0.1886(6)
H45 H 0.2854 0.4403 -0.2108
C69 C 0.2647(5) 0.4505(3) -0.1218(6)
H46 H 0.2944 0.4427 -0.0982
C70 C 0.2285(5) 0.4631(4) -0.0896(6)
C71 C 0.1885(5) 0.4746(3) -0.1274(6)
H47 H 0.1625 0.4840 -0.1063
C72 C 0.2319(5) 0.4659(3) -0.0203(5)
C73 C 0.2737(5) 0.4592(3) 0.0202(6)
H48 H 0.3034 0.4538 0.0025
C74 C 0.2737(5) 0.4602(3) 0.0865(6)
H49 H 0.3038 0.4558 0.1128
C75 C 0.2334(5) 0.4671(3) 0.1150(6)
C76 C 0.1915(5) 0.4713(5) 0.0757(7)
H50 H 0.1617 0.4747 0.0945
C77 C 0.1893(6) 0.4711(5) 0.0085(7)
H51 H 0.1586 0.4744 -0.0173
C78 C 0.2322(5) 0.4671(3) 0.1845(5)
C79 C 0.1908(5) 0.4612(3) 0.2107(6)
H52 H 0.1605 0.4579 0.1841
C80 C 0.1923(4) 0.4599(3) 0.2770(6)
H53 H 0.1632 0.4554 0.2969
C81 C 0.2375(5) 0.4653(3) 0.3141(5)
C82 C 0.2764(4) 0.4734(2) 0.2258(6)
H54 H 0.3058 0.4785 0.2071
C83 C 0.2434(4) 0.4640(2) 0.3838(5)
H55 H 0.2169 0.4594 0.4087
C84 C 0.2948(4) 0.4696(3) 0.4792(6)
C85 C 0.2977(5) 0.4409(3) 0.5109(6)
H56 H 0.2940 0.4201 0.4887
C86 C 0.3068(4) 0.4423(3) 0.5798(7)
H57 H 0.3099 0.4219 0.6036
C87 C 0.3109(5) 0.4708(5) 0.6107(8)
C88 C 0.3064(5) 0.5004(4) 0.5793(7)
H58 H 0.3092 0.5210 0.6025
C89 C 0.2978(5) 0.5003(3) 0.5126(6)
H59 H 0.2939 0.5209 0.4895
C90 C 0.4983(3) 0.4358(2) 0.5124(5)
C91 C 0.4569(4) 0.4445(2) 0.5426(4)
H60 H 0.4536 0.4365 0.5848
C92 C 0.4205(3) 0.4649(2) 0.5109(5)
H61 H 0.3922 0.4708 0.5315
C93 C 0.4253(3) 0.4766(2) 0.4492(5)
C94 C 0.4666(4) 0.4679(2) 0.4190(4)
H62 H 0.4699 0.4759 0.3768
C95 C 0.5031(3) 0.4475(2) 0.4507(5)
H63 H 0.5313 0.4416 0.4301
C96 C 0.3865(4) 0.5262(3) 0.4324(6)
H64 H 0.4104 0.5355 0.4641
C97 C 0.3475(4) 0.5464(3) 0.4005(6)
C98 C 0.3393(5) 0.5802(3) 0.4104(8)
H65 H 0.3615 0.5923 0.4403
C99 C 0.3008(5) 0.5959(3) 0.3789(7)
H66 H 0.2957 0.6192 0.3861
C100 C 0.2681(4) 0.5783(3) 0.3356(5)
C101 C 0.2792(4) 0.5451(2) 0.3280(5)
H67 H 0.2573 0.5327 0.2982
C102 C 0.2250(4) 0.5933(2) 0.3025(5)
C103 C 0.2147(5) 0.6262(3) 0.3107(6)
H68 H 0.2375 0.6394 0.3377
C104 C 0.1741(5) 0.6405(3) 0.2826(6)
H69 H 0.1713 0.6643 0.2852
C105 C 0.1354(4) 0.6229(2) 0.2495(5)
C106 C 0.1453(5) 0.5897(3) 0.2399(6)
H70 H 0.1216 0.5762 0.2150
C107 C 0.1896(5) 0.5755(3) 0.2662(7)
H71 H 0.1954 0.5525 0.2585
C108 C 0.0894(4) 0.6388(3) 0.2243(5)
C109 C 0.0449(5) 0.6229(3) 0.2169(6)
H72 H 0.0431 0.5996 0.2260
C110 C 0.0030(5) 0.6400(3) 0.1965(6)
H73 H -0.0283 0.6293 0.1953
C111 C 0.0058(4) 0.6729(2) 0.1775(5)
C112 C 0.0902(4) 0.6716(2) 0.2047(4)
H74 H 0.1214 0.6826 0.2070
C113 C -0.0328(4) 0.6928(3) 0.1503(5)
H75 H -0.0654 0.6841 0.1423
C114 C -0.0613(4) 0.7418(3) 0.1003(6)
C115 C -0.0839(5) 0.7678(3) 0.1266(6)
H76 H -0.0748 0.7740 0.1703
C116 C -0.1216(4) 0.7858(3) 0.0882(6)
H77 H -0.1391 0.8037 0.1054
C117 C -0.1315(5) 0.7761(3) 0.0259(6)
C118 C -0.1116(5) 0.7486(3) -0.0012(6)
H78 H -0.1230 0.7416 -0.0438
C119 C -0.0748(5) 0.7316(3) 0.0353(6)
H79 H -0.0585 0.7133 0.0176
C120 C 0.5485(6) 0.8301(3) -0.1102(6)
C121 C 0.5003(5) 0.8211(3) -0.1220(6)
H80 H 0.4772 0.8335 -0.1501
C122 C 0.4869(5) 0.7921(3) -0.0898(7)
H81 H 0.4538 0.7841 -0.0971
C123 C 0.5206(5) 0.7752(3) -0.0482(6)
C124 C 0.5664(4) 0.7845(3) -0.0410(5)
H82 H 0.5899 0.7718 -0.0138
C125 C 0.5815(5) 0.8124(3) -0.0723(6)
H83 H 0.6152 0.8191 -0.0668
C126 C 0.5038(6) 0.7472(3) 0.0442(7)
H84 H 0.5124 0.7672 0.0675
C127 C 0.4893(5) 0.7188(3) 0.0754(6)
C128 C 0.4798(5) 0.7158(3) 0.1382(6)
H85 H 0.4806 0.7349 0.1654
C129 C 0.4692(5) 0.6846(3) 0.1615(6)
H86 H 0.4656 0.6822 0.2060
C130 C 0.4637(5) 0.6575(3) 0.1231(6)
C131 C 0.4688(5) 0.6626(3) 0.0607(6)
H87 H 0.4629 0.6440 0.0323
C132 C 0.4501(5) 0.6250(3) 0.1455(7)
C133 C 0.4273(6) 0.6200(4) 0.1966(8)
H88 H 0.4173 0.6393 0.2185
C134 C 0.4165(5) 0.5899(3) 0.2215(6)
H89 H 0.4002 0.5885 0.2595
C135 C 0.4295(5) 0.5614(3) 0.1909(6)
C136 C 0.4536(5) 0.5637(3) 0.1395(7)
H90 H 0.4634 0.5442 0.1181
C137 C 0.4646(5) 0.5970(4) 0.1170(8)
H91 H 0.4827 0.5991 0.0807
C138 C 0.4202(4) 0.5272(3) 0.2168(5)
C139 C 0.4479(5) 0.5003(4) 0.1989(6)
H92 H 0.4717 0.5028 0.1691
C140 C 0.4387(6) 0.4683(3) 0.2278(6)
H93 H 0.4559 0.4488 0.2168
C141 C 0.4056(4) 0.4669(3) 0.2702(5)
C142 C 0.3878(4) 0.5222(3) 0.2586(5)
H94 H 0.3688 0.5409 0.2697
C143 C 0.3938(5) 0.4356(3) 0.2993(5)
H95 H 0.4090 0.4150 0.2897
C144 C 0.3522(3) 0.40766(16) 0.3704(4)
C145 C 0.3897(2) 0.3903(2) 0.4071(5)
H96 H 0.4226 0.3986 0.4110
C146 C 0.3790(3) 0.3607(2) 0.4380(5)
H97 H 0.4047 0.3488 0.4630
C147 C 0.3309(3) 0.34842(19) 0.4322(5)
C148 C 0.2934(2) 0.36580(19) 0.3955(4)
H98 H 0.2604 0.3574 0.3916
C149 C 0.3040(2) 0.39542(17) 0.3646(4)
H99 H 0.2783 0.4073 0.3396
C150 C -0.0763(7) 0.7748(5) 0.3242(8)
C151 C -0.0633(6) 0.7437(4) 0.3185(7)
H100 H -0.0838 0.7267 0.3331
C152 C -0.0228(6) 0.7348(3) 0.2934(7)
H101 H -0.0144 0.7118 0.2908
C153 C 0.0070(4) 0.7588(2) 0.2710(5)
C154 C -0.0070(5) 0.7914(3) 0.2770(5)
H102 H 0.0118 0.8087 0.2598
C155 C -0.0468(6) 0.7998(4) 0.3066(7)
H103 H -0.0540 0.8226 0.3150
C156 C 0.0925(4) 0.7515(2) 0.2678(4)
H104 H 0.0979 0.7566 0.3125
C157 C 0.1320(4) 0.74501(19) 0.2337(4)
C158 C 0.1800(4) 0.7427(2) 0.2595(5)
H105 H 0.1890 0.7454 0.3045
C159 C 0.2154(4) 0.7364(2) 0.2185(5)
H106 H 0.2492 0.7349 0.2352
C160 C 0.2017(4) 0.7324(2) 0.1535(5)
C161 C 0.1506(4) 0.7349(2) 0.1334(5)
H107 H 0.1403 0.7330 0.0885
C162 C 0.2359(4) 0.7279(2) 0.1059(5)
C163 C 0.2826(5) 0.7374(4) 0.1173(6)
H108 H 0.2939 0.7461 0.1587
C164 C 0.3154(5) 0.7351(4) 0.0719(7)
H109 H 0.3492 0.7406 0.0839
C165 C 0.3010(4) 0.7251(3) 0.0101(6)
C166 C 0.2528(5) 0.7150(4) -0.0021(6)
H110 H 0.2405 0.7083 -0.0446
C167 C 0.2204(5) 0.7144(3) 0.0470(6)
H111 H 0.1885 0.7046 0.0390
C168 C 0.3333(4) 0.7249(2) -0.0403(6)
C169 C 0.3182(4) 0.7321(3) -0.1012(6)
H112 H 0.2841 0.7365 -0.1137
C170 C 0.3504(5) 0.7332(3) -0.1457(6)
H113 H 0.3393 0.7384 -0.1894
C171 C 0.3990(5) 0.7269(3) -0.1274(6)
C172 C 0.3841(4) 0.7171(2) -0.0239(5)
H114 H 0.3952 0.7110 0.0193
C173 C 0.4392(5) 0.7265(3) -0.1682(6)
H115 H 0.4335 0.7318 -0.2129
C174 C 0.5162(4) 0.7191(3) -0.1881(6)
C175 C 0.5457(5) 0.7473(3) -0.1928(6)
H116 H 0.5420 0.7662 -0.1661
C176 C 0.5807(5) 0.7477(3) -0.2366(7)
H117 H 0.6009 0.7670 -0.2398
C177 C 0.5862(4) 0.7200(3) -0.2757(6)
C178 C 0.5567(5) 0.6918(3) -0.2709(6)
H118 H 0.5605 0.6729 -0.2976
C179 C 0.5217(5) 0.6913(3) -0.2272(7)
H119 H 0.5016 0.6721 -0.2240
C180 C 0.0932(4) 0.4539(3) -0.6109(5)
H120 H 0.0902 0.4582 -0.6575
H121 H 0.0615 0.4585 -0.5945
H122 H 0.1024 0.4304 -0.6026
C181 C 0.0479(8) 0.3269(4) -0.4271(7)
H123 H 0.0532 0.3061 -0.4505
H124 H 0.0434 0.3457 -0.4577
H125 H 0.0182 0.3247 -0.4047
C182 C -0.1327(6) 0.4423(4) -0.3890(8)
H126 H -0.1608 0.4325 -0.4162
H127 H -0.1434 0.4628 -0.3687
H128 H -0.1205 0.4262 -0.3555
C183 C 0.2746(5) 0.3093(4) 0.4669(10)
H129 H 0.2734 0.2899 0.4957
H130 H 0.2625 0.3027 0.4227
H131 H 0.2538 0.3273 0.4811
C184 C 0.3218(9) 0.5022(5) 0.7142(8)
H132 H 0.3258 0.4982 0.7609
H133 H 0.2915 0.5151 0.7024
H134 H 0.3503 0.5149 0.7023
C185 C 0.5288(5) 0.4118(4) 0.6154(8)
H135 H 0.5567 0.3991 0.6370
H136 H 0.4979 0.3998 0.6198
H137 H 0.5276 0.4341 0.6352
C186 C -0.1308(8) 0.8148(4) 0.3660(10)
H138 H -0.1624 0.8154 0.3846
H139 H -0.1336 0.8281 0.3263
H140 H -0.1047 0.8241 0.3971
C187 C -0.1845(6) 0.7839(4) -0.0763(7)
H141 H -0.2108 0.7986 -0.0961
H142 H -0.1964 0.7606 -0.0773
H143 H -0.1557 0.7855 -0.1004
C188 C -0.0040(5) 0.9200(3) 0.2249(6)
H144 H 0.0021 0.9409 0.2495
H145 H -0.0300 0.9071 0.2426
H146 H -0.0144 0.9254 0.1795
C189 C 0.6045(7) 0.8702(5) -0.1376(10)
H147 H 0.6068 0.8903 -0.1643
H148 H 0.6265 0.8528 -0.1513
H149 H 0.6143 0.8759 -0.0922
C190 C 0.7671(6) 0.7256(4) 0.0376(11)
H150 H 0.7968 0.7338 0.0639
H151 H 0.7625 0.7381 -0.0031
H152 H 0.7709 0.7017 0.0285
C191 C -0.0018(4) 0.8300(2) 0.1254(5)
H153 H -0.0294 0.8228 0.0968
C192 C 0.6446(7) 0.7404(5) -0.3407(10)
H154 H 0.6805 0.7369 -0.3344
H155 H 0.6364 0.7613 -0.3197
H156 H 0.6335 0.7417 -0.3870
N1 N 0.0921(3) 0.44846(19) -0.2335(4)
N2 N 0.0924(3) 0.5056(2) -0.1788(3)
N3 N 0.0501(2) 0.7206(2) 0.0631(4)
N4 N 0.0410(3) 0.77840(18) 0.1072(4)
N5 N 0.1661(4) 0.4710(2) -0.3134(4)
N6 N 0.1823(4) 0.4740(3) -0.1914(5)
N7 N 0.2780(3) 0.47257(18) 0.2886(4)
N8 N 0.2888(3) 0.46983(18) 0.4092(4)
N9 N 0.3877(3) 0.4953(2) 0.4164(4)
N10 N 0.3169(3) 0.5285(2) 0.3574(4)
N11 N 0.0496(3) 0.68920(18) 0.1824(3)
N12 N -0.0237(3) 0.7225(2) 0.1363(4)
N13 N 0.3614(4) 0.4374(2) 0.3387(5)
N14 N 0.3795(3) 0.4930(2) 0.2864(4)
N15 N 0.4814(4) 0.6919(2) 0.0350(5)
N16 N 0.5052(3) 0.7459(2) -0.0154(5)
N17 N 0.5506(3) 0.6842(3) -0.0503(6)
N18 N 0.4675(3) 0.6585(2) -0.0860(6)
N19 N 0.1592(3) 0.5326(2) -0.2618(4)
N20 N 0.0771(3) 0.5092(2) -0.3140(3)
N21 N 0.4819(4) 0.7190(2) -0.1422(4)
N22 N 0.4161(3) 0.7182(2) -0.0663(5)
N23 N 0.1169(3) 0.73954(17) 0.1713(4)
N24 N 0.0482(3) 0.75078(17) 0.2385(4)
O1 O 0.0913(4) 0.3335(2) -0.3795(5)
O2 O 0.1307(3) 0.47542(19) -0.5790(3)
O3 O -0.0943(4) 0.4501(2) -0.4276(4)
O4 O 0.3233(4) 0.3206(3) 0.4688(6)
O5 O 0.5360(3) 0.4161(2) 0.5361(5)
O6 O 0.3185(4) 0.4687(3) 0.6788(4)
O7 O -0.1187(5) 0.7800(3) 0.3513(6)
O8 O 0.0393(3) 0.90106(16) 0.2292(3)
O9 O -0.1703(3) 0.7943(2) -0.0081(4)
O10 O 0.7309(4) 0.7297(3) 0.0669(8)
O11 O 0.6243(5) 0.7172(3) -0.3175(6)
O12 O 0.5575(5) 0.8588(3) -0.1444(6)
Fe1 Fe 0.12709(6) 0.48959(3) -0.24952(6)
Fe2 Fe 0.48498(6) 0.70334(4) -0.05443(8)
Fe3 Fe 0.33541(5) 0.48200(4) 0.35074(7)
Fe4 Fe 0.04646(5) 0.73464(3) 0.15054(6)
F1 F 0.6392(5) 0.1473(2) 0.1923(5)
F2 F 0.6897(4) 0.1915(3) 0.2037(5)
F3 F 0.6316(4) 0.1877(3) 0.1190(5)
F4 F 0.6081(5) 0.1965(3) 0.2140(7)
B1 B 0.6420(15) 0.1804(5) 0.1897(13)
F5 F 0.4063(5) 0.3836(3) 0.1930(6)
F6 F 0.3435(5) 0.3668(3) 0.1250(7)
F7 F 0.3815(5) 0.4151(5) 0.1093(9)
F8 F 0.3351(4) 0.4083(2) 0.1852(4)
B2 B 0.3660(8) 0.3919(6) 0.1610(14)
F9 F 0.1209(3) 0.51754(16) 0.1801(4)
F10 F 0.0702(3) 0.51251(17) 0.0887(3)
F11 F 0.0464(2) 0.54086(16) 0.1712(3)
F12 F 0.0517(3) 0.48557(16) 0.1777(3)
B3 B 0.0729(6) 0.5128(4) 0.1546(8)
F13 F 0.8217(2) 0.35880(15) 0.1762(3)
F14 F 0.7707(3) 0.31529(16) 0.1516(3)
F15 F 0.8101(2) 0.32069(15) 0.2507(3)
F16 F 0.8534(3) 0.30690(16) 0.1689(3)
B4 B 0.8144(7) 0.3257(3) 0.1860(7)
N25 N 0.3536(10) 0.6326(6) 0.0101(12)
C193 C 0.3411(12) 0.6425(8) 0.0545(13)
C194 C 0.3130(11) 0.6451(8) 0.1156(13)
H157 H 0.3299 0.6613 0.1459
H158 H 0.3126 0.6230 0.1364
H159 H 0.2790 0.6526 0.1030
N26 N 0.2884(5) 0.5529(3) 0.1643(6)
C195 C 0.3057(6) 0.5468(4) 0.1182(8)
C196 C 0.3290(6) 0.5466(4) 0.0458(7)
H160 H 0.3344 0.5698 0.0322
H161 H 0.3056 0.5355 0.0135
H162 H 0.3606 0.5345 0.0499
N27 N 0.2040(10) 0.5539(6) -0.0693(12)
C197 C 0.2138(12) 0.5810(6) -0.0674(15)
C198 C 0.2393(11) 0.6155(6) -0.0512(14)
H163 H 0.2700 0.6120 -0.0227
H164 H 0.2170 0.6299 -0.0296
H165 H 0.2469 0.6263 -0.0912
C199? C 0.1579(13) 0.6121(7) 0.0847(16)
C200? C 0.1642(12) 0.5737(7) 0.0777(15)
H166? H 0.1730 0.5686 0.0344
H167? H 0.1330 0.5625 0.0840
H168? H 0.1904 0.5658 0.1101
C201? C 0.2188(14) 0.6455(8) 0.1283(16)
C202? C 0.2742(11) 0.6418(8) 0.1665(15)
H169? H 0.2726 0.6441 0.2130
H170? H 0.2956 0.6595 0.1520
H171? H 0.2878 0.6198 0.1573
C203? C -0.1313(9) 0.8736(8) 0.0056(15)
C204? C -0.1842(9) 0.8772(8) -0.0275(14)
H172? H -0.2075 0.8769 0.0051
H173? H -0.1916 0.8585 -0.0577
H174? H -0.1873 0.8985 -0.0511
N28? N -0.0931(9) 0.8701(6) 0.0300(12)
N29? N 0.1648(6) 0.6448(4) 0.0944(7)
loop_
_geom_bond_atom_site_label_1
_geom_bond_atom_site_label_2
_geom_bond_site_symmetry_1
_geom_bond_site_symmetry_2
C1 C2 1_555 1_555
C2 H1 1_555 1_555
C3 C2 1_555 1_555
H2 C3 1_555 1_555
C4 C3 1_555 1_555
C5 C4 1_555 1_555
H3 C5 1_555 1_555
C6 C1 1_555 1_555
H4 C6 1_555 1_555
C7 H5 1_555 1_555
C8 C7 1_555 1_555
C9 C8 1_555 1_555
H6 C9 1_555 1_555
C10 C9 1_555 1_555
H7 C10 1_555 1_555
C11 C10 1_555 1_555
C12 C11 1_555 1_555
H8 C12 1_555 1_555
C13 C11 1_555 1_555
C14 C13 1_555 1_555
H9 C14 1_555 1_555
C15 C14 1_555 1_555
H10 C15 1_555 1_555
C16 C15 1_555 1_555
C17 C16 1_555 1_555
H11 C17 1_555 1_555
C18 C13 1_555 1_555
H12 C18 1_555 1_555
C19 C16 1_555 1_555
C20 C19 1_555 1_555
H13 C20 1_555 1_555
C21 C22 1_555 1_555
C22 H14 1_555 1_555
C23 C19 1_555 1_555
H15 C23 1_555 1_555
C24 C21 1_555 1_555
H16 C24 1_555 1_555
C25 C26 1_555 1_555
C26 H17 1_555 1_555
C27 C26 1_555 1_555
H18 C27 1_555 1_555
C28 C27 1_555 1_555
C29 C28 1_555 1_555
H19 C29 1_555 1_555
C30 C31 1_555 1_555
C31 H20 1_555 1_555
C32 C31 1_555 1_555
H21 C32 1_555 1_555
C33 C32 1_555 1_555
C34 C33 1_555 1_555
H22 C34 1_555 1_555
C35 C30 1_555 1_555
H23 C35 1_555 1_555
C36 H24 1_555 1_555
C37 C36 1_555 1_555
C38 C37 1_555 1_555
H25 C38 1_555 1_555
C39 C38 1_555 1_555
H26 C39 1_555 1_555
C40 C39 1_555 1_555
C41 C40 1_555 1_555
H27 C41 1_555 1_555
C42 C40 1_555 1_555
C43 C42 1_555 1_555
H28 C43 1_555 1_555
C44 C43 1_555 1_555
H29 C44 1_555 1_555
C45 C44 1_555 1_555
C46 C45 1_555 1_555
H30 C46 1_555 1_555
C47 C42 1_555 1_555
H31 C47 1_555 1_555
C48 C45 1_555 1_555
C49 C48 1_555 1_555
H32 C49 1_555 1_555
C50 C49 1_555 1_555
H33 C50 1_555 1_555
C51 C50 1_555 1_555
C52 C48 1_555 1_555
H34 C52 1_555 1_555
C53 C51 1_555 1_555
H35 C53 1_555 1_555
C54 C55 1_555 1_555
C55 H36 1_555 1_555
C56 C55 1_555 1_555
H37 C56 1_555 1_555
C57 C56 1_555 1_555
C58 C57 1_555 1_555
H38 C58 1_555 1_555
C59 C54 1_555 1_555
H39 C59 1_555 1_555
C60 C61 1_555 1_555
C61 H40 1_555 1_555
C62 C61 1_555 1_555
H41 C62 1_555 1_555
C63 C62 1_555 1_555
C64 C63 1_555 1_555
H42 C64 1_555 1_555
C65 C60 1_555 1_555
H43 C65 1_555 1_555
C66 H44 1_555 1_555
C67 C66 1_555 1_555
C68 C67 1_555 1_555
H45 C68 1_555 1_555
C69 C68 1_555 1_555
H46 C69 1_555 1_555
C70 C69 1_555 1_555
C71 C70 1_555 1_555
H47 C71 1_555 1_555
C72 C70 1_555 1_555
C73 C72 1_555 1_555
H48 C73 1_555 1_555
C74 C73 1_555 1_555
H49 C74 1_555 1_555
C75 C74 1_555 1_555
C76 C75 1_555 1_555
H50 C76 1_555 1_555
C77 C72 1_555 1_555
H51 C77 1_555 1_555
C78 C75 1_555 1_555
C79 C78 1_555 1_555
H52 C79 1_555 1_555
C80 C79 1_555 1_555
H53 C80 1_555 1_555
C81 C80 1_555 1_555
C82 C78 1_555 1_555
H54 C82 1_555 1_555
C83 C81 1_555 1_555
H55 C83 1_555 1_555
C84 C85 1_555 1_555
C85 H56 1_555 1_555
C86 C85 1_555 1_555
H57 C86 1_555 1_555
C87 C86 1_555 1_555
C88 C87 1_555 1_555
H58 C88 1_555 1_555
C89 C84 1_555 1_555
H59 C89 1_555 1_555
C90 C91 1_555 1_555
C91 H60 1_555 1_555
C92 C91 1_555 1_555
H61 C92 1_555 1_555
C93 C92 1_555 1_555
C94 C93 1_555 1_555
H62 C94 1_555 1_555
C95 C90 1_555 1_555
H63 C95 1_555 1_555
C96 H64 1_555 1_555
C97 C96 1_555 1_555
C98 C97 1_555 1_555
H65 C98 1_555 1_555
C99 C98 1_555 1_555
H66 C99 1_555 1_555
C100 C99 1_555 1_555
C101 C100 1_555 1_555
H67 C101 1_555 1_555
C102 C100 1_555 1_555
C103 C102 1_555 1_555
H68 C103 1_555 1_555
C104 C103 1_555 1_555
H69 C104 1_555 1_555
C105 C104 1_555 1_555
C106 C105 1_555 1_555
H70 C106 1_555 1_555
C107 C102 1_555 1_555
H71 C107 1_555 1_555
C108 C105 1_555 1_555
C109 C108 1_555 1_555
H72 C109 1_555 1_555
C110 C109 1_555 1_555
H73 C110 1_555 1_555
C111 C110 1_555 1_555
C112 C108 1_555 1_555
H74 C112 1_555 1_555
C113 C111 1_555 1_555
H75 C113 1_555 1_555
C114 C115 1_555 1_555
C115 H76 1_555 1_555
C116 C115 1_555 1_555
H77 C116 1_555 1_555
C117 C116 1_555 1_555
C118 C117 1_555 1_555
H78 C118 1_555 1_555
C119 C114 1_555 1_555
H79 C119 1_555 1_555
C120 C121 1_555 1_555
C121 H80 1_555 1_555
C122 C121 1_555 1_555
H81 C122 1_555 1_555
C123 C122 1_555 1_555
C124 C123 1_555 1_555
H82 C124 1_555 1_555
C125 C120 1_555 1_555
H83 C125 1_555 1_555
C126 H84 1_555 1_555
C127 C126 1_555 1_555
C128 C127 1_555 1_555
H85 C128 1_555 1_555
C129 C128 1_555 1_555
H86 C129 1_555 1_555
C130 C129 1_555 1_555
C131 C130 1_555 1_555
H87 C131 1_555 1_555
C132 C130 1_555 1_555
C133 C132 1_555 1_555
H88 C133 1_555 1_555
C134 C133 1_555 1_555
H89 C134 1_555 1_555
C135 C134 1_555 1_555
C136 C135 1_555 1_555
H90 C136 1_555 1_555
C137 C132 1_555 1_555
H91 C137 1_555 1_555
C138 C135 1_555 1_555
C139 C138 1_555 1_555
H92 C139 1_555 1_555
C140 C139 1_555 1_555
H93 C140 1_555 1_555
C141 C140 1_555 1_555
C142 C138 1_555 1_555
H94 C142 1_555 1_555
C143 C141 1_555 1_555
H95 C143 1_555 1_555
C144 C145 1_555 1_555
C145 H96 1_555 1_555
C146 C145 1_555 1_555
H97 C146 1_555 1_555
C147 C146 1_555 1_555
C148 C147 1_555 1_555
H98 C148 1_555 1_555
C149 C144 1_555 1_555
H99 C149 1_555 1_555
C150 C151 1_555 1_555
C151 H100 1_555 1_555
C152 C151 1_555 1_555
H101 C152 1_555 1_555
C153 C152 1_555 1_555
C154 C153 1_555 1_555
H102 C154 1_555 1_555
C155 C150 1_555 1_555
H103 C155 1_555 1_555
C156 H104 1_555 1_555
C157 C156 1_555 1_555
C158 C157 1_555 1_555
H105 C158 1_555 1_555
C159 C158 1_555 1_555
H106 C159 1_555 1_555
C160 C159 1_555 1_555
C161 C160 1_555 1_555
H107 C161 1_555 1_555
C162 C160 1_555 1_555
C163 C162 1_555 1_555
H108 C163 1_555 1_555
C164 C163 1_555 1_555
H109 C164 1_555 1_555
C165 C164 1_555 1_555
C166 C165 1_555 1_555
H110 C166 1_555 1_555
C167 C162 1_555 1_555
H111 C167 1_555 1_555
C168 C165 1_555 1_555
C169 C168 1_555 1_555
H112 C169 1_555 1_555
C170 C169 1_555 1_555
H113 C170 1_555 1_555
C171 C170 1_555 1_555
C172 C168 1_555 1_555
H114 C172 1_555 1_555
C173 C171 1_555 1_555
H115 C173 1_555 1_555
C174 C175 1_555 1_555
C175 H116 1_555 1_555
C176 C175 1_555 1_555
H117 C176 1_555 1_555
C177 C176 1_555 1_555
C178 C177 1_555 1_555
H118 C178 1_555 1_555
C179 C174 1_555 1_555
H119 C179 1_555 1_555
C180 H120 1_555 1_555
H121 C180 1_555 1_555
H122 C180 1_555 1_555
C181 H123 1_555 1_555
H124 C181 1_555 1_555
H125 C181 1_555 1_555
C182 H126 1_555 1_555
H127 C182 1_555 1_555
H128 C182 1_555 1_555
C183 H129 1_555 1_555
H130 C183 1_555 1_555
H131 C183 1_555 1_555
C184 H132 1_555 1_555
H133 C184 1_555 1_555
H134 C184 1_555 1_555
C185 H135 1_555 1_555
H136 C185 1_555 1_555
H137 C185 1_555 1_555
C186 H138 1_555 1_555
H139 C186 1_555 1_555
H140 C186 1_555 1_555
C187 H141 1_555 1_555
H142 C187 1_555 1_555
H143 C187 1_555 1_555
C188 H144 1_555 1_555
H145 C188 1_555 1_555
H146 C188 1_555 1_555
C189 H147 1_555 1_555
H148 C189 1_555 1_555
H149 C189 1_555 1_555
C190 H150 1_555 1_555
H151 C190 1_555 1_555
H152 C190 1_555 1_555
C191 C25 1_555 1_555
H153 C191 1_555 1_555
C192 H154 1_555 1_555
H155 C192 1_555 1_555
H156 C192 1_555 1_555
N1 C4 1_555 1_555
N2 C8 1_555 1_555
N3 C20 1_555 1_555
N4 C24 1_555 1_555
N5 C63 1_555 1_555
N6 C67 1_555 1_555
N7 C81 1_555 1_555
N8 C83 1_555 1_555
N9 C93 1_555 1_555
N10 C97 1_555 1_555
N11 C111 1_555 1_555
N12 C113 1_555 1_555
N13 C143 1_555 1_555
N14 C141 1_555 1_555
N15 C127 1_555 1_555
N16 C123 1_555 1_555
N17 C53 1_555 1_555
N18 C51 1_555 1_555
N19 C37 1_555 1_555
N20 C33 1_555 1_555
N21 C173 1_555 1_555
N22 C171 1_555 1_555
N23 C157 1_555 1_555
N24 C153 1_555 1_555
O1 C1 1_555 1_555
O2 C60 1_555 1_555
O3 C30 1_555 1_555
O4 C147 1_555 1_555
O5 C90 1_555 1_555
O6 C87 1_555 1_555
O7 C150 1_555 1_555
O8 C28 1_555 1_555
O9 C117 1_555 1_555
O10 C57 1_555 1_555
O11 C177 1_555 1_555
O12 C120 1_555 1_555
Fe1 N1 1_555 1_555
Fe2 N15 1_555 1_555
Fe3 N7 1_555 1_555
Fe4 N3 1_555 1_555
F1 B1 1_555 1_555
F2 B1 1_555 1_555
F3 B1 1_555 1_555
F4 B1 1_555 1_555
F5 B2 1_555 1_555
F6 B2 1_555 1_555
F7 B2 1_555 1_555
F8 B2 1_555 1_555
F9 B3 1_555 1_555
F10 B3 1_555 1_555
F11 B3 1_555 1_555
F12 B3 1_555 1_555
F13 B4 1_555 1_555
F14 B4 1_555 1_555
F15 B4 1_555 1_555
F16 B4 1_555 1_555
N25 C193 1_555 1_555
C193 C194 1_555 1_555
C194 H157 1_555 1_555
H158 C194 1_555 1_555
H159 C194 1_555 1_555
N26 C195 1_555 1_555
C195 C196 1_555 1_555
C196 H160 1_555 1_555
H161 C196 1_555 1_555
H162 C196 1_555 1_555
N27 C197 1_555 1_555
C197 C198 1_555 1_555
C198 H163 1_555 1_555
H164 C198 1_555 1_555
H165 C198 1_555 1_555
C5 C6 1_555 1_555
C7 N1 1_555 1_555
C12 N2 1_555 1_555
C17 C18 1_555 1_555
C21 N3 1_555 1_555
C22 C23 1_555 1_555
C25 N4 1_555 1_555
C29 C191 1_555 1_555
C34 C35 1_555 1_555
C36 N20 1_555 1_555
C41 N19 1_555 1_555
C46 C47 1_555 1_555
C52 N18 1_555 1_555
C54 N17 1_555 1_555
C58 C59 1_555 1_555
C64 C65 1_555 1_555
C66 N5 1_555 1_555
C71 N6 1_555 1_555
C76 C77 1_555 1_555
C82 N7 1_555 1_555
C84 N8 1_555 1_555
C88 C89 1_555 1_555
C94 C95 1_555 1_555
C96 N9 1_555 1_555
C101 N10 1_555 1_555
C106 C107 1_555 1_555
C112 N11 1_555 1_555
C114 N12 1_555 1_555
C118 C119 1_555 1_555
C124 C125 1_555 1_555
C126 N16 1_555 1_555
C131 N15 1_555 1_555
C136 C137 1_555 1_555
C142 N14 1_555 1_555
C144 N13 1_555 1_555
C148 C149 1_555 1_555
C154 C155 1_555 1_555
C156 N24 1_555 1_555
C161 N23 1_555 1_555
C166 C167 1_555 1_555
C172 N22 1_555 1_555
C174 N21 1_555 1_555
C178 C179 1_555 1_555
C180 O2 1_555 1_555
C181 O1 1_555 1_555
C182 O3 1_555 1_555
C183 O4 1_555 1_555
C184 O6 1_555 1_555
C185 O5 1_555 1_555
C186 O7 1_555 1_555
C187 O9 1_555 1_555
C188 O8 1_555 1_555
C189 O12 1_555 1_555
C190 O10 1_555 1_555
C192 O11 1_555 1_555
N2 Fe1 1_555 1_555
N4 Fe4 1_555 1_555
N5 Fe1 1_555 1_555
N6 Fe1 1_555 1_555
N8 Fe3 1_555 1_555
N9 Fe3 1_555 1_555
N10 Fe3 1_555 1_555
N11 Fe4 1_555 1_555
N12 Fe4 1_555 1_555
N13 Fe3 1_555 1_555
N14 Fe3 1_555 1_555
N16 Fe2 1_555 1_555
N17 Fe2 1_555 1_555
N18 Fe2 1_555 1_555
N19 Fe1 1_555 1_555
N20 Fe1 1_555 1_555
N21 Fe2 1_555 1_555
N22 Fe2 1_555 1_555
N23 Fe4 1_555 1_555
N24 Fe4 1_555 1_555

#END
