
#######################################################################
#
#                 Cambridge Crystallographic Data Centre
#                                CCDC 
#
#######################################################################
#
# If this CIF has been generated from an entry in the Cambridge 
# Structural Database, then it will include bibliographic, chemical, 
# crystal, experimental, refinement or atomic coordinate data resulting 
# from the CCDC's data processing and validation procedures.
#
#######################################################################

data_TIWXUS
_chemical_formula_moiety         
'C66 H42 Ga2 N12 O24 6-,6(C4 H12 N1 1+),6(C3 H7 N1 O1),4(H2 O1)'
_chemical_name_systematic        
'hexakis(Tetramethylammonium) tris(bis(4-amido-2,3-dihydroxybenzamido)-p-phenylene)-di-gallium dimethylformamide solvate tetrahydrate'
_symmetry_cell_setting           trigonal
_symmetry_space_group_name_H-M   'P -3 1 c'
_symmetry_Int_Tables_number      163
_space_group_name_Hall           "-P 3 2'c"
loop_
_symmetry_equiv_pos_site_id
_symmetry_equiv_pos_as_xyz
1 x,y,z
2 -y,x-y,z
3 -y,-x,1/2-z
4 -x+y,-x,z
5 x,x-y,1/2-z
6 -x+y,y,1/2-z
7 -x,-y,-z
8 y,-x+y,-z
9 y,x,1/2+z
10 x-y,x,-z
11 -x,-x+y,1/2+z
12 x-y,-y,1/2+z
_cell_length_a                   14.283(2)
_cell_length_b                   14.283(2)
_cell_length_c                   42.966(2)
_cell_angle_alpha                90
_cell_angle_beta                 90
_cell_angle_gamma                120
_cell_volume                     7590.92
_exptl_crystal_colour            'pale yellow'
_cell_formula_units_Z            2
loop_
_atom_site_label
_atom_site_type_symbol
_atom_site_fract_x
_atom_site_fract_y
_atom_site_fract_z
Ga1 Ga 0.6667 0.3333 0.1118(1)
O1 O 0.6058(4) 0.2057(4) 0.0847(1)
O2 O 0.6997(4) 0.2400(4) 0.1385(1)
O3 O 0.5528(6) -0.0598(5) 0.0293(1)
O4 O 0.7576(7) 0.0073(6) 0.1793(1)
N1 N 0.5488(6) 0.0945(6) 0.0318(2)
N2 N 0.7496(6) 0.1600(6) 0.1863(1)
C1 C 0.6315(6) 0.1322(6) 0.0935(2)
C2 C 0.6143(7) 0.0430(6) 0.0763(2)
C3 C 0.6416(8) -0.0306(8) 0.0893(2)
C4 C 0.6818(8) -0.0183(8) 0.1183(2)
C5 C 0.7025(7) 0.0727(6) 0.1364(2)
C6 C 0.6808(6) 0.1496(6) 0.1238(2)
C7 C 0.5700(7) 0.0228(7) 0.0437(2)
C8 C 0.7405(7) 0.0774(7) 0.1690(2)
C9 C 0.7757(8) 0.1797(7) 0.2184(2)
C10 C 0.8341(9) 0.1450(9) 0.2337(2)
C11 C 0.7406(20) 0.2368(20) 0.2342(3)
H1 H 0.5220(6) 0.0853(6) 0.0134(2)
H2 H 0.5616(6) 0.1508(6) 0.0424(2)
H3 H 0.7383(6) 0.2064(6) 0.1768(1)
H4 H 0.6316(8) -0.0895(8) 0.0775(2)
H5 H 0.6961(8) -0.0702(8) 0.1265(2)
O1A O 0.7943(4) 0.4001(6) 0.0847(1)
C1A C 0.8678(6) 0.4993(8) 0.0935(2)
C2A C 0.9570(6) 0.5713(9) 0.0763(2)
C3A C 1.0306(8) 0.6722(11) 0.0893(2)
C4A C 1.0183(8) 0.7001(11) 0.1183(2)
C5A C 0.9273(6) 0.6298(9) 0.1364(2)
C6A C 0.8504(6) 0.5312(8) 0.1238(2)
O2A O 0.7600(4) 0.4597(6) 0.1385(1)
O1C O 0.5999(6) 0.3942(4) 0.0847(1)
C1C C 0.5007(8) 0.3685(6) 0.0935(2)
C2C C 0.4287(9) 0.3857(7) 0.0763(2)
C3C C 0.3278(11) 0.3584(8) 0.0893(2)
C4C C 0.2999(11) 0.3182(8) 0.1183(2)
C5C C 0.3702(9) 0.2975(7) 0.1364(2)
C6C C 0.4688(8) 0.3192(6) 0.1238(2)
O2C O 0.5403(6) 0.3003(4) 0.1385(1)
C8C C 0.3369(10) 0.2595(7) 0.1690(2)
O4C O 0.2497(9) 0.2424(7) 0.1793(1)
N2C N 0.4104(8) 0.2504(6) 0.1863(1)
C9C C 0.4040(11) 0.2243(8) 0.2184(2)
C10C C 0.3109(13) 0.1659(9) 0.2337(2)
C10E C 0.3109(13) 0.1450(9) 0.2663(2)
C9E C 0.4040(11) 0.1797(7) 0.2816(2)
N2E N 0.4104(8) 0.1600(6) 0.3137(1)
C8E C 0.3369(10) 0.0774(7) 0.3310(2)
O4E O 0.2497(9) 0.0073(6) 0.3207(1)
C5E C 0.3702(9) 0.0727(6) 0.3636(2)
C4E C 0.2999(11) -0.0183(8) 0.3817(2)
C3E C 0.3278(11) -0.0306(8) 0.4107(2)
C2E C 0.4287(9) 0.0430(6) 0.4237(2)
C1E C 0.5007(8) 0.1322(6) 0.4065(2)
O1E O 0.5999(6) 0.2057(4) 0.4153(1)
Ga1E Ga 0.6666 0.3333 0.3882(1)
O1D O 0.6058(4) 0.4001(6) 0.4153(1)
C1D C 0.6315(6) 0.4993(8) 0.4065(2)
C2D C 0.6143(7) 0.5713(9) 0.4237(2)
C3D C 0.6416(8) 0.6722(11) 0.4107(2)
C4D C 0.6818(8) 0.7001(11) 0.3817(2)
C5D C 0.7025(7) 0.6298(9) 0.3636(2)
C6D C 0.6808(6) 0.5312(8) 0.3762(2)
O2D O 0.6997(4) 0.4597(6) 0.3615(1)
O1B O 0.7943(4) 0.3942(4) 0.4153(1)
C1B C 0.8678(6) 0.3685(6) 0.4065(2)
C2B C 0.9570(6) 0.3857(7) 0.4237(2)
C3B C 1.0306(8) 0.3584(8) 0.4107(2)
C4B C 1.0183(8) 0.3182(8) 0.3817(2)
C5B C 0.9273(6) 0.2975(7) 0.3636(2)
C6B C 0.8504(6) 0.3192(6) 0.3762(2)
O2B O 0.7600(4) 0.3003(4) 0.3615(1)
O2E O 0.5403(6) 0.2400(4) 0.3615(1)
C6E C 0.4688(8) 0.1496(6) 0.3762(2)
C8B C 0.9226(7) 0.2595(7) 0.3310(2)
O4B O 0.9927(6) 0.2424(7) 0.3207(1)
N2B N 0.8400(6) 0.2504(6) 0.3137(1)
C9B C 0.8203(7) 0.2243(8) 0.2816(2)
C10B C 0.8550(9) 0.1659(9) 0.2663(2)
C11B C 0.7632(20) 0.2594(20) 0.2658(3)
H3B H 0.7936(6) 0.2617(6) 0.3232(1)
H5B H 1.0702(8) 0.3039(8) 0.3735(2)
H4B H 1.0895(8) 0.3684(8) 0.4225(2)
C7B C 0.9772(7) 0.4300(7) 0.4563(2)
O3B O 1.0598(5) 0.4472(6) 0.4707(1)
N1B N 0.9055(6) 0.4512(6) 0.4682(2)
H1B H 0.9147(6) 0.4780(6) 0.4866(2)
H2B H 0.8492(6) 0.4384(6) 0.4576(2)
C8D C 0.7405(7) 0.6631(10) 0.3310(2)
O4D O 0.7576(7) 0.7503(9) 0.3207(1)
N2D N 0.7496(6) 0.5896(8) 0.3137(1)
C9D C 0.7757(8) 0.5960(11) 0.2816(2)
C10D C 0.8341(9) 0.6891(13) 0.2663(2)
C10A C 0.8550(9) 0.6891(13) 0.2337(2)
C9A C 0.8203(7) 0.5960(11) 0.2184(2)
N2A N 0.8400(6) 0.5896(8) 0.1863(1)
C8A C 0.9226(7) 0.6631(10) 0.1690(2)
O4A O 0.9927(6) 0.7503(9) 0.1793(1)
H3A H 0.7936(6) 0.5319(8) 0.1768(1)
C11A C 0.7632(20) 0.5038(28) 0.2342(3)
C11D C 0.7406(20) 0.5038(28) 0.2658(3)
H3D H 0.7383(6) 0.5319(8) 0.3232(1)
H5D H 0.6961(8) 0.7663(11) 0.3735(2)
H4D H 0.6316(8) 0.7211(11) 0.4225(2)
C7D C 0.5700(7) 0.5472(10) 0.4563(2)
O3D O 0.5528(6) 0.6126(8) 0.4707(1)
N1D N 0.5488(6) 0.4543(8) 0.4682(2)
H1D H 0.5220(6) 0.4367(8) 0.4866(2)
H2D H 0.5616(6) 0.4108(8) 0.4576(2)
C7E C 0.4528(10) 0.0228(7) 0.4563(2)
O3E O 0.3874(8) -0.0598(5) 0.4707(1)
N1E N 0.5457(8) 0.0945(6) 0.4682(2)
H1E H 0.5633(8) 0.0853(6) 0.4866(2)
H2E H 0.5892(8) 0.1508(6) 0.4576(2)
H4E H 0.2789(11) -0.0895(8) 0.4225(2)
H5E H 0.2337(11) -0.0702(8) 0.3735(2)
H3E H 0.4681(8) 0.2064(6) 0.3232(1)
C11E C 0.4962(28) 0.2368(20) 0.2658(3)
C11C C 0.4962(28) 0.2594(20) 0.2342(3)
H3C H 0.4681(8) 0.2617(6) 0.1768(1)
H5C H 0.2337(11) 0.3039(8) 0.1265(2)
H4C H 0.2789(11) 0.3684(8) 0.0775(2)
C7C C 0.4528(10) 0.4300(7) 0.0437(2)
O3C O 0.3874(8) 0.4472(6) 0.0293(1)
N1C N 0.5457(8) 0.4512(6) 0.0318(2)
H1C H 0.5633(8) 0.4780(6) 0.0134(2)
H2C H 0.5892(8) 0.4384(6) 0.0424(2)
H5A H 1.0702(8) 0.7663(11) 0.1265(2)
H4A H 1.0895(8) 0.7211(11) 0.0775(2)
C7A C 0.9772(7) 0.5472(10) 0.0437(2)
O3A O 1.0598(5) 0.6126(8) 0.0293(1)
N1A N 0.9055(6) 0.4543(8) 0.0318(2)
H1A H 0.9147(6) 0.4367(8) 0.0134(2)
H2A H 0.8492(6) 0.4108(8) 0.0424(2)
N3 N 0.3333 -0.3333 0.0576(5)
C12 C 0.3333 -0.3333 0.0236(8)
C13 C 0.4401(21) -0.3205(21) 0.0699(6)
C13A C 0.3205(21) -0.2394(30) 0.0699(6)
C13C C 0.2394(30) -0.4401(21) 0.0699(6)
N4 N 1.0000 0.0000 0.1385(4)
C14 C 1.0000 0.0000 0.1737(8)
C15 C 0.9940(14) 0.0964(13) 0.1273(4)
C15A C 0.9036(13) -0.1024(19) 0.1273(4)
C15C C 1.1024(19) 0.0060(14) 0.1273(4)
O5 O 0.6618(11) -0.2835(11) 0.0997(3)
C16 C 0.7122(20) -0.3236(20) 0.0823(6)
N5 N 0.7630(15) -0.2795(15) 0.0534(5)
C17 C 0.8084(21) -0.3351(21) 0.0391(6)
C18 C 0.7879(22) -0.1851(21) 0.0404(6)
O6 O 0.7878(15) -0.1062(15) 0.2291(4)
loop_
_geom_bond_atom_site_label_1
_geom_bond_atom_site_label_2
_geom_bond_site_symmetry_1
_geom_bond_site_symmetry_2
Ga1 O1 1_555 1_555
O1 C1 1_555 1_555
O2 Ga1 1_555 1_555
O3 C7 1_555 1_555
O4 C8 1_555 1_555
N1 C7 1_555 1_555
N2 C8 1_555 1_555
C1 C2 1_555 1_555
C2 C3 1_555 1_555
C3 C4 1_555 1_555
C4 C5 1_555 1_555
C5 C6 1_555 1_555
C6 O2 1_555 1_555
C7 C2 1_555 1_555
C8 C5 1_555 1_555
C9 N2 1_555 1_555
C10 C9 1_555 1_555
C11 C9 1_555 1_555
H1 N1 1_555 1_555
H2 N1 1_555 1_555
H3 N2 1_555 1_555
H4 C3 1_555 1_555
H5 C4 1_555 1_555
N3 C12 1_555 1_555
C13 N3 1_555 1_555
N4 C14 1_555 1_555
C15 N4 1_555 1_555
O5 C16 1_555 1_555
C16 N5 1_555 1_555
N5 C17 1_555 1_555
C18 N5 1_555 1_555
O1A Ga1 1_555 1_555
C1A O1A 1_555 1_555
C2A C1A 1_555 1_555
C3A C2A 1_555 1_555
C4A C3A 1_555 1_555
C5A C4A 1_555 1_555
C6A C1A 1_555 1_555
O2A Ga1 1_555 1_555
O1C Ga1 1_555 1_555
C1C O1C 1_555 1_555
C2C C1C 1_555 1_555
C3C C2C 1_555 1_555
C4C C3C 1_555 1_555
C5C C4C 1_555 1_555
C6C C1C 1_555 1_555
O2C Ga1 1_555 1_555
C8C C5C 1_555 1_555
O4C C8C 1_555 1_555
N2C C8C 1_555 1_555
C9C N2C 1_555 1_555
C10C C9C 1_555 1_555
C10E C10C 1_555 1_555
C9E C10E 1_555 1_555
N2E C9E 1_555 1_555
C8E N2E 1_555 1_555
O4E C8E 1_555 1_555
C5E C8E 1_555 1_555
C4E C5E 1_555 1_555
C3E C4E 1_555 1_555
C2E C3E 1_555 1_555
C1E C2E 1_555 1_555
O1E C1E 1_555 1_555
Ga1E O1E 1_555 1_555
O1D Ga1E 1_555 1_555
C1D O1D 1_555 1_555
C2D C1D 1_555 1_555
C3D C2D 1_555 1_555
C4D C3D 1_555 1_555
C5D C4D 1_555 1_555
C6D C1D 1_555 1_555
O2D Ga1E 1_555 1_555
O1B Ga1E 1_555 1_555
C1B O1B 1_555 1_555
C2B C1B 1_555 1_555
C3B C2B 1_555 1_555
C4B C3B 1_555 1_555
C5B C4B 1_555 1_555
C6B C1B 1_555 1_555
O2B Ga1E 1_555 1_555
O2E Ga1E 1_555 1_555
C6E C5E 1_555 1_555
C8B C5B 1_555 1_555
O4B C8B 1_555 1_555
N2B C8B 1_555 1_555
C9B N2B 1_555 1_555
C10B C10 1_555 1_555
C11B C11 1_555 1_555
H3B N2B 1_555 1_555
H5B C4B 1_555 1_555
H4B C3B 1_555 1_555
C7B C2B 1_555 1_555
O3B C7B 1_555 1_555
N1B C7B 1_555 1_555
H1B N1B 1_555 1_555
H2B N1B 1_555 1_555
C8D C5D 1_555 1_555
O4D C8D 1_555 1_555
N2D C8D 1_555 1_555
C9D N2D 1_555 1_555
C10D C9D 1_555 1_555
C10A C10D 1_555 1_555
C9A C10A 1_555 1_555
N2A C9A 1_555 1_555
C8A C5A 1_555 1_555
O4A C8A 1_555 1_555
H3A N2A 1_555 1_555
C11A C9A 1_555 1_555
C11D C9D 1_555 1_555
H3D N2D 1_555 1_555
H5D C4D 1_555 1_555
H4D C3D 1_555 1_555
C7D C2D 1_555 1_555
O3D C7D 1_555 1_555
N1D C7D 1_555 1_555
H1D N1D 1_555 1_555
H2D N1D 1_555 1_555
C7E C2E 1_555 1_555
O3E C7E 1_555 1_555
N1E C7E 1_555 1_555
H1E N1E 1_555 1_555
H2E N1E 1_555 1_555
H4E C3E 1_555 1_555
H5E C4E 1_555 1_555
H3E N2E 1_555 1_555
C11E C9E 1_555 1_555
C11C C9C 1_555 1_555
H3C N2C 1_555 1_555
H5C C4C 1_555 1_555
H4C C3C 1_555 1_555
C7C C2C 1_555 1_555
O3C C7C 1_555 1_555
N1C C7C 1_555 1_555
H1C N1C 1_555 1_555
H2C N1C 1_555 1_555
H5A C4A 1_555 1_555
H4A C3A 1_555 1_555
C7A C2A 1_555 1_555
O3A C7A 1_555 1_555
N1A C7A 1_555 1_555
H1A N1A 1_555 1_555
H2A N1A 1_555 1_555
C13A N3 1_555 1_555
C13C N3 1_555 1_555
C15A N4 1_555 1_555
C15C N4 1_555 1_555
C1 C6 1_555 1_555
C5A C6A 1_555 1_555
C6A O2A 1_555 1_555
C5C C6C 1_555 1_555
C6C O2C 1_555 1_555
C1E C6E 1_555 1_555
C5D C6D 1_555 1_555
C6D O2D 1_555 1_555
C5B C6B 1_555 1_555
C6B O2B 1_555 1_555
O2E C6E 1_555 1_555
C9B C10B 1_555 1_555
C9B C11B 1_555 1_555
N2A C8A 1_555 1_555
C11A C11D 1_555 1_555
C11E C11C 1_555 1_555

#END
