
#######################################################################
#
#                 Cambridge Crystallographic Data Centre
#                                CCDC 
#
#######################################################################
#
# If this CIF has been generated from an entry in the Cambridge 
# Structural Database, then it will include bibliographic, chemical, 
# crystal, experimental, refinement or atomic coordinate data resulting 
# from the CCDC's data processing and validation procedures.
#
#######################################################################

data_TOBDIZ
_chemical_formula_moiety         
'C252 H200 B8 Co4 Fe8 N96,10(C2 H3 N1),4(H2 O1)'
_chemical_name_systematic        
'dodecakis(\m~2~-Cyano)-dodecacyano-octakis(hydridotris(pyrazol-1-yl)borate)-hexakis(N,N-diphenyl-4-(3-(pyridin-2-yl)-1H-pyrazol-5-yl)aniline)-tetra-cobalt-octa-iron acetonitrile solvate tetrahydrate'
_symmetry_cell_setting           triclinic
_symmetry_space_group_name_H-M   'P -1'
_symmetry_Int_Tables_number      2
_space_group_name_Hall           '-P 1'
loop_
_symmetry_equiv_pos_site_id
_symmetry_equiv_pos_as_xyz
1 x,y,z
2 -x,-y,-z
_cell_length_a                   17.580(3)
_cell_length_b                   20.775(4)
_cell_length_c                   22.197(4)
_cell_angle_alpha                69.306(3)
_cell_angle_beta                 79.909(4)
_cell_angle_gamma                72.101(4)
_cell_volume                     7196.55
_exptl_crystal_colour            green
_exptl_crystal_description       plate
_cell_formula_units_Z            1
loop_
_atom_site_label
_atom_site_type_symbol
_atom_site_fract_x
_atom_site_fract_y
_atom_site_fract_z
C1 C 0.0889(8) 0.9155(9) 0.3509(7)
H1 H 0.1080 0.9494 0.3592
C2 C 0.0712(9) 0.9270(9) 0.2893(8)
H2 H 0.0764 0.9697 0.2559
C3 C 0.0458(10) 0.8765(9) 0.2753(8)
H3 H 0.0336 0.8838 0.2330
C4 C 0.0394(10) 0.8175(9) 0.3242(7)
H4 H 0.0236 0.7818 0.3158
C5 C 0.0549(10) 0.8067(9) 0.3863(8)
C6 C 0.0405(10) 0.7489(8) 0.4435(8)
C7 C 0.0115(9) 0.6904(9) 0.4556(8)
H5 H -0.0033 0.6745 0.4252
C8 C 0.0091(10) 0.6604(9) 0.5214(8)
C9 C -0.0213(10) 0.5970(9) 0.5623(8)
C10 C -0.0701(10) 0.5754(9) 0.5342(7)
H6 H -0.0823 0.5996 0.4905
C11 C -0.1008(11) 0.5172(9) 0.5715(8)
H7 H -0.1350 0.5030 0.5528
C12 C -0.0828(11) 0.4807(9) 0.6337(8)
C13 C -0.0343(10) 0.5030(8) 0.6612(7)
H8 H -0.0223 0.4789 0.7050
C14 C -0.0036(10) 0.5601(9) 0.6252(7)
H9 H 0.0304 0.5741 0.6443
C15 C -0.1954(12) 0.4309(10) 0.6730(8)
C16 C -0.2507(11) 0.4930(10) 0.6758(8)
H10 H -0.2322 0.5310 0.6767
C17 C -0.3313(12) 0.5024(11) 0.6772(9)
H11 H -0.3675 0.5469 0.6775
C18 C -0.3603(13) 0.4472(11) 0.6782(9)
H12 H -0.4163 0.4529 0.6800
C19 C -0.3065(11) 0.3846(10) 0.6764(8)
H13 H -0.3259 0.3459 0.6783
C20 C -0.2262(12) 0.3756(10) 0.6720(8)
H14 H -0.1904 0.3321 0.6683
C21 C -0.0632(12) 0.3595(10) 0.7130(9)
C22 C -0.0941(13) 0.3202(10) 0.7695(9)
H15 H -0.1488 0.3342 0.7844
C23 C -0.0385(13) 0.2554(11) 0.8059(10)
H16 H -0.0588 0.2246 0.8439
C24 C 0.0408(13) 0.2372(11) 0.7879(10)
H17 H 0.0753 0.1954 0.8141
C25 C 0.0712(13) 0.2791(10) 0.7319(10)
H18 H 0.1267 0.2674 0.7186
C26 C 0.0178(12) 0.3393(10) 0.6952(9)
H19 H 0.0381 0.3682 0.6559
C27 C 0.0697(10) 0.8307(9) 0.6269(7)
H20 H 0.0191 0.8637 0.6162
C28 C 0.0919(10) 0.8117(8) 0.6887(8)
H21 H 0.0584 0.8327 0.7190
C29 C 0.1627(9) 0.7621(9) 0.7054(8)
H22 H 0.1786 0.7464 0.7482
C30 C 0.2112(10) 0.7348(9) 0.6588(7)
H23 H 0.2611 0.7006 0.6694
C31 C 0.1867(10) 0.7577(9) 0.5965(8)
C32 C 0.2333(10) 0.7387(9) 0.5440(8)
C33 C 0.3083(10) 0.6925(9) 0.5337(7)
H24 H 0.3436 0.6594 0.5655
C34 C 0.3196(10) 0.7056(9) 0.4679(8)
C35 C 0.3907(10) 0.6762(10) 0.4301(8)
C36 C 0.4295(10) 0.6053(10) 0.4499(8)
H25 H 0.4053 0.5738 0.4846
C37 C 0.5042(10) 0.5769(10) 0.4207(8)
H26 H 0.5308 0.5275 0.4364
C38 C 0.5382(11) 0.6225(10) 0.3685(9)
C39 C 0.4989(10) 0.6907(10) 0.3464(9)
H27 H 0.5213 0.7216 0.3098
C40 C 0.4238(10) 0.7185(10) 0.3763(8)
H28 H 0.3960 0.7673 0.3586
C41 C 0.6751(11) 0.5451(11) 0.3870(9)
C42 C 0.6722(11) 0.5460(11) 0.4504(9)
H29 H 0.6313 0.5805 0.4651
C43 C 0.7296(11) 0.4959(11) 0.4915(10)
H30 H 0.7296 0.4979 0.5336
C44 C 0.7866(12) 0.4433(12) 0.4711(10)
H31 H 0.8234 0.4068 0.4999
C45 C 0.7888(12) 0.4449(12) 0.4084(10)
H32 H 0.8297 0.4105 0.3936
C46 C 0.7348(11) 0.4938(11) 0.3670(9)
H33 H 0.7378 0.4929 0.3242
C47 C 0.6430(13) 0.6352(10) 0.2842(8)
C48 C 0.6957(12) 0.6746(13) 0.2809(9)
H34 H 0.7155 0.6716 0.3192
C49 C 0.7194(11) 0.7184(11) 0.2215(13)
H35 H 0.7554 0.7453 0.2192
C50 C 0.6904(13) 0.7227(11) 0.1654(8)
H36 H 0.7066 0.7527 0.1248
C51 C 0.6377(13) 0.6833(12) 0.1687(8)
H37 H 0.6179 0.6863 0.1303
C52 C 0.6140(11) 0.6396(11) 0.2281(12)
H38 H 0.5780 0.6127 0.2303
N1 N 0.1503(8) 1.1781(7) 0.1030(6)
C53 C 0.1128(11) 1.1801(9) 0.0568(8)
H39 H 0.0727 1.1550 0.0689
C54 C 0.1251(11) 1.2146(9) -0.0073(8)
H40 H 0.0951 1.2134 -0.0384
C55 C 0.1831(11) 1.2512(10) -0.0250(9)
H41 H 0.1933 1.2772 -0.0690
C56 C 0.2265(11) 1.2496(9) 0.0224(8)
H42 H 0.2682 1.2727 0.0118
C57 C 0.2063(11) 1.2127(9) 0.0863(8)
C58 C 0.2480(10) 1.2117(9) 0.1392(8)
C59 C 0.3047(10) 1.2439(9) 0.1432(8)
H43 H 0.3299 1.2743 0.1082
C60 C 0.3176(10) 1.2232(9) 0.2082(8)
C61 C 0.3680(10) 1.2394(9) 0.2399(8)
C62 C 0.4009(11) 1.2984(11) 0.2087(9)
H44 H 0.3907 1.3262 0.1652
C63 C 0.4465(12) 1.3152(10) 0.2406(9)
H45 H 0.4658 1.3564 0.2193
C64 C 0.4663(11) 1.2758(11) 0.3019(9)
C65 C 0.4366(12) 1.2167(10) 0.3352(9)
H46 H 0.4498 1.1887 0.3781
C66 C 0.3864(10) 1.1999(10) 0.3032(9)
H47 H 0.3646 1.1605 0.3255
C67 C 0.5312(17) 1.2549(13) 0.4014(13)
C68 C 0.4736(18) 1.2712(13) 0.4486(12)
H48 H 0.4256 1.3077 0.4363
C69 C 0.4845(19) 1.2352(14) 0.5143(13)
H49 H 0.4459 1.2465 0.5473
C70 C 0.552(2) 1.1842(15) 0.5273(14)
H50 H 0.5608 1.1596 0.5717
C71 C 0.6145(19) 1.1622(15) 0.4821(14)
H51 H 0.6601 1.1235 0.4963
C72 C 0.6057(17) 1.2006(13) 0.4141(13)
H52 H 0.6453 1.1908 0.3811
C73 C 0.5643(12) 1.3422(11) 0.3000(10)
C74 C 0.5597(11) 1.3981(10) 0.3211(10)
H53 H 0.5250 1.4037 0.3580
C75 C 0.6049(12) 1.4470(11) 0.2895(10)
H54 H 0.6010 1.4864 0.3033
C76 C 0.6553(12) 1.4354(11) 0.2375(10)
H55 H 0.6868 1.4679 0.2155
C77 C 0.6628(12) 1.3797(11) 0.2154(10)
H56 H 0.6983 1.3739 0.1790
C78 C 0.6180(11) 1.3330(11) 0.2473(9)
H57 H 0.6232 1.2934 0.2334
C79 C 0.1550(9) 0.9644(9) 0.4612(7)
C80 C 0.1454(10) 1.0848(8) 0.3621(8)
C81 C -0.0769(11) 0.9121(9) 0.5198(8)
C82 C 0.0288(9) 1.2937(9) 0.1924(8)
C83 C -0.1026(10) 1.4025(10) 0.1540(8)
C84 C -0.0450(10) 1.3620(8) 0.2701(8)
C85 C -0.0252(10) 1.1044(9) 0.1740(8)
C86 C -0.1924(11) 1.1499(11) 0.1852(9)
C87 C -0.1078(13) 1.0116(13) 0.1780(10)
C88 C 0.2411(11) 0.9779(10) 0.1979(8)
C89 C 0.2696(9) 0.8401(8) 0.2567(9)
C90 C 0.2015(11) 0.8927(10) 0.1500(9)
C91 C 0.1991(11) 0.9718(10) 0.5915(8)
H58 H 0.1517 0.9563 0.5993
C92 C 0.2510(11) 0.9562(10) 0.6379(8)
H59 H 0.2462 0.9293 0.6824
C93 C 0.3102(11) 0.9877(10) 0.6065(8)
H60 H 0.3548 0.9878 0.6252
C94 C 0.1643(10) 1.2084(9) 0.4215(7)
H61 H 0.1127 1.2255 0.4052
C95 C 0.2072(10) 1.2498(10) 0.4312(7)
H62 H 0.1914 1.3002 0.4218
C96 C 0.2755(10) 1.2046(9) 0.4565(8)
H63 H 0.3157 1.2172 0.4699
C97 C 0.3259(10) 1.0003(9) 0.3595(8)
H64 H 0.2961 0.9900 0.3339
C98 C 0.4064(10) 0.9953(9) 0.3469(9)
H65 H 0.4418 0.9821 0.3131
C99 C 0.4225(10) 1.0142(9) 0.3952(8)
H66 H 0.4740 1.0153 0.4018
C100 C -0.1011(11) 1.5369(10) 0.1950(8)
H67 H -0.1474 1.5216 0.2160
C101 C -0.0940(11) 1.6060(10) 0.1814(9)
H68 H -0.1317 1.6453 0.1916
C102 C -0.0187(12) 1.6032(10) 0.1494(8)
H69 H 0.0050 1.6420 0.1328
C103 C 0.0494(9) 1.3944(9) 0.0459(7)
H70 H 0.0255 1.3583 0.0482
C104 C 0.0920(11) 1.4278(9) -0.0081(8)
H71 H 0.1016 1.4211 -0.0492
C105 C 0.1177(10) 1.4735(9) 0.0115(8)
H72 H 0.1503 1.5038 -0.0139
C106 C 0.1432(10) 1.3458(9) 0.2609(8)
H73 H 0.1308 1.3048 0.2925
C107 C 0.2078(10) 1.3675(9) 0.2607(8)
H74 H 0.2487 1.3451 0.2900
C108 C 0.2020(10) 1.4290(9) 0.2089(8)
H75 H 0.2376 1.4586 0.1963
C109 C 0.0390(12) 1.0406(11) 0.0565(10)
H76 H 0.0674 1.0118 0.0938
C110 C 0.0698(13) 1.0440(11) -0.0073(10)
H77 H 0.1203 1.0179 -0.0210
C111 C 0.0096(12) 1.0941(11) -0.0456(10)
H78 H 0.0127 1.1091 -0.0915
C112 C -0.2639(12) 1.0867(12) 0.1021(11)
H79 H -0.2764 1.0613 0.1459
C113 C -0.3101(13) 1.1010(14) 0.0532(10)
H80 H -0.3598 1.0907 0.0558
C114 C -0.2667(13) 1.1346(13) -0.0016(11)
H81 H -0.2803 1.1497 -0.0449
C115 C -0.1196(12) 1.2707(9) 0.0845(9)
H82 H -0.1130 1.2722 0.1255
C116 C -0.1307(13) 1.3283(11) 0.0279(9)
H83 H -0.1335 1.3763 0.0226
C117 C -0.1368(14) 1.3014(10) -0.0183(9)
H84 H -0.1437 1.3283 -0.0625
C118 C 0.3352(12) 0.7494(10) 0.1522(9)
H85 H 0.2901 0.7344 0.1767
C119 C 0.3911(12) 0.7134(11) 0.1194(9)
H86 H 0.3943 0.6673 0.1185
C120 C 0.4440(13) 0.7530(10) 0.0869(9)
H87 H 0.4879 0.7413 0.0574
N2 N 0.4220(9) 0.8102(8) 0.1045(7)
N3 N 0.3522(9) 0.8113(8) 0.1453(6)
C121 C 0.2830(11) 1.0169(10) 0.0477(8)
H88 H 0.2288 1.0399 0.0572
C122 C 0.3279(12) 1.0443(10) -0.0078(8)
H89 H 0.3122 1.0880 -0.0417
C123 C 0.4018(12) 0.9932(11) -0.0025(9)
H90 H 0.4468 0.9941 -0.0332
C124 C 0.4286(11) 0.8901(10) 0.2478(9)
H91 H 0.3949 0.8955 0.2851
C125 C 0.5109(11) 0.8807(10) 0.2413(9)
H92 H 0.5434 0.8799 0.2717
C126 C 0.5348(12) 0.8729(11) 0.1822(10)
H93 H 0.5886 0.8644 0.1639
B1 B 0.3352(12) 1.0647(11) 0.4868(9)
H94 H 0.3848 1.0694 0.4992
B2 B 0.0985(11) 1.5010(10) 0.1214(9)
H95 H 0.1320 1.5354 0.1011
B3 B -0.1373(16) 1.1736(12) -0.0188(12)
H96 H -0.1452 1.1943 -0.0661
B4 B 0.4556(14) 0.8745(12) 0.0885(11)
H97 H 0.5073 0.8678 0.0613
N4 N 0.0795(8) 0.8576(7) 0.3989(6)
N5 N 0.0558(7) 0.7526(7) 0.4983(6)
N6 N 0.0360(8) 0.6990(7) 0.5466(6)
H98 H 0.0398 0.6903 0.5879
N7 N -0.1121(8) 0.4215(7) 0.6704(7)
N8 N 0.1157(8) 0.8052(7) 0.5814(6)
N9 N 0.2003(8) 0.7751(7) 0.4874(6)
N10 N 0.2547(7) 0.7537(7) 0.4410(6)
H99 H 0.2477 0.7696 0.3995
N11 N 0.6161(8) 0.5938(8) 0.3446(7)
N12 N 0.2261(8) 1.1708(7) 0.1976(6)
N13 N 0.2676(8) 1.1791(7) 0.2375(6)
H100 H 0.2635 1.1581 0.2795
N14 N 0.5157(10) 1.2938(9) 0.3349(8)
N15 N 0.1356(8) 0.9138(7) 0.4727(6)
N16 N 0.1267(8) 1.1000(7) 0.3095(6)
N17 N -0.0100(8) 0.8865(7) 0.5041(6)
N18 N 0.0531(8) 1.2333(7) 0.2019(6)
N19 N -0.1641(9) 1.4112(8) 0.1364(7)
N20 N -0.0656(8) 1.3394(7) 0.3249(6)
N21 N 0.0284(8) 1.1041(7) 0.1956(6)
N22 N -0.2438(10) 1.1736(9) 0.2166(8)
N23 N -0.1135(11) 0.9550(10) 0.2069(10)
N24 N 0.2038(8) 1.0315(8) 0.2069(6)
N25 N 0.2505(8) 0.8057(7) 0.3076(7)
N26 N 0.1397(9) 0.8912(8) 0.1375(7)
N27 N 0.2241(8) 1.0104(8) 0.5355(6)
N28 N 0.2943(8) 1.0190(8) 0.5432(6)
N29 N 0.2078(8) 1.1410(8) 0.4388(6)
N30 N 0.2770(8) 1.1377(7) 0.4596(6)
N31 N 0.2935(7) 1.0207(7) 0.4106(6)
N32 N 0.3548(8) 1.0311(7) 0.4325(6)
N33 N -0.0352(9) 1.4956(7) 0.1750(6)
N34 N 0.0154(9) 1.5380(8) 0.1453(6)
N35 N 0.0460(8) 1.4184(7) 0.0934(6)
N36 N 0.0880(8) 1.4674(7) 0.0734(6)
N37 N 0.0982(8) 1.3881(7) 0.2117(6)
N38 N 0.1378(8) 1.4394(7) 0.1799(6)
N39 N -0.0354(9) 1.0832(9) 0.0579(7)
N40 N -0.0540(10) 1.1181(9) -0.0075(8)
N41 N -0.1998(9) 1.1117(9) 0.0824(7)
N42 N -0.2050(11) 1.1414(9) 0.0169(8)
N43 N -0.1196(9) 1.2120(8) 0.0710(6)
N44 N -0.1319(10) 1.2327(8) 0.0076(7)
N45 N 0.3218(8) 0.9569(7) 0.0851(6)
N46 N 0.3969(9) 0.9425(8) 0.0547(7)
N47 N 0.4038(8) 0.8905(7) 0.1952(7)
N48 N 0.4698(9) 0.8793(8) 0.1534(7)
Fe1 Fe 0.18043(14) 1.05096(13) 0.44727(11)
Fe2 Fe -0.00320(15) 1.39352(13) 0.18294(11)
Fe3 Fe -0.11160(17) 1.11063(15) 0.12555(13)
Fe4 Fe 0.29829(15) 0.89457(13) 0.17263(12)
Co1 Co 0.09519(14) 0.83408(12) 0.49011(10)
Co2 Co 0.12679(13) 1.13035(12) 0.20959(10)
C1A C -0.0889(8) 1.0845(9) 0.6491(7)
H1A H -0.1080 1.0506 0.6408
C2A C -0.0712(9) 1.0730(9) 0.7107(8)
H2A H -0.0764 1.0303 0.7441
C3A C -0.0458(10) 1.1235(9) 0.7247(8)
H3A H -0.0336 1.1162 0.7670
C4A C -0.0394(10) 1.1825(9) 0.6758(7)
H4A H -0.0236 1.2182 0.6842
C5A C -0.0549(10) 1.1933(9) 0.6137(8)
C6A C -0.0405(10) 1.2511(8) 0.5565(8)
C7A C -0.0115(9) 1.3096(9) 0.5444(8)
H5A H 0.0033 1.3255 0.5748
C8A C -0.0091(10) 1.3396(9) 0.4786(8)
C9A C 0.0213(10) 1.4030(9) 0.4377(8)
C10A C 0.0701(10) 1.4246(9) 0.4658(7)
H6A H 0.0823 1.4004 0.5095
C11A C 0.1008(11) 1.4828(9) 0.4285(8)
H7A H 0.1350 1.4970 0.4472
C12A C 0.0828(11) 1.5193(9) 0.3663(8)
C13A C 0.0343(10) 1.4970(8) 0.3388(7)
H8A H 0.0223 1.5211 0.2950
C14A C 0.0036(10) 1.4399(9) 0.3748(7)
H9A H -0.0304 1.4259 0.3557
C15A C 0.1954(12) 1.5691(10) 0.3270(8)
C16A C 0.2507(11) 1.5070(10) 0.3242(8)
H10A H 0.2322 1.4690 0.3233
C17A C 0.3313(12) 1.4976(11) 0.3228(9)
H11A H 0.3675 1.4531 0.3225
C18A C 0.3603(13) 1.5528(11) 0.3218(9)
H12A H 0.4163 1.5471 0.3200
C19A C 0.3065(11) 1.6154(10) 0.3236(8)
H13A H 0.3259 1.6541 0.3217
C20A C 0.2262(12) 1.6244(10) 0.3280(8)
H14A H 0.1904 1.6679 0.3317
C21A C 0.0632(12) 1.6405(10) 0.2870(9)
C22A C 0.0941(13) 1.6798(10) 0.2305(9)
H15A H 0.1488 1.6658 0.2156
C23A C 0.0385(13) 1.7446(11) 0.1941(10)
H16A H 0.0588 1.7754 0.1561
C24A C -0.0408(13) 1.7628(11) 0.2121(10)
H17A H -0.0753 1.8046 0.1859
C25A C -0.0712(13) 1.7209(10) 0.2681(10)
H18A H -0.1267 1.7326 0.2814
C26A C -0.0178(12) 1.6607(10) 0.3048(9)
H19A H -0.0381 1.6318 0.3441
C27A C -0.0697(10) 1.1693(9) 0.3731(7)
H20A H -0.0191 1.1363 0.3838
C28A C -0.0919(10) 1.1883(8) 0.3113(8)
H21A H -0.0584 1.1673 0.2810
C29A C -0.1627(9) 1.2379(9) 0.2946(8)
H22A H -0.1786 1.2536 0.2518
C30A C -0.2112(10) 1.2652(9) 0.3412(7)
H23A H -0.2611 1.2994 0.3306
C31A C -0.1867(10) 1.2423(9) 0.4035(8)
C32A C -0.2333(10) 1.2613(9) 0.4560(8)
C33A C -0.3083(10) 1.3075(9) 0.4663(7)
H24A H -0.3436 1.3406 0.4345
C34A C -0.3196(10) 1.2944(9) 0.5321(8)
C35A C -0.3907(10) 1.3238(10) 0.5699(8)
C36A C -0.4295(10) 1.3947(10) 0.5501(8)
H25A H -0.4053 1.4262 0.5154
C37A C -0.5042(10) 1.4231(10) 0.5793(8)
H26A H -0.5308 1.4725 0.5636
C38A C -0.5382(11) 1.3775(10) 0.6315(9)
C39A C -0.4989(10) 1.3093(10) 0.6536(9)
H27A H -0.5213 1.2784 0.6902
C40A C -0.4238(10) 1.2815(10) 0.6237(8)
H28A H -0.3960 1.2327 0.6414
C41A C -0.6751(11) 1.4549(11) 0.6130(9)
C42A C -0.6722(11) 1.4540(11) 0.5496(9)
H29A H -0.6313 1.4195 0.5349
C43A C -0.7296(11) 1.5041(11) 0.5085(10)
H30A H -0.7296 1.5021 0.4664
C44A C -0.7866(12) 1.5567(12) 0.5289(10)
H31A H -0.8234 1.5932 0.5001
C45A C -0.7888(12) 1.5551(12) 0.5916(10)
H32A H -0.8297 1.5895 0.6064
C46A C -0.7348(11) 1.5062(11) 0.6330(9)
H33A H -0.7378 1.5071 0.6758
C47A C -0.6430(13) 1.3648(10) 0.7158(8)
C48A C -0.6957(12) 1.3254(13) 0.7191(9)
H34A H -0.7155 1.3284 0.6808
C49A C -0.7194(11) 1.2816(11) 0.7785(13)
H35A H -0.7554 1.2547 0.7808
C50A C -0.6904(13) 1.2773(11) 0.8346(8)
H36A H -0.7066 1.2473 0.8752
C51A C -0.6377(13) 1.3167(12) 0.8313(8)
H37A H -0.6179 1.3137 0.8697
C52A C -0.6140(11) 1.3604(11) 0.7719(12)
H38A H -0.5780 1.3873 0.7697
N1A N -0.1503(8) 0.8219(7) 0.8970(6)
C53A C -0.1128(11) 0.8199(9) 0.9432(8)
H39A H -0.0727 0.8450 0.9311
C54A C -0.1251(11) 0.7854(9) 1.0073(8)
H40A H -0.0951 0.7866 1.0384
C55A C -0.1831(11) 0.7488(10) 1.0250(9)
H41A H -0.1933 0.7228 1.0690
C56A C -0.2265(11) 0.7504(9) 0.9776(8)
H42A H -0.2682 0.7273 0.9882
C57A C -0.2063(11) 0.7873(9) 0.9137(8)
C58A C -0.2480(10) 0.7883(9) 0.8608(8)
C59A C -0.3047(10) 0.7561(9) 0.8568(8)
H43A H -0.3299 0.7257 0.8918
C60A C -0.3176(10) 0.7768(9) 0.7918(8)
C61A C -0.3680(10) 0.7606(9) 0.7601(8)
C62A C -0.4009(11) 0.7016(11) 0.7913(9)
H44A H -0.3907 0.6738 0.8348
C63A C -0.4465(12) 0.6848(10) 0.7594(9)
H45A H -0.4658 0.6436 0.7807
C64A C -0.4663(11) 0.7242(11) 0.6981(9)
C65A C -0.4366(12) 0.7833(10) 0.6648(9)
H46A H -0.4498 0.8113 0.6219
C66A C -0.3864(10) 0.8001(10) 0.6968(9)
H47A H -0.3646 0.8395 0.6745
C67A C -0.5312(17) 0.7451(13) 0.5986(13)
C68A C -0.4736(18) 0.7288(13) 0.5514(12)
H48A H -0.4256 0.6923 0.5637
C69A C -0.4845(19) 0.7648(14) 0.4857(13)
H49A H -0.4459 0.7535 0.4527
C70A C -0.552(2) 0.8158(15) 0.4727(14)
H50A H -0.5608 0.8404 0.4283
C71A C -0.6145(19) 0.8378(15) 0.5179(14)
H51A H -0.6601 0.8765 0.5037
C72A C -0.6057(17) 0.7994(13) 0.5859(13)
H52A H -0.6453 0.8092 0.6189
C73A C -0.5643(12) 0.6578(11) 0.7000(10)
C74A C -0.5597(11) 0.6019(10) 0.6789(10)
H53A H -0.5250 0.5963 0.6420
C75A C -0.6049(12) 0.5530(11) 0.7105(10)
H54A H -0.6010 0.5136 0.6967
C76A C -0.6553(12) 0.5646(11) 0.7625(10)
H55A H -0.6868 0.5321 0.7845
C77A C -0.6628(12) 0.6203(11) 0.7846(10)
H56A H -0.6983 0.6261 0.8210
C78A C -0.6180(11) 0.6670(11) 0.7527(9)
H57A H -0.6232 0.7066 0.7666
C79A C -0.1550(9) 1.0356(9) 0.5388(7)
C80A C -0.1454(10) 0.9152(8) 0.6379(8)
C81A C 0.0769(11) 1.0879(9) 0.4802(8)
C82A C -0.0288(9) 0.7063(9) 0.8076(8)
C83A C 0.1026(10) 0.5975(10) 0.8460(8)
C84A C 0.0450(10) 0.6380(8) 0.7299(8)
C85A C 0.0252(10) 0.8956(9) 0.8260(8)
C86A C 0.1924(11) 0.8501(11) 0.8148(9)
C87A C 0.1078(13) 0.9884(13) 0.8220(10)
C88A C -0.2411(11) 1.0221(10) 0.8021(8)
C89A C -0.2696(9) 1.1599(8) 0.7433(9)
C90A C -0.2015(11) 1.1073(10) 0.8500(9)
C91A C -0.1991(11) 1.0282(10) 0.4085(8)
H58A H -0.1517 1.0437 0.4007
C92A C -0.2510(11) 1.0438(10) 0.3621(8)
H59A H -0.2462 1.0707 0.3176
C93A C -0.3102(11) 1.0123(10) 0.3935(8)
H60A H -0.3548 1.0122 0.3748
C94A C -0.1643(10) 0.7916(9) 0.5785(7)
H61A H -0.1127 0.7745 0.5948
C95A C -0.2072(10) 0.7502(10) 0.5688(7)
H62A H -0.1914 0.6998 0.5782
C96A C -0.2755(10) 0.7954(9) 0.5435(8)
H63A H -0.3157 0.7828 0.5301
C97A C -0.3259(10) 0.9997(9) 0.6405(8)
H64A H -0.2961 1.0100 0.6661
C98A C -0.4064(10) 1.0047(9) 0.6531(9)
H65A H -0.4418 1.0179 0.6869
C99A C -0.4225(10) 0.9858(9) 0.6048(8)
H66A H -0.4740 0.9847 0.5982
C100A C 0.1011(11) 0.4631(10) 0.8050(8)
H67A H 0.1474 0.4784 0.7840
C101A C 0.0940(11) 0.3940(10) 0.8186(9)
H68A H 0.1317 0.3547 0.8084
C102A C 0.0187(12) 0.3968(10) 0.8506(8)
H69A H -0.0050 0.3580 0.8672
C103A C -0.0494(9) 0.6056(9) 0.9541(7)
H70A H -0.0255 0.6417 0.9518
C104A C -0.0920(11) 0.5722(9) 1.0081(8)
H71A H -0.1016 0.5789 1.0492
C105A C -0.1177(10) 0.5265(9) 0.9885(8)
H72A H -0.1503 0.4962 1.0139
C106A C -0.1432(10) 0.6542(9) 0.7391(8)
H73A H -0.1308 0.6952 0.7075
C107A C -0.2078(10) 0.6325(9) 0.7393(8)
H74A H -0.2487 0.6549 0.7100
C108A C -0.2020(10) 0.5710(9) 0.7911(8)
H75A H -0.2376 0.5414 0.8037
C109A C -0.0390(12) 0.9594(11) 0.9435(10)
H76A H -0.0674 0.9882 0.9062
C110A C -0.0698(13) 0.9560(11) 1.0073(10)
H77A H -0.1203 0.9821 1.0210
C111A C -0.0096(12) 0.9059(11) 1.0456(10)
H78A H -0.0127 0.8909 1.0915
C112A C 0.2639(12) 0.9133(12) 0.8979(11)
H79A H 0.2764 0.9387 0.8541
C113A C 0.3101(13) 0.8990(14) 0.9468(10)
H80A H 0.3598 0.9093 0.9442
C114A C 0.2667(13) 0.8654(13) 1.0016(11)
H81A H 0.2803 0.8503 1.0449
C115A C 0.1196(12) 0.7293(9) 0.9155(9)
H82A H 0.1130 0.7278 0.8745
C116A C 0.1307(13) 0.6717(11) 0.9721(9)
H83A H 0.1335 0.6237 0.9774
C117A C 0.1368(14) 0.6986(10) 1.0183(9)
H84A H 0.1437 0.6717 1.0625
C118A C -0.3352(12) 1.2506(10) 0.8478(9)
H85A H -0.2901 1.2656 0.8233
C119A C -0.3911(12) 1.2866(11) 0.8806(9)
H86A H -0.3943 1.3327 0.8815
C120A C -0.4440(13) 1.2470(10) 0.9131(9)
H87A H -0.4879 1.2587 0.9426
N2A N -0.4220(9) 1.1898(8) 0.8955(7)
N3A N -0.3522(9) 1.1887(8) 0.8547(6)
C121A C -0.2830(11) 0.9831(10) 0.9523(8)
H88A H -0.2288 0.9601 0.9428
C122A C -0.3279(12) 0.9557(10) 1.0078(8)
H89A H -0.3122 0.9120 1.0417
C123A C -0.4018(12) 1.0068(11) 1.0025(9)
H90A H -0.4468 1.0059 1.0332
C124A C -0.4286(11) 1.1099(10) 0.7522(9)
H91A H -0.3949 1.1045 0.7149
C125A C -0.5109(11) 1.1193(10) 0.7587(9)
H92A H -0.5434 1.1201 0.7283
C126A C -0.5348(12) 1.1271(11) 0.8178(10)
H93A H -0.5886 1.1356 0.8361
B1A B -0.3352(12) 0.9353(11) 0.5132(9)
H94A H -0.3848 0.9306 0.5008
B2A B -0.0985(11) 0.4990(10) 0.8786(9)
H95A H -0.1320 0.4646 0.8989
B3A B 0.1373(16) 0.8264(12) 1.0188(12)
H96A H 0.1452 0.8057 1.0661
B4A B -0.4556(14) 1.1255(12) 0.9115(11)
H97A H -0.5073 1.1322 0.9387
N4A N -0.0795(8) 1.1424(7) 0.6011(6)
N5A N -0.0558(7) 1.2474(7) 0.5017(6)
N6A N -0.0360(8) 1.3010(7) 0.4534(6)
H98A H -0.0398 1.3097 0.4121
N7A N 0.1121(8) 1.5785(7) 0.3296(7)
N8A N -0.1157(8) 1.1948(7) 0.4186(6)
N9A N -0.2003(8) 1.2249(7) 0.5126(6)
N10A N -0.2547(7) 1.2463(7) 0.5590(6)
H99A H -0.2477 1.2304 0.6005
N11A N -0.6161(8) 1.4062(8) 0.6554(7)
N12A N -0.2261(8) 0.8292(7) 0.8024(6)
N13A N -0.2676(8) 0.8209(7) 0.7625(6)
H100A H -0.2635 0.8419 0.7205
N14A N -0.5157(10) 0.7062(9) 0.6651(8)
N15A N -0.1356(8) 1.0862(7) 0.5273(6)
N16A N -0.1267(8) 0.9000(7) 0.6905(6)
N17A N 0.0100(8) 1.1135(7) 0.4959(6)
N18A N -0.0531(8) 0.7667(7) 0.7981(6)
N19A N 0.1641(9) 0.5888(8) 0.8636(7)
N20A N 0.0656(8) 0.6606(7) 0.6751(6)
N21A N -0.0284(8) 0.8959(7) 0.8044(6)
N22A N 0.2438(10) 0.8264(9) 0.7834(8)
N23A N 0.1135(11) 1.0450(10) 0.7931(10)
N24A N -0.2038(8) 0.9685(8) 0.7931(6)
N25A N -0.2505(8) 1.1943(7) 0.6924(7)
N26A N -0.1397(9) 1.1088(8) 0.8625(7)
N27A N -0.2241(8) 0.9896(8) 0.4645(6)
N28A N -0.2943(8) 0.9810(8) 0.4568(6)
N29A N -0.2078(8) 0.8590(8) 0.5612(6)
N30A N -0.2770(8) 0.8623(7) 0.5404(6)
N31A N -0.2935(7) 0.9793(7) 0.5894(6)
N32A N -0.3548(8) 0.9689(7) 0.5675(6)
N33A N 0.0352(9) 0.5044(7) 0.8250(6)
N34A N -0.0154(9) 0.4620(8) 0.8547(6)
N35A N -0.0460(8) 0.5816(7) 0.9066(6)
N36A N -0.0880(8) 0.5326(7) 0.9266(6)
N37A N -0.0982(8) 0.6119(7) 0.7883(6)
N38A N -0.1378(8) 0.5606(7) 0.8201(6)
N39A N 0.0354(9) 0.9168(9) 0.9421(7)
N40A N 0.0540(10) 0.8819(9) 1.0075(8)
N41A N 0.1998(9) 0.8883(9) 0.9176(7)
N42A N 0.2050(11) 0.8586(9) 0.9831(8)
N43A N 0.1196(9) 0.7880(8) 0.9290(6)
N44A N 0.1319(10) 0.7673(8) 0.9924(7)
N45A N -0.3218(8) 1.0431(7) 0.9149(6)
N46A N -0.3969(9) 1.0575(8) 0.9453(7)
N47A N -0.4038(8) 1.1095(7) 0.8048(7)
N48A N -0.4698(9) 1.1207(8) 0.8466(7)
Fe1A Fe -0.18043(14) 0.94904(13) 0.55273(11)
Fe2A Fe 0.00320(15) 0.60648(13) 0.81706(11)
Fe3A Fe 0.11160(17) 0.88937(15) 0.87445(13)
Fe4A Fe -0.29829(15) 1.10543(13) 0.82737(12)
Co1A Co -0.09519(14) 1.16592(12) 0.50989(10)
Co2A Co -0.12679(13) 0.86965(12) 0.79041(10)
C127 C 0.5776(17) 0.1560(14) 0.2058(13)
C128 C 0.576(2) 0.0822(14) 0.2332(15)
N49 N 0.5855(16) 0.0209(14) 0.2528(13)
C129 C 0.4732(15) 0.5130(13) 0.1441(15)
C130 C 0.3906(15) 0.5283(17) 0.1276(15)
N50 N 0.3230(14) 0.5496(14) 0.1210(14)
C131 C 0.6639(17) 0.2829(16) 0.0599(14)
C132 C 0.5932(18) 0.3375(18) 0.0658(15)
N51 N 0.5354(17) 0.3801(17) 0.0645(16)
C133 C 0.6736(18) 0.5065(19) 0.014(2)
C134 C 0.6475(19) 0.577(2) 0.0200(18)
N52 N 0.6317(17) 0.6365(15) 0.0225(17)
C135 C 0.5928(14) 0.9357(11) 0.8600(12)
C136 C 0.5536(17) 0.8846(15) 0.8960(12)
N53 N 0.5155(13) 0.8419(11) 0.9274(10)
O1 O 0.8300(15) 0.8412(14) 0.3888(12)
O2 O 0.258(2) 0.1070(17) 0.7664(19)
O4 O 0.8071(16) 0.7486(15) 0.3993(13)
loop_
_geom_bond_atom_site_label_1
_geom_bond_atom_site_label_2
_geom_bond_site_symmetry_1
_geom_bond_site_symmetry_2
C1 H1 1_555 1_555
C2 C1 1_555 1_555
H2 C2 1_555 1_555
C3 C2 1_555 1_555
H3 C3 1_555 1_555
C4 C3 1_555 1_555
H4 C4 1_555 1_555
C5 C4 1_555 1_555
C6 C5 1_555 1_555
C7 C6 1_555 1_555
H5 C7 1_555 1_555
C8 C7 1_555 1_555
C9 C8 1_555 1_555
C10 C9 1_555 1_555
H6 C10 1_555 1_555
C11 C10 1_555 1_555
H7 C11 1_555 1_555
C12 C11 1_555 1_555
C13 C12 1_555 1_555
H8 C13 1_555 1_555
C14 C9 1_555 1_555
H9 C14 1_555 1_555
C15 C16 1_555 1_555
C16 H10 1_555 1_555
C17 C16 1_555 1_555
H11 C17 1_555 1_555
C18 C17 1_555 1_555
H12 C18 1_555 1_555
C19 C18 1_555 1_555
H13 C19 1_555 1_555
C20 C15 1_555 1_555
H14 C20 1_555 1_555
C21 C22 1_555 1_555
C22 H15 1_555 1_555
C23 C22 1_555 1_555
H16 C23 1_555 1_555
C24 C23 1_555 1_555
H17 C24 1_555 1_555
C25 C24 1_555 1_555
H18 C25 1_555 1_555
C26 C21 1_555 1_555
H19 C26 1_555 1_555
C27 H20 1_555 1_555
C28 C27 1_555 1_555
H21 C28 1_555 1_555
C29 C28 1_555 1_555
H22 C29 1_555 1_555
C30 C29 1_555 1_555
H23 C30 1_555 1_555
C31 C30 1_555 1_555
C32 C31 1_555 1_555
C33 C32 1_555 1_555
H24 C33 1_555 1_555
C34 C33 1_555 1_555
C35 C34 1_555 1_555
C36 C35 1_555 1_555
H25 C36 1_555 1_555
C37 C36 1_555 1_555
H26 C37 1_555 1_555
C38 C37 1_555 1_555
C39 C38 1_555 1_555
H27 C39 1_555 1_555
C40 C35 1_555 1_555
H28 C40 1_555 1_555
C41 C42 1_555 1_555
C42 H29 1_555 1_555
C43 C42 1_555 1_555
H30 C43 1_555 1_555
C44 C43 1_555 1_555
H31 C44 1_555 1_555
C45 C44 1_555 1_555
H32 C45 1_555 1_555
C46 C41 1_555 1_555
H33 C46 1_555 1_555
C47 C48 1_555 1_555
C48 H34 1_555 1_555
C49 C48 1_555 1_555
H35 C49 1_555 1_555
C50 C49 1_555 1_555
H36 C50 1_555 1_555
C51 C50 1_555 1_555
H37 C51 1_555 1_555
C52 C47 1_555 1_555
H38 C52 1_555 1_555
N1 C53 1_555 1_555
C53 H39 1_555 1_555
C54 C53 1_555 1_555
H40 C54 1_555 1_555
C55 C54 1_555 1_555
H41 C55 1_555 1_555
C56 C55 1_555 1_555
H42 C56 1_555 1_555
C57 N1 1_555 1_555
C58 C57 1_555 1_555
C59 C58 1_555 1_555
H43 C59 1_555 1_555
C60 C59 1_555 1_555
C61 C60 1_555 1_555
C62 C61 1_555 1_555
H44 C62 1_555 1_555
C63 C62 1_555 1_555
H45 C63 1_555 1_555
C64 C63 1_555 1_555
C65 C64 1_555 1_555
H46 C65 1_555 1_555
C66 C61 1_555 1_555
H47 C66 1_555 1_555
C67 C68 1_555 1_555
C68 H48 1_555 1_555
C69 C68 1_555 1_555
H49 C69 1_555 1_555
C70 C69 1_555 1_555
H50 C70 1_555 1_555
C71 C70 1_555 1_555
H51 C71 1_555 1_555
C72 C67 1_555 1_555
H52 C72 1_555 1_555
C73 C74 1_555 1_555
C74 H53 1_555 1_555
C75 C74 1_555 1_555
H54 C75 1_555 1_555
C76 C75 1_555 1_555
H55 C76 1_555 1_555
C77 C76 1_555 1_555
H56 C77 1_555 1_555
C78 C73 1_555 1_555
H57 C78 1_555 1_555
C79 N15 1_555 1_555
C80 N16 1_555 1_555
C81 N17 1_555 1_555
C82 N18 1_555 1_555
C83 N19 1_555 1_555
C84 N20 1_555 1_555
C85 N21 1_555 1_555
C86 N22 1_555 1_555
C87 N23 1_555 1_555
C88 N24 1_555 1_555
C89 N25 1_555 1_555
C90 N26 1_555 1_555
C91 H58 1_555 1_555
C92 C91 1_555 1_555
H59 C92 1_555 1_555
C93 C92 1_555 1_555
H60 C93 1_555 1_555
C94 H61 1_555 1_555
C95 C94 1_555 1_555
H62 C95 1_555 1_555
C96 C95 1_555 1_555
H63 C96 1_555 1_555
C97 H64 1_555 1_555
C98 C97 1_555 1_555
H65 C98 1_555 1_555
C99 C98 1_555 1_555
H66 C99 1_555 1_555
C100 H67 1_555 1_555
C101 C100 1_555 1_555
H68 C101 1_555 1_555
C102 C101 1_555 1_555
H69 C102 1_555 1_555
C103 H70 1_555 1_555
C104 C103 1_555 1_555
H71 C104 1_555 1_555
C105 C104 1_555 1_555
H72 C105 1_555 1_555
C106 H73 1_555 1_555
C107 C106 1_555 1_555
H74 C107 1_555 1_555
C108 C107 1_555 1_555
H75 C108 1_555 1_555
C109 H76 1_555 1_555
C110 C109 1_555 1_555
H77 C110 1_555 1_555
C111 C110 1_555 1_555
H78 C111 1_555 1_555
C112 H79 1_555 1_555
C113 C112 1_555 1_555
H80 C113 1_555 1_555
C114 C113 1_555 1_555
H81 C114 1_555 1_555
C115 H82 1_555 1_555
C116 C115 1_555 1_555
H83 C116 1_555 1_555
C117 C116 1_555 1_555
H84 C117 1_555 1_555
C118 H85 1_555 1_555
C119 C118 1_555 1_555
H86 C119 1_555 1_555
C120 C119 1_555 1_555
H87 C120 1_555 1_555
N2 C120 1_555 1_555
N3 C118 1_555 1_555
C121 H88 1_555 1_555
C122 C121 1_555 1_555
H89 C122 1_555 1_555
C123 C122 1_555 1_555
H90 C123 1_555 1_555
C124 H91 1_555 1_555
C125 C124 1_555 1_555
H92 C125 1_555 1_555
C126 C125 1_555 1_555
H93 C126 1_555 1_555
B1 H94 1_555 1_555
B2 H95 1_555 1_555
B3 H96 1_555 1_555
B4 N2 1_555 1_555
H97 B4 1_555 1_555
N4 C1 1_555 1_555
N5 C6 1_555 1_555
N6 C8 1_555 1_555
H98 N6 1_555 1_555
N7 C12 1_555 1_555
N8 C27 1_555 1_555
N9 C32 1_555 1_555
N10 C34 1_555 1_555
H99 N10 1_555 1_555
N11 C38 1_555 1_555
N12 C58 1_555 1_555
N13 C60 1_555 1_555
H100 N13 1_555 1_555
N14 C64 1_555 1_555
N15 Co1 1_555 1_555
N16 Co2 1_555 1_555
N17 Co1 1_555 1_555
N18 Co2 1_555 1_555
N21 Co2 1_555 1_555
N24 Co2 1_555 1_555
N27 C91 1_555 1_555
N28 C93 1_555 1_555
N29 C94 1_555 1_555
N30 C96 1_555 1_555
N31 C97 1_555 1_555
N32 C99 1_555 1_555
N33 C100 1_555 1_555
N34 C102 1_555 1_555
N35 C103 1_555 1_555
N36 C105 1_555 1_555
N37 C106 1_555 1_555
N38 C108 1_555 1_555
N39 C109 1_555 1_555
N40 C111 1_555 1_555
N41 C112 1_555 1_555
N42 C114 1_555 1_555
N43 C115 1_555 1_555
N44 C117 1_555 1_555
N45 C121 1_555 1_555
N46 C123 1_555 1_555
N47 C124 1_555 1_555
N48 C126 1_555 1_555
Fe1 C79 1_555 1_555
Fe2 C82 1_555 1_555
Fe3 C85 1_555 1_555
Fe4 C88 1_555 1_555
Co1 N4 1_555 1_555
Co2 N1 1_555 1_555
C127 C128 1_555 1_555
C128 N49 1_555 1_555
C129 C130 1_555 1_555
C130 N50 1_555 1_555
C131 C132 1_555 1_555
C132 N51 1_555 1_555
C133 C134 1_555 1_555
C134 N52 1_555 1_555
C135 C136 1_555 1_555
C136 N53 1_555 1_555
C1A H1A 1_555 1_555
C2A C1A 1_555 1_555
H2A C2A 1_555 1_555
C3A C2A 1_555 1_555
H3A C3A 1_555 1_555
C4A C3A 1_555 1_555
H4A C4A 1_555 1_555
C5A C4A 1_555 1_555
C6A C5A 1_555 1_555
C7A C6A 1_555 1_555
H5A C7A 1_555 1_555
C8A C7A 1_555 1_555
C9A C8A 1_555 1_555
C10A C9A 1_555 1_555
H6A C10A 1_555 1_555
C11A C10A 1_555 1_555
H7A C11A 1_555 1_555
C12A C11A 1_555 1_555
C13A C12A 1_555 1_555
H8A C13A 1_555 1_555
C14A C9A 1_555 1_555
H9A C14A 1_555 1_555
C15A C16A 1_555 1_555
C16A H10A 1_555 1_555
C17A C16A 1_555 1_555
H11A C17A 1_555 1_555
C18A C17A 1_555 1_555
H12A C18A 1_555 1_555
C19A C18A 1_555 1_555
H13A C19A 1_555 1_555
C20A C15A 1_555 1_555
H14A C20A 1_555 1_555
C21A C22A 1_555 1_555
C22A H15A 1_555 1_555
C23A C22A 1_555 1_555
H16A C23A 1_555 1_555
C24A C23A 1_555 1_555
H17A C24A 1_555 1_555
C25A C24A 1_555 1_555
H18A C25A 1_555 1_555
C26A C21A 1_555 1_555
H19A C26A 1_555 1_555
C27A H20A 1_555 1_555
C28A C27A 1_555 1_555
H21A C28A 1_555 1_555
C29A C28A 1_555 1_555
H22A C29A 1_555 1_555
C30A C29A 1_555 1_555
H23A C30A 1_555 1_555
C31A C30A 1_555 1_555
C32A C31A 1_555 1_555
C33A C32A 1_555 1_555
H24A C33A 1_555 1_555
C34A C33A 1_555 1_555
C35A C34A 1_555 1_555
C36A C35A 1_555 1_555
H25A C36A 1_555 1_555
C37A C36A 1_555 1_555
H26A C37A 1_555 1_555
C38A C37A 1_555 1_555
C39A C38A 1_555 1_555
H27A C39A 1_555 1_555
C40A C35A 1_555 1_555
H28A C40A 1_555 1_555
C41A C42A 1_555 1_555
C42A H29A 1_555 1_555
C43A C42A 1_555 1_555
H30A C43A 1_555 1_555
C44A C43A 1_555 1_555
H31A C44A 1_555 1_555
C45A C44A 1_555 1_555
H32A C45A 1_555 1_555
C46A C41A 1_555 1_555
H33A C46A 1_555 1_555
C47A C48A 1_555 1_555
C48A H34A 1_555 1_555
C49A C48A 1_555 1_555
H35A C49A 1_555 1_555
C50A C49A 1_555 1_555
H36A C50A 1_555 1_555
C51A C50A 1_555 1_555
H37A C51A 1_555 1_555
C52A C47A 1_555 1_555
H38A C52A 1_555 1_555
N1A C53A 1_555 1_555
C53A H39A 1_555 1_555
C54A C53A 1_555 1_555
H40A C54A 1_555 1_555
C55A C54A 1_555 1_555
H41A C55A 1_555 1_555
C56A C55A 1_555 1_555
H42A C56A 1_555 1_555
C57A N1A 1_555 1_555
C58A C57A 1_555 1_555
C59A C58A 1_555 1_555
H43A C59A 1_555 1_555
C60A C59A 1_555 1_555
C61A C60A 1_555 1_555
C62A C61A 1_555 1_555
H44A C62A 1_555 1_555
C63A C62A 1_555 1_555
H45A C63A 1_555 1_555
C64A C63A 1_555 1_555
C65A C64A 1_555 1_555
H46A C65A 1_555 1_555
C66A C61A 1_555 1_555
H47A C66A 1_555 1_555
C67A C68A 1_555 1_555
C68A H48A 1_555 1_555
C69A C68A 1_555 1_555
H49A C69A 1_555 1_555
C70A C69A 1_555 1_555
H50A C70A 1_555 1_555
C71A C70A 1_555 1_555
H51A C71A 1_555 1_555
C72A C67A 1_555 1_555
H52A C72A 1_555 1_555
C73A C74A 1_555 1_555
C74A H53A 1_555 1_555
C75A C74A 1_555 1_555
H54A C75A 1_555 1_555
C76A C75A 1_555 1_555
H55A C76A 1_555 1_555
C77A C76A 1_555 1_555
H56A C77A 1_555 1_555
C78A C73A 1_555 1_555
H57A C78A 1_555 1_555
C79A N15A 1_555 1_555
C80A N16A 1_555 1_555
C81A Fe1 1_555 1_555
C82A N18A 1_555 1_555
C83A N19A 1_555 1_555
C84A N20A 1_555 1_555
C85A N21A 1_555 1_555
C86A N22A 1_555 1_555
C87A N23A 1_555 1_555
C88A N24A 1_555 1_555
C89A N25A 1_555 1_555
C90A N26A 1_555 1_555
C91A H58A 1_555 1_555
C92A C91A 1_555 1_555
H59A C92A 1_555 1_555
C93A C92A 1_555 1_555
H60A C93A 1_555 1_555
C94A H61A 1_555 1_555
C95A C94A 1_555 1_555
H62A C95A 1_555 1_555
C96A C95A 1_555 1_555
H63A C96A 1_555 1_555
C97A H64A 1_555 1_555
C98A C97A 1_555 1_555
H65A C98A 1_555 1_555
C99A C98A 1_555 1_555
H66A C99A 1_555 1_555
C100A H67A 1_555 1_555
C101A C100A 1_555 1_555
H68A C101A 1_555 1_555
C102A C101A 1_555 1_555
H69A C102A 1_555 1_555
C103A H70A 1_555 1_555
C104A C103A 1_555 1_555
H71A C104A 1_555 1_555
C105A C104A 1_555 1_555
H72A C105A 1_555 1_555
C106A H73A 1_555 1_555
C107A C106A 1_555 1_555
H74A C107A 1_555 1_555
C108A C107A 1_555 1_555
H75A C108A 1_555 1_555
C109A H76A 1_555 1_555
C110A C109A 1_555 1_555
H77A C110A 1_555 1_555
C111A C110A 1_555 1_555
H78A C111A 1_555 1_555
C112A H79A 1_555 1_555
C113A C112A 1_555 1_555
H80A C113A 1_555 1_555
C114A C113A 1_555 1_555
H81A C114A 1_555 1_555
C115A H82A 1_555 1_555
C116A C115A 1_555 1_555
H83A C116A 1_555 1_555
C117A C116A 1_555 1_555
H84A C117A 1_555 1_555
C118A H85A 1_555 1_555
C119A C118A 1_555 1_555
H86A C119A 1_555 1_555
C120A C119A 1_555 1_555
H87A C120A 1_555 1_555
N2A C120A 1_555 1_555
N3A C118A 1_555 1_555
C121A H88A 1_555 1_555
C122A C121A 1_555 1_555
H89A C122A 1_555 1_555
C123A C122A 1_555 1_555
H90A C123A 1_555 1_555
C124A H91A 1_555 1_555
C125A C124A 1_555 1_555
H92A C125A 1_555 1_555
C126A C125A 1_555 1_555
H93A C126A 1_555 1_555
B1A H94A 1_555 1_555
B2A H95A 1_555 1_555
B3A H96A 1_555 1_555
B4A N2A 1_555 1_555
H97A B4A 1_555 1_555
N4A C1A 1_555 1_555
N5A C6A 1_555 1_555
N6A C8A 1_555 1_555
H98A N6A 1_555 1_555
N7A C12A 1_555 1_555
N8A C27A 1_555 1_555
N9A C32A 1_555 1_555
N10A C34A 1_555 1_555
H99A N10A 1_555 1_555
N11A C38A 1_555 1_555
N12A C58A 1_555 1_555
N13A C60A 1_555 1_555
H100A N13A 1_555 1_555
N14A C64A 1_555 1_555
N15A Co1A 1_555 1_555
N16A Co2A 1_555 1_555
N17A C81A 1_555 1_555
N18A Co2A 1_555 1_555
N21A Co2A 1_555 1_555
N24A Co2A 1_555 1_555
N27A C91A 1_555 1_555
N28A C93A 1_555 1_555
N29A C94A 1_555 1_555
N30A C96A 1_555 1_555
N31A C97A 1_555 1_555
N32A C99A 1_555 1_555
N33A C100A 1_555 1_555
N34A C102A 1_555 1_555
N35A C103A 1_555 1_555
N36A C105A 1_555 1_555
N37A C106A 1_555 1_555
N38A C108A 1_555 1_555
N39A C109A 1_555 1_555
N40A C111A 1_555 1_555
N41A C112A 1_555 1_555
N42A C114A 1_555 1_555
N43A C115A 1_555 1_555
N44A C117A 1_555 1_555
N45A C121A 1_555 1_555
N46A C123A 1_555 1_555
N47A C124A 1_555 1_555
N48A C126A 1_555 1_555
Fe1A C81 1_555 1_555
Fe2A C82A 1_555 1_555
Fe3A C85A 1_555 1_555
Fe4A C88A 1_555 1_555
Co1A N4A 1_555 1_555
Co2A N1A 1_555 1_555
C5 N4 1_555 1_555
C13 C14 1_555 1_555
C15 N7 1_555 1_555
C19 C20 1_555 1_555
C21 N7 1_555 1_555
C25 C26 1_555 1_555
C31 N8 1_555 1_555
C39 C40 1_555 1_555
C41 N11 1_555 1_555
C45 C46 1_555 1_555
C47 N11 1_555 1_555
C51 C52 1_555 1_555
C56 C57 1_555 1_555
C65 C66 1_555 1_555
C67 N14 1_555 1_555
C71 C72 1_555 1_555
C73 N14 1_555 1_555
C77 C78 1_555 1_555
C80 Fe1 1_555 1_555
C83 Fe2 1_555 1_555
C84 Fe2 1_555 1_555
C86 Fe3 1_555 1_555
C87 Fe3 1_555 1_555
C89 Fe4 1_555 1_555
C90 Fe4 1_555 1_555
N2 N3 1_555 1_555
N3 Fe4 1_555 1_555
B1 N28 1_555 1_555
B1 N30 1_555 1_555
B1 N32 1_555 1_555
B2 N34 1_555 1_555
B2 N36 1_555 1_555
B2 N38 1_555 1_555
B3 N40 1_555 1_555
B3 N42 1_555 1_555
B3 N44 1_555 1_555
B4 N46 1_555 1_555
B4 N48 1_555 1_555
N5 N6 1_555 1_555
N5 Co1 1_555 1_555
N8 Co1 1_555 1_555
N9 N10 1_555 1_555
N9 Co1 1_555 1_555
N12 N13 1_555 1_555
N12 Co2 1_555 1_555
N27 N28 1_555 1_555
N27 Fe1 1_555 1_555
N29 N30 1_555 1_555
N29 Fe1 1_555 1_555
N31 N32 1_555 1_555
N31 Fe1 1_555 1_555
N33 N34 1_555 1_555
N33 Fe2 1_555 1_555
N35 N36 1_555 1_555
N35 Fe2 1_555 1_555
N37 N38 1_555 1_555
N37 Fe2 1_555 1_555
N39 N40 1_555 1_555
N39 Fe3 1_555 1_555
N41 N42 1_555 1_555
N41 Fe3 1_555 1_555
N43 N44 1_555 1_555
N43 Fe3 1_555 1_555
N45 N46 1_555 1_555
N45 Fe4 1_555 1_555
N47 N48 1_555 1_555
N47 Fe4 1_555 1_555
C5A N4A 1_555 1_555
C13A C14A 1_555 1_555
C15A N7A 1_555 1_555
C19A C20A 1_555 1_555
C21A N7A 1_555 1_555
C25A C26A 1_555 1_555
C31A N8A 1_555 1_555
C39A C40A 1_555 1_555
C41A N11A 1_555 1_555
C45A C46A 1_555 1_555
C47A N11A 1_555 1_555
C51A C52A 1_555 1_555
C56A C57A 1_555 1_555
C65A C66A 1_555 1_555
C67A N14A 1_555 1_555
C71A C72A 1_555 1_555
C73A N14A 1_555 1_555
C77A C78A 1_555 1_555
C79A Fe1A 1_555 1_555
C80A Fe1A 1_555 1_555
C83A Fe2A 1_555 1_555
C84A Fe2A 1_555 1_555
C86A Fe3A 1_555 1_555
C87A Fe3A 1_555 1_555
C89A Fe4A 1_555 1_555
C90A Fe4A 1_555 1_555
N2A N3A 1_555 1_555
N3A Fe4A 1_555 1_555
B1A N28A 1_555 1_555
B1A N30A 1_555 1_555
B1A N32A 1_555 1_555
B2A N34A 1_555 1_555
B2A N36A 1_555 1_555
B2A N38A 1_555 1_555
B3A N40A 1_555 1_555
B3A N42A 1_555 1_555
B3A N44A 1_555 1_555
B4A N46A 1_555 1_555
B4A N48A 1_555 1_555
N5A N6A 1_555 1_555
N5A Co1A 1_555 1_555
N8A Co1A 1_555 1_555
N9A N10A 1_555 1_555
N9A Co1A 1_555 1_555
N12A N13A 1_555 1_555
N12A Co2A 1_555 1_555
N17A Co1A 1_555 1_555
N27A N28A 1_555 1_555
N27A Fe1A 1_555 1_555
N29A N30A 1_555 1_555
N29A Fe1A 1_555 1_555
N31A N32A 1_555 1_555
N31A Fe1A 1_555 1_555
N33A N34A 1_555 1_555
N33A Fe2A 1_555 1_555
N35A N36A 1_555 1_555
N35A Fe2A 1_555 1_555
N37A N38A 1_555 1_555
N37A Fe2A 1_555 1_555
N39A N40A 1_555 1_555
N39A Fe3A 1_555 1_555
N41A N42A 1_555 1_555
N41A Fe3A 1_555 1_555
N43A N44A 1_555 1_555
N43A Fe3A 1_555 1_555
N45A N46A 1_555 1_555
N45A Fe4A 1_555 1_555
N47A N48A 1_555 1_555
N47A Fe4A 1_555 1_555

#END
