
#######################################################################
#
#                 Cambridge Crystallographic Data Centre
#                                CCDC 
#
#######################################################################
#
# If this CIF has been generated from an entry in the Cambridge 
# Structural Database, then it will include bibliographic, chemical, 
# crystal, experimental, refinement or atomic coordinate data resulting 
# from the CCDC's data processing and validation procedures.
#
#######################################################################

data_TOBDOF
_chemical_formula_moiety         
'C370 H306 B8 Co6 Fe8 N114 O10 4+,4(F6 P1 1-),42(C2 H3 N1),9(C6 H14 O1),25(H2 O1)'
_chemical_name_systematic        
'tetradecakis(\m~2~-Cyano)-bis(acetonitrile)-decacyano-octakis(hydridotris(pyrazol-1-yl)borate)-decakis(N,N-diphenyl-4-(3-(pyridin-2-yl)-1H-pyrazol-5-yl)aniline)-hexa-cobalt-octa-iron tetrakis(hexafluorophosphate) acetonitrile diisopropyl ether solvate pentacosahydrate'
_symmetry_cell_setting           monoclinic
_symmetry_space_group_name_H-M   'C 2/c'
_symmetry_Int_Tables_number      15
_space_group_name_Hall           '-C 2yn'
loop_
_symmetry_equiv_pos_site_id
_symmetry_equiv_pos_as_xyz
1 x,y,z
2 -x,y,1/2-z
3 1/2+x,1/2+y,z
4 1/2-x,1/2+y,1/2-z
5 -x,-y,-z
6 x,-y,1/2+z
7 1/2-x,1/2-y,-z
8 1/2+x,1/2-y,1/2+z
_cell_length_a                   49.474(15)
_cell_length_b                   36.394(10)
_cell_length_c                   29.651(8)
_cell_angle_alpha                90
_cell_angle_beta                 113.641(6)
_cell_angle_gamma                90
_cell_volume                     48907.7
_exptl_crystal_colour            red
_exptl_crystal_description       plate
_cell_formula_units_Z            4
loop_
_atom_site_label
_atom_site_type_symbol
_atom_site_fract_x
_atom_site_fract_y
_atom_site_fract_z
Co1 Co 0.812499(18) 0.64902(2) 0.17640(3)
Co2 Co 0.868732(18) 0.76785(2) 0.00264(3)
Co3 Co 0.719698(18) 0.59982(2) -0.09665(3)
Fe1 Fe 0.85754(2) 0.74184(3) -0.17115(4)
Fe2 Fe 0.884799(19) 0.74880(3) 0.18382(3)
Fe3 Fe 0.65875(2) 0.59808(3) 0.00854(3)
Fe4 Fe 0.82174(2) 0.57664(3) 0.03676(4)
B1 B 0.8991(2) 0.6807(3) -0.1794(4)
H1 H 0.9126 0.6610 -0.1815
B2 B 0.94418(17) 0.7268(3) 0.2644(3)
H2 H 0.9636 0.7195 0.2908
B3 B 0.60440(19) 0.5505(2) -0.0036(3)
H3 H 0.5869 0.5350 -0.0074
B4 B 0.8468(2) 0.4976(3) 0.0476(3)
H4 H 0.8549 0.4721 0.0515
N1 N 0.90940(11) 0.79360(15) 0.00905(18)
N2 N 0.89696(11) 0.72341(14) 0.00689(18)
N3 N 0.89672(11) 0.68634(15) 0.00820(18)
H5 H 0.8826 0.6735 0.0117
N4 N 0.94326(14) 0.51741(18) 0.0100(3)
N5 N 0.72309(13) 0.54154(15) -0.1058(2)
N6 N 0.68183(12) 0.58740(15) -0.15816(19)
N7 N 0.65747(11) 0.60465(15) -0.1918(2)
H6 H 0.6541 0.6283 -0.1910
N8 N 0.53260(14) 0.6263(2) -0.3842(2)
N9 N 0.76975(10) 0.67132(14) 0.1353(2)
N10 N 0.80316(12) 0.67544(14) 0.2312(2)
N11 N 0.81624(12) 0.68351(15) 0.2802(2)
H7 H 0.8331 0.6741 0.3005
N12 N 0.83494(19) 0.7717(2) 0.4836(3)
N13 N 0.71571(11) 0.65860(15) -0.09679(19)
N14 N 0.74313(12) 0.61704(16) -0.1384(2)
N15 N 0.76002(12) 0.60213(16) -0.15992(19)
H8 H 0.7621 0.5784 -0.1631
N16 N 0.83626(16) 0.5958(2) -0.2942(3)
N17 N 0.85334(11) 0.62456(15) 0.22342(17)
N18 N 0.79930(11) 0.59679(14) 0.18886(18)
N19 N 0.77502(11) 0.57495(16) 0.17335(18)
H9 H 0.7571 0.5831 0.1560
N20 N 0.69219(14) 0.4342(2) 0.1626(3)
N21 N 0.87836(15) 0.69421(18) -0.2303(3)
N22 N 0.91662(15) 0.7151(2) -0.1506(2)
N23 N 0.88099(14) 0.6677(2) -0.1511(3)
N24 N 0.85834(14) 0.72103(18) -0.2327(2)
N25 N 0.90154(12) 0.74444(19) -0.1452(2)
N26 N 0.86187(12) 0.69157(16) -0.1445(2)
N27 N 0.79006(13) 0.73869(16) -0.2153(2)
N28 N 0.85705(11) 0.76873(14) -0.0735(2)
N29 N 0.85376(17) 0.8222(2) -0.2081(2)
N30 N 0.94603(12) 0.76426(16) 0.24517(19)
N31 N 0.91971(12) 0.72775(15) 0.2851(2)
N32 N 0.93476(11) 0.69936(17) 0.2225(2)
N33 N 0.92170(12) 0.77781(15) 0.2070(2)
N34 N 0.89245(12) 0.73922(14) 0.2527(2)
N35 N 0.90846(11) 0.70585(15) 0.1836(2)
N36 N 0.87666(11) 0.76437(14) 0.0770(2)
N37 N 0.83260(12) 0.69682(15) 0.16309(18)
N38 N 0.84970(13) 0.81820(17) 0.1840(2)
N39 N 0.63103(13) 0.52745(17) 0.0030(2)
N40 N 0.59838(12) 0.57527(15) -0.0498(2)
N41 N 0.61321(13) 0.57669(17) 0.0414(2)
N42 N 0.62098(11) 0.59595(15) -0.05015(19)
N43 N 0.63650(12) 0.60055(16) 0.0505(2)
N44 N 0.65722(12) 0.54492(15) 0.00916(19)
N45 N 0.71733(12) 0.60054(15) 0.1005(2)
N46 N 0.69630(11) 0.59490(14) -0.0528(2)
N47 N 0.84702(11) 0.81778(15) -0.00024(19)
N48 N 0.86815(13) 0.52435(15) 0.0847(2)
N49 N 0.83967(12) 0.51318(16) -0.0038(2)
N50 N 0.81733(13) 0.49967(16) 0.0549(2)
N51 N 0.85998(11) 0.56006(15) 0.08435(19)
N52 N 0.82805(11) 0.54822(16) -0.0141(2)
N53 N 0.80396(12) 0.53333(14) 0.05274(19)
N54 N 0.81474(11) 0.62596(15) 0.1146(2)
N55 N 0.76036(11) 0.60140(14) -0.03457(19)
N56 N 0.84861(12) 0.64530(16) 0.0113(2)
N57 N 0.83044(11) 0.73466(14) -0.00836(19)
C1 C 0.91513(14) 0.8302(2) 0.0104(2)
H10 H 0.9016 0.8469 0.0147
C2 C 0.93990(13) 0.8441(2) 0.0059(2)
H11 H 0.9433 0.8698 0.0075
C3 C 0.95934(15) 0.8207(2) -0.0009(2)
H12 H 0.9761 0.8300 -0.0050
C4 C 0.95459(15) 0.7836(2) -0.0019(2)
H13 H 0.9682 0.7668 -0.0057
C5 C 0.92981(14) 0.77129(19) 0.0028(2)
C6 C 0.93727(14) 0.69977(19) 0.0006(2)
H14 H 0.9558 0.6987 -0.0020
C7 C 0.92096(14) 0.6707(2) 0.0035(2)
C8 C 0.92621(15) 0.6319(2) 0.0051(3)
C9 C 0.91469(15) 0.6080(2) 0.0296(3)
H15 H 0.9031 0.6174 0.0459
C10 C 0.92024(15) 0.5701(2) 0.0304(3)
H16 H 0.9123 0.5541 0.0472
C11 C 0.93733(18) 0.5558(2) 0.0067(3)
C12 C 0.94873(17) 0.5799(2) -0.0173(3)
H17 H 0.9603 0.5708 -0.0339
C13 C 0.94330(15) 0.6176(2) -0.0170(3)
H18 H 0.9518 0.6338 -0.0329
C14 C 0.94454(19) 0.4962(2) 0.0516(4)
C15 C 0.96191(17) 0.5060(2) 0.0984(4)
H19 H 0.9730 0.5282 0.1044
C16 C 0.96363(16) 0.4848(3) 0.1367(4)
H20 H 0.9756 0.4920 0.1694
C17 C 0.9481(3) 0.4528(3) 0.1282(6)
C18 C 0.9304(2) 0.4428(3) 0.0823(5)
H21 H 0.9197 0.4203 0.0773
C19 C 0.92724(19) 0.4639(3) 0.0426(4)
H22 H 0.9140 0.4572 0.0103
C20 C 0.9303(2) 0.5083(2) -0.0791(4)
H23 H 0.9148 0.5257 -0.0871
C21 C 0.9470(2) 0.5006(2) -0.0301(4)
C22 C 0.97025(17) 0.4733(2) -0.0197(3)
H24 H 0.9824 0.4667 0.0132
C23 C 0.97414(18) 0.4574(2) -0.0589(4)
H25 H 0.9896 0.4399 -0.0518
C24 C 0.9572(2) 0.4650(3) -0.1073(4)
H26 H 0.9602 0.4528 -0.1332
C25 C 0.9354(2) 0.4918(3) -0.1165(4)
H27 H 0.9238 0.4988 -0.1496
C26 C 0.9300(3) 0.4024(4) 0.1640(5)
H28 H 0.9341 0.3908 0.1959
H29 H 0.9326 0.3843 0.1416
H30 H 0.9097 0.4116 0.1501
C27 C 0.92183(14) 0.7316(2) 0.0022(2)
C28 C 0.74485(17) 0.5192(2) -0.0782(3)
H31 H 0.7612 0.5298 -0.0519
C29 C 0.7453(2) 0.4812(2) -0.0852(3)
H32 H 0.7612 0.4664 -0.0644
C30 C 0.7208(2) 0.4657(2) -0.1245(3)
H33 H 0.7198 0.4401 -0.1309
C31 C 0.6983(2) 0.4895(2) -0.1537(3)
H34 H 0.6816 0.4800 -0.1804
C32 C 0.70040(16) 0.5265(2) -0.1434(3)
C33 C 0.67741(15) 0.5523(2) -0.1728(3)
C34 C 0.65190(15) 0.5473(2) -0.2158(2)
H35 H 0.6450 0.5252 -0.2336
C35 C 0.63908(15) 0.5815(2) -0.2265(3)
C36 C 0.61172(15) 0.5942(2) -0.2660(3)
C37 C 0.59784(15) 0.6264(2) -0.2640(3)
H36 H 0.6062 0.6419 -0.2361
C38 C 0.57182(16) 0.6365(2) -0.3022(3)
H37 H 0.5626 0.6588 -0.2997
C39 C 0.55856(16) 0.6149(3) -0.3448(3)
C40 C 0.57301(16) 0.5821(2) -0.3464(3)
H38 H 0.5649 0.5667 -0.3745
C41 C 0.59911(15) 0.5716(2) -0.3073(3)
H39 H 0.6083 0.5490 -0.3088
C42 C 0.51941(18) 0.6612(3) -0.3842(3)
C43 C 0.52961(19) 0.6940(4) -0.3951(3)
H40 H 0.5468 0.6940 -0.4018
C44 C 0.51540(17) 0.7261(3) -0.3963(3)
H41 H 0.5226 0.7483 -0.4043
C45 C 0.49013(17) 0.7267(3) -0.3860(3)
C46 C 0.47967(16) 0.6945(3) -0.3754(3)
H42 H 0.4624 0.6948 -0.3689
C47 C 0.49437(17) 0.6607(3) -0.3740(3)
H43 H 0.4872 0.6383 -0.3664
C48 C 0.50347(19) 0.5719(3) -0.4144(4)
H44 H 0.5063 0.5666 -0.3814
C49 C 0.4857(2) 0.5475(4) -0.4515(5)
H45 H 0.4773 0.5260 -0.4442
C50 C 0.4813(3) 0.5570(5) -0.4992(5)
H46 H 0.4682 0.5424 -0.5254
C51 C 0.4952(4) 0.5872(4) -0.5113(6)
H47 H 0.4924 0.5917 -0.5444
C52 C 0.5140(3) 0.6110(3) -0.4717(4)
H48 H 0.5240 0.6314 -0.4780
C53 C 0.5169(2) 0.6025(3) -0.4222(4)
C54 C 0.45358(15) 0.7620(2) -0.3731(3)
H49 H 0.4466 0.7875 -0.3754
H50 H 0.4597 0.7533 -0.3392
H51 H 0.4376 0.7465 -0.3953
C55 C 0.75365(14) 0.66736(17) 0.0871(2)
H52 H 0.7610 0.6525 0.0683
C56 C 0.72683(14) 0.68412(19) 0.0641(3)
H53 H 0.7163 0.6818 0.0295
C57 C 0.71519(15) 0.70441(18) 0.0914(3)
H54 H 0.6964 0.7157 0.0760
C58 C 0.73144(14) 0.70812(17) 0.1417(3)
H55 H 0.7240 0.7219 0.1615
C59 C 0.75849(14) 0.69130(19) 0.1621(2)
C60 C 0.77732(15) 0.69489(18) 0.2134(3)
C61 C 0.77480(15) 0.71535(18) 0.2514(3)
H56 H 0.7591 0.7313 0.2490
C62 C 0.80020(16) 0.7077(2) 0.2937(3)
C63 C 0.80928(16) 0.7223(2) 0.3430(3)
C64 C 0.83646(16) 0.7127(2) 0.3812(3)
H57 H 0.8491 0.6954 0.3756
C65 C 0.84432(18) 0.7289(2) 0.4266(3)
H58 H 0.8626 0.7219 0.4520
C66 C 0.8277(2) 0.7545(3) 0.4378(3)
C67 C 0.7995(2) 0.7626(2) 0.3989(4)
H59 H 0.7862 0.7785 0.4051
C68 C 0.7915(2) 0.7474(2) 0.3520(3)
H60 H 0.7734 0.7545 0.3261
C69 C 0.8569(3) 0.7581(4) 0.5278(4)
C70 C 0.8544(3) 0.7209(4) 0.5375(4)
H61 H 0.8390 0.7061 0.5152
C71 C 0.8751(3) 0.7064(4) 0.5810(4)
H62 H 0.8734 0.6813 0.5883
C72 C 0.8986(3) 0.7273(4) 0.6149(5)
H63 H 0.9140 0.7171 0.6429
C73 C 0.8966(4) 0.7646(4) 0.6025(5)
H64 H 0.9103 0.7805 0.6261
C74 C 0.8772(3) 0.7809(4) 0.5602(4)
H65 H 0.8779 0.8064 0.5540
C75 C 0.82348(15) 0.80861(17) 0.4849(3)
C76 C 0.81209(16) 0.81614(19) 0.5198(2)
H66 H 0.8109 0.7972 0.5410
C77 C 0.80250(15) 0.8514(2) 0.5238(3)
H67 H 0.7947 0.8566 0.5477
C78 C 0.80429(16) 0.87914(16) 0.4929(3)
C79 C 0.81567(18) 0.87161(19) 0.4580(3)
H68 H 0.8169 0.8906 0.4369
C80 C 0.82527(15) 0.8363(2) 0.4540(3)
H69 H 0.8330 0.8312 0.4301
C81 C 0.7860(3) 0.9234(4) 0.5336(5)
H70 H 0.7791 0.9489 0.5298
H71 H 0.8034 0.9208 0.5646
H72 H 0.7703 0.9071 0.5341
C82 C 0.70079(14) 0.6790(2) -0.0767(2)
H73 H 0.6897 0.6666 -0.0615
C83 C 0.70063(13) 0.71713(19) -0.0769(2)
H74 H 0.6907 0.7306 -0.0607
C84 C 0.71541(15) 0.7348(2) -0.1013(2)
H75 H 0.7149 0.7608 -0.1036
C85 C 0.73064(14) 0.7150(2) -0.1220(2)
H76 H 0.7414 0.7273 -0.1379
C86 C 0.73065(14) 0.6764(2) -0.1200(2)
C87 C 0.74674(14) 0.6534(2) -0.1406(2)
C88 C 0.76515(14) 0.6615(2) -0.1641(2)
H77 H 0.7709 0.6851 -0.1706
C89 C 0.77320(16) 0.6281(2) -0.1758(3)
C90 C 0.79176(17) 0.6194(2) -0.2034(3)
C91 C 0.80627(16) 0.5867(2) -0.1986(3)
H78 H 0.8055 0.5688 -0.1759
C92 C 0.82206(16) 0.5798(2) -0.2269(3)
H79 H 0.8325 0.5572 -0.2224
C93 C 0.82336(17) 0.6038(3) -0.2609(3)
C94 C 0.8619(3) 0.5733(3) -0.2774(4)
C95 C 0.8869(2) 0.5826(3) -0.2392(4)
H80 H 0.8875 0.6045 -0.2215
C96 C 0.9116(3) 0.5609(3) -0.2254(5)
H81 H 0.9299 0.5677 -0.1999
C97 C 0.9079(3) 0.5279(4) -0.2520(6)
C98 C 0.8820(3) 0.5196(4) -0.2884(5)
H82 H 0.8806 0.4968 -0.3048
C99 C 0.8584(3) 0.5406(3) -0.3032(4)
H83 H 0.8403 0.5338 -0.3294
C100 C 0.8224(2) 0.6057(2) -0.3459(4)
C101 C 0.7915(2) 0.6068(3) -0.3690(4)
H84 H 0.7795 0.6014 -0.3516
C102 C 0.7794(3) 0.6162(3) -0.4185(4)
H85 H 0.7585 0.6163 -0.4344
C103 C 0.7950(4) 0.6256(4) -0.4476(6)
H86 H 0.7856 0.6328 -0.4811
C104 C 0.8260(4) 0.6232(3) -0.4219(5)
H87 H 0.8383 0.6285 -0.4388
C105 C 0.8387(3) 0.6134(2) -0.3735(4)
H88 H 0.8595 0.6117 -0.3579
C106 C 0.9577(3) 0.5145(5) -0.2169(6)
H89 H 0.9717 0.4939 -0.2080
H90 H 0.9596 0.5279 -0.1871
H91 H 0.9620 0.5311 -0.2392
C107 C 0.80968(17) 0.6390(2) -0.2642(3)
H92 H 0.8110 0.6574 -0.2861
C108 C 0.79447(17) 0.6457(2) -0.2345(3)
H93 H 0.7857 0.6691 -0.2358
C109 C 0.87999(14) 0.6403(2) 0.2407(2)
H94 H 0.8814 0.6658 0.2352
C110 C 0.90588(16) 0.6205(2) 0.2664(3)
H95 H 0.9246 0.6323 0.2772
C111 C 0.90398(15) 0.5840(2) 0.2760(3)
H96 H 0.9213 0.5702 0.2936
C112 C 0.87654(15) 0.5674(2) 0.2596(2)
H97 H 0.8748 0.5421 0.2658
C113 C 0.85131(15) 0.5886(2) 0.2336(3)
C114 C 0.82144(14) 0.5725(2) 0.2131(2)
C115 C 0.81136(14) 0.5378(2) 0.2125(2)
H98 H 0.8228 0.5166 0.2266
C116 C 0.78105(16) 0.5394(2) 0.1871(3)
C117 C 0.75887(15) 0.5109(2) 0.1771(3)
C118 C 0.73091(16) 0.5132(2) 0.1391(3)
H99 H 0.7268 0.5332 0.1167
C119 C 0.70915(19) 0.4879(3) 0.1325(3)
H100 H 0.6904 0.4904 0.1059
C120 C 0.71459(17) 0.4585(2) 0.1651(3)
C121 C 0.74304(19) 0.4534(2) 0.1997(3)
H101 H 0.7480 0.4319 0.2196
C122 C 0.76457(17) 0.4801(2) 0.2055(3)
H102 H 0.7839 0.4766 0.2301
C123 C 0.6609(2) 0.4469(3) 0.1379(4)
C124 C 0.6524(2) 0.4812(3) 0.1522(3)
H103 H 0.6658 0.4954 0.1786
C125 C 0.62419(19) 0.4925(3) 0.1260(4)
H104 H 0.6182 0.5159 0.1327
C126 C 0.6045(2) 0.4715(4) 0.0910(4)
C127 C 0.6121(2) 0.4371(4) 0.0767(4)
H105 H 0.5981 0.4228 0.0510
C128 C 0.6403(2) 0.4255(3) 0.1012(3)
H106 H 0.6461 0.4023 0.0933
C129 C 0.69778(18) 0.3988(2) 0.1834(3)
C130 C 0.6845(2) 0.3874(3) 0.2125(4)
H107 H 0.6722 0.4036 0.2208
C131 C 0.6891(3) 0.3513(3) 0.2305(4)
H108 H 0.6796 0.3435 0.2510
C132 C 0.7065(2) 0.3273(3) 0.2201(4)
H109 H 0.7087 0.3026 0.2314
C133 C 0.7205(2) 0.3404(3) 0.1927(5)
H110 H 0.7339 0.3249 0.1862
C134 C 0.71589(19) 0.3756(3) 0.1739(4)
H111 H 0.7257 0.3835 0.1539
C135 C 0.5557(2) 0.4651(4) 0.0250(4)
H112 H 0.5364 0.4772 0.0106
H113 H 0.5533 0.4401 0.0351
H114 H 0.5643 0.4640 0.0005
C136 C 0.8746(2) 0.6856(3) -0.2760(4)
H115 H 0.8860 0.6679 -0.2845
C137 C 0.8520(3) 0.7059(3) -0.3092(4)
H116 H 0.8446 0.7052 -0.3441
C138 C 0.84249(19) 0.7276(2) -0.2802(3)
H117 H 0.8268 0.7449 -0.2925
C139 C 0.94582(19) 0.7219(3) -0.1318(3)
H118 H 0.9611 0.7056 -0.1305
C140 C 0.94874(19) 0.7583(3) -0.1147(3)
H119 H 0.9665 0.7718 -0.0998
C141 C 0.92061(19) 0.7705(2) -0.1238(3)
H120 H 0.9158 0.7942 -0.1157
C142 C 0.8814(2) 0.6371(3) -0.1273(3)
H121 H 0.8933 0.6163 -0.1259
C143 C 0.86242(18) 0.6394(2) -0.1053(3)
H122 H 0.8583 0.6211 -0.0862
C144 C 0.84997(14) 0.6749(2) -0.1166(3)
H123 H 0.8357 0.6851 -0.1062
C145 C 0.85520(16) 0.7915(2) -0.1934(3)
C146 C 0.81490(17) 0.73970(18) -0.1978(3)
C147 C 0.85675(13) 0.76074(18) -0.1109(3)
C148 C 0.80200(19) 0.4748(2) 0.0675(3)
H124 H 0.8070 0.4495 0.0726
C149 C 0.77826(17) 0.4900(2) 0.0722(3)
H125 H 0.7635 0.4784 0.0800
C150 C 0.78085(17) 0.5272(2) 0.0627(3)
H126 H 0.7675 0.5457 0.0634
C151 C 0.84420(17) 0.5003(2) -0.0417(3)
H127 H 0.8521 0.4768 -0.0433
C152 C 0.83578(18) 0.5260(2) -0.0781(3)
H128 H 0.8364 0.5242 -0.1096
C153 C 0.82610(15) 0.5554(2) -0.0586(3)
H129 H 0.8190 0.5779 -0.0755
C154 C 0.89508(16) 0.5195(2) 0.1195(3)
H130 H 0.9059 0.4971 0.1267
C155 C 0.90441(15) 0.5519(2) 0.1427(3)
H131 H 0.9228 0.5565 0.1693
C156 C 0.88230(15) 0.57683(19) 0.1208(2)
H132 H 0.8827 0.6019 0.1299
C157 C 0.81695(13) 0.60698(18) 0.0844(3)
C158 C 0.83818(13) 0.61916(19) 0.0209(2)
C159 C 0.78363(14) 0.59303(17) -0.0082(2)
C160 C 0.96667(15) 0.7901(2) 0.2551(2)
H133 H 0.9859 0.7881 0.2806
C161 C 0.95742(15) 0.8193(2) 0.2252(3)
H134 H 0.9682 0.8409 0.2250
C162 C 0.92876(14) 0.81077(19) 0.1948(3)
H135 H 0.9159 0.8259 0.1690
C163 C 0.91894(18) 0.72196(19) 0.3295(3)
H136 H 0.9350 0.7135 0.3580
C164 C 0.89140(18) 0.7302(2) 0.3274(3)
H137 H 0.8845 0.7292 0.3530
C165 C 0.87605(16) 0.74025(18) 0.2784(3)
H138 H 0.8558 0.7472 0.2649
C166 C 0.94735(15) 0.6690(2) 0.2139(3)
H139 H 0.9656 0.6588 0.2358
C167 C 0.92994(15) 0.6551(2) 0.1691(3)
H140 H 0.9334 0.6342 0.1530
C168 C 0.90575(15) 0.67890(19) 0.1522(3)
H141 H 0.8893 0.6760 0.1217
C169 C 0.85103(14) 0.71798(19) 0.1665(2)
C170 C 0.87855(12) 0.75808(17) 0.1165(3)
C171 C 0.86182(15) 0.7908(2) 0.1828(3)
C172 C 0.60214(17) 0.5837(2) 0.0761(3)
H142 H 0.5857 0.5713 0.0779
C173 C 0.61786(19) 0.6109(2) 0.1078(3)
H143 H 0.6149 0.6206 0.1352
C174 C 0.63937(16) 0.6212(2) 0.0903(3)
H144 H 0.6538 0.6398 0.1043
C175 C 0.57545(15) 0.5783(2) -0.0935(3)
H145 H 0.5571 0.5659 -0.1022
C176 C 0.58197(15) 0.6016(2) -0.1234(3)
H146 H 0.5698 0.6088 -0.1561
C177 C 0.61123(15) 0.61242(19) -0.0945(3)
H147 H 0.6225 0.6290 -0.1048
C178 C 0.6349(2) 0.4915(2) 0.0006(3)
H148 H 0.6203 0.4734 -0.0037
C179 C 0.6636(2) 0.4842(2) 0.0052(3)
H149 H 0.6725 0.4611 0.0051
C180 C 0.67571(17) 0.5182(2) 0.0100(3)
H150 H 0.6954 0.5225 0.0135
C181 C 0.68144(14) 0.59653(16) -0.0292(2)
C182 C 0.69481(15) 0.60021(18) 0.0651(3)
C183 C 0.84299(12) 0.84914(19) -0.0042(2)
C184 C 0.78990(14) 0.69219(18) 0.0008(3)
C185 C 0.81287(15) 0.71591(18) -0.0059(2)
O1 O 0.95032(16) 0.4329(2) 0.1707(3)
O2 O 0.47821(12) 0.76052(16) -0.38707(18)
O3 O 0.7937(2) 0.9133(2) 0.4919(3)
O4 O 0.9297(3) 0.5013(2) -0.2398(4)
O5 O 0.57552(16) 0.4862(2) 0.0686(3)
Co1F Co 0.687501(18) 0.85098(2) -0.17640(3)
Co2F Co 0.631268(18) 0.73215(2) -0.00264(3)
Co3F Co 0.780302(18) 0.90018(2) 0.09665(3)
Fe1F Fe 0.64246(2) 0.75816(3) 0.17115(4)
Fe2F Fe 0.615201(19) 0.75120(3) -0.18382(3)
Fe3F Fe 0.84125(2) 0.90192(3) -0.00854(3)
Fe4F Fe 0.67826(2) 0.92336(3) -0.03676(4)
B1F B 0.6009(2) 0.8193(3) 0.1794(4)
H1F H 0.5874 0.8390 0.1815
B2F B 0.55582(17) 0.7732(3) -0.2644(3)
H2F H 0.5364 0.7805 -0.2908
B3F B 0.89560(19) 0.9495(2) 0.0036(3)
H3F H 0.9131 0.9650 0.0074
B4F B 0.6532(2) 1.0024(3) -0.0476(3)
H4F H 0.6451 1.0279 -0.0515
N1F N 0.59060(11) 0.70640(15) -0.00905(18)
N2F N 0.60304(11) 0.77659(14) -0.00689(18)
N3F N 0.60328(11) 0.81366(15) -0.00820(18)
H5F H 0.6174 0.8265 -0.0117
N4F N 0.55674(14) 0.98259(18) -0.0100(3)
N5F N 0.77691(13) 0.95846(15) 0.1058(2)
N6F N 0.81817(12) 0.91260(15) 0.15816(19)
N7F N 0.84253(11) 0.89535(15) 0.1918(2)
H6F H 0.8459 0.8717 0.1910
N8F N 0.96740(14) 0.8737(2) 0.3842(2)
N9F N 0.73025(10) 0.82868(14) -0.1353(2)
N10F N 0.69684(12) 0.82456(14) -0.2312(2)
N11F N 0.68376(12) 0.81649(15) -0.2802(2)
H7F H 0.6669 0.8259 -0.3005
N12F N 0.66506(19) 0.7283(2) -0.4836(3)
N13F N 0.78429(11) 0.84140(15) 0.09679(19)
N14F N 0.75687(12) 0.88296(16) 0.1384(2)
N15F N 0.73998(12) 0.89787(16) 0.15992(19)
H8F H 0.7379 0.9216 0.1631
N16F N 0.66374(16) 0.9042(2) 0.2942(3)
N17F N 0.64666(11) 0.87544(15) -0.22342(17)
N18F N 0.70070(11) 0.90321(14) -0.18886(18)
N19F N 0.72498(11) 0.92505(16) -0.17335(18)
H9F H 0.7429 0.9169 -0.1560
N20F N 0.80781(14) 1.0658(2) -0.1626(3)
N21F N 0.62164(15) 0.80579(18) 0.2303(3)
N22F N 0.58338(15) 0.7849(2) 0.1506(2)
N23F N 0.61901(14) 0.8323(2) 0.1511(3)
N24F N 0.64166(14) 0.77897(18) 0.2327(2)
N25F N 0.59846(12) 0.75556(19) 0.1452(2)
N26F N 0.63813(12) 0.80843(16) 0.1445(2)
N27F N 0.70994(13) 0.76131(16) 0.2153(2)
N28F N 0.64295(11) 0.73127(14) 0.0735(2)
N29F N 0.64624(17) 0.6778(2) 0.2081(2)
N30F N 0.55397(12) 0.73574(16) -0.24517(19)
N31F N 0.58029(12) 0.77225(15) -0.2851(2)
N32F N 0.56524(11) 0.80064(17) -0.2225(2)
N33F N 0.57830(12) 0.72219(15) -0.2070(2)
N34F N 0.60755(12) 0.76078(14) -0.2527(2)
N35F N 0.59154(11) 0.79415(15) -0.1836(2)
N36F N 0.62334(11) 0.73563(14) -0.0770(2)
N37F N 0.66740(12) 0.80318(15) -0.16309(18)
N38F N 0.65030(13) 0.68180(17) -0.1840(2)
N39F N 0.86897(13) 0.97255(17) -0.0030(2)
N40F N 0.90162(12) 0.92473(15) 0.0498(2)
N41F N 0.88679(13) 0.92331(17) -0.0414(2)
N42F N 0.87902(11) 0.90405(15) 0.05015(19)
N43F N 0.86350(12) 0.89945(16) -0.0505(2)
N44F N 0.84278(12) 0.95508(15) -0.00916(19)
N45F N 0.78267(12) 0.89946(15) -0.1005(2)
N46F N 0.80370(11) 0.90510(14) 0.0528(2)
N47F N 0.65298(11) 0.68222(15) 0.00024(19)
N48F N 0.63185(13) 0.97565(15) -0.0847(2)
N49F N 0.66033(12) 0.98682(16) 0.0038(2)
N50F N 0.68267(13) 1.00033(16) -0.0549(2)
N51F N 0.64002(11) 0.93994(15) -0.08435(19)
N52F N 0.67195(11) 0.95178(16) 0.0141(2)
N53F N 0.69604(12) 0.96667(14) -0.05274(19)
N54F N 0.68526(11) 0.87404(15) -0.1146(2)
N55F N 0.73964(11) 0.89860(14) 0.03457(19)
N56F N 0.65139(12) 0.85470(16) -0.0113(2)
N57F N 0.66956(11) 0.76534(14) 0.00836(19)
C1F C 0.58487(14) 0.6698(2) -0.0104(2)
H10F H 0.5984 0.6531 -0.0147
C2F C 0.56010(13) 0.6559(2) -0.0059(2)
H11F H 0.5567 0.6302 -0.0075
C3F C 0.54066(15) 0.6793(2) 0.0009(2)
H12F H 0.5239 0.6700 0.0050
C4F C 0.54541(15) 0.7164(2) 0.0019(2)
H13F H 0.5318 0.7332 0.0057
C5F C 0.57019(14) 0.72871(19) -0.0028(2)
C6F C 0.56273(14) 0.80023(19) -0.0006(2)
H14F H 0.5442 0.8013 0.0020
C7F C 0.57904(14) 0.8293(2) -0.0035(2)
C8F C 0.57379(15) 0.8681(2) -0.0051(3)
C9F C 0.58531(15) 0.8920(2) -0.0296(3)
H15F H 0.5969 0.8826 -0.0459
C10F C 0.57976(15) 0.9299(2) -0.0304(3)
H16F H 0.5877 0.9459 -0.0472
C11F C 0.56267(18) 0.9442(2) -0.0067(3)
C12F C 0.55127(17) 0.9201(2) 0.0173(3)
H17F H 0.5397 0.9292 0.0339
C13F C 0.55670(15) 0.8824(2) 0.0170(3)
H18F H 0.5482 0.8662 0.0329
C14F C 0.55546(19) 1.0038(2) -0.0516(4)
C15F C 0.53809(17) 0.9940(2) -0.0984(4)
H19F H 0.5270 0.9718 -0.1044
C16F C 0.53637(16) 1.0152(3) -0.1367(4)
H20F H 0.5244 1.0080 -0.1694
C17F C 0.5519(3) 1.0472(3) -0.1282(6)
C18F C 0.5696(2) 1.0572(3) -0.0823(5)
H21F H 0.5803 1.0797 -0.0773
C19F C 0.57276(19) 1.0361(3) -0.0426(4)
H22F H 0.5860 1.0428 -0.0103
C20F C 0.5697(2) 0.9917(2) 0.0791(4)
H23F H 0.5852 0.9743 0.0871
C21F C 0.5530(2) 0.9994(2) 0.0301(4)
C22F C 0.52975(17) 1.0267(2) 0.0197(3)
H24F H 0.5176 1.0333 -0.0132
C23F C 0.52586(18) 1.0426(2) 0.0589(4)
H25F H 0.5104 1.0601 0.0518
C24F C 0.5428(2) 1.0350(3) 0.1073(4)
H26F H 0.5398 1.0472 0.1332
C25F C 0.5646(2) 1.0082(3) 0.1165(4)
H27F H 0.5762 1.0012 0.1496
C26F C 0.5700(3) 1.0976(4) -0.1640(5)
H28F H 0.5659 1.1092 -0.1959
H29F H 0.5674 1.1157 -0.1416
H30F H 0.5903 1.0884 -0.1501
C27F C 0.57817(14) 0.7684(2) -0.0022(2)
C28F C 0.75515(17) 0.9808(2) 0.0782(3)
H31F H 0.7388 0.9702 0.0519
C29F C 0.7547(2) 1.0188(2) 0.0852(3)
H32F H 0.7388 1.0336 0.0644
C30F C 0.7792(2) 1.0343(2) 0.1245(3)
H33F H 0.7802 1.0599 0.1309
C31F C 0.8017(2) 1.0105(2) 0.1537(3)
H34F H 0.8184 1.0200 0.1804
C32F C 0.79960(16) 0.9735(2) 0.1434(3)
C33F C 0.82259(15) 0.9477(2) 0.1728(3)
C34F C 0.84810(15) 0.9527(2) 0.2158(2)
H35F H 0.8550 0.9748 0.2336
C35F C 0.86092(15) 0.9185(2) 0.2265(3)
C36F C 0.88828(15) 0.9058(2) 0.2660(3)
C37F C 0.90216(15) 0.8736(2) 0.2640(3)
H36F H 0.8938 0.8581 0.2361
C38F C 0.92818(16) 0.8635(2) 0.3022(3)
H37F H 0.9374 0.8412 0.2997
C39F C 0.94144(16) 0.8851(3) 0.3448(3)
C40F C 0.92699(16) 0.9179(2) 0.3464(3)
H38F H 0.9351 0.9333 0.3745
C41F C 0.90089(15) 0.9284(2) 0.3073(3)
H39F H 0.8917 0.9510 0.3088
C42F C 0.98059(18) 0.8388(3) 0.3842(3)
C43F C 0.97039(19) 0.8060(4) 0.3951(3)
H40F H 0.9532 0.8060 0.4018
C44F C 0.98460(17) 0.7739(3) 0.3963(3)
H41F H 0.9774 0.7517 0.4043
C45F C 1.00987(17) 0.7733(3) 0.3860(3)
C46F C 1.02033(16) 0.8055(3) 0.3754(3)
H42F H 1.0376 0.8052 0.3689
C47F C 1.00563(17) 0.8393(3) 0.3740(3)
H43F H 1.0128 0.8617 0.3664
C48F C 0.99653(19) 0.9281(3) 0.4144(4)
H44F H 0.9937 0.9334 0.3814
C49F C 1.0143(2) 0.9525(4) 0.4515(5)
H45F H 1.0227 0.9740 0.4442
C50F C 1.0187(3) 0.9430(5) 0.4992(5)
H46F H 1.0318 0.9576 0.5254
C51F C 1.0048(4) 0.9128(4) 0.5113(6)
H47F H 1.0076 0.9083 0.5444
C52F C 0.9860(3) 0.8890(3) 0.4717(4)
H48F H 0.9760 0.8686 0.4780
C53F C 0.9831(2) 0.8975(3) 0.4222(4)
C54F C 1.04642(15) 0.7380(2) 0.3731(3)
H49F H 1.0534 0.7125 0.3754
H50F H 1.0403 0.7467 0.3392
H51F H 1.0624 0.7535 0.3953
C55F C 0.74635(14) 0.83264(17) -0.0871(2)
H52F H 0.7390 0.8475 -0.0683
C56F C 0.77317(14) 0.81588(19) -0.0641(3)
H53F H 0.7837 0.8182 -0.0295
C57F C 0.78481(15) 0.79559(18) -0.0914(3)
H54F H 0.8036 0.7843 -0.0760
C58F C 0.76856(14) 0.79188(17) -0.1417(3)
H55F H 0.7760 0.7781 -0.1615
C59F C 0.74151(14) 0.80870(19) -0.1621(2)
C60F C 0.72268(15) 0.80511(18) -0.2134(3)
C61F C 0.72520(15) 0.78465(18) -0.2514(3)
H56F H 0.7409 0.7687 -0.2490
C62F C 0.69980(16) 0.7923(2) -0.2937(3)
C63F C 0.69072(16) 0.7777(2) -0.3430(3)
C64F C 0.66354(16) 0.7873(2) -0.3812(3)
H57F H 0.6509 0.8046 -0.3756
C65F C 0.65568(18) 0.7711(2) -0.4266(3)
H58F H 0.6374 0.7781 -0.4520
C66F C 0.6723(2) 0.7455(3) -0.4378(3)
C67F C 0.7005(2) 0.7374(2) -0.3989(4)
H59F H 0.7138 0.7215 -0.4051
C68F C 0.7085(2) 0.7526(2) -0.3520(3)
H60F H 0.7266 0.7455 -0.3261
C69F C 0.6431(3) 0.7419(4) -0.5278(4)
C70F C 0.6456(3) 0.7791(4) -0.5375(4)
H61F H 0.6610 0.7939 -0.5152
C71F C 0.6249(3) 0.7936(4) -0.5810(4)
H62F H 0.6266 0.8187 -0.5883
C72F C 0.6014(3) 0.7727(4) -0.6149(5)
H63F H 0.5860 0.7829 -0.6429
C73F C 0.6034(4) 0.7354(4) -0.6025(5)
H64F H 0.5897 0.7195 -0.6261
C74F C 0.6228(3) 0.7191(4) -0.5602(4)
H65F H 0.6221 0.6936 -0.5540
C75F C 0.67652(15) 0.69139(17) -0.4849(3)
C76F C 0.68791(16) 0.68386(19) -0.5198(2)
H66F H 0.6891 0.7028 -0.5410
C77F C 0.69750(15) 0.6486(2) -0.5238(3)
H67F H 0.7053 0.6434 -0.5477
C78F C 0.69571(16) 0.62086(16) -0.4929(3)
C79F C 0.68433(18) 0.62839(19) -0.4580(3)
H68F H 0.6831 0.6094 -0.4369
C80F C 0.67473(15) 0.6637(2) -0.4540(3)
H69F H 0.6670 0.6688 -0.4301
C81F C 0.7140(3) 0.5766(4) -0.5336(5)
H70F H 0.7209 0.5511 -0.5298
H71F H 0.6966 0.5792 -0.5646
H72F H 0.7297 0.5929 -0.5341
C82F C 0.79921(14) 0.8210(2) 0.0767(2)
H73F H 0.8103 0.8334 0.0615
C83F C 0.79937(13) 0.78287(19) 0.0769(2)
H74F H 0.8093 0.7694 0.0607
C84F C 0.78459(15) 0.7652(2) 0.1013(2)
H75F H 0.7851 0.7392 0.1036
C85F C 0.76936(14) 0.7850(2) 0.1220(2)
H76F H 0.7586 0.7727 0.1379
C86F C 0.76935(14) 0.8236(2) 0.1200(2)
C87F C 0.75326(14) 0.8466(2) 0.1406(2)
C88F C 0.73485(14) 0.8385(2) 0.1641(2)
H77F H 0.7291 0.8149 0.1706
C89F C 0.72680(16) 0.8719(2) 0.1758(3)
C90F C 0.70824(17) 0.8806(2) 0.2034(3)
C91F C 0.69373(16) 0.9133(2) 0.1986(3)
H78F H 0.6945 0.9312 0.1759
C92F C 0.67794(16) 0.9202(2) 0.2269(3)
H79F H 0.6675 0.9428 0.2224
C93F C 0.67664(17) 0.8962(3) 0.2609(3)
C94F C 0.6381(3) 0.9267(3) 0.2774(4)
C95F C 0.6131(2) 0.9174(3) 0.2392(4)
H80F H 0.6125 0.8955 0.2215
C96F C 0.5884(3) 0.9391(3) 0.2254(5)
H81F H 0.5701 0.9323 0.1999
C97F C 0.5921(3) 0.9721(4) 0.2520(6)
C98F C 0.6180(3) 0.9804(4) 0.2884(5)
H82F H 0.6194 1.0032 0.3048
C99F C 0.6416(3) 0.9594(3) 0.3032(4)
H83F H 0.6597 0.9662 0.3294
C100F C 0.6776(2) 0.8943(2) 0.3459(4)
C101F C 0.7085(2) 0.8932(3) 0.3690(4)
H84F H 0.7205 0.8986 0.3516
C102F C 0.7206(3) 0.8838(3) 0.4185(4)
H85F H 0.7415 0.8837 0.4344
C103F C 0.7050(4) 0.8744(4) 0.4476(6)
H86F H 0.7144 0.8672 0.4811
C104F C 0.6740(4) 0.8768(3) 0.4219(5)
H87F H 0.6617 0.8715 0.4388
C105F C 0.6613(3) 0.8866(2) 0.3735(4)
H88F H 0.6405 0.8883 0.3579
C106F C 0.5423(3) 0.9855(5) 0.2169(6)
H89F H 0.5283 1.0061 0.2080
H90F H 0.5404 0.9721 0.1871
H91F H 0.5380 0.9689 0.2392
C107F C 0.69032(17) 0.8610(2) 0.2642(3)
H92F H 0.6890 0.8426 0.2861
C108F C 0.70553(17) 0.8543(2) 0.2345(3)
H93F H 0.7143 0.8309 0.2358
C109F C 0.62001(14) 0.8597(2) -0.2407(2)
H94F H 0.6186 0.8342 -0.2352
C110F C 0.59412(16) 0.8795(2) -0.2664(3)
H95F H 0.5754 0.8677 -0.2772
C111F C 0.59602(15) 0.9160(2) -0.2760(3)
H96F H 0.5787 0.9298 -0.2936
C112F C 0.62346(15) 0.9326(2) -0.2596(2)
H97F H 0.6252 0.9579 -0.2658
C113F C 0.64869(15) 0.9114(2) -0.2336(3)
C114F C 0.67856(14) 0.9275(2) -0.2131(2)
C115F C 0.68864(14) 0.9622(2) -0.2125(2)
H98F H 0.6772 0.9834 -0.2266
C116F C 0.71895(16) 0.9606(2) -0.1871(3)
C117F C 0.74113(15) 0.9891(2) -0.1771(3)
C118F C 0.76909(16) 0.9868(2) -0.1391(3)
H99F H 0.7732 0.9668 -0.1167
C119F C 0.79085(19) 1.0121(3) -0.1325(3)
H100F H 0.8096 1.0096 -0.1059
C120F C 0.78541(17) 1.0415(2) -0.1651(3)
C121F C 0.75696(19) 1.0466(2) -0.1997(3)
H101F H 0.7520 1.0681 -0.2196
C122F C 0.73543(17) 1.0199(2) -0.2055(3)
H102F H 0.7161 1.0234 -0.2301
C123F C 0.8391(2) 1.0531(3) -0.1379(4)
C124F C 0.8476(2) 1.0188(3) -0.1522(3)
H103F H 0.8342 1.0046 -0.1786
C125F C 0.87581(19) 1.0075(3) -0.1260(4)
H104F H 0.8818 0.9841 -0.1327
C126F C 0.8955(2) 1.0285(4) -0.0910(4)
C127F C 0.8879(2) 1.0629(4) -0.0767(4)
H105F H 0.9019 1.0772 -0.0510
C128F C 0.8597(2) 1.0745(3) -0.1012(3)
H106F H 0.8539 1.0977 -0.0933
C129F C 0.80222(18) 1.1012(2) -0.1834(3)
C130F C 0.8155(2) 1.1126(3) -0.2125(4)
H107F H 0.8278 1.0964 -0.2208
C131F C 0.8109(3) 1.1487(3) -0.2305(4)
H108F H 0.8204 1.1565 -0.2510
C132F C 0.7935(2) 1.1727(3) -0.2201(4)
H109F H 0.7913 1.1974 -0.2314
C133F C 0.7795(2) 1.1596(3) -0.1927(5)
H110F H 0.7661 1.1751 -0.1862
C134F C 0.78411(19) 1.1244(3) -0.1739(4)
H111F H 0.7743 1.1165 -0.1539
C135F C 0.9443(2) 1.0349(4) -0.0250(4)
H112F H 0.9636 1.0228 -0.0106
H113F H 0.9467 1.0599 -0.0351
H114F H 0.9357 1.0360 -0.0005
C136F C 0.6254(2) 0.8144(3) 0.2760(4)
H115F H 0.6140 0.8321 0.2845
C137F C 0.6480(3) 0.7941(3) 0.3092(4)
H116F H 0.6554 0.7948 0.3441
C138F C 0.65751(19) 0.7724(2) 0.2802(3)
H117F H 0.6732 0.7551 0.2925
C139F C 0.55418(19) 0.7781(3) 0.1318(3)
H118F H 0.5389 0.7944 0.1305
C140F C 0.55126(19) 0.7417(3) 0.1147(3)
H119F H 0.5335 0.7282 0.0998
C141F C 0.57939(19) 0.7295(2) 0.1238(3)
H120F H 0.5842 0.7058 0.1157
C142F C 0.6186(2) 0.8629(3) 0.1273(3)
H121F H 0.6067 0.8837 0.1259
C143F C 0.63758(18) 0.8606(2) 0.1053(3)
H122F H 0.6417 0.8789 0.0862
C144F C 0.65003(14) 0.8251(2) 0.1166(3)
H123F H 0.6643 0.8149 0.1062
C145F C 0.64480(16) 0.7085(2) 0.1934(3)
C146F C 0.68510(17) 0.76030(18) 0.1978(3)
C147F C 0.64325(13) 0.73926(18) 0.1109(3)
C148F C 0.69800(19) 1.0252(2) -0.0675(3)
H124F H 0.6930 1.0505 -0.0726
C149F C 0.72174(17) 1.0100(2) -0.0722(3)
H125F H 0.7365 1.0216 -0.0800
C150F C 0.71915(17) 0.9728(2) -0.0627(3)
H126F H 0.7325 0.9543 -0.0634
C151F C 0.65580(17) 0.9997(2) 0.0417(3)
H127F H 0.6479 1.0232 0.0433
C152F C 0.66422(18) 0.9740(2) 0.0781(3)
H128F H 0.6636 0.9758 0.1096
C153F C 0.67390(15) 0.9446(2) 0.0586(3)
H129F H 0.6810 0.9221 0.0755
C154F C 0.60492(16) 0.9805(2) -0.1195(3)
H130F H 0.5941 1.0029 -0.1267
C155F C 0.59559(15) 0.9481(2) -0.1427(3)
H131F H 0.5772 0.9435 -0.1693
C156F C 0.61770(15) 0.92317(19) -0.1208(2)
H132F H 0.6173 0.8981 -0.1299
C157F C 0.68305(13) 0.89302(18) -0.0844(3)
C158F C 0.66182(13) 0.88084(19) -0.0209(2)
C159F C 0.71637(14) 0.90697(17) 0.0082(2)
C160F C 0.53333(15) 0.7099(2) -0.2551(2)
H133F H 0.5141 0.7119 -0.2806
C161F C 0.54258(15) 0.6807(2) -0.2252(3)
H134F H 0.5318 0.6591 -0.2250
C162F C 0.57124(14) 0.68923(19) -0.1948(3)
H135F H 0.5841 0.6741 -0.1690
C163F C 0.58106(18) 0.77804(19) -0.3295(3)
H136F H 0.5650 0.7865 -0.3580
C164F C 0.60860(18) 0.7698(2) -0.3274(3)
H137F H 0.6155 0.7708 -0.3530
C165F C 0.62395(16) 0.75975(18) -0.2784(3)
H138F H 0.6442 0.7528 -0.2649
C166F C 0.55265(15) 0.8310(2) -0.2139(3)
H139F H 0.5344 0.8412 -0.2358
C167F C 0.57006(15) 0.8449(2) -0.1691(3)
H140F H 0.5666 0.8658 -0.1530
C168F C 0.59425(15) 0.82110(19) -0.1522(3)
H141F H 0.6107 0.8240 -0.1217
C169F C 0.64897(14) 0.78202(19) -0.1665(2)
C170F C 0.62145(12) 0.74192(17) -0.1165(3)
C171F C 0.63818(15) 0.7092(2) -0.1828(3)
C172F C 0.89786(17) 0.9163(2) -0.0761(3)
H142F H 0.9143 0.9287 -0.0779
C173F C 0.88214(19) 0.8891(2) -0.1078(3)
H143F H 0.8851 0.8794 -0.1352
C174F C 0.86063(16) 0.8788(2) -0.0903(3)
H144F H 0.8462 0.8602 -0.1043
C175F C 0.92455(15) 0.9217(2) 0.0935(3)
H145F H 0.9429 0.9341 0.1022
C176F C 0.91803(15) 0.8984(2) 0.1234(3)
H146F H 0.9302 0.8912 0.1561
C177F C 0.88877(15) 0.88758(19) 0.0945(3)
H147F H 0.8775 0.8710 0.1048
C178F C 0.8651(2) 1.0085(2) -0.0006(3)
H148F H 0.8797 1.0266 0.0037
C179F C 0.8364(2) 1.0158(2) -0.0052(3)
H149F H 0.8275 1.0389 -0.0051
C180F C 0.82429(17) 0.9818(2) -0.0100(3)
H150F H 0.8046 0.9775 -0.0135
C181F C 0.81856(14) 0.90347(16) 0.0292(2)
C182F C 0.80519(15) 0.89979(18) -0.0651(3)
C183F C 0.65701(12) 0.65086(19) 0.0042(2)
C184F C 0.71010(14) 0.80781(18) -0.0008(3)
C185F C 0.68713(15) 0.78409(18) 0.0059(2)
O1F O 0.54968(16) 1.0671(2) -0.1707(3)
O2F O 1.02179(12) 0.73948(16) 0.38707(18)
O3F O 0.7063(2) 0.5867(2) -0.4919(3)
O4F O 0.5703(3) 0.9987(2) 0.2398(4)
O5F O 0.92448(16) 1.0138(2) -0.0686(3)
P1 P 0.5000 0.92112(13) 0.7500
F1 F 0.5200(3) 0.9233(4) 0.8014(5)
F2 F 0.52878(19) 0.91946(19) 0.7403(6)
F3 F 0.5000 0.8806(3) 0.7500
F4 F 0.5000 0.9611(3) 0.7500
F1A F 0.4800(3) 0.9233(4) 0.6986(5)
F2A F 0.47122(19) 0.91946(19) 0.7597(6)
P2 P 0.5000 0.5694(6) 0.7500
F5 F 0.5301(2) 0.5634(3) 0.7388(5)
F6 F 0.4909(4) 0.5994(4) 0.7047(9)
F7 F 0.4847(3) 0.5411(4) 0.7038(9)
F5A F 0.4699(2) 0.5634(3) 0.7612(5)
F6A F 0.5091(4) 0.5994(4) 0.7953(9)
F7A F 0.5153(3) 0.5411(4) 0.7962(9)
loop_
_geom_bond_atom_site_label_1
_geom_bond_atom_site_label_2
_geom_bond_site_symmetry_1
_geom_bond_site_symmetry_2
Co1 N9 1_555 1_555
Co2 N1 1_555 1_555
Co3 N5 1_555 1_555
Fe1 N24 1_555 1_555
Fe2 N33 1_555 1_555
Fe3 N42 1_555 1_555
Fe4 N51 1_555 1_555
B1 H1 1_555 1_555
B2 H2 1_555 1_555
B3 H3 1_555 1_555
B4 H4 1_555 1_555
N1 C1 1_555 1_555
N2 Co2 1_555 1_555
N3 N2 1_555 1_555
H5 N3 1_555 1_555
N4 C11 1_555 1_555
N5 C28 1_555 1_555
N6 Co3 1_555 1_555
N7 N6 1_555 1_555
H6 N7 1_555 1_555
N8 C39 1_555 1_555
N9 C55 1_555 1_555
N10 Co1 1_555 1_555
N11 N10 1_555 1_555
H7 N11 1_555 1_555
N12 C66 1_555 1_555
N13 Co3 1_555 1_555
N14 Co3 1_555 1_555
N15 N14 1_555 1_555
H8 N15 1_555 1_555
N16 C93 1_555 1_555
N17 Co1 1_555 1_555
N18 Co1 1_555 1_555
N19 N18 1_555 1_555
H9 N19 1_555 1_555
N20 C120 1_555 1_555
N21 B1 1_555 1_555
N22 B1 1_555 1_555
N23 B1 1_555 1_555
N24 N21 1_555 1_555
N25 Fe1 1_555 1_555
N26 Fe1 1_555 1_555
N27 C146 1_555 1_555
N28 Co2 1_555 1_555
N29 C145 1_555 1_555
N30 B2 1_555 1_555
N31 B2 1_555 1_555
N32 B2 1_555 1_555
N33 N30 1_555 1_555
N34 Fe2 1_555 1_555
N35 Fe2 1_555 1_555
N36 Co2 1_555 1_555
N37 Co1 1_555 1_555
N38 C171 1_555 1_555
N39 B3 1_555 1_555
N40 B3 1_555 1_555
N41 B3 1_555 1_555
N42 N40 1_555 1_555
N43 Fe3 1_555 1_555
N44 Fe3 1_555 1_555
N45 C182 1_555 1_555
N46 Co3 1_555 1_555
N47 Co2 1_555 1_555
N48 B4 1_555 1_555
N49 B4 1_555 1_555
N50 B4 1_555 1_555
N51 N48 1_555 1_555
N52 Fe4 1_555 1_555
N53 Fe4 1_555 1_555
N54 Co1 1_555 1_555
N55 Co3 1_555 1_555
N56 C158 1_555 1_555
N57 Co2 1_555 1_555
C1 H10 1_555 1_555
C2 C1 1_555 1_555
H11 C2 1_555 1_555
C3 C2 1_555 1_555
H12 C3 1_555 1_555
C4 C3 1_555 1_555
H13 C4 1_555 1_555
C5 N1 1_555 1_555
C6 H14 1_555 1_555
C7 N3 1_555 1_555
C8 C7 1_555 1_555
C9 C8 1_555 1_555
H15 C9 1_555 1_555
C10 C9 1_555 1_555
H16 C10 1_555 1_555
C11 C10 1_555 1_555
C12 C11 1_555 1_555
H17 C12 1_555 1_555
C13 C8 1_555 1_555
H18 C13 1_555 1_555
C14 N4 1_555 1_555
C15 C14 1_555 1_555
H19 C15 1_555 1_555
C16 C15 1_555 1_555
H20 C16 1_555 1_555
C17 C16 1_555 1_555
C18 C17 1_555 1_555
H21 C18 1_555 1_555
C19 C14 1_555 1_555
H22 C19 1_555 1_555
C20 H23 1_555 1_555
C21 N4 1_555 1_555
C22 C21 1_555 1_555
H24 C22 1_555 1_555
C23 C22 1_555 1_555
H25 C23 1_555 1_555
C24 C23 1_555 1_555
H26 C24 1_555 1_555
C25 C20 1_555 1_555
H27 C25 1_555 1_555
C26 H28 1_555 1_555
H29 C26 1_555 1_555
H30 C26 1_555 1_555
C27 N2 1_555 1_555
C28 H31 1_555 1_555
C29 C28 1_555 1_555
H32 C29 1_555 1_555
C30 C29 1_555 1_555
H33 C30 1_555 1_555
C31 C30 1_555 1_555
H34 C31 1_555 1_555
C32 N5 1_555 1_555
C33 N6 1_555 1_555
C34 C33 1_555 1_555
H35 C34 1_555 1_555
C35 N7 1_555 1_555
C36 C35 1_555 1_555
C37 C36 1_555 1_555
H36 C37 1_555 1_555
C38 C37 1_555 1_555
H37 C38 1_555 1_555
C39 C38 1_555 1_555
C40 C39 1_555 1_555
H38 C40 1_555 1_555
C41 C36 1_555 1_555
H39 C41 1_555 1_555
C42 N8 1_555 1_555
C43 C42 1_555 1_555
H40 C43 1_555 1_555
C44 C43 1_555 1_555
H41 C44 1_555 1_555
C45 C44 1_555 1_555
C46 C45 1_555 1_555
H42 C46 1_555 1_555
C47 C42 1_555 1_555
H43 C47 1_555 1_555
C48 H44 1_555 1_555
C49 C48 1_555 1_555
H45 C49 1_555 1_555
C50 C49 1_555 1_555
H46 C50 1_555 1_555
C51 C50 1_555 1_555
H47 C51 1_555 1_555
C52 C51 1_555 1_555
H48 C52 1_555 1_555
C53 N8 1_555 1_555
C54 H49 1_555 1_555
H50 C54 1_555 1_555
H51 C54 1_555 1_555
C55 H52 1_555 1_555
C56 C55 1_555 1_555
H53 C56 1_555 1_555
C57 C56 1_555 1_555
H54 C57 1_555 1_555
C58 C57 1_555 1_555
H55 C58 1_555 1_555
C59 N9 1_555 1_555
C60 N10 1_555 1_555
C61 C60 1_555 1_555
H56 C61 1_555 1_555
C62 N11 1_555 1_555
C63 C62 1_555 1_555
C64 C63 1_555 1_555
H57 C64 1_555 1_555
C65 C64 1_555 1_555
H58 C65 1_555 1_555
C66 C65 1_555 1_555
C67 C66 1_555 1_555
H59 C67 1_555 1_555
C68 C63 1_555 1_555
H60 C68 1_555 1_555
C69 N12 1_555 1_555
C70 C69 1_555 1_555
H61 C70 1_555 1_555
C71 C70 1_555 1_555
H62 C71 1_555 1_555
C72 C71 1_555 1_555
H63 C72 1_555 1_555
C73 C72 1_555 1_555
H64 C73 1_555 1_555
C74 C69 1_555 1_555
H65 C74 1_555 1_555
C75 N12 1_555 1_555
C76 C75 1_555 1_555
H66 C76 1_555 1_555
C77 C76 1_555 1_555
H67 C77 1_555 1_555
C78 C77 1_555 1_555
C79 C78 1_555 1_555
H68 C79 1_555 1_555
C80 C75 1_555 1_555
H69 C80 1_555 1_555
C81 H70 1_555 1_555
H71 C81 1_555 1_555
H72 C81 1_555 1_555
C82 N13 1_555 1_555
H73 C82 1_555 1_555
C83 C82 1_555 1_555
H74 C83 1_555 1_555
C84 C83 1_555 1_555
H75 C84 1_555 1_555
C85 C84 1_555 1_555
H76 C85 1_555 1_555
C86 N13 1_555 1_555
C87 N14 1_555 1_555
C88 C87 1_555 1_555
H77 C88 1_555 1_555
C89 N15 1_555 1_555
C90 C89 1_555 1_555
C91 C90 1_555 1_555
H78 C91 1_555 1_555
C92 C91 1_555 1_555
H79 C92 1_555 1_555
C93 C92 1_555 1_555
C94 N16 1_555 1_555
C95 C94 1_555 1_555
H80 C95 1_555 1_555
C96 C95 1_555 1_555
H81 C96 1_555 1_555
C97 C96 1_555 1_555
C98 C97 1_555 1_555
H82 C98 1_555 1_555
C99 C94 1_555 1_555
H83 C99 1_555 1_555
C100 N16 1_555 1_555
C101 C100 1_555 1_555
H84 C101 1_555 1_555
C102 C101 1_555 1_555
H85 C102 1_555 1_555
C103 C102 1_555 1_555
H86 C103 1_555 1_555
C104 C103 1_555 1_555
H87 C104 1_555 1_555
C105 C100 1_555 1_555
H88 C105 1_555 1_555
C106 H89 1_555 1_555
H90 C106 1_555 1_555
H91 C106 1_555 1_555
C107 C93 1_555 1_555
H92 C107 1_555 1_555
C108 C90 1_555 1_555
H93 C108 1_555 1_555
C109 N17 1_555 1_555
H94 C109 1_555 1_555
C110 C109 1_555 1_555
H95 C110 1_555 1_555
C111 C110 1_555 1_555
H96 C111 1_555 1_555
C112 C111 1_555 1_555
H97 C112 1_555 1_555
C113 N17 1_555 1_555
C114 N18 1_555 1_555
C115 C114 1_555 1_555
H98 C115 1_555 1_555
C116 N19 1_555 1_555
C117 C116 1_555 1_555
C118 C117 1_555 1_555
H99 C118 1_555 1_555
C119 C118 1_555 1_555
H100 C119 1_555 1_555
C120 C119 1_555 1_555
C121 C120 1_555 1_555
H101 C121 1_555 1_555
C122 C117 1_555 1_555
H102 C122 1_555 1_555
C123 N20 1_555 1_555
C124 C123 1_555 1_555
H103 C124 1_555 1_555
C125 C124 1_555 1_555
H104 C125 1_555 1_555
C126 C125 1_555 1_555
C127 C126 1_555 1_555
H105 C127 1_555 1_555
C128 C123 1_555 1_555
H106 C128 1_555 1_555
C129 N20 1_555 1_555
C130 C129 1_555 1_555
H107 C130 1_555 1_555
C131 C130 1_555 1_555
H108 C131 1_555 1_555
C132 C131 1_555 1_555
H109 C132 1_555 1_555
C133 C132 1_555 1_555
H110 C133 1_555 1_555
C134 C129 1_555 1_555
H111 C134 1_555 1_555
C135 H112 1_555 1_555
H113 C135 1_555 1_555
H114 C135 1_555 1_555
C136 N21 1_555 1_555
H115 C136 1_555 1_555
C137 C136 1_555 1_555
H116 C137 1_555 1_555
C138 N24 1_555 1_555
H117 C138 1_555 1_555
C139 N22 1_555 1_555
H118 C139 1_555 1_555
C140 C139 1_555 1_555
H119 C140 1_555 1_555
C141 N25 1_555 1_555
H120 C141 1_555 1_555
C142 N23 1_555 1_555
H121 C142 1_555 1_555
C143 C142 1_555 1_555
H122 C143 1_555 1_555
C144 N26 1_555 1_555
H123 C144 1_555 1_555
C145 Fe1 1_555 1_555
C146 Fe1 1_555 1_555
C147 Fe1 1_555 1_555
C148 N50 1_555 1_555
H124 C148 1_555 1_555
C149 C148 1_555 1_555
H125 C149 1_555 1_555
C150 N53 1_555 1_555
H126 C150 1_555 1_555
C151 N49 1_555 1_555
H127 C151 1_555 1_555
C152 C151 1_555 1_555
H128 C152 1_555 1_555
C153 N52 1_555 1_555
H129 C153 1_555 1_555
C154 N48 1_555 1_555
H130 C154 1_555 1_555
C155 C154 1_555 1_555
H131 C155 1_555 1_555
C156 N51 1_555 1_555
H132 C156 1_555 1_555
C157 Fe4 1_555 1_555
C158 Fe4 1_555 1_555
C159 Fe4 1_555 1_555
C160 N30 1_555 1_555
H133 C160 1_555 1_555
C161 C160 1_555 1_555
H134 C161 1_555 1_555
C162 N33 1_555 1_555
H135 C162 1_555 1_555
C163 N31 1_555 1_555
H136 C163 1_555 1_555
C164 C163 1_555 1_555
H137 C164 1_555 1_555
C165 N34 1_555 1_555
H138 C165 1_555 1_555
C166 N32 1_555 1_555
H139 C166 1_555 1_555
C167 C166 1_555 1_555
H140 C167 1_555 1_555
C168 N35 1_555 1_555
H141 C168 1_555 1_555
C169 Fe2 1_555 1_555
C170 Fe2 1_555 1_555
C171 Fe2 1_555 1_555
C172 N41 1_555 1_555
H142 C172 1_555 1_555
C173 C172 1_555 1_555
H143 C173 1_555 1_555
C174 N43 1_555 1_555
H144 C174 1_555 1_555
C175 N40 1_555 1_555
H145 C175 1_555 1_555
C176 C175 1_555 1_555
H146 C176 1_555 1_555
C177 N42 1_555 1_555
H147 C177 1_555 1_555
C178 N39 1_555 1_555
H148 C178 1_555 1_555
C179 C178 1_555 1_555
H149 C179 1_555 1_555
C180 N44 1_555 1_555
H150 C180 1_555 1_555
C181 Fe3 1_555 1_555
C182 Fe3 1_555 1_555
C183 N47 1_555 1_555
C184 C185 1_555 1_555
C185 N57 1_555 1_555
O1 C17 1_555 1_555
O2 C45 1_555 1_555
O3 C78 1_555 1_555
O4 C97 1_555 1_555
O5 C126 1_555 1_555
P1 F1 1_555 1_555
F2 P1 1_555 1_555
F3 P1 1_555 1_555
F4 P1 1_555 1_555
P2 F5 1_555 1_555
F6 P2 1_555 1_555
F7 P2 1_555 1_555
Co1F N9F 1_555 1_555
Co2F N1F 1_555 1_555
Co3F N5F 1_555 1_555
Fe1F N24F 1_555 1_555
Fe2F N33F 1_555 1_555
Fe3F C183 1_555 1_555
Fe4F N51F 1_555 1_555
B1F H1F 1_555 1_555
B2F H2F 1_555 1_555
B3F H3F 1_555 1_555
B4F H4F 1_555 1_555
N1F C1F 1_555 1_555
N2F Co2F 1_555 1_555
N3F N2F 1_555 1_555
H5F N3F 1_555 1_555
N4F C11F 1_555 1_555
N5F C28F 1_555 1_555
N6F Co3F 1_555 1_555
N7F N6F 1_555 1_555
H6F N7F 1_555 1_555
N8F C39F 1_555 1_555
N9F C55F 1_555 1_555
N10F Co1F 1_555 1_555
N11F N10F 1_555 1_555
H7F N11F 1_555 1_555
N12F C66F 1_555 1_555
N13F Co3F 1_555 1_555
N14F Co3F 1_555 1_555
N15F N14F 1_555 1_555
H8F N15F 1_555 1_555
N16F C93F 1_555 1_555
N17F Co1F 1_555 1_555
N18F Co1F 1_555 1_555
N19F N18F 1_555 1_555
H9F N19F 1_555 1_555
N20F C120F 1_555 1_555
N21F B1F 1_555 1_555
N22F B1F 1_555 1_555
N23F B1F 1_555 1_555
N24F N21F 1_555 1_555
N25F Fe1F 1_555 1_555
N26F Fe1F 1_555 1_555
N27F C146F 1_555 1_555
N28F Co2F 1_555 1_555
N29F C145F 1_555 1_555
N30F B2F 1_555 1_555
N31F B2F 1_555 1_555
N32F B2F 1_555 1_555
N33F N30F 1_555 1_555
N34F Fe2F 1_555 1_555
N35F Fe2F 1_555 1_555
N36F Co2F 1_555 1_555
N37F Co1F 1_555 1_555
N38F C171F 1_555 1_555
N39F B3F 1_555 1_555
N40F B3F 1_555 1_555
N41F B3F 1_555 1_555
N42F Fe3F 1_555 1_555
N43F Fe3F 1_555 1_555
N44F Fe3F 1_555 1_555
N45F C182F 1_555 1_555
N46F Co3F 1_555 1_555
N47F Co2F 1_555 1_555
N48F B4F 1_555 1_555
N49F B4F 1_555 1_555
N50F B4F 1_555 1_555
N51F N48F 1_555 1_555
N52F Fe4F 1_555 1_555
N53F Fe4F 1_555 1_555
N54F Co1F 1_555 1_555
N55F Co3F 1_555 1_555
N56F C158F 1_555 1_555
N57F Co2F 1_555 1_555
C1F H10F 1_555 1_555
C2F C1F 1_555 1_555
H11F C2F 1_555 1_555
C3F C2F 1_555 1_555
H12F C3F 1_555 1_555
C4F C3F 1_555 1_555
H13F C4F 1_555 1_555
C5F N1F 1_555 1_555
C6F H14F 1_555 1_555
C7F N3F 1_555 1_555
C8F C7F 1_555 1_555
C9F C8F 1_555 1_555
H15F C9F 1_555 1_555
C10F C9F 1_555 1_555
H16F C10F 1_555 1_555
C11F C10F 1_555 1_555
C12F C11F 1_555 1_555
H17F C12F 1_555 1_555
C13F C8F 1_555 1_555
H18F C13F 1_555 1_555
C14F N4F 1_555 1_555
C15F C14F 1_555 1_555
H19F C15F 1_555 1_555
C16F C15F 1_555 1_555
H20F C16F 1_555 1_555
C17F C16F 1_555 1_555
C18F C17F 1_555 1_555
H21F C18F 1_555 1_555
C19F C14F 1_555 1_555
H22F C19F 1_555 1_555
C20F H23F 1_555 1_555
C21F N4F 1_555 1_555
C22F C21F 1_555 1_555
H24F C22F 1_555 1_555
C23F C22F 1_555 1_555
H25F C23F 1_555 1_555
C24F C23F 1_555 1_555
H26F C24F 1_555 1_555
C25F C20F 1_555 1_555
H27F C25F 1_555 1_555
C26F H28F 1_555 1_555
H29F C26F 1_555 1_555
H30F C26F 1_555 1_555
C27F N2F 1_555 1_555
C28F H31F 1_555 1_555
C29F C28F 1_555 1_555
H32F C29F 1_555 1_555
C30F C29F 1_555 1_555
H33F C30F 1_555 1_555
C31F C30F 1_555 1_555
H34F C31F 1_555 1_555
C32F N5F 1_555 1_555
C33F N6F 1_555 1_555
C34F C33F 1_555 1_555
H35F C34F 1_555 1_555
C35F N7F 1_555 1_555
C36F C35F 1_555 1_555
C37F C36F 1_555 1_555
H36F C37F 1_555 1_555
C38F C37F 1_555 1_555
H37F C38F 1_555 1_555
C39F C38F 1_555 1_555
C40F C39F 1_555 1_555
H38F C40F 1_555 1_555
C41F C36F 1_555 1_555
H39F C41F 1_555 1_555
C42F N8F 1_555 1_555
C43F C42F 1_555 1_555
H40F C43F 1_555 1_555
C44F C43F 1_555 1_555
H41F C44F 1_555 1_555
C45F C44F 1_555 1_555
C46F C45F 1_555 1_555
H42F C46F 1_555 1_555
C47F C42F 1_555 1_555
H43F C47F 1_555 1_555
C48F H44F 1_555 1_555
C49F C48F 1_555 1_555
H45F C49F 1_555 1_555
C50F C49F 1_555 1_555
H46F C50F 1_555 1_555
C51F C50F 1_555 1_555
H47F C51F 1_555 1_555
C52F C51F 1_555 1_555
H48F C52F 1_555 1_555
C53F N8F 1_555 1_555
C54F H49F 1_555 1_555
H50F C54F 1_555 1_555
H51F C54F 1_555 1_555
C55F H52F 1_555 1_555
C56F C55F 1_555 1_555
H53F C56F 1_555 1_555
C57F C56F 1_555 1_555
H54F C57F 1_555 1_555
C58F C57F 1_555 1_555
H55F C58F 1_555 1_555
C59F N9F 1_555 1_555
C60F N10F 1_555 1_555
C61F C60F 1_555 1_555
H56F C61F 1_555 1_555
C62F N11F 1_555 1_555
C63F C62F 1_555 1_555
C64F C63F 1_555 1_555
H57F C64F 1_555 1_555
C65F C64F 1_555 1_555
H58F C65F 1_555 1_555
C66F C65F 1_555 1_555
C67F C66F 1_555 1_555
H59F C67F 1_555 1_555
C68F C63F 1_555 1_555
H60F C68F 1_555 1_555
C69F N12F 1_555 1_555
C70F C69F 1_555 1_555
H61F C70F 1_555 1_555
C71F C70F 1_555 1_555
H62F C71F 1_555 1_555
C72F C71F 1_555 1_555
H63F C72F 1_555 1_555
C73F C72F 1_555 1_555
H64F C73F 1_555 1_555
C74F C69F 1_555 1_555
H65F C74F 1_555 1_555
C75F N12F 1_555 1_555
C76F C75F 1_555 1_555
H66F C76F 1_555 1_555
C77F C76F 1_555 1_555
H67F C77F 1_555 1_555
C78F C77F 1_555 1_555
C79F C78F 1_555 1_555
H68F C79F 1_555 1_555
C80F C75F 1_555 1_555
H69F C80F 1_555 1_555
C81F H70F 1_555 1_555
H71F C81F 1_555 1_555
H72F C81F 1_555 1_555
C82F N13F 1_555 1_555
H73F C82F 1_555 1_555
C83F C82F 1_555 1_555
H74F C83F 1_555 1_555
C84F C83F 1_555 1_555
H75F C84F 1_555 1_555
C85F C84F 1_555 1_555
H76F C85F 1_555 1_555
C86F N13F 1_555 1_555
C87F N14F 1_555 1_555
C88F C87F 1_555 1_555
H77F C88F 1_555 1_555
C89F N15F 1_555 1_555
C90F C89F 1_555 1_555
C91F C90F 1_555 1_555
H78F C91F 1_555 1_555
C92F C91F 1_555 1_555
H79F C92F 1_555 1_555
C93F C92F 1_555 1_555
C94F N16F 1_555 1_555
C95F C94F 1_555 1_555
H80F C95F 1_555 1_555
C96F C95F 1_555 1_555
H81F C96F 1_555 1_555
C97F C96F 1_555 1_555
C98F C97F 1_555 1_555
H82F C98F 1_555 1_555
C99F C94F 1_555 1_555
H83F C99F 1_555 1_555
C100F N16F 1_555 1_555
C101F C100F 1_555 1_555
H84F C101F 1_555 1_555
C102F C101F 1_555 1_555
H85F C102F 1_555 1_555
C103F C102F 1_555 1_555
H86F C103F 1_555 1_555
C104F C103F 1_555 1_555
H87F C104F 1_555 1_555
C105F C100F 1_555 1_555
H88F C105F 1_555 1_555
C106F H89F 1_555 1_555
H90F C106F 1_555 1_555
H91F C106F 1_555 1_555
C107F C93F 1_555 1_555
H92F C107F 1_555 1_555
C108F C90F 1_555 1_555
H93F C108F 1_555 1_555
C109F N17F 1_555 1_555
H94F C109F 1_555 1_555
C110F C109F 1_555 1_555
H95F C110F 1_555 1_555
C111F C110F 1_555 1_555
H96F C111F 1_555 1_555
C112F C111F 1_555 1_555
H97F C112F 1_555 1_555
C113F N17F 1_555 1_555
C114F N18F 1_555 1_555
C115F C114F 1_555 1_555
H98F C115F 1_555 1_555
C116F N19F 1_555 1_555
C117F C116F 1_555 1_555
C118F C117F 1_555 1_555
H99F C118F 1_555 1_555
C119F C118F 1_555 1_555
H100F C119F 1_555 1_555
C120F C119F 1_555 1_555
C121F C120F 1_555 1_555
H101F C121F 1_555 1_555
C122F C117F 1_555 1_555
H102F C122F 1_555 1_555
C123F N20F 1_555 1_555
C124F C123F 1_555 1_555
H103F C124F 1_555 1_555
C125F C124F 1_555 1_555
H104F C125F 1_555 1_555
C126F C125F 1_555 1_555
C127F C126F 1_555 1_555
H105F C127F 1_555 1_555
C128F C123F 1_555 1_555
H106F C128F 1_555 1_555
C129F N20F 1_555 1_555
C130F C129F 1_555 1_555
H107F C130F 1_555 1_555
C131F C130F 1_555 1_555
H108F C131F 1_555 1_555
C132F C131F 1_555 1_555
H109F C132F 1_555 1_555
C133F C132F 1_555 1_555
H110F C133F 1_555 1_555
C134F C129F 1_555 1_555
H111F C134F 1_555 1_555
C135F H112F 1_555 1_555
H113F C135F 1_555 1_555
H114F C135F 1_555 1_555
C136F N21F 1_555 1_555
H115F C136F 1_555 1_555
C137F C136F 1_555 1_555
H116F C137F 1_555 1_555
C138F N24F 1_555 1_555
H117F C138F 1_555 1_555
C139F N22F 1_555 1_555
H118F C139F 1_555 1_555
C140F C139F 1_555 1_555
H119F C140F 1_555 1_555
C141F N25F 1_555 1_555
H120F C141F 1_555 1_555
C142F N23F 1_555 1_555
H121F C142F 1_555 1_555
C143F C142F 1_555 1_555
H122F C143F 1_555 1_555
C144F N26F 1_555 1_555
H123F C144F 1_555 1_555
C145F Fe1F 1_555 1_555
C146F Fe1F 1_555 1_555
C147F Fe1F 1_555 1_555
C148F N50F 1_555 1_555
H124F C148F 1_555 1_555
C149F C148F 1_555 1_555
H125F C149F 1_555 1_555
C150F N53F 1_555 1_555
H126F C150F 1_555 1_555
C151F N49F 1_555 1_555
H127F C151F 1_555 1_555
C152F C151F 1_555 1_555
H128F C152F 1_555 1_555
C153F N52F 1_555 1_555
H129F C153F 1_555 1_555
C154F N48F 1_555 1_555
H130F C154F 1_555 1_555
C155F C154F 1_555 1_555
H131F C155F 1_555 1_555
C156F N51F 1_555 1_555
H132F C156F 1_555 1_555
C157F Fe4F 1_555 1_555
C158F Fe4F 1_555 1_555
C159F Fe4F 1_555 1_555
C160F N30F 1_555 1_555
H133F C160F 1_555 1_555
C161F C160F 1_555 1_555
H134F C161F 1_555 1_555
C162F N33F 1_555 1_555
H135F C162F 1_555 1_555
C163F N31F 1_555 1_555
H136F C163F 1_555 1_555
C164F C163F 1_555 1_555
H137F C164F 1_555 1_555
C165F N34F 1_555 1_555
H138F C165F 1_555 1_555
C166F N32F 1_555 1_555
H139F C166F 1_555 1_555
C167F C166F 1_555 1_555
H140F C167F 1_555 1_555
C168F N35F 1_555 1_555
H141F C168F 1_555 1_555
C169F Fe2F 1_555 1_555
C170F Fe2F 1_555 1_555
C171F Fe2F 1_555 1_555
C172F N41F 1_555 1_555
H142F C172F 1_555 1_555
C173F C172F 1_555 1_555
H143F C173F 1_555 1_555
C174F N43F 1_555 1_555
H144F C174F 1_555 1_555
C175F N40F 1_555 1_555
H145F C175F 1_555 1_555
C176F C175F 1_555 1_555
H146F C176F 1_555 1_555
C177F N42F 1_555 1_555
H147F C177F 1_555 1_555
C178F N39F 1_555 1_555
H148F C178F 1_555 1_555
C179F C178F 1_555 1_555
H149F C179F 1_555 1_555
C180F N44F 1_555 1_555
H150F C180F 1_555 1_555
C181F Fe3F 1_555 1_555
C182F Fe3F 1_555 1_555
C183F Fe3 1_555 1_555
C184F C185F 1_555 1_555
C185F N57F 1_555 1_555
O1F C17F 1_555 1_555
O2F C45F 1_555 1_555
O3F C78F 1_555 1_555
O4F C97F 1_555 1_555
O5F C126F 1_555 1_555
F1A P1 1_555 1_555
F2A P1 1_555 1_555
F5A P2 1_555 1_555
F6A P2 1_555 1_555
F7A P2 1_555 1_555
N22 N25 1_555 1_555
N23 N26 1_555 1_555
N28 C147 1_555 1_555
N31 N34 1_555 1_555
N32 N35 1_555 1_555
N36 C170 1_555 1_555
N37 C169 1_555 1_555
N39 N44 1_555 1_555
N41 N43 1_555 1_555
N46 C181 1_555 1_555
N49 N52 1_555 1_555
N50 N53 1_555 1_555
N54 C157 1_555 1_555
N55 C159 1_555 1_555
C4 C5 1_555 1_555
C5 C27 1_555 1_555
C6 C7 1_555 1_555
C6 C27 1_555 1_555
C12 C13 1_555 1_555
C18 C19 1_555 1_555
C20 C21 1_555 1_555
C24 C25 1_555 1_555
C26 O1 1_555 1_555
C31 C32 1_555 1_555
C32 C33 1_555 1_555
C34 C35 1_555 1_555
C40 C41 1_555 1_555
C46 C47 1_555 1_555
C48 C53 1_555 1_555
C52 C53 1_555 1_555
C54 O2 1_555 1_555
C58 C59 1_555 1_555
C59 C60 1_555 1_555
C61 C62 1_555 1_555
C67 C68 1_555 1_555
C73 C74 1_555 1_555
C79 C80 1_555 1_555
C81 O3 1_555 1_555
C85 C86 1_555 1_555
C86 C87 1_555 1_555
C88 C89 1_555 1_555
C98 C99 1_555 1_555
C104 C105 1_555 1_555
C106 O4 1_555 1_555
C107 C108 1_555 1_555
C112 C113 1_555 1_555
C113 C114 1_555 1_555
C115 C116 1_555 1_555
C121 C122 1_555 1_555
C127 C128 1_555 1_555
C133 C134 1_555 1_555
C135 O5 1_555 1_555
C137 C138 1_555 1_555
C140 C141 1_555 1_555
C143 C144 1_555 1_555
C149 C150 1_555 1_555
C152 C153 1_555 1_555
C155 C156 1_555 1_555
C161 C162 1_555 1_555
C164 C165 1_555 1_555
C167 C168 1_555 1_555
C173 C174 1_555 1_555
C176 C177 1_555 1_555
C179 C180 1_555 1_555
N22F N25F 1_555 1_555
N23F N26F 1_555 1_555
N28F C147F 1_555 1_555
N31F N34F 1_555 1_555
N32F N35F 1_555 1_555
N36F C170F 1_555 1_555
N37F C169F 1_555 1_555
N39F N44F 1_555 1_555
N40F N42F 1_555 1_555
N41F N43F 1_555 1_555
N46F C181F 1_555 1_555
N47F C183F 1_555 1_555
N49F N52F 1_555 1_555
N50F N53F 1_555 1_555
N54F C157F 1_555 1_555
N55F C159F 1_555 1_555
C4F C5F 1_555 1_555
C5F C27F 1_555 1_555
C6F C7F 1_555 1_555
C6F C27F 1_555 1_555
C12F C13F 1_555 1_555
C18F C19F 1_555 1_555
C20F C21F 1_555 1_555
C24F C25F 1_555 1_555
C26F O1F 1_555 1_555
C31F C32F 1_555 1_555
C32F C33F 1_555 1_555
C34F C35F 1_555 1_555
C40F C41F 1_555 1_555
C46F C47F 1_555 1_555
C48F C53F 1_555 1_555
C52F C53F 1_555 1_555
C54F O2F 1_555 1_555
C58F C59F 1_555 1_555
C59F C60F 1_555 1_555
C61F C62F 1_555 1_555
C67F C68F 1_555 1_555
C73F C74F 1_555 1_555
C79F C80F 1_555 1_555
C81F O3F 1_555 1_555
C85F C86F 1_555 1_555
C86F C87F 1_555 1_555
C88F C89F 1_555 1_555
C98F C99F 1_555 1_555
C104F C105F 1_555 1_555
C106F O4F 1_555 1_555
C107F C108F 1_555 1_555
C112F C113F 1_555 1_555
C113F C114F 1_555 1_555
C115F C116F 1_555 1_555
C121F C122F 1_555 1_555
C127F C128F 1_555 1_555
C133F C134F 1_555 1_555
C135F O5F 1_555 1_555
C137F C138F 1_555 1_555
C140F C141F 1_555 1_555
C143F C144F 1_555 1_555
C149F C150F 1_555 1_555
C152F C153F 1_555 1_555
C155F C156F 1_555 1_555
C161F C162F 1_555 1_555
C164F C165F 1_555 1_555
C167F C168F 1_555 1_555
C173F C174F 1_555 1_555
C176F C177F 1_555 1_555
C179F C180F 1_555 1_555

#END
