
#######################################################################
#
#                 Cambridge Crystallographic Data Centre
#                                CCDC 
#
#######################################################################
#
# If this CIF has been generated from an entry in the Cambridge 
# Structural Database, then it will include bibliographic, chemical, 
# crystal, experimental, refinement or atomic coordinate data resulting 
# from the CCDC's data processing and validation procedures.
#
#######################################################################

data_TOBDUL
_chemical_formula_moiety         
'C258 H212 B8 Co4 Fe8 N96 O6,19(C2 H3 N1),14(H2 O1)'
_chemical_name_systematic        
'dodecakis(\m~2~-Cyano)-octakis(hydridotris(pyrazol-1-yl)borate)-hexakis(4-methoxy-N-phenyl-N-(4-(3-(pyridin-2-yl)-1H-pyrazol-5-yl)phenyl)aniline)-tetra-cobalt-octa-iron acetonitrile solvate tetradecahydrate'
_symmetry_cell_setting           triclinic
_symmetry_space_group_name_H-M   'P -1'
_symmetry_Int_Tables_number      2
_space_group_name_Hall           '-P 1'
loop_
_symmetry_equiv_pos_site_id
_symmetry_equiv_pos_as_xyz
1 x,y,z
2 -x,-y,-z
_cell_length_a                   20.418(2)
_cell_length_b                   21.062(2)
_cell_length_c                   23.416(3)
_cell_angle_alpha                91.631(2)
_cell_angle_beta                 112.930(2)
_cell_angle_gamma                115.757(2)
_cell_volume                     8111.88
_exptl_crystal_colour            green
_exptl_crystal_description       plate
_cell_formula_units_Z            1
loop_
_atom_site_label
_atom_site_type_symbol
_atom_site_fract_x
_atom_site_fract_y
_atom_site_fract_z
C1 C 0.4942(3) 0.6508(2) 0.09470(19)
H1 H 0.5394 0.6512 0.0915
C2 C 0.4970(3) 0.6609(2) 0.1535(2)
H2 H 0.5429 0.6669 0.1904
C3 C 0.4327(3) 0.6623(2) 0.1590(2)
H3 H 0.4340 0.6699 0.1997
C4 C 0.3666(3) 0.6523(2) 0.1043(2)
H4 H 0.3217 0.6532 0.1069
C5 C 0.3663(3) 0.6411(2) 0.04613(19)
C6 C 0.2986(3) 0.6244(2) -0.01545(19)
C7 C 0.2218(3) 0.6166(2) -0.0355(2)
H5 H 0.1994 0.6256 -0.0095
C8 C 0.1846(3) 0.5933(2) -0.1005(2)
C9 C 0.1022(3) 0.5749(3) -0.1478(2)
C10 C 0.0640(3) 0.5278(3) -0.2070(2)
H6 H 0.0917 0.5068 -0.2179
C11 C -0.0144(3) 0.5107(4) -0.2508(3)
H7 H -0.0391 0.4789 -0.2913
C12 C -0.0568(3) 0.5394(3) -0.2360(3)
C13 C -0.0196(3) 0.5844(3) -0.1758(3)
H8 H -0.0485 0.6029 -0.1637
C14 C 0.0591(3) 0.6028(3) -0.1331(2)
H9 H 0.0840 0.6352 -0.0928
C15 C -0.1837(2) 0.4594(3) -0.3337(2)
C16 C -0.1970(3) 0.3896(3) -0.3291(3)
H10 H -0.1751 0.3801 -0.2884
C17 C -0.2423(3) 0.3337(3) -0.3839(4)
H11 H -0.2514 0.2860 -0.3808
C18 C -0.2743(3) 0.3477(3) -0.4434(3)
C19 C -0.2610(3) 0.4175(4) -0.44797(19)
H12 H -0.2829 0.4270 -0.4886
C20 C -0.2157(3) 0.4734(3) -0.3931(2)
H13 H -0.2066 0.5211 -0.3963
C21 C -0.1661(3) 0.5722(3) -0.2769(2)
C22 C -0.1206(3) 0.6414(3) -0.2825(2)
H14 H -0.0716 0.6537 -0.2855
C23 C -0.1467(3) 0.6925(3) -0.2837(3)
H15 H -0.1156 0.7397 -0.2875
C24 C -0.2184(4) 0.6744(3) -0.2793(2)
C25 C -0.2639(3) 0.6052(3) -0.2737(2)
H16 H -0.3129 0.5928 -0.2707
C26 C -0.2378(3) 0.5541(3) -0.2726(2)
H17 H -0.2689 0.5068 -0.2688
C27 C 0.3711(2) 0.5233(2) -0.16608(19)
H18 H 0.3550 0.4828 -0.1480
C28 C 0.3709(3) 0.5133(2) -0.2247(2)
H19 H 0.3563 0.4668 -0.2461
C29 C 0.3919(3) 0.5713(2) -0.2516(2)
H20 H 0.3918 0.5653 -0.2920
C30 C 0.4130(3) 0.6379(2) -0.2201(2)
H21 H 0.4260 0.6781 -0.2391
C31 C 0.4156(3) 0.6466(2) -0.1604(2)
C32 C 0.4476(3) 0.7142(2) -0.1177(2)
C33 C 0.4840(3) 0.7869(2) -0.1194(2)
H22 H 0.4885 0.8052 -0.1550
C34 C 0.5119(3) 0.8265(2) -0.0602(2)
C35 C 0.5576(3) 0.9059(2) -0.0358(2)
C36 C 0.5629(3) 0.9419(2) 0.0180(2)
H23 H 0.5371 0.9144 0.0417
C37 C 0.6051(3) 1.0166(2) 0.0376(2)
H24 H 0.6092 1.0399 0.0752
C38 C 0.6412(3) 1.0578(2) 0.0030(2)
C39 C 0.6380(3) 1.0228(3) -0.0499(3)
H25 H 0.6641 1.0503 -0.0734
C40 C 0.5967(3) 0.9481(3) -0.0681(3)
H26 H 0.5951 0.9249 -0.1044
C41 C 0.7001(3) 1.1737(2) -0.0248(3)
C42 C 0.6389(4) 1.1708(3) -0.0801(3)
H27 H 0.5840 1.1446 -0.0869
C43 C 0.6561(4) 1.2050(3) -0.1249(3)
H28 H 0.6133 1.2017 -0.1631
C44 C 0.7352(4) 1.2441(3) -0.1152(3)
H29 H 0.7472 1.2675 -0.1467
C45 C 0.7967(4) 1.2493(3) -0.0601(3)
H30 H 0.8514 1.2774 -0.0530
C46 C 0.7799(4) 1.2136(3) -0.0136(3)
H31 H 0.8226 1.2169 0.0246
C47 C 0.7236(2) 1.17298(17) 0.08587(14)
C48 C 0.7022(2) 1.22070(19) 0.10576(18)
H32 H 0.6562 1.2238 0.0770
C49 C 0.7481(3) 1.26384(18) 0.16768(19)
H33 H 0.7335 1.2965 0.1813
C50 C 0.8154(2) 1.25925(18) 0.20970(14)
C51 C 0.8368(2) 1.2115(2) 0.18981(16)
H34 H 0.8828 1.2084 0.2185
C52 C 0.7909(2) 1.16840(18) 0.12789(18)
H35 H 0.8055 1.1358 0.1143
O1 O 0.8543(4) 1.3019(3) 0.2694(2)
C53 C 0.9345(5) 1.3129(5) 0.3047(5)
H36 H 0.9587 1.3429 0.3477
H37 H 0.9675 1.3375 0.2830
H38 H 0.9326 1.2659 0.3079
C54 C 0.7989(3) 0.7747(2) 0.4195(2)
H39 H 0.7470 0.7373 0.4125
C55 C 0.8489(3) 0.8194(3) 0.4784(2)
H40 H 0.8329 0.8135 0.5117
C56 C 0.9237(4) 0.8737(3) 0.4885(3)
H41 H 0.9604 0.9064 0.5292
C57 C 0.9452(3) 0.8807(3) 0.4397(3)
H42 H 0.9967 0.9181 0.4460
C58 C 0.8902(3) 0.8320(3) 0.3807(2)
C59 C 0.9090(3) 0.8348(3) 0.3263(2)
C60 C 0.9795(3) 0.8764(3) 0.3196(3)
H43 H 1.0302 0.9131 0.3520
C61 C 0.9614(4) 0.8542(3) 0.2577(3)
C62 C 1.0113(4) 0.8763(4) 0.2241(4)
C63 C 1.0961(4) 0.9001(4) 0.2601(4)
H44 H 1.1180 0.9010 0.3043
C64 C 1.1464(4) 0.9218(4) 0.2299(4)
H45 H 1.2030 0.9388 0.2540
C65 C 1.1140(5) 0.9189(4) 0.1638(4)
C66 C 1.0287(4) 0.8967(4) 0.1284(3)
H46 H 1.0069 0.8977 0.0847
C67 C 0.9797(4) 0.8743(3) 0.1581(3)
H47 H 0.9231 0.8570 0.1339
C68 C 1.1376(5) 0.9168(4) 0.0674(4)
C69 C 1.0824(5) 0.8444(4) 0.0365(5)
H48 H 1.0645 0.8111 0.0606
C70 C 1.0531(5) 0.8197(4) -0.0276(4)
H49 H 1.0146 0.7703 -0.0490
C71 C 1.0831(5) 0.8712(5) -0.0596(5)
C72 C 1.1363(5) 0.9421(4) -0.0311(4)
H50 H 1.1549 0.9757 -0.0547
C73 C 1.1627(5) 0.9638(4) 0.0334(4)
H51 H 1.1997 1.0135 0.0544
C74 C 1.2543(5) 0.9775(4) 0.1735(4)
C75 C 1.2917(6) 1.0491(4) 0.2073(6)
H52 H 1.2612 1.0732 0.2054
C76 C 1.3781(7) 1.0848(5) 0.2450(7)
H53 H 1.4057 1.1332 0.2695
C77 C 1.4223(6) 1.0491(5) 0.2461(5)
H54 H 1.4797 1.0732 0.2704
C78 C 1.3800(5) 0.9766(5) 0.2105(4)
H55 H 1.4082 0.9503 0.2119
C79 C 1.2977(5) 0.9448(4) 0.1738(4)
H56 H 1.2701 0.8973 0.1474
C80 C 1.0013(6) 0.7799(6) -0.1570(6)
H57 H 0.9897 0.7747 -0.2021
H58 H 0.9511 0.7668 -0.1533
H59 H 1.0230 0.7479 -0.1390
C81 C 0.5792(3) 0.6281(2) 0.00169(18)
C82 C 0.6924(2) 0.65953(19) 0.12237(19)
C83 C 0.3527(2) 0.4571(2) -0.03812(17)
C84 C 0.6824(3) 0.8312(2) 0.2484(2)
C85 C 0.5764(3) 0.8667(3) 0.2625(2)
C86 C 0.5854(3) 0.8545(2) 0.1540(2)
C87 C 0.6078(3) 0.6259(2) 0.3201(2)
C88 C 0.4600(4) 0.5954(4) 0.3120(3)
C89 C 0.5141(3) 0.4990(3) 0.3418(2)
C90 C 0.8297(3) 0.6176(2) 0.3277(2)
C91 C 0.8178(3) 0.5130(2) 0.3938(2)
C92 C 0.8321(3) 0.5022(3) 0.2895(2)
C93 C 0.7056(3) 0.7948(2) 0.0453(2)
H60 H 0.6660 0.7873 0.0598
C94 C 0.7485(3) 0.8584(3) 0.0300(3)
H61 H 0.7442 0.9015 0.0316
C95 C 0.7981(3) 0.8449(3) 0.0122(3)
H62 H 0.8355 0.8781 -0.0012
C96 C 0.8390(3) 0.6358(3) 0.1217(2)
H63 H 0.8178 0.6063 0.1467
C97 C 0.9159(3) 0.6601(3) 0.1270(3)
H64 H 0.9570 0.6509 0.1557
C98 C 0.9210(3) 0.7000(3) 0.0826(3)
H65 H 0.9669 0.7239 0.0745
C99 C 0.6249(3) 0.5730(3) -0.1008(2)
H66 H 0.5740 0.5347 -0.1067
C100 C 0.6523(4) 0.5846(4) -0.1471(3)
H67 H 0.6244 0.5565 -0.1898
C101 C 0.7269(4) 0.6442(4) -0.1195(2)
H68 H 0.7609 0.6660 -0.1395
C102 C 0.7765(4) 0.9319(3) 0.1794(3)
H69 H 0.7511 0.8825 0.1581
C103 C 0.8435(5) 0.9863(4) 0.1786(4)
H70 H 0.8741 0.9828 0.1579
C104 C 0.8570(4) 1.0481(4) 0.2147(4)
H71 H 0.8991 1.0959 0.2224
C105 C 0.7652(3) 0.9460(3) 0.3813(2)
H72 H 0.7390 0.8982 0.3863
C106 C 0.8311(4) 1.0047(3) 0.4303(3)
H73 H 0.8590 1.0055 0.4739
C107 C 0.8464(4) 1.0612(3) 0.4009(3)
H74 H 0.8875 1.1100 0.4216
C108 C 0.5733(4) 0.9975(3) 0.1947(3)
H75 H 0.5200 0.9572 0.1734
C109 C 0.5927(4) 1.0702(3) 0.1988(3)
H76 H 0.5563 1.0888 0.1814
C110 C 0.6740(4) 1.1082(3) 0.2327(3)
H77 H 0.7052 1.1596 0.2437
C111 C 0.5999(5) 0.7602(4) 0.3849(4)
H78 H 0.5786 0.7581 0.3404
C112 C 0.6362(7) 0.8221(4) 0.4343(5)
H79 H 0.6451 0.8694 0.4299
C113 C 0.6558(6) 0.7999(4) 0.4894(4)
H80 H 0.6802 0.8297 0.5309
C114 C 0.4338(3) 0.5317(3) 0.4294(2)
H81 H 0.3899 0.4982 0.3907
C115 C 0.4305(4) 0.5389(3) 0.4870(3)
H82 H 0.3852 0.5131 0.4954
C116 C 0.5061(4) 0.5910(3) 0.5285(3)
H83 H 0.5238 0.6072 0.5728
C117 C 0.7031(3) 0.5790(3) 0.4438(2)
H84 H 0.6963 0.5523 0.4067
C118 C 0.7630(4) 0.5946(4) 0.5039(3)
H85 H 0.8036 0.5800 0.5167
C119 C 0.7516(3) 0.6355(4) 0.5410(3)
H86 H 0.7847 0.6562 0.5855
C120 C 0.9324(3) 0.6823(2) 0.4804(2)
H87 H 0.8778 0.6718 0.4677
C121 C 0.9981(3) 0.7316(3) 0.5349(2)
H88 H 0.9978 0.7603 0.5667
C122 C 1.0647(3) 0.7305(3) 0.5335(2)
H89 H 1.1196 0.7592 0.5647
C123 C 0.9537(3) 0.4658(3) 0.4065(2)
H90 H 0.9021 0.4235 0.3851
C124 C 1.0265(3) 0.4661(3) 0.4433(2)
H91 H 1.0343 0.4254 0.4518
C125 C 1.0833(3) 0.5370(3) 0.4642(2)
H92 H 1.1397 0.5553 0.4907
C126 C 0.9717(4) 0.6667(3) 0.2895(3)
H93 H 0.9223 0.6526 0.2524
C127 C 1.0475(4) 0.7168(4) 0.2977(3)
H94 H 1.0606 0.7425 0.2676
C128 C 1.0992(4) 0.7220(3) 0.3569(3)
H95 H 1.1563 0.7535 0.3768
B1 B 0.8178(3) 0.7316(3) -0.0037(3)
H96 H 0.8607 0.7604 -0.0172
B2 B 0.7905(4) 1.0732(3) 0.2828(4)
H97 H 0.8322 1.1258 0.2968
B3 B 0.6397(4) 0.6752(4) 0.5193(3)
H98 H 0.6666 0.6996 0.5656
B4 B 1.0820(4) 0.6592(3) 0.4517(3)
H99 H 1.1422 0.6860 0.4784
Co1 Co 0.41210(3) 0.61377(3) -0.04611(2)
Co2 Co 0.74033(3) 0.71073(3) 0.27012(2)
Fe1 Fe 0.68517(3) 0.64159(3) 0.03911(3)
Fe2 Fe 0.66256(4) 0.91133(3) 0.23837(3)
Fe3 Fe 0.55674(4) 0.60066(4) 0.37671(3)
Fe4 Fe 0.89641(4) 0.57539(3) 0.36752(3)
N1 N 0.42970(19) 0.64033(16) 0.04101(15)
N2 N 0.30885(19) 0.60766(16) -0.06509(15)
N3 N 0.2390(2) 0.58797(17) -0.11732(15)
H100 H 0.2298 0.5737 -0.1567
N4 N -0.1362(3) 0.5221(3) -0.2789(2)
N5 N 0.39351(19) 0.58901(17) -0.13385(15)
N6 N 0.4520(2) 0.71017(16) -0.05956(15)
N7 N 0.4906(2) 0.77919(16) -0.02510(15)
H101 H 0.5004 0.7914 0.0148
N8 N 0.6795(3) 1.1350(2) 0.0203(2)
N9 N 0.8176(2) 0.77944(18) 0.37062(17)
N10 N 0.8511(2) 0.78818(19) 0.27154(17)
N11 N 0.8824(2) 0.8011(2) 0.22989(19)
H102 H 0.8553 0.7779 0.1894
N12 N 1.1662(4) 0.9416(3) 0.1341(4)
N13 N 0.5164(2) 0.62359(17) -0.01907(15)
N14 N 0.6971(2) 0.66854(17) 0.17290(15)
N15 N 0.3717(2) 0.51689(18) -0.04054(15)
N16 N 0.6966(2) 0.78399(18) 0.25412(16)
N17 N 0.5228(3) 0.8397(3) 0.2755(2)
N18 N 0.5399(3) 0.8191(2) 0.10299(19)
N19 N 0.6433(2) 0.64551(17) 0.29096(15)
N20 N 0.4028(4) 0.5931(4) 0.2752(3)
N21 N 0.4886(3) 0.4384(2) 0.3226(2)
N22 N 0.7920(2) 0.64496(19) 0.30241(16)
N23 N 0.7699(2) 0.4743(2) 0.40896(18)
N24 N 0.7919(2) 0.4588(2) 0.24255(19)
N25 N 0.7277(2) 0.74645(18) 0.03670(17)
N26 N 0.7863(2) 0.77778(19) 0.01622(18)
N27 N 0.7993(2) 0.65942(19) 0.07699(16)
N28 N 0.8497(2) 0.69948(19) 0.05214(18)
N29 N 0.6802(2) 0.62297(19) -0.04698(16)
N30 N 0.7442(2) 0.6671(2) -0.05824(17)
N31 N 0.7513(3) 0.9576(2) 0.2145(2)
N32 N 0.8020(3) 1.0301(2) 0.2371(3)
N33 N 0.7439(2) 0.96517(19) 0.32722(19)
N34 N 0.7956(3) 1.0376(2) 0.3396(2)
N35 N 0.6415(3) 0.9937(2) 0.22533(19)
N36 N 0.7045(3) 1.0624(2) 0.2487(2)
N37 N 0.6009(3) 0.7043(2) 0.4123(2)
N38 N 0.6354(3) 0.7293(2) 0.4766(2)
N39 N 0.5072(2) 0.5783(2) 0.43600(18)
N40 N 0.5524(3) 0.6164(2) 0.49790(19)
N41 N 0.6563(2) 0.6062(2) 0.44445(17)
N42 N 0.6857(3) 0.6419(2) 0.50453(19)
N43 N 0.9560(2) 0.65142(19) 0.44789(17)
N44 N 1.0387(2) 0.6821(2) 0.48082(18)
N45 N 0.9670(2) 0.5325(2) 0.40574(16)
N46 N 1.0480(2) 0.5775(2) 0.44189(17)
N47 N 0.9780(2) 0.6407(2) 0.34180(18)
N48 N 1.0568(2) 0.6750(2) 0.3836(2)
O2 O 1.0604(4) 0.8544(3) -0.1225(4)
O3 O -0.3221(6) 0.2913(7) -0.5020(8)
C129 C -0.3447(16) 0.2123(12) -0.5073(18)
H103 H -0.3762 0.1863 -0.5524
H104 H -0.3776 0.1913 -0.4846
H105 H -0.2952 0.2079 -0.4884
C1A C 0.5058(3) 0.3492(2) -0.09470(19)
H1A H 0.4606 0.3488 -0.0915
C2A C 0.5030(3) 0.3391(2) -0.1535(2)
H2A H 0.4571 0.3331 -0.1904
C3A C 0.5673(3) 0.3377(2) -0.1590(2)
H3A H 0.5660 0.3301 -0.1997
C4A C 0.6334(3) 0.3477(2) -0.1043(2)
H4A H 0.6783 0.3468 -0.1069
C5A C 0.6337(3) 0.3589(2) -0.04613(19)
C6A C 0.7014(3) 0.3756(2) 0.01545(19)
C7A C 0.7782(3) 0.3834(2) 0.0355(2)
H5A H 0.8006 0.3744 0.0095
C8A C 0.8154(3) 0.4067(2) 0.1005(2)
C9A C 0.8978(3) 0.4251(3) 0.1478(2)
C10A C 0.9360(3) 0.4722(3) 0.2070(2)
H6A H 0.9083 0.4932 0.2179
C11A C 1.0144(3) 0.4893(4) 0.2508(3)
H7A H 1.0391 0.5211 0.2913
C12A C 1.0568(3) 0.4606(3) 0.2360(3)
C13A C 1.0196(3) 0.4156(3) 0.1758(3)
H8A H 1.0485 0.3971 0.1637
C14A C 0.9409(3) 0.3972(3) 0.1331(2)
H9A H 0.9160 0.3648 0.0928
C15A C 1.1837(2) 0.5406(3) 0.3337(2)
C16A C 1.1970(3) 0.6104(3) 0.3291(3)
H10A H 1.1751 0.6199 0.2884
C17A C 1.2423(3) 0.6663(3) 0.3839(4)
H11A H 1.2514 0.7140 0.3808
C18A C 1.2743(3) 0.6523(3) 0.4434(3)
C19A C 1.2610(3) 0.5825(4) 0.44797(19)
H12A H 1.2829 0.5730 0.4886
C20A C 1.2157(3) 0.5266(3) 0.3931(2)
H13A H 1.2066 0.4789 0.3963
C21A C 1.1661(3) 0.4278(3) 0.2769(2)
C22A C 1.1206(3) 0.3586(3) 0.2825(2)
H14A H 1.0716 0.3463 0.2855
C23A C 1.1467(3) 0.3075(3) 0.2837(3)
H15A H 1.1156 0.2603 0.2875
C24A C 1.2184(4) 0.3256(3) 0.2793(2)
C25A C 1.2639(3) 0.3948(3) 0.2737(2)
H16A H 1.3129 0.4072 0.2707
C26A C 1.2378(3) 0.4459(3) 0.2726(2)
H17A H 1.2689 0.4932 0.2688
C27A C 0.6289(2) 0.4767(2) 0.16608(19)
H18A H 0.6450 0.5172 0.1480
C28A C 0.6291(3) 0.4867(2) 0.2247(2)
H19A H 0.6437 0.5332 0.2461
C29A C 0.6081(3) 0.4287(2) 0.2516(2)
H20A H 0.6082 0.4347 0.2920
C30A C 0.5870(3) 0.3621(2) 0.2201(2)
H21A H 0.5740 0.3219 0.2391
C31A C 0.5844(3) 0.3534(2) 0.1604(2)
C32A C 0.5524(3) 0.2858(2) 0.1177(2)
C33A C 0.5160(3) 0.2131(2) 0.1194(2)
H22A H 0.5115 0.1948 0.1550
C34A C 0.4881(3) 0.1735(2) 0.0602(2)
C35A C 0.4424(3) 0.0941(2) 0.0358(2)
C36A C 0.4371(3) 0.0581(2) -0.0180(2)
H23A H 0.4629 0.0856 -0.0417
C37A C 0.3949(3) -0.0166(2) -0.0376(2)
H24A H 0.3908 -0.0399 -0.0752
C38A C 0.3588(3) -0.0578(2) -0.0030(2)
C39A C 0.3620(3) -0.0228(3) 0.0499(3)
H25A H 0.3359 -0.0503 0.0734
C40A C 0.4033(3) 0.0519(3) 0.0681(3)
H26A H 0.4049 0.0751 0.1044
C41A C 0.2999(3) -0.1737(2) 0.0248(3)
C42A C 0.3611(4) -0.1708(3) 0.0801(3)
H27A H 0.4160 -0.1446 0.0869
C43A C 0.3439(4) -0.2050(3) 0.1249(3)
H28A H 0.3867 -0.2017 0.1631
C44A C 0.2648(4) -0.2441(3) 0.1152(3)
H29A H 0.2528 -0.2675 0.1467
C45A C 0.2033(4) -0.2493(3) 0.0601(3)
H30A H 0.1486 -0.2774 0.0530
C46A C 0.2201(4) -0.2136(3) 0.0136(3)
H31A H 0.1774 -0.2169 -0.0246
C47A C 0.2764(2) -0.17298(17) -0.08587(14)
C48A C 0.2978(2) -0.22070(19) -0.10576(18)
H32A H 0.3438 -0.2238 -0.0770
C49A C 0.2519(3) -0.26384(18) -0.16768(19)
H33A H 0.2665 -0.2965 -0.1813
C50A C 0.1846(2) -0.25925(18) -0.20970(14)
C51A C 0.1632(2) -0.2115(2) -0.18981(16)
H34A H 0.1172 -0.2084 -0.2185
C52A C 0.2091(2) -0.16840(18) -0.12789(18)
H35A H 0.1945 -0.1358 -0.1143
O1A O 0.1457(4) -0.3019(3) -0.2694(2)
C53A C 0.0655(5) -0.3129(5) -0.3047(5)
H36A H 0.0413 -0.3429 -0.3477
H37A H 0.0325 -0.3375 -0.2830
H38A H 0.0674 -0.2659 -0.3079
C54A C 0.2011(3) 0.2253(2) -0.4195(2)
H39A H 0.2530 0.2627 -0.4125
C55A C 0.1511(3) 0.1806(3) -0.4784(2)
H40A H 0.1671 0.1865 -0.5117
C56A C 0.0763(4) 0.1263(3) -0.4885(3)
H41A H 0.0396 0.0936 -0.5292
C57A C 0.0548(3) 0.1193(3) -0.4397(3)
H42A H 0.0033 0.0819 -0.4460
C58A C 0.1098(3) 0.1680(3) -0.3807(2)
C59A C 0.0910(3) 0.1652(3) -0.3263(2)
C60A C 0.0205(3) 0.1236(3) -0.3196(3)
H43A H -0.0302 0.0869 -0.3520
C61A C 0.0386(4) 0.1458(3) -0.2577(3)
C62A C -0.0113(4) 0.1237(4) -0.2241(4)
C63A C -0.0961(4) 0.0999(4) -0.2601(4)
H44A H -0.1180 0.0990 -0.3043
C64A C -0.1464(4) 0.0782(4) -0.2299(4)
H45A H -0.2030 0.0612 -0.2540
C65A C -0.1140(5) 0.0811(4) -0.1638(4)
C66A C -0.0287(4) 0.1033(4) -0.1284(3)
H46A H -0.0069 0.1023 -0.0847
C67A C 0.0203(4) 0.1257(3) -0.1581(3)
H47A H 0.0769 0.1430 -0.1339
C68A C -0.1376(5) 0.0832(4) -0.0674(4)
C69A C -0.0824(5) 0.1556(4) -0.0365(5)
H48A H -0.0645 0.1889 -0.0606
C70A C -0.0531(5) 0.1803(4) 0.0276(4)
H49A H -0.0146 0.2297 0.0490
C71A C -0.0831(5) 0.1288(5) 0.0596(5)
C72A C -0.1363(5) 0.0579(4) 0.0311(4)
H50A H -0.1549 0.0243 0.0547
C73A C -0.1627(5) 0.0362(4) -0.0334(4)
H51A H -0.1997 -0.0135 -0.0544
C74A C -0.2543(5) 0.0225(4) -0.1735(4)
C75A C -0.2917(6) -0.0491(4) -0.2073(6)
H52A H -0.2612 -0.0732 -0.2054
C76A C -0.3781(7) -0.0848(5) -0.2450(7)
H53A H -0.4057 -0.1332 -0.2695
C77A C -0.4223(6) -0.0491(5) -0.2461(5)
H54A H -0.4797 -0.0732 -0.2704
C78A C -0.3800(5) 0.0234(5) -0.2105(4)
H55A H -0.4082 0.0497 -0.2119
C79A C -0.2977(5) 0.0552(4) -0.1738(4)
H56A H -0.2701 0.1027 -0.1474
C80A C -0.0013(6) 0.2201(6) 0.1570(6)
H57A H 0.0103 0.2253 0.2021
H58A H 0.0489 0.2332 0.1533
H59A H -0.0230 0.2521 0.1390
C81A C 0.4208(3) 0.3719(2) -0.00169(18)
C82A C 0.3076(2) 0.34047(19) -0.12237(19)
C83A C 0.6473(2) 0.5429(2) 0.03812(17)
C84A C 0.3176(3) 0.1688(2) -0.2484(2)
C85A C 0.4236(3) 0.1333(3) -0.2625(2)
C86A C 0.4146(3) 0.1455(2) -0.1540(2)
C87A C 0.3922(3) 0.3741(2) -0.3201(2)
C88A C 0.5400(4) 0.4046(4) -0.3120(3)
C89A C 0.4859(3) 0.5010(3) -0.3418(2)
C90A C 0.1703(3) 0.3824(2) -0.3277(2)
C91A C 0.1822(3) 0.4870(2) -0.3938(2)
C92A C 0.1679(3) 0.4978(3) -0.2895(2)
C93A C 0.2944(3) 0.2052(2) -0.0453(2)
H60A H 0.3340 0.2127 -0.0598
C94A C 0.2515(3) 0.1416(3) -0.0300(3)
H61A H 0.2558 0.0985 -0.0316
C95A C 0.2019(3) 0.1551(3) -0.0122(3)
H62A H 0.1645 0.1219 0.0012
C96A C 0.1610(3) 0.3642(3) -0.1217(2)
H63A H 0.1822 0.3937 -0.1467
C97A C 0.0841(3) 0.3399(3) -0.1270(3)
H64A H 0.0430 0.3491 -0.1557
C98A C 0.0790(3) 0.3000(3) -0.0826(3)
H65A H 0.0331 0.2761 -0.0745
C99A C 0.3751(3) 0.4270(3) 0.1008(2)
H66A H 0.4260 0.4653 0.1067
C100A C 0.3477(4) 0.4154(4) 0.1471(3)
H67A H 0.3756 0.4435 0.1898
C101A C 0.2731(4) 0.3558(4) 0.1195(2)
H68A H 0.2391 0.3340 0.1395
C102A C 0.2235(4) 0.0681(3) -0.1794(3)
H69A H 0.2489 0.1175 -0.1581
C103A C 0.1565(5) 0.0137(4) -0.1786(4)
H70A H 0.1259 0.0172 -0.1579
C104A C 0.1430(4) -0.0481(4) -0.2147(4)
H71A H 0.1009 -0.0959 -0.2224
C105A C 0.2348(3) 0.0540(3) -0.3813(2)
H72A H 0.2610 0.1018 -0.3863
C106A C 0.1689(4) -0.0047(3) -0.4303(3)
H73A H 0.1410 -0.0055 -0.4739
C107A C 0.1536(4) -0.0612(3) -0.4009(3)
H74A H 0.1125 -0.1100 -0.4216
C108A C 0.4267(4) 0.0025(3) -0.1947(3)
H75A H 0.4800 0.0428 -0.1734
C109A C 0.4073(4) -0.0702(3) -0.1988(3)
H76A H 0.4437 -0.0888 -0.1814
C110A C 0.3260(4) -0.1082(3) -0.2327(3)
H77A H 0.2948 -0.1596 -0.2437
C111A C 0.4001(5) 0.2398(4) -0.3849(4)
H78A H 0.4214 0.2419 -0.3404
C112A C 0.3638(7) 0.1779(4) -0.4343(5)
H79A H 0.3549 0.1306 -0.4299
C113A C 0.3442(6) 0.2001(4) -0.4894(4)
H80A H 0.3198 0.1703 -0.5309
C114A C 0.5662(3) 0.4683(3) -0.4294(2)
H81A H 0.6101 0.5018 -0.3907
C115A C 0.5695(4) 0.4611(3) -0.4870(3)
H82A H 0.6148 0.4869 -0.4954
C116A C 0.4939(4) 0.4090(3) -0.5285(3)
H83A H 0.4762 0.3928 -0.5728
C117A C 0.2969(3) 0.4210(3) -0.4438(2)
H84A H 0.3037 0.4477 -0.4067
C118A C 0.2370(4) 0.4054(4) -0.5039(3)
H85A H 0.1964 0.4200 -0.5167
C119A C 0.2484(3) 0.3645(4) -0.5410(3)
H86A H 0.2153 0.3438 -0.5855
C120A C 0.0676(3) 0.3177(2) -0.4804(2)
H87A H 0.1222 0.3282 -0.4677
C121A C 0.0019(3) 0.2684(3) -0.5349(2)
H88A H 0.0022 0.2397 -0.5667
C122A C -0.0647(3) 0.2695(3) -0.5335(2)
H89A H -0.1196 0.2408 -0.5647
C123A C 0.0463(3) 0.5342(3) -0.4065(2)
H90A H 0.0979 0.5765 -0.3851
C124A C -0.0265(3) 0.5339(3) -0.4433(2)
H91A H -0.0343 0.5746 -0.4518
C125A C -0.0833(3) 0.4630(3) -0.4642(2)
H92A H -0.1397 0.4447 -0.4907
C126A C 0.0283(4) 0.3333(3) -0.2895(3)
H93A H 0.0777 0.3474 -0.2524
C127A C -0.0475(4) 0.2832(4) -0.2977(3)
H94A H -0.0606 0.2575 -0.2676
C128A C -0.0992(4) 0.2780(3) -0.3569(3)
H95A H -0.1563 0.2465 -0.3768
B1A B 0.1822(3) 0.2684(3) 0.0037(3)
H96A H 0.1393 0.2396 0.0172
B2A B 0.2095(4) -0.0732(3) -0.2828(4)
H97A H 0.1678 -0.1258 -0.2968
B3A B 0.3603(4) 0.3248(4) -0.5193(3)
H98A H 0.3334 0.3004 -0.5656
B4A B -0.0820(4) 0.3408(3) -0.4517(3)
H99A H -0.1422 0.3140 -0.4784
Co1A Co 0.58790(3) 0.38623(3) 0.04611(2)
Co2A Co 0.25967(3) 0.28927(3) -0.27012(2)
Fe1A Fe 0.31483(3) 0.35841(3) -0.03911(3)
Fe2A Fe 0.33744(4) 0.08867(3) -0.23837(3)
Fe3A Fe 0.44326(4) 0.39934(4) -0.37671(3)
Fe4A Fe 0.10359(4) 0.42461(3) -0.36752(3)
N1A N 0.57030(19) 0.35967(16) -0.04101(15)
N2A N 0.69115(19) 0.39234(16) 0.06509(15)
N3A N 0.7610(2) 0.41203(17) 0.11732(15)
H100A H 0.7702 0.4263 0.1567
N4A N 1.1362(3) 0.4779(3) 0.2789(2)
N5A N 0.60649(19) 0.41099(17) 0.13385(15)
N6A N 0.5480(2) 0.28983(16) 0.05956(15)
N7A N 0.5094(2) 0.22081(16) 0.02510(15)
H101A H 0.4996 0.2086 -0.0148
N8A N 0.3205(3) -0.1350(2) -0.0203(2)
N9A N 0.1824(2) 0.22056(18) -0.37062(17)
N10A N 0.1489(2) 0.21182(19) -0.27154(17)
N11A N 0.1176(2) 0.1989(2) -0.22989(19)
H102A H 0.1447 0.2221 -0.1894
N12A N -0.1662(4) 0.0584(3) -0.1341(4)
N13A N 0.4836(2) 0.37641(17) 0.01907(15)
N14A N 0.3029(2) 0.33146(17) -0.17290(15)
N15A N 0.6283(2) 0.48311(18) 0.04054(15)
N16A N 0.3034(2) 0.21601(18) -0.25412(16)
N17A N 0.4772(3) 0.1603(3) -0.2755(2)
N18A N 0.4601(3) 0.1809(2) -0.10299(19)
N19A N 0.3567(2) 0.35449(17) -0.29096(15)
N20A N 0.5972(4) 0.4069(4) -0.2752(3)
N21A N 0.5114(3) 0.5616(2) -0.3226(2)
N22A N 0.2080(2) 0.35504(19) -0.30241(16)
N23A N 0.2301(2) 0.5257(2) -0.40896(18)
N24A N 0.2081(2) 0.5412(2) -0.24255(19)
N25A N 0.2723(2) 0.25355(18) -0.03670(17)
N26A N 0.2137(2) 0.22222(19) -0.01622(18)
N27A N 0.2007(2) 0.34058(19) -0.07699(16)
N28A N 0.1503(2) 0.30052(19) -0.05214(18)
N29A N 0.3198(2) 0.37703(19) 0.04698(16)
N30A N 0.2558(2) 0.3329(2) 0.05824(17)
N31A N 0.2487(3) 0.0424(2) -0.2145(2)
N32A N 0.1980(3) -0.0301(2) -0.2371(3)
N33A N 0.2561(2) 0.03483(19) -0.32722(19)
N34A N 0.2044(3) -0.0376(2) -0.3396(2)
N35A N 0.3585(3) 0.0063(2) -0.22533(19)
N36A N 0.2955(3) -0.0624(2) -0.2487(2)
N37A N 0.3991(3) 0.2957(2) -0.4123(2)
N38A N 0.3646(3) 0.2707(2) -0.4766(2)
N39A N 0.4928(2) 0.4217(2) -0.43600(18)
N40A N 0.4476(3) 0.3836(2) -0.49790(19)
N41A N 0.3437(2) 0.3938(2) -0.44445(17)
N42A N 0.3143(3) 0.3581(2) -0.50453(19)
N43A N 0.0440(2) 0.34858(19) -0.44789(17)
N44A N -0.0387(2) 0.3179(2) -0.48082(18)
N45A N 0.0330(2) 0.4675(2) -0.40574(16)
N46A N -0.0480(2) 0.4225(2) -0.44189(17)
N47A N 0.0220(2) 0.3593(2) -0.34180(18)
N48A N -0.0568(2) 0.3250(2) -0.3836(2)
O2A O -0.0604(4) 0.1456(3) 0.1225(4)
O3A O 1.3221(6) 0.7087(7) 0.5020(8)
C129A C 1.3447(16) 0.7877(12) 0.5073(18)
H103A H 1.3762 0.8137 0.5524
H104A H 1.3776 0.8087 0.4846
H105A H 1.2952 0.7921 0.4884
O4? O -0.2357(6) 0.7285(4) -0.2824(5)
C130? C -0.3109(8) 0.7166(9) -0.2864(7)
H106? H -0.3136 0.7619 -0.2878
H107? H -0.3163 0.7003 -0.2489
H108? H -0.3551 0.6793 -0.3251
loop_
_geom_bond_atom_site_label_1
_geom_bond_atom_site_label_2
_geom_bond_site_symmetry_1
_geom_bond_site_symmetry_2
C1 H1 1_555 1_555
C2 C1 1_555 1_555
H2 C2 1_555 1_555
C3 C2 1_555 1_555
H3 C3 1_555 1_555
C4 C3 1_555 1_555
H4 C4 1_555 1_555
C5 C4 1_555 1_555
C6 C5 1_555 1_555
C7 C6 1_555 1_555
H5 C7 1_555 1_555
C8 C7 1_555 1_555
C9 C8 1_555 1_555
C10 C9 1_555 1_555
H6 C10 1_555 1_555
C11 C10 1_555 1_555
H7 C11 1_555 1_555
C12 C11 1_555 1_555
C13 C12 1_555 1_555
H8 C13 1_555 1_555
C14 C9 1_555 1_555
H9 C14 1_555 1_555
C15 C16 1_555 1_555
C16 H10 1_555 1_555
C17 C16 1_555 1_555
H11 C17 1_555 1_555
C18 C17 1_555 1_555
C19 C18 1_555 1_555
H12 C19 1_555 1_555
C20 C15 1_555 1_555
H13 C20 1_555 1_555
C21 C22 1_555 1_555
C22 H14 1_555 1_555
C23 C22 1_555 1_555
H15 C23 1_555 1_555
C24 C23 1_555 1_555
C25 C24 1_555 1_555
H16 C25 1_555 1_555
C26 C21 1_555 1_555
H17 C26 1_555 1_555
C27 H18 1_555 1_555
C28 C27 1_555 1_555
H19 C28 1_555 1_555
C29 C28 1_555 1_555
H20 C29 1_555 1_555
C30 C29 1_555 1_555
H21 C30 1_555 1_555
C31 C30 1_555 1_555
C32 C31 1_555 1_555
C33 C32 1_555 1_555
H22 C33 1_555 1_555
C34 C33 1_555 1_555
C35 C34 1_555 1_555
C36 C35 1_555 1_555
H23 C36 1_555 1_555
C37 C36 1_555 1_555
H24 C37 1_555 1_555
C38 C37 1_555 1_555
C39 C38 1_555 1_555
H25 C39 1_555 1_555
C40 C35 1_555 1_555
H26 C40 1_555 1_555
C41 C42 1_555 1_555
C42 H27 1_555 1_555
C43 C42 1_555 1_555
H28 C43 1_555 1_555
C44 C43 1_555 1_555
H29 C44 1_555 1_555
C45 C44 1_555 1_555
H30 C45 1_555 1_555
C46 C41 1_555 1_555
H31 C46 1_555 1_555
C47 C48 1_555 1_555
C48 H32 1_555 1_555
C49 C48 1_555 1_555
H33 C49 1_555 1_555
C50 C49 1_555 1_555
C51 C50 1_555 1_555
H34 C51 1_555 1_555
C52 C47 1_555 1_555
H35 C52 1_555 1_555
O1 C50 1_555 1_555
C53 O1 1_555 1_555
H36 C53 1_555 1_555
H37 C53 1_555 1_555
H38 C53 1_555 1_555
C54 H39 1_555 1_555
C55 C54 1_555 1_555
H40 C55 1_555 1_555
C56 C55 1_555 1_555
H41 C56 1_555 1_555
C57 C56 1_555 1_555
H42 C57 1_555 1_555
C58 C57 1_555 1_555
C59 C58 1_555 1_555
C60 C59 1_555 1_555
H43 C60 1_555 1_555
C61 C60 1_555 1_555
C62 C61 1_555 1_555
C63 C62 1_555 1_555
H44 C63 1_555 1_555
C64 C63 1_555 1_555
H45 C64 1_555 1_555
C65 C64 1_555 1_555
C66 C65 1_555 1_555
H46 C66 1_555 1_555
C67 C62 1_555 1_555
H47 C67 1_555 1_555
C68 C69 1_555 1_555
C69 H48 1_555 1_555
C70 C69 1_555 1_555
H49 C70 1_555 1_555
C71 C70 1_555 1_555
C72 C71 1_555 1_555
H50 C72 1_555 1_555
C73 C68 1_555 1_555
H51 C73 1_555 1_555
C74 C75 1_555 1_555
C75 H52 1_555 1_555
C76 C75 1_555 1_555
H53 C76 1_555 1_555
C77 C76 1_555 1_555
H54 C77 1_555 1_555
C78 C77 1_555 1_555
H55 C78 1_555 1_555
C79 C74 1_555 1_555
H56 C79 1_555 1_555
C80 H57 1_555 1_555
H58 C80 1_555 1_555
H59 C80 1_555 1_555
C81 Fe1 1_555 1_555
C82 Fe1 1_555 1_555
C83 N15 1_555 1_555
C84 Fe2 1_555 1_555
C85 Fe2 1_555 1_555
C86 Fe2 1_555 1_555
C87 Fe3 1_555 1_555
C88 Fe3 1_555 1_555
C89 Fe3 1_555 1_555
C90 Fe4 1_555 1_555
C91 Fe4 1_555 1_555
C92 Fe4 1_555 1_555
C93 H60 1_555 1_555
C94 C93 1_555 1_555
H61 C94 1_555 1_555
C95 C94 1_555 1_555
H62 C95 1_555 1_555
C96 H63 1_555 1_555
C97 C96 1_555 1_555
H64 C97 1_555 1_555
C98 C97 1_555 1_555
H65 C98 1_555 1_555
C99 H66 1_555 1_555
C100 C99 1_555 1_555
H67 C100 1_555 1_555
C101 C100 1_555 1_555
H68 C101 1_555 1_555
C102 H69 1_555 1_555
C103 C102 1_555 1_555
H70 C103 1_555 1_555
C104 C103 1_555 1_555
H71 C104 1_555 1_555
C105 H72 1_555 1_555
C106 C105 1_555 1_555
H73 C106 1_555 1_555
C107 C106 1_555 1_555
H74 C107 1_555 1_555
C108 H75 1_555 1_555
C109 C108 1_555 1_555
H76 C109 1_555 1_555
C110 C109 1_555 1_555
H77 C110 1_555 1_555
C111 H78 1_555 1_555
C112 C111 1_555 1_555
H79 C112 1_555 1_555
C113 C112 1_555 1_555
H80 C113 1_555 1_555
C114 H81 1_555 1_555
C115 C114 1_555 1_555
H82 C115 1_555 1_555
C116 C115 1_555 1_555
H83 C116 1_555 1_555
C117 H84 1_555 1_555
C118 C117 1_555 1_555
H85 C118 1_555 1_555
C119 C118 1_555 1_555
H86 C119 1_555 1_555
C120 H87 1_555 1_555
C121 C120 1_555 1_555
H88 C121 1_555 1_555
C122 C121 1_555 1_555
H89 C122 1_555 1_555
C123 H90 1_555 1_555
C124 C123 1_555 1_555
H91 C124 1_555 1_555
C125 C124 1_555 1_555
H92 C125 1_555 1_555
C126 H93 1_555 1_555
C127 C126 1_555 1_555
H94 C127 1_555 1_555
C128 C127 1_555 1_555
H95 C128 1_555 1_555
B1 H96 1_555 1_555
B2 H97 1_555 1_555
B3 H98 1_555 1_555
B4 H99 1_555 1_555
Co1 N1 1_555 1_555
Co2 N9 1_555 1_555
Fe1 N25 1_555 1_555
Fe2 N31 1_555 1_555
Fe3 N37 1_555 1_555
Fe4 N43 1_555 1_555
N1 C1 1_555 1_555
N2 C6 1_555 1_555
N3 C8 1_555 1_555
H100 N3 1_555 1_555
N4 C12 1_555 1_555
N5 C27 1_555 1_555
N6 C32 1_555 1_555
N7 C34 1_555 1_555
H101 N7 1_555 1_555
N8 C38 1_555 1_555
N9 C54 1_555 1_555
N10 C59 1_555 1_555
N11 C61 1_555 1_555
H102 N11 1_555 1_555
N12 C65 1_555 1_555
N13 C81 1_555 1_555
N14 C82 1_555 1_555
N15 Co1 1_555 1_555
N16 C84 1_555 1_555
N17 C85 1_555 1_555
N18 C86 1_555 1_555
N19 C87 1_555 1_555
N20 C88 1_555 1_555
N21 C89 1_555 1_555
N22 C90 1_555 1_555
N23 C91 1_555 1_555
N24 C92 1_555 1_555
N25 C93 1_555 1_555
N26 C95 1_555 1_555
N27 C96 1_555 1_555
N28 C98 1_555 1_555
N29 C99 1_555 1_555
N30 C101 1_555 1_555
N31 C102 1_555 1_555
N32 C104 1_555 1_555
N33 C105 1_555 1_555
N34 C107 1_555 1_555
N35 C108 1_555 1_555
N36 C110 1_555 1_555
N37 C111 1_555 1_555
N38 C113 1_555 1_555
N39 C114 1_555 1_555
N40 C116 1_555 1_555
N41 C117 1_555 1_555
N42 C119 1_555 1_555
N43 C120 1_555 1_555
N44 C122 1_555 1_555
N45 C123 1_555 1_555
N46 C125 1_555 1_555
N47 C126 1_555 1_555
N48 C128 1_555 1_555
O2 C71 1_555 1_555
O3 C18 1_555 1_555
C129 O3 1_555 1_555
H103 C129 1_555 1_555
H104 C129 1_555 1_555
H105 C129 1_555 1_555
C1A H1A 1_555 1_555
C2A C1A 1_555 1_555
H2A C2A 1_555 1_555
C3A C2A 1_555 1_555
H3A C3A 1_555 1_555
C4A C3A 1_555 1_555
H4A C4A 1_555 1_555
C5A C4A 1_555 1_555
C6A C5A 1_555 1_555
C7A C6A 1_555 1_555
H5A C7A 1_555 1_555
C8A C7A 1_555 1_555
C9A C8A 1_555 1_555
C10A C9A 1_555 1_555
H6A C10A 1_555 1_555
C11A C10A 1_555 1_555
H7A C11A 1_555 1_555
C12A C11A 1_555 1_555
C13A C12A 1_555 1_555
H8A C13A 1_555 1_555
C14A C9A 1_555 1_555
H9A C14A 1_555 1_555
C15A C16A 1_555 1_555
C16A H10A 1_555 1_555
C17A C16A 1_555 1_555
H11A C17A 1_555 1_555
C18A C17A 1_555 1_555
C19A C18A 1_555 1_555
H12A C19A 1_555 1_555
C20A C15A 1_555 1_555
H13A C20A 1_555 1_555
C21A C22A 1_555 1_555
C22A H14A 1_555 1_555
C23A C22A 1_555 1_555
H15A C23A 1_555 1_555
C24A C23A 1_555 1_555
C25A C24A 1_555 1_555
H16A C25A 1_555 1_555
C26A C21A 1_555 1_555
H17A C26A 1_555 1_555
C27A H18A 1_555 1_555
C28A C27A 1_555 1_555
H19A C28A 1_555 1_555
C29A C28A 1_555 1_555
H20A C29A 1_555 1_555
C30A C29A 1_555 1_555
H21A C30A 1_555 1_555
C31A C30A 1_555 1_555
C32A C31A 1_555 1_555
C33A C32A 1_555 1_555
H22A C33A 1_555 1_555
C34A C33A 1_555 1_555
C35A C34A 1_555 1_555
C36A C35A 1_555 1_555
H23A C36A 1_555 1_555
C37A C36A 1_555 1_555
H24A C37A 1_555 1_555
C38A C37A 1_555 1_555
C39A C38A 1_555 1_555
H25A C39A 1_555 1_555
C40A C35A 1_555 1_555
H26A C40A 1_555 1_555
C41A C42A 1_555 1_555
C42A H27A 1_555 1_555
C43A C42A 1_555 1_555
H28A C43A 1_555 1_555
C44A C43A 1_555 1_555
H29A C44A 1_555 1_555
C45A C44A 1_555 1_555
H30A C45A 1_555 1_555
C46A C41A 1_555 1_555
H31A C46A 1_555 1_555
C47A C48A 1_555 1_555
C48A H32A 1_555 1_555
C49A C48A 1_555 1_555
H33A C49A 1_555 1_555
C50A C49A 1_555 1_555
C51A C50A 1_555 1_555
H34A C51A 1_555 1_555
C52A C47A 1_555 1_555
H35A C52A 1_555 1_555
O1A C50A 1_555 1_555
C53A O1A 1_555 1_555
H36A C53A 1_555 1_555
H37A C53A 1_555 1_555
H38A C53A 1_555 1_555
C54A H39A 1_555 1_555
C55A C54A 1_555 1_555
H40A C55A 1_555 1_555
C56A C55A 1_555 1_555
H41A C56A 1_555 1_555
C57A C56A 1_555 1_555
H42A C57A 1_555 1_555
C58A C57A 1_555 1_555
C59A C58A 1_555 1_555
C60A C59A 1_555 1_555
H43A C60A 1_555 1_555
C61A C60A 1_555 1_555
C62A C61A 1_555 1_555
C63A C62A 1_555 1_555
H44A C63A 1_555 1_555
C64A C63A 1_555 1_555
H45A C64A 1_555 1_555
C65A C64A 1_555 1_555
C66A C65A 1_555 1_555
H46A C66A 1_555 1_555
C67A C62A 1_555 1_555
H47A C67A 1_555 1_555
C68A C69A 1_555 1_555
C69A H48A 1_555 1_555
C70A C69A 1_555 1_555
H49A C70A 1_555 1_555
C71A C70A 1_555 1_555
C72A C71A 1_555 1_555
H50A C72A 1_555 1_555
C73A C68A 1_555 1_555
H51A C73A 1_555 1_555
C74A C75A 1_555 1_555
C75A H52A 1_555 1_555
C76A C75A 1_555 1_555
H53A C76A 1_555 1_555
C77A C76A 1_555 1_555
H54A C77A 1_555 1_555
C78A C77A 1_555 1_555
H55A C78A 1_555 1_555
C79A C74A 1_555 1_555
H56A C79A 1_555 1_555
C80A H57A 1_555 1_555
H58A C80A 1_555 1_555
H59A C80A 1_555 1_555
C81A Fe1A 1_555 1_555
C82A Fe1A 1_555 1_555
C83A Fe1 1_555 1_555
C84A Fe2A 1_555 1_555
C85A Fe2A 1_555 1_555
C86A Fe2A 1_555 1_555
C87A Fe3A 1_555 1_555
C88A Fe3A 1_555 1_555
C89A Fe3A 1_555 1_555
C90A Fe4A 1_555 1_555
C91A Fe4A 1_555 1_555
C92A Fe4A 1_555 1_555
C93A H60A 1_555 1_555
C94A C93A 1_555 1_555
H61A C94A 1_555 1_555
C95A C94A 1_555 1_555
H62A C95A 1_555 1_555
C96A H63A 1_555 1_555
C97A C96A 1_555 1_555
H64A C97A 1_555 1_555
C98A C97A 1_555 1_555
H65A C98A 1_555 1_555
C99A H66A 1_555 1_555
C100A C99A 1_555 1_555
H67A C100A 1_555 1_555
C101A C100A 1_555 1_555
H68A C101A 1_555 1_555
C102A H69A 1_555 1_555
C103A C102A 1_555 1_555
H70A C103A 1_555 1_555
C104A C103A 1_555 1_555
H71A C104A 1_555 1_555
C105A H72A 1_555 1_555
C106A C105A 1_555 1_555
H73A C106A 1_555 1_555
C107A C106A 1_555 1_555
H74A C107A 1_555 1_555
C108A H75A 1_555 1_555
C109A C108A 1_555 1_555
H76A C109A 1_555 1_555
C110A C109A 1_555 1_555
H77A C110A 1_555 1_555
C111A H78A 1_555 1_555
C112A C111A 1_555 1_555
H79A C112A 1_555 1_555
C113A C112A 1_555 1_555
H80A C113A 1_555 1_555
C114A H81A 1_555 1_555
C115A C114A 1_555 1_555
H82A C115A 1_555 1_555
C116A C115A 1_555 1_555
H83A C116A 1_555 1_555
C117A H84A 1_555 1_555
C118A C117A 1_555 1_555
H85A C118A 1_555 1_555
C119A C118A 1_555 1_555
H86A C119A 1_555 1_555
C120A H87A 1_555 1_555
C121A C120A 1_555 1_555
H88A C121A 1_555 1_555
C122A C121A 1_555 1_555
H89A C122A 1_555 1_555
C123A H90A 1_555 1_555
C124A C123A 1_555 1_555
H91A C124A 1_555 1_555
C125A C124A 1_555 1_555
H92A C125A 1_555 1_555
C126A H93A 1_555 1_555
C127A C126A 1_555 1_555
H94A C127A 1_555 1_555
C128A C127A 1_555 1_555
H95A C128A 1_555 1_555
B1A H96A 1_555 1_555
B2A H97A 1_555 1_555
B3A H98A 1_555 1_555
B4A H99A 1_555 1_555
Co1A N1A 1_555 1_555
Co2A N9A 1_555 1_555
Fe1A C83 1_555 1_555
Fe2A N31A 1_555 1_555
Fe3A N37A 1_555 1_555
Fe4A N43A 1_555 1_555
N1A C1A 1_555 1_555
N2A C6A 1_555 1_555
N3A C8A 1_555 1_555
H100A N3A 1_555 1_555
N4A C12A 1_555 1_555
N5A C27A 1_555 1_555
N6A C32A 1_555 1_555
N7A C34A 1_555 1_555
H101A N7A 1_555 1_555
N8A C38A 1_555 1_555
N9A C54A 1_555 1_555
N10A C59A 1_555 1_555
N11A C61A 1_555 1_555
H102A N11A 1_555 1_555
N12A C65A 1_555 1_555
N13A C81A 1_555 1_555
N14A C82A 1_555 1_555
N15A C83A 1_555 1_555
N16A C84A 1_555 1_555
N17A C85A 1_555 1_555
N18A C86A 1_555 1_555
N19A C87A 1_555 1_555
N20A C88A 1_555 1_555
N21A C89A 1_555 1_555
N22A C90A 1_555 1_555
N23A C91A 1_555 1_555
N24A C92A 1_555 1_555
N25A C93A 1_555 1_555
N26A C95A 1_555 1_555
N27A C96A 1_555 1_555
N28A C98A 1_555 1_555
N29A C99A 1_555 1_555
N30A C101A 1_555 1_555
N31A C102A 1_555 1_555
N32A C104A 1_555 1_555
N33A C105A 1_555 1_555
N34A C107A 1_555 1_555
N35A C108A 1_555 1_555
N36A C110A 1_555 1_555
N37A C111A 1_555 1_555
N38A C113A 1_555 1_555
N39A C114A 1_555 1_555
N40A C116A 1_555 1_555
N41A C117A 1_555 1_555
N42A C119A 1_555 1_555
N43A C120A 1_555 1_555
N44A C122A 1_555 1_555
N45A C123A 1_555 1_555
N46A C125A 1_555 1_555
N47A C126A 1_555 1_555
N48A C128A 1_555 1_555
O2A C71A 1_555 1_555
O3A C18A 1_555 1_555
C129A O3A 1_555 1_555
H103A C129A 1_555 1_555
H104A C129A 1_555 1_555
H105A C129A 1_555 1_555
C5 N1 1_555 1_555
C13 C14 1_555 1_555
C15 N4 1_555 1_555
C19 C20 1_555 1_555
C21 N4 1_555 1_555
C25 C26 1_555 1_555
C31 N5 1_555 1_555
C39 C40 1_555 1_555
C41 N8 1_555 1_555
C45 C46 1_555 1_555
C47 N8 1_555 1_555
C51 C52 1_555 1_555
C58 N9 1_555 1_555
C66 C67 1_555 1_555
C68 N12 1_555 1_555
C72 C73 1_555 1_555
C74 N12 1_555 1_555
C78 C79 1_555 1_555
C80 O2 1_555 1_555
B1 N26 1_555 1_555
B1 N28 1_555 1_555
B1 N30 1_555 1_555
B2 N32 1_555 1_555
B2 N34 1_555 1_555
B2 N36 1_555 1_555
B3 N38 1_555 1_555
B3 N40 1_555 1_555
B3 N42 1_555 1_555
B4 N44 1_555 1_555
B4 N46 1_555 1_555
B4 N48 1_555 1_555
Co1 N2 1_555 1_555
Co1 N5 1_555 1_555
Co1 N6 1_555 1_555
Co1 N13 1_555 1_555
Co2 N10 1_555 1_555
Co2 N14 1_555 1_555
Co2 N16 1_555 1_555
Co2 N19 1_555 1_555
Co2 N22 1_555 1_555
Fe1 N27 1_555 1_555
Fe1 N29 1_555 1_555
Fe2 N33 1_555 1_555
Fe2 N35 1_555 1_555
Fe3 N39 1_555 1_555
Fe3 N41 1_555 1_555
Fe4 N45 1_555 1_555
Fe4 N47 1_555 1_555
N2 N3 1_555 1_555
N6 N7 1_555 1_555
N10 N11 1_555 1_555
N25 N26 1_555 1_555
N27 N28 1_555 1_555
N29 N30 1_555 1_555
N31 N32 1_555 1_555
N33 N34 1_555 1_555
N35 N36 1_555 1_555
N37 N38 1_555 1_555
N39 N40 1_555 1_555
N41 N42 1_555 1_555
N43 N44 1_555 1_555
N45 N46 1_555 1_555
N47 N48 1_555 1_555
C5A N1A 1_555 1_555
C13A C14A 1_555 1_555
C15A N4A 1_555 1_555
C19A C20A 1_555 1_555
C21A N4A 1_555 1_555
C25A C26A 1_555 1_555
C31A N5A 1_555 1_555
C39A C40A 1_555 1_555
C41A N8A 1_555 1_555
C45A C46A 1_555 1_555
C47A N8A 1_555 1_555
C51A C52A 1_555 1_555
C58A N9A 1_555 1_555
C66A C67A 1_555 1_555
C68A N12A 1_555 1_555
C72A C73A 1_555 1_555
C74A N12A 1_555 1_555
C78A C79A 1_555 1_555
C80A O2A 1_555 1_555
B1A N26A 1_555 1_555
B1A N28A 1_555 1_555
B1A N30A 1_555 1_555
B2A N32A 1_555 1_555
B2A N34A 1_555 1_555
B2A N36A 1_555 1_555
B3A N38A 1_555 1_555
B3A N40A 1_555 1_555
B3A N42A 1_555 1_555
B4A N44A 1_555 1_555
B4A N46A 1_555 1_555
B4A N48A 1_555 1_555
Co1A N2A 1_555 1_555
Co1A N5A 1_555 1_555
Co1A N6A 1_555 1_555
Co1A N13A 1_555 1_555
Co1A N15A 1_555 1_555
Co2A N10A 1_555 1_555
Co2A N14A 1_555 1_555
Co2A N16A 1_555 1_555
Co2A N19A 1_555 1_555
Co2A N22A 1_555 1_555
Fe1A N25A 1_555 1_555
Fe1A N27A 1_555 1_555
Fe1A N29A 1_555 1_555
Fe2A N33A 1_555 1_555
Fe2A N35A 1_555 1_555
Fe3A N39A 1_555 1_555
Fe3A N41A 1_555 1_555
Fe4A N45A 1_555 1_555
Fe4A N47A 1_555 1_555
N2A N3A 1_555 1_555
N6A N7A 1_555 1_555
N10A N11A 1_555 1_555
N25A N26A 1_555 1_555
N27A N28A 1_555 1_555
N29A N30A 1_555 1_555
N31A N32A 1_555 1_555
N33A N34A 1_555 1_555
N35A N36A 1_555 1_555
N37A N38A 1_555 1_555
N39A N40A 1_555 1_555
N41A N42A 1_555 1_555
N43A N44A 1_555 1_555
N45A N46A 1_555 1_555
N47A N48A 1_555 1_555

#END
