# generated using pymatgen
data_Fe4Co3B4PH150C185N57O5F6
_symmetry_space_group_name_H-M   'P 1'
_cell_length_a   29.65100000
_cell_length_b   30.70911881
_cell_length_c   30.70911881
_cell_angle_alpha   72.67779072
_cell_angle_beta   71.15435373
_cell_angle_gamma   71.15435373
_symmetry_Int_Tables_number   1
_chemical_formula_structural   Fe4Co3B4PH150C185N57O5F6
_chemical_formula_sum   'Fe16 Co12 B16 P4 H600 C740 N228 O20 F24'
_cell_volume   24453.87428940
_cell_formula_units_Z   4
loop_
 _symmetry_equiv_pos_site_id
 _symmetry_equiv_pos_as_xyz
  1  'x, y, z'
loop_
 _atom_site_type_symbol
 _atom_site_label
 _atom_site_symmetry_multiplicity
 _atom_site_fract_x
 _atom_site_fract_y
 _atom_site_fract_z
 _atom_site_occupancy
  B  B1  1  0.820600  0.781600  0.420200  1.0
  B  B2  1  0.679400  0.579800  0.218400  1.0
  B  B3  1  0.179400  0.218400  0.579800  1.0
  B  B4  1  0.320600  0.420200  0.781600  1.0
  B  B5  1  0.264400  0.782620  0.329020  1.0
  B  B6  1  0.235600  0.670980  0.217380  1.0
  B  B7  1  0.735600  0.217380  0.670980  1.0
  B  B8  1  0.764400  0.329020  0.782620  1.0
  B  B9  1  0.996400  0.946100  0.845100  1.0
  B  B10  1  0.503600  0.154900  0.053900  1.0
  B  B11  1  0.003600  0.053900  0.154900  1.0
  B  B12  1  0.496400  0.845100  0.946100  1.0
  B  B13  1  0.047600  0.650800  0.655600  1.0
  B  B14  1  0.452400  0.344400  0.349200  1.0
  B  B15  1  0.952400  0.349200  0.344400  1.0
  B  B16  1  0.547600  0.655600  0.650800  1.0
  C  C17  1  0.010400  0.915070  0.254670  1.0
  C  C18  1  0.489600  0.745330  0.084930  1.0
  C  C19  1  0.989600  0.084930  0.745330  1.0
  C  C20  1  0.510400  0.254670  0.915070  1.0
  C  C21  1  0.005900  0.904200  0.216000  1.0
  C  C22  1  0.494100  0.784000  0.095800  1.0
  C  C23  1  0.994100  0.095800  0.784000  1.0
  C  C24  1  0.505900  0.216000  0.904200  1.0
  C  C25  1  0.999100  0.861360  0.219960  1.0
  C  C26  1  0.500900  0.780040  0.138640  1.0
  C  C27  1  0.000900  0.138640  0.780040  1.0
  C  C28  1  0.499100  0.219960  0.861360  1.0
  C  C29  1  0.998100  0.829010  0.261810  1.0
  C  C30  1  0.501900  0.738190  0.170990  1.0
  C  C31  1  0.001900  0.170990  0.738190  1.0
  C  C32  1  0.498100  0.261810  0.829010  1.0
  C  C33  1  0.002800  0.841480  0.298900  1.0
  C  C34  1  0.497200  0.701100  0.158520  1.0
  C  C35  1  0.997200  0.158520  0.701100  1.0
  C  C36  1  0.502800  0.298900  0.841480  1.0
  C  C37  1  0.000600  0.762500  0.362960  1.0
  C  C38  1  0.499400  0.637040  0.237500  1.0
  C  C39  1  0.999400  0.237500  0.637040  1.0
  C  C40  1  0.500600  0.362960  0.762500  1.0
  C  C41  1  0.003500  0.749740  0.408340  1.0
  C  C42  1  0.496500  0.591660  0.250260  1.0
  C  C43  1  0.996500  0.250260  0.591660  1.0
  C  C44  1  0.503500  0.408340  0.749740  1.0
  C  C45  1  0.005100  0.705690  0.441890  1.0
  C  C46  1  0.494900  0.558110  0.294310  1.0
  C  C47  1  0.994900  0.294310  0.558110  1.0
  C  C48  1  0.505100  0.441890  0.705690  1.0
  C  C49  1  0.029600  0.693310  0.477310  1.0
  C  C50  1  0.470400  0.522690  0.306690  1.0
  C  C51  1  0.970400  0.306690  0.522690  1.0
  C  C52  1  0.529600  0.477310  0.693310  1.0
  C  C53  1  0.030400  0.649860  0.509660  1.0
  C  C54  1  0.469600  0.490340  0.350140  1.0
  C  C55  1  0.969600  0.350140  0.490340  1.0
  C  C56  1  0.530400  0.509660  0.649860  1.0
  C  C57  1  0.006700  0.618470  0.506870  1.0
  C  C58  1  0.493300  0.493130  0.381530  1.0
  C  C59  1  0.993300  0.381530  0.493130  1.0
  C  C60  1  0.506700  0.506870  0.618470  1.0
  C  C61  1  0.982700  0.631170  0.471370  1.0
  C  C62  1  0.517300  0.528630  0.368830  1.0
  C  C63  1  0.017300  0.368830  0.528630  1.0
  C  C64  1  0.482700  0.471370  0.631170  1.0
  C  C65  1  0.983000  0.674300  0.439100  1.0
  C  C66  1  0.517000  0.560900  0.325700  1.0
  C  C67  1  0.017000  0.325700  0.560900  1.0
  C  C68  1  0.483000  0.439100  0.674300  1.0
  C  C69  1  0.051600  0.551660  0.559260  1.0
  C  C70  1  0.448400  0.440740  0.448340  1.0
  C  C71  1  0.948400  0.448340  0.440740  1.0
  C  C72  1  0.551600  0.559260  0.551660  1.0
  C  C73  1  0.098400  0.544090  0.532090  1.0
  C  C74  1  0.401600  0.467910  0.455910  1.0
  C  C75  1  0.901600  0.455910  0.467910  1.0
  C  C76  1  0.598400  0.532090  0.544090  1.0
  C  C77  1  0.136700  0.521170  0.551570  1.0
  C  C78  1  0.363300  0.448430  0.478830  1.0
  C  C79  1  0.863300  0.478830  0.448430  1.0
  C  C80  1  0.636700  0.551570  0.521170  1.0
  C  C81  1  0.128200  0.504700  0.599100  1.0
  C  C82  1  0.371800  0.400900  0.495300  1.0
  C  C83  1  0.871800  0.495300  0.400900  1.0
  C  C84  1  0.628200  0.599100  0.504700  1.0
  C  C85  1  0.082300  0.512400  0.626800  1.0
  C  C86  1  0.417700  0.373200  0.487600  1.0
  C  C87  1  0.917700  0.487600  0.373200  1.0
  C  C88  1  0.582300  0.626800  0.512400  1.0
  C  C89  1  0.042600  0.536660  0.608860  1.0
  C  C90  1  0.457400  0.391140  0.463340  1.0
  C  C91  1  0.957400  0.463340  0.391140  1.0
  C  C92  1  0.542600  0.608860  0.536660  1.0
  C  C93  1  0.920900  0.578000  0.561400  1.0
  C  C94  1  0.579100  0.438600  0.422000  1.0
  C  C95  1  0.079100  0.422000  0.438600  1.0
  C  C96  1  0.420900  0.561400  0.578000  1.0
  C  C97  1  0.969900  0.553600  0.552400  1.0
  C  C98  1  0.530100  0.447600  0.446400  1.0
  C  C99  1  0.030100  0.446400  0.447600  1.0
  C  C100  1  0.469900  0.552400  0.553600  1.0
  C  C101  1  0.980300  0.503050  0.556450  1.0
  C  C102  1  0.519700  0.443550  0.496950  1.0
  C  C103  1  0.019700  0.496950  0.443550  1.0
  C  C104  1  0.480300  0.556450  0.503050  1.0
  C  C105  1  0.941100  0.483260  0.568460  1.0
  C  C106  1  0.558900  0.431540  0.516740  1.0
  C  C107  1  0.058900  0.516740  0.431540  1.0
  C  C108  1  0.441100  0.568460  0.483260  1.0
  C  C109  1  0.892700  0.507800  0.577800  1.0
  C  C110  1  0.607300  0.422200  0.492200  1.0
  C  C111  1  0.107300  0.492200  0.422200  1.0
  C  C112  1  0.392700  0.577800  0.507800  1.0
  C  C113  1  0.883500  0.556400  0.572800  1.0
  C  C114  1  0.616500  0.427200  0.443600  1.0
  C  C115  1  0.116500  0.443600  0.427200  1.0
  C  C116  1  0.383500  0.572800  0.556400  1.0
  C  C117  1  0.164000  0.472400  0.667600  1.0
  C  C118  1  0.336000  0.332400  0.527600  1.0
  C  C119  1  0.836000  0.527600  0.332400  1.0
  C  C120  1  0.664000  0.667600  0.472400  1.0
  C  C121  1  0.002200  0.809770  0.346570  1.0
  C  C122  1  0.497800  0.653430  0.190230  1.0
  C  C123  1  0.997800  0.190230  0.653430  1.0
  C  C124  1  0.502200  0.346570  0.809770  1.0
  C  C125  1  0.921800  0.774350  0.735950  1.0
  C  C126  1  0.578200  0.264050  0.225650  1.0
  C  C127  1  0.078200  0.225650  0.264050  1.0
  C  C128  1  0.421800  0.735950  0.774350  1.0
  C  C129  1  0.914800  0.735900  0.773500  1.0
  C  C130  1  0.585200  0.226500  0.264100  1.0
  C  C131  1  0.085200  0.264100  0.226500  1.0
  C  C132  1  0.414800  0.773500  0.735900  1.0
  C  C133  1  0.875500  0.744900  0.813500  1.0
  C  C134  1  0.624500  0.186500  0.255100  1.0
  C  C135  1  0.124500  0.255100  0.186500  1.0
  C  C136  1  0.375500  0.813500  0.744900  1.0
  C  C137  1  0.846300  0.791200  0.812200  1.0
  C  C138  1  0.653700  0.187800  0.208800  1.0
  C  C139  1  0.153700  0.208800  0.187800  1.0
  C  C140  1  0.346300  0.812200  0.791200  1.0
  C  C141  1  0.856600  0.826100  0.773100  1.0
  C  C142  1  0.643400  0.226900  0.173900  1.0
  C  C143  1  0.143400  0.173900  0.226900  1.0
  C  C144  1  0.356600  0.773100  0.826100  1.0
  C  C145  1  0.827200  0.874890  0.770290  1.0
  C  C146  1  0.672800  0.229710  0.125110  1.0
  C  C147  1  0.172800  0.125110  0.229710  1.0
  C  C148  1  0.327200  0.770290  0.874890  1.0
  C  C149  1  0.784200  0.895400  0.800800  1.0
  C  C150  1  0.715800  0.199200  0.104600  1.0
  C  C151  1  0.215800  0.104600  0.199200  1.0
  C  C152  1  0.284200  0.800800  0.895400  1.0
  C  C153  1  0.773500  0.942420  0.779420  1.0
  C  C154  1  0.726500  0.220580  0.057580  1.0
  C  C155  1  0.226500  0.057580  0.220580  1.0
  C  C156  1  0.273500  0.779420  0.942420  1.0
  C  C157  1  0.734000  0.982480  0.794080  1.0
  C  C158  1  0.766000  0.205920  0.017520  1.0
  C  C159  1  0.266000  0.017520  0.205920  1.0
  C  C160  1  0.234000  0.794080  0.982480  1.0
  C  C161  1  0.736000  0.028560  0.775760  1.0
  C  C162  1  0.764000  0.224240  0.971440  1.0
  C  C163  1  0.264000  0.971440  0.224240  1.0
  C  C164  1  0.236000  0.775760  0.028560  1.0
  C  C165  1  0.697800  0.064680  0.791680  1.0
  C  C166  1  0.802200  0.208320  0.935320  1.0
  C  C167  1  0.302200  0.935320  0.208320  1.0
  C  C168  1  0.197800  0.791680  0.064680  1.0
  C  C169  1  0.655200  0.056340  0.826540  1.0
  C  C170  1  0.844800  0.173460  0.943660  1.0
  C  C171  1  0.344800  0.943660  0.173460  1.0
  C  C172  1  0.155200  0.826540  0.056340  1.0
  C  C173  1  0.653600  0.009090  0.844890  1.0
  C  C174  1  0.846400  0.155110  0.990910  1.0
  C  C175  1  0.346400  0.990910  0.155110  1.0
  C  C176  1  0.153600  0.844890  0.009090  1.0
  C  C177  1  0.692700  0.972490  0.829290  1.0
  C  C178  1  0.807300  0.170710  0.027510  1.0
  C  C179  1  0.307300  0.027510  0.170710  1.0
  C  C180  1  0.192700  0.829290  0.972490  1.0
  C  C181  1  0.615800  0.141790  0.819390  1.0
  C  C182  1  0.884200  0.180610  0.858210  1.0
  C  C183  1  0.384200  0.858210  0.180610  1.0
  C  C184  1  0.115800  0.819390  0.141790  1.0
  C  C185  1  0.604900  0.164390  0.776390  1.0
  C  C186  1  0.895100  0.223610  0.835610  1.0
  C  C187  1  0.395100  0.835610  0.223610  1.0
  C  C188  1  0.104900  0.776390  0.164390  1.0
  C  C189  1  0.603700  0.210700  0.758500  1.0
  C  C190  1  0.896300  0.241500  0.789300  1.0
  C  C191  1  0.396300  0.789300  0.241500  1.0
  C  C192  1  0.103700  0.758500  0.210700  1.0
  C  C193  1  0.614000  0.236570  0.783170  1.0
  C  C194  1  0.886000  0.216830  0.763430  1.0
  C  C195  1  0.386000  0.763430  0.216830  1.0
  C  C196  1  0.114000  0.783170  0.236570  1.0
  C  C197  1  0.624600  0.214830  0.825830  1.0
  C  C198  1  0.875400  0.174170  0.785170  1.0
  C  C199  1  0.375400  0.785170  0.174170  1.0
  C  C200  1  0.124600  0.825830  0.214830  1.0
  C  C201  1  0.626000  0.166330  0.844930  1.0
  C  C202  1  0.874000  0.155070  0.833670  1.0
  C  C203  1  0.374000  0.833670  0.155070  1.0
  C  C204  1  0.126000  0.844930  0.166330  1.0
  C  C205  1  0.585600  0.068430  0.924630  1.0
  C  C206  1  0.914400  0.075370  0.931570  1.0
  C  C207  1  0.414400  0.931570  0.075370  1.0
  C  C208  1  0.085600  0.924630  0.068430  1.0
  C  C209  1  0.548500  0.061800  0.966800  1.0
  C  C210  1  0.951500  0.033200  0.938200  1.0
  C  C211  1  0.451500  0.938200  0.033200  1.0
  C  C212  1  0.048500  0.966800  0.061800  1.0
  C  C213  1  0.500800  0.075700  0.961700  1.0
  C  C214  1  0.999200  0.038300  0.924300  1.0
  C  C215  1  0.499200  0.924300  0.038300  1.0
  C  C216  1  0.000800  0.961700  0.075700  1.0
  C  C217  1  0.488700  0.092000  0.917600  1.0
  C  C218  1  0.011300  0.082400  0.908000  1.0
  C  C219  1  0.511300  0.908000  0.082400  1.0
  C  C220  1  0.988700  0.917600  0.092000  1.0
  C  C221  1  0.528300  0.097000  0.875000  1.0
  C  C222  1  0.971700  0.125000  0.903000  1.0
  C  C223  1  0.471700  0.903000  0.125000  1.0
  C  C224  1  0.028300  0.875000  0.097000  1.0
  C  C225  1  0.577800  0.085600  0.880600  1.0
  C  C226  1  0.922200  0.119400  0.914400  1.0
  C  C227  1  0.422200  0.914400  0.119400  1.0
  C  C228  1  0.077800  0.880600  0.085600  1.0
  C  C229  1  0.626900  0.308420  0.784420  1.0
  C  C230  1  0.873100  0.215580  0.691580  1.0
  C  C231  1  0.373100  0.691580  0.215580  1.0
  C  C232  1  0.126900  0.784420  0.308420  1.0
  C  C233  1  0.087100  0.913710  0.578990  1.0
  C  C234  1  0.412900  0.421010  0.086290  1.0
  C  C235  1  0.912900  0.086290  0.421010  1.0
  C  C236  1  0.587100  0.578990  0.913710  1.0
  C  C237  1  0.064100  0.957290  0.589050  1.0
  C  C238  1  0.435900  0.410950  0.042710  1.0
  C  C239  1  0.935900  0.042710  0.410950  1.0
  C  C240  1  0.564100  0.589050  0.957290  1.0
  C  C241  1  0.091400  0.989220  0.580400  1.0
  C  C242  1  0.408600  0.419600  0.010780  1.0
  C  C243  1  0.908600  0.010780  0.419600  1.0
  C  C244  1  0.591400  0.580400  0.989220  1.0
  C  C245  1  0.141700  0.976680  0.560440  1.0
  C  C246  1  0.358300  0.439560  0.023320  1.0
  C  C247  1  0.858300  0.023320  0.439560  1.0
  C  C248  1  0.641700  0.560440  0.976680  1.0
  C  C249  1  0.162100  0.932810  0.550210  1.0
  C  C250  1  0.337900  0.449790  0.067190  1.0
  C  C251  1  0.837900  0.067190  0.449790  1.0
  C  C252  1  0.662100  0.550210  0.932810  1.0
  C  C253  1  0.213400  0.917570  0.527790  1.0
  C  C254  1  0.286600  0.472210  0.082430  1.0
  C  C255  1  0.786600  0.082430  0.472210  1.0
  C  C256  1  0.713400  0.527790  0.917570  1.0
  C  C257  1  0.251400  0.940550  0.509850  1.0
  C  C258  1  0.248600  0.490150  0.059450  1.0
  C  C259  1  0.748600  0.059450  0.490150  1.0
  C  C260  1  0.751400  0.509850  0.940550  1.0
  C  C261  1  0.293700  0.907500  0.492100  1.0
  C  C262  1  0.206300  0.507900  0.092500  1.0
  C  C263  1  0.706300  0.092500  0.507900  1.0
  C  C264  1  0.793700  0.492100  0.907500  1.0
  C  C265  1  0.343000  0.913020  0.468420  1.0
  C  C266  1  0.157000  0.531580  0.086980  1.0
  C  C267  1  0.657000  0.086980  0.531580  1.0
  C  C268  1  0.843000  0.468420  0.913020  1.0
  C  C269  1  0.381200  0.876240  0.450840  1.0
  C  C270  1  0.118800  0.549160  0.123760  1.0
  C  C271  1  0.618800  0.123760  0.549160  1.0
  C  C272  1  0.881200  0.450840  0.876240  1.0
  C  C273  1  0.426600  0.884580  0.426780  1.0
  C  C274  1  0.073400  0.573220  0.115420  1.0
  C  C275  1  0.573400  0.115420  0.573220  1.0
  C  C276  1  0.926600  0.426780  0.884580  1.0
  C  C277  1  0.437800  0.926800  0.417800  1.0
  C  C278  1  0.062200  0.582200  0.073200  1.0
  C  C279  1  0.562200  0.073200  0.582200  1.0
  C  C280  1  0.937800  0.417800  0.926800  1.0
  C  C281  1  0.398900  0.963100  0.437900  1.0
  C  C282  1  0.101100  0.562100  0.036900  1.0
  C  C283  1  0.601100  0.036900  0.562100  1.0
  C  C284  1  0.898900  0.437900  0.963100  1.0
  C  C285  1  0.352000  0.955900  0.461100  1.0
  C  C286  1  0.148000  0.538900  0.044100  1.0
  C  C287  1  0.648000  0.044100  0.538900  1.0
  C  C288  1  0.852000  0.461100  0.955900  1.0
  C  C289  1  0.527800  0.901200  0.385000  1.0
  C  C290  1  0.972200  0.615000  0.098800  1.0
  C  C291  1  0.472200  0.098800  0.615000  1.0
  C  C292  1  0.027800  0.385000  0.901200  1.0
  C  C293  1  0.537500  0.866500  0.424700  1.0
  C  C294  1  0.962500  0.575300  0.133500  1.0
  C  C295  1  0.462500  0.133500  0.575300  1.0
  C  C296  1  0.037500  0.424700  0.866500  1.0
  C  C297  1  0.581000  0.831300  0.418500  1.0
  C  C298  1  0.919000  0.581500  0.168700  1.0
  C  C299  1  0.419000  0.168700  0.581500  1.0
  C  C300  1  0.081000  0.418500  0.831300  1.0
  C  C301  1  0.614900  0.828700  0.374100  1.0
  C  C302  1  0.885100  0.625900  0.171300  1.0
  C  C303  1  0.385100  0.171300  0.625900  1.0
  C  C304  1  0.114900  0.374100  0.828700  1.0
  C  C305  1  0.602500  0.868000  0.338800  1.0
  C  C306  1  0.897500  0.661200  0.132000  1.0
  C  C307  1  0.397500  0.132000  0.661200  1.0
  C  C308  1  0.102500  0.338800  0.868000  1.0
  C  C309  1  0.560200  0.903700  0.341900  1.0
  C  C310  1  0.939800  0.658100  0.096300  1.0
  C  C311  1  0.439800  0.096300  0.658100  1.0
  C  C312  1  0.060200  0.341900  0.903700  1.0
  C  C313  1  0.484900  0.985130  0.367910  1.0
  C  C314  1  0.015100  0.632090  0.014870  1.0
  C  C315  1  0.515100  0.014870  0.632090  1.0
  C  C316  1  0.984900  0.367910  0.985130  1.0
  C  C317  1  0.519800  0.004050  0.371770  1.0
  C  C318  1  0.980200  0.628230  0.995950  1.0
  C  C319  1  0.480200  0.995950  0.628230  1.0
  C  C320  1  0.019800  0.371770  0.004050  1.0
  C  C321  1  0.523800  0.048900  0.346100  1.0
  C  C322  1  0.976200  0.653900  0.951100  1.0
  C  C323  1  0.476200  0.951100  0.653900  1.0
  C  C324  1  0.023800  0.346100  0.048900  1.0
  C  C325  1  0.492900  0.074850  0.316570  1.0
  C  C326  1  0.007100  0.683430  0.925150  1.0
  C  C327  1  0.507100  0.925150  0.683430  1.0
  C  C328  1  0.992900  0.316570  0.074850  1.0
  C  C329  1  0.458000  0.055940  0.312720  1.0
  C  C330  1  0.042000  0.687280  0.944060  1.0
  C  C331  1  0.542000  0.944060  0.687280  1.0
  C  C332  1  0.958000  0.312720  0.055940  1.0
  C  C333  1  0.454000  0.011030  0.338430  1.0
  C  C334  1  0.046000  0.661570  0.988970  1.0
  C  C335  1  0.546000  0.988970  0.661570  1.0
  C  C336  1  0.954000  0.338430  0.011030  1.0
  C  C337  1  0.533600  0.137400  0.290600  1.0
  C  C338  1  0.966400  0.709400  0.862600  1.0
  C  C339  1  0.466400  0.862600  0.709400  1.0
  C  C340  1  0.033600  0.290600  0.137400  1.0
  C  C341  1  0.923300  0.978210  0.620210  1.0
  C  C342  1  0.576700  0.379790  0.021790  1.0
  C  C343  1  0.076700  0.021790  0.379790  1.0
  C  C344  1  0.423300  0.620210  0.978210  1.0
  C  C345  1  0.923100  0.016500  0.582240  1.0
  C  C346  1  0.576900  0.417760  0.983500  1.0
  C  C347  1  0.076900  0.983500  0.417760  1.0
  C  C348  1  0.423100  0.582240  0.016500  1.0
  C  C349  1  0.898700  0.019390  0.549790  1.0
  C  C350  1  0.601300  0.450210  0.980610  1.0
  C  C351  1  0.101300  0.980610  0.450210  1.0
  C  C352  1  0.398700  0.549790  0.019390  1.0
  C  C353  1  0.878000  0.984360  0.554360  1.0
  C  C354  1  0.622000  0.445640  0.015640  1.0
  C  C355  1  0.122000  0.015640  0.445640  1.0
  C  C356  1  0.378000  0.554360  0.984360  1.0
  C  C357  1  0.880000  0.945750  0.592950  1.0
  C  C358  1  0.620000  0.407050  0.054250  1.0
  C  C359  1  0.120000  0.054250  0.407050  1.0
  C  C360  1  0.380000  0.592950  0.945750  1.0
  C  C361  1  0.859400  0.906660  0.599860  1.0
  C  C362  1  0.640600  0.400140  0.093340  1.0
  C  C363  1  0.140600  0.093340  0.400140  1.0
  C  C364  1  0.359400  0.599860  0.906660  1.0
  C  C365  1  0.835900  0.896350  0.573350  1.0
  C  C366  1  0.664100  0.426650  0.103650  1.0
  C  C367  1  0.164100  0.103650  0.426650  1.0
  C  C368  1  0.335900  0.573350  0.896350  1.0
  C  C369  1  0.824200  0.854900  0.598700  1.0
  C  C370  1  0.675800  0.401300  0.145100  1.0
  C  C371  1  0.175800  0.145100  0.401300  1.0
  C  C372  1  0.324200  0.598700  0.854900  1.0
  C  C373  1  0.796600  0.827640  0.588840  1.0
  C  C374  1  0.703400  0.411160  0.172360  1.0
  C  C375  1  0.203400  0.172360  0.411160  1.0
  C  C376  1  0.296600  0.588840  0.827640  1.0
  C  C377  1  0.801400  0.780430  0.607030  1.0
  C  C378  1  0.698600  0.392970  0.219570  1.0
  C  C379  1  0.198600  0.219570  0.392970  1.0
  C  C380  1  0.301400  0.607030  0.780430  1.0
  C  C381  1  0.773100  0.757740  0.598140  1.0
  C  C382  1  0.726900  0.401860  0.242260  1.0
  C  C383  1  0.226900  0.242260  0.401860  1.0
  C  C384  1  0.273100  0.598140  0.757740  1.0
  C  C385  1  0.739100  0.780440  0.572840  1.0
  C  C386  1  0.760900  0.427160  0.219560  1.0
  C  C387  1  0.260900  0.219560  0.427160  1.0
  C  C388  1  0.239100  0.572840  0.780440  1.0
  C  C389  1  0.722600  0.711400  0.564800  1.0
  C  C390  1  0.777400  0.435200  0.288600  1.0
  C  C391  1  0.277400  0.288600  0.435200  1.0
  C  C392  1  0.222600  0.564800  0.711400  1.0
  C  C393  1  0.760800  0.695700  0.530500  1.0
  C  C394  1  0.739200  0.469500  0.304300  1.0
  C  C395  1  0.239200  0.304300  0.469500  1.0
  C  C396  1  0.260800  0.530500  0.695700  1.0
  C  C397  1  0.774600  0.649300  0.527500  1.0
  C  C398  1  0.725400  0.472500  0.350700  1.0
  C  C399  1  0.225400  0.350700  0.472500  1.0
  C  C400  1  0.274600  0.527500  0.649300  1.0
  C  C401  1  0.748000  0.620000  0.564200  1.0
  C  C402  1  0.752000  0.435800  0.380000  1.0
  C  C403  1  0.252000  0.380000  0.435800  1.0
  C  C404  1  0.248000  0.564200  0.620000  1.0
  C  C405  1  0.711600  0.637600  0.598400  1.0
  C  C406  1  0.788400  0.401600  0.362400  1.0
  C  C407  1  0.288400  0.362400  0.401600  1.0
  C  C408  1  0.211600  0.598400  0.637600  1.0
  C  C409  1  0.696800  0.682200  0.601000  1.0
  C  C410  1  0.803200  0.399000  0.317800  1.0
  C  C411  1  0.303200  0.317800  0.399000  1.0
  C  C412  1  0.196800  0.601000  0.682200  1.0
  C  C413  1  0.654100  0.783300  0.571900  1.0
  C  C414  1  0.845900  0.428100  0.216700  1.0
  C  C415  1  0.345900  0.216700  0.428100  1.0
  C  C416  1  0.154100  0.571900  0.783300  1.0
  C  C417  1  0.631000  0.815300  0.601700  1.0
  C  C418  1  0.869000  0.398300  0.184700  1.0
  C  C419  1  0.369000  0.184700  0.398300  1.0
  C  C420  1  0.131000  0.601700  0.815300  1.0
  C  C421  1  0.581500  0.836800  0.604400  1.0
  C  C422  1  0.918500  0.395600  0.163200  1.0
  C  C423  1  0.418500  0.163200  0.395600  1.0
  C  C424  1  0.081500  0.604400  0.836800  1.0
  C  C425  1  0.552400  0.830600  0.579400  1.0
  C  C426  1  0.947600  0.420600  0.169400  1.0
  C  C427  1  0.447600  0.169400  0.420600  1.0
  C  C428  1  0.052400  0.579400  0.830600  1.0
  C  C429  1  0.578100  0.797200  0.550800  1.0
  C  C430  1  0.921900  0.449200  0.202800  1.0
  C  C431  1  0.421900  0.202800  0.449200  1.0
  C  C432  1  0.078100  0.550800  0.797200  1.0
  C  C433  1  0.626500  0.774700  0.547900  1.0
  C  C434  1  0.873500  0.452100  0.225300  1.0
  C  C435  1  0.373500  0.225300  0.452100  1.0
  C  C436  1  0.126500  0.547900  0.774700  1.0
  C  C437  1  0.783100  0.556800  0.527800  1.0
  C  C438  1  0.716900  0.472200  0.443200  1.0
  C  C439  1  0.216900  0.443200  0.472200  1.0
  C  C440  1  0.283100  0.527800  0.556800  1.0
  C  C441  1  0.735800  0.829320  0.551320  1.0
  C  C442  1  0.764200  0.448680  0.170680  1.0
  C  C443  1  0.264200  0.170680  0.448680  1.0
  C  C444  1  0.235800  0.551320  0.829320  1.0
  C  C445  1  0.765500  0.851230  0.559830  1.0
  C  C446  1  0.734500  0.440170  0.148770  1.0
  C  C447  1  0.234500  0.148770  0.440170  1.0
  C  C448  1  0.265500  0.559830  0.851230  1.0
  C  C449  1  0.240700  0.760310  0.479710  1.0
  C  C450  1  0.259300  0.520290  0.239690  1.0
  C  C451  1  0.759300  0.239690  0.520290  1.0
  C  C452  1  0.740700  0.479710  0.760310  1.0
  C  C453  1  0.266400  0.714620  0.473620  1.0
  C  C454  1  0.233600  0.526380  0.285380  1.0
  C  C455  1  0.733600  0.285380  0.526380  1.0
  C  C456  1  0.766400  0.473620  0.714620  1.0
  C  C457  1  0.276000  0.680020  0.512020  1.0
  C  C458  1  0.224000  0.487980  0.319980  1.0
  C  C459  1  0.724000  0.319980  0.487980  1.0
  C  C460  1  0.776000  0.512020  0.680020  1.0
  C  C461  1  0.259600  0.690860  0.556060  1.0
  C  C462  1  0.240400  0.443940  0.309140  1.0
  C  C463  1  0.740400  0.309140  0.443940  1.0
  C  C464  1  0.759600  0.556060  0.690860  1.0
  C  C465  1  0.233600  0.737290  0.560090  1.0
  C  C466  1  0.266400  0.439910  0.262710  1.0
  C  C467  1  0.766400  0.262710  0.439910  1.0
  C  C468  1  0.733600  0.560090  0.737290  1.0
  C  C469  1  0.213100  0.751060  0.606060  1.0
  C  C470  1  0.286900  0.393940  0.248940  1.0
  C  C471  1  0.786900  0.248940  0.393940  1.0
  C  C472  1  0.713100  0.606060  0.751060  1.0
  C  C473  1  0.212500  0.726440  0.650840  1.0
  C  C474  1  0.287500  0.349160  0.273560  1.0
  C  C475  1  0.787500  0.273560  0.349160  1.0
  C  C476  1  0.712500  0.650840  0.726440  1.0
  C  C477  1  0.187100  0.758350  0.679550  1.0
  C  C478  1  0.312900  0.320450  0.241650  1.0
  C  C479  1  0.812900  0.241650  0.320450  1.0
  C  C480  1  0.687100  0.679550  0.758350  1.0
  C  C481  1  0.177100  0.752030  0.730230  1.0
  C  C482  1  0.322900  0.269770  0.247970  1.0
  C  C483  1  0.822900  0.247970  0.269770  1.0
  C  C484  1  0.677100  0.730230  0.752030  1.0
  C  C485  1  0.139100  0.782290  0.755890  1.0
  C  C486  1  0.360900  0.244110  0.217710  1.0
  C  C487  1  0.860900  0.217710  0.244110  1.0
  C  C488  1  0.639100  0.755890  0.782290  1.0
  C  C489  1  0.132500  0.778750  0.802950  1.0
  C  C490  1  0.367500  0.197050  0.221250  1.0
  C  C491  1  0.867500  0.221250  0.197050  1.0
  C  C492  1  0.632500  0.802950  0.778750  1.0
  C  C493  1  0.165100  0.743910  0.826910  1.0
  C  C494  1  0.334900  0.173090  0.256090  1.0
  C  C495  1  0.834900  0.256090  0.173090  1.0
  C  C496  1  0.665100  0.826910  0.743910  1.0
  C  C497  1  0.199700  0.710360  0.803560  1.0
  C  C498  1  0.300300  0.196440  0.289640  1.0
  C  C499  1  0.800300  0.289640  0.196440  1.0
  C  C500  1  0.699700  0.803560  0.710360  1.0
  C  C501  1  0.205500  0.715530  0.755330  1.0
  C  C502  1  0.294500  0.244670  0.284470  1.0
  C  C503  1  0.794500  0.284470  0.244670  1.0
  C  C504  1  0.705500  0.755330  0.715530  1.0
  C  C505  1  0.137900  0.786000  0.892200  1.0
  C  C506  1  0.362100  0.107800  0.214000  1.0
  C  C507  1  0.862100  0.214000  0.107800  1.0
  C  C508  1  0.637900  0.892200  0.786000  1.0
  C  C509  1  0.152200  0.828800  0.866400  1.0
  C  C510  1  0.347800  0.133600  0.171200  1.0
  C  C511  1  0.847800  0.171200  0.133600  1.0
  C  C512  1  0.652200  0.866400  0.828800  1.0
  C  C513  1  0.126000  0.868310  0.883310  1.0
  C  C514  1  0.374000  0.116690  0.131690  1.0
  C  C515  1  0.874000  0.131690  0.116690  1.0
  C  C516  1  0.626000  0.883310  0.868310  1.0
  C  C517  1  0.091000  0.867000  0.924000  1.0
  C  C518  1  0.409000  0.076000  0.133000  1.0
  C  C519  1  0.909000  0.133000  0.076000  1.0
  C  C520  1  0.591000  0.924000  0.867000  1.0
  C  C521  1  0.076700  0.825000  0.950800  1.0
  C  C522  1  0.423300  0.049200  0.175000  1.0
  C  C523  1  0.923300  0.175000  0.049200  1.0
  C  C524  1  0.576700  0.950800  0.825000  1.0
  C  C525  1  0.101200  0.785200  0.934200  1.0
  C  C526  1  0.398800  0.065800  0.214800  1.0
  C  C527  1  0.898800  0.214800  0.065800  1.0
  C  C528  1  0.601200  0.934200  0.785200  1.0
  C  C529  1  0.183400  0.701020  0.903420  1.0
  C  C530  1  0.316600  0.096580  0.298980  1.0
  C  C531  1  0.816600  0.298980  0.096580  1.0
  C  C532  1  0.683400  0.903420  0.701020  1.0
  C  C533  1  0.212500  0.702900  0.928100  1.0
  C  C534  1  0.287500  0.071900  0.297100  1.0
  C  C535  1  0.787500  0.297100  0.071900  1.0
  C  C536  1  0.712500  0.928100  0.702900  1.0
  C  C537  1  0.230500  0.662200  0.959600  1.0
  C  C538  1  0.269500  0.040400  0.337800  1.0
  C  C539  1  0.769500  0.337800  0.040400  1.0
  C  C540  1  0.730500  0.959600  0.662200  1.0
  C  C541  1  0.220100  0.620800  0.966200  1.0
  C  C542  1  0.279900  0.033800  0.379200  1.0
  C  C543  1  0.779900  0.379200  0.033800  1.0
  C  C544  1  0.720100  0.966200  0.620800  1.0
  C  C545  1  0.192700  0.619900  0.939100  1.0
  C  C546  1  0.307300  0.060900  0.380100  1.0
  C  C547  1  0.807300  0.380100  0.060900  1.0
  C  C548  1  0.692700  0.939100  0.619900  1.0
  C  C549  1  0.173900  0.659710  0.908510  1.0
  C  C550  1  0.326100  0.091490  0.340290  1.0
  C  C551  1  0.826100  0.340290  0.091490  1.0
  C  C552  1  0.673900  0.908510  0.659710  1.0
  C  C553  1  0.025000  0.909400  0.979200  1.0
  C  C554  1  0.475000  0.020800  0.090600  1.0
  C  C555  1  0.975000  0.090600  0.020800  1.0
  C  C556  1  0.525000  0.979200  0.909400  1.0
  C  C557  1  0.724000  0.811000  0.439800  1.0
  C  C558  1  0.776000  0.560200  0.189000  1.0
  C  C559  1  0.276000  0.189000  0.560200  1.0
  C  C560  1  0.224000  0.439800  0.811000  1.0
  C  C561  1  0.690800  0.853900  0.442100  1.0
  C  C562  1  0.809200  0.557900  0.146100  1.0
  C  C563  1  0.309200  0.146100  0.557900  1.0
  C  C564  1  0.190800  0.442100  0.853900  1.0
  C  C565  1  0.719800  0.885110  0.429910  1.0
  C  C566  1  0.780200  0.570090  0.114890  1.0
  C  C567  1  0.280200  0.114890  0.570090  1.0
  C  C568  1  0.219800  0.429910  0.885110  1.0
  C  C569  1  0.868200  0.776080  0.332280  1.0
  C  C570  1  0.631800  0.667720  0.223920  1.0
  C  C571  1  0.131800  0.223920  0.667720  1.0
  C  C572  1  0.368200  0.332280  0.776080  1.0
  C  C573  1  0.885300  0.809560  0.292960  1.0
  C  C574  1  0.614700  0.707040  0.190440  1.0
  C  C575  1  0.114700  0.190440  0.707040  1.0
  C  C576  1  0.385300  0.292960  0.809560  1.0
  C  C577  1  0.876200  0.849890  0.308890  1.0
  C  C578  1  0.623800  0.691110  0.150110  1.0
  C  C579  1  0.123800  0.150110  0.691110  1.0
  C  C580  1  0.376200  0.308890  0.849890  1.0
  C  C581  1  0.872700  0.755700  0.481500  1.0
  C  C582  1  0.627300  0.518500  0.244300  1.0
  C  C583  1  0.127300  0.244300  0.518500  1.0
  C  C584  1  0.372700  0.481500  0.755700  1.0
  C  C585  1  0.894700  0.776980  0.498180  1.0
  C  C586  1  0.605300  0.501820  0.223020  1.0
  C  C587  1  0.105300  0.223020  0.501820  1.0
  C  C588  1  0.394700  0.498180  0.776980  1.0
  C  C589  1  0.883400  0.824930  0.475130  1.0
  C  C590  1  0.616600  0.524870  0.175070  1.0
  C  C591  1  0.116600  0.175070  0.524870  1.0
  C  C592  1  0.383400  0.475130  0.824930  1.0
  C  C593  1  0.806600  0.936300  0.353300  1.0
  C  C594  1  0.693400  0.646700  0.063700  1.0
  C  C595  1  0.193400  0.063700  0.646700  1.0
  C  C596  1  0.306600  0.353300  0.936300  1.0
  C  C597  1  0.802200  0.924800  0.445400  1.0
  C  C598  1  0.697800  0.554600  0.075200  1.0
  C  C599  1  0.197800  0.075200  0.554600  1.0
  C  C600  1  0.302200  0.445400  0.924800  1.0
  C  C601  1  0.889100  0.903990  0.382510  1.0
  C  C602  1  0.610900  0.617490  0.096010  1.0
  C  C603  1  0.110900  0.096010  0.617490  1.0
  C  C604  1  0.389100  0.382510  0.903990  1.0
  C  C605  1  0.067500  0.672800  0.723200  1.0
  C  C606  1  0.432500  0.276800  0.327200  1.0
  C  C607  1  0.932500  0.327200  0.276800  1.0
  C  C608  1  0.567500  0.723200  0.672800  1.0
  C  C609  1  0.072200  0.711740  0.731740  1.0
  C  C610  1  0.427800  0.268260  0.288260  1.0
  C  C611  1  0.927800  0.288260  0.268260  1.0
  C  C612  1  0.572200  0.731740  0.711740  1.0
  C  C613  1  0.062700  0.746350  0.691950  1.0
  C  C614  1  0.437300  0.308050  0.253650  1.0
  C  C615  1  0.937300  0.253650  0.308050  1.0
  C  C616  1  0.562700  0.691950  0.746350  1.0
  C  C617  1  0.958300  0.656100  0.655500  1.0
  C  C618  1  0.541700  0.344500  0.343900  1.0
  C  C619  1  0.041700  0.343900  0.344500  1.0
  C  C620  1  0.458300  0.655500  0.656100  1.0
  C  C621  1  0.921900  0.690220  0.638220  1.0
  C  C622  1  0.578100  0.361780  0.309780  1.0
  C  C623  1  0.078100  0.309780  0.361780  1.0
  C  C624  1  0.421900  0.638220  0.690220  1.0
  C  C625  1  0.941400  0.729300  0.618500  1.0
  C  C626  1  0.558600  0.381500  0.270700  1.0
  C  C627  1  0.058600  0.270700  0.381500  1.0
  C  C628  1  0.441400  0.618500  0.729300  1.0
  C  C629  1  0.119500  0.624420  0.585420  1.0
  C  C630  1  0.380500  0.414580  0.375580  1.0
  C  C631  1  0.880500  0.375580  0.414580  1.0
  C  C632  1  0.619500  0.585420  0.624420  1.0
  C  C633  1  0.142700  0.647490  0.543690  1.0
  C  C634  1  0.357300  0.456310  0.352510  1.0
  C  C635  1  0.857300  0.352510  0.456310  1.0
  C  C636  1  0.642700  0.543690  0.647490  1.0
  C  C637  1  0.120800  0.694530  0.540870  1.0
  C  C638  1  0.379200  0.459130  0.305470  1.0
  C  C639  1  0.879200  0.305470  0.459130  1.0
  C  C640  1  0.620800  0.540870  0.694530  1.0
  C  C641  1  0.084400  0.790030  0.576070  1.0
  C  C642  1  0.415600  0.423930  0.209970  1.0
  C  C643  1  0.915600  0.209970  0.423930  1.0
  C  C644  1  0.584400  0.576070  0.790030  1.0
  C  C645  1  0.020900  0.780980  0.542660  1.0
  C  C646  1  0.479100  0.457340  0.219020  1.0
  C  C647  1  0.979100  0.219020  0.457340  1.0
  C  C648  1  0.520900  0.542660  0.780980  1.0
  C  C649  1  0.991800  0.809400  0.623340  1.0
  C  C650  1  0.508200  0.376660  0.190600  1.0
  C  C651  1  0.008200  0.190600  0.376660  1.0
  C  C652  1  0.491800  0.623340  0.809400  1.0
  C  C653  1  0.255100  0.823430  0.243230  1.0
  C  C654  1  0.244900  0.756770  0.176570  1.0
  C  C655  1  0.744900  0.176570  0.756770  1.0
  C  C656  1  0.755100  0.243230  0.823430  1.0
  C  C657  1  0.225200  0.861880  0.223280  1.0
  C  C658  1  0.274800  0.776720  0.138120  1.0
  C  C659  1  0.774800  0.138120  0.776720  1.0
  C  C660  1  0.725200  0.223280  0.861880  1.0
  C  C661  1  0.194800  0.882010  0.260470  1.0
  C  C662  1  0.305200  0.739530  0.117990  1.0
  C  C663  1  0.805200  0.117990  0.739530  1.0
  C  C664  1  0.694800  0.260470  0.882010  1.0
  C  C665  1  0.329500  0.803020  0.359100  1.0
  C  C666  1  0.170500  0.640900  0.196980  1.0
  C  C667  1  0.670500  0.196980  0.640900  1.0
  C  C668  1  0.829500  0.359100  0.803020  1.0
  C  C669  1  0.327400  0.838800  0.378400  1.0
  C  C670  1  0.172600  0.621600  0.161200  1.0
  C  C671  1  0.672600  0.161200  0.621600  1.0
  C  C672  1  0.827400  0.378400  0.838800  1.0
  C  C673  1  0.278400  0.864200  0.383700  1.0
  C  C674  1  0.221600  0.616300  0.135800  1.0
  C  C675  1  0.721600  0.135800  0.616300  1.0
  C  C676  1  0.778400  0.383700  0.864200  1.0
  C  C677  1  0.213900  0.721650  0.383650  1.0
  C  C678  1  0.286100  0.616350  0.278350  1.0
  C  C679  1  0.786100  0.278350  0.616350  1.0
  C  C680  1  0.713900  0.383650  0.721650  1.0
  C  C681  1  0.169100  0.725160  0.414960  1.0
  C  C682  1  0.330900  0.585040  0.274840  1.0
  C  C683  1  0.830900  0.274840  0.585040  1.0
  C  C684  1  0.669100  0.414960  0.725160  1.0
  C  C685  1  0.152200  0.773150  0.415350  1.0
  C  C686  1  0.347800  0.584650  0.226850  1.0
  C  C687  1  0.847800  0.226850  0.584650  1.0
  C  C688  1  0.652200  0.415350  0.773150  1.0
  C  C689  1  0.166500  0.866950  0.430990  1.0
  C  C690  1  0.333500  0.569010  0.133050  1.0
  C  C691  1  0.833500  0.133050  0.569010  1.0
  C  C692  1  0.666500  0.430990  0.866950  1.0
  C  C693  1  0.116500  0.879530  0.363370  1.0
  C  C694  1  0.383500  0.636630  0.120470  1.0
  C  C695  1  0.883500  0.120470  0.636630  1.0
  C  C696  1  0.616500  0.363370  0.879530  1.0
  C  C697  1  0.182800  0.928980  0.347380  1.0
  C  C698  1  0.317200  0.652620  0.071020  1.0
  C  C699  1  0.817200  0.071020  0.652620  1.0
  C  C700  1  0.682800  0.347380  0.928980  1.0
  C  C701  1  0.076100  0.981560  0.814160  1.0
  C  C702  1  0.423900  0.185840  0.018440  1.0
  C  C703  1  0.923900  0.018440  0.185840  1.0
  C  C704  1  0.576100  0.814160  0.981560  1.0
  C  C705  1  0.107800  0.993040  0.771240  1.0
  C  C706  1  0.392200  0.228760  0.006960  1.0
  C  C707  1  0.892200  0.006960  0.228760  1.0
  C  C708  1  0.607800  0.771240  0.993040  1.0
  C  C709  1  0.090300  0.981830  0.739430  1.0
  C  C710  1  0.409700  0.260570  0.018170  1.0
  C  C711  1  0.909700  0.018170  0.260570  1.0
  C  C712  1  0.590300  0.739430  0.981830  1.0
  C  C713  1  0.906500  0.002850  0.846250  1.0
  C  C714  1  0.593500  0.153750  0.997150  1.0
  C  C715  1  0.093500  0.997150  0.153750  1.0
  C  C716  1  0.406500  0.846250  0.002850  1.0
  C  C717  1  0.876600  0.019630  0.816430  1.0
  C  C718  1  0.623400  0.183570  0.980370  1.0
  C  C719  1  0.123400  0.980370  0.183570  1.0
  C  C720  1  0.376600  0.816430  0.019630  1.0
  C  C721  1  0.905500  0.001190  0.776350  1.0
  C  C722  1  0.594500  0.223650  0.998810  1.0
  C  C723  1  0.094500  0.998810  0.223650  1.0
  C  C724  1  0.405500  0.776350  0.001190  1.0
  C  C725  1  0.000600  0.856600  0.873600  1.0
  C  C726  1  0.499400  0.126400  0.143400  1.0
  C  C727  1  0.999400  0.143400  0.126400  1.0
  C  C728  1  0.500600  0.873600  0.856600  1.0
  C  C729  1  0.005200  0.820600  0.852200  1.0
  C  C730  1  0.494800  0.147800  0.179400  1.0
  C  C731  1  0.994800  0.179400  0.147800  1.0
  C  C732  1  0.505200  0.852200  0.820600  1.0
  C  C733  1  0.010000  0.842490  0.806090  1.0
  C  C734  1  0.490000  0.193910  0.157510  1.0
  C  C735  1  0.990000  0.157510  0.193910  1.0
  C  C736  1  0.510000  0.806090  0.842490  1.0
  C  C737  1  0.970800  0.915090  0.722030  1.0
  C  C738  1  0.529200  0.277970  0.084910  1.0
  C  C739  1  0.029200  0.084910  0.277970  1.0
  C  C740  1  0.470800  0.722030  0.915090  1.0
  C  C741  1  0.065100  0.905400  0.704980  1.0
  C  C742  1  0.434900  0.295020  0.094600  1.0
  C  C743  1  0.934900  0.094600  0.295020  1.0
  C  C744  1  0.565100  0.704980  0.905400  1.0
  C  C745  1  0.995800  0.006150  0.307870  1.0
  C  C746  1  0.504200  0.692130  0.993850  1.0
  C  C747  1  0.004200  0.993850  0.692130  1.0
  C  C748  1  0.495800  0.307870  0.006150  1.0
  C  C749  1  0.000800  0.902290  0.517910  1.0
  C  C750  1  0.499200  0.482090  0.097710  1.0
  C  C751  1  0.999200  0.097710  0.482090  1.0
  C  C752  1  0.500800  0.517910  0.902290  1.0
  C  C753  1  0.994100  0.903040  0.471220  1.0
  C  C754  1  0.505900  0.528780  0.096960  1.0
  C  C755  1  0.005900  0.096960  0.528780  1.0
  C  C756  1  0.494100  0.471220  0.903040  1.0
  Co  Co757  1  0.176400  0.836521  0.538481  1.0
  Co  Co758  1  0.323600  0.461519  0.163479  1.0
  Co  Co759  1  0.823600  0.163479  0.461519  1.0
  Co  Co760  1  0.676400  0.538481  0.836521  1.0
  Co  Co761  1  0.002640  0.899118  0.363418  1.0
  Co  Co762  1  0.497360  0.636582  0.100882  1.0
  Co  Co763  1  0.997360  0.100882  0.636582  1.0
  Co  Co764  1  0.502640  0.363418  0.899118  1.0
  Co  Co765  1  0.903350  0.880122  0.680482  1.0
  Co  Co766  1  0.596650  0.319518  0.119878  1.0
  Co  Co767  1  0.096650  0.119878  0.319518  1.0
  Co  Co768  1  0.403350  0.680482  0.880122  1.0
  F  F769  1  0.750000  0.380600  0.619400  1
  F  F770  1  0.250000  0.619400  0.380600  1
  F  F771  1  0.750000  0.461100  0.538900  1
  F  F772  1  0.250000  0.538900  0.461100  1
  F  F773  1  0.801400  0.403300  0.556700  1.0
  F  F774  1  0.698600  0.443300  0.596700  1.0
  F  F775  1  0.198600  0.596700  0.443300  1.0
  F  F776  1  0.301400  0.556700  0.403300  1.0
  F  F777  1  0.740300  0.390680  0.551760  1.0
  F  F778  1  0.759700  0.448240  0.609320  1.0
  F  F779  1  0.259700  0.609320  0.448240  1.0
  F  F780  1  0.240300  0.551760  0.390680  1.0
  F  F781  1  0.738800  0.033300  0.906500  1.0
  F  F782  1  0.761200  0.093500  0.966700  1.0
  F  F783  1  0.261200  0.966700  0.093500  1.0
  F  F784  1  0.238800  0.906500  0.033300  1.0
  F  F785  1  0.704700  0.108500  0.909700  1.0
  F  F786  1  0.795300  0.090300  0.891500  1.0
  F  F787  1  0.295300  0.891500  0.090300  1.0
  F  F788  1  0.204700  0.909700  0.108500  1.0
  F  F789  1  0.703800  0.056400  0.974200  1.0
  F  F790  1  0.796200  0.025800  0.943600  1.0
  F  F791  1  0.296200  0.943600  0.025800  1.0
  F  F792  1  0.203800  0.974200  0.056400  1.0
  Fe  Fe793  1  0.828850  0.884300  0.400620  1.0
  Fe  Fe794  1  0.671150  0.599380  0.115700  1.0
  Fe  Fe795  1  0.171150  0.115700  0.599380  1.0
  Fe  Fe796  1  0.328850  0.400620  0.884300  1.0
  Fe  Fe797  1  0.183820  0.864001  0.366401  1.0
  Fe  Fe798  1  0.316180  0.633599  0.135999  1.0
  Fe  Fe799  1  0.816180  0.135999  0.633599  1.0
  Fe  Fe800  1  0.683820  0.366401  0.864001  1.0
  Fe  Fe801  1  0.008540  0.939330  0.743170  1.0
  Fe  Fe802  1  0.491460  0.256830  0.060670  1.0
  Fe  Fe803  1  0.991460  0.060670  0.256830  1.0
  Fe  Fe804  1  0.508540  0.743170  0.939330  1.0
  Fe  Fe805  1  0.036760  0.754900  0.601620  1.0
  Fe  Fe806  1  0.463240  0.398380  0.245100  1.0
  Fe  Fe807  1  0.963240  0.245100  0.398380  1.0
  Fe  Fe808  1  0.536760  0.601620  0.754900  1.0
  H  H809  1  0.818500  0.748400  0.426400  1.0
  H  H810  1  0.681500  0.573600  0.251600  1.0
  H  H811  1  0.181500  0.251600  0.573600  1.0
  H  H812  1  0.318500  0.426400  0.748400  1.0
  H  H813  1  0.290800  0.755900  0.316900  1.0
  H  H814  1  0.209200  0.683100  0.244100  1.0
  H  H815  1  0.709200  0.244100  0.683100  1.0
  H  H816  1  0.790800  0.316900  0.755900  1.0
  H  H817  1  0.992600  0.948100  0.878100  1.0
  H  H818  1  0.507400  0.121900  0.051900  1.0
  H  H819  1  0.007400  0.051900  0.121900  1.0
  H  H820  1  0.492600  0.878100  0.948100  1.0
  H  H821  1  0.051500  0.617200  0.673000  1.0
  H  H822  1  0.448500  0.327000  0.382800  1.0
  H  H823  1  0.948500  0.382800  0.327000  1.0
  H  H824  1  0.551500  0.673000  0.617200  1.0
  H  H825  1  0.011700  0.790900  0.443900  1.0
  H  H826  1  0.488300  0.556100  0.209100  1.0
  H  H827  1  0.988300  0.209100  0.556100  1.0
  H  H828  1  0.511700  0.443900  0.790900  1.0
  H  H829  1  0.809000  0.974200  0.717600  1.0
  H  H830  1  0.691000  0.282400  0.025800  1.0
  H  H831  1  0.191000  0.025800  0.282400  1.0
  H  H832  1  0.309000  0.717600  0.974200  1.0
  H  H833  1  0.300500  0.841000  0.492800  1.0
  H  H834  1  0.199500  0.507200  0.159000  1.0
  H  H835  1  0.699500  0.159000  0.507200  1.0
  H  H836  1  0.800500  0.492800  0.841000  1.0
  H  H837  1  0.836900  0.816300  0.659500  1.0
  H  H838  1  0.663100  0.340500  0.183700  1.0
  H  H839  1  0.163100  0.183700  0.340500  1.0
  H  H840  1  0.336900  0.659500  0.816300  1.0
  H  H841  1  0.156000  0.826000  0.659800  1.0
  H  H842  1  0.344000  0.340200  0.174000  1.0
  H  H843  1  0.844000  0.174000  0.340200  1.0
  H  H844  1  0.656000  0.659800  0.826000  1.0
  H  H845  1  0.014700  0.945300  0.251500  1.0
  H  H846  1  0.485300  0.748500  0.054700  1.0
  H  H847  1  0.985300  0.054700  0.748500  1.0
  H  H848  1  0.514700  0.251500  0.945300  1.0
  H  H849  1  0.007500  0.926500  0.186900  1.0
  H  H850  1  0.492500  0.813100  0.073500  1.0
  H  H851  1  0.992500  0.073500  0.813100  1.0
  H  H852  1  0.507500  0.186900  0.926500  1.0
  H  H853  1  0.995000  0.853900  0.193900  1.0
  H  H854  1  0.505000  0.806100  0.146100  1.0
  H  H855  1  0.005000  0.146100  0.806100  1.0
  H  H856  1  0.495000  0.193900  0.853900  1.0
  H  H857  1  0.994300  0.798600  0.265000  1.0
  H  H858  1  0.505700  0.735000  0.201400  1.0
  H  H859  1  0.005700  0.201400  0.735000  1.0
  H  H860  1  0.494300  0.265000  0.798600  1.0
  H  H861  1  0.998000  0.742900  0.345500  1.0
  H  H862  1  0.502000  0.654500  0.257100  1.0
  H  H863  1  0.002000  0.257100  0.654500  1.0
  H  H864  1  0.498000  0.345500  0.742900  1.0
  H  H865  1  0.045900  0.714300  0.479500  1.0
  H  H866  1  0.454100  0.520500  0.285700  1.0
  H  H867  1  0.954100  0.285700  0.520500  1.0
  H  H868  1  0.545900  0.479500  0.714300  1.0
  H  H869  1  0.047200  0.641800  0.533600  1.0
  H  H870  1  0.452800  0.466400  0.358200  1.0
  H  H871  1  0.952800  0.358200  0.466400  1.0
  H  H872  1  0.547200  0.533600  0.641800  1.0
  H  H873  1  0.966100  0.610500  0.468900  1.0
  H  H874  1  0.533900  0.531100  0.389500  1.0
  H  H875  1  0.033900  0.389500  0.531100  1.0
  H  H876  1  0.466100  0.468900  0.610500  1.0
  H  H877  1  0.967100  0.682000  0.414400  1.0
  H  H878  1  0.532900  0.585600  0.318000  1.0
  H  H879  1  0.032900  0.318000  0.585600  1.0
  H  H880  1  0.467100  0.414400  0.682000  1.0
  H  H881  1  0.104400  0.555200  0.498800  1.0
  H  H882  1  0.395600  0.501200  0.444800  1.0
  H  H883  1  0.895600  0.444800  0.501200  1.0
  H  H884  1  0.604400  0.498800  0.555200  1.0
  H  H885  1  0.169400  0.516400  0.532400  1.0
  H  H886  1  0.330600  0.467600  0.483600  1.0
  H  H887  1  0.830600  0.483600  0.467600  1.0
  H  H888  1  0.669400  0.532400  0.516400  1.0
  H  H889  1  0.077300  0.500600  0.660000  1.0
  H  H890  1  0.422700  0.340000  0.499400  1.0
  H  H891  1  0.922700  0.499400  0.340000  1.0
  H  H892  1  0.577300  0.660000  0.500600  1.0
  H  H893  1  0.010300  0.543200  0.628800  1.0
  H  H894  1  0.489700  0.371200  0.456800  1.0
  H  H895  1  0.989700  0.456800  0.371200  1.0
  H  H896  1  0.510300  0.628800  0.543200  1.0
  H  H897  1  0.912900  0.610900  0.559500  1.0
  H  H898  1  0.587100  0.440500  0.389100  1.0
  H  H899  1  0.087100  0.389100  0.440500  1.0
  H  H900  1  0.412900  0.559500  0.610900  1.0
  H  H901  1  0.013200  0.484300  0.550900  1.0
  H  H902  1  0.486800  0.449100  0.515700  1.0
  H  H903  1  0.986800  0.515700  0.449100  1.0
  H  H904  1  0.513200  0.550900  0.484300  1.0
  H  H905  1  0.948200  0.450300  0.570500  1.0
  H  H906  1  0.551800  0.429500  0.549700  1.0
  H  H907  1  0.051800  0.549700  0.429500  1.0
  H  H908  1  0.448200  0.570500  0.450300  1.0
  H  H909  1  0.866800  0.492600  0.587000  1.0
  H  H910  1  0.633200  0.413000  0.507400  1.0
  H  H911  1  0.133200  0.507400  0.413000  1.0
  H  H912  1  0.366800  0.587000  0.492600  1.0
  H  H913  1  0.850400  0.575000  0.577400  1.0
  H  H914  1  0.649600  0.422600  0.425000  1.0
  H  H915  1  0.149600  0.425000  0.422600  1.0
  H  H916  1  0.350400  0.577400  0.575000  1.0
  H  H917  1  0.195900  0.456700  0.675100  1.0
  H  H918  1  0.304100  0.324900  0.543300  1.0
  H  H919  1  0.804100  0.543300  0.324900  1.0
  H  H920  1  0.695900  0.675100  0.456700  1.0
  H  H921  1  0.141600  0.451700  0.683100  1.0
  H  H922  1  0.358400  0.316900  0.548300  1.0
  H  H923  1  0.858400  0.548300  0.316900  1.0
  H  H924  1  0.641600  0.683100  0.451700  1.0
  H  H925  1  0.150100  0.501900  0.678700  1.0
  H  H926  1  0.349900  0.321300  0.498100  1.0
  H  H927  1  0.849900  0.498100  0.321300  1.0
  H  H928  1  0.650100  0.678700  0.501900  1.0
  H  H929  1  0.948100  0.768600  0.709000  1.0
  H  H930  1  0.551900  0.291000  0.231400  1.0
  H  H931  1  0.051900  0.231400  0.291000  1.0
  H  H932  1  0.448100  0.709000  0.768600  1.0
  H  H933  1  0.935600  0.705200  0.772400  1.0
  H  H934  1  0.564400  0.227600  0.294800  1.0
  H  H935  1  0.064400  0.294800  0.227600  1.0
  H  H936  1  0.435600  0.772400  0.705200  1.0
  H  H937  1  0.869100  0.720300  0.840100  1.0
  H  H938  1  0.630900  0.159900  0.279700  1.0
  H  H939  1  0.130900  0.279700  0.159900  1.0
  H  H940  1  0.369100  0.840100  0.720300  1.0
  H  H941  1  0.819600  0.798400  0.838400  1.0
  H  H942  1  0.680400  0.161600  0.201600  1.0
  H  H943  1  0.180400  0.201600  0.161600  1.0
  H  H944  1  0.319600  0.838400  0.798400  1.0
  H  H945  1  0.766400  0.880200  0.829800  1.0
  H  H946  1  0.733600  0.170200  0.119800  1.0
  H  H947  1  0.233600  0.119800  0.170200  1.0
  H  H948  1  0.266400  0.829800  0.880200  1.0
  H  H949  1  0.763900  0.035700  0.751900  1.0
  H  H950  1  0.736100  0.248100  0.964300  1.0
  H  H951  1  0.236100  0.964300  0.248100  1.0
  H  H952  1  0.263900  0.751900  0.035700  1.0
  H  H953  1  0.700300  0.096200  0.778600  1.0
  H  H954  1  0.799700  0.221400  0.903800  1.0
  H  H955  1  0.299700  0.903800  0.221400  1.0
  H  H956  1  0.200300  0.778600  0.096200  1.0
  H  H957  1  0.625500  0.001800  0.868400  1.0
  H  H958  1  0.874500  0.131600  0.998200  1.0
  H  H959  1  0.374500  0.998200  0.131600  1.0
  H  H960  1  0.125500  0.868400  0.001800  1.0
  H  H961  1  0.691200  0.940700  0.842700  1.0
  H  H962  1  0.808800  0.157300  0.059300  1.0
  H  H963  1  0.308800  0.059300  0.157300  1.0
  H  H964  1  0.191200  0.842700  0.940700  1.0
  H  H965  1  0.598200  0.147200  0.759200  1.0
  H  H966  1  0.901800  0.240800  0.852800  1.0
  H  H967  1  0.401800  0.852800  0.240800  1.0
  H  H968  1  0.098200  0.759200  0.147200  1.0
  H  H969  1  0.595700  0.225700  0.729100  1.0
  H  H970  1  0.904300  0.270900  0.774300  1.0
  H  H971  1  0.404300  0.774300  0.270900  1.0
  H  H972  1  0.095700  0.729100  0.225700  1.0
  H  H973  1  0.631100  0.232400  0.842800  1.0
  H  H974  1  0.868900  0.157200  0.767600  1.0
  H  H975  1  0.368900  0.767600  0.157200  1.0
  H  H976  1  0.131100  0.842800  0.232400  1.0
  H  H977  1  0.633600  0.151100  0.874500  1.0
  H  H978  1  0.866400  0.125500  0.848900  1.0
  H  H979  1  0.366400  0.848900  0.125500  1.0
  H  H980  1  0.133600  0.874500  0.151100  1.0
  H  H981  1  0.618600  0.060300  0.927100  1.0
  H  H982  1  0.881400  0.072900  0.939700  1.0
  H  H983  1  0.381400  0.939700  0.072900  1.0
  H  H984  1  0.118600  0.927100  0.060300  1.0
  H  H985  1  0.555800  0.048700  0.996700  1.0
  H  H986  1  0.944200  0.003300  0.951300  1.0
  H  H987  1  0.444200  0.951300  0.003300  1.0
  H  H988  1  0.055800  0.996700  0.048700  1.0
  H  H989  1  0.474600  0.074200  0.989400  1.0
  H  H990  1  0.025400  0.010600  0.925800  1.0
  H  H991  1  0.525400  0.925800  0.010600  1.0
  H  H992  1  0.974600  0.989400  0.074200  1.0
  H  H993  1  0.455600  0.099300  0.915900  1.0
  H  H994  1  0.044400  0.084100  0.900700  1.0
  H  H995  1  0.544400  0.900700  0.084100  1.0
  H  H996  1  0.955600  0.915900  0.099300  1.0
  H  H997  1  0.522000  0.107400  0.844600  1.0
  H  H998  1  0.978000  0.155400  0.892600  1.0
  H  H999  1  0.478000  0.892600  0.155400  1.0
  H  H1000  1  0.022000  0.844600  0.107400  1.0
  H  H1001  1  0.624600  0.340900  0.765900  1.0
  H  H1002  1  0.875400  0.234100  0.659100  1.0
  H  H1003  1  0.375400  0.659100  0.234100  1.0
  H  H1004  1  0.124600  0.765900  0.340900  1.0
  H  H1005  1  0.660800  0.293600  0.787000  1.0
  H  H1006  1  0.839200  0.213000  0.706400  1.0
  H  H1007  1  0.339200  0.706400  0.213000  1.0
  H  H1008  1  0.160800  0.787000  0.293600  1.0
  H  H1009  1  0.604700  0.308900  0.815900  1.0
  H  H1010  1  0.895300  0.184100  0.691100  1.0
  H  H1011  1  0.395300  0.691100  0.184100  1.0
  H  H1012  1  0.104700  0.815900  0.308900  1.0
  H  H1013  1  0.068300  0.891500  0.586500  1.0
  H  H1014  1  0.431700  0.413500  0.108500  1.0
  H  H1015  1  0.931700  0.108500  0.413500  1.0
  H  H1016  1  0.568300  0.586500  0.891500  1.0
  H  H1017  1  0.029500  0.965500  0.601900  1.0
  H  H1018  1  0.470500  0.398100  0.034500  1.0
  H  H1019  1  0.970500  0.034500  0.398100  1.0
  H  H1020  1  0.529500  0.601900  0.965500  1.0
  H  H1021  1  0.076000  0.019300  0.587900  1.0
  H  H1022  1  0.424000  0.412100  0.980700  1.0
  H  H1023  1  0.924000  0.980700  0.412100  1.0
  H  H1024  1  0.576000  0.587900  0.019300  1.0
  H  H1025  1  0.161500  0.997900  0.554100  1.0
  H  H1026  1  0.338500  0.445900  0.002100  1.0
  H  H1027  1  0.838500  0.002100  0.445900  1.0
  H  H1028  1  0.661500  0.554100  0.997900  1.0
  H  H1029  1  0.249000  0.972200  0.509600  1.0
  H  H1030  1  0.251000  0.490400  0.027800  1.0
  H  H1031  1  0.751000  0.027800  0.490400  1.0
  H  H1032  1  0.749000  0.509600  0.972200  1.0
  H  H1033  1  0.375600  0.846300  0.455500  1.0
  H  H1034  1  0.124400  0.544500  0.153700  1.0
  H  H1035  1  0.624400  0.153700  0.544500  1.0
  H  H1036  1  0.875600  0.455500  0.846300  1.0
  H  H1037  1  0.452000  0.859300  0.415500  1.0
  H  H1038  1  0.048000  0.584500  0.140700  1.0
  H  H1039  1  0.548000  0.140700  0.584500  1.0
  H  H1040  1  0.952000  0.415500  0.859300  1.0
  H  H1041  1  0.405100  0.992300  0.435300  1.0
  H  H1042  1  0.094900  0.564700  0.007700  1.0
  H  H1043  1  0.594900  0.007700  0.564700  1.0
  H  H1044  1  0.905100  0.435300  0.992300  1.0
  H  H1045  1  0.326100  0.981100  0.472100  1.0
  H  H1046  1  0.173900  0.527900  0.018900  1.0
  H  H1047  1  0.673900  0.018900  0.527900  1.0
  H  H1048  1  0.826100  0.472100  0.981100  1.0
  H  H1049  1  0.515200  0.867100  0.454900  1.0
  H  H1050  1  0.984800  0.545100  0.132900  1.0
  H  H1051  1  0.484800  0.132900  0.545100  1.0
  H  H1052  1  0.015200  0.454900  0.867100  1.0
  H  H1053  1  0.588300  0.807900  0.445300  1.0
  H  H1054  1  0.911700  0.554700  0.192100  1.0
  H  H1055  1  0.411700  0.192100  0.554700  1.0
  H  H1056  1  0.088300  0.445300  0.807900  1.0
  H  H1057  1  0.642900  0.803100  0.368900  1.0
  H  H1058  1  0.857100  0.631100  0.196900  1.0
  H  H1059  1  0.357100  0.196900  0.631100  1.0
  H  H1060  1  0.142900  0.368900  0.803100  1.0
  H  H1061  1  0.626100  0.870200  0.309200  1.0
  H  H1062  1  0.873900  0.690800  0.129800  1.0
  H  H1063  1  0.373900  0.129800  0.690800  1.0
  H  H1064  1  0.126100  0.309200  0.870200  1.0
  H  H1065  1  0.554000  0.928500  0.315700  1.0
  H  H1066  1  0.946000  0.684300  0.071500  1.0
  H  H1067  1  0.446000  0.071500  0.684300  1.0
  H  H1068  1  0.054000  0.315700  0.928500  1.0
  H  H1069  1  0.541000  0.986300  0.391900  1.0
  H  H1070  1  0.959000  0.608100  0.013700  1.0
  H  H1071  1  0.459000  0.013700  0.608100  1.0
  H  H1072  1  0.041000  0.391900  0.986300  1.0
  H  H1073  1  0.547700  0.061900  0.348700  1.0
  H  H1074  1  0.952300  0.651300  0.938100  1.0
  H  H1075  1  0.452300  0.938100  0.651300  1.0
  H  H1076  1  0.047700  0.348700  0.061900  1.0
  H  H1077  1  0.436900  0.073700  0.292500  1.0
  H  H1078  1  0.063100  0.707500  0.926300  1.0
  H  H1079  1  0.563100  0.926300  0.707500  1.0
  H  H1080  1  0.936900  0.292500  0.073700  1.0
  H  H1081  1  0.430100  0.998200  0.335800  1.0
  H  H1082  1  0.069900  0.664200  0.001800  1.0
  H  H1083  1  0.569900  0.001800  0.664200  1.0
  H  H1084  1  0.930100  0.335800  0.998200  1.0
  H  H1085  1  0.529800  0.169800  0.272000  1.0
  H  H1086  1  0.970200  0.728000  0.830200  1.0
  H  H1087  1  0.470200  0.830200  0.728000  1.0
  H  H1088  1  0.029800  0.272000  0.169800  1.0
  H  H1089  1  0.564600  0.117400  0.275800  1.0
  H  H1090  1  0.935400  0.724200  0.882600  1.0
  H  H1091  1  0.435400  0.882600  0.724200  1.0
  H  H1092  1  0.064600  0.275800  0.117400  1.0
  H  H1093  1  0.534100  0.136800  0.322600  1.0
  H  H1094  1  0.965900  0.677400  0.863200  1.0
  H  H1095  1  0.465900  0.863200  0.677400  1.0
  H  H1096  1  0.034100  0.322600  0.136800  1.0
  H  H1097  1  0.938500  0.976967  0.643633  1.0
  H  H1098  1  0.561500  0.356367  0.023033  1.0
  H  H1099  1  0.061500  0.023033  0.356367  1.0
  H  H1100  1  0.438500  0.643633  0.976967  1.0
  H  H1101  1  0.939300  0.039900  0.578700  1.0
  H  H1102  1  0.560700  0.421300  0.960100  1.0
  H  H1103  1  0.060700  0.960100  0.421300  1.0
  H  H1104  1  0.439300  0.578700  0.039900  1.0
  H  H1105  1  0.896400  0.045900  0.524300  1.0
  H  H1106  1  0.603600  0.475700  0.954100  1.0
  H  H1107  1  0.103600  0.954100  0.475700  1.0
  H  H1108  1  0.396400  0.524300  0.045900  1.0
  H  H1109  1  0.862100  0.985900  0.531300  1.0
  H  H1110  1  0.637900  0.468700  0.014100  1.0
  H  H1111  1  0.137900  0.014100  0.468700  1.0
  H  H1112  1  0.362100  0.531300  0.985900  1.0
  H  H1113  1  0.829400  0.914200  0.544000  1.0
  H  H1114  1  0.670600  0.456000  0.085800  1.0
  H  H1115  1  0.170600  0.085800  0.456000  1.0
  H  H1116  1  0.329400  0.544000  0.914200  1.0
  H  H1117  1  0.824100  0.763300  0.625700  1.0
  H  H1118  1  0.675900  0.374300  0.236700  1.0
  H  H1119  1  0.175900  0.236700  0.374300  1.0
  H  H1120  1  0.324100  0.625700  0.763300  1.0
  H  H1121  1  0.777600  0.724700  0.610300  1.0
  H  H1122  1  0.722400  0.389700  0.275300  1.0
  H  H1123  1  0.222400  0.275300  0.389700  1.0
  H  H1124  1  0.277600  0.610300  0.724700  1.0
  H  H1125  1  0.778500  0.717000  0.508000  1.0
  H  H1126  1  0.721500  0.492000  0.283000  1.0
  H  H1127  1  0.221500  0.283000  0.492000  1.0
  H  H1128  1  0.278500  0.508000  0.717000  1.0
  H  H1129  1  0.800100  0.637800  0.502400  1.0
  H  H1130  1  0.699900  0.497600  0.362200  1.0
  H  H1131  1  0.199900  0.362200  0.497600  1.0
  H  H1132  1  0.300100  0.502400  0.637800  1.0
  H  H1133  1  0.695200  0.616200  0.622600  1.0
  H  H1134  1  0.804800  0.377400  0.383800  1.0
  H  H1135  1  0.304800  0.383800  0.377400  1.0
  H  H1136  1  0.195200  0.622600  0.616200  1.0
  H  H1137  1  0.670600  0.693500  0.625900  1.0
  H  H1138  1  0.829400  0.374100  0.306500  1.0
  H  H1139  1  0.329400  0.306500  0.374100  1.0
  H  H1140  1  0.170600  0.625900  0.693500  1.0
  H  H1141  1  0.648400  0.821900  0.619100  1.0
  H  H1142  1  0.851600  0.380900  0.178100  1.0
  H  H1143  1  0.351600  0.178100  0.380900  1.0
  H  H1144  1  0.148400  0.619100  0.821900  1.0
  H  H1145  1  0.565600  0.857800  0.625200  1.0
  H  H1146  1  0.934400  0.374800  0.142200  1.0
  H  H1147  1  0.434400  0.142200  0.374800  1.0
  H  H1148  1  0.065600  0.625200  0.857800  1.0
  H  H1149  1  0.518900  0.847200  0.581600  1.0
  H  H1150  1  0.981100  0.418400  0.152800  1.0
  H  H1151  1  0.481100  0.152800  0.418400  1.0
  H  H1152  1  0.018900  0.581600  0.847200  1.0
  H  H1153  1  0.561200  0.790200  0.533200  1.0
  H  H1154  1  0.938800  0.466800  0.209800  1.0
  H  H1155  1  0.438800  0.209800  0.466800  1.0
  H  H1156  1  0.061200  0.533200  0.790200  1.0
  H  H1157  1  0.642100  0.752200  0.528800  1.0
  H  H1158  1  0.857900  0.471200  0.247800  1.0
  H  H1159  1  0.357900  0.247800  0.471200  1.0
  H  H1160  1  0.142100  0.528800  0.752200  1.0
  H  H1161  1  0.792000  0.522200  0.534400  1.0
  H  H1162  1  0.708000  0.465600  0.477800  1.0
  H  H1163  1  0.208000  0.477800  0.465600  1.0
  H  H1164  1  0.292000  0.534400  0.522200  1.0
  H  H1165  1  0.812900  0.568300  0.512500  1.0
  H  H1166  1  0.687100  0.487500  0.431700  1.0
  H  H1167  1  0.187100  0.431700  0.487500  1.0
  H  H1168  1  0.312900  0.512500  0.568300  1.0
  H  H1169  1  0.760800  0.569100  0.506900  1.0
  H  H1170  1  0.739200  0.493100  0.430900  1.0
  H  H1171  1  0.239200  0.430900  0.493100  1.0
  H  H1172  1  0.260800  0.506900  0.569100  1.0
  H  H1173  1  0.713900  0.846400  0.531600  1.0
  H  H1174  1  0.786100  0.468400  0.153600  1.0
  H  H1175  1  0.286100  0.153600  0.468400  1.0
  H  H1176  1  0.213900  0.531600  0.846400  1.0
  H  H1177  1  0.764200  0.883400  0.545200  1.0
  H  H1178  1  0.735800  0.454800  0.116600  1.0
  H  H1179  1  0.235800  0.116600  0.454800  1.0
  H  H1180  1  0.264200  0.545200  0.883400  1.0
  H  H1181  1  0.235200  0.784400  0.452800  1.0
  H  H1182  1  0.264800  0.547200  0.215600  1.0
  H  H1183  1  0.764800  0.215600  0.547200  1.0
  H  H1184  1  0.735200  0.452800  0.784400  1.0
  H  H1185  1  0.277200  0.707700  0.443100  1.0
  H  H1186  1  0.222800  0.556900  0.292300  1.0
  H  H1187  1  0.722800  0.292300  0.556900  1.0
  H  H1188  1  0.777200  0.443100  0.707700  1.0
  H  H1189  1  0.293600  0.648900  0.508500  1.0
  H  H1190  1  0.206400  0.491500  0.351100  1.0
  H  H1191  1  0.706400  0.351100  0.491500  1.0
  H  H1192  1  0.793600  0.508500  0.648900  1.0
  H  H1193  1  0.265800  0.667300  0.583100  1.0
  H  H1194  1  0.234200  0.416900  0.332700  1.0
  H  H1195  1  0.734200  0.332700  0.416900  1.0
  H  H1196  1  0.765800  0.583100  0.667300  1.0
  H  H1197  1  0.226600  0.693800  0.660600  1.0
  H  H1198  1  0.273400  0.339400  0.306200  1.0
  H  H1199  1  0.773400  0.306200  0.339400  1.0
  H  H1200  1  0.726600  0.660600  0.693800  1.0
  H  H1201  1  0.116700  0.806400  0.740000  1.0
  H  H1202  1  0.383300  0.260000  0.193600  1.0
  H  H1203  1  0.883300  0.193600  0.260000  1.0
  H  H1204  1  0.616700  0.740000  0.806400  1.0
  H  H1205  1  0.105900  0.800000  0.819200  1.0
  H  H1206  1  0.394100  0.180800  0.200000  1.0
  H  H1207  1  0.894100  0.200000  0.180800  1.0
  H  H1208  1  0.605900  0.819200  0.800000  1.0
  H  H1209  1  0.219600  0.683900  0.820100  1.0
  H  H1210  1  0.280400  0.179900  0.316100  1.0
  H  H1211  1  0.780400  0.316100  0.179900  1.0
  H  H1212  1  0.719600  0.820100  0.683900  1.0
  H  H1213  1  0.230100  0.692700  0.739500  1.0
  H  H1214  1  0.269900  0.260500  0.307300  1.0
  H  H1215  1  0.769900  0.307300  0.260500  1.0
  H  H1216  1  0.730100  0.739500  0.692700  1.0
  H  H1217  1  0.178600  0.829600  0.838800  1.0
  H  H1218  1  0.321400  0.161200  0.170400  1.0
  H  H1219  1  0.821400  0.170400  0.161200  1.0
  H  H1220  1  0.678600  0.838800  0.829600  1.0
  H  H1221  1  0.132700  0.897700  0.865900  1.0
  H  H1222  1  0.367300  0.134100  0.102300  1.0
  H  H1223  1  0.867300  0.102300  0.134100  1.0
  H  H1224  1  0.632700  0.865900  0.897700  1.0
  H  H1225  1  0.051000  0.824700  0.979100  1.0
  H  H1226  1  0.449000  0.020900  0.175300  1.0
  H  H1227  1  0.949000  0.175300  0.020900  1.0
  H  H1228  1  0.551000  0.979100  0.824700  1.0
  H  H1229  1  0.093300  0.756200  0.951600  1.0
  H  H1230  1  0.406700  0.048400  0.243800  1.0
  H  H1231  1  0.906700  0.243800  0.048400  1.0
  H  H1232  1  0.593300  0.951600  0.756200  1.0
  H  H1233  1  0.220800  0.731400  0.924200  1.0
  H  H1234  1  0.279200  0.075800  0.268600  1.0
  H  H1235  1  0.779200  0.268600  0.075800  1.0
  H  H1236  1  0.720800  0.924200  0.731400  1.0
  H  H1237  1  0.251000  0.663900  0.976900  1.0
  H  H1238  1  0.249000  0.023100  0.336100  1.0
  H  H1239  1  0.749000  0.336100  0.023100  1.0
  H  H1240  1  0.751000  0.976900  0.663900  1.0
  H  H1241  1  0.231400  0.593900  0.988700  1.0
  H  H1242  1  0.268600  0.011300  0.406100  1.0
  H  H1243  1  0.768600  0.406100  0.011300  1.0
  H  H1244  1  0.731400  0.988700  0.593900  1.0
  H  H1245  1  0.186200  0.591000  0.941200  1.0
  H  H1246  1  0.313800  0.058800  0.409000  1.0
  H  H1247  1  0.813800  0.409000  0.058800  1.0
  H  H1248  1  0.686200  0.941200  0.591000  1.0
  H  H1249  1  0.153900  0.657800  0.890800  1.0
  H  H1250  1  0.346100  0.109200  0.342200  1.0
  H  H1251  1  0.846100  0.342200  0.109200  1.0
  H  H1252  1  0.653900  0.890800  0.657800  1.0
  H  H1253  1  0.010600  0.940800  0.986400  1.0
  H  H1254  1  0.489400  0.013600  0.059200  1.0
  H  H1255  1  0.989400  0.059200  0.013600  1.0
  H  H1256  1  0.510600  0.986400  0.940800  1.0
  H  H1257  1  0.035100  0.886800  0.006600  1.0
  H  H1258  1  0.464900  0.993400  0.113200  1.0
  H  H1259  1  0.964900  0.113200  0.993400  1.0
  H  H1260  1  0.535100  0.006600  0.886800  1.0
  H  H1261  1  0.000500  0.899700  0.971700  1.0
  H  H1262  1  0.499500  0.028300  0.100300  1.0
  H  H1263  1  0.999500  0.100300  0.028300  1.0
  H  H1264  1  0.500500  0.971700  0.899700  1.0
  H  H1265  1  0.715500  0.781900  0.446100  1.0
  H  H1266  1  0.784500  0.553900  0.218100  1.0
  H  H1267  1  0.284500  0.218100  0.553900  1.0
  H  H1268  1  0.215500  0.446100  0.781900  1.0
  H  H1269  1  0.655900  0.860600  0.450200  1.0
  H  H1270  1  0.844100  0.549800  0.139400  1.0
  H  H1271  1  0.344100  0.139400  0.549800  1.0
  H  H1272  1  0.155900  0.450200  0.860600  1.0
  H  H1273  1  0.707500  0.918100  0.428300  1.0
  H  H1274  1  0.792500  0.571700  0.081900  1.0
  H  H1275  1  0.292500  0.081900  0.571700  1.0
  H  H1276  1  0.207500  0.428300  0.918100  1.0
  H  H1277  1  0.869500  0.744500  0.333300  1.0
  H  H1278  1  0.630500  0.666700  0.255500  1.0
  H  H1279  1  0.130500  0.255500  0.666700  1.0
  H  H1280  1  0.369500  0.333300  0.744500  1.0
  H  H1281  1  0.900200  0.805300  0.261700  1.0
  H  H1282  1  0.599800  0.738300  0.194700  1.0
  H  H1283  1  0.099800  0.194700  0.738300  1.0
  H  H1284  1  0.400200  0.261700  0.805300  1.0
  H  H1285  1  0.884300  0.878400  0.290000  1.0
  H  H1286  1  0.615700  0.710000  0.121600  1.0
  H  H1287  1  0.115700  0.121600  0.710000  1.0
  H  H1288  1  0.384300  0.290000  0.878400  1.0
  H  H1289  1  0.874100  0.723000  0.490400  1.0
  H  H1290  1  0.625900  0.509600  0.277000  1.0
  H  H1291  1  0.125900  0.277000  0.509600  1.0
  H  H1292  1  0.374100  0.490400  0.723000  1.0
  H  H1293  1  0.913800  0.762800  0.520600  1.0
  H  H1294  1  0.586200  0.479400  0.237200  1.0
  H  H1295  1  0.086200  0.237200  0.479400  1.0
  H  H1296  1  0.413800  0.520600  0.762800  1.0
  H  H1297  1  0.893800  0.849400  0.479200  1.0
  H  H1298  1  0.606200  0.520800  0.150600  1.0
  H  H1299  1  0.106200  0.150600  0.520800  1.0
  H  H1300  1  0.393800  0.479200  0.849400  1.0
  H  H1301  1  0.072600  0.642500  0.743500  1.0
  H  H1302  1  0.427400  0.256500  0.357500  1.0
  H  H1303  1  0.927400  0.357500  0.256500  1.0
  H  H1304  1  0.572600  0.743500  0.642500  1.0
  H  H1305  1  0.080000  0.714900  0.758100  1.0
  H  H1306  1  0.420000  0.241900  0.285100  1.0
  H  H1307  1  0.920000  0.285100  0.241900  1.0
  H  H1308  1  0.580000  0.758100  0.714900  1.0
  H  H1309  1  0.063400  0.778200  0.686800  1.0
  H  H1310  1  0.436600  0.313200  0.221800  1.0
  H  H1311  1  0.936600  0.221800  0.313200  1.0
  H  H1312  1  0.563400  0.686800  0.778200  1.0
  H  H1313  1  0.956700  0.624700  0.671100  1.0
  H  H1314  1  0.543300  0.328900  0.375300  1.0
  H  H1315  1  0.043300  0.375300  0.328900  1.0
  H  H1316  1  0.456700  0.671100  0.624700  1.0
  H  H1317  1  0.890400  0.687800  0.639400  1.0
  H  H1318  1  0.609600  0.360600  0.312200  1.0
  H  H1319  1  0.109600  0.312200  0.360600  1.0
  H  H1320  1  0.390400  0.639400  0.687800  1.0
  H  H1321  1  0.924500  0.758900  0.603100  1.0
  H  H1322  1  0.575500  0.396900  0.241100  1.0
  H  H1323  1  0.075500  0.241100  0.396900  1.0
  H  H1324  1  0.424500  0.603100  0.758900  1.0
  H  H1325  1  0.126700  0.591200  0.597000  1.0
  H  H1326  1  0.373300  0.403000  0.408800  1.0
  H  H1327  1  0.873300  0.408800  0.403000  1.0
  H  H1328  1  0.626700  0.597000  0.591200  1.0
  H  H1329  1  0.169300  0.633700  0.520700  1.0
  H  H1330  1  0.330700  0.479300  0.366300  1.0
  H  H1331  1  0.830700  0.366300  0.479300  1.0
  H  H1332  1  0.669300  0.520700  0.633700  1.0
  H  H1333  1  0.129900  0.719200  0.515400  1.0
  H  H1334  1  0.370100  0.484600  0.280800  1.0
  H  H1335  1  0.870100  0.280800  0.484600  1.0
  H  H1336  1  0.629900  0.515400  0.719200  1.0
  H  H1337  1  0.280600  0.802200  0.226000  1.0
  H  H1338  1  0.219400  0.774000  0.197800  1.0
  H  H1339  1  0.719400  0.197800  0.774000  1.0
  H  H1340  1  0.780600  0.226000  0.802200  1.0
  H  H1341  1  0.225000  0.872700  0.190900  1.0
  H  H1342  1  0.275000  0.809100  0.127300  1.0
  H  H1343  1  0.775000  0.127300  0.809100  1.0
  H  H1344  1  0.725000  0.190900  0.872700  1.0
  H  H1345  1  0.169000  0.910000  0.258200  1.0
  H  H1346  1  0.331000  0.741800  0.090000  1.0
  H  H1347  1  0.831000  0.090000  0.741800  1.0
  H  H1348  1  0.669000  0.258200  0.910000  1.0
  H  H1349  1  0.358000  0.778500  0.351500  1.0
  H  H1350  1  0.142000  0.648500  0.221500  1.0
  H  H1351  1  0.642000  0.221500  0.648500  1.0
  H  H1352  1  0.858000  0.351500  0.778500  1.0
  H  H1353  1  0.353000  0.844700  0.386300  1.0
  H  H1354  1  0.147000  0.613700  0.155300  1.0
  H  H1355  1  0.647000  0.155300  0.613700  1.0
  H  H1356  1  0.853000  0.386300  0.844700  1.0
  H  H1357  1  0.264900  0.891400  0.397000  1.0
  H  H1358  1  0.235100  0.603000  0.108600  1.0
  H  H1359  1  0.735100  0.108600  0.603000  1.0
  H  H1360  1  0.764900  0.397000  0.891400  1.0
  H  H1361  1  0.235800  0.693200  0.375600  1.0
  H  H1362  1  0.264200  0.624400  0.306800  1.0
  H  H1363  1  0.764200  0.306800  0.624400  1.0
  H  H1364  1  0.735800  0.375600  0.693200  1.0
  H  H1365  1  0.153000  0.700800  0.432400  1.0
  H  H1366  1  0.347000  0.567600  0.299200  1.0
  H  H1367  1  0.847000  0.299200  0.567600  1.0
  H  H1368  1  0.653000  0.432400  0.700800  1.0
  H  H1369  1  0.121700  0.786700  0.434700  1.0
  H  H1370  1  0.378300  0.565300  0.213300  1.0
  H  H1371  1  0.878300  0.213300  0.565300  1.0
  H  H1372  1  0.621700  0.434700  0.786700  1.0
  H  H1373  1  0.077900  0.985600  0.843000  1.0
  H  H1374  1  0.422100  0.157000  0.014400  1.0
  H  H1375  1  0.922100  0.014400  0.157000  1.0
  H  H1376  1  0.577900  0.843000  0.985600  1.0
  H  H1377  1  0.135200  0.005700  0.764500  1.0
  H  H1378  1  0.364800  0.235500  0.994300  1.0
  H  H1379  1  0.864800  0.994300  0.235500  1.0
  H  H1380  1  0.635200  0.764500  0.005700  1.0
  H  H1381  1  0.104300  0.986000  0.706400  1.0
  H  H1382  1  0.395700  0.293600  0.014000  1.0
  H  H1383  1  0.895700  0.014000  0.293600  1.0
  H  H1384  1  0.604300  0.706400  0.986000  1.0
  H  H1385  1  0.897800  0.008800  0.877000  1.0
  H  H1386  1  0.602200  0.123000  0.991200  1.0
  H  H1387  1  0.102200  0.991200  0.123000  1.0
  H  H1388  1  0.397800  0.877000  0.008800  1.0
  H  H1389  1  0.843900  0.039000  0.821400  1.0
  H  H1390  1  0.656100  0.178600  0.961000  1.0
  H  H1391  1  0.156100  0.961000  0.178600  1.0
  H  H1392  1  0.343900  0.821400  0.039000  1.0
  H  H1393  1  0.895200  0.006500  0.748500  1.0
  H  H1394  1  0.604800  0.251500  0.993500  1.0
  H  H1395  1  0.104800  0.993500  0.251500  1.0
  H  H1396  1  0.395200  0.748500  0.006500  1.0
  H  H1397  1  0.996300  0.853100  0.906300  1.0
  H  H1398  1  0.503700  0.093700  0.146900  1.0
  H  H1399  1  0.003700  0.146900  0.093700  1.0
  H  H1400  1  0.496300  0.906300  0.853100  1.0
  H  H1401  1  0.005100  0.788600  0.866400  1.0
  H  H1402  1  0.494900  0.133600  0.211400  1.0
  H  H1403  1  0.994900  0.211400  0.133600  1.0
  H  H1404  1  0.505100  0.866400  0.788600  1.0
  H  H1405  1  0.013500  0.827100  0.782100  1.0
  H  H1406  1  0.486500  0.217900  0.172900  1.0
  H  H1407  1  0.986500  0.172900  0.217900  1.0
  H  H1408  1  0.513500  0.782100  0.827100  1.0
  N  N1409  1  0.009050  0.884200  0.297000  1.0
  N  N1410  1  0.490950  0.703000  0.115800  1.0
  N  N1411  1  0.990950  0.115800  0.703000  1.0
  N  N1412  1  0.509050  0.297000  0.884200  1.0
  N  N1413  1  0.006890  0.826450  0.379630  1.0
  N  N1414  1  0.493110  0.620370  0.173550  1.0
  N  N1415  1  0.993110  0.173550  0.620370  1.0
  N  N1416  1  0.506890  0.379630  0.826450  1.0
  N  N1417  1  0.008200  0.789620  0.416940  1.0
  N  N1418  1  0.491800  0.583060  0.210380  1.0
  N  N1419  1  0.991800  0.210380  0.583060  1.0
  N  N1420  1  0.508200  0.416940  0.789620  1.0
  N  N1421  1  0.010000  0.574150  0.539330  1.0
  N  N1422  1  0.490000  0.460670  0.425850  1.0
  N  N1423  1  0.990000  0.425850  0.460670  1.0
  N  N1424  1  0.510000  0.539330  0.574150  1.0
  N  N1425  1  0.894200  0.818450  0.735370  1.0
  N  N1426  1  0.605800  0.264630  0.181550  1.0
  N  N1427  1  0.105800  0.181550  0.264630  1.0
  N  N1428  1  0.394200  0.735370  0.818450  1.0
  N  N1429  1  0.841840  0.905570  0.730770  1.0
  N  N1430  1  0.658160  0.269230  0.094430  1.0
  N  N1431  1  0.158160  0.094430  0.269230  1.0
  N  N1432  1  0.341840  0.730770  0.905570  1.0
  N  N1433  1  0.808200  0.947180  0.737880  1.0
  N  N1434  1  0.691800  0.262120  0.052820  1.0
  N  N1435  1  0.191800  0.052820  0.262120  1.0
  N  N1436  1  0.308200  0.737880  0.947180  1.0
  N  N1437  1  0.615800  0.093700  0.841100  1.0
  N  N1438  1  0.884200  0.158900  0.906300  1.0
  N  N1439  1  0.384200  0.906300  0.158900  1.0
  N  N1440  1  0.115800  0.841100  0.093700  1.0
  N  N1441  1  0.135300  0.901570  0.558930  1.0
  N  N1442  1  0.364700  0.441070  0.098430  1.0
  N  N1443  1  0.864700  0.098430  0.441070  1.0
  N  N1444  1  0.635300  0.558930  0.901570  1.0
  N  N1445  1  0.231200  0.872280  0.521400  1.0
  N  N1446  1  0.268800  0.478600  0.127720  1.0
  N  N1447  1  0.768800  0.127720  0.478600  1.0
  N  N1448  1  0.731200  0.521400  0.872280  1.0
  N  N1449  1  0.280200  0.867270  0.500250  1.0
  N  N1450  1  0.219800  0.499750  0.132730  1.0
  N  N1451  1  0.719800  0.132730  0.499750  1.0
  N  N1452  1  0.780200  0.500250  0.867270  1.0
  N  N1453  1  0.483600  0.936760  0.393360  1.0
  N  N1454  1  0.016400  0.606640  0.063240  1.0
  N  N1455  1  0.516400  0.063240  0.606640  1.0
  N  N1456  1  0.983600  0.393360  0.936760  1.0
  N  N1457  1  0.903210  0.942890  0.625690  1.0
  N  N1458  1  0.596790  0.374310  0.057110  1.0
  N  N1459  1  0.096790  0.057110  0.374310  1.0
  N  N1460  1  0.403210  0.625690  0.942890  1.0
  N  N1461  1  0.861600  0.873910  0.639830  1.0
  N  N1462  1  0.638400  0.360170  0.126090  1.0
  N  N1463  1  0.138400  0.126090  0.360170  1.0
  N  N1464  1  0.361600  0.639830  0.873910  1.0
  N  N1465  1  0.840080  0.842110  0.637850  1.0
  N  N1466  1  0.659920  0.362150  0.157890  1.0
  N  N1467  1  0.159920  0.157890  0.362150  1.0
  N  N1468  1  0.340080  0.637850  0.842110  1.0
  N  N1469  1  0.705800  0.759540  0.567940  1.0
  N  N1470  1  0.794200  0.432060  0.240460  1.0
  N  N1471  1  0.294200  0.240460  0.432060  1.0
  N  N1472  1  0.205800  0.567940  0.759540  1.0
  N  N1473  1  0.223420  0.771220  0.522100  1.0
  N  N1474  1  0.276580  0.477900  0.228780  1.0
  N  N1475  1  0.776580  0.228780  0.477900  1.0
  N  N1476  1  0.723420  0.522100  0.771220  1.0
  N  N1477  1  0.188860  0.797490  0.603910  1.0
  N  N1478  1  0.311140  0.396090  0.202510  1.0
  N  N1479  1  0.811140  0.202510  0.396090  1.0
  N  N1480  1  0.688860  0.603910  0.797490  1.0
  N  N1481  1  0.173350  0.799930  0.650030  1.0
  N  N1482  1  0.326650  0.349970  0.200070  1.0
  N  N1483  1  0.826650  0.200070  0.349970  1.0
  N  N1484  1  0.673350  0.650030  0.799930  1.0
  N  N1485  1  0.162600  0.742010  0.873610  1.0
  N  N1486  1  0.337400  0.126390  0.257990  1.0
  N  N1487  1  0.837400  0.257990  0.126390  1.0
  N  N1488  1  0.662600  0.873610  0.742010  1.0
  N  N1489  1  0.769700  0.815850  0.427430  1.0
  N  N1490  1  0.730300  0.572570  0.184150  1.0
  N  N1491  1  0.230300  0.184150  0.572570  1.0
  N  N1492  1  0.269700  0.427430  0.815850  1.0
  N  N1493  1  0.849400  0.798480  0.368280  1.0
  N  N1494  1  0.650600  0.631720  0.201520  1.0
  N  N1495  1  0.150600  0.201520  0.631720  1.0
  N  N1496  1  0.349400  0.368280  0.798480  1.0
  N  N1497  1  0.848900  0.786710  0.451310  1.0
  N  N1498  1  0.651100  0.548690  0.213290  1.0
  N  N1499  1  0.151100  0.213290  0.548690  1.0
  N  N1500  1  0.348900  0.451310  0.786710  1.0
  N  N1501  1  0.767300  0.862690  0.420630  1.0
  N  N1502  1  0.732700  0.579370  0.137310  1.0
  N  N1503  1  0.232700  0.137310  0.579370  1.0
  N  N1504  1  0.267300  0.420630  0.862690  1.0
  N  N1505  1  0.854800  0.842900  0.354020  1.0
  N  N1506  1  0.645200  0.645980  0.157100  1.0
  N  N1507  1  0.145200  0.157100  0.645980  1.0
  N  N1508  1  0.354800  0.354020  0.842900  1.0
  N  N1509  1  0.855500  0.829700  0.446560  1.0
  N  N1510  1  0.644500  0.553440  0.170300  1.0
  N  N1511  1  0.144500  0.170300  0.553440  1.0
  N  N1512  1  0.355500  0.446560  0.829700  1.0
  N  N1513  1  0.784700  0.948630  0.471250  1.0
  N  N1514  1  0.715300  0.528750  0.051370  1.0
  N  N1515  1  0.215300  0.051370  0.528750  1.0
  N  N1516  1  0.284700  0.471250  0.948630  1.0
  N  N1517  1  0.926500  0.911680  0.374220  1.0
  N  N1518  1  0.573500  0.625780  0.088320  1.0
  N  N1519  1  0.073500  0.088320  0.625780  1.0
  N  N1520  1  0.426500  0.374220  0.911680  1.0
  N  N1521  1  0.791900  0.968440  0.324040  1.0
  N  N1522  1  0.708100  0.675960  0.031560  1.0
  N  N1523  1  0.208100  0.031560  0.675960  1.0
  N  N1524  1  0.291900  0.324040  0.968440  1.0
  N  N1525  1  0.245170  0.818230  0.289710  1.0
  N  N1526  1  0.254830  0.710290  0.181770  1.0
  N  N1527  1  0.754830  0.181770  0.710290  1.0
  N  N1528  1  0.745170  0.289710  0.818230  1.0
  N  N1529  1  0.285100  0.808040  0.352540  1.0
  N  N1530  1  0.214900  0.647460  0.191960  1.0
  N  N1531  1  0.714900  0.191960  0.647460  1.0
  N  N1532  1  0.785100  0.352540  0.808040  1.0
  N  N1533  1  0.222500  0.764600  0.365880  1.0
  N  N1534  1  0.277500  0.634120  0.235400  1.0
  N  N1535  1  0.777500  0.235400  0.634120  1.0
  N  N1536  1  0.722500  0.365880  0.764600  1.0
  N  N1537  1  0.207000  0.856110  0.300490  1.0
  N  N1538  1  0.293000  0.699510  0.143890  1.0
  N  N1539  1  0.793000  0.143890  0.699510  1.0
  N  N1540  1  0.707000  0.300490  0.856110  1.0
  N  N1541  1  0.252700  0.846770  0.368330  1.0
  N  N1542  1  0.247300  0.631670  0.153230  1.0
  N  N1543  1  0.747300  0.153230  0.631670  1.0
  N  N1544  1  0.752700  0.368330  0.846770  1.0
  N  N1545  1  0.183600  0.797390  0.385690  1.0
  N  N1546  1  0.316400  0.614310  0.202610  1.0
  N  N1547  1  0.816400  0.202610  0.614310  1.0
  N  N1548  1  0.683600  0.385690  0.797390  1.0
  N  N1549  1  0.077000  0.887710  0.358970  1.0
  N  N1550  1  0.423000  0.641030  0.112290  1.0
  N  N1551  1  0.923000  0.112290  0.641030  1.0
  N  N1552  1  0.577000  0.358970  0.887710  1.0
  N  N1553  1  0.163090  0.864220  0.470580  1.0
  N  N1554  1  0.336910  0.529420  0.135780  1.0
  N  N1555  1  0.836910  0.135780  0.529420  1.0
  N  N1556  1  0.663090  0.470580  0.864220  1.0
  N  N1557  1  0.184000  0.968500  0.332100  1.0
  N  N1558  1  0.316000  0.667900  0.031500  1.0
  N  N1559  1  0.816000  0.031500  0.667900  1.0
  N  N1560  1  0.684000  0.332100  0.968500  1.0
  N  N1561  1  0.003000  0.896420  0.841520  1.0
  N  N1562  1  0.497000  0.158480  0.103580  1.0
  N  N1563  1  0.997000  0.103580  0.158480  1.0
  N  N1564  1  0.503000  0.841520  0.896420  1.0
  N  N1565  1  0.950200  0.976890  0.826350  1.0
  N  N1566  1  0.549800  0.173650  0.023110  1.0
  N  N1567  1  0.049800  0.023110  0.173650  1.0
  N  N1568  1  0.450200  0.826350  0.976890  1.0
  N  N1569  1  0.041400  0.963480  0.810100  1.0
  N  N1570  1  0.458600  0.189900  0.036520  1.0
  N  N1571  1  0.958600  0.036520  0.189900  1.0
  N  N1572  1  0.541400  0.810100  0.963480  1.0
  N  N1573  1  0.949850  0.974970  0.783070  1.0
  N  N1574  1  0.550150  0.216930  0.025030  1.0
  N  N1575  1  0.050150  0.025030  0.216930  1.0
  N  N1576  1  0.449850  0.783070  0.974970  1.0
  N  N1577  1  0.050500  0.964050  0.762950  1.0
  N  N1578  1  0.449500  0.237050  0.035950  1.0
  N  N1579  1  0.949500  0.035950  0.237050  1.0
  N  N1580  1  0.550500  0.762950  0.964050  1.0
  N  N1581  1  0.009160  0.887700  0.797860  1.0
  N  N1582  1  0.490840  0.202140  0.112300  1.0
  N  N1583  1  0.990840  0.112300  0.202140  1.0
  N  N1584  1  0.509160  0.797860  0.887700  1.0
  N  N1585  1  0.100500  0.883210  0.682130  1.0
  N  N1586  1  0.399500  0.317870  0.116790  1.0
  N  N1587  1  0.899500  0.116790  0.317870  1.0
  N  N1588  1  0.600500  0.682130  0.883210  1.0
  N  N1589  1  0.947200  0.898600  0.708800  1.0
  N  N1590  1  0.552800  0.291200  0.101400  1.0
  N  N1591  1  0.052800  0.101400  0.291200  1.0
  N  N1592  1  0.447200  0.708800  0.898600  1.0
  N  N1593  1  0.999760  0.970760  0.335200  1.0
  N  N1594  1  0.500240  0.664800  0.029240  1.0
  N  N1595  1  0.000240  0.029240  0.664800  1.0
  N  N1596  1  0.499760  0.335200  0.970760  1.0
  N  N1597  1  0.084700  0.656200  0.607500  1.0
  N  N1598  1  0.415300  0.392500  0.343800  1.0
  N  N1599  1  0.915300  0.343800  0.392500  1.0
  N  N1600  1  0.584700  0.607500  0.656200  1.0
  N  N1601  1  0.996200  0.673510  0.647150  1.0
  N  N1602  1  0.503800  0.352850  0.326490  1.0
  N  N1603  1  0.003800  0.326490  0.352850  1.0
  N  N1604  1  0.496200  0.647150  0.673510  1.0
  N  N1605  1  0.054900  0.682340  0.683000  1.0
  N  N1606  1  0.445100  0.317000  0.317660  1.0
  N  N1607  1  0.945100  0.317660  0.317000  1.0
  N  N1608  1  0.554900  0.683000  0.682340  1.0
  N  N1609  1  0.084350  0.700080  0.579960  1.0
  N  N1610  1  0.415650  0.420040  0.299920  1.0
  N  N1611  1  0.915650  0.299920  0.420040  1.0
  N  N1612  1  0.584350  0.579960  0.700080  1.0
  N  N1613  1  0.985900  0.720170  0.623730  1.0
  N  N1614  1  0.514100  0.376270  0.279830  1.0
  N  N1615  1  0.014100  0.279830  0.376270  1.0
  N  N1616  1  0.485900  0.623730  0.720170  1.0
  N  N1617  1  0.052740  0.729370  0.662710  1.0
  N  N1618  1  0.447260  0.337290  0.270630  1.0
  N  N1619  1  0.947260  0.270630  0.337290  1.0
  N  N1620  1  0.552740  0.662710  0.729370  1.0
  N  N1621  1  0.114600  0.811220  0.559300  1.0
  N  N1622  1  0.385400  0.440700  0.188780  1.0
  N  N1623  1  0.885400  0.188780  0.440700  1.0
  N  N1624  1  0.614600  0.559300  0.811220  1.0
  N  N1625  1  0.965430  0.841040  0.638240  1.0
  N  N1626  1  0.534570  0.361760  0.158960  1.0
  N  N1627  1  0.034570  0.158960  0.361760  1.0
  N  N1628  1  0.465430  0.638240  0.841040  1.0
  N  N1629  1  0.011300  0.796690  0.506090  1.0
  N  N1630  1  0.488700  0.493910  0.203310  1.0
  N  N1631  1  0.988700  0.203310  0.493910  1.0
  N  N1632  1  0.511300  0.506090  0.796690  1.0
  N  N1633  1  0.991640  0.904220  0.434900  1.0
  N  N1634  1  0.508360  0.565100  0.095780  1.0
  N  N1635  1  0.008360  0.095780  0.565100  1.0
  N  N1636  1  0.491640  0.434900  0.904220  1.0
  O  O1637  1  0.170700  0.482580  0.616780  1.0
  O  O1638  1  0.329300  0.383220  0.517420  1.0
  O  O1639  1  0.829300  0.517420  0.383220  1.0
  O  O1640  1  0.670700  0.616780  0.482580  1.0
  O  O1641  1  0.612930  0.282310  0.761270  1.0
  O  O1642  1  0.887070  0.238730  0.717690  1.0
  O  O1643  1  0.387070  0.717690  0.238730  1.0
  O  O1644  1  0.112930  0.761270  0.282310  1.0
  O  O1645  1  0.491900  0.119600  0.293000  1.0
  O  O1646  1  0.008100  0.707000  0.880400  1.0
  O  O1647  1  0.508100  0.880400  0.707000  1.0
  O  O1648  1  0.991900  0.293000  0.119600  1.0
  O  O1649  1  0.760200  0.571600  0.569000  1.0
  O  O1650  1  0.739800  0.431000  0.428400  1.0
  O  O1651  1  0.239800  0.428400  0.431000  1.0
  O  O1652  1  0.260200  0.569000  0.571600  1.0
  O  O1653  1  0.068600  0.910680  0.938280  1.0
  O  O1654  1  0.431400  0.061720  0.089320  1.0
  O  O1655  1  0.931400  0.089320  0.061720  1.0
  O  O1656  1  0.568600  0.938280  0.910680  1.0
  P  P1657  1  0.750000  0.421120  0.578880  1
  P  P1658  1  0.250000  0.578880  0.421120  1
  P  P1659  1  0.750000  0.069400  0.930600  1
  P  P1660  1  0.250000  0.930600  0.069400  1
