# generated using pymatgen
data_Fe8Ni6B8P5H300C378N118(OF3)10
_symmetry_space_group_name_H-M   'P 1'
_cell_length_a   29.45300000
_cell_length_b   30.60645652
_cell_length_c   30.60645652
_cell_angle_alpha   72.51210364
_cell_angle_beta   71.29521639
_cell_angle_gamma   71.29521639
_symmetry_Int_Tables_number   1
_chemical_formula_structural   Fe8Ni6B8P5H300C378N118(OF3)10
_chemical_formula_sum   'Fe16 Ni12 B16 P10 H600 C756 N236 O20 F60'
_cell_volume   24144.54504863
_cell_formula_units_Z   2
loop_
 _symmetry_equiv_pos_site_id
 _symmetry_equiv_pos_as_xyz
  1  'x, y, z'
loop_
 _atom_site_type_symbol
 _atom_site_label
 _atom_site_symmetry_multiplicity
 _atom_site_fract_x
 _atom_site_fract_y
 _atom_site_fract_z
 _atom_site_occupancy
  B  B1  1  0.005400  0.055300  0.155700  1.0
  B  B2  1  0.494600  0.844300  0.944700  1.0
  B  B3  1  0.994600  0.944700  0.844300  1.0
  B  B4  1  0.505400  0.155700  0.055300  1.0
  B  B5  1  0.266400  0.779800  0.330200  1.0
  B  B6  1  0.233600  0.669800  0.220200  1.0
  B  B7  1  0.733600  0.220200  0.669800  1.0
  B  B8  1  0.766400  0.330200  0.779800  1.0
  B  B9  1  0.818800  0.786900  0.416300  1.0
  B  B10  1  0.681200  0.583700  0.213100  1.0
  B  B11  1  0.181200  0.213100  0.583700  1.0
  B  B12  1  0.318800  0.416300  0.786900  1.0
  B  B13  1  0.955200  0.348200  0.342600  1.0
  B  B14  1  0.544800  0.657400  0.651800  1.0
  B  B15  1  0.044800  0.651800  0.657400  1.0
  B  B16  1  0.455200  0.342600  0.348200  1.0
  C  C17  1  0.302500  0.750300  0.754300  1
  C  C18  1  0.197500  0.245700  0.249700  1
  C  C19  1  0.697500  0.249700  0.245700  1
  C  C20  1  0.802500  0.754300  0.750300  1
  C  C21  1  0.262000  0.805300  0.740900  1
  C  C22  1  0.238000  0.259100  0.194700  1
  C  C23  1  0.738000  0.194700  0.259100  1
  C  C24  1  0.762000  0.740900  0.805300  1
  C  C25  1  0.205200  0.920000  0.661800  1
  C  C26  1  0.294800  0.338200  0.080000  1
  C  C27  1  0.794800  0.080000  0.338200  1
  C  C28  1  0.705200  0.661800  0.920000  1
  C  C29  1  0.244400  0.887200  0.632800  1
  C  C30  1  0.255600  0.367200  0.112800  1
  C  C31  1  0.755600  0.112800  0.367200  1
  C  C32  1  0.744400  0.632800  0.887200  1
  C  C33  1  0.078400  0.224200  0.264600  1.0
  C  C34  1  0.421600  0.735400  0.775800  1.0
  C  C35  1  0.921600  0.775800  0.735400  1.0
  C  C36  1  0.578400  0.264600  0.224200  1.0
  C  C37  1  0.085500  0.262000  0.227400  1.0
  C  C38  1  0.414500  0.772600  0.738000  1.0
  C  C39  1  0.914500  0.738000  0.772600  1.0
  C  C40  1  0.585500  0.227400  0.262000  1.0
  C  C41  1  0.124400  0.252800  0.188000  1.0
  C  C42  1  0.375600  0.812000  0.747200  1.0
  C  C43  1  0.875600  0.747200  0.812000  1.0
  C  C44  1  0.624400  0.188000  0.252800  1.0
  C  C45  1  0.153800  0.209300  0.188700  1.0
  C  C46  1  0.346200  0.811300  0.790700  1.0
  C  C47  1  0.846200  0.790700  0.811300  1.0
  C  C48  1  0.653800  0.188700  0.209300  1.0
  C  C49  1  0.145000  0.173090  0.228290  1.0
  C  C50  1  0.355000  0.771710  0.826910  1.0
  C  C51  1  0.855000  0.826910  0.771710  1.0
  C  C52  1  0.645000  0.228290  0.173090  1.0
  C  C53  1  0.175300  0.124570  0.231370  1.0
  C  C54  1  0.324700  0.768630  0.875430  1.0
  C  C55  1  0.824700  0.875430  0.768630  1.0
  C  C56  1  0.675300  0.231370  0.124570  1.0
  C  C57  1  0.216500  0.103380  0.200780  1.0
  C  C58  1  0.283500  0.799220  0.896620  1.0
  C  C59  1  0.783500  0.896620  0.799220  1.0
  C  C60  1  0.716500  0.200780  0.103380  1.0
  C  C61  1  0.228100  0.057080  0.222480  1.0
  C  C62  1  0.271900  0.777520  0.942920  1.0
  C  C63  1  0.771900  0.942920  0.777520  1.0
  C  C64  1  0.728100  0.222480  0.057080  1.0
  C  C65  1  0.266900  0.017520  0.206920  1.0
  C  C66  1  0.233100  0.793080  0.982480  1.0
  C  C67  1  0.733100  0.982480  0.793080  1.0
  C  C68  1  0.766900  0.206920  0.017520  1.0
  C  C69  1  0.309100  0.026730  0.172130  1.0
  C  C70  1  0.190900  0.827870  0.973270  1.0
  C  C71  1  0.690900  0.973270  0.827870  1.0
  C  C72  1  0.809100  0.172130  0.026730  1.0
  C  C73  1  0.349100  0.991160  0.154160  1.0
  C  C74  1  0.150900  0.845840  0.008840  1.0
  C  C75  1  0.650900  0.008840  0.845840  1.0
  C  C76  1  0.849100  0.154160  0.991160  1.0
  C  C77  1  0.344000  0.943880  0.172680  1.0
  C  C78  1  0.156000  0.827320  0.056120  1.0
  C  C79  1  0.656000  0.056120  0.827320  1.0
  C  C80  1  0.844000  0.172680  0.943880  1.0
  C  C81  1  0.305100  0.932590  0.208390  1.0
  C  C82  1  0.194900  0.791610  0.067410  1.0
  C  C83  1  0.694900  0.067410  0.791610  1.0
  C  C84  1  0.805100  0.208390  0.932590  1.0
  C  C85  1  0.265800  0.970150  0.223750  1.0
  C  C86  1  0.234200  0.776250  0.029850  1.0
  C  C87  1  0.734200  0.029850  0.776250  1.0
  C  C88  1  0.765800  0.223750  0.970150  1.0
  C  C89  1  0.423100  0.915830  0.114830  1.0
  C  C90  1  0.076900  0.885170  0.084170  1.0
  C  C91  1  0.576900  0.084170  0.885170  1.0
  C  C92  1  0.923100  0.114830  0.915830  1.0
  C  C93  1  0.472100  0.901830  0.117230  1.0
  C  C94  1  0.027900  0.882770  0.098170  1.0
  C  C95  1  0.527900  0.098170  0.882770  1.0
  C  C96  1  0.972100  0.117230  0.901830  1.0
  C  C97  1  0.509600  0.907640  0.076240  1.0
  C  C98  1  0.990400  0.923760  0.092360  1.0
  C  C99  1  0.490400  0.092360  0.923760  1.0
  C  C100  1  0.009600  0.076240  0.907640  1.0
  C  C101  1  0.498000  0.927650  0.032650  1.0
  C  C102  1  0.002000  0.967350  0.072350  1.0
  C  C103  1  0.502000  0.072350  0.967350  1.0
  C  C104  1  0.998000  0.032650  0.927650  1.0
  C  C105  1  0.449000  0.941660  0.030260  1.0
  C  C106  1  0.051000  0.969740  0.058340  1.0
  C  C107  1  0.551000  0.058340  0.969740  1.0
  C  C108  1  0.949000  0.030260  0.941660  1.0
  C  C109  1  0.411500  0.935850  0.071250  1.0
  C  C110  1  0.088500  0.928750  0.064150  1.0
  C  C111  1  0.588500  0.064150  0.928750  1.0
  C  C112  1  0.911500  0.071250  0.935850  1.0
  C  C113  1  0.386200  0.858700  0.178500  1.0
  C  C114  1  0.113800  0.821500  0.141300  1.0
  C  C115  1  0.613800  0.141300  0.821500  1.0
  C  C116  1  0.886200  0.178500  0.858700  1.0
  C  C117  1  0.374600  0.831900  0.153700  1.0
  C  C118  1  0.125400  0.846300  0.168100  1.0
  C  C119  1  0.625400  0.168100  0.846300  1.0
  C  C120  1  0.874600  0.153700  0.831900  1.0
  C  C121  1  0.376300  0.784950  0.174150  1.0
  C  C122  1  0.123700  0.825850  0.215050  1.0
  C  C123  1  0.623700  0.215050  0.825850  1.0
  C  C124  1  0.876300  0.174150  0.784950  1.0
  C  C125  1  0.387000  0.763840  0.217240  1.0
  C  C126  1  0.113000  0.782760  0.236160  1.0
  C  C127  1  0.613000  0.236160  0.782760  1.0
  C  C128  1  0.887000  0.217240  0.763840  1.0
  C  C129  1  0.396600  0.788000  0.239600  1.0
  C  C130  1  0.103400  0.760400  0.212000  1.0
  C  C131  1  0.603400  0.212000  0.760400  1.0
  C  C132  1  0.896600  0.239600  0.788000  1.0
  C  C133  1  0.396500  0.833800  0.222400  1.0
  C  C134  1  0.103500  0.777600  0.166200  1.0
  C  C135  1  0.603500  0.166200  0.777600  1.0
  C  C136  1  0.896500  0.222400  0.833800  1.0
  C  C137  1  0.374600  0.690390  0.217190  1.0
  C  C138  1  0.125400  0.782810  0.309610  1.0
  C  C139  1  0.625400  0.309610  0.782810  1.0
  C  C140  1  0.874600  0.217190  0.690390  1.0
  C  C141  1  0.080100  0.022400  0.378800  1.0
  C  C142  1  0.419900  0.621200  0.977600  1.0
  C  C143  1  0.919900  0.977600  0.621200  1.0
  C  C144  1  0.580100  0.378800  0.022400  1.0
  C  C145  1  0.079500  0.984680  0.415880  1.0
  C  C146  1  0.420500  0.584120  0.015320  1.0
  C  C147  1  0.920500  0.015320  0.584120  1.0
  C  C148  1  0.579500  0.415880  0.984680  1.0
  C  C149  1  0.103600  0.981070  0.449070  1.0
  C  C150  1  0.396400  0.550930  0.018930  1.0
  C  C151  1  0.896400  0.018930  0.550930  1.0
  C  C152  1  0.603600  0.449070  0.981070  1.0
  C  C153  1  0.125400  0.016320  0.444720  1.0
  C  C154  1  0.374600  0.555280  0.983680  1.0
  C  C155  1  0.874600  0.983680  0.555280  1.0
  C  C156  1  0.625400  0.444720  0.016320  1.0
  C  C157  1  0.123400  0.054610  0.405610  1.0
  C  C158  1  0.376600  0.594390  0.945390  1.0
  C  C159  1  0.876600  0.945390  0.594390  1.0
  C  C160  1  0.623400  0.405610  0.054610  1.0
  C  C161  1  0.144200  0.094430  0.398030  1.0
  C  C162  1  0.355800  0.601970  0.905570  1.0
  C  C163  1  0.855800  0.905570  0.601970  1.0
  C  C164  1  0.644200  0.398030  0.094430  1.0
  C  C165  1  0.167000  0.105160  0.425360  1.0
  C  C166  1  0.333000  0.574640  0.894840  1.0
  C  C167  1  0.833000  0.894840  0.574640  1.0
  C  C168  1  0.667000  0.425360  0.105160  1.0
  C  C169  1  0.179100  0.146880  0.401280  1.0
  C  C170  1  0.320900  0.598720  0.853120  1.0
  C  C171  1  0.820900  0.853120  0.598720  1.0
  C  C172  1  0.679100  0.401280  0.146880  1.0
  C  C173  1  0.205700  0.174400  0.410400  1.0
  C  C174  1  0.294300  0.589600  0.825600  1.0
  C  C175  1  0.794300  0.825600  0.589600  1.0
  C  C176  1  0.705700  0.410400  0.174400  1.0
  C  C177  1  0.238100  0.151200  0.439600  1.0
  C  C178  1  0.261900  0.560400  0.848800  1.0
  C  C179  1  0.761900  0.848800  0.560400  1.0
  C  C180  1  0.738100  0.439600  0.151200  1.0
  C  C181  1  0.265100  0.175100  0.448300  1.0
  C  C182  1  0.234900  0.551700  0.824900  1.0
  C  C183  1  0.734900  0.824900  0.551700  1.0
  C  C184  1  0.765100  0.448300  0.175100  1.0
  C  C185  1  0.263600  0.220200  0.428200  1.0
  C  C186  1  0.236400  0.571800  0.779800  1.0
  C  C187  1  0.736400  0.779800  0.571800  1.0
  C  C188  1  0.763600  0.428200  0.220200  1.0
  C  C189  1  0.228100  0.246400  0.399600  1.0
  C  C190  1  0.271900  0.600400  0.753600  1.0
  C  C191  1  0.771900  0.753600  0.600400  1.0
  C  C192  1  0.728100  0.399600  0.246400  1.0
  C  C193  1  0.200400  0.222790  0.392390  1.0
  C  C194  1  0.299600  0.607610  0.777210  1.0
  C  C195  1  0.799600  0.777210  0.607610  1.0
  C  C196  1  0.700400  0.392390  0.222790  1.0
  C  C197  1  0.347000  0.221000  0.430400  1.0
  C  C198  1  0.153000  0.569600  0.779000  1.0
  C  C199  1  0.653000  0.779000  0.569600  1.0
  C  C200  1  0.847000  0.430400  0.221000  1.0
  C  C201  1  0.373500  0.185900  0.405100  1.0
  C  C202  1  0.126500  0.594900  0.814100  1.0
  C  C203  1  0.626500  0.814100  0.594900  1.0
  C  C204  1  0.873500  0.405100  0.185900  1.0
  C  C205  1  0.422500  0.163800  0.405800  1.0
  C  C206  1  0.077500  0.594200  0.836200  1.0
  C  C207  1  0.577500  0.836200  0.594200  1.0
  C  C208  1  0.922500  0.405800  0.163800  1.0
  C  C209  1  0.445200  0.176600  0.432000  1.0
  C  C210  1  0.054800  0.568000  0.823400  1.0
  C  C211  1  0.554800  0.823400  0.568000  1.0
  C  C212  1  0.945200  0.432000  0.176600  1.0
  C  C213  1  0.418700  0.211600  0.457200  1.0
  C  C214  1  0.081300  0.542800  0.788400  1.0
  C  C215  1  0.581300  0.788400  0.542800  1.0
  C  C216  1  0.918700  0.457200  0.211600  1.0
  C  C217  1  0.369600  0.233740  0.456540  1.0
  C  C218  1  0.130400  0.543460  0.766260  1.0
  C  C219  1  0.630400  0.766260  0.543460  1.0
  C  C220  1  0.869600  0.456540  0.233740  1.0
  C  C221  1  0.277500  0.288590  0.438790  1.0
  C  C222  1  0.222500  0.561210  0.711410  1.0
  C  C223  1  0.722500  0.711410  0.561210  1.0
  C  C224  1  0.777500  0.438790  0.288590  1.0
  C  C225  1  0.237000  0.300400  0.475600  1.0
  C  C226  1  0.263000  0.524400  0.699600  1.0
  C  C227  1  0.763000  0.699600  0.524400  1.0
  C  C228  1  0.737000  0.475600  0.300400  1.0
  C  C229  1  0.217600  0.347330  0.479530  1.0
  C  C230  1  0.282400  0.520470  0.652670  1.0
  C  C231  1  0.782400  0.652670  0.520470  1.0
  C  C232  1  0.717600  0.479530  0.347330  1.0
  C  C233  1  0.238800  0.382400  0.446600  1.0
  C  C234  1  0.261200  0.553400  0.617600  1.0
  C  C235  1  0.761200  0.617600  0.553400  1.0
  C  C236  1  0.738800  0.446600  0.382400  1.0
  C  C237  1  0.279200  0.370510  0.409690  1.0
  C  C238  1  0.220800  0.590310  0.629490  1.0
  C  C239  1  0.720800  0.629490  0.590310  1.0
  C  C240  1  0.779200  0.409690  0.370510  1.0
  C  C241  1  0.298600  0.323600  0.405800  1.0
  C  C242  1  0.201400  0.594200  0.676400  1.0
  C  C243  1  0.701400  0.676400  0.594200  1.0
  C  C244  1  0.798600  0.405800  0.323600  1.0
  C  C245  1  0.176200  0.442000  0.488800  1.0
  C  C246  1  0.323800  0.511200  0.558000  1.0
  C  C247  1  0.823800  0.558000  0.511200  1.0
  C  C248  1  0.676200  0.488800  0.442000  1.0
  C  C249  1  0.011300  0.918080  0.255480  1.0
  C  C250  1  0.488700  0.744520  0.081920  1.0
  C  C251  1  0.988700  0.081920  0.744520  1.0
  C  C252  1  0.511300  0.255480  0.918080  1.0
  C  C253  1  0.005200  0.906960  0.216360  1.0
  C  C254  1  0.494800  0.783640  0.093040  1.0
  C  C255  1  0.994800  0.093040  0.783640  1.0
  C  C256  1  0.505200  0.216360  0.906960  1.0
  C  C257  1  0.997200  0.864600  0.220200  1.0
  C  C258  1  0.502800  0.779800  0.135400  1.0
  C  C259  1  0.002800  0.135400  0.779800  1.0
  C  C260  1  0.497200  0.220200  0.864600  1.0
  C  C261  1  0.996700  0.831960  0.263360  1.0
  C  C262  1  0.503300  0.736640  0.168040  1.0
  C  C263  1  0.003300  0.168040  0.736640  1.0
  C  C264  1  0.496700  0.263360  0.831960  1.0
  C  C265  1  0.001100  0.843400  0.301200  1.0
  C  C266  1  0.498900  0.698800  0.156600  1.0
  C  C267  1  0.998900  0.156600  0.698800  1.0
  C  C268  1  0.501100  0.301200  0.843400  1.0
  C  C269  1  0.001500  0.812330  0.347130  1.0
  C  C270  1  0.498500  0.652870  0.187670  1.0
  C  C271  1  0.998500  0.187670  0.652870  1.0
  C  C272  1  0.501500  0.347130  0.812330  1.0
  C  C273  1  0.999300  0.764270  0.364070  1.0
  C  C274  1  0.500700  0.635930  0.235730  1.0
  C  C275  1  0.000700  0.235730  0.635930  1.0
  C  C276  1  0.499300  0.364070  0.764270  1.0
  C  C277  1  0.003600  0.751650  0.409650  1.0
  C  C278  1  0.496400  0.590350  0.248350  1.0
  C  C279  1  0.996400  0.248350  0.590350  1.0
  C  C280  1  0.503600  0.409650  0.751650  1.0
  C  C281  1  0.005200  0.707630  0.443830  1.0
  C  C282  1  0.494800  0.556170  0.292370  1.0
  C  C283  1  0.994800  0.292370  0.556170  1.0
  C  C284  1  0.505200  0.443830  0.707630  1.0
  C  C285  1  0.981100  0.674860  0.442260  1.0
  C  C286  1  0.518900  0.557740  0.325140  1.0
  C  C287  1  0.018900  0.325140  0.557740  1.0
  C  C288  1  0.481100  0.442260  0.674860  1.0
  C  C289  1  0.982800  0.631850  0.474050  1.0
  C  C290  1  0.517200  0.525950  0.368150  1.0
  C  C291  1  0.017200  0.368150  0.525950  1.0
  C  C292  1  0.482800  0.474050  0.631850  1.0
  C  C293  1  0.007900  0.620800  0.510400  1.0
  C  C294  1  0.492100  0.489600  0.379200  1.0
  C  C295  1  0.992100  0.379200  0.489600  1.0
  C  C296  1  0.507900  0.510400  0.620800  1.0
  C  C297  1  0.030600  0.652760  0.511160  1.0
  C  C298  1  0.469400  0.488840  0.347240  1.0
  C  C299  1  0.969400  0.347240  0.488840  1.0
  C  C300  1  0.530600  0.511160  0.652760  1.0
  C  C301  1  0.029400  0.693820  0.479220  1.0
  C  C302  1  0.470600  0.520780  0.306180  1.0
  C  C303  1  0.970600  0.306180  0.520780  1.0
  C  C304  1  0.529400  0.479220  0.693820  1.0
  C  C305  1  0.971000  0.551800  0.556400  1.0
  C  C306  1  0.529000  0.443600  0.448200  1.0
  C  C307  1  0.029000  0.448200  0.443600  1.0
  C  C308  1  0.471000  0.556400  0.551800  1.0
  C  C309  1  0.922700  0.575400  0.566000  1.0
  C  C310  1  0.577300  0.434000  0.424600  1.0
  C  C311  1  0.077300  0.424600  0.434000  1.0
  C  C312  1  0.422700  0.566000  0.575400  1.0
  C  C313  1  0.882600  0.553300  0.575900  1.0
  C  C314  1  0.617400  0.424100  0.446700  1.0
  C  C315  1  0.117400  0.446700  0.424100  1.0
  C  C316  1  0.382600  0.575900  0.553300  1.0
  C  C317  1  0.893800  0.505000  0.577800  1.0
  C  C318  1  0.606200  0.422200  0.495000  1.0
  C  C319  1  0.106200  0.495000  0.422200  1.0
  C  C320  1  0.393800  0.577800  0.505000  1.0
  C  C321  1  0.944100  0.481500  0.568900  1.0
  C  C322  1  0.555900  0.431100  0.518500  1.0
  C  C323  1  0.055900  0.518500  0.431100  1.0
  C  C324  1  0.444100  0.568900  0.481500  1.0
  C  C325  1  0.983300  0.505800  0.557000  1.0
  C  C326  1  0.516700  0.443000  0.494200  1.0
  C  C327  1  0.016700  0.494200  0.443000  1.0
  C  C328  1  0.483300  0.557000  0.505800  1.0
  C  C329  1  0.050900  0.552930  0.562450  1.0
  C  C330  1  0.449100  0.437550  0.447070  1.0
  C  C331  1  0.949100  0.447070  0.437550  1.0
  C  C332  1  0.550900  0.562450  0.552930  1.0
  C  C333  1  0.045100  0.533680  0.610680  1.0
  C  C334  1  0.454900  0.389320  0.466320  1.0
  C  C335  1  0.954900  0.466320  0.389320  1.0
  C  C336  1  0.545100  0.610680  0.533680  1.0
  C  C337  1  0.086400  0.509040  0.628380  1.0
  C  C338  1  0.413600  0.371620  0.490960  1.0
  C  C339  1  0.913600  0.490960  0.371620  1.0
  C  C340  1  0.586400  0.628380  0.509040  1.0
  C  C341  1  0.133400  0.503570  0.597930  1.0
  C  C342  1  0.366600  0.402070  0.496430  1.0
  C  C343  1  0.866600  0.496430  0.402070  1.0
  C  C344  1  0.633400  0.597930  0.503570  1.0
  C  C345  1  0.139200  0.522760  0.549760  1.0
  C  C346  1  0.360800  0.450240  0.477240  1.0
  C  C347  1  0.860800  0.477240  0.450240  1.0
  C  C348  1  0.639200  0.549760  0.522760  1.0
  C  C349  1  0.097900  0.547460  0.532000  1.0
  C  C350  1  0.402100  0.468000  0.452540  1.0
  C  C351  1  0.902100  0.452540  0.468000  1.0
  C  C352  1  0.597900  0.532000  0.547460  1.0
  C  C353  1  0.170900  0.461500  0.666100  1.0
  C  C354  1  0.329100  0.333900  0.538500  1.0
  C  C355  1  0.829100  0.538500  0.333900  1.0
  C  C356  1  0.670900  0.666100  0.461500  1.0
  C  C357  1  0.239300  0.761170  0.479970  1.0
  C  C358  1  0.260700  0.520030  0.238830  1.0
  C  C359  1  0.760700  0.238830  0.520030  1.0
  C  C360  1  0.739300  0.479970  0.761170  1.0
  C  C361  1  0.266800  0.716230  0.474630  1.0
  C  C362  1  0.233200  0.525370  0.283770  1.0
  C  C363  1  0.733200  0.283770  0.525370  1.0
  C  C364  1  0.766800  0.474630  0.716230  1.0
  C  C365  1  0.276600  0.681660  0.513860  1.0
  C  C366  1  0.223400  0.486140  0.318340  1.0
  C  C367  1  0.723400  0.318340  0.486140  1.0
  C  C368  1  0.776600  0.513860  0.681660  1.0
  C  C369  1  0.260100  0.691390  0.556990  1.0
  C  C370  1  0.239900  0.443010  0.308610  1.0
  C  C371  1  0.739900  0.308610  0.443010  1.0
  C  C372  1  0.760100  0.556990  0.691390  1.0
  C  C373  1  0.232400  0.738180  0.560980  1.0
  C  C374  1  0.267600  0.439020  0.261820  1.0
  C  C375  1  0.767600  0.261820  0.439020  1.0
  C  C376  1  0.732400  0.560980  0.738180  1.0
  C  C377  1  0.211200  0.752500  0.606500  1.0
  C  C378  1  0.288800  0.393500  0.247500  1.0
  C  C379  1  0.788800  0.247500  0.393500  1.0
  C  C380  1  0.711200  0.606500  0.752500  1.0
  C  C381  1  0.211800  0.727670  0.651670  1.0
  C  C382  1  0.288200  0.348330  0.272330  1.0
  C  C383  1  0.788200  0.272330  0.348330  1.0
  C  C384  1  0.711800  0.651670  0.727670  1.0
  C  C385  1  0.184800  0.757720  0.681720  1.0
  C  C386  1  0.315200  0.318280  0.242280  1.0
  C  C387  1  0.815200  0.242280  0.318280  1.0
  C  C388  1  0.684800  0.681720  0.757720  1.0
  C  C389  1  0.173000  0.750890  0.732290  1.0
  C  C390  1  0.327000  0.267710  0.249110  1.0
  C  C391  1  0.827000  0.249110  0.267710  1.0
  C  C392  1  0.673000  0.732290  0.750890  1.0
  C  C393  1  0.201600  0.713900  0.757100  1.0
  C  C394  1  0.298400  0.242900  0.286100  1.0
  C  C395  1  0.798400  0.286100  0.242900  1.0
  C  C396  1  0.701600  0.757100  0.713900  1.0
  C  C397  1  0.196900  0.709100  0.805300  1.0
  C  C398  1  0.303100  0.194700  0.290900  1.0
  C  C399  1  0.803100  0.290900  0.194700  1.0
  C  C400  1  0.696900  0.805300  0.709100  1.0
  C  C401  1  0.163600  0.742700  0.827900  1.0
  C  C402  1  0.336400  0.172100  0.257300  1.0
  C  C403  1  0.836400  0.257300  0.172100  1.0
  C  C404  1  0.663600  0.827900  0.742700  1.0
  C  C405  1  0.129500  0.774600  0.805800  1.0
  C  C406  1  0.370500  0.194200  0.225400  1.0
  C  C407  1  0.870500  0.225400  0.194200  1.0
  C  C408  1  0.629500  0.805800  0.774600  1.0
  C  C409  1  0.134700  0.781000  0.756000  1.0
  C  C410  1  0.365300  0.244000  0.219000  1.0
  C  C411  1  0.865300  0.219000  0.244000  1.0
  C  C412  1  0.634700  0.756000  0.781000  1.0
  C  C413  1  0.181200  0.700000  0.904940  1.0
  C  C414  1  0.318800  0.095060  0.300000  1.0
  C  C415  1  0.818800  0.300000  0.095060  1.0
  C  C416  1  0.681200  0.904940  0.700000  1.0
  C  C417  1  0.171400  0.657190  0.909390  1.0
  C  C418  1  0.328600  0.090610  0.342810  1.0
  C  C419  1  0.828600  0.342810  0.090610  1.0
  C  C420  1  0.671400  0.909390  0.657190  1.0
  C  C421  1  0.190900  0.616900  0.940300  1.0
  C  C422  1  0.309100  0.059700  0.383100  1.0
  C  C423  1  0.809100  0.383100  0.059700  1.0
  C  C424  1  0.690900  0.940300  0.616900  1.0
  C  C425  1  0.220200  0.619550  0.966630  1.0
  C  C426  1  0.279800  0.033370  0.380450  1.0
  C  C427  1  0.779800  0.380450  0.033370  1.0
  C  C428  1  0.720200  0.966630  0.619550  1.0
  C  C429  1  0.230000  0.662360  0.962160  1.0
  C  C430  1  0.270000  0.037840  0.337640  1.0
  C  C431  1  0.770000  0.337640  0.037840  1.0
  C  C432  1  0.730000  0.962160  0.662360  1.0
  C  C433  1  0.210600  0.702650  0.931250  1.0
  C  C434  1  0.289400  0.068750  0.297350  1.0
  C  C435  1  0.789400  0.297350  0.068750  1.0
  C  C436  1  0.710600  0.931250  0.702650  1.0
  C  C437  1  0.134900  0.782700  0.894500  1.0
  C  C438  1  0.365100  0.105500  0.217300  1.0
  C  C439  1  0.865100  0.217300  0.105500  1.0
  C  C440  1  0.634900  0.894500  0.782700  1.0
  C  C441  1  0.098400  0.781700  0.936100  1.0
  C  C442  1  0.401600  0.063900  0.218300  1.0
  C  C443  1  0.901600  0.218300  0.063900  1.0
  C  C444  1  0.598400  0.936100  0.781700  1.0
  C  C445  1  0.071800  0.823400  0.953800  1.0
  C  C446  1  0.428200  0.046200  0.176600  1.0
  C  C447  1  0.928200  0.176600  0.046200  1.0
  C  C448  1  0.571800  0.953800  0.823400  1.0
  C  C449  1  0.088900  0.864400  0.925000  1.0
  C  C450  1  0.411100  0.075000  0.135600  1.0
  C  C451  1  0.911100  0.135600  0.075000  1.0
  C  C452  1  0.588900  0.925000  0.864400  1.0
  C  C453  1  0.125900  0.864700  0.886300  1.0
  C  C454  1  0.374100  0.113700  0.135300  1.0
  C  C455  1  0.874100  0.135300  0.113700  1.0
  C  C456  1  0.625900  0.886300  0.864700  1.0
  C  C457  1  0.149000  0.826700  0.870700  1.0
  C  C458  1  0.351000  0.129300  0.173300  1.0
  C  C459  1  0.851000  0.173300  0.129300  1.0
  C  C460  1  0.649000  0.870700  0.826700  1.0
  C  C461  1  0.019500  0.908600  0.981200  1.0
  C  C462  1  0.480500  0.018800  0.091400  1.0
  C  C463  1  0.980500  0.091400  0.018800  1.0
  C  C464  1  0.519500  0.981200  0.908600  1.0
  C  C465  1  0.086000  0.910690  0.579690  1.0
  C  C466  1  0.414000  0.420310  0.089310  1.0
  C  C467  1  0.914000  0.089310  0.420310  1.0
  C  C468  1  0.586000  0.579690  0.910690  1.0
  C  C469  1  0.062200  0.954590  0.589410  1.0
  C  C470  1  0.437800  0.410590  0.045410  1.0
  C  C471  1  0.937800  0.045410  0.410590  1.0
  C  C472  1  0.562200  0.589410  0.954590  1.0
  C  C473  1  0.089600  0.986990  0.581750  1.0
  C  C474  1  0.410400  0.418250  0.013010  1.0
  C  C475  1  0.910400  0.013010  0.418250  1.0
  C  C476  1  0.589600  0.581750  0.986990  1.0
  C  C477  1  0.138700  0.975400  0.561400  1.0
  C  C478  1  0.361300  0.438600  0.024600  1.0
  C  C479  1  0.861300  0.024600  0.438600  1.0
  C  C480  1  0.638700  0.561400  0.975400  1.0
  C  C481  1  0.160600  0.930290  0.551550  1.0
  C  C482  1  0.339400  0.448450  0.069710  1.0
  C  C483  1  0.839400  0.069710  0.448450  1.0
  C  C484  1  0.660600  0.551550  0.930290  1.0
  C  C485  1  0.214300  0.915380  0.528980  1.0
  C  C486  1  0.285700  0.471020  0.084620  1.0
  C  C487  1  0.785700  0.084620  0.471020  1.0
  C  C488  1  0.714300  0.528980  0.915380  1.0
  C  C489  1  0.251900  0.938620  0.510820  1.0
  C  C490  1  0.248100  0.489180  0.061380  1.0
  C  C491  1  0.748100  0.061380  0.489180  1.0
  C  C492  1  0.751900  0.510820  0.938620  1.0
  C  C493  1  0.296300  0.906000  0.492600  1.0
  C  C494  1  0.203700  0.507400  0.094000  1.0
  C  C495  1  0.703700  0.094000  0.507400  1.0
  C  C496  1  0.796300  0.492600  0.906000  1.0
  C  C497  1  0.343810  0.913140  0.469440  1.0
  C  C498  1  0.156190  0.530560  0.086860  1.0
  C  C499  1  0.656190  0.086860  0.530560  1.0
  C  C500  1  0.843810  0.469440  0.913140  1.0
  C  C501  1  0.353200  0.955450  0.467650  1.0
  C  C502  1  0.146800  0.532350  0.044550  1.0
  C  C503  1  0.646800  0.044550  0.532350  1.0
  C  C504  1  0.853200  0.467650  0.955450  1.0
  C  C505  1  0.399500  0.963790  0.444190  1.0
  C  C506  1  0.100500  0.555810  0.036210  1.0
  C  C507  1  0.600500  0.036210  0.555810  1.0
  C  C508  1  0.899500  0.444190  0.963790  1.0
  C  C509  1  0.436500  0.929960  0.422360  1.0
  C  C510  1  0.063500  0.577640  0.070040  1.0
  C  C511  1  0.563500  0.070040  0.577640  1.0
  C  C512  1  0.936500  0.422360  0.929960  1.0
  C  C513  1  0.427200  0.887600  0.424200  1.0
  C  C514  1  0.072800  0.575800  0.112400  1.0
  C  C515  1  0.572800  0.112400  0.575800  1.0
  C  C516  1  0.927200  0.424200  0.887600  1.0
  C  C517  1  0.380800  0.879230  0.447710  1.0
  C  C518  1  0.119200  0.552290  0.120770  1.0
  C  C519  1  0.619200  0.120770  0.552290  1.0
  C  C520  1  0.880800  0.447710  0.879230  1.0
  C  C521  1  0.522100  0.905000  0.384000  1.0
  C  C522  1  0.977900  0.616000  0.095000  1.0
  C  C523  1  0.477900  0.095000  0.616000  1.0
  C  C524  1  0.022100  0.384000  0.905000  1.0
  C  C525  1  0.537200  0.871400  0.422000  1.0
  C  C526  1  0.962800  0.578000  0.128600  1.0
  C  C527  1  0.462800  0.128600  0.578000  1.0
  C  C528  1  0.037200  0.422000  0.871400  1.0
  C  C529  1  0.581500  0.837000  0.414400  1.0
  C  C530  1  0.918500  0.585600  0.163000  1.0
  C  C531  1  0.418500  0.163000  0.585600  1.0
  C  C532  1  0.081500  0.414400  0.837000  1.0
  C  C533  1  0.610600  0.836300  0.368700  1.0
  C  C534  1  0.889400  0.631300  0.163700  1.0
  C  C535  1  0.389400  0.163700  0.631300  1.0
  C  C536  1  0.110600  0.368700  0.836300  1.0
  C  C537  1  0.595500  0.870000  0.330600  1.0
  C  C538  1  0.904500  0.669400  0.130000  1.0
  C  C539  1  0.404500  0.130000  0.669400  1.0
  C  C540  1  0.095500  0.330600  0.870000  1.0
  C  C541  1  0.551200  0.904300  0.338300  1.0
  C  C542  1  0.948800  0.661700  0.095700  1.0
  C  C543  1  0.448800  0.095700  0.661700  1.0
  C  C544  1  0.051200  0.338300  0.904300  1.0
  C  C545  1  0.483800  0.988500  0.371900  1.0
  C  C546  1  0.016200  0.628100  0.011500  1.0
  C  C547  1  0.516200  0.011500  0.628100  1.0
  C  C548  1  0.983800  0.371900  0.988500  1.0
  C  C549  1  0.520300  0.006800  0.374400  1.0
  C  C550  1  0.979700  0.625600  0.993200  1.0
  C  C551  1  0.479700  0.993200  0.625600  1.0
  C  C552  1  0.020300  0.374400  0.006800  1.0
  C  C553  1  0.524800  0.051700  0.348100  1.0
  C  C554  1  0.975200  0.651900  0.948300  1.0
  C  C555  1  0.475200  0.948300  0.651900  1.0
  C  C556  1  0.024800  0.348100  0.051700  1.0
  C  C557  1  0.492900  0.078100  0.319300  1.0
  C  C558  1  0.007100  0.680700  0.921900  1.0
  C  C559  1  0.507100  0.921900  0.680700  1.0
  C  C560  1  0.992900  0.319300  0.078100  1.0
  C  C561  1  0.456500  0.060000  0.316800  1.0
  C  C562  1  0.043500  0.683200  0.940000  1.0
  C  C563  1  0.543500  0.940000  0.683200  1.0
  C  C564  1  0.956500  0.316800  0.060000  1.0
  C  C565  1  0.451900  0.015100  0.343100  1.0
  C  C566  1  0.048100  0.656900  0.984900  1.0
  C  C567  1  0.548100  0.984900  0.656900  1.0
  C  C568  1  0.951900  0.343100  0.015100  1.0
  C  C569  1  0.531400  0.145200  0.299800  1.0
  C  C570  1  0.968600  0.700200  0.854800  1.0
  C  C571  1  0.468600  0.854800  0.700200  1.0
  C  C572  1  0.031400  0.299800  0.145200  1.0
  C  C573  1  0.912300  0.020850  0.258450  1.0
  C  C574  1  0.587700  0.741550  0.979150  1.0
  C  C575  1  0.087700  0.979150  0.741550  1.0
  C  C576  1  0.412300  0.258450  0.020850  1.0
  C  C577  1  0.894000  0.010500  0.227500  1.0
  C  C578  1  0.606000  0.772500  0.989500  1.0
  C  C579  1  0.106000  0.989500  0.772500  1.0
  C  C580  1  0.394000  0.227500  0.010500  1.0
  C  C581  1  0.927100  0.020380  0.185780  1.0
  C  C582  1  0.572900  0.814220  0.979620  1.0
  C  C583  1  0.072900  0.979620  0.814220  1.0
  C  C584  1  0.427100  0.185780  0.020380  1.0
  C  C585  1  0.993500  0.160440  0.195040  1.0
  C  C586  1  0.506500  0.804960  0.839560  1.0
  C  C587  1  0.006500  0.839560  0.804960  1.0
  C  C588  1  0.493500  0.195040  0.160440  1.0
  C  C589  1  0.999400  0.180700  0.147700  1.0
  C  C590  1  0.500600  0.852300  0.819300  1.0
  C  C591  1  0.000600  0.819300  0.852300  1.0
  C  C592  1  0.499400  0.147700  0.180700  1.0
  C  C593  1  0.003300  0.147000  0.126000  1.0
  C  C594  1  0.496700  0.874000  0.853000  1.0
  C  C595  1  0.996700  0.853000  0.874000  1.0
  C  C596  1  0.503300  0.126000  0.147000  1.0
  C  C597  1  0.097100  0.999180  0.224380  1.0
  C  C598  1  0.402900  0.775620  0.000820  1.0
  C  C599  1  0.902900  0.000820  0.775620  1.0
  C  C600  1  0.597100  0.224380  0.999180  1.0
  C  C601  1  0.123200  0.980920  0.184120  1.0
  C  C602  1  0.376800  0.815880  0.019080  1.0
  C  C603  1  0.876800  0.019080  0.815880  1.0
  C  C604  1  0.623200  0.184120  0.980920  1.0
  C  C605  1  0.094700  0.998000  0.154000  1.0
  C  C606  1  0.405300  0.846000  0.002000  1.0
  C  C607  1  0.905300  0.002000  0.846000  1.0
  C  C608  1  0.594700  0.154000  0.998000  1.0
  C  C609  1  0.280300  0.862640  0.384040  1.0
  C  C610  1  0.219700  0.615960  0.137360  1.0
  C  C611  1  0.719700  0.137360  0.615960  1.0
  C  C612  1  0.780300  0.384040  0.862640  1.0
  C  C613  1  0.328500  0.834900  0.379700  1.0
  C  C614  1  0.171500  0.620300  0.165100  1.0
  C  C615  1  0.671500  0.165100  0.620300  1.0
  C  C616  1  0.828500  0.379700  0.834900  1.0
  C  C617  1  0.330800  0.798900  0.360300  1.0
  C  C618  1  0.169200  0.639700  0.201100  1.0
  C  C619  1  0.669200  0.201100  0.639700  1.0
  C  C620  1  0.830800  0.360300  0.798900  1.0
  C  C621  1  0.195600  0.880550  0.262150  1.0
  C  C622  1  0.304400  0.737850  0.119450  1.0
  C  C623  1  0.804400  0.119450  0.737850  1.0
  C  C624  1  0.695600  0.262150  0.880550  1.0
  C  C625  1  0.225700  0.860190  0.224190  1.0
  C  C626  1  0.274300  0.775810  0.139810  1.0
  C  C627  1  0.774300  0.139810  0.775810  1.0
  C  C628  1  0.725700  0.224190  0.860190  1.0
  C  C629  1  0.256200  0.820440  0.244240  1.0
  C  C630  1  0.243800  0.755760  0.179560  1.0
  C  C631  1  0.743800  0.179560  0.755760  1.0
  C  C632  1  0.756200  0.244240  0.820440  1.0
  C  C633  1  0.149600  0.771920  0.417120  1.0
  C  C634  1  0.350400  0.582880  0.228080  1.0
  C  C635  1  0.850400  0.228080  0.582880  1.0
  C  C636  1  0.649600  0.417120  0.771920  1.0
  C  C637  1  0.167100  0.724030  0.416830  1.0
  C  C638  1  0.332900  0.583170  0.275970  1.0
  C  C639  1  0.832900  0.275970  0.583170  1.0
  C  C640  1  0.667100  0.416830  0.724030  1.0
  C  C641  1  0.211700  0.720730  0.384730  1.0
  C  C642  1  0.288300  0.615270  0.279270  1.0
  C  C643  1  0.788300  0.279270  0.615270  1.0
  C  C644  1  0.711700  0.384730  0.720730  1.0
  C  C645  1  0.716700  0.890700  0.432500  1.0
  C  C646  1  0.783300  0.567500  0.109300  1.0
  C  C647  1  0.283300  0.109300  0.567500  1.0
  C  C648  1  0.216700  0.432500  0.890700  1.0
  C  C649  1  0.687000  0.860300  0.443700  1.0
  C  C650  1  0.813000  0.556300  0.139700  1.0
  C  C651  1  0.313000  0.139700  0.556300  1.0
  C  C652  1  0.187000  0.443700  0.860300  1.0
  C  C653  1  0.718300  0.818000  0.438800  1.0
  C  C654  1  0.781700  0.561200  0.182000  1.0
  C  C655  1  0.281700  0.182000  0.561200  1.0
  C  C656  1  0.218300  0.438800  0.818000  1.0
  C  C657  1  0.881900  0.825200  0.473400  1.0
  C  C658  1  0.618100  0.526600  0.174800  1.0
  C  C659  1  0.118100  0.174800  0.526600  1.0
  C  C660  1  0.381900  0.473400  0.825200  1.0
  C  C661  1  0.893700  0.777400  0.495600  1.0
  C  C662  1  0.606300  0.504400  0.222600  1.0
  C  C663  1  0.106300  0.222600  0.504400  1.0
  C  C664  1  0.393700  0.495600  0.777400  1.0
  C  C665  1  0.870000  0.756200  0.477400  1.0
  C  C666  1  0.630000  0.522600  0.243800  1.0
  C  C667  1  0.130000  0.243800  0.522600  1.0
  C  C668  1  0.370000  0.477400  0.756200  1.0
  C  C669  1  0.875300  0.858500  0.305500  1.0
  C  C670  1  0.624700  0.694500  0.141500  1.0
  C  C671  1  0.124700  0.141500  0.694500  1.0
  C  C672  1  0.375300  0.305500  0.858500  1.0
  C  C673  1  0.881400  0.820400  0.286400  1.0
  C  C674  1  0.618600  0.713600  0.179600  1.0
  C  C675  1  0.118600  0.179600  0.713600  1.0
  C  C676  1  0.381400  0.286400  0.820400  1.0
  C  C677  1  0.863900  0.785700  0.324700  1.0
  C  C678  1  0.636100  0.675300  0.214300  1.0
  C  C679  1  0.136100  0.214300  0.675300  1.0
  C  C680  1  0.363900  0.324700  0.785700  1.0
  C  C681  1  0.879600  0.305910  0.456110  1.0
  C  C682  1  0.620400  0.543890  0.694090  1.0
  C  C683  1  0.120400  0.694090  0.543890  1.0
  C  C684  1  0.379600  0.456110  0.305910  1.0
  C  C685  1  0.856600  0.353100  0.452900  1.0
  C  C686  1  0.643400  0.547100  0.646900  1.0
  C  C687  1  0.143400  0.646900  0.547100  1.0
  C  C688  1  0.356600  0.452900  0.353100  1.0
  C  C689  1  0.881100  0.374400  0.411000  1.0
  C  C690  1  0.618900  0.589000  0.625600  1.0
  C  C691  1  0.118900  0.625600  0.589000  1.0
  C  C692  1  0.381100  0.411000  0.374400  1.0
  C  C693  1  0.938600  0.252550  0.305950  1.0
  C  C694  1  0.561400  0.694050  0.747450  1.0
  C  C695  1  0.061400  0.747450  0.694050  1.0
  C  C696  1  0.438600  0.305950  0.252550  1.0
  C  C697  1  0.932300  0.286200  0.266400  1.0
  C  C698  1  0.567700  0.733600  0.713800  1.0
  C  C699  1  0.067700  0.713800  0.733600  1.0
  C  C700  1  0.432300  0.266400  0.286200  1.0
  C  C701  1  0.936200  0.328200  0.272600  1.0
  C  C702  1  0.563800  0.727400  0.671800  1.0
  C  C703  1  0.063800  0.671800  0.727400  1.0
  C  C704  1  0.436200  0.272600  0.328200  1.0
  C  C705  1  0.061300  0.270260  0.382660  1.0
  C  C706  1  0.438700  0.617340  0.729740  1.0
  C  C707  1  0.938700  0.729740  0.617340  1.0
  C  C708  1  0.561300  0.382660  0.270260  1.0
  C  C709  1  0.079500  0.309400  0.364800  1.0
  C  C710  1  0.420500  0.635200  0.690600  1.0
  C  C711  1  0.920500  0.690600  0.635200  1.0
  C  C712  1  0.579500  0.364800  0.309400  1.0
  C  C713  1  0.044200  0.343700  0.344900  1.0
  C  C714  1  0.455800  0.655100  0.656300  1.0
  C  C715  1  0.955800  0.656300  0.655100  1.0
  C  C716  1  0.544200  0.344900  0.343700  1.0
  C  C717  1  0.032700  0.085790  0.278590  1.0
  C  C718  1  0.467300  0.721410  0.914210  1.0
  C  C719  1  0.967300  0.914210  0.721410  1.0
  C  C720  1  0.532700  0.278590  0.085790  1.0
  C  C721  1  0.996800  0.005870  0.309670  1.0
  C  C722  1  0.503200  0.690330  0.994130  1.0
  C  C723  1  0.003200  0.994130  0.690330  1.0
  C  C724  1  0.496800  0.309670  0.005870  1.0
  C  C725  1  0.937100  0.096440  0.296220  1.0
  C  C726  1  0.562900  0.703780  0.903560  1.0
  C  C727  1  0.062900  0.903560  0.703780  1.0
  C  C728  1  0.437100  0.296220  0.096440  1.0
  C  C729  1  0.116400  0.878990  0.362710  1.0
  C  C730  1  0.383600  0.637290  0.121010  1.0
  C  C731  1  0.883600  0.121010  0.637290  1.0
  C  C732  1  0.616400  0.362710  0.878990  1.0
  C  C733  1  0.167200  0.866220  0.433020  1.0
  C  C734  1  0.332800  0.566980  0.133780  1.0
  C  C735  1  0.832800  0.133780  0.566980  1.0
  C  C736  1  0.667200  0.433020  0.866220  1.0
  C  C737  1  0.184300  0.928150  0.346350  1.0
  C  C738  1  0.315700  0.653650  0.071850  1.0
  C  C739  1  0.815700  0.071850  0.653650  1.0
  C  C740  1  0.684300  0.346350  0.928150  1.0
  C  C741  1  0.887700  0.906740  0.382200  1.0
  C  C742  1  0.612300  0.617800  0.093260  1.0
  C  C743  1  0.112300  0.093260  0.617800  1.0
  C  C744  1  0.387700  0.382200  0.906740  1.0
  C  C745  1  0.802900  0.942200  0.357200  1.0
  C  C746  1  0.697100  0.642800  0.057800  1.0
  C  C747  1  0.197100  0.057800  0.642800  1.0
  C  C748  1  0.302900  0.357200  0.942200  1.0
  C  C749  1  0.801900  0.927000  0.446000  1.0
  C  C750  1  0.698100  0.554000  0.073000  1.0
  C  C751  1  0.198100  0.073000  0.554000  1.0
  C  C752  1  0.301900  0.446000  0.927000  1.0
  C  C753  1  0.010600  0.189900  0.375760  1.0
  C  C754  1  0.489400  0.624240  0.810100  1.0
  C  C755  1  0.989400  0.810100  0.624240  1.0
  C  C756  1  0.510600  0.375760  0.189900  1.0
  C  C757  1  0.980800  0.217990  0.457790  1.0
  C  C758  1  0.519200  0.542210  0.782010  1.0
  C  C759  1  0.019200  0.782010  0.542210  1.0
  C  C760  1  0.480800  0.457790  0.217990  1.0
  C  C761  1  0.916000  0.209850  0.422490  1.0
  C  C762  1  0.584000  0.577510  0.790150  1.0
  C  C763  1  0.084000  0.790150  0.577510  1.0
  C  C764  1  0.416000  0.422490  0.209850  1.0
  C  C765  1  0.995400  0.904000  0.469580  1.0
  C  C766  1  0.504600  0.530420  0.096000  1.0
  C  C767  1  0.004600  0.096000  0.530420  1.0
  C  C768  1  0.495400  0.469580  0.904000  1.0
  C  C769  1  0.000900  0.903590  0.516590  1.0
  C  C770  1  0.499100  0.483410  0.096410  1.0
  C  C771  1  0.999100  0.096410  0.483410  1.0
  C  C772  1  0.500900  0.516590  0.903590  1.0
  F  F773  1  0.358600  0.966100  0.990500  1
  F  F774  1  0.141400  0.009500  0.033900  1
  F  F775  1  0.641400  0.033900  0.009500  1
  F  F776  1  0.858600  0.990500  0.966100  1
  F  F777  1  0.310700  0.033900  0.955700  1
  F  F778  1  0.189300  0.044300  0.966100  1
  F  F779  1  0.689300  0.966100  0.044300  1
  F  F780  1  0.810700  0.955700  0.033900  1
  F  F781  1  0.355800  0.017500  0.886300  1
  F  F782  1  0.144200  0.113700  0.982500  1
  F  F783  1  0.644200  0.982500  0.113700  1
  F  F784  1  0.855800  0.886300  0.017500  1
  F  F785  1  0.400300  0.955900  0.915900  1
  F  F786  1  0.099700  0.084100  0.044100  1
  F  F787  1  0.599700  0.044100  0.084100  1
  F  F788  1  0.900300  0.915900  0.955900  1
  F  F789  1  0.390800  0.022000  0.939200  1
  F  F790  1  0.109200  0.060800  0.978000  1
  F  F791  1  0.609200  0.978000  0.060800  1
  F  F792  1  0.890800  0.939200  0.022000  1
  F  F793  1  0.319000  0.966600  0.937600  1
  F  F794  1  0.181000  0.062400  0.033400  1
  F  F795  1  0.681000  0.033400  0.062400  1
  F  F796  1  0.819000  0.937600  0.966600  1
  F  F797  1  0.250000  0.534600  0.465400  1
  F  F798  1  0.750000  0.465400  0.534600  1
  F  F799  1  0.250000  0.616800  0.383200  1
  F  F800  1  0.750000  0.383200  0.616800  1
  F  F801  1  0.347300  0.769370  0.496170  1
  F  F802  1  0.152700  0.503830  0.230630  1
  F  F803  1  0.652700  0.230630  0.503830  1
  F  F804  1  0.847300  0.496170  0.769370  1
  F  F805  1  0.343900  0.749100  0.604300  1
  F  F806  1  0.156100  0.395700  0.250900  1
  F  F807  1  0.656100  0.250900  0.395700  1
  F  F808  1  0.843900  0.604300  0.749100  1
  F  F809  1  0.306000  0.803400  0.554800  1
  F  F810  1  0.194000  0.445200  0.196600  1
  F  F811  1  0.694000  0.196600  0.445200  1
  F  F812  1  0.806000  0.554800  0.803400  1
  F  F813  1  0.318000  0.723000  0.560800  1
  F  F814  1  0.182000  0.439200  0.277000  1
  F  F815  1  0.682000  0.277000  0.439200  1
  F  F816  1  0.818000  0.560800  0.723000  1
  F  F817  1  0.395000  0.717200  0.547200  1
  F  F818  1  0.105000  0.452800  0.282800  1
  F  F819  1  0.605000  0.282800  0.452800  1
  F  F820  1  0.895000  0.547200  0.717200  1
  F  F821  1  0.385000  0.791500  0.532500  1
  F  F822  1  0.115000  0.467500  0.208500  1
  F  F823  1  0.615000  0.208500  0.467500  1
  F  F824  1  0.885000  0.532500  0.791500  1
  F  F825  1  0.234700  0.549100  0.396700  1.0
  F  F826  1  0.265300  0.603300  0.450900  1.0
  F  F827  1  0.765300  0.450900  0.603300  1.0
  F  F828  1  0.734700  0.396700  0.549100  1.0
  F  F829  1  0.204100  0.602400  0.450400  1.0
  F  F830  1  0.295900  0.549600  0.397600  1.0
  F  F831  1  0.795900  0.397600  0.549600  1.0
  F  F832  1  0.704100  0.450400  0.602400  1.0
  Fe  Fe833  1  0.993800  0.061600  0.257660  1.0
  Fe  Fe834  1  0.506200  0.742340  0.938400  1.0
  Fe  Fe835  1  0.006200  0.938400  0.742340  1.0
  Fe  Fe836  1  0.493800  0.257660  0.061600  1.0
  Fe  Fe837  1  0.183690  0.862460  0.367160  1.0
  Fe  Fe838  1  0.316310  0.632840  0.137540  1.0
  Fe  Fe839  1  0.816310  0.137540  0.632840  1.0
  Fe  Fe840  1  0.683690  0.367160  0.862460  1.0
  Fe  Fe841  1  0.826840  0.889250  0.400210  1.0
  Fe  Fe842  1  0.673160  0.599790  0.110750  1.0
  Fe  Fe843  1  0.173160  0.110750  0.599790  1.0
  Fe  Fe844  1  0.326840  0.400210  0.889250  1.0
  Fe  Fe845  1  0.965600  0.244410  0.397190  1.0
  Fe  Fe846  1  0.534400  0.602810  0.755590  1.0
  Fe  Fe847  1  0.034400  0.755590  0.602810  1.0
  Fe  Fe848  1  0.465600  0.397190  0.244410  1.0
  H  H849  1  0.051300  0.229500  0.291100  1.0
  H  H850  1  0.448700  0.708900  0.770500  1.0
  H  H851  1  0.948700  0.770500  0.708900  1.0
  H  H852  1  0.551300  0.291100  0.229500  1.0
  H  H853  1  0.064900  0.292900  0.228500  1.0
  H  H854  1  0.435100  0.771500  0.707100  1.0
  H  H855  1  0.935100  0.707100  0.771500  1.0
  H  H856  1  0.564900  0.228500  0.292900  1.0
  H  H857  1  0.129800  0.277400  0.160800  1.0
  H  H858  1  0.370200  0.839200  0.722600  1.0
  H  H859  1  0.870200  0.722600  0.839200  1.0
  H  H860  1  0.629800  0.160800  0.277400  1.0
  H  H861  1  0.180600  0.203000  0.162200  1.0
  H  H862  1  0.319400  0.837800  0.797000  1.0
  H  H863  1  0.819400  0.797000  0.837800  1.0
  H  H864  1  0.680600  0.162200  0.203000  1.0
  H  H865  1  0.233400  0.118100  0.170700  1.0
  H  H866  1  0.266600  0.829300  0.881900  1.0
  H  H867  1  0.766600  0.881900  0.829300  1.0
  H  H868  1  0.733400  0.170700  0.118100  1.0
  H  H869  1  0.193600  0.025300  0.284300  1.0
  H  H870  1  0.306400  0.715700  0.974700  1.0
  H  H871  1  0.806400  0.974700  0.715700  1.0
  H  H872  1  0.693600  0.284300  0.025300  1.0
  H  H873  1  0.311000  0.058700  0.159900  1.0
  H  H874  1  0.189000  0.840100  0.941300  1.0
  H  H875  1  0.689000  0.941300  0.840100  1.0
  H  H876  1  0.811000  0.159900  0.058700  1.0
  H  H877  1  0.377800  0.998400  0.131000  1.0
  H  H878  1  0.122200  0.869000  0.001600  1.0
  H  H879  1  0.622200  0.001600  0.869000  1.0
  H  H880  1  0.877800  0.131000  0.998400  1.0
  H  H881  1  0.304300  0.900500  0.222500  1.0
  H  H882  1  0.195700  0.777500  0.099500  1.0
  H  H883  1  0.695700  0.099500  0.777500  1.0
  H  H884  1  0.804300  0.222500  0.900500  1.0
  H  H885  1  0.237300  0.962600  0.246800  1.0
  H  H886  1  0.262700  0.753200  0.037400  1.0
  H  H887  1  0.762700  0.037400  0.753200  1.0
  H  H888  1  0.737300  0.246800  0.962600  1.0
  H  H889  1  0.480100  0.888200  0.147000  1.0
  H  H890  1  0.019900  0.853000  0.111800  1.0
  H  H891  1  0.519900  0.111800  0.853000  1.0
  H  H892  1  0.980100  0.147000  0.888200  1.0
  H  H893  1  0.543200  0.898100  0.077900  1.0
  H  H894  1  0.956800  0.922100  0.101900  1.0
  H  H895  1  0.456800  0.101900  0.922100  1.0
  H  H896  1  0.043200  0.077900  0.898100  1.0
  H  H897  1  0.523700  0.931600  0.004600  1.0
  H  H898  1  0.976300  0.995400  0.068400  1.0
  H  H899  1  0.476300  0.068400  0.995400  1.0
  H  H900  1  0.023700  0.004600  0.931600  1.0
  H  H901  1  0.441000  0.955300  0.000500  1.0
  H  H902  1  0.059000  0.999500  0.044700  1.0
  H  H903  1  0.559000  0.044700  0.999500  1.0
  H  H904  1  0.941000  0.000500  0.955300  1.0
  H  H905  1  0.377900  0.945400  0.069600  1.0
  H  H906  1  0.122100  0.930400  0.054600  1.0
  H  H907  1  0.622100  0.054600  0.930400  1.0
  H  H908  1  0.877900  0.069600  0.945400  1.0
  H  H909  1  0.366200  0.846200  0.124200  1.0
  H  H910  1  0.133800  0.875800  0.153800  1.0
  H  H911  1  0.633800  0.153800  0.875800  1.0
  H  H912  1  0.866200  0.124200  0.846200  1.0
  H  H913  1  0.369900  0.766500  0.157900  1.0
  H  H914  1  0.130100  0.842100  0.233500  1.0
  H  H915  1  0.630100  0.233500  0.842100  1.0
  H  H916  1  0.869900  0.157900  0.766500  1.0
  H  H917  1  0.404100  0.772700  0.269300  1.0
  H  H918  1  0.095900  0.730700  0.227300  1.0
  H  H919  1  0.595900  0.227300  0.730700  1.0
  H  H920  1  0.904100  0.269300  0.772700  1.0
  H  H921  1  0.403500  0.850100  0.240500  1.0
  H  H922  1  0.096500  0.759500  0.149900  1.0
  H  H923  1  0.596500  0.149900  0.759500  1.0
  H  H924  1  0.903500  0.240500  0.850100  1.0
  H  H925  1  0.396200  0.690600  0.185200  1.0
  H  H926  1  0.103800  0.814800  0.309400  1.0
  H  H927  1  0.603800  0.309400  0.814800  1.0
  H  H928  1  0.896200  0.185200  0.690600  1.0
  H  H929  1  0.340100  0.704000  0.215200  1.0
  H  H930  1  0.159900  0.784800  0.296000  1.0
  H  H931  1  0.659900  0.296000  0.784800  1.0
  H  H932  1  0.840100  0.215200  0.704000  1.0
  H  H933  1  0.378400  0.657800  0.235800  1.0
  H  H934  1  0.121600  0.764200  0.342200  1.0
  H  H935  1  0.621600  0.342200  0.764200  1.0
  H  H936  1  0.878400  0.235800  0.657800  1.0
  H  H937  1  0.065100  0.024300  0.354900  1.0
  H  H938  1  0.434900  0.645100  0.975700  1.0
  H  H939  1  0.934900  0.975700  0.645100  1.0
  H  H940  1  0.565100  0.354900  0.024300  1.0
  H  H941  1  0.063000  0.961500  0.418900  1.0
  H  H942  1  0.437000  0.581100  0.038500  1.0
  H  H943  1  0.937000  0.038500  0.581100  1.0
  H  H944  1  0.563000  0.418900  0.961500  1.0
  H  H945  1  0.105300  0.954400  0.474800  1.0
  H  H946  1  0.394700  0.525200  0.045600  1.0
  H  H947  1  0.894700  0.045600  0.525200  1.0
  H  H948  1  0.605300  0.474800  0.954400  1.0
  H  H949  1  0.141400  0.014700  0.467900  1.0
  H  H950  1  0.358600  0.532100  0.985300  1.0
  H  H951  1  0.858600  0.985300  0.532100  1.0
  H  H952  1  0.641400  0.467900  0.014700  1.0
  H  H953  1  0.173100  0.086900  0.455100  1.0
  H  H954  1  0.326900  0.544900  0.913100  1.0
  H  H955  1  0.826900  0.913100  0.544900  1.0
  H  H956  1  0.673100  0.455100  0.086900  1.0
  H  H957  1  0.163400  0.185600  0.340000  1.0
  H  H958  1  0.336600  0.660000  0.814400  1.0
  H  H959  1  0.836600  0.814400  0.660000  1.0
  H  H960  1  0.663400  0.340000  0.185600  1.0
  H  H961  1  0.241400  0.118500  0.453700  1.0
  H  H962  1  0.258600  0.546300  0.881500  1.0
  H  H963  1  0.758600  0.881500  0.546300  1.0
  H  H964  1  0.741400  0.453700  0.118500  1.0
  H  H965  1  0.285700  0.158700  0.469500  1.0
  H  H966  1  0.214300  0.530500  0.841300  1.0
  H  H967  1  0.714300  0.841300  0.530500  1.0
  H  H968  1  0.785700  0.469500  0.158700  1.0
  H  H969  1  0.224600  0.279300  0.386300  1.0
  H  H970  1  0.275400  0.613700  0.720700  1.0
  H  H971  1  0.775400  0.720700  0.613700  1.0
  H  H972  1  0.724600  0.386300  0.279300  1.0
  H  H973  1  0.176500  0.239600  0.374600  1.0
  H  H974  1  0.323500  0.625400  0.760400  1.0
  H  H975  1  0.823500  0.760400  0.625400  1.0
  H  H976  1  0.676500  0.374600  0.239600  1.0
  H  H977  1  0.358000  0.177200  0.387200  1.0
  H  H978  1  0.142000  0.612800  0.822800  1.0
  H  H979  1  0.642000  0.822800  0.612800  1.0
  H  H980  1  0.858000  0.387200  0.177200  1.0
  H  H981  1  0.440600  0.139900  0.388500  1.0
  H  H982  1  0.059400  0.611500  0.860100  1.0
  H  H983  1  0.559400  0.860100  0.611500  1.0
  H  H984  1  0.940600  0.388500  0.139900  1.0
  H  H985  1  0.478700  0.161400  0.432400  1.0
  H  H986  1  0.021300  0.567600  0.838600  1.0
  H  H987  1  0.521300  0.838600  0.567600  1.0
  H  H988  1  0.978700  0.432400  0.161400  1.0
  H  H989  1  0.434200  0.220300  0.475100  1.0
  H  H990  1  0.065800  0.524900  0.779700  1.0
  H  H991  1  0.565800  0.779700  0.524900  1.0
  H  H992  1  0.934200  0.475100  0.220300  1.0
  H  H993  1  0.351600  0.257700  0.473900  1.0
  H  H994  1  0.148400  0.526100  0.742300  1.0
  H  H995  1  0.648400  0.742300  0.526100  1.0
  H  H996  1  0.851600  0.473900  0.257700  1.0
  H  H997  1  0.222500  0.276400  0.498200  1.0
  H  H998  1  0.277500  0.501800  0.723600  1.0
  H  H999  1  0.777500  0.723600  0.501800  1.0
  H  H1000  1  0.722500  0.498200  0.276400  1.0
  H  H1001  1  0.190000  0.355400  0.504800  1.0
  H  H1002  1  0.310000  0.495200  0.644600  1.0
  H  H1003  1  0.810000  0.644600  0.495200  1.0
  H  H1004  1  0.690000  0.504800  0.355400  1.0
  H  H1005  1  0.293700  0.394600  0.387200  1.0
  H  H1006  1  0.206300  0.612800  0.605400  1.0
  H  H1007  1  0.706300  0.605400  0.612800  1.0
  H  H1008  1  0.793700  0.387200  0.394600  1.0
  H  H1009  1  0.326300  0.315600  0.380600  1.0
  H  H1010  1  0.173700  0.619400  0.684400  1.0
  H  H1011  1  0.673700  0.684400  0.619400  1.0
  H  H1012  1  0.826300  0.380600  0.315600  1.0
  H  H1013  1  0.166700  0.476300  0.486500  1.0
  H  H1014  1  0.333300  0.513500  0.523700  1.0
  H  H1015  1  0.833300  0.523700  0.513500  1.0
  H  H1016  1  0.666700  0.486500  0.476300  1.0
  H  H1017  1  0.182200  0.425600  0.520000  1.0
  H  H1018  1  0.317800  0.480000  0.574400  1.0
  H  H1019  1  0.817800  0.574400  0.480000  1.0
  H  H1020  1  0.682200  0.520000  0.425600  1.0
  H  H1021  1  0.149500  0.432500  0.484500  1.0
  H  H1022  1  0.350500  0.515500  0.567500  1.0
  H  H1023  1  0.850500  0.567500  0.515500  1.0
  H  H1024  1  0.649500  0.484500  0.432500  1.0
  H  H1025  1  0.016800  0.947800  0.252600  1.0
  H  H1026  1  0.483200  0.747400  0.052200  1.0
  H  H1027  1  0.983200  0.052200  0.747400  1.0
  H  H1028  1  0.516800  0.252600  0.947800  1.0
  H  H1029  1  0.006800  0.929400  0.187000  1.0
  H  H1030  1  0.493200  0.813000  0.070600  1.0
  H  H1031  1  0.993200  0.070600  0.813000  1.0
  H  H1032  1  0.506800  0.187000  0.929400  1.0
  H  H1033  1  0.992000  0.857400  0.194400  1.0
  H  H1034  1  0.508000  0.805600  0.142600  1.0
  H  H1035  1  0.008000  0.142600  0.805600  1.0
  H  H1036  1  0.492000  0.194400  0.857400  1.0
  H  H1037  1  0.993300  0.801200  0.266400  1.0
  H  H1038  1  0.506700  0.733600  0.198800  1.0
  H  H1039  1  0.006700  0.198800  0.733600  1.0
  H  H1040  1  0.493300  0.266400  0.801200  1.0
  H  H1041  1  0.995600  0.744700  0.347100  1.0
  H  H1042  1  0.504400  0.652900  0.255300  1.0
  H  H1043  1  0.004400  0.255300  0.652900  1.0
  H  H1044  1  0.495600  0.347100  0.744700  1.0
  H  H1045  1  0.009600  0.794000  0.445000  1.0
  H  H1046  1  0.490400  0.555000  0.206000  1.0
  H  H1047  1  0.990400  0.206000  0.555000  1.0
  H  H1048  1  0.509600  0.445000  0.794000  1.0
  H  H1049  1  0.963500  0.682700  0.418700  1.0
  H  H1050  1  0.536500  0.581300  0.317300  1.0
  H  H1051  1  0.036500  0.317300  0.581300  1.0
  H  H1052  1  0.463500  0.418700  0.682700  1.0
  H  H1053  1  0.967500  0.609800  0.471800  1.0
  H  H1054  1  0.532500  0.528200  0.390200  1.0
  H  H1055  1  0.032500  0.390200  0.528200  1.0
  H  H1056  1  0.467500  0.471800  0.609800  1.0
  H  H1057  1  0.047800  0.645800  0.534800  1.0
  H  H1058  1  0.452200  0.465200  0.354200  1.0
  H  H1059  1  0.952200  0.354200  0.465200  1.0
  H  H1060  1  0.547800  0.534800  0.645800  1.0
  H  H1061  1  0.046200  0.714700  0.481100  1.0
  H  H1062  1  0.453800  0.518900  0.285300  1.0
  H  H1063  1  0.953800  0.285300  0.518900  1.0
  H  H1064  1  0.546200  0.481100  0.714700  1.0
  H  H1065  1  0.914700  0.608000  0.566200  1.0
  H  H1066  1  0.585300  0.433800  0.392000  1.0
  H  H1067  1  0.085300  0.392000  0.433800  1.0
  H  H1068  1  0.414700  0.566200  0.608000  1.0
  H  H1069  1  0.849200  0.571500  0.580900  1.0
  H  H1070  1  0.650800  0.419100  0.428500  1.0
  H  H1071  1  0.150800  0.428500  0.419100  1.0
  H  H1072  1  0.349200  0.580900  0.571500  1.0
  H  H1073  1  0.868700  0.488900  0.584900  1.0
  H  H1074  1  0.631300  0.415100  0.511100  1.0
  H  H1075  1  0.131300  0.511100  0.415100  1.0
  H  H1076  1  0.368700  0.584900  0.488900  1.0
  H  H1077  1  0.953100  0.448400  0.570600  1.0
  H  H1078  1  0.546900  0.429400  0.551600  1.0
  H  H1079  1  0.046900  0.551600  0.429400  1.0
  H  H1080  1  0.453100  0.570600  0.448400  1.0
  H  H1081  1  0.017100  0.489000  0.549600  1.0
  H  H1082  1  0.482900  0.450400  0.511000  1.0
  H  H1083  1  0.982900  0.511000  0.450400  1.0
  H  H1084  1  0.517100  0.549600  0.489000  1.0
  H  H1085  1  0.013000  0.537500  0.631500  1.0
  H  H1086  1  0.487000  0.368500  0.462500  1.0
  H  H1087  1  0.987000  0.462500  0.368500  1.0
  H  H1088  1  0.513000  0.631500  0.537500  1.0
  H  H1089  1  0.082500  0.495900  0.661300  1.0
  H  H1090  1  0.417500  0.338700  0.504100  1.0
  H  H1091  1  0.917500  0.504100  0.338700  1.0
  H  H1092  1  0.582500  0.661300  0.495900  1.0
  H  H1093  1  0.171300  0.519000  0.529000  1.0
  H  H1094  1  0.328700  0.471000  0.481000  1.0
  H  H1095  1  0.828700  0.481000  0.471000  1.0
  H  H1096  1  0.671300  0.529000  0.519000  1.0
  H  H1097  1  0.101800  0.560600  0.499000  1.0
  H  H1098  1  0.398200  0.501000  0.439400  1.0
  H  H1099  1  0.898200  0.439400  0.501000  1.0
  H  H1100  1  0.601800  0.499000  0.560600  1.0
  H  H1101  1  0.202500  0.441200  0.672400  1.0
  H  H1102  1  0.297500  0.327600  0.558800  1.0
  H  H1103  1  0.797500  0.558800  0.327600  1.0
  H  H1104  1  0.702500  0.672400  0.441200  1.0
  H  H1105  1  0.145100  0.444200  0.681200  1.0
  H  H1106  1  0.354900  0.318800  0.555800  1.0
  H  H1107  1  0.854900  0.555800  0.318800  1.0
  H  H1108  1  0.645100  0.681200  0.444200  1.0
  H  H1109  1  0.161900  0.489800  0.679000  1.0
  H  H1110  1  0.338100  0.321000  0.510200  1.0
  H  H1111  1  0.838100  0.510200  0.321000  1.0
  H  H1112  1  0.661900  0.679000  0.489800  1.0
  H  H1113  1  0.232300  0.784900  0.453100  1.0
  H  H1114  1  0.267700  0.546900  0.215100  1.0
  H  H1115  1  0.767700  0.215100  0.546900  1.0
  H  H1116  1  0.732300  0.453100  0.784900  1.0
  H  H1117  1  0.278900  0.709200  0.444200  1.0
  H  H1118  1  0.221100  0.555800  0.290800  1.0
  H  H1119  1  0.721100  0.290800  0.555800  1.0
  H  H1120  1  0.778900  0.444200  0.709200  1.0
  H  H1121  1  0.295200  0.650600  0.510400  1.0
  H  H1122  1  0.204800  0.489600  0.349400  1.0
  H  H1123  1  0.704800  0.349400  0.489600  1.0
  H  H1124  1  0.795200  0.510400  0.650600  1.0
  H  H1125  1  0.266700  0.667700  0.584100  1.0
  H  H1126  1  0.233300  0.415900  0.332300  1.0
  H  H1127  1  0.733300  0.332300  0.415900  1.0
  H  H1128  1  0.766700  0.584100  0.667700  1.0
  H  H1129  1  0.228000  0.695300  0.660700  1.0
  H  H1130  1  0.272000  0.339300  0.304700  1.0
  H  H1131  1  0.772000  0.304700  0.339300  1.0
  H  H1132  1  0.728000  0.660700  0.695300  1.0
  H  H1133  1  0.152900  0.826700  0.659500  1.0
  H  H1134  1  0.347100  0.340500  0.173300  1.0
  H  H1135  1  0.847100  0.173300  0.340500  1.0
  H  H1136  1  0.652900  0.659500  0.826700  1.0
  H  H1137  1  0.225400  0.690600  0.741400  1.0
  H  H1138  1  0.274600  0.258600  0.309400  1.0
  H  H1139  1  0.774600  0.309400  0.258600  1.0
  H  H1140  1  0.725400  0.741400  0.690600  1.0
  H  H1141  1  0.217000  0.682700  0.821900  1.0
  H  H1142  1  0.283000  0.178100  0.317300  1.0
  H  H1143  1  0.783000  0.317300  0.178100  1.0
  H  H1144  1  0.717000  0.821900  0.682700  1.0
  H  H1145  1  0.101300  0.793100  0.823700  1.0
  H  H1146  1  0.398700  0.176300  0.206900  1.0
  H  H1147  1  0.898700  0.206900  0.176300  1.0
  H  H1148  1  0.601300  0.823700  0.793100  1.0
  H  H1149  1  0.112300  0.805600  0.740200  1.0
  H  H1150  1  0.387700  0.259800  0.194400  1.0
  H  H1151  1  0.887700  0.194400  0.259800  1.0
  H  H1152  1  0.612300  0.740200  0.805600  1.0
  H  H1153  1  0.151400  0.655400  0.891400  1.0
  H  H1154  1  0.348600  0.108600  0.344600  1.0
  H  H1155  1  0.848600  0.344600  0.108600  1.0
  H  H1156  1  0.651400  0.891400  0.655400  1.0
  H  H1157  1  0.184200  0.587600  0.943400  1.0
  H  H1158  1  0.315800  0.056600  0.412400  1.0
  H  H1159  1  0.815800  0.412400  0.056600  1.0
  H  H1160  1  0.684200  0.943400  0.587600  1.0
  H  H1161  1  0.233500  0.592100  0.987700  1.0
  H  H1162  1  0.266500  0.012300  0.407900  1.0
  H  H1163  1  0.766500  0.407900  0.012300  1.0
  H  H1164  1  0.733500  0.987700  0.592100  1.0
  H  H1165  1  0.250100  0.664200  0.980200  1.0
  H  H1166  1  0.249900  0.019800  0.335800  1.0
  H  H1167  1  0.749900  0.335800  0.019800  1.0
  H  H1168  1  0.750100  0.980200  0.664200  1.0
  H  H1169  1  0.217300  0.732000  0.928200  1.0
  H  H1170  1  0.282700  0.071800  0.268000  1.0
  H  H1171  1  0.782700  0.268000  0.071800  1.0
  H  H1172  1  0.717300  0.928200  0.732000  1.0
  H  H1173  1  0.090700  0.752500  0.953500  1.0
  H  H1174  1  0.409300  0.046500  0.247500  1.0
  H  H1175  1  0.909300  0.247500  0.046500  1.0
  H  H1176  1  0.590700  0.953500  0.752500  1.0
  H  H1177  1  0.045600  0.824000  0.981600  1.0
  H  H1178  1  0.454400  0.018400  0.176000  1.0
  H  H1179  1  0.954400  0.176000  0.018400  1.0
  H  H1180  1  0.545600  0.981600  0.824000  1.0
  H  H1181  1  0.135500  0.893300  0.869900  1.0
  H  H1182  1  0.364500  0.130100  0.106700  1.0
  H  H1183  1  0.864500  0.106700  0.130100  1.0
  H  H1184  1  0.635500  0.869900  0.893300  1.0
  H  H1185  1  0.175700  0.827600  0.843200  1.0
  H  H1186  1  0.324300  0.156800  0.172400  1.0
  H  H1187  1  0.824300  0.172400  0.156800  1.0
  H  H1188  1  0.675700  0.843200  0.827600  1.0
  H  H1189  1  0.007700  0.940100  0.988300  1.0
  H  H1190  1  0.492300  0.011700  0.059900  1.0
  H  H1191  1  0.992300  0.059900  0.011700  1.0
  H  H1192  1  0.507700  0.988300  0.940100  1.0
  H  H1193  1  0.027900  0.885000  0.009000  1.0
  H  H1194  1  0.472100  0.991000  0.115000  1.0
  H  H1195  1  0.972100  0.115000  0.991000  1.0
  H  H1196  1  0.527900  0.009000  0.885000  1.0
  H  H1197  1  0.993600  0.901600  0.972800  1.0
  H  H1198  1  0.506400  0.027200  0.098400  1.0
  H  H1199  1  0.006400  0.098400  0.027200  1.0
  H  H1200  1  0.493600  0.972800  0.901600  1.0
  H  H1201  1  0.067400  0.887900  0.587500  1.0
  H  H1202  1  0.432600  0.412500  0.112100  1.0
  H  H1203  1  0.932600  0.112100  0.412500  1.0
  H  H1204  1  0.567400  0.587500  0.887900  1.0
  H  H1205  1  0.027200  0.962800  0.601200  1.0
  H  H1206  1  0.472800  0.398800  0.037200  1.0
  H  H1207  1  0.972800  0.037200  0.398800  1.0
  H  H1208  1  0.527200  0.601200  0.962800  1.0
  H  H1209  1  0.074200  0.016600  0.590600  1.0
  H  H1210  1  0.425800  0.409400  0.983400  1.0
  H  H1211  1  0.925800  0.983400  0.409400  1.0
  H  H1212  1  0.574200  0.590600  0.016600  1.0
  H  H1213  1  0.158000  0.997500  0.553900  1.0
  H  H1214  1  0.342000  0.446100  0.002500  1.0
  H  H1215  1  0.842000  0.002500  0.446100  1.0
  H  H1216  1  0.658000  0.553900  0.997500  1.0
  H  H1217  1  0.248900  0.970500  0.510500  1.0
  H  H1218  1  0.251100  0.489500  0.029500  1.0
  H  H1219  1  0.751100  0.029500  0.489500  1.0
  H  H1220  1  0.748900  0.510500  0.970500  1.0
  H  H1221  1  0.299000  0.840200  0.493800  1.0
  H  H1222  1  0.201000  0.506200  0.159800  1.0
  H  H1223  1  0.701000  0.159800  0.506200  1.0
  H  H1224  1  0.799000  0.493800  0.840200  1.0
  H  H1225  1  0.327900  0.978700  0.482500  1.0
  H  H1226  1  0.172100  0.517500  0.021300  1.0
  H  H1227  1  0.672100  0.021300  0.517500  1.0
  H  H1228  1  0.827900  0.482500  0.978700  1.0
  H  H1229  1  0.405900  0.992700  0.442900  1.0
  H  H1230  1  0.094100  0.557100  0.007300  1.0
  H  H1231  1  0.594100  0.007300  0.557100  1.0
  H  H1232  1  0.905900  0.442900  0.992700  1.0
  H  H1233  1  0.452500  0.864500  0.409300  1.0
  H  H1234  1  0.047500  0.590700  0.135500  1.0
  H  H1235  1  0.547500  0.135500  0.590700  1.0
  H  H1236  1  0.952500  0.409300  0.864500  1.0
  H  H1237  1  0.374400  0.850300  0.448900  1.0
  H  H1238  1  0.125600  0.551100  0.149700  1.0
  H  H1239  1  0.625600  0.149700  0.551100  1.0
  H  H1240  1  0.874400  0.448900  0.850300  1.0
  H  H1241  1  0.517300  0.871900  0.453300  1.0
  H  H1242  1  0.982700  0.546700  0.128100  1.0
  H  H1243  1  0.482700  0.128100  0.546700  1.0
  H  H1244  1  0.017300  0.453300  0.871900  1.0
  H  H1245  1  0.591800  0.814200  0.440400  1.0
  H  H1246  1  0.908200  0.559600  0.185800  1.0
  H  H1247  1  0.408200  0.185800  0.559600  1.0
  H  H1248  1  0.091800  0.440400  0.814200  1.0
  H  H1249  1  0.640900  0.812900  0.363500  1.0
  H  H1250  1  0.859100  0.636500  0.187100  1.0
  H  H1251  1  0.359100  0.187100  0.636500  1.0
  H  H1252  1  0.140900  0.363500  0.812900  1.0
  H  H1253  1  0.615400  0.869500  0.299300  1.0
  H  H1254  1  0.884600  0.700700  0.130500  1.0
  H  H1255  1  0.384600  0.130500  0.700700  1.0
  H  H1256  1  0.115400  0.299300  0.869500  1.0
  H  H1257  1  0.540900  0.927200  0.312200  1.0
  H  H1258  1  0.959100  0.687800  0.072800  1.0
  H  H1259  1  0.459100  0.072800  0.687800  1.0
  H  H1260  1  0.040900  0.312200  0.927200  1.0
  H  H1261  1  0.542100  0.988700  0.394100  1.0
  H  H1262  1  0.957900  0.605900  0.011300  1.0
  H  H1263  1  0.457900  0.011300  0.605900  1.0
  H  H1264  1  0.042100  0.394100  0.988700  1.0
  H  H1265  1  0.549700  0.064000  0.349800  1.0
  H  H1266  1  0.950300  0.650200  0.936000  1.0
  H  H1267  1  0.450300  0.936000  0.650200  1.0
  H  H1268  1  0.049700  0.349800  0.064000  1.0
  H  H1269  1  0.434700  0.078100  0.297100  1.0
  H  H1270  1  0.065300  0.702900  0.921900  1.0
  H  H1271  1  0.565300  0.921900  0.702900  1.0
  H  H1272  1  0.934700  0.297100  0.078100  1.0
  H  H1273  1  0.427000  0.002600  0.341400  1.0
  H  H1274  1  0.073000  0.658600  0.997400  1.0
  H  H1275  1  0.573000  0.997400  0.658600  1.0
  H  H1276  1  0.927000  0.341400  0.002600  1.0
  H  H1277  1  0.525400  0.178800  0.284600  1.0
  H  H1278  1  0.974600  0.715400  0.821200  1.0
  H  H1279  1  0.474600  0.821200  0.715400  1.0
  H  H1280  1  0.025400  0.284600  0.178800  1.0
  H  H1281  1  0.563200  0.128100  0.282900  1.0
  H  H1282  1  0.936800  0.717100  0.871900  1.0
  H  H1283  1  0.436800  0.871900  0.717100  1.0
  H  H1284  1  0.063200  0.282900  0.128100  1.0
  H  H1285  1  0.531900  0.141100  0.332700  1.0
  H  H1286  1  0.968100  0.667300  0.858900  1.0
  H  H1287  1  0.468100  0.858900  0.667300  1.0
  H  H1288  1  0.031900  0.332700  0.141100  1.0
  H  H1289  1  0.008900  0.053700  0.122700  1.0
  H  H1290  1  0.491100  0.877300  0.946300  1.0
  H  H1291  1  0.991100  0.946300  0.877300  1.0
  H  H1292  1  0.508900  0.122700  0.053700  1.0
  H  H1293  1  0.898100  0.016200  0.291600  1.0
  H  H1294  1  0.601900  0.708400  0.983800  1.0
  H  H1295  1  0.101900  0.983800  0.708400  1.0
  H  H1296  1  0.398100  0.291600  0.016200  1.0
  H  H1297  1  0.865400  0.999300  0.233900  1.0
  H  H1298  1  0.634600  0.766100  0.000700  1.0
  H  H1299  1  0.134600  0.000700  0.766100  1.0
  H  H1300  1  0.365400  0.233900  0.999300  1.0
  H  H1301  1  0.926700  0.015400  0.156800  1.0
  H  H1302  1  0.573300  0.843200  0.984600  1.0
  H  H1303  1  0.073300  0.984600  0.843200  1.0
  H  H1304  1  0.426700  0.156800  0.015400  1.0
  H  H1305  1  0.990200  0.176200  0.218800  1.0
  H  H1306  1  0.509800  0.781200  0.823800  1.0
  H  H1307  1  0.009800  0.823800  0.781200  1.0
  H  H1308  1  0.490200  0.218800  0.176200  1.0
  H  H1309  1  0.000500  0.212600  0.133000  1.0
  H  H1310  1  0.499500  0.867000  0.787400  1.0
  H  H1311  1  0.999500  0.787400  0.867000  1.0
  H  H1312  1  0.500500  0.133000  0.212600  1.0
  H  H1313  1  0.008100  0.150700  0.092900  1.0
  H  H1314  1  0.491900  0.907100  0.849300  1.0
  H  H1315  1  0.991900  0.849300  0.907100  1.0
  H  H1316  1  0.508100  0.092900  0.150700  1.0
  H  H1317  1  0.108900  0.994100  0.251500  1.0
  H  H1318  1  0.391100  0.748500  0.005900  1.0
  H  H1319  1  0.891100  0.005900  0.748500  1.0
  H  H1320  1  0.608900  0.251500  0.994100  1.0
  H  H1321  1  0.155400  0.960200  0.179200  1.0
  H  H1322  1  0.344600  0.820800  0.039800  1.0
  H  H1323  1  0.844600  0.039800  0.820800  1.0
  H  H1324  1  0.655400  0.179200  0.960200  1.0
  H  H1325  1  0.103300  0.992600  0.123000  1.0
  H  H1326  1  0.396700  0.877000  0.007400  1.0
  H  H1327  1  0.896700  0.007400  0.877000  1.0
  H  H1328  1  0.603300  0.123000  0.992600  1.0
  H  H1329  1  0.292900  0.753100  0.318100  1.0
  H  H1330  1  0.207100  0.681900  0.246900  1.0
  H  H1331  1  0.707100  0.246900  0.681900  1.0
  H  H1332  1  0.792900  0.318100  0.753100  1.0
  H  H1333  1  0.267900  0.890700  0.395900  1.0
  H  H1334  1  0.232100  0.604100  0.109300  1.0
  H  H1335  1  0.732100  0.109300  0.604100  1.0
  H  H1336  1  0.767900  0.395900  0.890700  1.0
  H  H1337  1  0.354400  0.839800  0.388400  1.0
  H  H1338  1  0.145600  0.611600  0.160200  1.0
  H  H1339  1  0.645600  0.160200  0.611600  1.0
  H  H1340  1  0.854400  0.388400  0.839800  1.0
  H  H1341  1  0.359000  0.774000  0.352600  1.0
  H  H1342  1  0.141000  0.647400  0.226000  1.0
  H  H1343  1  0.641000  0.226000  0.647400  1.0
  H  H1344  1  0.859000  0.352600  0.774000  1.0
  H  H1345  1  0.170600  0.909300  0.259900  1.0
  H  H1346  1  0.329400  0.740100  0.090700  1.0
  H  H1347  1  0.829400  0.090700  0.740100  1.0
  H  H1348  1  0.670600  0.259900  0.909300  1.0
  H  H1349  1  0.225100  0.871400  0.191800  1.0
  H  H1350  1  0.274900  0.808200  0.128600  1.0
  H  H1351  1  0.774900  0.128600  0.808200  1.0
  H  H1352  1  0.725100  0.191800  0.871400  1.0
  H  H1353  1  0.282200  0.799100  0.227700  1.0
  H  H1354  1  0.217800  0.772300  0.200900  1.0
  H  H1355  1  0.717800  0.200900  0.772300  1.0
  H  H1356  1  0.782200  0.227700  0.799100  1.0
  H  H1357  1  0.118800  0.786000  0.436000  1.0
  H  H1358  1  0.381200  0.564000  0.214000  1.0
  H  H1359  1  0.881200  0.214000  0.564000  1.0
  H  H1360  1  0.618800  0.436000  0.786000  1.0
  H  H1361  1  0.151400  0.699200  0.435000  1.0
  H  H1362  1  0.348600  0.565000  0.300800  1.0
  H  H1363  1  0.848600  0.300800  0.565000  1.0
  H  H1364  1  0.651400  0.435000  0.699200  1.0
  H  H1365  1  0.233100  0.692400  0.376000  1.0
  H  H1366  1  0.266900  0.624000  0.307600  1.0
  H  H1367  1  0.766900  0.307600  0.624000  1.0
  H  H1368  1  0.733100  0.376000  0.692400  1.0
  H  H1369  1  0.816300  0.753900  0.421100  1.0
  H  H1370  1  0.683700  0.578900  0.246100  1.0
  H  H1371  1  0.183700  0.246100  0.578900  1.0
  H  H1372  1  0.316300  0.421100  0.753900  1.0
  H  H1373  1  0.705000  0.923200  0.433200  1.0
  H  H1374  1  0.795000  0.566800  0.076800  1.0
  H  H1375  1  0.295000  0.076800  0.566800  1.0
  H  H1376  1  0.205000  0.433200  0.923200  1.0
  H  H1377  1  0.651900  0.867700  0.452900  1.0
  H  H1378  1  0.848100  0.547100  0.132300  1.0
  H  H1379  1  0.348100  0.132300  0.547100  1.0
  H  H1380  1  0.151900  0.452900  0.867700  1.0
  H  H1381  1  0.708500  0.789900  0.443700  1.0
  H  H1382  1  0.791500  0.556300  0.210100  1.0
  H  H1383  1  0.291500  0.210100  0.556300  1.0
  H  H1384  1  0.208500  0.443700  0.789900  1.0
  H  H1385  1  0.892100  0.849400  0.478200  1.0
  H  H1386  1  0.607900  0.521800  0.150600  1.0
  H  H1387  1  0.107900  0.150600  0.521800  1.0
  H  H1388  1  0.392100  0.478200  0.849400  1.0
  H  H1389  1  0.913200  0.762600  0.518000  1.0
  H  H1390  1  0.586800  0.482000  0.237400  1.0
  H  H1391  1  0.086800  0.237400  0.482000  1.0
  H  H1392  1  0.413200  0.518000  0.762600  1.0
  H  H1393  1  0.870600  0.723500  0.485100  1.0
  H  H1394  1  0.629400  0.514900  0.276500  1.0
  H  H1395  1  0.129400  0.276500  0.514900  1.0
  H  H1396  1  0.370600  0.485100  0.723500  1.0
  H  H1397  1  0.886900  0.885900  0.288100  1.0
  H  H1398  1  0.613100  0.711900  0.114100  1.0
  H  H1399  1  0.113100  0.114100  0.711900  1.0
  H  H1400  1  0.386900  0.288100  0.885900  1.0
  H  H1401  1  0.894500  0.818400  0.254200  1.0
  H  H1402  1  0.605500  0.745800  0.181600  1.0
  H  H1403  1  0.105500  0.181600  0.745800  1.0
  H  H1404  1  0.394500  0.254200  0.818400  1.0
  H  H1405  1  0.865300  0.754500  0.324100  1.0
  H  H1406  1  0.634700  0.675900  0.245500  1.0
  H  H1407  1  0.134700  0.245500  0.675900  1.0
  H  H1408  1  0.365300  0.324100  0.754500  1.0
  H  H1409  1  0.951700  0.382000  0.325200  1.0
  H  H1410  1  0.548300  0.674800  0.618000  1.0
  H  H1411  1  0.048300  0.618000  0.674800  1.0
  H  H1412  1  0.451700  0.325200  0.382000  1.0
  H  H1413  1  0.870000  0.281200  0.481600  1.0
  H  H1414  1  0.630000  0.518400  0.718800  1.0
  H  H1415  1  0.130000  0.718800  0.518400  1.0
  H  H1416  1  0.370000  0.481600  0.281200  1.0
  H  H1417  1  0.829500  0.367300  0.475300  1.0
  H  H1418  1  0.670500  0.524700  0.632700  1.0
  H  H1419  1  0.170500  0.632700  0.524700  1.0
  H  H1420  1  0.329500  0.475300  0.367300  1.0
  H  H1421  1  0.873500  0.407700  0.398300  1.0
  H  H1422  1  0.626500  0.601700  0.592300  1.0
  H  H1423  1  0.126500  0.592300  0.601700  1.0
  H  H1424  1  0.373500  0.398300  0.407700  1.0
  H  H1425  1  0.935300  0.221200  0.312200  1.0
  H  H1426  1  0.564700  0.687800  0.778800  1.0
  H  H1427  1  0.064700  0.778800  0.687800  1.0
  H  H1428  1  0.435300  0.312200  0.221200  1.0
  H  H1429  1  0.926300  0.282100  0.239300  1.0
  H  H1430  1  0.573700  0.760700  0.717900  1.0
  H  H1431  1  0.073700  0.717900  0.760700  1.0
  H  H1432  1  0.426300  0.239300  0.282100  1.0
  H  H1433  1  0.931600  0.358200  0.251400  1.0
  H  H1434  1  0.568400  0.748600  0.641800  1.0
  H  H1435  1  0.068400  0.641800  0.748600  1.0
  H  H1436  1  0.431600  0.251400  0.358200  1.0
  H  H1437  1  0.078000  0.240700  0.398500  1.0
  H  H1438  1  0.422000  0.601500  0.759300  1.0
  H  H1439  1  0.922000  0.759300  0.601500  1.0
  H  H1440  1  0.578000  0.398500  0.240700  1.0
  H  H1441  1  0.110300  0.312300  0.365900  1.0
  H  H1442  1  0.389700  0.634100  0.687700  1.0
  H  H1443  1  0.889700  0.687700  0.634100  1.0
  H  H1444  1  0.610300  0.365900  0.312300  1.0
  H  H1445  1  0.046700  0.374800  0.328400  1.0
  H  H1446  1  0.453300  0.671600  0.625200  1.0
  H  H1447  1  0.953300  0.625200  0.671600  1.0
  H  H1448  1  0.546700  0.328400  0.374800  1.0
  N  N1449  1  0.320900  0.715290  0.763090  1
  N  N1450  1  0.179100  0.236910  0.284710  1
  N  N1451  1  0.679100  0.284710  0.236910  1
  N  N1452  1  0.820900  0.763090  0.715290  1
  N  N1453  1  0.277400  0.860900  0.615100  1
  N  N1454  1  0.222600  0.384900  0.139100  1
  N  N1455  1  0.722600  0.139100  0.384900  1
  N  N1456  1  0.777400  0.615100  0.860900  1
  N  N1457  1  0.107300  0.180840  0.265660  1.0
  N  N1458  1  0.392700  0.734340  0.819160  1.0
  N  N1459  1  0.892700  0.819160  0.734340  1.0
  N  N1460  1  0.607300  0.265660  0.180840  1.0
  N  N1461  1  0.162000  0.093160  0.269960  1.0
  N  N1462  1  0.338000  0.730040  0.906840  1.0
  N  N1463  1  0.838000  0.906840  0.730040  1.0
  N  N1464  1  0.662000  0.269960  0.093160  1.0
  N  N1465  1  0.194400  0.052390  0.263610  1.0
  N  N1466  1  0.305600  0.736390  0.947610  1.0
  N  N1467  1  0.805600  0.947610  0.736390  1.0
  N  N1468  1  0.694400  0.263610  0.052390  1.0
  N  N1469  1  0.384900  0.906500  0.157700  1.0
  N  N1470  1  0.115100  0.842300  0.093500  1.0
  N  N1471  1  0.615100  0.093500  0.842300  1.0
  N  N1472  1  0.884900  0.157700  0.906500  1.0
  N  N1473  1  0.101000  0.057550  0.374010  1.0
  N  N1474  1  0.399000  0.625990  0.942450  1.0
  N  N1475  1  0.899000  0.942450  0.625990  1.0
  N  N1476  1  0.601000  0.374010  0.057550  1.0
  N  N1477  1  0.141400  0.127630  0.359010  1.0
  N  N1478  1  0.358600  0.640990  0.872370  1.0
  N  N1479  1  0.858600  0.872370  0.640990  1.0
  N  N1480  1  0.641400  0.359010  0.127630  1.0
  N  N1481  1  0.161500  0.159190  0.361570  1.0
  N  N1482  1  0.338500  0.638430  0.840810  1.0
  N  N1483  1  0.838500  0.840810  0.638430  1.0
  N  N1484  1  0.661500  0.361570  0.159190  1.0
  N  N1485  1  0.296000  0.242700  0.432300  1.0
  N  N1486  1  0.204000  0.567700  0.757300  1.0
  N  N1487  1  0.704000  0.757300  0.567700  1.0
  N  N1488  1  0.796000  0.432300  0.242700  1.0
  N  N1489  1  0.009100  0.886090  0.296790  1.0
  N  N1490  1  0.490900  0.703210  0.113910  1.0
  N  N1491  1  0.990900  0.113910  0.703210  1.0
  N  N1492  1  0.509100  0.296790  0.886090  1.0
  N  N1493  1  0.005000  0.827240  0.380420  1.0
  N  N1494  1  0.495000  0.619580  0.172760  1.0
  N  N1495  1  0.995000  0.172760  0.619580  1.0
  N  N1496  1  0.505000  0.380420  0.827240  1.0
  N  N1497  1  0.006800  0.791860  0.418020  1.0
  N  N1498  1  0.493200  0.581980  0.208140  1.0
  N  N1499  1  0.993200  0.208140  0.581980  1.0
  N  N1500  1  0.506800  0.418020  0.791860  1.0
  N  N1501  1  0.008000  0.575940  0.544140  1.0
  N  N1502  1  0.492000  0.455860  0.424060  1.0
  N  N1503  1  0.992000  0.424060  0.455860  1.0
  N  N1504  1  0.508000  0.544140  0.575940  1.0
  N  N1505  1  0.222200  0.771650  0.523130  1.0
  N  N1506  1  0.277800  0.476870  0.228350  1.0
  N  N1507  1  0.777800  0.228350  0.476870  1.0
  N  N1508  1  0.722200  0.523130  0.771650  1.0
  N  N1509  1  0.188000  0.796820  0.605720  1.0
  N  N1510  1  0.312000  0.394280  0.203180  1.0
  N  N1511  1  0.812000  0.203180  0.394280  1.0
  N  N1512  1  0.688000  0.605720  0.796820  1.0
  N  N1513  1  0.171000  0.800330  0.650470  1.0
  N  N1514  1  0.329000  0.349530  0.199670  1.0
  N  N1515  1  0.829000  0.199670  0.349530  1.0
  N  N1516  1  0.671000  0.650470  0.800330  1.0
  N  N1517  1  0.158000  0.741240  0.876440  1.0
  N  N1518  1  0.342000  0.123560  0.258760  1.0
  N  N1519  1  0.842000  0.258760  0.123560  1.0
  N  N1520  1  0.658000  0.876440  0.741240  1.0
  N  N1521  1  0.134700  0.898970  0.559510  1.0
  N  N1522  1  0.365300  0.440490  0.101030  1.0
  N  N1523  1  0.865300  0.101030  0.440490  1.0
  N  N1524  1  0.634700  0.559510  0.898970  1.0
  N  N1525  1  0.230700  0.870050  0.522210  1.0
  N  N1526  1  0.269300  0.477790  0.129950  1.0
  N  N1527  1  0.769300  0.129950  0.477790  1.0
  N  N1528  1  0.730700  0.522210  0.870050  1.0
  N  N1529  1  0.279100  0.866670  0.501410  1.0
  N  N1530  1  0.220900  0.498590  0.133330  1.0
  N  N1531  1  0.720900  0.133330  0.498590  1.0
  N  N1532  1  0.779100  0.501410  0.866670  1.0
  N  N1533  1  0.480900  0.939700  0.394700  1.0
  N  N1534  1  0.019100  0.605300  0.060300  1.0
  N  N1535  1  0.519100  0.060300  0.605300  1.0
  N  N1536  1  0.980900  0.394700  0.939700  1.0
  N  N1537  1  0.951500  0.037980  0.236940  1.0
  N  N1538  1  0.548500  0.763060  0.962020  1.0
  N  N1539  1  0.048500  0.962020  0.763060  1.0
  N  N1540  1  0.451500  0.236940  0.037980  1.0
  N  N1541  1  0.960200  0.038080  0.190940  1.0
  N  N1542  1  0.539800  0.809060  0.961920  1.0
  N  N1543  1  0.039800  0.961920  0.809060  1.0
  N  N1544  1  0.460200  0.190940  0.038080  1.0
  N  N1545  1  0.993300  0.113900  0.202660  1.0
  N  N1546  1  0.506700  0.797340  0.886100  1.0
  N  N1547  1  0.006700  0.886100  0.797340  1.0
  N  N1548  1  0.493300  0.202660  0.113900  1.0
  N  N1549  1  0.999300  0.106500  0.159700  1.0
  N  N1550  1  0.500700  0.840300  0.893500  1.0
  N  N1551  1  0.000700  0.893500  0.840300  1.0
  N  N1552  1  0.499300  0.159700  0.106500  1.0
  N  N1553  1  0.053300  0.024760  0.218080  1.0
  N  N1554  1  0.446700  0.781920  0.975240  1.0
  N  N1555  1  0.946700  0.975240  0.781920  1.0
  N  N1556  1  0.553300  0.218080  0.024760  1.0
  N  N1557  1  0.051900  0.024040  0.174560  1.0
  N  N1558  1  0.448100  0.825440  0.975960  1.0
  N  N1559  1  0.948100  0.975960  0.825440  1.0
  N  N1560  1  0.551900  0.174560  0.024040  1.0
  N  N1561  1  0.254000  0.844400  0.369120  1.0
  N  N1562  1  0.246000  0.630880  0.155600  1.0
  N  N1563  1  0.746000  0.155600  0.630880  1.0
  N  N1564  1  0.754000  0.369120  0.844400  1.0
  N  N1565  1  0.284500  0.805460  0.353900  1.0
  N  N1566  1  0.215500  0.646100  0.194540  1.0
  N  N1567  1  0.715500  0.194540  0.646100  1.0
  N  N1568  1  0.784500  0.353900  0.805460  1.0
  N  N1569  1  0.206800  0.854010  0.301670  1.0
  N  N1570  1  0.293200  0.698330  0.145990  1.0
  N  N1571  1  0.793200  0.145990  0.698330  1.0
  N  N1572  1  0.706800  0.301670  0.854010  1.0
  N  N1573  1  0.243400  0.816610  0.290930  1.0
  N  N1574  1  0.256600  0.709070  0.183390  1.0
  N  N1575  1  0.756600  0.183390  0.709070  1.0
  N  N1576  1  0.743400  0.290930  0.816610  1.0
  N  N1577  1  0.182000  0.794440  0.387480  1.0
  N  N1578  1  0.318000  0.612520  0.205560  1.0
  N  N1579  1  0.818000  0.205560  0.612520  1.0
  N  N1580  1  0.682000  0.387480  0.794440  1.0
  N  N1581  1  0.221000  0.763380  0.367240  1.0
  N  N1582  1  0.279000  0.632760  0.236620  1.0
  N  N1583  1  0.779000  0.236620  0.632760  1.0
  N  N1584  1  0.721000  0.367240  0.763380  1.0
  N  N1585  1  0.764300  0.868300  0.420300  1.0
  N  N1586  1  0.735700  0.579700  0.131700  1.0
  N  N1587  1  0.235700  0.131700  0.579700  1.0
  N  N1588  1  0.264300  0.420300  0.868300  1.0
  N  N1589  1  0.766600  0.821280  0.425880  1.0
  N  N1590  1  0.733400  0.574120  0.178720  1.0
  N  N1591  1  0.233400  0.178720  0.574120  1.0
  N  N1592  1  0.266600  0.425880  0.821280  1.0
  N  N1593  1  0.854500  0.831070  0.444670  1.0
  N  N1594  1  0.645500  0.555330  0.168930  1.0
  N  N1595  1  0.145500  0.168930  0.555330  1.0
  N  N1596  1  0.354500  0.444670  0.831070  1.0
  N  N1597  1  0.847500  0.789100  0.448300  1.0
  N  N1598  1  0.652500  0.551700  0.210900  1.0
  N  N1599  1  0.152500  0.210900  0.551700  1.0
  N  N1600  1  0.347500  0.448300  0.789100  1.0
  N  N1601  1  0.851300  0.851990  0.351590  1.0
  N  N1602  1  0.648700  0.648410  0.148010  1.0
  N  N1603  1  0.148700  0.148010  0.648410  1.0
  N  N1604  1  0.351300  0.351590  0.851990  1.0
  N  N1605  1  0.844500  0.806590  0.362790  1.0
  N  N1606  1  0.655500  0.637210  0.193410  1.0
  N  N1607  1  0.155500  0.193410  0.637210  1.0
  N  N1608  1  0.344500  0.362790  0.806590  1.0
  N  N1609  1  0.917300  0.299620  0.418320  1.0
  N  N1610  1  0.582700  0.581680  0.700380  1.0
  N  N1611  1  0.082700  0.700380  0.581680  1.0
  N  N1612  1  0.417300  0.418320  0.299620  1.0
  N  N1613  1  0.917600  0.343010  0.389570  1.0
  N  N1614  1  0.582400  0.610430  0.656990  1.0
  N  N1615  1  0.082400  0.656990  0.610430  1.0
  N  N1616  1  0.417600  0.389570  0.343010  1.0
  N  N1617  1  0.950100  0.270040  0.334780  1.0
  N  N1618  1  0.549900  0.665220  0.729960  1.0
  N  N1619  1  0.049900  0.729960  0.665220  1.0
  N  N1620  1  0.450100  0.334780  0.270040  1.0
  N  N1621  1  0.948000  0.317690  0.314450  1.0
  N  N1622  1  0.552000  0.685550  0.682310  1.0
  N  N1623  1  0.052000  0.682310  0.685550  1.0
  N  N1624  1  0.448000  0.314450  0.317690  1.0
  N  N1625  1  0.018100  0.278640  0.375120  1.0
  N  N1626  1  0.481900  0.624880  0.721360  1.0
  N  N1627  1  0.981900  0.721360  0.624880  1.0
  N  N1628  1  0.518100  0.375120  0.278640  1.0
  N  N1629  1  0.005800  0.326020  0.352660  1.0
  N  N1630  1  0.494200  0.647340  0.673980  1.0
  N  N1631  1  0.994200  0.673980  0.647340  1.0
  N  N1632  1  0.505800  0.352660  0.326020  1.0
  N  N1633  1  0.056500  0.101890  0.291730  1.0
  N  N1634  1  0.443500  0.708270  0.898110  1.0
  N  N1635  1  0.943500  0.898110  0.708270  1.0
  N  N1636  1  0.556500  0.291730  0.101890  1.0
  N  N1637  1  0.000990  0.971000  0.334960  1.0
  N  N1638  1  0.499010  0.665040  0.029000  1.0
  N  N1639  1  0.999010  0.029000  0.665040  1.0
  N  N1640  1  0.500990  0.334960  0.971000  1.0
  N  N1641  1  0.901900  0.118790  0.317310  1.0
  N  N1642  1  0.598100  0.682690  0.881210  1.0
  N  N1643  1  0.098100  0.881210  0.682690  1.0
  N  N1644  1  0.401900  0.317310  0.118790  1.0
  N  N1645  1  0.077000  0.886840  0.357620  1.0
  N  N1646  1  0.423000  0.642380  0.113160  1.0
  N  N1647  1  0.923000  0.113160  0.642380  1.0
  N  N1648  1  0.577000  0.357620  0.886840  1.0
  N  N1649  1  0.163900  0.862770  0.471030  1.0
  N  N1650  1  0.336100  0.528970  0.137230  1.0
  N  N1651  1  0.836100  0.137230  0.528970  1.0
  N  N1652  1  0.663900  0.471030  0.862770  1.0
  N  N1653  1  0.186000  0.966630  0.332430  1.0
  N  N1654  1  0.314000  0.667570  0.033370  1.0
  N  N1655  1  0.814000  0.033370  0.667570  1.0
  N  N1656  1  0.686000  0.332430  0.966630  1.0
  N  N1657  1  0.926500  0.913040  0.374840  1.0
  N  N1658  1  0.573500  0.625160  0.086960  1.0
  N  N1659  1  0.073500  0.086960  0.625160  1.0
  N  N1660  1  0.426500  0.374840  0.913040  1.0
  N  N1661  1  0.789300  0.974700  0.327900  1.0
  N  N1662  1  0.710700  0.672100  0.025300  1.0
  N  N1663  1  0.210700  0.025300  0.672100  1.0
  N  N1664  1  0.289300  0.327900  0.974700  1.0
  N  N1665  1  0.785400  0.949640  0.474640  1.0
  N  N1666  1  0.714600  0.525360  0.050360  1.0
  N  N1667  1  0.214600  0.050360  0.525360  1.0
  N  N1668  1  0.285400  0.474640  0.949640  1.0
  N  N1669  1  0.038400  0.158120  0.361340  1.0
  N  N1670  1  0.461600  0.638660  0.841880  1.0
  N  N1671  1  0.961600  0.841880  0.638660  1.0
  N  N1672  1  0.538400  0.361340  0.158120  1.0
  N  N1673  1  0.990800  0.201730  0.493030  1.0
  N  N1674  1  0.509200  0.506970  0.798270  1.0
  N  N1675  1  0.009200  0.798270  0.506970  1.0
  N  N1676  1  0.490800  0.493030  0.201730  1.0
  N  N1677  1  0.886200  0.190320  0.439440  1.0
  N  N1678  1  0.613800  0.560560  0.809680  1.0
  N  N1679  1  0.113800  0.809680  0.560560  1.0
  N  N1680  1  0.386200  0.439440  0.190320  1.0
  N  N1681  1  0.991660  0.904240  0.432800  1.0
  N  N1682  1  0.508340  0.567200  0.095760  1.0
  N  N1683  1  0.008340  0.095760  0.567200  1.0
  N  N1684  1  0.491660  0.432800  0.904240  1.0
  Ni  Ni1685  1  0.099180  0.119830  0.319930  1.0
  Ni  Ni1686  1  0.400820  0.680070  0.880170  1.0
  Ni  Ni1687  1  0.900820  0.880170  0.680070  1.0
  Ni  Ni1688  1  0.599180  0.319930  0.119830  1.0
  Ni  Ni1689  1  0.002860  0.900020  0.363060  1.0
  Ni  Ni1690  1  0.497140  0.636940  0.099980  1.0
  Ni  Ni1691  1  0.997140  0.099980  0.636940  1.0
  Ni  Ni1692  1  0.502860  0.363060  0.900020  1.0
  Ni  Ni1693  1  0.174960  0.835800  0.539120  1.0
  Ni  Ni1694  1  0.325040  0.460880  0.164200  1.0
  Ni  Ni1695  1  0.825040  0.164200  0.460880  1.0
  Ni  Ni1696  1  0.674960  0.539120  0.835800  1.0
  O  O1697  1  0.387500  0.717650  0.238990  1.0
  O  O1698  1  0.112500  0.761010  0.282350  1.0
  O  O1699  1  0.612500  0.282350  0.761010  1.0
  O  O1700  1  0.887500  0.238990  0.717650  1.0
  O  O1701  1  0.221400  0.429900  0.452100  1.0
  O  O1702  1  0.278600  0.547900  0.570100  1.0
  O  O1703  1  0.778600  0.570100  0.547900  1.0
  O  O1704  1  0.721400  0.452100  0.429900  1.0
  O  O1705  1  0.175800  0.475800  0.614800  1.0
  O  O1706  1  0.324200  0.385200  0.524200  1.0
  O  O1707  1  0.824200  0.524200  0.385200  1.0
  O  O1708  1  0.675800  0.614800  0.475800  1.0
  O  O1709  1  0.063000  0.907300  0.941900  1.0
  O  O1710  1  0.437000  0.058100  0.092700  1.0
  O  O1711  1  0.937000  0.092700  0.058100  1.0
  O  O1712  1  0.563000  0.941900  0.907300  1.0
  O  O1713  1  0.491400  0.126300  0.298900  1.0
  O  O1714  1  0.008600  0.701100  0.873700  1.0
  O  O1715  1  0.508600  0.873700  0.701100  1.0
  O  O1716  1  0.991400  0.298900  0.126300  1.0
  P  P1717  1  0.356200  0.991600  0.939200  1
  P  P1718  1  0.143800  0.060800  0.008400  1
  P  P1719  1  0.643800  0.008400  0.060800  1
  P  P1720  1  0.856200  0.939200  0.991600  1
  P  P1721  1  0.250000  0.576200  0.423800  1
  P  P1722  1  0.750000  0.423800  0.576200  1
  P  P1723  1  0.349100  0.759100  0.548700  1
  P  P1724  1  0.150900  0.451300  0.240900  1
  P  P1725  1  0.650900  0.240900  0.451300  1
  P  P1726  1  0.849100  0.548700  0.759100  1
