
#######################################################################
#
#                 Cambridge Crystallographic Data Centre
#                                CCDC 
#
#######################################################################
#
# If this CIF has been generated from an entry in the Cambridge 
# Structural Database, then it will include bibliographic, chemical, 
# crystal, experimental, refinement or atomic coordinate data resulting 
# from the CCDC's data processing and validation procedures.
#
#######################################################################

data_TOBFOH
_chemical_formula_moiety         
'C370 H306 B8 Fe8 N114 Ni6 O10 4+,23(C2 H3 N1),4(F6 P1 1-)'
_chemical_name_systematic        
'tetradecakis(\m~2~-cyano)-decakis(4-methoxy-N-phenyl-N-(4-(3-(pyridin-2-yl)-1H-pyrazol-5-yl)phenyl)aniline)-octakis(hydrogen tris(pyrazolyl)borate)-bis(acetonitrile)-decacyano-hexa-nickel-octa-iron tetrakis(hexafluorophosphate) acetonitrile solvate'
_symmetry_cell_setting           monoclinic
_symmetry_space_group_name_H-M   'C 2/c'
_symmetry_Int_Tables_number      15
_space_group_name_Hall           '-C 2yn'
loop_
_symmetry_equiv_pos_site_id
_symmetry_equiv_pos_as_xyz
1 x,y,z
2 -x,y,1/2-z
3 1/2+x,1/2+y,z
4 1/2-x,1/2+y,1/2-z
5 -x,-y,-z
6 x,-y,1/2+z
7 1/2-x,1/2-y,-z
8 1/2+x,1/2-y,1/2+z
_cell_length_a                   49.361(7)
_cell_length_b                   36.201(5)
_cell_length_c                   29.453(4)
_cell_angle_alpha                90
_cell_angle_beta                 113.434(2)
_cell_angle_gamma                90
_cell_volume                     48289.1
_exptl_crystal_colour            red
_exptl_crystal_description       Plates
_cell_formula_units_Z            4
loop_
_atom_site_label
_atom_site_type_symbol
_atom_site_fract_x
_atom_site_fract_y
_atom_site_fract_z
Ni1 Ni 0.28012(2) 0.39995(2) 0.09918(3)
Ni2 Ni 0.36846(2) 0.26848(2) 0.00286(3)
Ni3 Ni 0.31254(2) 0.14834(2) 0.17496(3)
Fe1 Fe 0.34037(2) 0.40197(3) -0.00620(4)
Fe2 Fe 0.38519(2) 0.24765(3) 0.18369(4)
Fe3 Fe 0.35527(3) 0.24452(3) -0.17316(4)
Fe4 Fe 0.17920(2) 0.42361(3) -0.03440(4)
N1 N 0.27675(14) 0.45759(16) 0.1073(2)
C1 C 0.2556(2) 0.4798(2) 0.0784(3)
H1 H 0.2397 0.4692 0.0513
C2 C 0.2553(2) 0.5173(3) 0.0855(4)
H2 H 0.2393 0.5322 0.0649
C3 C 0.2796(3) 0.5324(3) 0.1244(4)
H3 H 0.2809 0.5583 0.1298
C4 C 0.3010(2) 0.5103(3) 0.1538(4)
H4 H 0.3174 0.5204 0.1806
C5 C 0.29931(18) 0.4724(2) 0.1450(3)
N2 N 0.31844(13) 0.41160(17) 0.1620(2)
C6 C 0.32203(18) 0.4466(2) 0.1753(3)
C7 C 0.34792(17) 0.4513(2) 0.2165(3)
H5 H 0.3556 0.4737 0.2334
C8 C 0.36022(15) 0.4173(2) 0.2281(3)
N3 N 0.34200(13) 0.39439(16) 0.1944(2)
H6 H 0.3452 0.3705 0.1936
C9 C 0.38778(16) 0.4053(2) 0.2669(3)
C10 C 0.40057(17) 0.4273(3) 0.3091(3)
H7 H 0.3907 0.4494 0.3110
C11 C 0.42734(19) 0.4185(3) 0.3491(4)
H8 H 0.4353 0.4337 0.3778
C12 C 0.44172(18) 0.3856(3) 0.3440(3)
C13 C 0.42951(18) 0.3621(3) 0.3051(3)
H9 H 0.4385 0.3390 0.3043
C14 C 0.40305(17) 0.3732(2) 0.2658(3)
H10 H 0.3953 0.3579 0.2373
N4 N 0.46790(17) 0.3744(3) 0.3849(3)
C15 C 0.48467(14) 0.4005(2) 0.4231(3)
C16 C 0.49047(18) 0.3923(2) 0.4721(3)
H11 H 0.4824 0.3706 0.4801
C17 C 0.50806(19) 0.4157(3) 0.5096(2)
H12 H 0.5120 0.4101 0.5432
C18 C 0.51985(14) 0.4475(3) 0.4980(3)
H13 H 0.5319 0.4635 0.5237
C19 C 0.51404(16) 0.4557(2) 0.4490(4)
H14 H 0.5221 0.4774 0.4410
C20 C 0.49645(17) 0.4323(3) 0.4115(3)
H15 H 0.4925 0.4379 0.3779
C21 C 0.4814(2) 0.3401(4) 0.3862(3)
C22 C 0.5072(2) 0.3391(3) 0.3746(3)
H16 H 0.5148 0.3610 0.3662
C23 C 0.52045(19) 0.3054(3) 0.3763(3)
H17 H 0.5378 0.3043 0.3699
C24 C 0.50946(19) 0.2733(3) 0.3870(3)
C25 C 0.4862(2) 0.2742(4) 0.3966(4)
H18 H 0.4790 0.2517 0.4041
C26 C 0.4719(2) 0.3057(5) 0.3965(4)
H19 H 0.4547 0.3048 0.4035
O1 O 0.52168(14) 0.23933(19) 0.3875(2)
C27 C 0.54621(19) 0.2366(2) 0.3746(3)
H20 H 0.5621 0.2527 0.3962
H21 H 0.5404 0.2444 0.3401
H22 H 0.5532 0.2110 0.3784
N5 N 0.28422(12) 0.34177(15) 0.1010(2)
C28 C 0.29940(15) 0.3218(2) 0.0801(3)
H23 H 0.3104 0.3347 0.0651
C29 C 0.29972(16) 0.2844(2) 0.0795(3)
H24 H 0.3098 0.2713 0.0630
C30 C 0.28493(17) 0.2660(2) 0.1036(3)
H25 H 0.2854 0.2398 0.1053
C31 C 0.26948(17) 0.2858(2) 0.1254(3)
H26 H 0.2587 0.2734 0.1414
C32 C 0.26989(17) 0.3245(2) 0.1234(3)
N6 N 0.25668(13) 0.38431(19) 0.1414(2)
C33 C 0.25377(17) 0.3482(2) 0.1442(3)
C34 C 0.23474(17) 0.3399(2) 0.1670(3)
H27 H 0.2290 0.3159 0.1731
C35 C 0.22592(19) 0.3728(3) 0.1791(3)
N7 N 0.23962(14) 0.39881(17) 0.1615(2)
H28 H 0.2372 0.4228 0.1634
C36 C 0.2076(2) 0.3820(3) 0.2057(4)
C37 C 0.2046(2) 0.3558(3) 0.2381(4)
H29 H 0.2139 0.3324 0.2414
C38 C 0.1883(2) 0.3634(3) 0.2651(4)
H30 H 0.1859 0.3446 0.2857
C39 C 0.1758(2) 0.3960(4) 0.2636(4)
C40 C 0.1770(2) 0.4234(3) 0.2281(4)
H31 H 0.1672 0.4465 0.2246
C41 C 0.19241(19) 0.4152(3) 0.2004(4)
H32 H 0.1929 0.4325 0.1765
N8 N 0.1625(2) 0.4052(3) 0.2960(4)
C42 C 0.1743(3) 0.3953(2) 0.3470(3)
C43 C 0.2045(3) 0.3904(2) 0.3735(6)
H33 H 0.2178 0.3950 0.3580
C44 C 0.2152(2) 0.3790(3) 0.4225(5)
H34 H 0.2358 0.3757 0.4406
C45 C 0.1957(4) 0.3723(2) 0.4452(4)
H35 H 0.2031 0.3645 0.4787
C46 C 0.1656(4) 0.3772(3) 0.4187(6)
H36 H 0.1523 0.3726 0.4342
C47 C 0.15486(19) 0.3886(3) 0.3696(6)
H37 H 0.1342 0.3919 0.3516
C48 C 0.13631(19) 0.4249(2) 0.2775(3)
C49 C 0.1120(2) 0.4124(2) 0.2370(4)
H38 H 0.1127 0.3891 0.2225
C50 C 0.08657(19) 0.4339(3) 0.2176(4)
H39 H 0.0699 0.4253 0.1900
C51 C 0.0855(2) 0.4679(3) 0.2388(4)
C52 C 0.1099(3) 0.48041(19) 0.2792(4)
H40 H 0.1091 0.5037 0.2937
C53 C 0.1353(2) 0.4589(2) 0.2986(3)
H41 H 0.1519 0.4675 0.3263
O2 O 0.0590(3) 0.4889(5) 0.2214(6)
C54 C 0.0346(4) 0.4766(8) 0.1762(10)
H42 H 0.0186 0.4949 0.1667
H43 H 0.0272 0.4528 0.1822
H44 H 0.0415 0.4740 0.1495
N9 N 0.40856(12) 0.29465(17) 0.0091(2)
C55 C 0.41322(15) 0.3313(2) 0.0113(3)
H45 H 0.3998 0.3476 0.0168
C56 C 0.43834(16) 0.3453(2) 0.0052(3)
H46 H 0.4418 0.3712 0.0068
C57 C 0.45760(16) 0.3222(2) -0.0028(3)
H47 H 0.4741 0.3315 -0.0080
C58 C 0.45234(17) 0.2843(2) -0.0033(3)
H48 H 0.4662 0.2674 -0.0067
C59 C 0.42770(14) 0.2711(2) 0.0011(3)
N10 N 0.39617(12) 0.22341(15) 0.0050(2)
C60 C 0.42027(17) 0.2326(2) 0.0015(3)
C61 C 0.43583(16) 0.2001(2) -0.0007(3)
H49 H 0.4541 0.1988 -0.0044
C62 C 0.41935(16) 0.1710(2) 0.0036(3)
N11 N 0.39506(12) 0.18692(16) 0.0068(2)
H50 H 0.3805 0.1745 0.0096
C63 C 0.42427(17) 0.1319(2) 0.0052(3)
C64 C 0.44144(17) 0.1163(3) -0.0189(3)
H51 H 0.4493 0.1320 -0.0365
C65 C 0.44705(19) 0.0789(3) -0.0172(4)
H52 H 0.4592 0.0690 -0.0325
C66 C 0.4344(2) 0.0552(3) 0.0079(4)
C67 C 0.41804(18) 0.0708(3) 0.0306(3)
H53 H 0.4097 0.0555 0.0478
C68 C 0.41348(16) 0.1073(2) 0.0294(3)
H54 H 0.4021 0.1168 0.0462
N12 N 0.43996(17) 0.0159(2) 0.0080(3)
C69 C 0.4459(2) -0.0023(3) -0.0290(4)
C70 C 0.4293(3) 0.0047(3) -0.0773(5)
H55 H 0.4129 0.0209 -0.0853
C71 C 0.4354(3) -0.0113(4) -0.1174(5)
H56 H 0.4238 -0.0047 -0.1508
C72 C 0.4586(3) -0.0364(4) -0.1062(6)
H57 H 0.4631 -0.0480 -0.1313
C73 C 0.4748(2) -0.0437(3) -0.0559(6)
H58 H 0.4905 -0.0611 -0.0469
C74 C 0.4686(2) -0.0256(3) -0.0167(5)
H59 H 0.4807 -0.0303 0.0171
C75 C 0.44231(15) -0.00476(19) 0.0509(2)
C76 C 0.42782(14) -0.0385(2) 0.0451(3)
H60 H 0.4155 -0.0470 0.0130
C77 C 0.43129(15) -0.05967(17) 0.0864(3)
H61 H 0.4214 -0.0827 0.0825
C78 C 0.44925(17) -0.04718(19) 0.1334(3)
C79 C 0.46374(14) -0.0135(2) 0.1392(2)
H62 H 0.4760 -0.0050 0.1713
C80 C 0.46027(14) 0.00773(16) 0.0979(3)
H63 H 0.4702 0.0308 0.1018
O3 O 0.4547(2) -0.0695(3) 0.1758(3)
C81 C 0.4362(4) -0.1023(4) 0.1709(8)
H64 H 0.4432 -0.1156 0.2025
H65 H 0.4373 -0.1185 0.1451
H66 H 0.4156 -0.0946 0.1619
N13 N 0.35261(12) 0.12426(18) 0.2222(2)
C82 C 0.37943(16) 0.1406(2) 0.2393(3)
H67 H 0.3810 0.1659 0.2323
C83 C 0.40457(16) 0.1208(2) 0.2668(3)
H68 H 0.4233 0.1325 0.2789
C84 C 0.40224(18) 0.0839(2) 0.2766(3)
H69 H 0.4195 0.0701 0.2952
C85 C 0.37581(15) 0.0672(2) 0.2601(3)
H70 H 0.3741 0.0418 0.2667
C86 C 0.35042(17) 0.0886(2) 0.2324(3)
N14 N 0.29873(12) 0.09555(16) 0.1880(2)
C87 C 0.32050(15) 0.0730(2) 0.2112(3)
C88 C 0.31033(16) 0.0380(2) 0.2118(3)
H71 H 0.3220 0.0173 0.2280
C89 C 0.28028(17) 0.0380(2) 0.1848(3)
N15 N 0.27460(13) 0.07493(17) 0.1710(2)
H72 H 0.2569 0.0836 0.1529
C90 C 0.25841(17) 0.0093(2) 0.1730(3)
C91 C 0.2645(2) -0.0216(2) 0.2016(3)
H73 H 0.2840 -0.0254 0.2254
C92 C 0.2428(2) -0.0481(3) 0.1969(4)
H74 H 0.2477 -0.0696 0.2170
C93 C 0.2147(3) -0.0426(3) 0.1636(4)
C94 C 0.2098(2) -0.0156(4) 0.1295(5)
H75 H 0.1916 -0.0153 0.1013
C95 C 0.2315(2) 0.0125(3) 0.1347(4)
H76 H 0.2271 0.0327 0.1123
N16 N 0.19116(19) -0.0676(3) 0.1580(3)
C96 C 0.19753(16) -0.10247(17) 0.1812(3)
C97 C 0.21671(17) -0.1261(2) 0.1714(3)
H77 H 0.2266 -0.1180 0.1514
C98 C 0.22140(17) -0.1617(2) 0.1909(4)
H78 H 0.2345 -0.1779 0.1842
C99 C 0.20691(19) -0.17354(17) 0.2202(3)
H79 H 0.2101 -0.1978 0.2335
C100 C 0.18774(18) -0.1499(2) 0.2300(3)
H80 H 0.1778 -0.1580 0.2501
C101 C 0.18305(16) -0.1143(2) 0.2106(3)
H81 H 0.1699 -0.0981 0.2173
C102 C 0.1614(3) -0.0559(5) 0.1349(5)
C103 C 0.1411(3) -0.0772(4) 0.0984(5)
H82 H 0.1470 -0.1005 0.0907
C104 C 0.1114(2) -0.0652(4) 0.0718(5)
H83 H 0.0972 -0.0788 0.0456
C105 C 0.1053(2) -0.0303(4) 0.0889(5)
C106 C 0.1245(3) -0.0108(3) 0.1259(5)
H84 H 0.1184 0.0117 0.1355
C107 C 0.1513(3) -0.0220(4) 0.1490(5)
H85 H 0.1646 -0.0078 0.1757
O4 O 0.0754(2) -0.0173(2) 0.0630(4)
C108 C 0.0551(3) -0.0363(4) 0.0195(5)
H86 H 0.0358 -0.0241 0.0077
H87 H 0.0530 -0.0620 0.0279
H88 H 0.0628 -0.0356 -0.0064
N17 N 0.27076(12) 0.16973(15) 0.1347(2)
C109 C 0.25481(14) 0.1655(2) 0.0860(3)
H89 H 0.2623 0.1502 0.0674
C110 C 0.22800(15) 0.18259(19) 0.0622(3)
H90 H 0.2180 0.1808 0.0272
C111 C 0.21563(16) 0.20262(19) 0.0896(3)
H91 H 0.1964 0.2130 0.0742
C112 C 0.23160(16) 0.2070(2) 0.1387(3)
H92 H 0.2243 0.2218 0.1580
C113 C 0.25908(16) 0.18937(19) 0.1606(3)
N18 N 0.30387(13) 0.17392(17) 0.2307(2)
C114 C 0.27782(17) 0.1932(2) 0.2143(3)
C115 C 0.27528(19) 0.2139(2) 0.2519(3)
H93 H 0.2595 0.2300 0.2489
C116 C 0.3007(2) 0.2067(2) 0.2963(4)
N19 N 0.31596(13) 0.18263(18) 0.2791(2)
H94 H 0.3330 0.1732 0.2990
C117 C 0.30871(15) 0.22185(19) 0.34381(19)
C118 C 0.28845(12) 0.2439(2) 0.3532(3)
H95 H 0.2694 0.2481 0.3279
C119 C 0.29601(16) 0.2598(2) 0.3995(3)
H96 H 0.2822 0.2749 0.4059
C120 C 0.32384(18) 0.2538(2) 0.4365(2)
C121 C 0.34410(13) 0.2317(2) 0.4272(2)
H97 H 0.3631 0.2276 0.4525
C122 C 0.33653(13) 0.21576(17) 0.3808(2)
H98 H 0.3504 0.2007 0.3744
N20 N 0.3328(3) 0.2725(3) 0.4809(4)
C123 C 0.3555(2) 0.2605(4) 0.5221(3)
C124 C 0.3533(2) 0.2247(4) 0.5372(5)
H99 H 0.3374 0.2093 0.5173
C125 C 0.3743(3) 0.2113(3) 0.5815(5)
H100 H 0.3727 0.1869 0.5918
C126 C 0.3975(3) 0.2338(4) 0.6106(3)
H101 H 0.4118 0.2247 0.6409
C127 C 0.3997(2) 0.2697(4) 0.5955(5)
H102 H 0.4156 0.2851 0.6154
C128 C 0.3787(3) 0.2830(3) 0.5512(5)
H103 H 0.3803 0.3075 0.5409
C129 C 0.3198(2) 0.3083(2) 0.4838(4)
C130 C 0.3094(2) 0.3162(3) 0.5203(4)
H104 H 0.3086 0.2973 0.5421
C131 C 0.3001(2) 0.3518(3) 0.5248(3)
H105 H 0.2931 0.3571 0.5497
C132 C 0.3013(2) 0.3794(2) 0.4929(4)
C133 C 0.3116(3) 0.3716(3) 0.4565(4)
H106 H 0.3124 0.3905 0.4347
C134 C 0.3209(2) 0.3360(3) 0.4519(3)
H107 H 0.3280 0.3306 0.4270
O5 O 0.2874(2) 0.4137(2) 0.4914(4)
C135 C 0.2775(5) 0.4227(5) 0.5314(7)
H108 H 0.2683 0.4471 0.5254
H109 H 0.2945 0.4226 0.5632
H110 H 0.2631 0.4042 0.5319
B1 B 0.3945(2) 0.4498(3) 0.0054(4)
H111 H 0.4118 0.4655 0.0089
N21 N 0.36254(13) 0.40052(17) -0.0485(2)
C136 C 0.36035(19) 0.3812(2) -0.0877(3)
H112 H 0.3461 0.3623 -0.1019
C137 C 0.3810(2) 0.3915(2) -0.1060(3)
H113 H 0.3834 0.3827 -0.1346
C138 C 0.39692(19) 0.4173(3) -0.0729(4)
H114 H 0.4139 0.4293 -0.0733
N22 N 0.38549(14) 0.42357(18) -0.0398(3)
N23 N 0.34172(13) 0.45562(17) -0.0067(2)
C139 C 0.32226(19) 0.4827(2) -0.0065(3)
H115 H 0.3025 0.4787 -0.0098
C140 C 0.3358(2) 0.5165(2) -0.0006(4)
H116 H 0.3272 0.5398 0.0005
C141 C 0.3635(2) 0.5105(3) 0.0033(3)
H117 H 0.3782 0.5289 0.0081
N24 N 0.36690(16) 0.47340(19) -0.0007(2)
N25 N 0.37858(11) 0.40334(15) 0.0533(2)
C142 C 0.38822(17) 0.3874(2) 0.0971(3)
H118 H 0.3772 0.3713 0.1089
C143 C 0.41748(17) 0.3984(2) 0.1232(3)
H119 H 0.4303 0.3905 0.1554
C144 C 0.42400(19) 0.4220(2) 0.0947(3)
H120 H 0.4422 0.4348 0.1033
N26 N 0.40070(14) 0.42474(17) 0.0519(2)
B2 B 0.4450(2) 0.2248(3) 0.2664(3)
H121 H 0.4644 0.2175 0.2929
N27 N 0.39324(14) 0.23764(15) 0.2540(2)
C145 C 0.37666(18) 0.2393(2) 0.2803(3)
H122 H 0.3567 0.2474 0.2679
C146 C 0.3927(2) 0.2276(3) 0.3285(3)
H123 H 0.3859 0.2257 0.3544
C147 C 0.4204(2) 0.2193(2) 0.3308(3)
H124 H 0.4367 0.2107 0.3590
N28 N 0.42032(14) 0.22578(16) 0.2845(2)
N29 N 0.42216(12) 0.27617(16) 0.2068(2)
C148 C 0.42865(17) 0.3092(2) 0.1956(3)
H125 H 0.4154 0.3247 0.1706
C149 C 0.45781(17) 0.3180(2) 0.2257(3)
H126 H 0.4684 0.3398 0.2251
C150 C 0.46766(17) 0.2881(2) 0.2562(3)
H127 H 0.4866 0.2857 0.2822
N30 N 0.44623(12) 0.26284(16) 0.2434(2)
N31 N 0.40904(12) 0.20348(16) 0.1820(2)
C151 C 0.40548(17) 0.1774(2) 0.1496(3)
H128 H 0.3890 0.1750 0.1188
C152 C 0.42957(16) 0.1536(2) 0.1671(3)
H129 H 0.4329 0.1321 0.1514
C153 C 0.44727(17) 0.1680(2) 0.2117(3)
H130 H 0.4658 0.1582 0.2331
N32 N 0.43469(13) 0.19807(18) 0.2210(2)
B3 B 0.3984(3) 0.1853(3) -0.1812(5)
H131 H 0.4125 0.1664 -0.1837
N33 N 0.35570(17) 0.2240(2) -0.2357(3)
C154 C 0.3384(2) 0.2291(3) -0.2833(4)
H132 H 0.3218 0.2450 -0.2950
C155 C 0.3480(3) 0.2083(4) -0.3130(4)
H133 H 0.3397 0.2074 -0.3481
C156 C 0.3716(3) 0.1896(4) -0.2817(5)
H134 H 0.3832 0.1731 -0.2915
N34 N 0.37642(17) 0.1977(2) -0.2334(3)
N35 N 0.36213(17) 0.1932(2) -0.1455(3)
C157 C 0.3507(2) 0.1759(3) -0.1181(3)
H135 H 0.3362 0.1856 -0.1079
C158 C 0.3635(2) 0.1409(3) -0.1063(4)
H136 H 0.3597 0.1223 -0.0868
C159 C 0.3832(3) 0.1394(3) -0.1300(4)
H137 H 0.3957 0.1192 -0.1294
N36 N 0.38130(16) 0.1704(3) -0.1525(3)
N37 N 0.39821(17) 0.2502(2) -0.1487(3)
C160 C 0.4180(2) 0.2765(3) -0.1247(3)
H138 H 0.4130 0.2989 -0.1131
C161 C 0.4466(2) 0.2670(4) -0.1186(4)
H139 H 0.4637 0.2821 -0.1055
C162 C 0.4448(2) 0.2305(5) -0.1361(5)
H140 H 0.4607 0.2152 -0.1347
N38 N 0.41531(19) 0.2219(3) -0.1555(3)
B4 B 0.1546(2) 0.5028(3) -0.0448(4)
H141 H 0.1464 0.5284 -0.0483
N39 N 0.14103(13) 0.44065(17) -0.0827(2)
C163 C 0.11899(17) 0.4249(2) -0.1204(3)
H142 H 0.1186 0.3998 -0.1300
C164 C 0.09700(19) 0.4501(2) -0.1434(3)
H143 H 0.0787 0.4460 -0.1705
C165 C 0.1073(2) 0.4817(3) -0.1189(3)
H144 H 0.0970 0.5047 -0.1265
N40 N 0.13371(14) 0.47672(17) -0.0824(2)
N41 N 0.19759(14) 0.46763(17) -0.0499(2)
C166 C 0.22075(18) 0.4733(3) -0.0614(3)
H145 H 0.2333 0.4545 -0.0647
C167 C 0.2237(2) 0.5099(3) -0.0677(3)
H146 H 0.2393 0.5214 -0.0737
C168 C 0.1996(2) 0.5278(3) -0.0638(3)
H147 H 0.1952 0.5534 -0.0684
N42 N 0.18393(15) 0.50162(19) -0.0520(2)
N43 N 0.17312(13) 0.45176(16) 0.0181(2)
C169 C 0.17354(18) 0.4438(2) 0.0613(3)
H148 H 0.1804 0.4211 0.0780
C170 C 0.1629(2) 0.4723(3) 0.0795(4)
H149 H 0.1609 0.4732 0.1103
C171 C 0.1557(2) 0.4994(3) 0.0442(4)
H150 H 0.1484 0.5232 0.0467
N44 N 0.16066(14) 0.48668(18) 0.0058(3)
C172 C 0.31781(15) 0.40360(17) 0.0327(3)
C173 C 0.34223(13) 0.3481(2) -0.0032(2)
C174 C 0.30367(16) 0.40011(19) -0.0629(3)
N45 N 0.30319(12) 0.40508(15) 0.0565(2)
N46 N 0.34702(11) 0.31802(17) 0.00099(19)
N47 N 0.28195(14) 0.40074(17) -0.0981(2)
C175 C 0.37915(14) 0.25814(17) 0.1164(3)
C176 C 0.35038(15) 0.2166(2) 0.1672(2)
C177 C 0.36275(16) 0.2909(2) 0.1843(3)
N48 N 0.37777(11) 0.26461(14) 0.0770(2)
N49 N 0.33310(13) 0.19587(16) 0.1639(2)
N50 N 0.35047(14) 0.3171(2) 0.1860(2)
C178 C 0.35553(14) 0.26227(19) -0.1123(3)
C179 C 0.3503(2) 0.2925(3) -0.1971(3)
C180 C 0.3135(2) 0.2405(2) -0.1981(3)
N51 N 0.35606(12) 0.26910(16) -0.0735(2)
N52 N 0.3487(2) 0.3234(3) -0.2107(3)
N53 N 0.28786(17) 0.2375(2) -0.2146(3)
C181 C 0.21717(16) 0.40707(18) 0.0106(3)
C182 C 0.16211(16) 0.3801(2) -0.0192(3)
C183 C 0.18383(14) 0.39368(19) -0.0840(3)
N54 N 0.24027(13) 0.39839(16) 0.0384(2)
N55 N 0.15262(14) 0.35435(18) -0.0092(3)
N56 N 0.18512(12) 0.37544(16) -0.1138(2)
N57 N 0.33148(11) 0.23572(15) -0.00834(19)
C184 C 0.31321(16) 0.21721(19) -0.0046(3)
C185 C 0.28991(16) 0.1935(2) 0.0009(3)
Ni1F Ni 0.21988(2) 0.10005(2) -0.09918(3)
Ni2F Ni 0.13154(2) 0.23152(2) -0.00286(3)
Ni3F Ni 0.18746(2) 0.35166(2) -0.17496(3)
Fe1F Fe 0.15963(2) 0.09803(3) 0.00620(4)
Fe2F Fe 0.11481(2) 0.25235(3) -0.18369(4)
Fe3F Fe 0.14473(3) 0.25548(3) 0.17316(4)
Fe4F Fe 0.32080(2) 0.07639(3) 0.03440(4)
N1F N 0.22325(14) 0.04241(16) -0.1073(2)
C1F C 0.2444(2) 0.0202(2) -0.0784(3)
H1F H 0.2603 0.0308 -0.0513
C2F C 0.2447(2) -0.0173(3) -0.0855(4)
H2F H 0.2607 -0.0322 -0.0649
C3F C 0.2204(3) -0.0324(3) -0.1244(4)
H3F H 0.2191 -0.0583 -0.1298
C4F C 0.1990(2) -0.0103(3) -0.1538(4)
H4F H 0.1826 -0.0204 -0.1806
C5F C 0.20069(18) 0.0276(2) -0.1450(3)
N2F N 0.18156(13) 0.08840(17) -0.1620(2)
C6F C 0.17797(18) 0.0534(2) -0.1753(3)
C7F C 0.15208(17) 0.0487(2) -0.2165(3)
H5F H 0.1444 0.0263 -0.2334
C8F C 0.13978(15) 0.0827(2) -0.2281(3)
N3F N 0.15800(13) 0.10561(16) -0.1944(2)
H6F H 0.1548 0.1295 -0.1936
C9F C 0.11222(16) 0.0947(2) -0.2669(3)
C10F C 0.09943(17) 0.0727(3) -0.3091(3)
H7F H 0.1093 0.0506 -0.3110
C11F C 0.07266(19) 0.0815(3) -0.3491(4)
H8F H 0.0647 0.0663 -0.3778
C12F C 0.05828(18) 0.1144(3) -0.3440(3)
C13F C 0.07049(18) 0.1379(3) -0.3051(3)
H9F H 0.0615 0.1610 -0.3043
C14F C 0.09695(17) 0.1268(2) -0.2658(3)
H10F H 0.1047 0.1421 -0.2373
N4F N 0.03210(17) 0.1256(3) -0.3849(3)
C15F C 0.01533(14) 0.0995(2) -0.4231(3)
C16F C 0.00953(18) 0.1077(2) -0.4721(3)
H11F H 0.0176 0.1294 -0.4801
C17F C -0.00806(19) 0.0843(3) -0.5096(2)
H12F H -0.0120 0.0899 -0.5432
C18F C -0.01985(14) 0.0525(3) -0.4980(3)
H13F H -0.0319 0.0365 -0.5237
C19F C -0.01404(16) 0.0443(2) -0.4490(4)
H14F H -0.0221 0.0226 -0.4410
C20F C 0.00355(17) 0.0677(3) -0.4115(3)
H15F H 0.0075 0.0621 -0.3779
C21F C 0.0186(2) 0.1599(4) -0.3862(3)
C22F C -0.0072(2) 0.1609(3) -0.3746(3)
H16F H -0.0148 0.1390 -0.3662
C23F C -0.02045(19) 0.1946(3) -0.3763(3)
H17F H -0.0378 0.1957 -0.3699
C24F C -0.00946(19) 0.2267(3) -0.3870(3)
C25F C 0.0138(2) 0.2258(4) -0.3966(4)
H18F H 0.0210 0.2483 -0.4041
C26F C 0.0281(2) 0.1943(5) -0.3965(4)
H19F H 0.0453 0.1952 -0.4035
O1F O -0.02168(14) 0.26067(19) -0.3875(2)
C27F C -0.04621(19) 0.2634(2) -0.3746(3)
H20F H -0.0621 0.2473 -0.3962
H21F H -0.0404 0.2556 -0.3401
H22F H -0.0532 0.2890 -0.3784
N5F N 0.21578(12) 0.15823(15) -0.1010(2)
C28F C 0.20060(15) 0.1782(2) -0.0801(3)
H23F H 0.1896 0.1653 -0.0651
C29F C 0.20028(16) 0.2156(2) -0.0795(3)
H24F H 0.1902 0.2287 -0.0630
C30F C 0.21507(17) 0.2340(2) -0.1036(3)
H25F H 0.2146 0.2602 -0.1053
C31F C 0.23052(17) 0.2142(2) -0.1254(3)
H26F H 0.2413 0.2266 -0.1414
C32F C 0.23011(17) 0.1755(2) -0.1234(3)
N6F N 0.24332(13) 0.11569(19) -0.1414(2)
C33F C 0.24623(17) 0.1518(2) -0.1442(3)
C34F C 0.26526(17) 0.1601(2) -0.1670(3)
H27F H 0.2710 0.1841 -0.1731
C35F C 0.27408(19) 0.1272(3) -0.1791(3)
N7F N 0.26038(14) 0.10119(17) -0.1615(2)
H28F H 0.2628 0.0772 -0.1634
C36F C 0.2924(2) 0.1180(3) -0.2057(4)
C37F C 0.2954(2) 0.1442(3) -0.2381(4)
H29F H 0.2861 0.1676 -0.2414
C38F C 0.3117(2) 0.1366(3) -0.2651(4)
H30F H 0.3141 0.1554 -0.2857
C39F C 0.3242(2) 0.1040(4) -0.2636(4)
C40F C 0.3230(2) 0.0766(3) -0.2281(4)
H31F H 0.3328 0.0535 -0.2246
C41F C 0.30759(19) 0.0848(3) -0.2004(4)
H32F H 0.3071 0.0675 -0.1765
N8F N 0.3375(2) 0.0948(3) -0.2960(4)
C42F C 0.3257(3) 0.1047(2) -0.3470(3)
C43F C 0.2955(3) 0.1096(2) -0.3735(6)
H33F H 0.2822 0.1050 -0.3580
C44F C 0.2848(2) 0.1210(3) -0.4225(5)
H34F H 0.2642 0.1243 -0.4406
C45F C 0.3043(4) 0.1277(2) -0.4452(4)
H35F H 0.2969 0.1355 -0.4787
C46F C 0.3344(4) 0.1228(3) -0.4187(6)
H36F H 0.3477 0.1274 -0.4342
C47F C 0.34514(19) 0.1114(3) -0.3696(6)
H37F H 0.3658 0.1081 -0.3516
C48F C 0.36369(19) 0.0751(2) -0.2775(3)
C49F C 0.3880(2) 0.0876(2) -0.2370(4)
H38F H 0.3873 0.1109 -0.2225
C50F C 0.41343(19) 0.0661(3) -0.2176(4)
H39F H 0.4301 0.0747 -0.1900
C51F C 0.4145(2) 0.0321(3) -0.2388(4)
C52F C 0.3901(3) 0.01959(19) -0.2792(4)
H40F H 0.3909 -0.0037 -0.2937
C53F C 0.3647(2) 0.0411(2) -0.2986(3)
H41F H 0.3481 0.0325 -0.3263
O2F O 0.4410(3) 0.0111(5) -0.2214(6)
C54F C 0.4654(4) 0.0234(8) -0.1762(10)
H42F H 0.4814 0.0051 -0.1667
H43F H 0.4728 0.0472 -0.1822
H44F H 0.4585 0.0260 -0.1495
N9F N 0.09144(12) 0.20535(17) -0.0091(2)
C55F C 0.08678(15) 0.1687(2) -0.0113(3)
H45F H 0.1002 0.1524 -0.0168
C56F C 0.06166(16) 0.1547(2) -0.0052(3)
H46F H 0.0582 0.1288 -0.0068
C57F C 0.04240(16) 0.1778(2) 0.0028(3)
H47F H 0.0259 0.1685 0.0080
C58F C 0.04766(17) 0.2157(2) 0.0033(3)
H48F H 0.0338 0.2326 0.0067
C59F C 0.07230(14) 0.2289(2) -0.0011(3)
N10F N 0.10383(12) 0.27659(15) -0.0050(2)
C60F C 0.07973(17) 0.2674(2) -0.0015(3)
C61F C 0.06417(16) 0.2999(2) 0.0007(3)
H49F H 0.0459 0.3012 0.0044
C62F C 0.08065(16) 0.3290(2) -0.0036(3)
N11F N 0.10494(12) 0.31308(16) -0.0068(2)
H50F H 0.1195 0.3255 -0.0096
C63F C 0.07573(17) 0.3681(2) -0.0052(3)
C64F C 0.05856(17) 0.3837(3) 0.0189(3)
H51F H 0.0507 0.3680 0.0365
C65F C 0.05295(19) 0.4211(3) 0.0172(4)
H52F H 0.0408 0.4310 0.0325
C66F C 0.0656(2) 0.4448(3) -0.0079(4)
C67F C 0.08196(18) 0.4292(3) -0.0306(3)
H53F H 0.0903 0.4445 -0.0478
C68F C 0.08652(16) 0.3927(2) -0.0294(3)
H54F H 0.0979 0.3832 -0.0462
N12F N 0.06004(17) 0.4841(2) -0.0080(3)
C69F C 0.0541(2) 0.5023(3) 0.0290(4)
C70F C 0.0707(3) 0.4953(3) 0.0773(5)
H55F H 0.0871 0.4791 0.0853
C71F C 0.0646(3) 0.5113(4) 0.1174(5)
H56F H 0.0762 0.5047 0.1508
C72F C 0.0414(3) 0.5364(4) 0.1062(6)
H57F H 0.0369 0.5480 0.1313
C73F C 0.0252(2) 0.5437(3) 0.0559(6)
H58F H 0.0095 0.5611 0.0469
C74F C 0.0314(2) 0.5256(3) 0.0167(5)
H59F H 0.0193 0.5303 -0.0171
C75F C 0.05769(15) 0.50476(19) -0.0509(2)
C76F C 0.07218(14) 0.5385(2) -0.0451(3)
H60F H 0.0845 0.5470 -0.0130
C77F C 0.06871(15) 0.55967(17) -0.0864(3)
H61F H 0.0786 0.5827 -0.0825
C78F C 0.05075(17) 0.54718(19) -0.1334(3)
C79F C 0.03626(14) 0.5135(2) -0.1392(2)
H62F H 0.0240 0.5050 -0.1713
C80F C 0.03973(14) 0.49227(16) -0.0979(3)
H63F H 0.0298 0.4692 -0.1018
O3F O 0.0453(2) 0.5695(3) -0.1758(3)
C81F C 0.0638(4) 0.6023(4) -0.1709(8)
H64F H 0.0568 0.6156 -0.2025
H65F H 0.0627 0.6185 -0.1451
H66F H 0.0844 0.5946 -0.1619
N13F N 0.14739(12) 0.37574(18) -0.2222(2)
C82F C 0.12057(16) 0.3594(2) -0.2393(3)
H67F H 0.1190 0.3341 -0.2323
C83F C 0.09543(16) 0.3792(2) -0.2668(3)
H68F H 0.0767 0.3675 -0.2789
C84F C 0.09776(18) 0.4161(2) -0.2766(3)
H69F H 0.0805 0.4299 -0.2952
C85F C 0.12419(15) 0.4328(2) -0.2601(3)
H70F H 0.1259 0.4582 -0.2667
C86F C 0.14958(17) 0.4114(2) -0.2324(3)
N14F N 0.20127(12) 0.40445(16) -0.1880(2)
C87F C 0.17950(15) 0.4270(2) -0.2112(3)
C88F C 0.18967(16) 0.4620(2) -0.2118(3)
H71F H 0.1780 0.4827 -0.2280
C89F C 0.21972(17) 0.4620(2) -0.1848(3)
N15F N 0.22540(13) 0.42507(17) -0.1710(2)
H72F H 0.2431 0.4164 -0.1529
C90F C 0.24159(17) 0.4907(2) -0.1730(3)
C91F C 0.2355(2) 0.5216(2) -0.2016(3)
H73F H 0.2160 0.5254 -0.2254
C92F C 0.2572(2) 0.5481(3) -0.1969(4)
H74F H 0.2523 0.5696 -0.2170
C93F C 0.2853(3) 0.5426(3) -0.1636(4)
C94F C 0.2902(2) 0.5156(4) -0.1295(5)
H75F H 0.3084 0.5153 -0.1013
C95F C 0.2685(2) 0.4875(3) -0.1347(4)
H76F H 0.2729 0.4673 -0.1123
N16F N 0.30884(19) 0.5676(3) -0.1580(3)
C96F C 0.30247(16) 0.60247(17) -0.1812(3)
C97F C 0.28329(17) 0.6261(2) -0.1714(3)
H77F H 0.2734 0.6180 -0.1514
C98F C 0.27860(17) 0.6617(2) -0.1909(4)
H78F H 0.2655 0.6779 -0.1842
C99F C 0.29309(19) 0.67354(17) -0.2202(3)
H79F H 0.2899 0.6978 -0.2335
C100F C 0.31226(18) 0.6499(2) -0.2300(3)
H80F H 0.3222 0.6580 -0.2501
C101F C 0.31695(16) 0.6143(2) -0.2106(3)
H81F H 0.3301 0.5981 -0.2173
C102F C 0.3386(3) 0.5559(5) -0.1349(5)
C103F C 0.3589(3) 0.5772(4) -0.0984(5)
H82F H 0.3530 0.6005 -0.0907
C104F C 0.3886(2) 0.5652(4) -0.0718(5)
H83F H 0.4028 0.5788 -0.0456
C105F C 0.3947(2) 0.5303(4) -0.0889(5)
C106F C 0.3755(3) 0.5108(3) -0.1259(5)
H84F H 0.3816 0.4883 -0.1355
C107F C 0.3487(3) 0.5220(4) -0.1490(5)
H85F H 0.3354 0.5078 -0.1757
O4F O 0.4246(2) 0.5173(2) -0.0630(4)
C108F C 0.4449(3) 0.5363(4) -0.0195(5)
H86F H 0.4642 0.5241 -0.0077
H87F H 0.4470 0.5620 -0.0279
H88F H 0.4372 0.5356 0.0064
N17F N 0.22924(12) 0.33027(15) -0.1347(2)
C109F C 0.24519(14) 0.3345(2) -0.0860(3)
H89F H 0.2377 0.3498 -0.0674
C110F C 0.27200(15) 0.31741(19) -0.0622(3)
H90F H 0.2820 0.3192 -0.0272
C111F C 0.28437(16) 0.29738(19) -0.0896(3)
H91F H 0.3036 0.2870 -0.0742
C112F C 0.26840(16) 0.2930(2) -0.1387(3)
H92F H 0.2757 0.2782 -0.1580
C113F C 0.24092(16) 0.31063(19) -0.1606(3)
N18F N 0.19613(13) 0.32608(17) -0.2307(2)
C114F C 0.22218(17) 0.3068(2) -0.2143(3)
C115F C 0.22472(19) 0.2861(2) -0.2519(3)
H93F H 0.2405 0.2700 -0.2489
C116F C 0.1993(2) 0.2933(2) -0.2963(4)
N19F N 0.18404(13) 0.31737(18) -0.2791(2)
H94F H 0.1670 0.3268 -0.2990
C117F C 0.19129(15) 0.27815(19) -0.34381(19)
C118F C 0.21155(12) 0.2561(2) -0.3532(3)
H95F H 0.2306 0.2519 -0.3279
C119F C 0.20399(16) 0.2402(2) -0.3995(3)
H96F H 0.2178 0.2251 -0.4059
C120F C 0.17616(18) 0.2462(2) -0.4365(2)
C121F C 0.15590(13) 0.2683(2) -0.4272(2)
H97F H 0.1369 0.2724 -0.4525
C122F C 0.16347(13) 0.28424(17) -0.3808(2)
H98F H 0.1496 0.2993 -0.3744
N20F N 0.1672(3) 0.2275(3) -0.4809(4)
C123F C 0.1445(2) 0.2395(4) -0.5221(3)
C124F C 0.1467(2) 0.2753(4) -0.5372(5)
H99F H 0.1626 0.2907 -0.5173
C125F C 0.1257(3) 0.2887(3) -0.5815(5)
H100F H 0.1273 0.3131 -0.5918
C126F C 0.1025(3) 0.2662(4) -0.6106(3)
H101F H 0.0882 0.2753 -0.6409
C127F C 0.1003(2) 0.2303(4) -0.5955(5)
H102F H 0.0844 0.2149 -0.6154
C128F C 0.1213(3) 0.2170(3) -0.5512(5)
H103F H 0.1197 0.1925 -0.5409
C129F C 0.1802(2) 0.1917(2) -0.4838(4)
C130F C 0.1906(2) 0.1838(3) -0.5203(4)
H104F H 0.1914 0.2027 -0.5421
C131F C 0.1999(2) 0.1482(3) -0.5248(3)
H105F H 0.2069 0.1429 -0.5497
C132F C 0.1987(2) 0.1206(2) -0.4929(4)
C133F C 0.1884(3) 0.1284(3) -0.4565(4)
H106F H 0.1876 0.1095 -0.4347
C134F C 0.1791(2) 0.1640(3) -0.4519(3)
H107F H 0.1720 0.1694 -0.4270
O5F O 0.2126(2) 0.0863(2) -0.4914(4)
C135F C 0.2225(5) 0.0773(5) -0.5314(7)
H108F H 0.2317 0.0529 -0.5254
H109F H 0.2055 0.0774 -0.5632
H110F H 0.2369 0.0958 -0.5319
B1F B 0.1055(2) 0.0502(3) -0.0054(4)
H111F H 0.0882 0.0345 -0.0089
N21F N 0.13746(13) 0.09948(17) 0.0485(2)
C136F C 0.13965(19) 0.1188(2) 0.0877(3)
H112F H 0.1539 0.1377 0.1019
C137F C 0.1190(2) 0.1085(2) 0.1060(3)
H113F H 0.1166 0.1173 0.1346
C138F C 0.10308(19) 0.0827(3) 0.0729(4)
H114F H 0.0861 0.0707 0.0733
N22F N 0.11451(14) 0.07643(18) 0.0398(3)
N23F N 0.15828(13) 0.04438(17) 0.0067(2)
C139F C 0.17774(19) 0.0173(2) 0.0065(3)
H115F H 0.1975 0.0213 0.0098
C140F C 0.1642(2) -0.0165(2) 0.0006(4)
H116F H 0.1728 -0.0398 -0.0005
C141F C 0.1365(2) -0.0105(3) -0.0033(3)
H117F H 0.1218 -0.0289 -0.0081
N24F N 0.13310(16) 0.02660(19) 0.0007(2)
N25F N 0.12142(11) 0.09666(15) -0.0533(2)
C142F C 0.11178(17) 0.1126(2) -0.0971(3)
H118F H 0.1228 0.1287 -0.1089
C143F C 0.08252(17) 0.1016(2) -0.1232(3)
H119F H 0.0697 0.1095 -0.1554
C144F C 0.07600(19) 0.0780(2) -0.0947(3)
H120F H 0.0578 0.0652 -0.1033
N26F N 0.09930(14) 0.07526(17) -0.0519(2)
B2F B 0.0550(2) 0.2752(3) -0.2664(3)
H121F H 0.0356 0.2825 -0.2929
N27F N 0.10676(14) 0.26236(15) -0.2540(2)
C145F C 0.12334(18) 0.2607(2) -0.2803(3)
H122F H 0.1433 0.2526 -0.2679
C146F C 0.1073(2) 0.2724(3) -0.3285(3)
H123F H 0.1141 0.2743 -0.3544
C147F C 0.0796(2) 0.2807(2) -0.3308(3)
H124F H 0.0633 0.2893 -0.3590
N28F N 0.07968(14) 0.27422(16) -0.2845(2)
N29F N 0.07784(12) 0.22383(16) -0.2068(2)
C148F C 0.07135(17) 0.1908(2) -0.1956(3)
H125F H 0.0846 0.1753 -0.1706
C149F C 0.04219(17) 0.1820(2) -0.2257(3)
H126F H 0.0316 0.1602 -0.2251
C150F C 0.03234(17) 0.2119(2) -0.2562(3)
H127F H 0.0134 0.2143 -0.2822
N30F N 0.05377(12) 0.23716(16) -0.2434(2)
N31F N 0.09096(12) 0.29652(16) -0.1820(2)
C151F C 0.09452(17) 0.3226(2) -0.1496(3)
H128F H 0.1110 0.3250 -0.1188
C152F C 0.07043(16) 0.3464(2) -0.1671(3)
H129F H 0.0671 0.3679 -0.1514
C153F C 0.05273(17) 0.3320(2) -0.2117(3)
H130F H 0.0342 0.3418 -0.2331
N32F N 0.06531(13) 0.30193(18) -0.2210(2)
B3F B 0.1016(3) 0.3147(3) 0.1812(5)
H131F H 0.0875 0.3336 0.1837
N33F N 0.14430(17) 0.2760(2) 0.2357(3)
C154F C 0.1616(2) 0.2709(3) 0.2833(4)
H132F H 0.1782 0.2550 0.2950
C155F C 0.1520(3) 0.2917(4) 0.3130(4)
H133F H 0.1603 0.2926 0.3481
C156F C 0.1284(3) 0.3104(4) 0.2817(5)
H134F H 0.1168 0.3269 0.2915
N34F N 0.12358(17) 0.3023(2) 0.2334(3)
N35F N 0.13787(17) 0.3068(2) 0.1455(3)
C157F C 0.1493(2) 0.3241(3) 0.1181(3)
H135F H 0.1638 0.3144 0.1079
C158F C 0.1365(2) 0.3591(3) 0.1063(4)
H136F H 0.1403 0.3777 0.0868
C159F C 0.1168(3) 0.3606(3) 0.1300(4)
H137F H 0.1043 0.3808 0.1294
N36F N 0.11870(16) 0.3296(3) 0.1525(3)
N37F N 0.10179(17) 0.2498(2) 0.1487(3)
C160F C 0.0820(2) 0.2235(3) 0.1247(3)
H138F H 0.0870 0.2011 0.1131
C161F C 0.0534(2) 0.2330(4) 0.1186(4)
H139F H 0.0363 0.2179 0.1055
C162F C 0.0552(2) 0.2695(5) 0.1361(5)
H140F H 0.0393 0.2848 0.1347
N38F N 0.08469(19) 0.2781(3) 0.1555(3)
B4F B 0.3454(2) -0.0028(3) 0.0448(4)
H141F H 0.3536 -0.0284 0.0483
N39F N 0.35897(13) 0.05935(17) 0.0827(2)
C163F C 0.38101(17) 0.0751(2) 0.1204(3)
H142F H 0.3814 0.1002 0.1300
C164F C 0.40300(19) 0.0499(2) 0.1434(3)
H143F H 0.4213 0.0540 0.1705
C165F C 0.3927(2) 0.0183(3) 0.1189(3)
H144F H 0.4030 -0.0047 0.1265
N40F N 0.36629(14) 0.02328(17) 0.0824(2)
N41F N 0.30241(14) 0.03237(17) 0.0499(2)
C166F C 0.27925(18) 0.0267(3) 0.0614(3)
H145F H 0.2667 0.0455 0.0647
C167F C 0.2763(2) -0.0099(3) 0.0677(3)
H146F H 0.2607 -0.0214 0.0737
C168F C 0.3004(2) -0.0278(3) 0.0638(3)
H147F H 0.3048 -0.0534 0.0684
N42F N 0.31607(15) -0.00162(19) 0.0520(2)
N43F N 0.32688(13) 0.04824(16) -0.0181(2)
C169F C 0.32646(18) 0.0562(2) -0.0613(3)
H148F H 0.3196 0.0789 -0.0780
C170F C 0.3371(2) 0.0277(3) -0.0795(4)
H149F H 0.3391 0.0268 -0.1103
C171F C 0.3443(2) 0.0006(3) -0.0442(4)
H150F H 0.3516 -0.0232 -0.0467
N44F N 0.33934(14) 0.01332(18) -0.0058(3)
C172F C 0.18219(15) 0.09640(17) -0.0327(3)
C173F C 0.15777(13) 0.1519(2) 0.0032(2)
C174F C 0.19633(16) 0.09989(19) 0.0629(3)
N45F N 0.19681(12) 0.09492(15) -0.0565(2)
N46F N 0.15298(11) 0.18198(17) -0.00099(19)
N47F N 0.21805(14) 0.09926(17) 0.0981(2)
C175F C 0.12085(14) 0.24186(17) -0.1164(3)
C176F C 0.14962(15) 0.2834(2) -0.1672(2)
C177F C 0.13725(16) 0.2091(2) -0.1843(3)
N48F N 0.12223(11) 0.23539(14) -0.0770(2)
N49F N 0.16690(13) 0.30413(16) -0.1639(2)
N50F N 0.14953(14) 0.1829(2) -0.1860(2)
C178F C 0.14447(14) 0.23773(19) 0.1123(3)
C179F C 0.1497(2) 0.2075(3) 0.1971(3)
C180F C 0.1865(2) 0.2595(2) 0.1981(3)
N51F N 0.14394(12) 0.23090(16) 0.0735(2)
N52F N 0.1513(2) 0.1766(3) 0.2107(3)
N53F N 0.21214(17) 0.2625(2) 0.2146(3)
C181F C 0.28283(16) 0.09293(18) -0.0106(3)
C182F C 0.33789(16) 0.1199(2) 0.0192(3)
C183F C 0.31617(14) 0.10632(19) 0.0840(3)
N54F N 0.25973(13) 0.10161(16) -0.0384(2)
N55F N 0.34738(14) 0.14565(18) 0.0092(3)
N56F N 0.31488(12) 0.12456(16) 0.1138(2)
N57F N 0.16852(11) 0.26428(15) 0.00834(19)
C184F C 0.18679(16) 0.28279(19) 0.0046(3)
C185F C 0.21009(16) 0.3065(2) -0.0009(3)
P1 P 0.0346(3) 0.0262(4) 0.3562(5)
F1 F 0.0217(4) -0.0122(4) 0.3586(8)
F2 F 0.0052(3) 0.0391(6) 0.3107(6)
F3 F 0.0481(4) 0.0656(5) 0.3558(8)
F4 F 0.0641(3) 0.0200(6) 0.4003(6)
F5 F 0.0194(4) 0.0414(5) 0.3908(7)
F6 F 0.0479(4) 0.0145(5) 0.3190(6)
P2 P 0.5000 0.0762(2) 0.2500
F7 F 0.5271(4) 0.0762(5) 0.2347(10)
F8 F 0.4736(4) 0.0760(5) 0.2041(7)
F9 F 0.5000 0.0346(3) 0.2500
F10 F 0.5000 0.1168(3) 0.2500
F7A F 0.4729(4) 0.0762(5) 0.2653(10)
F8A F 0.5264(4) 0.0760(5) 0.2959(7)
F11 F 0.36723(19) 0.1366(2) 0.3473(3)
F12 F 0.3233(6) 0.0724(6) 0.3439(12)
F13 F 0.3209(7) 0.1243(18) 0.306(3)
F14 F 0.3581(19) 0.0811(13) 0.318(4)
P3 P 0.3461(5) 0.1052(5) 0.3491(8)
F15 F 0.3678(12) 0.085(2) 0.395(3)
F16 F 0.338(2) 0.1295(18) 0.385(4)
N58 N 0.26081(19) -0.0239(2) 0.3209(3)
C186 C 0.2477(4) -0.0020(5) 0.3025(7)
C187 C 0.2269(3) 0.0322(4) 0.2620(6)
N59 N 0.2620(4) 0.1229(4) 0.2774(6)
C188 C 0.2091(4) 0.1291(4) 0.2052(6)
C189 C 0.2400(4) 0.1272(4) 0.2444(7)
loop_
_geom_bond_atom_site_label_1
_geom_bond_atom_site_label_2
_geom_bond_site_symmetry_1
_geom_bond_site_symmetry_2
Ni1 N1 1_555 1_555
Ni2 N9 1_555 1_555
Ni3 N13 1_555 1_555
Fe1 N21 1_555 1_555
Fe2 N27 1_555 1_555
Fe3 N33 1_555 1_555
Fe4 N39 1_555 1_555
N1 C1 1_555 1_555
C1 H1 1_555 1_555
C2 C1 1_555 1_555
H2 C2 1_555 1_555
C3 C2 1_555 1_555
H3 C3 1_555 1_555
C4 C3 1_555 1_555
H4 C4 1_555 1_555
C5 N1 1_555 1_555
N2 Ni1 1_555 1_555
C6 C5 1_555 1_555
C7 C6 1_555 1_555
H5 C7 1_555 1_555
C8 C7 1_555 1_555
N3 N2 1_555 1_555
H6 N3 1_555 1_555
C9 C8 1_555 1_555
C10 C9 1_555 1_555
H7 C10 1_555 1_555
C11 C10 1_555 1_555
H8 C11 1_555 1_555
C12 C11 1_555 1_555
C13 C12 1_555 1_555
H9 C13 1_555 1_555
C14 C9 1_555 1_555
H10 C14 1_555 1_555
N4 C12 1_555 1_555
C15 N4 1_555 1_555
C16 C15 1_555 1_555
H11 C16 1_555 1_555
C17 C16 1_555 1_555
H12 C17 1_555 1_555
C18 C17 1_555 1_555
H13 C18 1_555 1_555
C19 C18 1_555 1_555
H14 C19 1_555 1_555
C20 C15 1_555 1_555
H15 C20 1_555 1_555
C21 N4 1_555 1_555
C22 C21 1_555 1_555
H16 C22 1_555 1_555
C23 C22 1_555 1_555
H17 C23 1_555 1_555
C24 C23 1_555 1_555
C25 C24 1_555 1_555
H18 C25 1_555 1_555
C26 C21 1_555 1_555
H19 C26 1_555 1_555
O1 C24 1_555 1_555
C27 O1 1_555 1_555
H20 C27 1_555 1_555
H21 C27 1_555 1_555
H22 C27 1_555 1_555
N5 Ni1 1_555 1_555
C28 N5 1_555 1_555
H23 C28 1_555 1_555
C29 C28 1_555 1_555
H24 C29 1_555 1_555
C30 C29 1_555 1_555
H25 C30 1_555 1_555
C31 C30 1_555 1_555
H26 C31 1_555 1_555
C32 N5 1_555 1_555
N6 Ni1 1_555 1_555
C33 C32 1_555 1_555
C34 C33 1_555 1_555
H27 C34 1_555 1_555
C35 C34 1_555 1_555
N7 N6 1_555 1_555
H28 N7 1_555 1_555
C36 C35 1_555 1_555
C37 C36 1_555 1_555
H29 C37 1_555 1_555
C38 C37 1_555 1_555
H30 C38 1_555 1_555
C39 C38 1_555 1_555
C40 C39 1_555 1_555
H31 C40 1_555 1_555
C41 C36 1_555 1_555
H32 C41 1_555 1_555
N8 C39 1_555 1_555
C42 N8 1_555 1_555
C43 C42 1_555 1_555
H33 C43 1_555 1_555
C44 C43 1_555 1_555
H34 C44 1_555 1_555
C45 C44 1_555 1_555
H35 C45 1_555 1_555
C46 C45 1_555 1_555
H36 C46 1_555 1_555
C47 C42 1_555 1_555
H37 C47 1_555 1_555
C48 N8 1_555 1_555
C49 C48 1_555 1_555
H38 C49 1_555 1_555
C50 C49 1_555 1_555
H39 C50 1_555 1_555
C51 C50 1_555 1_555
C52 C51 1_555 1_555
H40 C52 1_555 1_555
C53 C48 1_555 1_555
H41 C53 1_555 1_555
O2 C51 1_555 1_555
C54 O2 1_555 1_555
H42 C54 1_555 1_555
H43 C54 1_555 1_555
H44 C54 1_555 1_555
N9 C55 1_555 1_555
C55 H45 1_555 1_555
C56 C55 1_555 1_555
H46 C56 1_555 1_555
C57 C56 1_555 1_555
H47 C57 1_555 1_555
C58 C57 1_555 1_555
H48 C58 1_555 1_555
C59 N9 1_555 1_555
N10 Ni2 1_555 1_555
C60 C59 1_555 1_555
C61 C60 1_555 1_555
H49 C61 1_555 1_555
C62 C61 1_555 1_555
N11 N10 1_555 1_555
H50 N11 1_555 1_555
C63 C62 1_555 1_555
C64 C63 1_555 1_555
H51 C64 1_555 1_555
C65 C64 1_555 1_555
H52 C65 1_555 1_555
C66 C65 1_555 1_555
C67 C66 1_555 1_555
H53 C67 1_555 1_555
C68 C63 1_555 1_555
H54 C68 1_555 1_555
N12 C66 1_555 1_555
C69 N12 1_555 1_555
C70 C69 1_555 1_555
H55 C70 1_555 1_555
C71 C70 1_555 1_555
H56 C71 1_555 1_555
C72 C71 1_555 1_555
H57 C72 1_555 1_555
C73 C72 1_555 1_555
H58 C73 1_555 1_555
C74 C69 1_555 1_555
H59 C74 1_555 1_555
C75 N12 1_555 1_555
C76 C75 1_555 1_555
H60 C76 1_555 1_555
C77 C76 1_555 1_555
H61 C77 1_555 1_555
C78 C77 1_555 1_555
C79 C78 1_555 1_555
H62 C79 1_555 1_555
C80 C75 1_555 1_555
H63 C80 1_555 1_555
O3 C78 1_555 1_555
C81 O3 1_555 1_555
H64 C81 1_555 1_555
H65 C81 1_555 1_555
H66 C81 1_555 1_555
N13 C82 1_555 1_555
C82 H67 1_555 1_555
C83 C82 1_555 1_555
H68 C83 1_555 1_555
C84 C83 1_555 1_555
H69 C84 1_555 1_555
C85 C84 1_555 1_555
H70 C85 1_555 1_555
C86 N13 1_555 1_555
N14 Ni3 1_555 1_555
C87 C86 1_555 1_555
C88 C87 1_555 1_555
H71 C88 1_555 1_555
C89 C88 1_555 1_555
N15 N14 1_555 1_555
H72 N15 1_555 1_555
C90 C89 1_555 1_555
C91 C90 1_555 1_555
H73 C91 1_555 1_555
C92 C91 1_555 1_555
H74 C92 1_555 1_555
C93 C92 1_555 1_555
C94 C93 1_555 1_555
H75 C94 1_555 1_555
C95 C90 1_555 1_555
H76 C95 1_555 1_555
N16 C93 1_555 1_555
C96 N16 1_555 1_555
C97 C96 1_555 1_555
H77 C97 1_555 1_555
C98 C97 1_555 1_555
H78 C98 1_555 1_555
C99 C98 1_555 1_555
H79 C99 1_555 1_555
C100 C99 1_555 1_555
H80 C100 1_555 1_555
C101 C96 1_555 1_555
H81 C101 1_555 1_555
C102 N16 1_555 1_555
C103 C102 1_555 1_555
H82 C103 1_555 1_555
C104 C103 1_555 1_555
H83 C104 1_555 1_555
C105 C104 1_555 1_555
C106 C105 1_555 1_555
H84 C106 1_555 1_555
C107 C102 1_555 1_555
H85 C107 1_555 1_555
O4 C105 1_555 1_555
C108 O4 1_555 1_555
H86 C108 1_555 1_555
H87 C108 1_555 1_555
H88 C108 1_555 1_555
N17 Ni3 1_555 1_555
C109 N17 1_555 1_555
H89 C109 1_555 1_555
C110 C109 1_555 1_555
H90 C110 1_555 1_555
C111 C110 1_555 1_555
H91 C111 1_555 1_555
C112 C111 1_555 1_555
H92 C112 1_555 1_555
C113 N17 1_555 1_555
N18 Ni3 1_555 1_555
C114 C113 1_555 1_555
C115 C114 1_555 1_555
H93 C115 1_555 1_555
C116 C115 1_555 1_555
N19 N18 1_555 1_555
H94 N19 1_555 1_555
C117 C116 1_555 1_555
C118 C117 1_555 1_555
H95 C118 1_555 1_555
C119 C118 1_555 1_555
H96 C119 1_555 1_555
C120 C119 1_555 1_555
C121 C120 1_555 1_555
H97 C121 1_555 1_555
C122 C117 1_555 1_555
H98 C122 1_555 1_555
N20 C120 1_555 1_555
C123 N20 1_555 1_555
C124 C123 1_555 1_555
H99 C124 1_555 1_555
C125 C124 1_555 1_555
H100 C125 1_555 1_555
C126 C125 1_555 1_555
H101 C126 1_555 1_555
C127 C126 1_555 1_555
H102 C127 1_555 1_555
C128 C123 1_555 1_555
H103 C128 1_555 1_555
C129 N20 1_555 1_555
C130 C129 1_555 1_555
H104 C130 1_555 1_555
C131 C130 1_555 1_555
H105 C131 1_555 1_555
C132 C131 1_555 1_555
C133 C132 1_555 1_555
H106 C133 1_555 1_555
C134 C129 1_555 1_555
H107 C134 1_555 1_555
O5 C132 1_555 1_555
C135 O5 1_555 1_555
H108 C135 1_555 1_555
H109 C135 1_555 1_555
H110 C135 1_555 1_555
B1 H111 1_555 1_555
N21 C136 1_555 1_555
C136 H112 1_555 1_555
C137 C136 1_555 1_555
H113 C137 1_555 1_555
C138 C137 1_555 1_555
H114 C138 1_555 1_555
N22 B1 1_555 1_555
N23 Fe1 1_555 1_555
C139 N23 1_555 1_555
H115 C139 1_555 1_555
C140 C139 1_555 1_555
H116 C140 1_555 1_555
C141 C140 1_555 1_555
H117 C141 1_555 1_555
N24 B1 1_555 1_555
N25 Fe1 1_555 1_555
C142 N25 1_555 1_555
H118 C142 1_555 1_555
C143 C142 1_555 1_555
H119 C143 1_555 1_555
C144 C143 1_555 1_555
H120 C144 1_555 1_555
N26 B1 1_555 1_555
B2 H121 1_555 1_555
N27 C145 1_555 1_555
C145 H122 1_555 1_555
C146 C145 1_555 1_555
H123 C146 1_555 1_555
C147 C146 1_555 1_555
H124 C147 1_555 1_555
N28 B2 1_555 1_555
N29 Fe2 1_555 1_555
C148 N29 1_555 1_555
H125 C148 1_555 1_555
C149 C148 1_555 1_555
H126 C149 1_555 1_555
C150 C149 1_555 1_555
H127 C150 1_555 1_555
N30 B2 1_555 1_555
N31 Fe2 1_555 1_555
C151 N31 1_555 1_555
H128 C151 1_555 1_555
C152 C151 1_555 1_555
H129 C152 1_555 1_555
C153 C152 1_555 1_555
H130 C153 1_555 1_555
N32 B2 1_555 1_555
B3 H131 1_555 1_555
N33 C154 1_555 1_555
C154 H132 1_555 1_555
C155 C154 1_555 1_555
H133 C155 1_555 1_555
C156 C155 1_555 1_555
H134 C156 1_555 1_555
N34 B3 1_555 1_555
N35 Fe3 1_555 1_555
C157 N35 1_555 1_555
H135 C157 1_555 1_555
C158 C157 1_555 1_555
H136 C158 1_555 1_555
C159 C158 1_555 1_555
H137 C159 1_555 1_555
N36 B3 1_555 1_555
N37 Fe3 1_555 1_555
C160 N37 1_555 1_555
H138 C160 1_555 1_555
C161 C160 1_555 1_555
H139 C161 1_555 1_555
C162 C161 1_555 1_555
H140 C162 1_555 1_555
N38 B3 1_555 1_555
B4 H141 1_555 1_555
N39 C163 1_555 1_555
C163 H142 1_555 1_555
C164 C163 1_555 1_555
H143 C164 1_555 1_555
C165 C164 1_555 1_555
H144 C165 1_555 1_555
N40 B4 1_555 1_555
N41 Fe4 1_555 1_555
C166 N41 1_555 1_555
H145 C166 1_555 1_555
C167 C166 1_555 1_555
H146 C167 1_555 1_555
C168 C167 1_555 1_555
H147 C168 1_555 1_555
N42 B4 1_555 1_555
N43 Fe4 1_555 1_555
C169 N43 1_555 1_555
H148 C169 1_555 1_555
C170 C169 1_555 1_555
H149 C170 1_555 1_555
C171 C170 1_555 1_555
H150 C171 1_555 1_555
N44 B4 1_555 1_555
C172 Fe1 1_555 1_555
C173 Fe1 1_555 1_555
C174 Fe1 1_555 1_555
N45 Ni1 1_555 1_555
N46 Ni2 1_555 1_555
N47 C174 1_555 1_555
C175 Fe2 1_555 1_555
C176 Fe2 1_555 1_555
C177 Fe2 1_555 1_555
N48 Ni2 1_555 1_555
N49 Ni3 1_555 1_555
N50 C177 1_555 1_555
C178 Fe3 1_555 1_555
C179 Fe3 1_555 1_555
C180 Fe3 1_555 1_555
N51 Ni2 1_555 1_555
N52 C179 1_555 1_555
N53 C180 1_555 1_555
C181 Fe4 1_555 1_555
C182 Fe4 1_555 1_555
C183 Fe4 1_555 1_555
N54 Ni1 1_555 1_555
N55 C182 1_555 1_555
N56 C183 1_555 1_555
N57 Ni2 1_555 1_555
C184 N57 1_555 1_555
C185 C184 1_555 1_555
P1 F1 1_555 1_555
F2 P1 1_555 1_555
F3 P1 1_555 1_555
F4 P1 1_555 1_555
F5 P1 1_555 1_555
F6 P1 1_555 1_555
P2 F7 1_555 1_555
F8 P2 1_555 1_555
F9 P2 1_555 1_555
F10 P2 1_555 1_555
F11 P3 1_555 1_555
F12 P3 1_555 1_555
F13 P3 1_555 1_555
F14 P3 1_555 1_555
P3 F15 1_555 1_555
F16 P3 1_555 1_555
N58 C186 1_555 1_555
C186 C187 1_555 1_555
N59 C189 1_555 1_555
C188 C189 1_555 1_555
Ni1F N1F 1_555 1_555
Ni2F N9F 1_555 1_555
Ni3F N56 1_555 1_555
Fe1F N21F 1_555 1_555
Fe2F N27F 1_555 1_555
Fe3F N33F 1_555 1_555
Fe4F N39F 1_555 1_555
N1F C1F 1_555 1_555
C1F H1F 1_555 1_555
C2F C1F 1_555 1_555
H2F C2F 1_555 1_555
C3F C2F 1_555 1_555
H3F C3F 1_555 1_555
C4F C3F 1_555 1_555
H4F C4F 1_555 1_555
C5F N1F 1_555 1_555
N2F Ni1F 1_555 1_555
C6F C5F 1_555 1_555
C7F C6F 1_555 1_555
H5F C7F 1_555 1_555
C8F C7F 1_555 1_555
N3F N2F 1_555 1_555
H6F N3F 1_555 1_555
C9F C8F 1_555 1_555
C10F C9F 1_555 1_555
H7F C10F 1_555 1_555
C11F C10F 1_555 1_555
H8F C11F 1_555 1_555
C12F C11F 1_555 1_555
C13F C12F 1_555 1_555
H9F C13F 1_555 1_555
C14F C9F 1_555 1_555
H10F C14F 1_555 1_555
N4F C12F 1_555 1_555
C15F N4F 1_555 1_555
C16F C15F 1_555 1_555
H11F C16F 1_555 1_555
C17F C16F 1_555 1_555
H12F C17F 1_555 1_555
C18F C17F 1_555 1_555
H13F C18F 1_555 1_555
C19F C18F 1_555 1_555
H14F C19F 1_555 1_555
C20F C15F 1_555 1_555
H15F C20F 1_555 1_555
C21F N4F 1_555 1_555
C22F C21F 1_555 1_555
H16F C22F 1_555 1_555
C23F C22F 1_555 1_555
H17F C23F 1_555 1_555
C24F C23F 1_555 1_555
C25F C24F 1_555 1_555
H18F C25F 1_555 1_555
C26F C21F 1_555 1_555
H19F C26F 1_555 1_555
O1F C24F 1_555 1_555
C27F O1F 1_555 1_555
H20F C27F 1_555 1_555
H21F C27F 1_555 1_555
H22F C27F 1_555 1_555
N5F Ni1F 1_555 1_555
C28F N5F 1_555 1_555
H23F C28F 1_555 1_555
C29F C28F 1_555 1_555
H24F C29F 1_555 1_555
C30F C29F 1_555 1_555
H25F C30F 1_555 1_555
C31F C30F 1_555 1_555
H26F C31F 1_555 1_555
C32F N5F 1_555 1_555
N6F Ni1F 1_555 1_555
C33F C32F 1_555 1_555
C34F C33F 1_555 1_555
H27F C34F 1_555 1_555
C35F C34F 1_555 1_555
N7F N6F 1_555 1_555
H28F N7F 1_555 1_555
C36F C35F 1_555 1_555
C37F C36F 1_555 1_555
H29F C37F 1_555 1_555
C38F C37F 1_555 1_555
H30F C38F 1_555 1_555
C39F C38F 1_555 1_555
C40F C39F 1_555 1_555
H31F C40F 1_555 1_555
C41F C36F 1_555 1_555
H32F C41F 1_555 1_555
N8F C39F 1_555 1_555
C42F N8F 1_555 1_555
C43F C42F 1_555 1_555
H33F C43F 1_555 1_555
C44F C43F 1_555 1_555
H34F C44F 1_555 1_555
C45F C44F 1_555 1_555
H35F C45F 1_555 1_555
C46F C45F 1_555 1_555
H36F C46F 1_555 1_555
C47F C42F 1_555 1_555
H37F C47F 1_555 1_555
C48F N8F 1_555 1_555
C49F C48F 1_555 1_555
H38F C49F 1_555 1_555
C50F C49F 1_555 1_555
H39F C50F 1_555 1_555
C51F C50F 1_555 1_555
C52F C51F 1_555 1_555
H40F C52F 1_555 1_555
C53F C48F 1_555 1_555
H41F C53F 1_555 1_555
O2F C51F 1_555 1_555
C54F O2F 1_555 1_555
H42F C54F 1_555 1_555
H43F C54F 1_555 1_555
H44F C54F 1_555 1_555
N9F C55F 1_555 1_555
C55F H45F 1_555 1_555
C56F C55F 1_555 1_555
H46F C56F 1_555 1_555
C57F C56F 1_555 1_555
H47F C57F 1_555 1_555
C58F C57F 1_555 1_555
H48F C58F 1_555 1_555
C59F N9F 1_555 1_555
N10F Ni2F 1_555 1_555
C60F C59F 1_555 1_555
C61F C60F 1_555 1_555
H49F C61F 1_555 1_555
C62F C61F 1_555 1_555
N11F N10F 1_555 1_555
H50F N11F 1_555 1_555
C63F C62F 1_555 1_555
C64F C63F 1_555 1_555
H51F C64F 1_555 1_555
C65F C64F 1_555 1_555
H52F C65F 1_555 1_555
C66F C65F 1_555 1_555
C67F C66F 1_555 1_555
H53F C67F 1_555 1_555
C68F C63F 1_555 1_555
H54F C68F 1_555 1_555
N12F C66F 1_555 1_555
C69F N12F 1_555 1_555
C70F C69F 1_555 1_555
H55F C70F 1_555 1_555
C71F C70F 1_555 1_555
H56F C71F 1_555 1_555
C72F C71F 1_555 1_555
H57F C72F 1_555 1_555
C73F C72F 1_555 1_555
H58F C73F 1_555 1_555
C74F C69F 1_555 1_555
H59F C74F 1_555 1_555
C75F N12F 1_555 1_555
C76F C75F 1_555 1_555
H60F C76F 1_555 1_555
C77F C76F 1_555 1_555
H61F C77F 1_555 1_555
C78F C77F 1_555 1_555
C79F C78F 1_555 1_555
H62F C79F 1_555 1_555
C80F C75F 1_555 1_555
H63F C80F 1_555 1_555
O3F C78F 1_555 1_555
C81F O3F 1_555 1_555
H64F C81F 1_555 1_555
H65F C81F 1_555 1_555
H66F C81F 1_555 1_555
N13F Ni3F 1_555 1_555
C82F N13F 1_555 1_555
H67F C82F 1_555 1_555
C83F C82F 1_555 1_555
H68F C83F 1_555 1_555
C84F C83F 1_555 1_555
H69F C84F 1_555 1_555
C85F C84F 1_555 1_555
H70F C85F 1_555 1_555
C86F N13F 1_555 1_555
N14F Ni3F 1_555 1_555
C87F C86F 1_555 1_555
C88F C87F 1_555 1_555
H71F C88F 1_555 1_555
C89F C88F 1_555 1_555
N15F N14F 1_555 1_555
H72F N15F 1_555 1_555
C90F C89F 1_555 1_555
C91F C90F 1_555 1_555
H73F C91F 1_555 1_555
C92F C91F 1_555 1_555
H74F C92F 1_555 1_555
C93F C92F 1_555 1_555
C94F C93F 1_555 1_555
H75F C94F 1_555 1_555
C95F C90F 1_555 1_555
H76F C95F 1_555 1_555
N16F C93F 1_555 1_555
C96F N16F 1_555 1_555
C97F C96F 1_555 1_555
H77F C97F 1_555 1_555
C98F C97F 1_555 1_555
H78F C98F 1_555 1_555
C99F C98F 1_555 1_555
H79F C99F 1_555 1_555
C100F C99F 1_555 1_555
H80F C100F 1_555 1_555
C101F C96F 1_555 1_555
H81F C101F 1_555 1_555
C102F N16F 1_555 1_555
C103F C102F 1_555 1_555
H82F C103F 1_555 1_555
C104F C103F 1_555 1_555
H83F C104F 1_555 1_555
C105F C104F 1_555 1_555
C106F C105F 1_555 1_555
H84F C106F 1_555 1_555
C107F C102F 1_555 1_555
H85F C107F 1_555 1_555
O4F C105F 1_555 1_555
C108F O4F 1_555 1_555
H86F C108F 1_555 1_555
H87F C108F 1_555 1_555
H88F C108F 1_555 1_555
N17F Ni3F 1_555 1_555
C109F N17F 1_555 1_555
H89F C109F 1_555 1_555
C110F C109F 1_555 1_555
H90F C110F 1_555 1_555
C111F C110F 1_555 1_555
H91F C111F 1_555 1_555
C112F C111F 1_555 1_555
H92F C112F 1_555 1_555
C113F N17F 1_555 1_555
N18F Ni3F 1_555 1_555
C114F C113F 1_555 1_555
C115F C114F 1_555 1_555
H93F C115F 1_555 1_555
C116F C115F 1_555 1_555
N19F N18F 1_555 1_555
H94F N19F 1_555 1_555
C117F C116F 1_555 1_555
C118F C117F 1_555 1_555
H95F C118F 1_555 1_555
C119F C118F 1_555 1_555
H96F C119F 1_555 1_555
C120F C119F 1_555 1_555
C121F C120F 1_555 1_555
H97F C121F 1_555 1_555
C122F C117F 1_555 1_555
H98F C122F 1_555 1_555
N20F C120F 1_555 1_555
C123F N20F 1_555 1_555
C124F C123F 1_555 1_555
H99F C124F 1_555 1_555
C125F C124F 1_555 1_555
H100F C125F 1_555 1_555
C126F C125F 1_555 1_555
H101F C126F 1_555 1_555
C127F C126F 1_555 1_555
H102F C127F 1_555 1_555
C128F C123F 1_555 1_555
H103F C128F 1_555 1_555
C129F N20F 1_555 1_555
C130F C129F 1_555 1_555
H104F C130F 1_555 1_555
C131F C130F 1_555 1_555
H105F C131F 1_555 1_555
C132F C131F 1_555 1_555
C133F C132F 1_555 1_555
H106F C133F 1_555 1_555
C134F C129F 1_555 1_555
H107F C134F 1_555 1_555
O5F C132F 1_555 1_555
C135F O5F 1_555 1_555
H108F C135F 1_555 1_555
H109F C135F 1_555 1_555
H110F C135F 1_555 1_555
B1F H111F 1_555 1_555
N21F C136F 1_555 1_555
C136F H112F 1_555 1_555
C137F C136F 1_555 1_555
H113F C137F 1_555 1_555
C138F C137F 1_555 1_555
H114F C138F 1_555 1_555
N22F B1F 1_555 1_555
N23F Fe1F 1_555 1_555
C139F N23F 1_555 1_555
H115F C139F 1_555 1_555
C140F C139F 1_555 1_555
H116F C140F 1_555 1_555
C141F C140F 1_555 1_555
H117F C141F 1_555 1_555
N24F B1F 1_555 1_555
N25F Fe1F 1_555 1_555
C142F N25F 1_555 1_555
H118F C142F 1_555 1_555
C143F C142F 1_555 1_555
H119F C143F 1_555 1_555
C144F C143F 1_555 1_555
H120F C144F 1_555 1_555
N26F B1F 1_555 1_555
B2F H121F 1_555 1_555
N27F C145F 1_555 1_555
C145F H122F 1_555 1_555
C146F C145F 1_555 1_555
H123F C146F 1_555 1_555
C147F C146F 1_555 1_555
H124F C147F 1_555 1_555
N28F B2F 1_555 1_555
N29F Fe2F 1_555 1_555
C148F N29F 1_555 1_555
H125F C148F 1_555 1_555
C149F C148F 1_555 1_555
H126F C149F 1_555 1_555
C150F C149F 1_555 1_555
H127F C150F 1_555 1_555
N30F B2F 1_555 1_555
N31F Fe2F 1_555 1_555
C151F N31F 1_555 1_555
H128F C151F 1_555 1_555
C152F C151F 1_555 1_555
H129F C152F 1_555 1_555
C153F C152F 1_555 1_555
H130F C153F 1_555 1_555
N32F B2F 1_555 1_555
B3F H131F 1_555 1_555
N33F C154F 1_555 1_555
C154F H132F 1_555 1_555
C155F C154F 1_555 1_555
H133F C155F 1_555 1_555
C156F C155F 1_555 1_555
H134F C156F 1_555 1_555
N34F B3F 1_555 1_555
N35F Fe3F 1_555 1_555
C157F N35F 1_555 1_555
H135F C157F 1_555 1_555
C158F C157F 1_555 1_555
H136F C158F 1_555 1_555
C159F C158F 1_555 1_555
H137F C159F 1_555 1_555
N36F B3F 1_555 1_555
N37F Fe3F 1_555 1_555
C160F N37F 1_555 1_555
H138F C160F 1_555 1_555
C161F C160F 1_555 1_555
H139F C161F 1_555 1_555
C162F C161F 1_555 1_555
H140F C162F 1_555 1_555
N38F B3F 1_555 1_555
B4F H141F 1_555 1_555
N39F C163F 1_555 1_555
C163F H142F 1_555 1_555
C164F C163F 1_555 1_555
H143F C164F 1_555 1_555
C165F C164F 1_555 1_555
H144F C165F 1_555 1_555
N40F B4F 1_555 1_555
N41F Fe4F 1_555 1_555
C166F N41F 1_555 1_555
H145F C166F 1_555 1_555
C167F C166F 1_555 1_555
H146F C167F 1_555 1_555
C168F C167F 1_555 1_555
H147F C168F 1_555 1_555
N42F B4F 1_555 1_555
N43F Fe4F 1_555 1_555
C169F N43F 1_555 1_555
H148F C169F 1_555 1_555
C170F C169F 1_555 1_555
H149F C170F 1_555 1_555
C171F C170F 1_555 1_555
H150F C171F 1_555 1_555
N44F B4F 1_555 1_555
C172F Fe1F 1_555 1_555
C173F Fe1F 1_555 1_555
C174F Fe1F 1_555 1_555
N45F Ni1F 1_555 1_555
N46F Ni2F 1_555 1_555
N47F C174F 1_555 1_555
C175F Fe2F 1_555 1_555
C176F Fe2F 1_555 1_555
C177F Fe2F 1_555 1_555
N48F Ni2F 1_555 1_555
N49F Ni3F 1_555 1_555
N50F C177F 1_555 1_555
C178F Fe3F 1_555 1_555
C179F Fe3F 1_555 1_555
C180F Fe3F 1_555 1_555
N51F Ni2F 1_555 1_555
N52F C179F 1_555 1_555
N53F C180F 1_555 1_555
C181F Fe4F 1_555 1_555
C182F Fe4F 1_555 1_555
C183F Fe4F 1_555 1_555
N54F Ni1F 1_555 1_555
N55F C182F 1_555 1_555
N56F Ni3 1_555 1_555
N57F Ni2F 1_555 1_555
C184F N57F 1_555 1_555
C185F C184F 1_555 1_555
F7A P2 1_555 1_555
F8A P2 1_555 1_555
C4 C5 1_555 1_555
N2 C6 1_555 1_555
C8 N3 1_555 1_555
C13 C14 1_555 1_555
C19 C20 1_555 1_555
C25 C26 1_555 1_555
C31 C32 1_555 1_555
N6 C33 1_555 1_555
C35 N7 1_555 1_555
C40 C41 1_555 1_555
C46 C47 1_555 1_555
C52 C53 1_555 1_555
C58 C59 1_555 1_555
N10 C60 1_555 1_555
C62 N11 1_555 1_555
C67 C68 1_555 1_555
C73 C74 1_555 1_555
C79 C80 1_555 1_555
C85 C86 1_555 1_555
N14 C87 1_555 1_555
C89 N15 1_555 1_555
C94 C95 1_555 1_555
C100 C101 1_555 1_555
C106 C107 1_555 1_555
C112 C113 1_555 1_555
N18 C114 1_555 1_555
C116 N19 1_555 1_555
C121 C122 1_555 1_555
C127 C128 1_555 1_555
C133 C134 1_555 1_555
N21 N22 1_555 1_555
C138 N22 1_555 1_555
N23 N24 1_555 1_555
C141 N24 1_555 1_555
N25 N26 1_555 1_555
C144 N26 1_555 1_555
N27 N28 1_555 1_555
C147 N28 1_555 1_555
N29 N30 1_555 1_555
C150 N30 1_555 1_555
N31 N32 1_555 1_555
C153 N32 1_555 1_555
N33 N34 1_555 1_555
C156 N34 1_555 1_555
N35 N36 1_555 1_555
C159 N36 1_555 1_555
N37 N38 1_555 1_555
C162 N38 1_555 1_555
N39 N40 1_555 1_555
C165 N40 1_555 1_555
N41 N42 1_555 1_555
C168 N42 1_555 1_555
N43 N44 1_555 1_555
C171 N44 1_555 1_555
C172 N45 1_555 1_555
C173 N46 1_555 1_555
C175 N48 1_555 1_555
C176 N49 1_555 1_555
C178 N51 1_555 1_555
C181 N54 1_555 1_555
C4F C5F 1_555 1_555
N2F C6F 1_555 1_555
C8F N3F 1_555 1_555
C13F C14F 1_555 1_555
C19F C20F 1_555 1_555
C25F C26F 1_555 1_555
C31F C32F 1_555 1_555
N6F C33F 1_555 1_555
C35F N7F 1_555 1_555
C40F C41F 1_555 1_555
C46F C47F 1_555 1_555
C52F C53F 1_555 1_555
C58F C59F 1_555 1_555
N10F C60F 1_555 1_555
C62F N11F 1_555 1_555
C67F C68F 1_555 1_555
C73F C74F 1_555 1_555
C79F C80F 1_555 1_555
C85F C86F 1_555 1_555
N14F C87F 1_555 1_555
C89F N15F 1_555 1_555
C94F C95F 1_555 1_555
C100F C101F 1_555 1_555
C106F C107F 1_555 1_555
C112F C113F 1_555 1_555
N18F C114F 1_555 1_555
C116F N19F 1_555 1_555
C121F C122F 1_555 1_555
C127F C128F 1_555 1_555
C133F C134F 1_555 1_555
N21F N22F 1_555 1_555
C138F N22F 1_555 1_555
N23F N24F 1_555 1_555
C141F N24F 1_555 1_555
N25F N26F 1_555 1_555
C144F N26F 1_555 1_555
N27F N28F 1_555 1_555
C147F N28F 1_555 1_555
N29F N30F 1_555 1_555
C150F N30F 1_555 1_555
N31F N32F 1_555 1_555
C153F N32F 1_555 1_555
N33F N34F 1_555 1_555
C156F N34F 1_555 1_555
N35F N36F 1_555 1_555
C159F N36F 1_555 1_555
N37F N38F 1_555 1_555
C162F N38F 1_555 1_555
N39F N40F 1_555 1_555
C165F N40F 1_555 1_555
N41F N42F 1_555 1_555
C168F N42F 1_555 1_555
N43F N44F 1_555 1_555
C171F N44F 1_555 1_555
C172F N45F 1_555 1_555
C173F N46F 1_555 1_555
C175F N48F 1_555 1_555
C176F N49F 1_555 1_555
C178F N51F 1_555 1_555
C181F N54F 1_555 1_555
C183F N56F 1_555 1_555

#END
