# generated using pymatgen
data_Fe8Ni6B8PH310C388N118(O10F3)2
_symmetry_space_group_name_H-M   'P 1'
_cell_length_a   29.39100000
_cell_length_b   31.36435963
_cell_length_c   31.36435963
_cell_angle_alpha   73.11941783
_cell_angle_beta   69.89133638
_cell_angle_gamma   69.89133638
_symmetry_Int_Tables_number   1
_chemical_formula_structural   Fe8Ni6B8PH310C388N118(O10F3)2
_chemical_formula_sum   'Fe16 Ni12 B16 P2 H620 C776 N236 O40 F12'
_cell_volume   25004.41477877
_cell_formula_units_Z   2
loop_
 _symmetry_equiv_pos_site_id
 _symmetry_equiv_pos_as_xyz
  1  'x, y, z'
loop_
 _atom_site_type_symbol
 _atom_site_label
 _atom_site_symmetry_multiplicity
 _atom_site_fract_x
 _atom_site_fract_y
 _atom_site_fract_z
 _atom_site_occupancy
  B  B1  1  0.269100  0.323110  0.783310  1.0
  B  B2  1  0.230900  0.216690  0.676890  1.0
  B  B3  1  0.730900  0.676890  0.216690  1.0
  B  B4  1  0.769100  0.783310  0.323110  1.0
  B  B5  1  0.012100  0.830100  0.946100  1.0
  B  B6  1  0.487900  0.053900  0.169900  1.0
  B  B7  1  0.987900  0.169900  0.053900  1.0
  B  B8  1  0.512100  0.946100  0.830100  1.0
  B  B9  1  0.815400  0.431200  0.789800  1.0
  B  B10  1  0.684600  0.210200  0.568800  1.0
  B  B11  1  0.184600  0.568800  0.210200  1.0
  B  B12  1  0.315400  0.789800  0.431200  1.0
  B  B13  1  0.056100  0.655500  0.664300  1.0
  B  B14  1  0.443900  0.335700  0.344500  1.0
  B  B15  1  0.943900  0.344500  0.335700  1.0
  B  B16  1  0.556100  0.664300  0.655500  1.0
  C  C17  1  0.819700  0.750100  0.747900  1
  C  C18  1  0.680300  0.252100  0.249900  1
  C  C19  1  0.180300  0.249900  0.252100  1
  C  C20  1  0.319700  0.747900  0.750100  1
  C  C21  1  0.811500  0.788400  0.703600  1
  C  C22  1  0.688500  0.296400  0.211600  1
  C  C23  1  0.188500  0.211600  0.296400  1
  C  C24  1  0.311500  0.703600  0.788400  1
  C  C25  1  0.610700  0.655600  0.332400  1
  C  C26  1  0.889300  0.667600  0.344400  1
  C  C27  1  0.389300  0.344400  0.667600  1
  C  C28  1  0.110700  0.332400  0.655600  1
  C  C29  1  0.582700  0.655400  0.309400  1
  C  C30  1  0.917300  0.690600  0.344600  1
  C  C31  1  0.417300  0.344600  0.690600  1
  C  C32  1  0.082700  0.309400  0.655400  1
  C  C33  1  0.244300  0.472560  0.761520  1.0
  C  C34  1  0.255700  0.238480  0.527440  1.0
  C  C35  1  0.755700  0.527440  0.238480  1.0
  C  C36  1  0.744300  0.761520  0.472560  1.0
  C  C37  1  0.270500  0.467620  0.716820  1.0
  C  C38  1  0.229500  0.283180  0.532380  1.0
  C  C39  1  0.729500  0.532380  0.283180  1.0
  C  C40  1  0.770500  0.716820  0.467620  1.0
  C  C41  1  0.282600  0.503300  0.684500  1.0
  C  C42  1  0.217400  0.315500  0.496700  1.0
  C  C43  1  0.717400  0.496700  0.315500  1.0
  C  C44  1  0.782600  0.684500  0.503300  1.0
  C  C45  1  0.267600  0.545390  0.697590  1.0
  C  C46  1  0.232400  0.302410  0.454610  1.0
  C  C47  1  0.732400  0.454610  0.302410  1.0
  C  C48  1  0.767600  0.697590  0.545390  1.0
  C  C49  1  0.240200  0.549950  0.743350  1.0
  C  C50  1  0.259800  0.256650  0.450050  1.0
  C  C51  1  0.759800  0.450050  0.256650  1.0
  C  C52  1  0.740200  0.743350  0.549950  1.0
  C  C53  1  0.222000  0.593050  0.759650  1.0
  C  C54  1  0.278000  0.240350  0.406950  1.0
  C  C55  1  0.778000  0.406950  0.240350  1.0
  C  C56  1  0.722000  0.759650  0.593050  1.0
  C  C57  1  0.224000  0.638360  0.738960  1.0
  C  C58  1  0.276000  0.261040  0.361640  1.0
  C  C59  1  0.776000  0.361640  0.261040  1.0
  C  C60  1  0.724000  0.738960  0.638360  1.0
  C  C61  1  0.198000  0.664210  0.773410  1.0
  C  C62  1  0.302000  0.226590  0.335790  1.0
  C  C63  1  0.802000  0.335790  0.226590  1.0
  C  C64  1  0.698000  0.773410  0.664210  1.0
  C  C65  1  0.189700  0.710840  0.773840  1.0
  C  C66  1  0.310300  0.226160  0.289160  1.0
  C  C67  1  0.810300  0.289160  0.226160  1.0
  C  C68  1  0.689700  0.773840  0.710840  1.0
  C  C69  1  0.204200  0.740700  0.734300  1.0
  C  C70  1  0.295800  0.265700  0.259300  1.0
  C  C71  1  0.795800  0.259300  0.265700  1.0
  C  C72  1  0.704200  0.734300  0.740700  1.0
  C  C73  1  0.201100  0.786400  0.734400  1.0
  C  C74  1  0.298900  0.265600  0.213600  1.0
  C  C75  1  0.798900  0.213600  0.265600  1.0
  C  C76  1  0.701100  0.734400  0.786400  1.0
  C  C77  1  0.181200  0.801800  0.774200  1.0
  C  C78  1  0.318800  0.225800  0.198200  1.0
  C  C79  1  0.818800  0.198200  0.225800  1.0
  C  C80  1  0.681200  0.774200  0.801800  1.0
  C  C81  1  0.164400  0.771800  0.816000  1.0
  C  C82  1  0.335600  0.184000  0.228200  1.0
  C  C83  1  0.835600  0.228200  0.184000  1.0
  C  C84  1  0.664400  0.816000  0.771800  1.0
  C  C85  1  0.170400  0.726300  0.815900  1.0
  C  C86  1  0.329600  0.184100  0.273700  1.0
  C  C87  1  0.829600  0.273700  0.184100  1.0
  C  C88  1  0.670400  0.815900  0.726300  1.0
  C  C89  1  0.181200  0.880390  0.735590  1.0
  C  C90  1  0.318800  0.264410  0.119610  1.0
  C  C91  1  0.818800  0.119610  0.264410  1.0
  C  C92  1  0.681200  0.735590  0.880390  1.0
  C  C93  1  0.148800  0.894100  0.707700  1.0
  C  C94  1  0.351200  0.292300  0.105900  1.0
  C  C95  1  0.851200  0.105900  0.292300  1.0
  C  C96  1  0.648800  0.707700  0.894100  1.0
  C  C97  1  0.154300  0.929300  0.668900  1.0
  C  C98  1  0.345700  0.331100  0.070700  1.0
  C  C99  1  0.845700  0.070700  0.331100  1.0
  C  C100  1  0.654300  0.668900  0.929300  1.0
  C  C101  1  0.192200  0.950900  0.658100  1.0
  C  C102  1  0.307800  0.341900  0.049100  1.0
  C  C103  1  0.807800  0.049100  0.341900  1.0
  C  C104  1  0.692200  0.658100  0.950900  1.0
  C  C105  1  0.224600  0.937060  0.686060  1.0
  C  C106  1  0.275400  0.313940  0.062940  1.0
  C  C107  1  0.775400  0.062940  0.313940  1.0
  C  C108  1  0.724600  0.686060  0.937060  1.0
  C  C109  1  0.219100  0.901830  0.724830  1.0
  C  C110  1  0.280900  0.275170  0.098170  1.0
  C  C111  1  0.780900  0.098170  0.275170  1.0
  C  C112  1  0.719100  0.724830  0.901830  1.0
  C  C113  1  0.229300  0.013700  0.611300  1.0
  C  C114  1  0.270700  0.388700  0.986300  1.0
  C  C115  1  0.770700  0.986300  0.388700  1.0
  C  C116  1  0.729300  0.611300  0.013700  1.0
  C  C117  1  0.173400  0.855300  0.823700  1.0
  C  C118  1  0.326600  0.176300  0.144700  1.0
  C  C119  1  0.826600  0.144700  0.176300  1.0
  C  C120  1  0.673400  0.823700  0.855300  1.0
  C  C121  1  0.131900  0.889000  0.842600  1.0
  C  C122  1  0.368100  0.157400  0.111000  1.0
  C  C123  1  0.868100  0.111000  0.157400  1.0
  C  C124  1  0.631900  0.842600  0.889000  1.0
  C  C125  1  0.126900  0.898000  0.885000  1.0
  C  C126  1  0.373100  0.115000  0.102000  1.0
  C  C127  1  0.873100  0.102000  0.115000  1.0
  C  C128  1  0.626900  0.885000  0.898000  1.0
  C  C129  1  0.163300  0.873400  0.908600  1.0
  C  C130  1  0.336700  0.091400  0.126600  1.0
  C  C131  1  0.836700  0.126600  0.091400  1.0
  C  C132  1  0.663300  0.908600  0.873400  1.0
  C  C133  1  0.204800  0.839700  0.889700  1.0
  C  C134  1  0.295200  0.110300  0.160300  1.0
  C  C135  1  0.795200  0.160300  0.110300  1.0
  C  C136  1  0.704800  0.889700  0.839700  1.0
  C  C137  1  0.209800  0.830670  0.847270  1.0
  C  C138  1  0.290200  0.152730  0.169330  1.0
  C  C139  1  0.790200  0.169330  0.152730  1.0
  C  C140  1  0.709800  0.847270  0.830670  1.0
  C  C141  1  0.136200  0.921400  0.969400  1.0
  C  C142  1  0.363800  0.030600  0.078600  1.0
  C  C143  1  0.863800  0.078600  0.030600  1.0
  C  C144  1  0.636200  0.969400  0.921400  1.0
  C  C145  1  0.093900  0.566820  0.917220  1.0
  C  C146  1  0.406100  0.082780  0.433180  1.0
  C  C147  1  0.906100  0.433180  0.082780  1.0
  C  C148  1  0.593900  0.917220  0.566820  1.0
  C  C149  1  0.069500  0.579040  0.960240  1.0
  C  C150  1  0.430500  0.039760  0.420960  1.0
  C  C151  1  0.930500  0.420960  0.039760  1.0
  C  C152  1  0.569500  0.960240  0.579040  1.0
  C  C153  1  0.098500  0.571980  0.988380  1.0
  C  C154  1  0.401500  0.011620  0.428020  1.0
  C  C155  1  0.901500  0.428020  0.011620  1.0
  C  C156  1  0.598500  0.988380  0.571980  1.0
  C  C157  1  0.148600  0.552060  0.975260  1.0
  C  C158  1  0.351400  0.024740  0.447940  1.0
  C  C159  1  0.851400  0.447940  0.024740  1.0
  C  C160  1  0.648600  0.975260  0.552060  1.0
  C  C161  1  0.169000  0.541300  0.931700  1.0
  C  C162  1  0.331000  0.068300  0.458700  1.0
  C  C163  1  0.831000  0.458700  0.068300  1.0
  C  C164  1  0.669000  0.931700  0.541300  1.0
  C  C165  1  0.224600  0.519400  0.913000  1.0
  C  C166  1  0.275400  0.087000  0.480600  1.0
  C  C167  1  0.775400  0.480600  0.087000  1.0
  C  C168  1  0.724600  0.913000  0.519400  1.0
  C  C169  1  0.263300  0.506000  0.935000  1.0
  C  C170  1  0.236700  0.065000  0.494000  1.0
  C  C171  1  0.736700  0.494000  0.065000  1.0
  C  C172  1  0.763300  0.935000  0.506000  1.0
  C  C173  1  0.307200  0.487800  0.899600  1.0
  C  C174  1  0.192800  0.100400  0.512200  1.0
  C  C175  1  0.692800  0.512200  0.100400  1.0
  C  C176  1  0.807200  0.899600  0.487800  1.0
  C  C177  1  0.358700  0.467200  0.901000  1.0
  C  C178  1  0.141300  0.099000  0.532800  1.0
  C  C179  1  0.641300  0.532800  0.099000  1.0
  C  C180  1  0.858700  0.901000  0.467200  1.0
  C  C181  1  0.372300  0.469900  0.938300  1.0
  C  C182  1  0.127700  0.061700  0.530100  1.0
  C  C183  1  0.627700  0.530100  0.061700  1.0
  C  C184  1  0.872300  0.938300  0.469900  1.0
  C  C185  1  0.421400  0.449300  0.941500  1.0
  C  C186  1  0.078600  0.058500  0.550700  1.0
  C  C187  1  0.578600  0.550700  0.058500  1.0
  C  C188  1  0.921400  0.941500  0.449300  1.0
  C  C189  1  0.457000  0.425967  0.907367  1.0
  C  C190  1  0.043000  0.092633  0.574033  1.0
  C  C191  1  0.543000  0.574033  0.092633  1.0
  C  C192  1  0.957000  0.907367  0.425967  1.0
  C  C193  1  0.443400  0.423300  0.870100  1.0
  C  C194  1  0.056600  0.129900  0.576700  1.0
  C  C195  1  0.556600  0.576700  0.129900  1.0
  C  C196  1  0.943400  0.870100  0.423300  1.0
  C  C197  1  0.394300  0.443900  0.866900  1.0
  C  C198  1  0.105700  0.133100  0.556100  1.0
  C  C199  1  0.605700  0.556100  0.133100  1.0
  C  C200  1  0.894300  0.866900  0.443900  1.0
  C  C201  1  0.497400  0.347200  0.931600  1.0
  C  C202  1  0.002600  0.068400  0.652800  1.0
  C  C203  1  0.502600  0.652800  0.068400  1.0
  C  C204  1  0.997400  0.931600  0.347200  1.0
  C  C205  1  0.470600  0.334300  0.977100  1.0
  C  C206  1  0.029400  0.022900  0.665700  1.0
  C  C207  1  0.529400  0.665700  0.022900  1.0
  C  C208  1  0.970600  0.977100  0.334300  1.0
  C  C209  1  0.477600  0.287700  0.997900  1.0
  C  C210  1  0.022400  0.002100  0.712300  1.0
  C  C211  1  0.522400  0.712300  0.002100  1.0
  C  C212  1  0.977600  0.997900  0.287700  1.0
  C  C213  1  0.511600  0.254100  0.973100  1.0
  C  C214  1  0.988400  0.026900  0.745900  1.0
  C  C215  1  0.488400  0.745900  0.026900  1.0
  C  C216  1  0.011600  0.973100  0.254100  1.0
  C  C217  1  0.538500  0.267000  0.927600  1.0
  C  C218  1  0.961500  0.072400  0.733000  1.0
  C  C219  1  0.461500  0.733000  0.072400  1.0
  C  C220  1  0.038500  0.927600  0.267000  1.0
  C  C221  1  0.531400  0.313500  0.906900  1.0
  C  C222  1  0.968600  0.093100  0.686500  1.0
  C  C223  1  0.468600  0.686500  0.093100  1.0
  C  C224  1  0.031400  0.906900  0.313500  1.0
  C  C225  1  0.477800  0.183800  0.022200  1.0
  C  C226  1  0.022200  0.977800  0.816200  1.0
  C  C227  1  0.522200  0.816200  0.977800  1.0
  C  C228  1  0.977800  0.022200  0.183800  1.0
  C  C229  1  0.549400  0.401000  0.871600  1.0
  C  C230  1  0.950600  0.128400  0.599000  1.0
  C  C231  1  0.450600  0.599000  0.128400  1.0
  C  C232  1  0.049400  0.871600  0.401000  1.0
  C  C233  1  0.589700  0.361600  0.866600  1.0
  C  C234  1  0.910300  0.133400  0.638400  1.0
  C  C235  1  0.410300  0.638400  0.133400  1.0
  C  C236  1  0.089700  0.866600  0.361600  1.0
  C  C237  1  0.632700  0.363300  0.830100  1.0
  C  C238  1  0.867300  0.169900  0.636700  1.0
  C  C239  1  0.367300  0.636700  0.169900  1.0
  C  C240  1  0.132700  0.830100  0.363300  1.0
  C  C241  1  0.635400  0.404500  0.798300  1.0
  C  C242  1  0.864600  0.201700  0.595500  1.0
  C  C243  1  0.364600  0.595500  0.201700  1.0
  C  C244  1  0.135400  0.798300  0.404500  1.0
  C  C245  1  0.595100  0.443900  0.803300  1.0
  C  C246  1  0.904900  0.196700  0.556100  1.0
  C  C247  1  0.404900  0.556100  0.196700  1.0
  C  C248  1  0.095100  0.803300  0.443900  1.0
  C  C249  1  0.552100  0.442100  0.839900  1.0
  C  C250  1  0.947900  0.160100  0.557900  1.0
  C  C251  1  0.447900  0.557900  0.160100  1.0
  C  C252  1  0.052100  0.839900  0.442100  1.0
  C  C253  1  0.733300  0.378100  0.746900  1.0
  C  C254  1  0.766700  0.253100  0.621900  1.0
  C  C255  1  0.266700  0.621900  0.253100  1.0
  C  C256  1  0.233300  0.746900  0.378100  1.0
  C  C257  1  0.003700  0.263980  0.916380  1.0
  C  C258  1  0.496300  0.083620  0.736020  1.0
  C  C259  1  0.996300  0.736020  0.083620  1.0
  C  C260  1  0.503700  0.916380  0.263980  1.0
  C  C261  1  0.996800  0.227230  0.906630  1.0
  C  C262  1  0.503200  0.093370  0.772770  1.0
  C  C263  1  0.003200  0.772770  0.093370  1.0
  C  C264  1  0.496800  0.906630  0.227230  1.0
  C  C265  1  0.991300  0.230640  0.865440  1.0
  C  C266  1  0.508700  0.134560  0.769360  1.0
  C  C267  1  0.008700  0.769360  0.134560  1.0
  C  C268  1  0.491300  0.865440  0.230640  1.0
  C  C269  1  0.993400  0.271260  0.833260  1.0
  C  C270  1  0.506600  0.166740  0.728740  1.0
  C  C271  1  0.006600  0.728740  0.166740  1.0
  C  C272  1  0.493400  0.833260  0.271260  1.0
  C  C273  1  0.999200  0.307690  0.845550  1.0
  C  C274  1  0.500800  0.154450  0.692310  1.0
  C  C275  1  0.000800  0.692310  0.154450  1.0
  C  C276  1  0.499200  0.845550  0.307690  1.0
  C  C277  1  0.000800  0.351860  0.814120  1.0
  C  C278  1  0.499200  0.185880  0.648140  1.0
  C  C279  1  0.999200  0.648140  0.185880  1.0
  C  C280  1  0.500800  0.814120  0.351860  1.0
  C  C281  1  0.001200  0.367220  0.768620  1.0
  C  C282  1  0.498800  0.231380  0.632780  1.0
  C  C283  1  0.998800  0.632780  0.231380  1.0
  C  C284  1  0.501200  0.768620  0.367220  1.0
  C  C285  1  0.007600  0.412330  0.756410  1.0
  C  C286  1  0.492400  0.243590  0.587670  1.0
  C  C287  1  0.992400  0.587670  0.243590  1.0
  C  C288  1  0.507600  0.756410  0.412330  1.0
  C  C289  1  0.012200  0.445740  0.712540  1.0
  C  C290  1  0.487800  0.287460  0.554260  1.0
  C  C291  1  0.987800  0.554260  0.287460  1.0
  C  C292  1  0.512200  0.712540  0.445740  1.0
  C  C293  1  0.988400  0.446230  0.681230  1.0
  C  C294  1  0.511600  0.318770  0.553770  1.0
  C  C295  1  0.011600  0.553770  0.318770  1.0
  C  C296  1  0.488400  0.681230  0.446230  1.0
  C  C297  1  0.992500  0.478890  0.638290  1.0
  C  C298  1  0.507500  0.361710  0.521110  1.0
  C  C299  1  0.007500  0.521110  0.361710  1.0
  C  C300  1  0.492500  0.638290  0.478890  1.0
  C  C301  1  0.019700  0.510870  0.629670  1.0
  C  C302  1  0.480300  0.370330  0.489130  1.0
  C  C303  1  0.980300  0.489130  0.370330  1.0
  C  C304  1  0.519700  0.629670  0.510870  1.0
  C  C305  1  0.042400  0.510490  0.660290  1.0
  C  C306  1  0.457600  0.339710  0.489510  1.0
  C  C307  1  0.957600  0.489510  0.339710  1.0
  C  C308  1  0.542400  0.660290  0.510490  1.0
  C  C309  1  0.038700  0.478480  0.701580  1.0
  C  C310  1  0.461300  0.298420  0.521520  1.0
  C  C311  1  0.961300  0.521520  0.298420  1.0
  C  C312  1  0.538700  0.701580  0.478480  1.0
  C  C313  1  0.064500  0.562940  0.565540  1.0
  C  C314  1  0.435500  0.434460  0.437060  1.0
  C  C315  1  0.935500  0.437060  0.434460  1.0
  C  C316  1  0.564500  0.565540  0.562940  1.0
  C  C317  1  0.112600  0.534750  0.557350  1.0
  C  C318  1  0.387400  0.442650  0.465250  1.0
  C  C319  1  0.887400  0.465250  0.442650  1.0
  C  C320  1  0.612600  0.557350  0.534750  1.0
  C  C321  1  0.155300  0.551700  0.533900  1.0
  C  C322  1  0.344700  0.466100  0.448300  1.0
  C  C323  1  0.844700  0.448300  0.466100  1.0
  C  C324  1  0.655300  0.533900  0.551700  1.0
  C  C325  1  0.145600  0.596400  0.517200  1.0
  C  C326  1  0.354400  0.482800  0.403600  1.0
  C  C327  1  0.854400  0.403600  0.482800  1.0
  C  C328  1  0.645600  0.517200  0.596400  1.0
  C  C329  1  0.097700  0.627000  0.525600  1.0
  C  C330  1  0.402300  0.474400  0.373000  1.0
  C  C331  1  0.902300  0.373000  0.474400  1.0
  C  C332  1  0.597700  0.525600  0.627000  1.0
  C  C333  1  0.055500  0.610100  0.549300  1.0
  C  C334  1  0.444500  0.450700  0.389900  1.0
  C  C335  1  0.944500  0.389900  0.450700  1.0
  C  C336  1  0.555500  0.549300  0.610100  1.0
  C  C337  1  0.175600  0.668500  0.487300  1.0
  C  C338  1  0.324400  0.512700  0.331500  1.0
  C  C339  1  0.824400  0.331500  0.512700  1.0
  C  C340  1  0.675600  0.487300  0.668500  1.0
  C  C341  1  0.985800  0.554530  0.562330  1.0
  C  C342  1  0.514200  0.437670  0.445470  1.0
  C  C343  1  0.014200  0.445470  0.437670  1.0
  C  C344  1  0.485800  0.562330  0.554530  1.0
  C  C345  1  0.000900  0.552240  0.517440  1.0
  C  C346  1  0.499100  0.482560  0.447760  1.0
  C  C347  1  0.999100  0.447760  0.482560  1.0
  C  C348  1  0.500900  0.517440  0.552240  1.0
  C  C349  1  0.965900  0.563510  0.492310  1.0
  C  C350  1  0.534100  0.507690  0.436490  1.0
  C  C351  1  0.034100  0.436490  0.507690  1.0
  C  C352  1  0.465900  0.492310  0.563510  1.0
  C  C353  1  0.917200  0.576900  0.514300  1.0
  C  C354  1  0.582800  0.485700  0.423100  1.0
  C  C355  1  0.082800  0.423100  0.485700  1.0
  C  C356  1  0.417200  0.514300  0.576900  1.0
  C  C357  1  0.900900  0.579100  0.559500  1.0
  C  C358  1  0.599100  0.440500  0.420900  1.0
  C  C359  1  0.099100  0.420900  0.440500  1.0
  C  C360  1  0.400900  0.559500  0.579100  1.0
  C  C361  1  0.935200  0.569500  0.583300  1.0
  C  C362  1  0.564800  0.416700  0.430500  1.0
  C  C363  1  0.064800  0.430500  0.416700  1.0
  C  C364  1  0.435200  0.583300  0.569500  1.0
  C  C365  1  0.893200  0.582830  0.445630  1.0
  C  C366  1  0.606800  0.554370  0.417170  1.0
  C  C367  1  0.106800  0.417170  0.554370  1.0
  C  C368  1  0.393200  0.445630  0.582830  1.0
  C  C369  1  0.924600  0.621410  0.979390  1.0
  C  C370  1  0.575400  0.020610  0.378590  1.0
  C  C371  1  0.075400  0.378590  0.020610  1.0
  C  C372  1  0.424600  0.979390  0.621410  1.0
  C  C373  1  0.922400  0.584870  0.016870  1.0
  C  C374  1  0.577600  0.983130  0.415130  1.0
  C  C375  1  0.077600  0.415130  0.983130  1.0
  C  C376  1  0.422400  0.016870  0.584870  1.0
  C  C377  1  0.897300  0.554250  0.020050  1.0
  C  C378  1  0.602700  0.979950  0.445750  1.0
  C  C379  1  0.102700  0.445750  0.979950  1.0
  C  C380  1  0.397300  0.020050  0.554250  1.0
  C  C381  1  0.873100  0.560770  0.986570  1.0
  C  C382  1  0.626900  0.013430  0.439230  1.0
  C  C383  1  0.126900  0.439230  0.013430  1.0
  C  C384  1  0.373100  0.986570  0.560770  1.0
  C  C385  1  0.876900  0.598500  0.949300  1.0
  C  C386  1  0.623100  0.050700  0.401500  1.0
  C  C387  1  0.123100  0.401500  0.050700  1.0
  C  C388  1  0.376900  0.949300  0.598500  1.0
  C  C389  1  0.854900  0.607790  0.912390  1.0
  C  C390  1  0.645100  0.087610  0.392210  1.0
  C  C391  1  0.145100  0.392210  0.087610  1.0
  C  C392  1  0.354900  0.912390  0.607790  1.0
  C  C393  1  0.829400  0.584320  0.901520  1.0
  C  C394  1  0.670600  0.098480  0.415680  1.0
  C  C395  1  0.170600  0.415680  0.098480  1.0
  C  C396  1  0.329400  0.901520  0.584320  1.0
  C  C397  1  0.818100  0.609260  0.860660  1.0
  C  C398  1  0.681900  0.139340  0.390740  1.0
  C  C399  1  0.181900  0.390740  0.139340  1.0
  C  C400  1  0.318100  0.860660  0.609260  1.0
  C  C401  1  0.790900  0.603400  0.834000  1.0
  C  C402  1  0.709100  0.166000  0.396600  1.0
  C  C403  1  0.209100  0.396600  0.166000  1.0
  C  C404  1  0.290900  0.834000  0.603400  1.0
  C  C405  1  0.755500  0.577300  0.856300  1.0
  C  C406  1  0.744500  0.143700  0.422700  1.0
  C  C407  1  0.244500  0.422700  0.143700  1.0
  C  C408  1  0.255500  0.856300  0.577300  1.0
  C  C409  1  0.725700  0.571900  0.834300  1.0
  C  C410  1  0.774300  0.165700  0.428100  1.0
  C  C411  1  0.274300  0.428100  0.165700  1.0
  C  C412  1  0.225700  0.834300  0.571900  1.0
  C  C413  1  0.733900  0.588600  0.786600  1.0
  C  C414  1  0.766100  0.213400  0.411400  1.0
  C  C415  1  0.266100  0.411400  0.213400  1.0
  C  C416  1  0.233900  0.786600  0.588600  1.0
  C  C417  1  0.770900  0.611070  0.764070  1.0
  C  C418  1  0.729100  0.235930  0.388930  1.0
  C  C419  1  0.229100  0.388930  0.235930  1.0
  C  C420  1  0.270900  0.764070  0.611070  1.0
  C  C421  1  0.799000  0.618410  0.787210  1.0
  C  C422  1  0.701000  0.212790  0.381590  1.0
  C  C423  1  0.201000  0.381590  0.212790  1.0
  C  C424  1  0.299000  0.787210  0.618410  1.0
  C  C425  1  0.724000  0.579640  0.716160  1.0
  C  C426  1  0.776000  0.283840  0.420360  1.0
  C  C427  1  0.276000  0.420360  0.283840  1.0
  C  C428  1  0.224000  0.716160  0.579640  1.0
  C  C429  1  0.704100  0.610360  0.680860  1.0
  C  C430  1  0.795900  0.319140  0.389640  1.0
  C  C431  1  0.295900  0.389640  0.319140  1.0
  C  C432  1  0.204100  0.680860  0.610360  1.0
  C  C433  1  0.724100  0.602280  0.635920  1.0
  C  C434  1  0.775900  0.364080  0.397720  1.0
  C  C435  1  0.275900  0.397720  0.364080  1.0
  C  C436  1  0.224100  0.635920  0.602280  1.0
  C  C437  1  0.763800  0.563470  0.626270  1.0
  C  C438  1  0.736200  0.373730  0.436530  1.0
  C  C439  1  0.236200  0.436530  0.373730  1.0
  C  C440  1  0.263800  0.626270  0.563470  1.0
  C  C441  1  0.783700  0.532750  0.661550  1.0
  C  C442  1  0.716300  0.338450  0.467250  1.0
  C  C443  1  0.216300  0.467250  0.338450  1.0
  C  C444  1  0.283700  0.661550  0.532750  1.0
  C  C445  1  0.763700  0.540850  0.706550  1.0
  C  C446  1  0.736300  0.293450  0.459150  1.0
  C  C447  1  0.236300  0.459150  0.293450  1.0
  C  C448  1  0.263700  0.706550  0.540850  1.0
  C  C449  1  0.773200  0.548100  0.551100  1.0
  C  C450  1  0.726800  0.448900  0.451900  1.0
  C  C451  1  0.226800  0.451900  0.448900  1.0
  C  C452  1  0.273200  0.551100  0.548100  1.0
  C  C453  1  0.650500  0.593070  0.783530  1.0
  C  C454  1  0.849500  0.216470  0.406930  1.0
  C  C455  1  0.349500  0.406930  0.216470  1.0
  C  C456  1  0.150500  0.783530  0.593070  1.0
  C  C457  1  0.624300  0.568890  0.774270  1.0
  C  C458  1  0.875700  0.225730  0.431110  1.0
  C  C459  1  0.375700  0.431110  0.225730  1.0
  C  C460  1  0.124300  0.774270  0.568890  1.0
  C  C461  1  0.572800  0.576500  0.794100  1.0
  C  C462  1  0.927200  0.205900  0.423500  1.0
  C  C463  1  0.427200  0.423500  0.205900  1.0
  C  C464  1  0.072800  0.794100  0.576500  1.0
  C  C465  1  0.547300  0.608200  0.823200  1.0
  C  C466  1  0.952700  0.176800  0.391800  1.0
  C  C467  1  0.452700  0.391800  0.176800  1.0
  C  C468  1  0.047300  0.823200  0.608200  1.0
  C  C469  1  0.573400  0.632360  0.832560  1.0
  C  C470  1  0.926600  0.167440  0.367640  1.0
  C  C471  1  0.426600  0.367640  0.167440  1.0
  C  C472  1  0.073400  0.832560  0.632360  1.0
  C  C473  1  0.625000  0.624900  0.812700  1.0
  C  C474  1  0.875000  0.187300  0.375100  1.0
  C  C475  1  0.375000  0.375100  0.187300  1.0
  C  C476  1  0.125000  0.812700  0.624900  1.0
  C  C477  1  0.472000  0.649300  0.879300  1.0
  C  C478  1  0.028000  0.120700  0.350700  1.0
  C  C479  1  0.528000  0.350700  0.120700  1.0
  C  C480  1  0.972000  0.879300  0.649300  1.0
  C  C481  1  0.931900  0.733950  0.784050  1.0
  C  C482  1  0.568100  0.215950  0.266050  1.0
  C  C483  1  0.068100  0.266050  0.215950  1.0
  C  C484  1  0.431900  0.784050  0.733950  1.0
  C  C485  1  0.929600  0.772170  0.748770  1.0
  C  C486  1  0.570400  0.251230  0.227830  1.0
  C  C487  1  0.070400  0.227830  0.251230  1.0
  C  C488  1  0.429600  0.748770  0.772170  1.0
  C  C489  1  0.892200  0.812100  0.756700  1.0
  C  C490  1  0.607800  0.243300  0.187900  1.0
  C  C491  1  0.107800  0.187900  0.243300  1.0
  C  C492  1  0.392200  0.756700  0.812100  1.0
  C  C493  1  0.858000  0.812040  0.800640  1.0
  C  C494  1  0.642000  0.199360  0.187960  1.0
  C  C495  1  0.142000  0.187960  0.199360  1.0
  C  C496  1  0.358000  0.800640  0.812040  1.0
  C  C497  1  0.864800  0.772690  0.834670  1.0
  C  C498  1  0.635200  0.165330  0.227310  1.0
  C  C499  1  0.135200  0.227310  0.165330  1.0
  C  C500  1  0.364800  0.834670  0.772690  1.0
  C  C501  1  0.831900  0.771230  0.882430  1.0
  C  C502  1  0.668100  0.117570  0.228770  1.0
  C  C503  1  0.168100  0.228770  0.117570  1.0
  C  C504  1  0.331900  0.882430  0.771230  1.0
  C  C505  1  0.790500  0.802750  0.903550  1.0
  C  C506  1  0.709500  0.096450  0.197250  1.0
  C  C507  1  0.209500  0.197250  0.096450  1.0
  C  C508  1  0.290500  0.903550  0.802750  1.0
  C  C509  1  0.776000  0.780980  0.948580  1.0
  C  C510  1  0.724000  0.051420  0.219020  1.0
  C  C511  1  0.224000  0.219020  0.051420  1.0
  C  C512  1  0.276000  0.948580  0.780980  1.0
  C  C513  1  0.732930  0.796720  0.987300  1.0
  C  C514  1  0.767070  0.012700  0.203280  1.0
  C  C515  1  0.267070  0.203280  0.012700  1.0
  C  C516  1  0.232930  0.987300  0.796720  1.0
  C  C517  1  0.691400  0.831640  0.977300  1.0
  C  C518  1  0.808600  0.022700  0.168360  1.0
  C  C519  1  0.308600  0.168360  0.022700  1.0
  C  C520  1  0.191400  0.977300  0.831640  1.0
  C  C521  1  0.652000  0.849510  0.012930  1.0
  C  C522  1  0.848000  0.987070  0.150490  1.0
  C  C523  1  0.348000  0.150490  0.987070  1.0
  C  C524  1  0.152000  0.012930  0.849510  1.0
  C  C525  1  0.654100  0.832450  0.058570  1.0
  C  C526  1  0.845900  0.941430  0.167550  1.0
  C  C527  1  0.345900  0.167550  0.941430  1.0
  C  C528  1  0.154100  0.058570  0.832450  1.0
  C  C529  1  0.695600  0.797530  0.068570  1.0
  C  C530  1  0.804400  0.931430  0.202470  1.0
  C  C531  1  0.304400  0.202470  0.931430  1.0
  C  C532  1  0.195600  0.068570  0.797530  1.0
  C  C533  1  0.735030  0.779670  0.032930  1.0
  C  C534  1  0.764970  0.967070  0.220330  1.0
  C  C535  1  0.264970  0.220330  0.967070  1.0
  C  C536  1  0.235030  0.032930  0.779670  1.0
  C  C537  1  0.581300  0.897260  0.083860  1.0
  C  C538  1  0.918700  0.916140  0.102740  1.0
  C  C539  1  0.418700  0.102740  0.916140  1.0
  C  C540  1  0.081300  0.083860  0.897260  1.0
  C  C541  1  0.598900  0.935460  0.058260  1.0
  C  C542  1  0.901100  0.941740  0.064540  1.0
  C  C543  1  0.401100  0.064540  0.941740  1.0
  C  C544  1  0.098900  0.058260  0.935460  1.0
  C  C545  1  0.565100  0.978450  0.049250  1.0
  C  C546  1  0.934900  0.950750  0.021550  1.0
  C  C547  1  0.434900  0.021550  0.950750  1.0
  C  C548  1  0.065100  0.049250  0.978450  1.0
  C  C549  1  0.513600  0.983120  0.065920  1.0
  C  C550  1  0.986400  0.934080  0.016880  1.0
  C  C551  1  0.486400  0.016880  0.934080  1.0
  C  C552  1  0.013600  0.065920  0.983120  1.0
  C  C553  1  0.496000  0.944920  0.091520  1.0
  C  C554  1  0.004000  0.908480  0.055080  1.0
  C  C555  1  0.504000  0.055080  0.908480  1.0
  C  C556  1  0.996000  0.091520  0.944920  1.0
  C  C557  1  0.529800  0.901900  0.100500  1.0
  C  C558  1  0.970200  0.899500  0.098100  1.0
  C  C559  1  0.470200  0.098100  0.899500  1.0
  C  C560  1  0.029800  0.100500  0.901900  1.0
  C  C561  1  0.487700  0.074300  0.029500  1.0
  C  C562  1  0.012300  0.970500  0.925700  1.0
  C  C563  1  0.512300  0.925700  0.970500  1.0
  C  C564  1  0.987700  0.029500  0.074300  1.0
  C  C565  1  0.612400  0.832350  0.141550  1.0
  C  C566  1  0.887600  0.858450  0.167650  1.0
  C  C567  1  0.387600  0.167650  0.858450  1.0
  C  C568  1  0.112400  0.141550  0.832350  1.0
  C  C569  1  0.622330  0.855770  0.167330  1.0
  C  C570  1  0.877670  0.832670  0.144230  1.0
  C  C571  1  0.377670  0.144230  0.832670  1.0
  C  C572  1  0.122330  0.167330  0.855770  1.0
  C  C573  1  0.621970  0.836580  0.213320  1.0
  C  C574  1  0.878030  0.786680  0.163420  1.0
  C  C575  1  0.378030  0.163420  0.786680  1.0
  C  C576  1  0.121970  0.213320  0.836580  1.0
  C  C577  1  0.611720  0.793970  0.233510  1.0
  C  C578  1  0.888280  0.766490  0.206030  1.0
  C  C579  1  0.388280  0.206030  0.766490  1.0
  C  C580  1  0.111720  0.233510  0.793970  1.0
  C  C581  1  0.601800  0.770550  0.207710  1.0
  C  C582  1  0.898200  0.792290  0.229450  1.0
  C  C583  1  0.398200  0.229450  0.792290  1.0
  C  C584  1  0.101800  0.207710  0.770550  1.0
  C  C585  1  0.602200  0.789730  0.161730  1.0
  C  C586  1  0.897800  0.838270  0.210270  1.0
  C  C587  1  0.397800  0.210270  0.838270  1.0
  C  C588  1  0.102200  0.161730  0.789730  1.0
  C  C589  1  0.627000  0.793330  0.304530  1.0
  C  C590  1  0.873000  0.695470  0.206670  1.0
  C  C591  1  0.373000  0.206670  0.695470  1.0
  C  C592  1  0.127000  0.304530  0.793330  1.0
  C  C593  1  0.196400  0.258720  0.882520  1.0
  C  C594  1  0.303600  0.117480  0.741280  1.0
  C  C595  1  0.803600  0.741280  0.117480  1.0
  C  C596  1  0.696400  0.882520  0.258720  1.0
  C  C597  1  0.226100  0.221240  0.862640  1.0
  C  C598  1  0.273900  0.137360  0.778760  1.0
  C  C599  1  0.773900  0.778760  0.137360  1.0
  C  C600  1  0.726100  0.862640  0.221240  1.0
  C  C601  1  0.257500  0.239160  0.822560  1.0
  C  C602  1  0.242500  0.177440  0.760840  1.0
  C  C603  1  0.742500  0.760840  0.177440  1.0
  C  C604  1  0.757500  0.822560  0.239160  1.0
  C  C605  1  0.284000  0.377210  0.862870  1.0
  C  C606  1  0.216000  0.137130  0.622790  1.0
  C  C607  1  0.716000  0.622790  0.137130  1.0
  C  C608  1  0.784000  0.862870  0.377210  1.0
  C  C609  1  0.332800  0.369840  0.835840  1.0
  C  C610  1  0.167200  0.164160  0.630160  1.0
  C  C611  1  0.667200  0.630160  0.164160  1.0
  C  C612  1  0.832800  0.835840  0.369840  1.0
  C  C613  1  0.335700  0.349890  0.801290  1.0
  C  C614  1  0.164300  0.198710  0.650110  1.0
  C  C615  1  0.664300  0.650110  0.198710  1.0
  C  C616  1  0.835700  0.801290  0.349890  1.0
  C  C617  1  0.152700  0.412450  0.776990  1.0
  C  C618  1  0.347300  0.223010  0.587550  1.0
  C  C619  1  0.847300  0.587550  0.223010  1.0
  C  C620  1  0.652700  0.776990  0.412450  1.0
  C  C621  1  0.173100  0.411680  0.729280  1.0
  C  C622  1  0.326900  0.270720  0.588320  1.0
  C  C623  1  0.826900  0.588320  0.270720  1.0
  C  C624  1  0.673100  0.729280  0.411680  1.0
  C  C625  1  0.218200  0.377590  0.725190  1.0
  C  C626  1  0.281800  0.274810  0.622410  1.0
  C  C627  1  0.781800  0.622410  0.274810  1.0
  C  C628  1  0.718200  0.725190  0.377590  1.0
  C  C629  1  0.088900  0.797800  0.980000  1.0
  C  C630  1  0.411100  0.020000  0.202200  1.0
  C  C631  1  0.911100  0.202200  0.020000  1.0
  C  C632  1  0.588900  0.980000  0.797800  1.0
  C  C633  1  0.118300  0.755000  0.991800  1.0
  C  C634  1  0.381700  0.008200  0.245000  1.0
  C  C635  1  0.881700  0.245000  0.008200  1.0
  C  C636  1  0.618300  0.991800  0.755000  1.0
  C  C637  1  0.099500  0.726380  0.980980  1.0
  C  C638  1  0.400500  0.019020  0.273620  1.0
  C  C639  1  0.900500  0.273620  0.019020  1.0
  C  C640  1  0.599500  0.980980  0.726380  1.0
  C  C641  1  0.023400  0.856000  0.855000  1.0
  C  C642  1  0.476600  0.145000  0.144000  1.0
  C  C643  1  0.976600  0.144000  0.145000  1.0
  C  C644  1  0.523400  0.855000  0.856000  1.0
  C  C645  1  0.030000  0.832700  0.821900  1.0
  C  C646  1  0.470000  0.178100  0.167300  1.0
  C  C647  1  0.970000  0.167300  0.178100  1.0
  C  C648  1  0.530000  0.821900  0.832700  1.0
  C  C649  1  0.029500  0.787800  0.844600  1.0
  C  C650  1  0.470500  0.155400  0.212200  1.0
  C  C651  1  0.970500  0.212200  0.155400  1.0
  C  C652  1  0.529500  0.844600  0.787800  1.0
  C  C653  1  0.917500  0.840390  0.001190  1.0
  C  C654  1  0.582500  0.998810  0.159610  1.0
  C  C655  1  0.082500  0.159610  0.998810  1.0
  C  C656  1  0.417500  0.001190  0.840390  1.0
  C  C657  1  0.885200  0.814390  0.019390  1.0
  C  C658  1  0.614800  0.980610  0.185610  1.0
  C  C659  1  0.114800  0.185610  0.980610  1.0
  C  C660  1  0.385200  0.019390  0.814390  1.0
  C  C661  1  0.911600  0.773660  0.002460  1.0
  C  C662  1  0.588400  0.997540  0.226340  1.0
  C  C663  1  0.088400  0.226340  0.997540  1.0
  C  C664  1  0.411600  0.002460  0.773660  1.0
  C  C665  1  0.859600  0.341200  0.789400  1.0
  C  C666  1  0.640400  0.210600  0.658800  1.0
  C  C667  1  0.140400  0.658800  0.210600  1.0
  C  C668  1  0.359600  0.789400  0.341200  1.0
  C  C669  1  0.876800  0.303100  0.821900  1.0
  C  C670  1  0.623200  0.178100  0.696900  1.0
  C  C671  1  0.123200  0.696900  0.178100  1.0
  C  C672  1  0.376800  0.821900  0.303100  1.0
  C  C673  1  0.869500  0.321800  0.860800  1.0
  C  C674  1  0.630500  0.139200  0.678200  1.0
  C  C675  1  0.130500  0.678200  0.139200  1.0
  C  C676  1  0.369500  0.860800  0.321800  1.0
  C  C677  1  0.873200  0.490200  0.760200  1.0
  C  C678  1  0.626800  0.239800  0.509800  1.0
  C  C679  1  0.126800  0.509800  0.239800  1.0
  C  C680  1  0.373200  0.760200  0.490200  1.0
  C  C681  1  0.895700  0.504900  0.780900  1.0
  C  C682  1  0.604300  0.219100  0.495100  1.0
  C  C683  1  0.104300  0.495100  0.219100  1.0
  C  C684  1  0.395700  0.780900  0.504900  1.0
  C  C685  1  0.881900  0.484400  0.827400  1.0
  C  C686  1  0.618100  0.172600  0.515600  1.0
  C  C687  1  0.118100  0.515600  0.172600  1.0
  C  C688  1  0.381900  0.827400  0.484400  1.0
  C  C689  1  0.710600  0.451800  0.891000  1.0
  C  C690  1  0.789400  0.109000  0.548200  1.0
  C  C691  1  0.289400  0.548200  0.109000  1.0
  C  C692  1  0.210600  0.891000  0.451800  1.0
  C  C693  1  0.680700  0.464700  0.862300  1.0
  C  C694  1  0.819300  0.137700  0.535300  1.0
  C  C695  1  0.319300  0.535300  0.137700  1.0
  C  C696  1  0.180700  0.862300  0.464700  1.0
  C  C697  1  0.715200  0.457700  0.821500  1.0
  C  C698  1  0.784800  0.178500  0.542300  1.0
  C  C699  1  0.284800  0.542300  0.178500  1.0
  C  C700  1  0.215200  0.821500  0.457700  1.0
  C  C701  1  0.075500  0.718200  0.691000  1.0
  C  C702  1  0.424500  0.309000  0.281800  1.0
  C  C703  1  0.924500  0.281800  0.309000  1.0
  C  C704  1  0.575500  0.691000  0.718200  1.0
  C  C705  1  0.080800  0.721700  0.730900  1.0
  C  C706  1  0.419200  0.269100  0.278300  1.0
  C  C707  1  0.919200  0.278300  0.269100  1.0
  C  C708  1  0.580800  0.730900  0.721700  1.0
  C  C709  1  0.070600  0.682370  0.763370  1.0
  C  C710  1  0.429400  0.236630  0.317630  1.0
  C  C711  1  0.929400  0.317630  0.236630  1.0
  C  C712  1  0.570600  0.763370  0.682370  1.0
  C  C713  1  0.132600  0.584830  0.635630  1.0
  C  C714  1  0.367400  0.364370  0.415170  1.0
  C  C715  1  0.867400  0.415170  0.364370  1.0
  C  C716  1  0.632600  0.635630  0.584830  1.0
  C  C717  1  0.154900  0.542640  0.656240  1.0
  C  C718  1  0.345100  0.343760  0.457360  1.0
  C  C719  1  0.845100  0.457360  0.343760  1.0
  C  C720  1  0.654900  0.656240  0.542640  1.0
  C  C721  1  0.129300  0.538770  0.701850  1.0
  C  C722  1  0.370700  0.298150  0.461230  1.0
  C  C723  1  0.870700  0.461230  0.298150  1.0
  C  C724  1  0.629300  0.701850  0.538770  1.0
  C  C725  1  0.964500  0.660260  0.667060  1.0
  C  C726  1  0.535500  0.332940  0.339740  1.0
  C  C727  1  0.035500  0.339740  0.332940  1.0
  C  C728  1  0.464500  0.667060  0.660260  1.0
  C  C729  1  0.925400  0.643090  0.700090  1.0
  C  C730  1  0.574600  0.299910  0.356910  1.0
  C  C731  1  0.074600  0.356910  0.299910  1.0
  C  C732  1  0.425400  0.700090  0.643090  1.0
  C  C733  1  0.943600  0.622680  0.737280  1.0
  C  C734  1  0.556400  0.262720  0.377320  1.0
  C  C735  1  0.056400  0.377320  0.262720  1.0
  C  C736  1  0.443600  0.737280  0.622680  1.0
  C  C737  1  0.170900  0.426450  0.868450  1.0
  C  C738  1  0.329100  0.131550  0.573550  1.0
  C  C739  1  0.829100  0.573550  0.131550  1.0
  C  C740  1  0.670900  0.868450  0.426450  1.0
  C  C741  1  0.116600  0.360500  0.881880  1.0
  C  C742  1  0.383400  0.118120  0.639500  1.0
  C  C743  1  0.883400  0.639500  0.118120  1.0
  C  C744  1  0.616600  0.881880  0.360500  1.0
  C  C745  1  0.185500  0.344100  0.928500  1.0
  C  C746  1  0.314500  0.071500  0.655900  1.0
  C  C747  1  0.814500  0.655900  0.071500  1.0
  C  C748  1  0.685500  0.928500  0.344100  1.0
  C  C749  1  0.974600  0.716050  0.918570  1.0
  C  C750  1  0.525400  0.081430  0.283950  1.0
  C  C751  1  0.025400  0.283950  0.081430  1.0
  C  C752  1  0.474600  0.918570  0.716050  1.0
  C  C753  1  0.071700  0.690700  0.910320  1.0
  C  C754  1  0.428300  0.089680  0.309300  1.0
  C  C755  1  0.928300  0.309300  0.089680  1.0
  C  C756  1  0.571700  0.910320  0.690700  1.0
  C  C757  1  0.009300  0.684470  0.995870  1.0
  C  C758  1  0.490700  0.004130  0.315530  1.0
  C  C759  1  0.990700  0.315530  0.004130  1.0
  C  C760  1  0.509300  0.995870  0.684470  1.0
  C  C761  1  0.885200  0.392810  0.907010  1.0
  C  C762  1  0.614800  0.092990  0.607190  1.0
  C  C763  1  0.114800  0.607190  0.092990  1.0
  C  C764  1  0.385200  0.907010  0.392810  1.0
  C  C765  1  0.796900  0.462200  0.927600  1.0
  C  C766  1  0.703100  0.072400  0.537800  1.0
  C  C767  1  0.203100  0.537800  0.072400  1.0
  C  C768  1  0.296900  0.927600  0.462200  1.0
  C  C769  1  0.796100  0.373900  0.943700  1.0
  C  C770  1  0.703900  0.056300  0.626100  1.0
  C  C771  1  0.203900  0.626100  0.056300  1.0
  C  C772  1  0.296100  0.943700  0.373900  1.0
  C  C773  1  0.089500  0.570770  0.797170  1.0
  C  C774  1  0.410500  0.202830  0.429230  1.0
  C  C775  1  0.910500  0.429230  0.202830  1.0
  C  C776  1  0.589500  0.797170  0.570770  1.0
  C  C777  1  0.993700  0.621000  0.817760  1.0
  C  C778  1  0.506300  0.182240  0.379000  1.0
  C  C779  1  0.006300  0.379000  0.182240  1.0
  C  C780  1  0.493700  0.817760  0.621000  1.0
  C  C781  1  0.022700  0.541420  0.787420  1.0
  C  C782  1  0.477300  0.212580  0.458580  1.0
  C  C783  1  0.977300  0.458580  0.212580  1.0
  C  C784  1  0.522700  0.787420  0.541420  1.0
  C  C785  1  0.995100  0.470740  0.905940  1.0
  C  C786  1  0.504900  0.094060  0.529260  1.0
  C  C787  1  0.004900  0.529260  0.094060  1.0
  C  C788  1  0.495100  0.905940  0.470740  1.0
  C  C789  1  0.999200  0.517400  0.905200  1.0
  C  C790  1  0.500800  0.094800  0.482600  1.0
  C  C791  1  0.000800  0.482600  0.094800  1.0
  C  C792  1  0.499200  0.905200  0.517400  1.0
  F  F793  1  0.750000  0.622590  0.377410  1
  F  F794  1  0.250000  0.377410  0.622590  1
  F  F795  1  0.750000  0.539900  0.460100  1
  F  F796  1  0.250000  0.460100  0.539900  1
  F  F797  1  0.739000  0.553910  0.392350  1.0
  F  F798  1  0.761000  0.607650  0.446090  1.0
  F  F799  1  0.261000  0.446090  0.607650  1.0
  F  F800  1  0.239000  0.392350  0.553910  1.0
  F  F801  1  0.693170  0.603910  0.441750  1.0
  F  F802  1  0.806830  0.558250  0.396090  1.0
  F  F803  1  0.306830  0.396090  0.558250  1.0
  F  F804  1  0.193170  0.441750  0.603910  1.0
  Fe  Fe805  1  0.186470  0.361880  0.864360  1.0
  Fe  Fe806  1  0.313530  0.135640  0.638120  1.0
  Fe  Fe807  1  0.813530  0.638120  0.135640  1.0
  Fe  Fe808  1  0.686470  0.864360  0.361880  1.0
  Fe  Fe809  1  0.016270  0.733280  0.941760  1.0
  Fe  Fe810  1  0.483730  0.058240  0.266720  1.0
  Fe  Fe811  1  0.983730  0.266720  0.058240  1.0
  Fe  Fe812  1  0.516270  0.941760  0.733280  1.0
  Fe  Fe813  1  0.822330  0.415150  0.890230  1.0
  Fe  Fe814  1  0.677670  0.109770  0.584850  1.0
  Fe  Fe815  1  0.177670  0.584850  0.109770  1.0
  Fe  Fe816  1  0.322330  0.890230  0.415150  1.0
  Fe  Fe817  1  0.040760  0.598590  0.763850  1.0
  Fe  Fe818  1  0.459240  0.236150  0.401410  1.0
  Fe  Fe819  1  0.959240  0.401410  0.236150  1.0
  Fe  Fe820  1  0.540760  0.763850  0.598590  1.0
  H  H821  1  0.236900  0.446200  0.783800  1.0
  H  H822  1  0.263100  0.216200  0.553800  1.0
  H  H823  1  0.763100  0.553800  0.216200  1.0
  H  H824  1  0.736900  0.783800  0.446200  1.0
  H  H825  1  0.280000  0.438300  0.708700  1.0
  H  H826  1  0.220000  0.291300  0.561700  1.0
  H  H827  1  0.720000  0.561700  0.291300  1.0
  H  H828  1  0.780000  0.708700  0.438300  1.0
  H  H829  1  0.300900  0.499800  0.653600  1.0
  H  H830  1  0.199100  0.346400  0.500200  1.0
  H  H831  1  0.699100  0.500200  0.346400  1.0
  H  H832  1  0.800900  0.653600  0.499800  1.0
  H  H833  1  0.275800  0.571500  0.675500  1.0
  H  H834  1  0.224200  0.324500  0.428500  1.0
  H  H835  1  0.724200  0.428500  0.324500  1.0
  H  H836  1  0.775800  0.675500  0.571500  1.0
  H  H837  1  0.239900  0.649400  0.707600  1.0
  H  H838  1  0.260100  0.292400  0.350600  1.0
  H  H839  1  0.760100  0.350600  0.292400  1.0
  H  H840  1  0.739900  0.707600  0.649400  1.0
  H  H841  1  0.216800  0.730500  0.705700  1.0
  H  H842  1  0.283200  0.294300  0.269500  1.0
  H  H843  1  0.783200  0.269500  0.294300  1.0
  H  H844  1  0.716800  0.705700  0.730500  1.0
  H  H845  1  0.213100  0.806100  0.706300  1.0
  H  H846  1  0.286900  0.293700  0.193900  1.0
  H  H847  1  0.786900  0.193900  0.293700  1.0
  H  H848  1  0.713100  0.706300  0.806100  1.0
  H  H849  1  0.149000  0.783100  0.844100  1.0
  H  H850  1  0.351000  0.155900  0.216900  1.0
  H  H851  1  0.851000  0.216900  0.155900  1.0
  H  H852  1  0.649000  0.844100  0.783100  1.0
  H  H853  1  0.161500  0.705600  0.844200  1.0
  H  H854  1  0.338500  0.155800  0.294400  1.0
  H  H855  1  0.838500  0.294400  0.155800  1.0
  H  H856  1  0.661500  0.844200  0.705600  1.0
  H  H857  1  0.122900  0.879400  0.715000  1.0
  H  H858  1  0.377100  0.285000  0.120600  1.0
  H  H859  1  0.877100  0.120600  0.285000  1.0
  H  H860  1  0.622900  0.715000  0.879400  1.0
  H  H861  1  0.132200  0.938600  0.649800  1.0
  H  H862  1  0.367800  0.350200  0.061400  1.0
  H  H863  1  0.867800  0.061400  0.350200  1.0
  H  H864  1  0.632200  0.649800  0.938600  1.0
  H  H865  1  0.250400  0.951800  0.678600  1.0
  H  H866  1  0.249600  0.321400  0.048200  1.0
  H  H867  1  0.749600  0.048200  0.321400  1.0
  H  H868  1  0.750400  0.678600  0.951800  1.0
  H  H869  1  0.241200  0.892500  0.743900  1.0
  H  H870  1  0.258800  0.256100  0.107500  1.0
  H  H871  1  0.758800  0.107500  0.256100  1.0
  H  H872  1  0.741200  0.743900  0.892500  1.0
  H  H873  1  0.225700  0.038600  0.584200  1.0
  H  H874  1  0.274300  0.415800  0.961400  1.0
  H  H875  1  0.774300  0.961400  0.415800  1.0
  H  H876  1  0.725700  0.584200  0.038600  1.0
  H  H877  1  0.263400  0.992700  0.604500  1.0
  H  H878  1  0.236600  0.395500  0.007300  1.0
  H  H879  1  0.736600  0.007300  0.395500  1.0
  H  H880  1  0.763400  0.604500  0.992700  1.0
  H  H881  1  0.223700  0.026900  0.637900  1.0
  H  H882  1  0.276300  0.362100  0.973100  1.0
  H  H883  1  0.776300  0.973100  0.362100  1.0
  H  H884  1  0.723700  0.637900  0.026900  1.0
  H  H885  1  0.107000  0.905700  0.826500  1.0
  H  H886  1  0.393000  0.173500  0.094300  1.0
  H  H887  1  0.893000  0.094300  0.173500  1.0
  H  H888  1  0.607000  0.826500  0.905700  1.0
  H  H889  1  0.098600  0.921000  0.898000  1.0
  H  H890  1  0.401400  0.102000  0.079000  1.0
  H  H891  1  0.901400  0.079000  0.102000  1.0
  H  H892  1  0.598600  0.898000  0.921000  1.0
  H  H893  1  0.229700  0.823000  0.905800  1.0
  H  H894  1  0.270300  0.094200  0.177000  1.0
  H  H895  1  0.770300  0.177000  0.094200  1.0
  H  H896  1  0.729700  0.905800  0.823000  1.0
  H  H897  1  0.238100  0.807700  0.834300  1.0
  H  H898  1  0.261900  0.165700  0.192300  1.0
  H  H899  1  0.761900  0.192300  0.165700  1.0
  H  H900  1  0.738100  0.834300  0.807700  1.0
  H  H901  1  0.139700  0.919500  0.999900  1.0
  H  H902  1  0.360300  0.000100  0.080500  1.0
  H  H903  1  0.860300  0.080500  0.000100  1.0
  H  H904  1  0.639700  0.999900  0.919500  1.0
  H  H905  1  0.100500  0.927700  0.971500  1.0
  H  H906  1  0.399500  0.028500  0.072300  1.0
  H  H907  1  0.899500  0.072300  0.028500  1.0
  H  H908  1  0.600500  0.971500  0.927700  1.0
  H  H909  1  0.149300  0.946500  0.947300  1.0
  H  H910  1  0.350700  0.052700  0.053500  1.0
  H  H911  1  0.850700  0.053500  0.052700  1.0
  H  H912  1  0.649300  0.947300  0.946500  1.0
  H  H913  1  0.074100  0.572700  0.896700  1.0
  H  H914  1  0.425900  0.103300  0.427300  1.0
  H  H915  1  0.925900  0.427300  0.103300  1.0
  H  H916  1  0.574100  0.896700  0.572700  1.0
  H  H917  1  0.034000  0.591800  0.969400  1.0
  H  H918  1  0.466000  0.030600  0.408200  1.0
  H  H919  1  0.966000  0.408200  0.030600  1.0
  H  H920  1  0.534000  0.969400  0.591800  1.0
  H  H921  1  0.083600  0.581100  0.017500  1.0
  H  H922  1  0.416400  0.982500  0.418900  1.0
  H  H923  1  0.916400  0.418900  0.982500  1.0
  H  H924  1  0.583600  0.017500  0.581100  1.0
  H  H925  1  0.169000  0.545600  0.995400  1.0
  H  H926  1  0.331000  0.004600  0.454400  1.0
  H  H927  1  0.831000  0.454400  0.004600  1.0
  H  H928  1  0.669000  0.995400  0.545600  1.0
  H  H929  1  0.261100  0.508200  0.965200  1.0
  H  H930  1  0.238900  0.034800  0.491800  1.0
  H  H931  1  0.738900  0.491800  0.034800  1.0
  H  H932  1  0.761100  0.965200  0.508200  1.0
  H  H933  1  0.348000  0.485900  0.961700  1.0
  H  H934  1  0.152000  0.038300  0.514100  1.0
  H  H935  1  0.652000  0.514100  0.038300  1.0
  H  H936  1  0.848000  0.961700  0.485900  1.0
  H  H937  1  0.430700  0.451200  0.967000  1.0
  H  H938  1  0.069300  0.033000  0.548800  1.0
  H  H939  1  0.569300  0.548800  0.033000  1.0
  H  H940  1  0.930700  0.967000  0.451200  1.0
  H  H941  1  0.467700  0.407300  0.846900  1.0
  H  H942  1  0.032300  0.153100  0.592700  1.0
  H  H943  1  0.532300  0.592700  0.153100  1.0
  H  H944  1  0.967700  0.846900  0.407300  1.0
  H  H945  1  0.385000  0.442100  0.841500  1.0
  H  H946  1  0.115000  0.158500  0.557900  1.0
  H  H947  1  0.615000  0.557900  0.158500  1.0
  H  H948  1  0.885000  0.841500  0.442100  1.0
  H  H949  1  0.447300  0.357300  0.994100  1.0
  H  H950  1  0.052700  0.005900  0.642700  1.0
  H  H951  1  0.552700  0.642700  0.005900  1.0
  H  H952  1  0.947300  0.994100  0.357300  1.0
  H  H953  1  0.459300  0.278900  0.028900  1.0
  H  H954  1  0.040700  0.971100  0.721100  1.0
  H  H955  1  0.540700  0.721100  0.971100  1.0
  H  H956  1  0.959300  0.028900  0.278900  1.0
  H  H957  1  0.561700  0.243967  0.910633  1.0
  H  H958  1  0.938300  0.089367  0.756033  1.0
  H  H959  1  0.438300  0.756033  0.089367  1.0
  H  H960  1  0.061700  0.910633  0.243967  1.0
  H  H961  1  0.549700  0.322400  0.875800  1.0
  H  H962  1  0.950300  0.124200  0.677600  1.0
  H  H963  1  0.450300  0.677600  0.124200  1.0
  H  H964  1  0.049700  0.875800  0.322400  1.0
  H  H965  1  0.489500  0.150300  0.032700  1.0
  H  H966  1  0.010500  0.967300  0.849700  1.0
  H  H967  1  0.510500  0.849700  0.967300  1.0
  H  H968  1  0.989500  0.032700  0.150300  1.0
  H  H969  1  0.454400  0.190300  0.003700  1.0
  H  H970  1  0.045600  0.996300  0.809700  1.0
  H  H971  1  0.545600  0.809700  0.996300  1.0
  H  H972  1  0.954400  0.003700  0.190300  1.0
  H  H973  1  0.460600  0.198800  0.049000  1.0
  H  H974  1  0.039400  0.951000  0.801200  1.0
  H  H975  1  0.539400  0.801200  0.951000  1.0
  H  H976  1  0.960600  0.049000  0.198800  1.0
  H  H977  1  0.587900  0.333500  0.888300  1.0
  H  H978  1  0.912100  0.111700  0.666500  1.0
  H  H979  1  0.412100  0.666500  0.111700  1.0
  H  H980  1  0.087900  0.888300  0.333500  1.0
  H  H981  1  0.660300  0.336500  0.826700  1.0
  H  H982  1  0.839700  0.173300  0.663500  1.0
  H  H983  1  0.339700  0.663500  0.173300  1.0
  H  H984  1  0.160300  0.826700  0.336500  1.0
  H  H985  1  0.596900  0.472000  0.781600  1.0
  H  H986  1  0.903100  0.218400  0.528000  1.0
  H  H987  1  0.403100  0.528000  0.218400  1.0
  H  H988  1  0.096900  0.781600  0.472000  1.0
  H  H989  1  0.524500  0.469000  0.843200  1.0
  H  H990  1  0.975500  0.156800  0.531000  1.0
  H  H991  1  0.475500  0.531000  0.156800  1.0
  H  H992  1  0.024500  0.843200  0.469000  1.0
  H  H993  1  0.753700  0.395700  0.720900  1.0
  H  H994  1  0.746300  0.279100  0.604300  1.0
  H  H995  1  0.246300  0.604300  0.279100  1.0
  H  H996  1  0.253700  0.720900  0.395700  1.0
  H  H997  1  0.730700  0.352300  0.736900  1.0
  H  H998  1  0.769300  0.263100  0.647700  1.0
  H  H999  1  0.269300  0.647700  0.263100  1.0
  H  H1000  1  0.230700  0.736900  0.352300  1.0
  H  H1001  1  0.749300  0.365800  0.772400  1.0
  H  H1002  1  0.750700  0.227600  0.634200  1.0
  H  H1003  1  0.250700  0.634200  0.227600  1.0
  H  H1004  1  0.249300  0.772400  0.365800  1.0
  H  H1005  1  0.008400  0.260500  0.945900  1.0
  H  H1006  1  0.491600  0.054100  0.739500  1.0
  H  H1007  1  0.991600  0.739500  0.054100  1.0
  H  H1008  1  0.508400  0.945900  0.260500  1.0
  H  H1009  1  0.995900  0.199500  0.929300  1.0
  H  H1010  1  0.504100  0.070700  0.800500  1.0
  H  H1011  1  0.004100  0.800500  0.070700  1.0
  H  H1012  1  0.495900  0.929300  0.199500  1.0
  H  H1013  1  0.986100  0.205600  0.858200  1.0
  H  H1014  1  0.513900  0.141800  0.794400  1.0
  H  H1015  1  0.013900  0.794400  0.141800  1.0
  H  H1016  1  0.486100  0.858200  0.205600  1.0
  H  H1017  1  0.991000  0.274200  0.803000  1.0
  H  H1018  1  0.509000  0.197000  0.725800  1.0
  H  H1019  1  0.009000  0.725800  0.197000  1.0
  H  H1020  1  0.491000  0.803000  0.274200  1.0
  H  H1021  1  0.997900  0.351000  0.749000  1.0
  H  H1022  1  0.502100  0.251000  0.649000  1.0
  H  H1023  1  0.002100  0.649000  0.251000  1.0
  H  H1024  1  0.497900  0.749000  0.351000  1.0
  H  H1025  1  0.969300  0.424800  0.688200  1.0
  H  H1026  1  0.530700  0.311800  0.575200  1.0
  H  H1027  1  0.030700  0.575200  0.311800  1.0
  H  H1028  1  0.469300  0.688200  0.424800  1.0
  H  H1029  1  0.977100  0.478800  0.616200  1.0
  H  H1030  1  0.522900  0.383800  0.521200  1.0
  H  H1031  1  0.022900  0.521200  0.383800  1.0
  H  H1032  1  0.477100  0.616200  0.478800  1.0
  H  H1033  1  0.061000  0.532100  0.653700  1.0
  H  H1034  1  0.439000  0.346300  0.467900  1.0
  H  H1035  1  0.939000  0.467900  0.346300  1.0
  H  H1036  1  0.561000  0.653700  0.532100  1.0
  H  H1037  1  0.054700  0.478900  0.723100  1.0
  H  H1038  1  0.445300  0.276900  0.521100  1.0
  H  H1039  1  0.945300  0.521100  0.276900  1.0
  H  H1040  1  0.554700  0.723100  0.478900  1.0
  H  H1041  1  0.117500  0.502300  0.567900  1.0
  H  H1042  1  0.382500  0.432100  0.497700  1.0
  H  H1043  1  0.882500  0.497700  0.432100  1.0
  H  H1044  1  0.617500  0.567900  0.502300  1.0
  H  H1045  1  0.188700  0.532200  0.530400  1.0
  H  H1046  1  0.311300  0.469600  0.467800  1.0
  H  H1047  1  0.811300  0.467800  0.469600  1.0
  H  H1048  1  0.688700  0.530400  0.532200  1.0
  H  H1049  1  0.093600  0.659400  0.515000  1.0
  H  H1050  1  0.406400  0.485000  0.340600  1.0
  H  H1051  1  0.906400  0.340600  0.485000  1.0
  H  H1052  1  0.593600  0.515000  0.659400  1.0
  H  H1053  1  0.022200  0.630000  0.554000  1.0
  H  H1054  1  0.477800  0.446000  0.370000  1.0
  H  H1055  1  0.977800  0.370000  0.446000  1.0
  H  H1056  1  0.522200  0.554000  0.630000  1.0
  H  H1057  1  0.206800  0.677700  0.470700  1.0
  H  H1058  1  0.293200  0.529300  0.322300  1.0
  H  H1059  1  0.793200  0.322300  0.529300  1.0
  H  H1060  1  0.706800  0.470700  0.677700  1.0
  H  H1061  1  0.162100  0.677400  0.517600  1.0
  H  H1062  1  0.337900  0.482400  0.322600  1.0
  H  H1063  1  0.837900  0.322600  0.482400  1.0
  H  H1064  1  0.662100  0.517600  0.677400  1.0
  H  H1065  1  0.150900  0.684000  0.469400  1.0
  H  H1066  1  0.349100  0.530600  0.316000  1.0
  H  H1067  1  0.849100  0.316000  0.530600  1.0
  H  H1068  1  0.650900  0.469400  0.684000  1.0
  H  H1069  1  0.035800  0.542700  0.502500  1.0
  H  H1070  1  0.464200  0.497500  0.457300  1.0
  H  H1071  1  0.964200  0.457300  0.497500  1.0
  H  H1072  1  0.535800  0.502500  0.542700  1.0
  H  H1073  1  0.976500  0.561700  0.460500  1.0
  H  H1074  1  0.523500  0.539500  0.438300  1.0
  H  H1075  1  0.023500  0.438300  0.539500  1.0
  H  H1076  1  0.476500  0.460500  0.561700  1.0
  H  H1077  1  0.865900  0.587200  0.574600  1.0
  H  H1078  1  0.634100  0.425400  0.412800  1.0
  H  H1079  1  0.134100  0.412800  0.425400  1.0
  H  H1080  1  0.365900  0.574600  0.587200  1.0
  H  H1081  1  0.924200  0.573400  0.614600  1.0
  H  H1082  1  0.575800  0.385400  0.426600  1.0
  H  H1083  1  0.075800  0.426600  0.385400  1.0
  H  H1084  1  0.424200  0.614600  0.573400  1.0
  H  H1085  1  0.863100  0.592400  0.434600  1.0
  H  H1086  1  0.636900  0.565400  0.407600  1.0
  H  H1087  1  0.136900  0.407600  0.565400  1.0
  H  H1088  1  0.363100  0.434600  0.592400  1.0
  H  H1089  1  0.910100  0.550100  0.444500  1.0
  H  H1090  1  0.589900  0.555500  0.449900  1.0
  H  H1091  1  0.089900  0.449900  0.555500  1.0
  H  H1092  1  0.410100  0.444500  0.550100  1.0
  H  H1093  1  0.916100  0.601600  0.426000  1.0
  H  H1094  1  0.583900  0.574000  0.398400  1.0
  H  H1095  1  0.083900  0.398400  0.574000  1.0
  H  H1096  1  0.416100  0.426000  0.601600  1.0
  H  H1097  1  0.942900  0.642200  0.977000  1.0
  H  H1098  1  0.557100  0.023000  0.357800  1.0
  H  H1099  1  0.057100  0.357800  0.023000  1.0
  H  H1100  1  0.442900  0.977000  0.642200  1.0
  H  H1101  1  0.938200  0.581100  0.040100  1.0
  H  H1102  1  0.561800  0.959900  0.418900  1.0
  H  H1103  1  0.061800  0.418900  0.959900  1.0
  H  H1104  1  0.438200  0.040100  0.581100  1.0
  H  H1105  1  0.896300  0.528500  0.045100  1.0
  H  H1106  1  0.603700  0.954900  0.471500  1.0
  H  H1107  1  0.103700  0.471500  0.954900  1.0
  H  H1108  1  0.396300  0.045100  0.528500  1.0
  H  H1109  1  0.854500  0.540300  0.988900  1.0
  H  H1110  1  0.645500  0.011100  0.459700  1.0
  H  H1111  1  0.145500  0.459700  0.011100  1.0
  H  H1112  1  0.354500  0.988900  0.540300  1.0
  H  H1113  1  0.821300  0.556300  0.918900  1.0
  H  H1114  1  0.678700  0.081100  0.443700  1.0
  H  H1115  1  0.178700  0.443700  0.081100  1.0
  H  H1116  1  0.321300  0.918900  0.556300  1.0
  H  H1117  1  0.752300  0.562700  0.887900  1.0
  H  H1118  1  0.747700  0.112100  0.437300  1.0
  H  H1119  1  0.247700  0.437300  0.112100  1.0
  H  H1120  1  0.252300  0.887900  0.562700  1.0
  H  H1121  1  0.699700  0.557100  0.851100  1.0
  H  H1122  1  0.800300  0.148900  0.442900  1.0
  H  H1123  1  0.300300  0.442900  0.148900  1.0
  H  H1124  1  0.199700  0.851100  0.557100  1.0
  H  H1125  1  0.777400  0.621800  0.731600  1.0
  H  H1126  1  0.722600  0.268400  0.378200  1.0
  H  H1127  1  0.222600  0.378200  0.268400  1.0
  H  H1128  1  0.277400  0.731600  0.621800  1.0
  H  H1129  1  0.824200  0.634100  0.770500  1.0
  H  H1130  1  0.675800  0.229500  0.365900  1.0
  H  H1131  1  0.175800  0.365900  0.229500  1.0
  H  H1132  1  0.324200  0.770500  0.634100  1.0
  H  H1133  1  0.677000  0.636900  0.687500  1.0
  H  H1134  1  0.823000  0.312500  0.363100  1.0
  H  H1135  1  0.323000  0.363100  0.312500  1.0
  H  H1136  1  0.177000  0.687500  0.636900  1.0
  H  H1137  1  0.710500  0.623200  0.611800  1.0
  H  H1138  1  0.789500  0.388200  0.376800  1.0
  H  H1139  1  0.289500  0.376800  0.388200  1.0
  H  H1140  1  0.210500  0.611800  0.623200  1.0
  H  H1141  1  0.810800  0.506200  0.655000  1.0
  H  H1142  1  0.689200  0.345000  0.493800  1.0
  H  H1143  1  0.189200  0.493800  0.345000  1.0
  H  H1144  1  0.310800  0.655000  0.506200  1.0
  H  H1145  1  0.777300  0.519800  0.730600  1.0
  H  H1146  1  0.722700  0.269400  0.480200  1.0
  H  H1147  1  0.222700  0.480200  0.269400  1.0
  H  H1148  1  0.277300  0.730600  0.519800  1.0
  H  H1149  1  0.801300  0.534800  0.526600  1.0
  H  H1150  1  0.698700  0.473400  0.465200  1.0
  H  H1151  1  0.198700  0.465200  0.473400  1.0
  H  H1152  1  0.301300  0.526600  0.534800  1.0
  H  H1153  1  0.757100  0.580200  0.538800  1.0
  H  H1154  1  0.742900  0.461200  0.419800  1.0
  H  H1155  1  0.242900  0.419800  0.461200  1.0
  H  H1156  1  0.257100  0.538800  0.580200  1.0
  H  H1157  1  0.748500  0.530000  0.562600  1.0
  H  H1158  1  0.751500  0.437400  0.470000  1.0
  H  H1159  1  0.251500  0.470000  0.437400  1.0
  H  H1160  1  0.248500  0.562600  0.530000  1.0
  H  H1161  1  0.641800  0.547200  0.754400  1.0
  H  H1162  1  0.858200  0.245600  0.452800  1.0
  H  H1163  1  0.358200  0.452800  0.245600  1.0
  H  H1164  1  0.141800  0.754400  0.547200  1.0
  H  H1165  1  0.554900  0.559900  0.787700  1.0
  H  H1166  1  0.945100  0.212300  0.440100  1.0
  H  H1167  1  0.445100  0.440100  0.212300  1.0
  H  H1168  1  0.054900  0.787700  0.559900  1.0
  H  H1169  1  0.556000  0.654100  0.852500  1.0
  H  H1170  1  0.944000  0.147500  0.345900  1.0
  H  H1171  1  0.444000  0.345900  0.147500  1.0
  H  H1172  1  0.056000  0.852500  0.654100  1.0
  H  H1173  1  0.642800  0.641400  0.819000  1.0
  H  H1174  1  0.857200  0.181000  0.358600  1.0
  H  H1175  1  0.357200  0.358600  0.181000  1.0
  H  H1176  1  0.142800  0.819000  0.641400  1.0
  H  H1177  1  0.435200  0.656800  0.888800  1.0
  H  H1178  1  0.064800  0.111200  0.343200  1.0
  H  H1179  1  0.564800  0.343200  0.111200  1.0
  H  H1180  1  0.935200  0.888800  0.656800  1.0
  H  H1181  1  0.482400  0.678000  0.867400  1.0
  H  H1182  1  0.017600  0.132600  0.322000  1.0
  H  H1183  1  0.517600  0.322000  0.132600  1.0
  H  H1184  1  0.982400  0.867400  0.678000  1.0
  H  H1185  1  0.485000  0.631300  0.905900  1.0
  H  H1186  1  0.015000  0.094100  0.368700  1.0
  H  H1187  1  0.515000  0.368700  0.094100  1.0
  H  H1188  1  0.985000  0.905900  0.631300  1.0
  H  H1189  1  0.956800  0.706100  0.777700  1.0
  H  H1190  1  0.543200  0.222300  0.293900  1.0
  H  H1191  1  0.043200  0.293900  0.222300  1.0
  H  H1192  1  0.456800  0.777700  0.706100  1.0
  H  H1193  1  0.953500  0.771100  0.719300  1.0
  H  H1194  1  0.546500  0.280700  0.228900  1.0
  H  H1195  1  0.046500  0.228900  0.280700  1.0
  H  H1196  1  0.453500  0.719300  0.771100  1.0
  H  H1197  1  0.889500  0.839100  0.732900  1.0
  H  H1198  1  0.610500  0.267100  0.160900  1.0
  H  H1199  1  0.110500  0.160900  0.267100  1.0
  H  H1200  1  0.389500  0.732900  0.839100  1.0
  H  H1201  1  0.830600  0.838500  0.807100  1.0
  H  H1202  1  0.669400  0.192900  0.161500  1.0
  H  H1203  1  0.169400  0.161500  0.192900  1.0
  H  H1204  1  0.330600  0.807100  0.838500  1.0
  H  H1205  1  0.775200  0.833200  0.889800  1.0
  H  H1206  1  0.724800  0.110200  0.166800  1.0
  H  H1207  1  0.224800  0.166800  0.110200  1.0
  H  H1208  1  0.275200  0.889800  0.833200  1.0
  H  H1209  1  0.690000  0.843300  0.946100  1.0
  H  H1210  1  0.810000  0.053900  0.156700  1.0
  H  H1211  1  0.310000  0.156700  0.053900  1.0
  H  H1212  1  0.190000  0.946100  0.843300  1.0
  H  H1213  1  0.623600  0.873300  0.006100  1.0
  H  H1214  1  0.876400  0.993900  0.126700  1.0
  H  H1215  1  0.376400  0.126700  0.993900  1.0
  H  H1216  1  0.123600  0.006100  0.873300  1.0
  H  H1217  1  0.697000  0.785900  0.099700  1.0
  H  H1218  1  0.803000  0.900300  0.214100  1.0
  H  H1219  1  0.303000  0.214100  0.900300  1.0
  H  H1220  1  0.197000  0.099700  0.785900  1.0
  H  H1221  1  0.763400  0.755800  0.039800  1.0
  H  H1222  1  0.736600  0.960200  0.244200  1.0
  H  H1223  1  0.236600  0.244200  0.960200  1.0
  H  H1224  1  0.263400  0.039800  0.755800  1.0
  H  H1225  1  0.634100  0.932300  0.046900  1.0
  H  H1226  1  0.865900  0.953100  0.067700  1.0
  H  H1227  1  0.365900  0.067700  0.953100  1.0
  H  H1228  1  0.134100  0.046900  0.932300  1.0
  H  H1229  1  0.577200  0.004600  0.031800  1.0
  H  H1230  1  0.922800  0.968200  0.995400  1.0
  H  H1231  1  0.422800  0.995400  0.968200  1.0
  H  H1232  1  0.077200  0.031800  0.004600  1.0
  H  H1233  1  0.460800  0.948100  0.102900  1.0
  H  H1234  1  0.039200  0.897100  0.051900  1.0
  H  H1235  1  0.539200  0.051900  0.897100  1.0
  H  H1236  1  0.960800  0.102900  0.948100  1.0
  H  H1237  1  0.517800  0.875800  0.118000  1.0
  H  H1238  1  0.982200  0.882000  0.124200  1.0
  H  H1239  1  0.482200  0.124200  0.882000  1.0
  H  H1240  1  0.017800  0.118000  0.875800  1.0
  H  H1241  1  0.454700  0.096900  0.031500  1.0
  H  H1242  1  0.045300  0.968500  0.903100  1.0
  H  H1243  1  0.545300  0.903100  0.968500  1.0
  H  H1244  1  0.954700  0.031500  0.096900  1.0
  H  H1245  1  0.505500  0.072600  0.997000  1.0
  H  H1246  1  0.994500  0.003000  0.927400  1.0
  H  H1247  1  0.494500  0.927400  0.003000  1.0
  H  H1248  1  0.005500  0.997000  0.072600  1.0
  H  H1249  1  0.507400  0.083800  0.043000  1.0
  H  H1250  1  0.992600  0.957000  0.916200  1.0
  H  H1251  1  0.492600  0.916200  0.957000  1.0
  H  H1252  1  0.007400  0.043000  0.083800  1.0
  H  H1253  1  0.629300  0.884900  0.153500  1.0
  H  H1254  1  0.870700  0.846500  0.115100  1.0
  H  H1255  1  0.370700  0.115100  0.846500  1.0
  H  H1256  1  0.129300  0.153500  0.884900  1.0
  H  H1257  1  0.628700  0.852600  0.231000  1.0
  H  H1258  1  0.871300  0.769000  0.147400  1.0
  H  H1259  1  0.371300  0.147400  0.769000  1.0
  H  H1260  1  0.128700  0.231000  0.852600  1.0
  H  H1261  1  0.594800  0.741500  0.221500  1.0
  H  H1262  1  0.905200  0.778500  0.258500  1.0
  H  H1263  1  0.405200  0.258500  0.778500  1.0
  H  H1264  1  0.094800  0.221500  0.741500  1.0
  H  H1265  1  0.595400  0.773700  0.144100  1.0
  H  H1266  1  0.904600  0.855900  0.226300  1.0
  H  H1267  1  0.404600  0.226300  0.855900  1.0
  H  H1268  1  0.095400  0.144100  0.773700  1.0
  H  H1269  1  0.626000  0.774800  0.335800  1.0
  H  H1270  1  0.874000  0.664200  0.225200  1.0
  H  H1271  1  0.374000  0.225200  0.664200  1.0
  H  H1272  1  0.126000  0.335800  0.774800  1.0
  H  H1273  1  0.603900  0.824200  0.306600  1.0
  H  H1274  1  0.896100  0.693400  0.175800  1.0
  H  H1275  1  0.396100  0.175800  0.693400  1.0
  H  H1276  1  0.103900  0.306600  0.824200  1.0
  H  H1277  1  0.661300  0.795900  0.288500  1.0
  H  H1278  1  0.838700  0.711500  0.204100  1.0
  H  H1279  1  0.338700  0.204100  0.711500  1.0
  H  H1280  1  0.161300  0.288500  0.795900  1.0
  H  H1281  1  0.295900  0.310300  0.756700  1.0
  H  H1282  1  0.204100  0.243300  0.689700  1.0
  H  H1283  1  0.704100  0.689700  0.243300  1.0
  H  H1284  1  0.795900  0.756700  0.310300  1.0
  H  H1285  1  0.170400  0.257400  0.910600  1.0
  H  H1286  1  0.329600  0.089400  0.742600  1.0
  H  H1287  1  0.829600  0.742600  0.089400  1.0
  H  H1288  1  0.670400  0.910600  0.257400  1.0
  H  H1289  1  0.225300  0.189800  0.874000  1.0
  H  H1290  1  0.274700  0.126000  0.810200  1.0
  H  H1291  1  0.774700  0.810200  0.126000  1.0
  H  H1292  1  0.725300  0.874000  0.189800  1.0
  H  H1293  1  0.282600  0.222100  0.800500  1.0
  H  H1294  1  0.217400  0.199500  0.777900  1.0
  H  H1295  1  0.717400  0.777900  0.199500  1.0
  H  H1296  1  0.782600  0.800500  0.222100  1.0
  H  H1297  1  0.270800  0.391300  0.889300  1.0
  H  H1298  1  0.229200  0.110700  0.608700  1.0
  H  H1299  1  0.729200  0.608700  0.110700  1.0
  H  H1300  1  0.770800  0.889300  0.391300  1.0
  H  H1301  1  0.359400  0.377100  0.840300  1.0
  H  H1302  1  0.140600  0.159700  0.622900  1.0
  H  H1303  1  0.640600  0.622900  0.159700  1.0
  H  H1304  1  0.859400  0.840300  0.377100  1.0
  H  H1305  1  0.364900  0.341300  0.776900  1.0
  H  H1306  1  0.135100  0.223100  0.658700  1.0
  H  H1307  1  0.635100  0.658700  0.223100  1.0
  H  H1308  1  0.864900  0.776900  0.341300  1.0
  H  H1309  1  0.121200  0.431500  0.791100  1.0
  H  H1310  1  0.378800  0.208900  0.568500  1.0
  H  H1311  1  0.878800  0.568500  0.208900  1.0
  H  H1312  1  0.621200  0.791100  0.431500  1.0
  H  H1313  1  0.158700  0.430700  0.704900  1.0
  H  H1314  1  0.341300  0.295100  0.569300  1.0
  H  H1315  1  0.841300  0.569300  0.295100  1.0
  H  H1316  1  0.658700  0.704900  0.430700  1.0
  H  H1317  1  0.240100  0.368200  0.697200  1.0
  H  H1318  1  0.259900  0.302800  0.631800  1.0
  H  H1319  1  0.759900  0.631800  0.302800  1.0
  H  H1320  1  0.740100  0.697200  0.368200  1.0
  H  H1321  1  0.010900  0.862100  0.946700  1.0
  H  H1322  1  0.489100  0.053300  0.137900  1.0
  H  H1323  1  0.989100  0.137900  0.053300  1.0
  H  H1324  1  0.510900  0.946700  0.862100  1.0
  H  H1325  1  0.093000  0.825700  0.982500  1.0
  H  H1326  1  0.407000  0.017500  0.174300  1.0
  H  H1327  1  0.907000  0.174300  0.017500  1.0
  H  H1328  1  0.593000  0.982500  0.825700  1.0
  H  H1329  1  0.145700  0.746600  0.004800  1.0
  H  H1330  1  0.354300  0.995200  0.253400  1.0
  H  H1331  1  0.854300  0.253400  0.995200  1.0
  H  H1332  1  0.645700  0.004800  0.746600  1.0
  H  H1333  1  0.112900  0.693700  0.984700  1.0
  H  H1334  1  0.387100  0.015300  0.306300  1.0
  H  H1335  1  0.887100  0.306300  0.015300  1.0
  H  H1336  1  0.612900  0.984700  0.693700  1.0
  H  H1337  1  0.021800  0.887800  0.850200  1.0
  H  H1338  1  0.478200  0.149800  0.112200  1.0
  H  H1339  1  0.978200  0.112200  0.149800  1.0
  H  H1340  1  0.521800  0.850200  0.887800  1.0
  H  H1341  1  0.034100  0.844800  0.789600  1.0
  H  H1342  1  0.465900  0.210400  0.155200  1.0
  H  H1343  1  0.965900  0.155200  0.210400  1.0
  H  H1344  1  0.534100  0.789600  0.844800  1.0
  H  H1345  1  0.033600  0.763500  0.830300  1.0
  H  H1346  1  0.466400  0.169700  0.236500  1.0
  H  H1347  1  0.966400  0.236500  0.169700  1.0
  H  H1348  1  0.533600  0.830300  0.763500  1.0
  H  H1349  1  0.909700  0.871000  0.006000  1.0
  H  H1350  1  0.590300  0.994000  0.129000  1.0
  H  H1351  1  0.090300  0.129000  0.994000  1.0
  H  H1352  1  0.409700  0.006000  0.871000  1.0
  H  H1353  1  0.852100  0.821800  0.039200  1.0
  H  H1354  1  0.647900  0.960800  0.178200  1.0
  H  H1355  1  0.147900  0.178200  0.960800  1.0
  H  H1356  1  0.352100  0.039200  0.821800  1.0
  H  H1357  1  0.899000  0.747700  0.008900  1.0
  H  H1358  1  0.601000  0.991100  0.252300  1.0
  H  H1359  1  0.101000  0.252300  0.991100  1.0
  H  H1360  1  0.399000  0.008900  0.747700  1.0
  H  H1361  1  0.813200  0.436200  0.757600  1.0
  H  H1362  1  0.686800  0.242400  0.563800  1.0
  H  H1363  1  0.186800  0.563800  0.242400  1.0
  H  H1364  1  0.313200  0.757600  0.436200  1.0
  H  H1365  1  0.861200  0.340600  0.758800  1.0
  H  H1366  1  0.638800  0.241200  0.659400  1.0
  H  H1367  1  0.138800  0.659400  0.241200  1.0
  H  H1368  1  0.361200  0.758800  0.340600  1.0
  H  H1369  1  0.890400  0.271500  0.818700  1.0
  H  H1370  1  0.609600  0.181300  0.728500  1.0
  H  H1371  1  0.109600  0.728500  0.181300  1.0
  H  H1372  1  0.390400  0.818700  0.271500  1.0
  H  H1373  1  0.879400  0.304600  0.888000  1.0
  H  H1374  1  0.620600  0.112000  0.695400  1.0
  H  H1375  1  0.120600  0.695400  0.112000  1.0
  H  H1376  1  0.379400  0.888000  0.304600  1.0
  H  H1377  1  0.874900  0.498600  0.728200  1.0
  H  H1378  1  0.625100  0.271800  0.501400  1.0
  H  H1379  1  0.125100  0.501400  0.271800  1.0
  H  H1380  1  0.374900  0.728200  0.498600  1.0
  H  H1381  1  0.916700  0.525200  0.767000  1.0
  H  H1382  1  0.583300  0.233000  0.474800  1.0
  H  H1383  1  0.083300  0.474800  0.233000  1.0
  H  H1384  1  0.416700  0.767000  0.525200  1.0
  H  H1385  1  0.892200  0.489100  0.850900  1.0
  H  H1386  1  0.607800  0.149100  0.510900  1.0
  H  H1387  1  0.107800  0.510900  0.149100  1.0
  H  H1388  1  0.392200  0.850900  0.489100  1.0
  H  H1389  1  0.697700  0.451900  0.923300  1.0
  H  H1390  1  0.802300  0.076700  0.548100  1.0
  H  H1391  1  0.302300  0.548100  0.076700  1.0
  H  H1392  1  0.197700  0.923300  0.451900  1.0
  H  H1393  1  0.645000  0.475700  0.869100  1.0
  H  H1394  1  0.855000  0.130900  0.524300  1.0
  H  H1395  1  0.355000  0.524300  0.130900  1.0
  H  H1396  1  0.145000  0.869100  0.475700  1.0
  H  H1397  1  0.706900  0.462400  0.793400  1.0
  H  H1398  1  0.793100  0.206600  0.537600  1.0
  H  H1399  1  0.293100  0.537600  0.206600  1.0
  H  H1400  1  0.206900  0.793400  0.462400  1.0
  H  H1401  1  0.060900  0.674300  0.632100  1.0
  H  H1402  1  0.439100  0.367900  0.325700  1.0
  H  H1403  1  0.939100  0.325700  0.367900  1.0
  H  H1404  1  0.560900  0.632100  0.674300  1.0
  H  H1405  1  0.079700  0.740200  0.662800  1.0
  H  H1406  1  0.420300  0.337200  0.259800  1.0
  H  H1407  1  0.920300  0.259800  0.337200  1.0
  H  H1408  1  0.579700  0.662800  0.740200  1.0
  H  H1409  1  0.089700  0.746000  0.735800  1.0
  H  H1410  1  0.410300  0.264200  0.254000  1.0
  H  H1411  1  0.910300  0.254000  0.264200  1.0
  H  H1412  1  0.589700  0.735800  0.746000  1.0
  H  H1413  1  0.071400  0.675100  0.794700  1.0
  H  H1414  1  0.428600  0.205300  0.324900  1.0
  H  H1415  1  0.928600  0.324900  0.205300  1.0
  H  H1416  1  0.571400  0.794700  0.675100  1.0
  H  H1417  1  0.142900  0.597800  0.603600  1.0
  H  H1418  1  0.357100  0.396400  0.402200  1.0
  H  H1419  1  0.857100  0.402200  0.396400  1.0
  H  H1420  1  0.642900  0.603600  0.597800  1.0
  H  H1421  1  0.182700  0.520100  0.641900  1.0
  H  H1422  1  0.317300  0.358100  0.479900  1.0
  H  H1423  1  0.817300  0.479900  0.358100  1.0
  H  H1424  1  0.682700  0.641900  0.520100  1.0
  H  H1425  1  0.137000  0.512600  0.725400  1.0
  H  H1426  1  0.363000  0.274600  0.487400  1.0
  H  H1427  1  0.863000  0.487400  0.274600  1.0
  H  H1428  1  0.637000  0.725400  0.512600  1.0
  H  H1429  1  0.963600  0.677700  0.636900  1.0
  H  H1430  1  0.536400  0.363100  0.322300  1.0
  H  H1431  1  0.036400  0.322300  0.363100  1.0
  H  H1432  1  0.463600  0.636900  0.677700  1.0
  H  H1433  1  0.893600  0.645300  0.696900  1.0
  H  H1434  1  0.606400  0.303100  0.354700  1.0
  H  H1435  1  0.106400  0.354700  0.303100  1.0
  H  H1436  1  0.393600  0.696900  0.645300  1.0
  H  H1437  1  0.925300  0.608300  0.765900  1.0
  H  H1438  1  0.574700  0.234100  0.391700  1.0
  H  H1439  1  0.074700  0.391700  0.234100  1.0
  H  H1440  1  0.425300  0.765900  0.608300  1.0
  N  N1441  1  0.825500  0.722280  0.776080  1
  N  N1442  1  0.674500  0.223920  0.277720  1
  N  N1443  1  0.174500  0.277720  0.223920  1
  N  N1444  1  0.325500  0.776080  0.722280  1
  N  N1445  1  0.627900  0.669100  0.360500  1
  N  N1446  1  0.872100  0.639500  0.330900  1
  N  N1447  1  0.372100  0.330900  0.639500  1
  N  N1448  1  0.127900  0.360500  0.669100  1
  N  N1449  1  0.229100  0.512890  0.774770  1.0
  N  N1450  1  0.270900  0.225230  0.487110  1.0
  N  N1451  1  0.770900  0.487110  0.225230  1.0
  N  N1452  1  0.729100  0.774770  0.512890  1.0
  N  N1453  1  0.196100  0.590270  0.805550  1.0
  N  N1454  1  0.303900  0.194450  0.409730  1.0
  N  N1455  1  0.803900  0.409730  0.194450  1.0
  N  N1456  1  0.696100  0.805550  0.590270  1.0
  N  N1457  1  0.181100  0.634500  0.812940  1.0
  N  N1458  1  0.318900  0.187060  0.365500  1.0
  N  N1459  1  0.818900  0.365500  0.187060  1.0
  N  N1460  1  0.681100  0.812940  0.634500  1.0
  N  N1461  1  0.178400  0.845700  0.778300  1.0
  N  N1462  1  0.321600  0.221700  0.154300  1.0
  N  N1463  1  0.821600  0.154300  0.221700  1.0
  N  N1464  1  0.678400  0.778300  0.845700  1.0
  N  N1465  1  0.142400  0.547790  0.902750  1.0
  N  N1466  1  0.357600  0.097250  0.452210  1.0
  N  N1467  1  0.857600  0.452210  0.097250  1.0
  N  N1468  1  0.642400  0.902750  0.547790  1.0
  N  N1469  1  0.240300  0.509350  0.870290  1.0
  N  N1470  1  0.259700  0.129710  0.490650  1.0
  N  N1471  1  0.759700  0.490650  0.129710  1.0
  N  N1472  1  0.740300  0.870290  0.509350  1.0
  N  N1473  1  0.289900  0.490970  0.862170  1.0
  N  N1474  1  0.210100  0.137830  0.509030  1.0
  N  N1475  1  0.710100  0.509030  0.137830  1.0
  N  N1476  1  0.789900  0.862170  0.490970  1.0
  N  N1477  1  0.506800  0.394400  0.913000  1.0
  N  N1478  1  0.993200  0.087000  0.605600  1.0
  N  N1479  1  0.493200  0.605600  0.087000  1.0
  N  N1480  1  0.006800  0.913000  0.394400  1.0
  N  N1481  1  0.004300  0.304010  0.887150  1.0
  N  N1482  1  0.495700  0.112850  0.695990  1.0
  N  N1483  1  0.995700  0.695990  0.112850  1.0
  N  N1484  1  0.504300  0.887150  0.304010  1.0
  N  N1485  1  0.006120  0.383790  0.830750  1.0
  N  N1486  1  0.493880  0.169250  0.616210  1.0
  N  N1487  1  0.993880  0.616210  0.169250  1.0
  N  N1488  1  0.506120  0.830750  0.383790  1.0
  N  N1489  1  0.010670  0.421100  0.795380  1.0
  N  N1490  1  0.489330  0.204620  0.578900  1.0
  N  N1491  1  0.989330  0.578900  0.204620  1.0
  N  N1492  1  0.510670  0.795380  0.421100  1.0
  N  N1493  1  0.022600  0.543290  0.586650  1.0
  N  N1494  1  0.477400  0.413350  0.456710  1.0
  N  N1495  1  0.977400  0.456710  0.413350  1.0
  N  N1496  1  0.522600  0.586650  0.543290  1.0
  N  N1497  1  0.902200  0.628490  0.946650  1.0
  N  N1498  1  0.597800  0.053350  0.371510  1.0
  N  N1499  1  0.097800  0.371510  0.053350  1.0
  N  N1500  1  0.402200  0.946650  0.628490  1.0
  N  N1501  1  0.860000  0.645690  0.878770  1.0
  N  N1502  1  0.640000  0.121230  0.354310  1.0
  N  N1503  1  0.140000  0.354310  0.121230  1.0
  N  N1504  1  0.360000  0.878770  0.645690  1.0
  N  N1505  1  0.837600  0.646440  0.847980  1.0
  N  N1506  1  0.662400  0.152020  0.353560  1.0
  N  N1507  1  0.162400  0.353560  0.152020  1.0
  N  N1508  1  0.337600  0.847980  0.646440  1.0
  N  N1509  1  0.703300  0.585970  0.761570  1.0
  N  N1510  1  0.796700  0.238430  0.414030  1.0
  N  N1511  1  0.296700  0.414030  0.238430  1.0
  N  N1512  1  0.203300  0.761570  0.585970  1.0
  N  N1513  1  0.901000  0.734090  0.826870  1.0
  N  N1514  1  0.599000  0.173130  0.265910  1.0
  N  N1515  1  0.099000  0.265910  0.173130  1.0
  N  N1516  1  0.401000  0.826870  0.734090  1.0
  N  N1517  1  0.843300  0.731550  0.912110  1.0
  N  N1518  1  0.656700  0.087890  0.268450  1.0
  N  N1519  1  0.156700  0.268450  0.087890  1.0
  N  N1520  1  0.343300  0.912110  0.731550  1.0
  N  N1521  1  0.808800  0.737970  0.953250  1.0
  N  N1522  1  0.691200  0.046750  0.262030  1.0
  N  N1523  1  0.191200  0.262030  0.046750  1.0
  N  N1524  1  0.308800  0.953250  0.737970  1.0
  N  N1525  1  0.614000  0.851740  0.093740  1.0
  N  N1526  1  0.886000  0.906260  0.148260  1.0
  N  N1527  1  0.386000  0.148260  0.906260  1.0
  N  N1528  1  0.114000  0.093740  0.851740  1.0
  N  N1529  1  0.246700  0.284490  0.819870  1.0
  N  N1530  1  0.253300  0.180130  0.715510  1.0
  N  N1531  1  0.753300  0.715510  0.180130  1.0
  N  N1532  1  0.746700  0.819870  0.284490  1.0
  N  N1533  1  0.208900  0.297100  0.857380  1.0
  N  N1534  1  0.291100  0.142620  0.702900  1.0
  N  N1535  1  0.791100  0.702900  0.142620  1.0
  N  N1536  1  0.708900  0.857380  0.297100  1.0
  N  N1537  1  0.289700  0.344780  0.807820  1.0
  N  N1538  1  0.210300  0.192180  0.655220  1.0
  N  N1539  1  0.710300  0.655220  0.192180  1.0
  N  N1540  1  0.789700  0.807820  0.344780  1.0
  N  N1541  1  0.257600  0.361370  0.846210  1.0
  N  N1542  1  0.242400  0.153790  0.638630  1.0
  N  N1543  1  0.742400  0.638630  0.153790  1.0
  N  N1544  1  0.757600  0.846210  0.361370  1.0
  N  N1545  1  0.226100  0.359890  0.767310  1.0
  N  N1546  1  0.273900  0.232690  0.640110  1.0
  N  N1547  1  0.773900  0.640110  0.232690  1.0
  N  N1548  1  0.726100  0.767310  0.359890  1.0
  N  N1549  1  0.186300  0.381010  0.798550  1.0
  N  N1550  1  0.313700  0.201450  0.618990  1.0
  N  N1551  1  0.813700  0.618990  0.201450  1.0
  N  N1552  1  0.686300  0.798550  0.381010  1.0
  N  N1553  1  0.053400  0.795540  0.963940  1.0
  N  N1554  1  0.446600  0.036060  0.204460  1.0
  N  N1555  1  0.946600  0.204460  0.036060  1.0
  N  N1556  1  0.553400  0.963940  0.795540  1.0
  N  N1557  1  0.060000  0.750160  0.964500  1.0
  N  N1558  1  0.440000  0.035500  0.249840  1.0
  N  N1559  1  0.940000  0.249840  0.035500  1.0
  N  N1560  1  0.560000  0.964500  0.750160  1.0
  N  N1561  1  0.019400  0.825380  0.896240  1.0
  N  N1562  1  0.480600  0.103760  0.174620  1.0
  N  N1563  1  0.980600  0.174620  0.103760  1.0
  N  N1564  1  0.519400  0.896240  0.825380  1.0
  N  N1565  1  0.022500  0.784200  0.888720  1.0
  N  N1566  1  0.477500  0.111280  0.215800  1.0
  N  N1567  1  0.977500  0.215800  0.111280  1.0
  N  N1568  1  0.522500  0.888720  0.784200  1.0
  N  N1569  1  0.962300  0.818740  0.975260  1.0
  N  N1570  1  0.537700  0.024740  0.181260  1.0
  N  N1571  1  0.037700  0.181260  0.024740  1.0
  N  N1572  1  0.462300  0.975260  0.818740  1.0
  N  N1573  1  0.958000  0.776820  0.975600  1.0
  N  N1574  1  0.542000  0.024400  0.223180  1.0
  N  N1575  1  0.042000  0.223180  0.024400  1.0
  N  N1576  1  0.458000  0.975600  0.776820  1.0
  N  N1577  1  0.840000  0.379500  0.809100  1.0
  N  N1578  1  0.660000  0.190900  0.620500  1.0
  N  N1579  1  0.160000  0.620500  0.190900  1.0
  N  N1580  1  0.340000  0.809100  0.379500  1.0
  N  N1581  1  0.845600  0.368900  0.853100  1.0
  N  N1582  1  0.654400  0.146900  0.631100  1.0
  N  N1583  1  0.154400  0.631100  0.146900  1.0
  N  N1584  1  0.345600  0.853100  0.368900  1.0
  N  N1585  1  0.846500  0.460570  0.793370  1.0
  N  N1586  1  0.653500  0.206630  0.539430  1.0
  N  N1587  1  0.153500  0.539430  0.206630  1.0
  N  N1588  1  0.346500  0.793370  0.460570  1.0
  N  N1589  1  0.851800  0.456470  0.835270  1.0
  N  N1590  1  0.648200  0.164730  0.543530  1.0
  N  N1591  1  0.148200  0.543530  0.164730  1.0
  N  N1592  1  0.351800  0.835270  0.456470  1.0
  N  N1593  1  0.759600  0.438800  0.870400  1.0
  N  N1594  1  0.740400  0.129600  0.561200  1.0
  N  N1595  1  0.240400  0.561200  0.129600  1.0
  N  N1596  1  0.259600  0.870400  0.438800  1.0
  N  N1597  1  0.762200  0.443200  0.825200  1.0
  N  N1598  1  0.737800  0.174800  0.556800  1.0
  N  N1599  1  0.237800  0.556800  0.174800  1.0
  N  N1600  1  0.262200  0.825200  0.443200  1.0
  N  N1601  1  0.063200  0.678000  0.697480  1.0
  N  N1602  1  0.436800  0.302520  0.322000  1.0
  N  N1603  1  0.936800  0.322000  0.302520  1.0
  N  N1604  1  0.563200  0.697480  0.678000  1.0
  N  N1605  1  0.059500  0.656730  0.742430  1.0
  N  N1606  1  0.440500  0.257570  0.343270  1.0
  N  N1607  1  0.940500  0.343270  0.257570  1.0
  N  N1608  1  0.559500  0.742430  0.656730  1.0
  N  N1609  1  0.093600  0.606160  0.666880  1.0
  N  N1610  1  0.406400  0.333120  0.393840  1.0
  N  N1611  1  0.906400  0.393840  0.333120  1.0
  N  N1612  1  0.593600  0.666880  0.606160  1.0
  N  N1613  1  0.091600  0.577420  0.708900  1.0
  N  N1614  1  0.408400  0.291100  0.422580  1.0
  N  N1615  1  0.908400  0.422580  0.291100  1.0
  N  N1616  1  0.591600  0.708900  0.577420  1.0
  N  N1617  1  0.003000  0.647990  0.684950  1.0
  N  N1618  1  0.497000  0.315050  0.352010  1.0
  N  N1619  1  0.997000  0.352010  0.315050  1.0
  N  N1620  1  0.503000  0.684950  0.647990  1.0
  N  N1621  1  0.990200  0.625240  0.729140  1.0
  N  N1622  1  0.509800  0.270860  0.374760  1.0
  N  N1623  1  0.009800  0.374760  0.270860  1.0
  N  N1624  1  0.490200  0.729140  0.625240  1.0
  N  N1625  1  0.168700  0.464500  0.865020  1.0
  N  N1626  1  0.331300  0.134980  0.535500  1.0
  N  N1627  1  0.831300  0.535500  0.134980  1.0
  N  N1628  1  0.668700  0.865020  0.464500  1.0
  N  N1629  1  0.077000  0.358070  0.888870  1.0
  N  N1630  1  0.423000  0.111130  0.641930  1.0
  N  N1631  1  0.923000  0.641930  0.111130  1.0
  N  N1632  1  0.577000  0.888870  0.358070  1.0
  N  N1633  1  0.188000  0.331170  0.965970  1.0
  N  N1634  1  0.312000  0.034030  0.668830  1.0
  N  N1635  1  0.812000  0.668830  0.034030  1.0
  N  N1636  1  0.688000  0.965970  0.331170  1.0
  N  N1637  1  0.950200  0.705450  0.903270  1.0
  N  N1638  1  0.549800  0.096730  0.294550  1.0
  N  N1639  1  0.049800  0.294550  0.096730  1.0
  N  N1640  1  0.450200  0.903270  0.705450  1.0
  N  N1641  1  0.105200  0.664480  0.891100  1.0
  N  N1642  1  0.394800  0.108900  0.335520  1.0
  N  N1643  1  0.894800  0.335520  0.108900  1.0
  N  N1644  1  0.605200  0.891100  0.664480  1.0
  N  N1645  1  0.003600  0.659010  0.030530  1.0
  N  N1646  1  0.496400  0.969470  0.340990  1.0
  N  N1647  1  0.996400  0.340990  0.969470  1.0
  N  N1648  1  0.503600  0.030530  0.659010  1.0
  N  N1649  1  0.922500  0.383980  0.913960  1.0
  N  N1650  1  0.577500  0.086040  0.616020  1.0
  N  N1651  1  0.077500  0.616020  0.086040  1.0
  N  N1652  1  0.422500  0.913960  0.383980  1.0
  N  N1653  1  0.779500  0.488960  0.952360  1.0
  N  N1654  1  0.720500  0.047640  0.511040  1.0
  N  N1655  1  0.220500  0.511040  0.047640  1.0
  N  N1656  1  0.279500  0.952360  0.488960  1.0
  N  N1657  1  0.779300  0.346800  0.974200  1.0
  N  N1658  1  0.720700  0.025800  0.653200  1.0
  N  N1659  1  0.220700  0.653200  0.025800  1.0
  N  N1660  1  0.279300  0.974200  0.346800  1.0
  N  N1661  1  0.120400  0.551430  0.817390  1.0
  N  N1662  1  0.379600  0.182610  0.448570  1.0
  N  N1663  1  0.879600  0.448570  0.182610  1.0
  N  N1664  1  0.620400  0.817390  0.551430  1.0
  N  N1665  1  0.965300  0.637820  0.848420  1.0
  N  N1666  1  0.534700  0.151580  0.362180  1.0
  N  N1667  1  0.034700  0.362180  0.151580  1.0
  N  N1668  1  0.465300  0.848420  0.637820  1.0
  N  N1669  1  0.011300  0.507400  0.801480  1.0
  N  N1670  1  0.488700  0.198520  0.492600  1.0
  N  N1671  1  0.988700  0.492600  0.198520  1.0
  N  N1672  1  0.511300  0.801480  0.507400  1.0
  N  N1673  1  0.992500  0.435540  0.905100  1.0
  N  N1674  1  0.507500  0.094900  0.564460  1.0
  N  N1675  1  0.007500  0.564460  0.094900  1.0
  N  N1676  1  0.492500  0.905100  0.435540  1.0
  Ni  Ni1677  1  0.182240  0.527970  0.840030  1.0
  Ni  Ni1678  1  0.317760  0.159970  0.472030  1.0
  Ni  Ni1679  1  0.817760  0.472030  0.159970  1.0
  Ni  Ni1680  1  0.682240  0.840030  0.527970  1.0
  Ni  Ni1681  1  0.000970  0.367850  0.900590  1.0
  Ni  Ni1682  1  0.499030  0.099410  0.632150  1.0
  Ni  Ni1683  1  0.999030  0.632150  0.099410  1.0
  Ni  Ni1684  1  0.500970  0.900590  0.367850  1.0
  Ni  Ni1685  1  0.904890  0.680640  0.885640  1.0
  Ni  Ni1686  1  0.595110  0.114360  0.319360  1.0
  Ni  Ni1687  1  0.095110  0.319360  0.114360  1.0
  Ni  Ni1688  1  0.404890  0.885640  0.680640  1.0
  O  O1689  1  0.191600  0.987300  0.621900  1.0
  O  O1690  1  0.308400  0.378100  0.012700  1.0
  O  O1691  1  0.808400  0.012700  0.378100  1.0
  O  O1692  1  0.691600  0.621900  0.987300  1.0
  O  O1693  1  0.164400  0.877800  0.954000  1.0
  O  O1694  1  0.335600  0.046000  0.122200  1.0
  O  O1695  1  0.835600  0.122200  0.046000  1.0
  O  O1696  1  0.664400  0.954000  0.877800  1.0
  O  O1697  1  0.522600  0.202500  0.992700  1.0
  O  O1698  1  0.977400  0.007300  0.797500  1.0
  O  O1699  1  0.477400  0.797500  0.007300  1.0
  O  O1700  1  0.022600  0.992700  0.202500  1.0
  O  O1701  1  0.681900  0.409000  0.763000  1.0
  O  O1702  1  0.818100  0.237000  0.591000  1.0
  O  O1703  1  0.318100  0.591000  0.237000  1.0
  O  O1704  1  0.181900  0.763000  0.409000  1.0
  O  O1705  1  0.186500  0.616300  0.493700  1.0
  O  O1706  1  0.313500  0.506300  0.383700  1.0
  O  O1707  1  0.813500  0.383700  0.506300  1.0
  O  O1708  1  0.686500  0.493700  0.616300  1.0
  O  O1709  1  0.879200  0.588940  0.491440  1.0
  O  O1710  1  0.620800  0.508560  0.411060  1.0
  O  O1711  1  0.120800  0.411060  0.508560  1.0
  O  O1712  1  0.379200  0.491440  0.588940  1.0
  O  O1713  1  0.788500  0.547200  0.582000  1.0
  O  O1714  1  0.711500  0.418000  0.452800  1.0
  O  O1715  1  0.211500  0.452800  0.418000  1.0
  O  O1716  1  0.288500  0.582000  0.547200  1.0
  O  O1717  1  0.491800  0.622200  0.843000  1.0
  O  O1718  1  0.008200  0.157000  0.377800  1.0
  O  O1719  1  0.508200  0.377800  0.157000  1.0
  O  O1720  1  0.991800  0.843000  0.622200  1.0
  O  O1721  1  0.481300  0.029500  0.054700  1.0
  O  O1722  1  0.018700  0.945300  0.970500  1.0
  O  O1723  1  0.518700  0.970500  0.945300  1.0
  O  O1724  1  0.981300  0.054700  0.029500  1.0
  O  O1725  1  0.612240  0.771380  0.279440  1.0
  O  O1726  1  0.887760  0.720560  0.228620  1.0
  O  O1727  1  0.387760  0.228620  0.720560  1.0
  O  O1728  1  0.112240  0.279440  0.771380  1.0
  P  P1729  1  0.750000  0.581360  0.418640  1
  P  P1730  1  0.250000  0.418640  0.581360  1
