
#######################################################################
#
#                 Cambridge Crystallographic Data Centre
#                                CCDC 
#
#######################################################################
#
# If this CIF has been generated from an entry in the Cambridge 
# Structural Database, then it will include bibliographic, chemical, 
# crystal, experimental, refinement or atomic coordinate data resulting 
# from the CCDC's data processing and validation procedures.
#
#######################################################################

data_TOBFUN
_chemical_formula_moiety         
'C380 H316 B8 Fe8 N114 Ni6 O20 4+,34(C2 H3 N1),4(F6 P1 1-),4.5(H2 O1)'
_chemical_name_systematic        
'tetradecakis(\m~2~-cyano)-decakis(4-methoxy-N-(4-methoxyphenyl)-N-(4-(5-(pyridin-2-yl)-1H-pyrazol-3-yl)phenyl)aniline)-octakis(hydrogen tris(pyrazolyl)borate)-bis(acetonitrile)-decacyano-hexa-nickel-octa-iron tetrakis(hexafluorophosphate) acetonitrile solvate hydrate'
_symmetry_cell_setting           monoclinic
_symmetry_space_group_name_H-M   'C 2/c'
_symmetry_Int_Tables_number      15
_space_group_name_Hall           '-C 2yn'
loop_
_symmetry_equiv_pos_site_id
_symmetry_equiv_pos_as_xyz
1 x,y,z
2 -x,y,1/2-z
3 1/2+x,1/2+y,z
4 1/2-x,1/2+y,1/2-z
5 -x,-y,-z
6 x,-y,1/2+z
7 1/2-x,1/2-y,-z
8 1/2+x,1/2-y,1/2+z
_cell_length_a                   50.386(13)
_cell_length_b                   37.365(10)
_cell_length_c                   29.391(7)
_cell_angle_alpha                90
_cell_angle_beta                 115.342(3)
_cell_angle_gamma                90
_cell_volume                     50008.8
_exptl_crystal_colour            red
_exptl_crystal_description       Plates
_cell_formula_units_Z            4
loop_
_atom_site_label
_atom_site_type_symbol
_atom_site_fract_x
_atom_site_fract_y
_atom_site_fract_z
Ni1 Ni 0.31600(2) 0.84397(2) 1.18224(3)
Ni2 Ni 0.36578(2) 0.73363(2) 1.00097(3)
Ni3 Ni 0.21686(2) 0.89750(2) 0.90489(3)
Fe1 Fe 0.38688(2) 0.74876(3) 1.18647(4)
Fe2 Fe 0.16248(2) 0.89576(2) 1.01627(4)
Fe3 Fe 0.34731(3) 0.76246(4) 0.82233(5)
Fe4 Fe 0.31878(2) 0.91737(2) 1.04076(4)
N1 N 0.35617(11) 0.86906(16) 1.2291(2)
C1 C 0.38296(14) 0.85552(19) 1.2443(3)
H1 H 0.3850 0.8312 1.2369
C2 C 0.40778(15) 0.8754(2) 1.2705(3)
H2 H 0.4265 0.8648 1.2800
C3 C 0.40610(15) 0.9094(2) 1.2826(3)
H3 H 0.4233 0.9231 1.3009
C4 C 0.37851(15) 0.9239(2) 1.2676(3)
H4 H 0.3765 0.9480 1.2758
C5 C 0.35335(16) 0.9033(2) 1.2402(3)
N2 N 0.30209(13) 0.89236(17) 1.1961(2)
C6 C 0.32365(16) 0.9167(2) 1.2220(3)
C7 C 0.31134(16) 0.9497(2) 1.2240(3)
H5 H 0.3215 0.9709 1.2399
C8 C 0.28119(16) 0.9454(3) 1.1980(3)
N3 N 0.27628(13) 0.91078(19) 1.1811(2)
C9 C 0.25766(19) 0.9685(3) 1.1897(3)
C10 C 0.2625(2) 1.0032(3) 1.2042(3)
H6 H 0.2819 1.0124 1.2168
C11 C 0.2396(2) 1.0260(3) 1.2011(4)
H7 H 0.2438 1.0499 1.2131
C12 C 0.2120(3) 1.0138(3) 1.1812(5)
C13 C 0.2061(2) 0.9779(4) 1.1644(5)
H8 H 0.1864 0.9695 1.1490
C14 C 0.2289(2) 0.9552(3) 1.1704(5)
H9 H 0.2251 0.9307 1.1615
N4 N 0.1880(2) 1.0337(3) 1.1784(5)
C15 C 0.19201(18) 1.0724(2) 1.1812(4)
C16 C 0.1991(2) 1.0932(3) 1.1488(3)
H10 H 0.2028 1.0822 1.1229
C17 C 0.2009(2) 1.1302(3) 1.1543(4)
H11 H 0.2058 1.1444 1.1322
C18 C 0.1955(2) 1.1464(2) 1.1922(4)
C19 C 0.18844(16) 1.1255(3) 1.2246(3)
H12 H 0.1848 1.1366 1.2504
C20 C 0.18667(15) 1.0885(3) 1.2191(3)
H13 H 0.1818 1.0743 1.2412
O1 O 0.1954(2) 1.1827(3) 1.1916(5)
C21 C 0.1875(4) 1.2012(4) 1.2293(6)
H14 H 0.1886 1.2272 1.2257
H15 H 0.2014 1.1941 1.2634
H16 H 0.1676 1.1945 1.2237
C22 C 0.1605(2) 1.0158(3) 1.1734(5)
C23 C 0.1342(3) 1.0232(3) 1.1319(4)
H17 H 0.1339 1.0396 1.1070
C24 C 0.1085(2) 1.0065(3) 1.1269(4)
H18 H 0.0905 1.0115 1.0986
C25 C 0.1090(2) 0.9824(3) 1.1633(5)
C26 C 0.1353(3) 0.9750(3) 1.2048(4)
H19 H 0.1356 0.9586 1.2297
C27 C 0.16103(19) 0.9917(3) 1.2098(4)
H20 H 0.1790 0.9867 1.2381
O2 O 0.0841(3) 0.9619(4) 1.1644(6)
C28 C 0.0546(3) 0.9760(6) 1.1362(9)
H21 H 0.0403 0.9598 1.1397
H22 H 0.0504 0.9781 1.1005
H23 H 0.0531 0.9996 1.1493
N5 N 0.27473(12) 0.82252(16) 1.1424(3)
C29 C 0.25798(17) 0.8248(2) 1.0939(4)
H24 H 0.2653 0.8380 1.0741
C30 C 0.23036(17) 0.8094(2) 1.0695(3)
H25 H 0.2194 0.8112 1.0340
C31 C 0.21982(18) 0.7918(2) 1.0985(4)
H26 H 0.2007 0.7818 1.0836
C32 C 0.23634(19) 0.7884(2) 1.1486(4)
H27 H 0.2295 0.7751 1.1690
C33 C 0.26350(19) 0.8048(2) 1.1690(4)
N6 N 0.31018(14) 0.81953(16) 1.2403(3)
C34 C 0.2838(2) 0.8032(2) 1.2246(4)
C35 C 0.2795(2) 0.7855(3) 1.2633(4)
H28 H 0.2633 0.7715 1.2611
C36 C 0.3063(3) 0.7941(3) 1.3072(4)
N7 N 0.32343(16) 0.8144(2) 1.2899(3)
C37 C 0.3159(3) 0.7831(4) 1.3587(4)
C38 C 0.2959(2) 0.7658(4) 1.3723(5)
H29 H 0.2762 0.7621 1.3480
C39 C 0.3046(3) 0.7539(4) 1.4214(6)
H30 H 0.2909 0.7421 1.4307
C40 C 0.3333(4) 0.7593(4) 1.4570(4)
C41 C 0.3533(2) 0.7766(4) 1.4434(5)
H31 H 0.3729 0.7802 1.4677
C42 C 0.3446(3) 0.7885(4) 1.3943(5)
H32 H 0.3582 0.8003 1.3850
N8 N 0.3463(5) 0.7407(6) 1.5068(6)
C43 C 0.3606(9) 0.7078(7) 1.4974(12)
C44 C 0.3443(5) 0.6786(10) 1.4706(11)
H33 H 0.3243 0.6816 1.4473
C45 C 0.3572(7) 0.6449(8) 1.4776(11)
H34 H 0.3461 0.6250 1.4593
C46 C 0.3864(7) 0.6405(6) 1.5116(11)
C47 C 0.4027(5) 0.6697(10) 1.5385(11)
H35 H 0.4227 0.6666 1.5617
C48 C 0.3898(8) 0.7033(7) 1.5314(12)
H36 H 0.4009 0.7233 1.5497
O3 O 0.4024(9) 0.6049(8) 1.5226(12)
C49 C 0.3970(9) 0.5808(6) 1.4778(11)
H37 H 0.4085 0.5588 1.4895
H38 H 0.4030 0.5933 1.4544
H39 H 0.3761 0.5749 1.4606
C50 C 0.3637(6) 0.7647(9) 1.5494(8)
C51 C 0.3859(7) 0.7475(6) 1.5897(12)
H40 H 0.3891 0.7226 1.5879
C52 C 0.4033(5) 0.7666(8) 1.6327(9)
H41 H 0.4184 0.7549 1.6603
C53 C 0.3986(5) 0.8031(8) 1.6354(8)
C54 C 0.3764(7) 0.8203(6) 1.5951(12)
H42 H 0.3732 0.8452 1.5969
C55 C 0.3590(5) 0.8011(9) 1.5521(9)
H43 H 0.3439 0.8129 1.5245
O4 O 0.4140(7) 0.8230(7) 1.6819(9)
C56 C 0.4375(8) 0.8156(10) 1.7333(10)
H44 H 0.4417 0.8374 1.7537
H45 H 0.4554 0.8077 1.7307
H46 H 0.4309 0.7967 1.7493
N9 N 0.40442(11) 0.70843(15) 1.00430(19)
C57 C 0.40982(14) 0.6738(2) 1.0037(3)
H47 H 0.3968 0.6573 1.0084
C58 C 0.43307(15) 0.6603(2) 0.9968(3)
H48 H 0.4356 0.6351 0.9959
C59 C 0.45196(15) 0.6826(2) 0.9913(3)
H49 H 0.4681 0.6737 0.9861
C60 C 0.44774(15) 0.7190(2) 0.9934(3)
H50 H 0.4614 0.7356 0.9910
C61 C 0.42338(14) 0.73107(19) 0.9992(2)
N10 N 0.39273(11) 0.77652(14) 1.00612(19)
C62 C 0.41701(15) 0.76887(19) 1.0008(2)
C63 C 0.43208(15) 0.7993(2) 1.0012(2)
H51 H 0.4500 0.8010 0.9979
C64 C 0.41563(15) 0.82796(19) 1.0076(2)
N11 N 0.39176(12) 0.81286(15) 1.01067(19)
C65 C 0.42086(15) 0.86660(19) 1.0122(3)
C66 C 0.43627(16) 0.8825(2) 0.9884(3)
H52 H 0.4435 0.8683 0.9693
C67 C 0.44141(17) 0.9203(2) 0.9925(3)
H53 H 0.4525 0.9313 0.9771
C68 C 0.42973(18) 0.9406(2) 1.0197(3)
C69 C 0.41461(16) 0.9251(2) 1.0424(3)
H54 H 0.4071 0.9392 1.0610
C70 C 0.40997(15) 0.88845(19) 1.0387(3)
H55 H 0.3990 0.8779 1.0547
N12 N 0.43503(16) 0.97832(18) 1.0226(3)
C71 C 0.43576(19) 0.9987(2) 1.0645(4)
C72 C 0.45395(18) 0.9887(2) 1.1126(4)
H56 H 0.4649 0.9672 1.1175
C73 C 0.4572(2) 1.0089(3) 1.1553(4)
H57 H 0.4687 1.0009 1.1887
C74 C 0.4432(3) 1.0396(3) 1.1456(5)
C75 C 0.4237(3) 1.0507(2) 1.0977(6)
H58 H 0.4128 1.0722 1.0936
C76 C 0.4203(2) 1.0304(3) 1.0555(4)
H59 H 0.4080 1.0380 1.0222
O5 O 0.4450(2) 1.0613(2) 1.1865(4)
C77 C 0.4221(5) 1.0906(4) 1.1756(8)
H60 H 0.4258 1.1035 1.2068
H61 H 0.4025 1.0799 1.1621
H62 H 0.4233 1.1073 1.1509
C78 C 0.44157(19) 0.9961(2) 0.9858(3)
C79 C 0.46516(19) 1.0174(2) 1.0009(3)
H63 H 0.4774 1.0201 1.0358
C80 C 0.47209(18) 1.0356(2) 0.9659(4)
H64 H 0.4889 1.0506 0.9765
C81 C 0.4544(2) 1.0313(3) 0.9172(4)
C82 C 0.4307(2) 1.0098(3) 0.9009(4)
H65 H 0.4191 1.0063 0.8659
C83 C 0.4236(2) 0.9931(3) 0.9352(4)
H66 H 0.4060 0.9794 0.9242
O6 O 0.45981(12) 1.04875(16) 0.8792(2)
C84 C 0.48577(19) 1.0686(3) 0.8932(4)
H67 H 0.4865 1.0789 0.8631
H68 H 0.5027 1.0528 0.9101
H69 H 0.4862 1.0878 0.9161
N13 N 0.21243(11) 0.84092(14) 0.9022(2)
C85 C 0.19960(14) 0.82101(19) 0.9246(3)
H70 H 0.1904 0.8326 0.9429
C86 C 0.19913(15) 0.7840(2) 0.9224(3)
H71 H 0.1894 0.7705 0.9382
C87 C 0.21285(16) 0.7671(2) 0.8973(3)
H72 H 0.2132 0.7417 0.8963
C88 C 0.22633(17) 0.7871(2) 0.8731(3)
H73 H 0.2354 0.7757 0.8545
C89 C 0.22610(16) 0.8246(2) 0.8769(3)
N14 N 0.23777(12) 0.88346(16) 0.8600(2)
C90 C 0.23991(17) 0.8477(2) 0.8549(3)
C91 C 0.25708(19) 0.8414(2) 0.8294(3)
H74 H 0.2624 0.8187 0.8213
C92 C 0.26504(19) 0.8743(3) 0.8181(3)
N15 N 0.25279(14) 0.89923(16) 0.8376(2)
C93 C 0.2813(2) 0.8847(3) 0.7909(3)
C94 C 0.2832(2) 0.8605(3) 0.7555(4)
H75 H 0.2747 0.8374 0.7523
C95 C 0.2969(3) 0.8688(3) 0.7257(5)
H76 H 0.2959 0.8530 0.6997
C96 C 0.3124(2) 0.9010(3) 0.7339(4)
C97 C 0.31243(18) 0.9235(2) 0.7709(4)
H77 H 0.3233 0.9451 0.7774
C98 C 0.29719(19) 0.9156(3) 0.7990(3)
H78 H 0.2977 0.9318 0.8242
N16 N 0.32623(19) 0.9122(2) 0.7033(3)
C99 C 0.35210(15) 0.93174(18) 0.7240(3)
C100 C 0.35439(18) 0.96475(19) 0.7041(2)
H79 H 0.3378 0.9747 0.6770
C101 C 0.3809(2) 0.98318(17) 0.7241(3)
H80 H 0.3825 1.0057 0.7105
C102 C 0.40513(17) 0.9686(3) 0.7638(3)
C103 C 0.40285(16) 0.9356(3) 0.7837(3)
H81 H 0.4194 0.9256 0.8108
C104 C 0.3763(2) 0.91715(16) 0.7637(3)
H82 H 0.3748 0.8946 0.7773
O7 O 0.4354(3) 0.9826(4) 0.7885(4)
C105 C 0.4504(4) 0.9985(5) 0.7732(8)
H83 H 0.4693 1.0041 0.8013
H84 H 0.4405 1.0207 0.7571
H85 H 0.4537 0.9837 0.7485
C106 C 0.3117(2) 0.90477(19) 0.6505(2)
C107 C 0.32842(17) 0.89731(19) 0.6243(3)
H86 H 0.3492 0.8964 0.6418
C108 C 0.3147(2) 0.8912(2) 0.5728(3)
H87 H 0.3262 0.8861 0.5549
C109 C 0.2843(2) 0.8925(2) 0.5473(2)
C110 C 0.26754(17) 0.8999(2) 0.5734(4)
H88 H 0.2467 0.9008 0.5560
C111 C 0.2812(2) 0.9061(2) 0.6250(3)
H89 H 0.2698 0.9112 0.6428
O8 O 0.2674(3) 0.8896(3) 0.4918(4)
C112 C 0.2357(4) 0.8850(8) 0.4720(10)
H90 H 0.2272 0.8840 0.4352
H91 H 0.2273 0.9053 0.4824
H92 H 0.2314 0.8627 0.4850
N17 N 0.21952(12) 0.95361(14) 0.9010(2)
C113 C 0.24100(16) 0.97495(19) 0.9319(3)
H93 H 0.2581 0.9642 0.9568
C114 C 0.23953(19) 1.0117(2) 0.9296(3)
H94 H 0.2548 1.0259 0.9535
C115 C 0.2156(2) 1.0277(2) 0.8922(4)
H95 H 0.2140 1.0531 0.8895
C116 C 0.19366(19) 1.0057(2) 0.8580(4)
H96 H 0.1772 1.0157 0.8306
C117 C 0.19632(17) 0.96901(19) 0.8648(3)
N18 N 0.17817(11) 0.90972(16) 0.8433(2)
C118 C 0.17317(16) 0.9444(2) 0.8319(3)
C119 C 0.14685(16) 0.9496(2) 0.7905(3)
H97 H 0.1385 0.9717 0.7752
C120 C 0.13522(15) 0.9162(2) 0.7760(3)
N19 N 0.15439(12) 0.89236(15) 0.8088(2)
C121 C 0.10799(9) 0.90471(16) 0.73293(19)
C122 C 0.09553(11) 0.92717(14) 0.6914(2)
H98 H 0.1053 0.9486 0.6900
C123 C 0.06878(11) 0.91829(17) 0.6520(2)
H99 H 0.0603 0.9336 0.6236
C124 C 0.05449(10) 0.88694(18) 0.6541(2)
C125 C 0.06695(12) 0.86448(14) 0.6956(2)
H100 H 0.0572 0.8431 0.6970
C126 C 0.09370(11) 0.87337(15) 0.73503(19)
H101 H 0.1022 0.8580 0.7634
N20 N 0.02726(15) 0.8790(3) 0.6140(3)
C127 C 0.00944(14) 0.9067(3) 0.5813(4)
C128 C 0.00314(17) 0.9386(3) 0.5989(3)
H102 H 0.0104 0.9427 0.6341
C129 C -0.01385(19) 0.9646(3) 0.5651(5)
H103 H -0.0182 0.9864 0.5772
C130 C -0.02452(15) 0.9586(3) 0.5136(4)
C131 C -0.01822(19) 0.9267(3) 0.4960(3)
H104 H -0.0255 0.9226 0.4608
C132 C -0.0012(2) 0.9007(3) 0.5298(4)
H105 H 0.0031 0.8789 0.5178
O9 O -0.0421(2) 0.9874(4) 0.4813(5)
C133 C -0.0519(5) 1.0224(5) 0.4877(11)
H106 H -0.0642 1.0327 0.4547
H107 H -0.0348 1.0378 0.5055
H108 H -0.0634 1.0204 0.5074
C134 C 0.01305(13) 0.84540(19) 0.6124(2)
C135 C -0.01155(14) 0.84422(15) 0.62233(19)
H109 H -0.0192 0.8657 0.6293
C136 C -0.02495(9) 0.81163(18) 0.62197(18)
H110 H -0.0418 0.8108 0.6287
C137 C -0.01374(12) 0.78023(14) 0.61172(19)
C138 C 0.01087(13) 0.78142(19) 0.6018(2)
H111 H 0.0185 0.7600 0.5948
C139 C 0.02427(10) 0.8140(2) 0.6022(2)
H112 H 0.0411 0.8148 0.5954
O10 O -0.02541(10) 0.74597(14) 0.61224(19)
C140 C -0.04893(15) 0.7444(2) 0.6270(3)
H113 H -0.0553 0.7195 0.6260
H114 H -0.0654 0.7588 0.6039
H115 H -0.0422 0.7537 0.6613
B1 B 0.44679(18) 0.7699(3) 1.2691(3)
H116 H 0.4665 0.7768 1.2959
N21 N 0.44782(11) 0.73231(16) 1.2467(2)
N22 N 0.42276(11) 0.71986(16) 1.2089(2)
C141 C 0.42938(15) 0.6881(2) 1.1964(3)
H117 H 0.4160 0.6734 1.1704
C142 C 0.45806(15) 0.6793(2) 1.2261(3)
H118 H 0.4681 0.6579 1.2253
C143 C 0.46914(15) 0.7083(2) 1.2575(3)
H119 H 0.4887 0.7108 1.2826
N23 N 0.42370(12) 0.76848(15) 1.2897(2)
N24 N 0.39621(12) 0.75758(14) 1.2576(2)
C144 C 0.37996(17) 0.75717(19) 1.2840(3)
H120 H 0.3597 0.7510 1.2708
C145 C 0.39716(18) 0.7670(2) 1.3328(3)
H121 H 0.3913 0.7684 1.3594
C146 C 0.42441(18) 0.7743(2) 1.3357(3)
H122 H 0.4409 0.7822 1.3649
N25 N 0.43640(12) 0.79629(15) 1.2261(2)
N26 N 0.41022(11) 0.79123(14) 1.1863(2)
C147 C 0.40528(14) 0.81773(18) 1.1527(3)
H123 H 0.3887 0.8202 1.1212
C148 C 0.42952(16) 0.8412(2) 1.1731(3)
H124 H 0.4322 0.8629 1.1587
C149 C 0.44861(16) 0.8262(2) 1.2182(3)
H125 H 0.4673 0.8355 1.2401
B2 B 0.1119(2) 0.9420(3) 1.0121(5)
H126 H 0.0956 0.9577 1.0109
N27 N 0.12026(16) 0.9158(2) 1.0534(4)
C150 C 0.1111(2) 0.9089(3) 1.0889(5)
H127 H 0.0959 0.9216 1.0930
C151 C 0.1266(3) 0.8816(3) 1.1183(4)
H128 H 0.1243 0.8709 1.1457
C152 C 0.14632(19) 0.8727(2) 1.0995(4)
H129 H 0.1608 0.8545 1.1129
N28 N 0.14267(14) 0.89283(17) 1.0600(3)
N29 N 0.13919(16) 0.96457(17) 1.0194(3)
C153 C 0.1445(2) 1.0005(3) 1.0234(4)
H130 H 0.1310 1.0188 1.0218
C154 C 0.1727(3) 1.0054(3) 1.0300(5)
H131 H 0.1828 1.0276 1.0341
C155 C 0.1838(2) 0.9716(2) 1.0295(4)
H132 H 0.2031 0.9666 1.0336
N30 N 0.16354(14) 0.94774(15) 1.0225(3)
N31 N 0.10300(14) 0.92174(16) 0.9623(3)
C156 C 0.07921(18) 0.9196(2) 0.9175(5)
H133 H 0.0615 0.9325 0.9097
C157 C 0.08311(16) 0.8975(2) 0.8852(3)
H134 H 0.0695 0.8913 0.8521
C158 C 0.11194(16) 0.8856(2) 0.9116(3)
H135 H 0.1217 0.8694 0.8990
N32 N 0.12379(12) 0.90061(15) 0.9580(3)
B3 B 0.3895(3) 0.8207(4) 0.8154(5)
H136 H 0.4031 0.8393 0.8132
N33 N 0.4057(2) 0.7852(3) 0.8400(3)
C159 C 0.4347(2) 0.7759(5) 0.8596(5)
H137 H 0.4503 0.7909 0.8612
C160 C 0.4375(4) 0.7406(4) 0.8768(5)
H138 H 0.4549 0.7264 0.8904
C161 C 0.4087(3) 0.7305(4) 0.8695(4)
H139 H 0.4037 0.7083 0.8794
N34 N 0.3890(2) 0.7579(3) 0.8456(3)
N35 N 0.37303(19) 0.8336(3) 0.8465(3)
C162 C 0.3748(3) 0.8650(3) 0.8732(4)
H140 H 0.3866 0.8852 0.8749
C163 C 0.3571(3) 0.8620(3) 0.8957(4)
H141 H 0.3539 0.8791 0.9167
C164 C 0.3441(2) 0.8285(3) 0.8819(4)
H142 H 0.3300 0.8191 0.8922
N36 N 0.35413(18) 0.8106(2) 0.8518(3)
N37 N 0.3454(2) 0.7842(3) 0.7596(4)
C165 C 0.3286(3) 0.7804(3) 0.7106(6)
H143 H 0.3124 0.7643 0.6977
C166 C 0.3365(3) 0.8012(4) 0.6807(6)
H144 H 0.3276 0.8033 0.6450
C167 C 0.3604(4) 0.8181(4) 0.7152(7)
H145 H 0.3721 0.8345 0.7069
N38 N 0.3658(2) 0.8090(3) 0.7622(4)
B4 B 0.3401(2) 0.9956(2) 1.0561(4)
H146 H 0.3468 1.0211 1.0609
N39 N 0.31226(13) 0.99026(18) 1.0632(2)
C168 C 0.2954(2) 1.0136(3) 1.0755(3)
H147 H 0.2985 1.0387 1.0797
C169 C 0.2737(2) 0.9954(3) 1.0808(3)
H148 H 0.2591 1.0051 1.0897
C170 C 0.27713(16) 0.9595(3) 1.0706(3)
H149 H 0.2651 0.9402 1.0714
N40 N 0.30042(13) 0.95715(16) 1.0595(2)
N41 N 0.36348(12) 0.96964(15) 1.0936(2)
C171 C 0.38977(15) 0.9746(2) 1.1326(3)
H150 H 0.3993 0.9971 1.1429
C172 C 0.40056(14) 0.9432(2) 1.1549(3)
H151 H 0.4190 0.9391 1.1827
C173 C 0.37969(14) 0.91846(19) 1.1293(3)
H152 H 0.3810 0.8936 1.1370
N42 N 0.35684(11) 0.93426(15) 1.0916(2)
N43 N 0.33353(12) 0.98152(17) 1.0030(3)
C174 C 0.33634(18) 0.9966(2) 0.9645(4)
H153 H 0.3427 1.0204 0.9636
C175 C 0.32841(18) 0.9715(3) 0.9254(3)
H154 H 0.3289 0.9742 0.8936
C176 C 0.32002(15) 0.9427(2) 0.9436(3)
H155 H 0.3129 0.9212 0.9253
N44 N 0.32281(11) 0.94805(15) 0.9902(3)
C177 C 0.35255(15) 0.7790(2) 1.1709(2)
N45 N 0.33524(11) 0.79974(16) 1.1687(2)
C178 C 0.37881(13) 0.73931(17) 1.1166(3)
N46 N 0.37653(11) 0.73460(14) 1.0770(2)
C179 C 0.36370(15) 0.7078(2) 1.1855(3)
N47 N 0.35143(13) 0.68260(17) 1.1880(2)
C180 C 0.18269(15) 0.89874(18) 0.9746(3)
N48 N 0.19564(12) 0.90109(15) 0.9502(3)
C181 C 0.19949(17) 0.89019(19) 1.0717(3)
N49 N 0.22221(16) 0.88669(19) 1.1052(3)
C182 C 0.15983(13) 0.84430(19) 1.0093(2)
N50 N 0.15523(10) 0.81424(16) 1.0036(2)
C183 C 0.35009(17) 0.7429(2) 0.8852(3)
N51 N 0.35103(12) 0.73501(16) 0.9225(2)
C184 C 0.3051(2) 0.7673(3) 0.7969(4)
N52 N 0.27934(18) 0.7683(2) 0.7795(3)
C185 C 0.3412(2) 0.7151(3) 0.7961(4)
N53 N 0.3395(3) 0.6863(3) 0.7793(4)
C186 C 0.31603(14) 0.8868(2) 1.0895(3)
N54 N 0.31559(12) 0.86702(18) 1.1204(3)
C187 C 0.28062(15) 0.90162(17) 0.9937(3)
N55 N 0.25688(12) 0.89470(13) 0.9653(2)
C188 C 0.33558(14) 0.8770(2) 1.0227(3)
N56 N 0.34556(12) 0.85296(17) 1.0113(3)
N57 N 0.32968(12) 0.76522(15) 0.9925(2)
C189 C 0.31166(17) 0.7824(2) 0.9951(3)
C190 C 0.28870(16) 0.8061(2) 0.9992(4)
Ni1F Ni 0.18400(2) 0.65603(2) 0.81776(3)
Ni2F Ni 0.13422(2) 0.76637(2) 0.99903(3)
Ni3F Ni 0.28314(2) 0.60250(2) 1.09511(3)
Fe1F Fe 0.11312(2) 0.75124(3) 0.81353(4)
Fe2F Fe 0.33752(2) 0.60424(2) 0.98373(4)
Fe3F Fe 0.15269(3) 0.73754(4) 1.17767(5)
Fe4F Fe 0.18122(2) 0.58263(2) 0.95924(4)
N1F N 0.14383(11) 0.63094(16) 0.7709(2)
C1F C 0.11704(14) 0.64448(19) 0.7557(3)
H1F H 0.1150 0.6688 0.7631
C2F C 0.09222(15) 0.6246(2) 0.7295(3)
H2F H 0.0735 0.6352 0.7200
C3F C 0.09390(15) 0.5906(2) 0.7174(3)
H3F H 0.0767 0.5769 0.6991
C4F C 0.12149(15) 0.5761(2) 0.7324(3)
H4F H 0.1235 0.5520 0.7242
C5F C 0.14665(16) 0.5967(2) 0.7598(3)
N2F N 0.19791(13) 0.60764(17) 0.8039(2)
C6F C 0.17635(16) 0.5833(2) 0.7780(3)
C7F C 0.18866(16) 0.5503(2) 0.7760(3)
H5F H 0.1785 0.5291 0.7601
C8F C 0.21881(16) 0.5546(3) 0.8020(3)
N3F N 0.22372(13) 0.58922(19) 0.8189(2)
C9F C 0.24234(19) 0.5315(3) 0.8103(3)
C10F C 0.2375(2) 0.4968(3) 0.7958(3)
H6F H 0.2181 0.4876 0.7832
C11F C 0.2604(2) 0.4740(3) 0.7989(4)
H7F H 0.2562 0.4501 0.7869
C12F C 0.2880(3) 0.4862(3) 0.8188(5)
C13F C 0.2939(2) 0.5221(4) 0.8356(5)
H8F H 0.3136 0.5305 0.8510
C14F C 0.2711(2) 0.5448(3) 0.8296(5)
H9F H 0.2749 0.5693 0.8385
N4F N 0.3120(2) 0.4663(3) 0.8216(5)
C15F C 0.30799(18) 0.4276(2) 0.8188(4)
C16F C 0.3009(2) 0.4068(3) 0.8512(3)
H10F H 0.2972 0.4178 0.8771
C17F C 0.2991(2) 0.3698(3) 0.8457(4)
H11F H 0.2942 0.3556 0.8678
C18F C 0.3045(2) 0.3536(2) 0.8078(4)
C19F C 0.31156(16) 0.3745(3) 0.7754(3)
H12F H 0.3152 0.3634 0.7496
C20F C 0.31333(15) 0.4115(3) 0.7809(3)
H13F H 0.3182 0.4257 0.7588
O1F O 0.3046(2) 0.3173(3) 0.8084(5)
C21F C 0.3125(4) 0.2988(4) 0.7707(6)
H14F H 0.3114 0.2728 0.7743
H15F H 0.2986 0.3059 0.7366
H16F H 0.3324 0.3055 0.7763
C22F C 0.3395(2) 0.4842(3) 0.8266(5)
C23F C 0.3658(3) 0.4768(3) 0.8681(4)
H17F H 0.3661 0.4604 0.8930
C24F C 0.3915(2) 0.4935(3) 0.8731(4)
H18F H 0.4095 0.4885 0.9014
C25F C 0.3910(2) 0.5176(3) 0.8367(5)
C26F C 0.3647(3) 0.5250(3) 0.7952(4)
H19F H 0.3644 0.5414 0.7703
C27F C 0.33897(19) 0.5083(3) 0.7902(4)
H20F H 0.3210 0.5133 0.7619
O2F O 0.4159(3) 0.5381(4) 0.8356(6)
C28F C 0.4454(3) 0.5240(6) 0.8638(9)
H21F H 0.4597 0.5402 0.8603
H22F H 0.4496 0.5219 0.8995
H23F H 0.4469 0.5004 0.8507
N5F N 0.22527(12) 0.67748(16) 0.8576(3)
C29F C 0.24202(17) 0.6752(2) 0.9061(4)
H24F H 0.2347 0.6620 0.9259
C30F C 0.26964(17) 0.6906(2) 0.9305(3)
H25F H 0.2806 0.6888 0.9660
C31F C 0.28018(18) 0.7082(2) 0.9015(4)
H26F H 0.2993 0.7182 0.9164
C32F C 0.26366(19) 0.7116(2) 0.8514(4)
H27F H 0.2705 0.7249 0.8310
C33F C 0.23650(19) 0.6952(2) 0.8310(4)
N6F N 0.18982(14) 0.68047(16) 0.7597(3)
C34F C 0.2162(2) 0.6968(2) 0.7754(4)
C35F C 0.2205(2) 0.7145(3) 0.7367(4)
H28F H 0.2367 0.7285 0.7389
C36F C 0.1937(3) 0.7059(3) 0.6928(4)
N7F N 0.17657(16) 0.6856(2) 0.7101(3)
C37F C 0.1841(3) 0.7169(4) 0.6413(4)
C38F C 0.2041(2) 0.7342(4) 0.6277(5)
H29F H 0.2238 0.7379 0.6520
C39F C 0.1954(3) 0.7461(4) 0.5786(6)
H30F H 0.2091 0.7579 0.5693
C40F C 0.1667(4) 0.7407(4) 0.5430(4)
C41F C 0.1467(2) 0.7234(4) 0.5566(5)
H31F H 0.1271 0.7198 0.5323
C42F C 0.1554(3) 0.7115(4) 0.6057(5)
H32F H 0.1418 0.6997 0.6150
N8F N 0.1537(5) 0.7593(6) 0.4932(6)
C43F C 0.1394(9) 0.7922(7) 0.5026(12)
C44F C 0.1557(5) 0.8214(10) 0.5294(11)
H33F H 0.1757 0.8184 0.5527
C45F C 0.1428(7) 0.8551(8) 0.5224(11)
H34F H 0.1539 0.8750 0.5407
C46F C 0.1136(7) 0.8595(6) 0.4884(11)
C47F C 0.0973(5) 0.8303(10) 0.4615(11)
H35F H 0.0773 0.8334 0.4383
C48F C 0.1102(8) 0.7967(7) 0.4686(12)
H36F H 0.0991 0.7767 0.4503
O3F O 0.0976(9) 0.8951(8) 0.4774(12)
C49F C 0.1030(9) 0.9192(6) 0.5222(11)
H37F H 0.0915 0.9412 0.5105
H38F H 0.0970 0.9067 0.5456
H39F H 0.1239 0.9251 0.5394
C50F C 0.1363(6) 0.7353(9) 0.4506(8)
C51F C 0.1141(7) 0.7525(6) 0.4103(12)
H40F H 0.1109 0.7774 0.4121
C52F C 0.0967(5) 0.7334(8) 0.3673(9)
H41F H 0.0816 0.7451 0.3397
C53F C 0.1014(5) 0.6969(8) 0.3646(8)
C54F C 0.1236(7) 0.6797(6) 0.4049(12)
H42F H 0.1268 0.6548 0.4031
C55F C 0.1410(5) 0.6989(9) 0.4479(9)
H43F H 0.1561 0.6871 0.4755
O4F O 0.0860(7) 0.6770(7) 0.3181(9)
C56F C 0.0625(8) 0.6844(10) 0.2667(10)
H44F H 0.0583 0.6626 0.2463
H45F H 0.0446 0.6923 0.2693
H46F H 0.0691 0.7033 0.2507
N9F N 0.09558(11) 0.79157(15) 0.99570(19)
C57F C 0.09018(14) 0.8262(2) 0.9963(3)
H47F H 0.1032 0.8427 0.9916
C58F C 0.06693(15) 0.8397(2) 1.0032(3)
H48F H 0.0644 0.8649 1.0041
C59F C 0.04804(15) 0.8174(2) 1.0087(3)
H49F H 0.0319 0.8263 1.0139
C60F C 0.05226(15) 0.7810(2) 1.0066(3)
H50F H 0.0386 0.7644 1.0090
C61F C 0.07662(14) 0.76893(19) 1.0008(2)
N10F N 0.10727(11) 0.72348(14) 0.99388(19)
C62F C 0.08299(15) 0.73113(19) 0.9992(2)
C63F C 0.06792(15) 0.7007(2) 0.9988(2)
H51F H 0.0500 0.6990 1.0021
C64F C 0.08437(15) 0.67204(19) 0.9924(2)
N11F N 0.10824(12) 0.68714(15) 0.98933(19)
C65F C 0.07914(15) 0.63340(19) 0.9878(3)
C66F C 0.06373(16) 0.6175(2) 1.0116(3)
H52F H 0.0565 0.6317 1.0307
C67F C 0.05859(17) 0.5797(2) 1.0075(3)
H53F H 0.0475 0.5687 1.0229
C68F C 0.07027(18) 0.5594(2) 0.9803(3)
C69F C 0.08539(16) 0.5749(2) 0.9576(3)
H54F H 0.0929 0.5608 0.9390
C70F C 0.09003(15) 0.61155(19) 0.9613(3)
H55F H 0.1010 0.6221 0.9453
N12F N 0.06497(16) 0.52168(18) 0.9774(3)
C71F C 0.06424(19) 0.5013(2) 0.9355(4)
C72F C 0.04605(18) 0.5113(2) 0.8874(4)
H56F H 0.0351 0.5328 0.8825
C73F C 0.0428(2) 0.4911(3) 0.8447(4)
H57F H 0.0313 0.4991 0.8113
C74F C 0.0568(3) 0.4604(3) 0.8544(5)
C75F C 0.0763(3) 0.4493(2) 0.9023(6)
H58F H 0.0872 0.4278 0.9064
C76F C 0.0797(2) 0.4696(3) 0.9445(4)
H59F H 0.0920 0.4620 0.9778
O5F O 0.0550(2) 0.4387(2) 0.8135(4)
C77F C 0.0779(5) 0.4094(4) 0.8244(8)
H60F H 0.0742 0.3965 0.7932
H61F H 0.0975 0.4201 0.8379
H62F H 0.0767 0.3927 0.8491
C78F C 0.05843(19) 0.5039(2) 1.0142(3)
C79F C 0.03484(19) 0.4826(2) 0.9991(3)
H63F H 0.0226 0.4799 0.9642
C80F C 0.02791(18) 0.4644(2) 1.0341(4)
H64F H 0.0111 0.4494 1.0235
C81F C 0.0456(2) 0.4687(3) 1.0828(4)
C82F C 0.0693(2) 0.4902(3) 1.0991(4)
H65F H 0.0809 0.4937 1.1341
C83F C 0.0764(2) 0.5069(3) 1.0648(4)
H66F H 0.0940 0.5206 1.0758
O6F O 0.04019(12) 0.45125(16) 1.1208(2)
C84F C 0.01423(19) 0.4314(3) 1.1068(4)
H67F H 0.0135 0.4211 1.1369
H68F H -0.0027 0.4472 1.0899
H69F H 0.0138 0.4122 1.0839
N13F N 0.28757(11) 0.65908(14) 1.0978(2)
C85F C 0.30040(14) 0.67899(19) 1.0754(3)
H70F H 0.3096 0.6674 1.0571
C86F C 0.30087(15) 0.7160(2) 1.0776(3)
H71F H 0.3106 0.7295 1.0618
C87F C 0.28715(16) 0.7329(2) 1.1027(3)
H72F H 0.2868 0.7583 1.1037
C88F C 0.27367(17) 0.7129(2) 1.1269(3)
H73F H 0.2646 0.7243 1.1455
C89F C 0.27390(16) 0.6754(2) 1.1231(3)
N14F N 0.26223(12) 0.61654(16) 1.1400(2)
C90F C 0.26009(17) 0.6523(2) 1.1451(3)
C91F C 0.24292(19) 0.6586(2) 1.1706(3)
H74F H 0.2376 0.6813 1.1787
C92F C 0.23496(19) 0.6257(3) 1.1819(3)
N15F N 0.24721(14) 0.60077(16) 1.1624(2)
C93F C 0.2187(2) 0.6153(3) 1.2091(3)
C94F C 0.2168(2) 0.6395(3) 1.2445(4)
H75F H 0.2253 0.6626 1.2477
C95F C 0.2031(3) 0.6312(3) 1.2743(5)
H76F H 0.2041 0.6470 1.3003
C96F C 0.1876(2) 0.5990(3) 1.2661(4)
C97F C 0.18757(18) 0.5765(2) 1.2291(4)
H77F H 0.1767 0.5549 1.2226
C98F C 0.20281(19) 0.5844(3) 1.2010(3)
H78F H 0.2023 0.5682 1.1758
N16F N 0.17377(19) 0.5878(2) 1.2967(3)
C99F C 0.14790(15) 0.56826(18) 1.2760(3)
C100F C 0.14561(18) 0.53525(19) 1.2959(2)
H79F H 0.1622 0.5253 1.3230
C101F C 0.1191(2) 0.51682(17) 1.2759(3)
H80F H 0.1175 0.4943 1.2895
C102F C 0.09487(17) 0.5314(3) 1.2362(3)
C103F C 0.09715(16) 0.5644(3) 1.2163(3)
H81F H 0.0806 0.5744 1.1892
C104F C 0.1237(2) 0.58285(16) 1.2363(3)
H82F H 0.1252 0.6054 1.2227
O7F O 0.0646(3) 0.5174(4) 1.2115(4)
C105F C 0.0496(4) 0.5015(5) 1.2268(8)
H83F H 0.0307 0.4959 1.1987
H84F H 0.0595 0.4793 1.2429
H85F H 0.0463 0.5163 1.2515
C106F C 0.1883(2) 0.59523(19) 1.3495(2)
C107F C 0.17158(17) 0.60269(19) 1.3757(3)
H86F H 0.1508 0.6036 1.3582
C108F C 0.1853(2) 0.6088(2) 1.4272(3)
H87F H 0.1738 0.6139 1.4451
C109F C 0.2157(2) 0.6075(2) 1.4527(2)
C110F C 0.23246(17) 0.6001(2) 1.4266(4)
H88F H 0.2533 0.5992 1.4440
C111F C 0.2188(2) 0.5939(2) 1.3750(3)
H89F H 0.2302 0.5888 1.3572
O8F O 0.2326(3) 0.6104(3) 1.5082(4)
C112F C 0.2643(4) 0.6150(8) 1.5280(10)
H90F H 0.2728 0.6160 1.5648
H91F H 0.2727 0.5947 1.5176
H92F H 0.2686 0.6373 1.5150
N17F N 0.28048(12) 0.54639(14) 1.0990(2)
C113F C 0.25900(16) 0.52505(19) 1.0681(3)
H93F H 0.2419 0.5358 1.0432
C114F C 0.26047(19) 0.4883(2) 1.0704(3)
H94F H 0.2452 0.4741 1.0465
C115F C 0.2844(2) 0.4723(2) 1.1078(4)
H95F H 0.2860 0.4469 1.1105
C116F C 0.30634(19) 0.4943(2) 1.1420(4)
H96F H 0.3228 0.4843 1.1694
C117F C 0.30368(17) 0.53099(19) 1.1352(3)
N18F N 0.32183(11) 0.59028(16) 1.1567(2)
C118F C 0.32683(16) 0.5556(2) 1.1681(3)
C119F C 0.35315(16) 0.5504(2) 1.2095(3)
H97F H 0.3615 0.5283 1.2248
C120F C 0.36478(15) 0.5838(2) 1.2240(3)
N19F N 0.34561(12) 0.60764(15) 1.1912(2)
C121F C 0.39201(9) 0.59529(16) 1.26707(19)
C122F C 0.40447(11) 0.57283(14) 1.3086(2)
H98F H 0.3947 0.5514 1.3100
C123F C 0.43122(11) 0.58171(17) 1.3480(2)
H99F H 0.4397 0.5664 1.3764
C124F C 0.44551(10) 0.61306(18) 1.3459(2)
C125F C 0.43305(12) 0.63552(14) 1.3044(2)
H100F H 0.4428 0.6569 1.3030
C126F C 0.40630(11) 0.62663(15) 1.26497(19)
H101F H 0.3978 0.6420 1.2366
N20F N 0.47274(15) 0.6210(3) 1.3860(3)
C127F C 0.49056(14) 0.5933(3) 1.4187(4)
C128F C 0.49686(17) 0.5614(3) 1.4011(3)
H102F H 0.4896 0.5573 1.3659
C129F C 0.51385(19) 0.5354(3) 1.4349(5)
H103F H 0.5182 0.5136 1.4228
C130F C 0.52452(15) 0.5414(3) 1.4864(4)
C131F C 0.51822(19) 0.5733(3) 1.5040(3)
H104F H 0.5255 0.5774 1.5392
C132F C 0.5012(2) 0.5993(3) 1.4702(4)
H105F H 0.4969 0.6211 1.4822
O9F O 0.5421(2) 0.5126(4) 1.5187(5)
C133F C 0.5519(5) 0.4776(5) 1.5123(11)
H106F H 0.5642 0.4673 1.5453
H107F H 0.5348 0.4622 1.4945
H108F H 0.5634 0.4796 1.4926
C134F C 0.48695(13) 0.65460(19) 1.3876(2)
C135F C 0.51155(14) 0.65578(15) 1.37767(19)
H109F H 0.5192 0.6343 1.3707
C136F C 0.52495(9) 0.68837(18) 1.37803(18)
H110F H 0.5418 0.6892 1.3713
C137F C 0.51374(12) 0.71977(14) 1.38828(19)
C138F C 0.48913(13) 0.71858(19) 1.3982(2)
H111F H 0.4815 0.7400 1.4052
C139F C 0.47573(10) 0.6860(2) 1.3978(2)
H112F H 0.4589 0.6852 1.4046
O10F O 0.52541(10) 0.75403(14) 1.38776(19)
C140F C 0.54893(15) 0.7556(2) 1.3730(3)
H113F H 0.5553 0.7805 1.3740
H114F H 0.5654 0.7412 1.3961
H115F H 0.5422 0.7463 1.3387
B1F B 0.05321(18) 0.7301(3) 0.7309(3)
H116F H 0.0335 0.7232 0.7041
N21F N 0.05218(11) 0.76769(16) 0.7533(2)
N22F N 0.07724(11) 0.78014(16) 0.7911(2)
C141F C 0.07062(15) 0.8119(2) 0.8036(3)
H117F H 0.0840 0.8266 0.8296
C142F C 0.04194(15) 0.8207(2) 0.7739(3)
H118F H 0.0319 0.8421 0.7747
C143F C 0.03086(15) 0.7917(2) 0.7425(3)
H119F H 0.0113 0.7892 0.7174
N23F N 0.07630(12) 0.73152(15) 0.7103(2)
N24F N 0.10379(12) 0.74242(14) 0.7424(2)
C144F C 0.12004(17) 0.74283(19) 0.7160(3)
H120F H 0.1403 0.7490 0.7292
C145F C 0.10284(18) 0.7330(2) 0.6672(3)
H121F H 0.1087 0.7316 0.6406
C146F C 0.07559(18) 0.7257(2) 0.6643(3)
H122F H 0.0591 0.7178 0.6351
N25F N 0.06360(12) 0.70371(15) 0.7739(2)
N26F N 0.08978(11) 0.70877(14) 0.8137(2)
C147F C 0.09472(14) 0.68227(18) 0.8473(3)
H123F H 0.1113 0.6798 0.8788
C148F C 0.07048(16) 0.6588(2) 0.8269(3)
H124F H 0.0678 0.6371 0.8413
C149F C 0.05139(16) 0.6738(2) 0.7818(3)
H125F H 0.0327 0.6645 0.7599
B2F B 0.3881(2) 0.5580(3) 0.9879(5)
H126F H 0.4044 0.5423 0.9891
N27F N 0.37974(16) 0.5842(2) 0.9466(4)
C150F C 0.3889(2) 0.5911(3) 0.9111(5)
H127F H 0.4041 0.5784 0.9070
C151F C 0.3734(3) 0.6184(3) 0.8817(4)
H128F H 0.3757 0.6291 0.8543
C152F C 0.35368(19) 0.6273(2) 0.9005(4)
H129F H 0.3392 0.6455 0.8871
N28F N 0.35733(14) 0.60717(17) 0.9400(3)
N29F N 0.36081(16) 0.53543(17) 0.9806(3)
C153F C 0.3555(2) 0.4995(3) 0.9766(4)
H130F H 0.3690 0.4812 0.9782
C154F C 0.3273(3) 0.4946(3) 0.9700(5)
H131F H 0.3172 0.4724 0.9659
C155F C 0.3162(2) 0.5284(2) 0.9705(4)
H132F H 0.2969 0.5334 0.9664
N30F N 0.33646(14) 0.55226(15) 0.9775(3)
N31F N 0.39700(14) 0.57826(16) 1.0377(3)
C156F C 0.42079(18) 0.5804(2) 1.0825(5)
H133F H 0.4385 0.5675 1.0903
C157F C 0.41689(16) 0.6025(2) 1.1148(3)
H134F H 0.4305 0.6087 1.1479
C158F C 0.38806(16) 0.6144(2) 1.0884(3)
H135F H 0.3783 0.6306 1.1010
N32F N 0.37621(12) 0.59939(15) 1.0420(3)
B3F B 0.1105(3) 0.6793(4) 1.1846(5)
H136F H 0.0969 0.6607 1.1868
N33F N 0.0943(2) 0.7148(3) 1.1600(3)
C159F C 0.0653(2) 0.7241(5) 1.1404(5)
H137F H 0.0497 0.7091 1.1388
C160F C 0.0625(4) 0.7594(4) 1.1232(5)
H138F H 0.0451 0.7736 1.1096
C161F C 0.0913(3) 0.7695(4) 1.1305(4)
H139F H 0.0963 0.7917 1.1206
N34F N 0.1110(2) 0.7421(3) 1.1544(3)
N35F N 0.12697(19) 0.6664(3) 1.1535(3)
C162F C 0.1252(3) 0.6350(3) 1.1268(4)
H140F H 0.1134 0.6148 1.1251
C163F C 0.1429(3) 0.6380(3) 1.1043(4)
H141F H 0.1461 0.6209 1.0833
C164F C 0.1559(2) 0.6715(3) 1.1181(4)
H142F H 0.1700 0.6809 1.1078
N36F N 0.14587(18) 0.6894(2) 1.1482(3)
N37F N 0.1546(2) 0.7158(3) 1.2404(4)
C165F C 0.1714(3) 0.7196(3) 1.2894(6)
H143F H 0.1876 0.7357 1.3023
C166F C 0.1635(3) 0.6988(4) 1.3193(6)
H144F H 0.1724 0.6967 1.3550
C167F C 0.1396(4) 0.6819(4) 1.2848(7)
H145F H 0.1279 0.6655 1.2931
N38F N 0.1342(2) 0.6910(3) 1.2378(4)
B4F B 0.1599(2) 0.5044(2) 0.9439(4)
H146F H 0.1532 0.4789 0.9391
N39F N 0.18774(13) 0.50974(18) 0.9368(2)
C168F C 0.2046(2) 0.4864(3) 0.9245(3)
H147F H 0.2015 0.4613 0.9203
C169F C 0.2263(2) 0.5046(3) 0.9192(3)
H148F H 0.2409 0.4949 0.9103
C170F C 0.22287(16) 0.5405(3) 0.9294(3)
H149F H 0.2349 0.5598 0.9286
N40F N 0.19958(13) 0.54285(16) 0.9405(2)
N41F N 0.13652(12) 0.53036(15) 0.9064(2)
C171F C 0.11023(15) 0.5254(2) 0.8674(3)
H150F H 0.1007 0.5029 0.8571
C172F C 0.09944(14) 0.5568(2) 0.8451(3)
H151F H 0.0810 0.5609 0.8173
C173F C 0.12031(14) 0.58154(19) 0.8707(3)
H152F H 0.1190 0.6064 0.8630
N42F N 0.14316(11) 0.56574(15) 0.9084(2)
N43F N 0.16647(12) 0.51848(17) 0.9970(3)
C174F C 0.16366(18) 0.5034(2) 1.0355(4)
H153F H 0.1573 0.4796 1.0364
C175F C 0.17159(18) 0.5285(3) 1.0746(3)
H154F H 0.1711 0.5258 1.1064
C176F C 0.17998(15) 0.5573(2) 1.0564(3)
H155F H 0.1871 0.5788 1.0747
N44F N 0.17719(11) 0.55195(15) 1.0098(3)
C177F C 0.14745(15) 0.7210(2) 0.8291(2)
N45F N 0.16476(11) 0.70026(16) 0.8313(2)
C178F C 0.12119(13) 0.76069(17) 0.8834(3)
N46F N 0.12347(11) 0.76540(14) 0.9230(2)
C179F C 0.13630(15) 0.7922(2) 0.8145(3)
N47F N 0.14857(13) 0.81740(17) 0.8120(2)
C180F C 0.31731(15) 0.60126(18) 1.0254(3)
N48F N 0.30436(12) 0.59891(15) 1.0498(3)
C181F C 0.30051(17) 0.60981(19) 0.9283(3)
N49F N 0.27779(16) 0.61331(19) 0.8948(3)
C182F C 0.34017(13) 0.65570(19) 0.9907(2)
N50F N 0.34477(10) 0.68576(16) 0.9964(2)
C183F C 0.14991(17) 0.7571(2) 1.1148(3)
N51F N 0.14897(12) 0.76499(16) 1.0775(2)
C184F C 0.1949(2) 0.7327(3) 1.2031(4)
N52F N 0.22066(18) 0.7317(2) 1.2205(3)
C185F C 0.1588(2) 0.7849(3) 1.2039(4)
N53F N 0.1605(3) 0.8137(3) 1.2207(4)
C186F C 0.18397(14) 0.6132(2) 0.9105(3)
N54F N 0.18441(12) 0.63298(18) 0.8796(3)
C187F C 0.21938(15) 0.59838(17) 1.0063(3)
N55F N 0.24312(12) 0.60530(13) 1.0347(2)
C188F C 0.16442(14) 0.6230(2) 0.9773(3)
N56F N 0.15444(12) 0.64704(17) 0.9887(3)
N57F N 0.17032(12) 0.73478(15) 1.0075(2)
C189F C 0.18834(17) 0.7176(2) 1.0049(3)
C190F C 0.21130(16) 0.6939(2) 1.0008(4)
P1 P 0.0000 0.58136(7) 0.7500
F1 F 0.0000 0.62259(19) 0.7500
F2 F 0.0000 0.5399(3) 0.7500
F3 F 0.02687(12) 0.58078(15) 0.7390(2)
F4 F -0.02283(11) 0.58108(14) 0.69317(19)
F3A F -0.02687(12) 0.58078(15) 0.7610(2)
F4A F 0.02283(11) 0.58108(14) 0.80683(19)
C191 C 0.2510(2) 1.0011(3) 0.8197(4)
C192 C 0.2540(3) 1.0424(4) 0.8115(6)
N58 N 0.25082(16) 0.9731(2) 0.8255(3)
loop_
_geom_bond_atom_site_label_1
_geom_bond_atom_site_label_2
_geom_bond_site_symmetry_1
_geom_bond_site_symmetry_2
Ni1 N1 1_555 1_555
Ni2 N9 1_555 1_555
Ni3 N13 1_555 1_555
Fe1 N22 1_555 1_555
Fe2 N28 1_555 1_555
Fe3 N34 1_555 1_555
Fe4 N40 1_555 1_555
N1 C1 1_555 1_555
C1 H1 1_555 1_555
C2 C1 1_555 1_555
H2 C2 1_555 1_555
C3 C2 1_555 1_555
H3 C3 1_555 1_555
C4 C3 1_555 1_555
H4 C4 1_555 1_555
C5 N1 1_555 1_555
N2 Ni1 1_555 1_555
C6 C5 1_555 1_555
C7 C6 1_555 1_555
H5 C7 1_555 1_555
C8 C7 1_555 1_555
N3 N2 1_555 1_555
C9 C8 1_555 1_555
C10 C9 1_555 1_555
H6 C10 1_555 1_555
C11 C10 1_555 1_555
H7 C11 1_555 1_555
C12 C11 1_555 1_555
C13 C12 1_555 1_555
H8 C13 1_555 1_555
C14 C9 1_555 1_555
H9 C14 1_555 1_555
N4 C12 1_555 1_555
C15 N4 1_555 1_555
C16 C15 1_555 1_555
H10 C16 1_555 1_555
C17 C16 1_555 1_555
H11 C17 1_555 1_555
C18 C17 1_555 1_555
C19 C18 1_555 1_555
H12 C19 1_555 1_555
C20 C15 1_555 1_555
H13 C20 1_555 1_555
O1 C18 1_555 1_555
C21 O1 1_555 1_555
H14 C21 1_555 1_555
H15 C21 1_555 1_555
H16 C21 1_555 1_555
C22 N4 1_555 1_555
C23 C22 1_555 1_555
H17 C23 1_555 1_555
C24 C23 1_555 1_555
H18 C24 1_555 1_555
C25 C24 1_555 1_555
C26 C25 1_555 1_555
H19 C26 1_555 1_555
C27 C22 1_555 1_555
H20 C27 1_555 1_555
O2 C25 1_555 1_555
C28 O2 1_555 1_555
H21 C28 1_555 1_555
H22 C28 1_555 1_555
H23 C28 1_555 1_555
N5 Ni1 1_555 1_555
C29 N5 1_555 1_555
H24 C29 1_555 1_555
C30 C29 1_555 1_555
H25 C30 1_555 1_555
C31 C30 1_555 1_555
H26 C31 1_555 1_555
C32 C31 1_555 1_555
H27 C32 1_555 1_555
C33 N5 1_555 1_555
N6 Ni1 1_555 1_555
C34 C33 1_555 1_555
C35 C34 1_555 1_555
H28 C35 1_555 1_555
C36 C35 1_555 1_555
N7 N6 1_555 1_555
C37 C36 1_555 1_555
C38 C37 1_555 1_555
H29 C38 1_555 1_555
C39 C38 1_555 1_555
H30 C39 1_555 1_555
C40 C39 1_555 1_555
C41 C40 1_555 1_555
H31 C41 1_555 1_555
C42 C37 1_555 1_555
H32 C42 1_555 1_555
N8 C40 1_555 1_555
C43 N8 1_555 1_555
C44 C43 1_555 1_555
H33 C44 1_555 1_555
C45 C44 1_555 1_555
H34 C45 1_555 1_555
C46 C45 1_555 1_555
C47 C46 1_555 1_555
H35 C47 1_555 1_555
C48 C43 1_555 1_555
H36 C48 1_555 1_555
O3 C46 1_555 1_555
C49 O3 1_555 1_555
H37 C49 1_555 1_555
H38 C49 1_555 1_555
H39 C49 1_555 1_555
C50 N8 1_555 1_555
C51 C50 1_555 1_555
H40 C51 1_555 1_555
C52 C51 1_555 1_555
H41 C52 1_555 1_555
C53 C52 1_555 1_555
C54 C53 1_555 1_555
H42 C54 1_555 1_555
C55 C50 1_555 1_555
H43 C55 1_555 1_555
O4 C53 1_555 1_555
C56 O4 1_555 1_555
H44 C56 1_555 1_555
H45 C56 1_555 1_555
H46 C56 1_555 1_555
N9 C57 1_555 1_555
C57 H47 1_555 1_555
C58 C57 1_555 1_555
H48 C58 1_555 1_555
C59 C58 1_555 1_555
H49 C59 1_555 1_555
C60 C59 1_555 1_555
H50 C60 1_555 1_555
C61 N9 1_555 1_555
N10 Ni2 1_555 1_555
C62 C61 1_555 1_555
C63 C62 1_555 1_555
H51 C63 1_555 1_555
C64 C63 1_555 1_555
N11 N10 1_555 1_555
C65 C64 1_555 1_555
C66 C65 1_555 1_555
H52 C66 1_555 1_555
C67 C66 1_555 1_555
H53 C67 1_555 1_555
C68 C67 1_555 1_555
C69 C68 1_555 1_555
H54 C69 1_555 1_555
C70 C65 1_555 1_555
H55 C70 1_555 1_555
N12 C68 1_555 1_555
C71 N12 1_555 1_555
C72 C71 1_555 1_555
H56 C72 1_555 1_555
C73 C72 1_555 1_555
H57 C73 1_555 1_555
C74 C73 1_555 1_555
C75 C74 1_555 1_555
H58 C75 1_555 1_555
C76 C71 1_555 1_555
H59 C76 1_555 1_555
O5 C74 1_555 1_555
C77 O5 1_555 1_555
H60 C77 1_555 1_555
H61 C77 1_555 1_555
H62 C77 1_555 1_555
C78 N12 1_555 1_555
C79 C78 1_555 1_555
H63 C79 1_555 1_555
C80 C79 1_555 1_555
H64 C80 1_555 1_555
C81 C80 1_555 1_555
C82 C81 1_555 1_555
H65 C82 1_555 1_555
C83 C78 1_555 1_555
H66 C83 1_555 1_555
O6 C81 1_555 1_555
C84 O6 1_555 1_555
H67 C84 1_555 1_555
H68 C84 1_555 1_555
H69 C84 1_555 1_555
N13 C85 1_555 1_555
C85 H70 1_555 1_555
C86 C85 1_555 1_555
H71 C86 1_555 1_555
C87 C86 1_555 1_555
H72 C87 1_555 1_555
C88 C87 1_555 1_555
H73 C88 1_555 1_555
C89 N13 1_555 1_555
N14 Ni3 1_555 1_555
C90 C89 1_555 1_555
C91 C90 1_555 1_555
H74 C91 1_555 1_555
C92 C91 1_555 1_555
N15 N14 1_555 1_555
C93 C92 1_555 1_555
C94 C93 1_555 1_555
H75 C94 1_555 1_555
C95 C94 1_555 1_555
H76 C95 1_555 1_555
C96 C95 1_555 1_555
C97 C96 1_555 1_555
H77 C97 1_555 1_555
C98 C93 1_555 1_555
H78 C98 1_555 1_555
N16 C96 1_555 1_555
C99 N16 1_555 1_555
C100 C99 1_555 1_555
H79 C100 1_555 1_555
C101 C100 1_555 1_555
H80 C101 1_555 1_555
C102 C101 1_555 1_555
C103 C102 1_555 1_555
H81 C103 1_555 1_555
C104 C99 1_555 1_555
H82 C104 1_555 1_555
O7 C102 1_555 1_555
C105 O7 1_555 1_555
H83 C105 1_555 1_555
H84 C105 1_555 1_555
H85 C105 1_555 1_555
C106 N16 1_555 1_555
C107 C106 1_555 1_555
H86 C107 1_555 1_555
C108 C107 1_555 1_555
H87 C108 1_555 1_555
C109 C108 1_555 1_555
C110 C109 1_555 1_555
H88 C110 1_555 1_555
C111 C106 1_555 1_555
H89 C111 1_555 1_555
O8 C109 1_555 1_555
C112 O8 1_555 1_555
H90 C112 1_555 1_555
H91 C112 1_555 1_555
H92 C112 1_555 1_555
N17 Ni3 1_555 1_555
C113 N17 1_555 1_555
H93 C113 1_555 1_555
C114 C113 1_555 1_555
H94 C114 1_555 1_555
C115 C114 1_555 1_555
H95 C115 1_555 1_555
C116 C115 1_555 1_555
H96 C116 1_555 1_555
C117 N17 1_555 1_555
N18 Ni3 1_555 1_555
C118 C117 1_555 1_555
C119 C118 1_555 1_555
H97 C119 1_555 1_555
C120 C119 1_555 1_555
N19 N18 1_555 1_555
C121 C120 1_555 1_555
C122 C121 1_555 1_555
H98 C122 1_555 1_555
C123 C122 1_555 1_555
H99 C123 1_555 1_555
C124 C123 1_555 1_555
C125 C124 1_555 1_555
H100 C125 1_555 1_555
C126 C121 1_555 1_555
H101 C126 1_555 1_555
N20 C124 1_555 1_555
C127 N20 1_555 1_555
C128 C127 1_555 1_555
H102 C128 1_555 1_555
C129 C128 1_555 1_555
H103 C129 1_555 1_555
C130 C129 1_555 1_555
C131 C130 1_555 1_555
H104 C131 1_555 1_555
C132 C127 1_555 1_555
H105 C132 1_555 1_555
O9 C130 1_555 1_555
C133 O9 1_555 1_555
H106 C133 1_555 1_555
H107 C133 1_555 1_555
H108 C133 1_555 1_555
C134 N20 1_555 1_555
C135 C134 1_555 1_555
H109 C135 1_555 1_555
C136 C135 1_555 1_555
H110 C136 1_555 1_555
C137 C136 1_555 1_555
C138 C137 1_555 1_555
H111 C138 1_555 1_555
C139 C134 1_555 1_555
H112 C139 1_555 1_555
O10 C137 1_555 1_555
C140 O10 1_555 1_555
H113 C140 1_555 1_555
H114 C140 1_555 1_555
H115 C140 1_555 1_555
B1 H116 1_555 1_555
N21 B1 1_555 1_555
N22 N21 1_555 1_555
C141 N22 1_555 1_555
H117 C141 1_555 1_555
C142 C141 1_555 1_555
H118 C142 1_555 1_555
C143 N21 1_555 1_555
H119 C143 1_555 1_555
N23 B1 1_555 1_555
N24 Fe1 1_555 1_555
C144 N24 1_555 1_555
H120 C144 1_555 1_555
C145 C144 1_555 1_555
H121 C145 1_555 1_555
C146 N23 1_555 1_555
H122 C146 1_555 1_555
N25 B1 1_555 1_555
N26 Fe1 1_555 1_555
C147 N26 1_555 1_555
H123 C147 1_555 1_555
C148 C147 1_555 1_555
H124 C148 1_555 1_555
C149 N25 1_555 1_555
H125 C149 1_555 1_555
B2 H126 1_555 1_555
N27 B2 1_555 1_555
C150 N27 1_555 1_555
H127 C150 1_555 1_555
C151 C150 1_555 1_555
H128 C151 1_555 1_555
C152 C151 1_555 1_555
H129 C152 1_555 1_555
N28 N27 1_555 1_555
N29 B2 1_555 1_555
C153 N29 1_555 1_555
H130 C153 1_555 1_555
C154 C153 1_555 1_555
H131 C154 1_555 1_555
C155 C154 1_555 1_555
H132 C155 1_555 1_555
N30 Fe2 1_555 1_555
N31 B2 1_555 1_555
C156 N31 1_555 1_555
H133 C156 1_555 1_555
C157 C156 1_555 1_555
H134 C157 1_555 1_555
C158 C157 1_555 1_555
H135 C158 1_555 1_555
N32 Fe2 1_555 1_555
B3 H136 1_555 1_555
N33 B3 1_555 1_555
C159 N33 1_555 1_555
H137 C159 1_555 1_555
C160 C159 1_555 1_555
H138 C160 1_555 1_555
C161 C160 1_555 1_555
H139 C161 1_555 1_555
N34 N33 1_555 1_555
N35 B3 1_555 1_555
C162 N35 1_555 1_555
H140 C162 1_555 1_555
C163 C162 1_555 1_555
H141 C163 1_555 1_555
C164 C163 1_555 1_555
H142 C164 1_555 1_555
N36 Fe3 1_555 1_555
N37 Fe3 1_555 1_555
C165 N37 1_555 1_555
H143 C165 1_555 1_555
C166 C165 1_555 1_555
H144 C166 1_555 1_555
C167 C166 1_555 1_555
H145 C167 1_555 1_555
N38 B3 1_555 1_555
B4 H146 1_555 1_555
N39 B4 1_555 1_555
C168 N39 1_555 1_555
H147 C168 1_555 1_555
C169 C168 1_555 1_555
H148 C169 1_555 1_555
C170 C169 1_555 1_555
H149 C170 1_555 1_555
N40 N39 1_555 1_555
N41 B4 1_555 1_555
C171 N41 1_555 1_555
H150 C171 1_555 1_555
C172 C171 1_555 1_555
H151 C172 1_555 1_555
C173 C172 1_555 1_555
H152 C173 1_555 1_555
N42 Fe4 1_555 1_555
N43 B4 1_555 1_555
C174 N43 1_555 1_555
H153 C174 1_555 1_555
C175 C174 1_555 1_555
H154 C175 1_555 1_555
C176 C175 1_555 1_555
H155 C176 1_555 1_555
N44 Fe4 1_555 1_555
C177 Fe1 1_555 1_555
N45 Ni1 1_555 1_555
C178 Fe1 1_555 1_555
N46 Ni2 1_555 1_555
C179 Fe1 1_555 1_555
N47 C179 1_555 1_555
C180 Fe2 1_555 1_555
N48 Ni3 1_555 1_555
C181 Fe2 1_555 1_555
N49 C181 1_555 1_555
C182 Fe2 1_555 1_555
N50 C182 1_555 1_555
C183 Fe3 1_555 1_555
N51 Ni2 1_555 1_555
C184 Fe3 1_555 1_555
N52 C184 1_555 1_555
C185 Fe3 1_555 1_555
N53 C185 1_555 1_555
C186 Fe4 1_555 1_555
N54 Ni1 1_555 1_555
C187 Fe4 1_555 1_555
N55 Ni3 1_555 1_555
C188 Fe4 1_555 1_555
N56 C188 1_555 1_555
N57 Ni2 1_555 1_555
C189 N57 1_555 1_555
C190 C189 1_555 1_555
P1 F1 1_555 1_555
F2 P1 1_555 1_555
F3 P1 1_555 1_555
F4 P1 1_555 1_555
C191 C192 1_555 1_555
N58 C191 1_555 1_555
Ni1F N1F 1_555 1_555
Ni2F N50 1_555 1_555
Ni3F N13F 1_555 1_555
Fe1F N22F 1_555 1_555
Fe2F N28F 1_555 1_555
Fe3F N34F 1_555 1_555
Fe4F N40F 1_555 1_555
N1F C1F 1_555 1_555
C1F H1F 1_555 1_555
C2F C1F 1_555 1_555
H2F C2F 1_555 1_555
C3F C2F 1_555 1_555
H3F C3F 1_555 1_555
C4F C3F 1_555 1_555
H4F C4F 1_555 1_555
C5F N1F 1_555 1_555
N2F Ni1F 1_555 1_555
C6F C5F 1_555 1_555
C7F C6F 1_555 1_555
H5F C7F 1_555 1_555
C8F C7F 1_555 1_555
N3F N2F 1_555 1_555
C9F C8F 1_555 1_555
C10F C9F 1_555 1_555
H6F C10F 1_555 1_555
C11F C10F 1_555 1_555
H7F C11F 1_555 1_555
C12F C11F 1_555 1_555
C13F C12F 1_555 1_555
H8F C13F 1_555 1_555
C14F C9F 1_555 1_555
H9F C14F 1_555 1_555
N4F C12F 1_555 1_555
C15F N4F 1_555 1_555
C16F C15F 1_555 1_555
H10F C16F 1_555 1_555
C17F C16F 1_555 1_555
H11F C17F 1_555 1_555
C18F C17F 1_555 1_555
C19F C18F 1_555 1_555
H12F C19F 1_555 1_555
C20F C15F 1_555 1_555
H13F C20F 1_555 1_555
O1F C18F 1_555 1_555
C21F O1F 1_555 1_555
H14F C21F 1_555 1_555
H15F C21F 1_555 1_555
H16F C21F 1_555 1_555
C22F N4F 1_555 1_555
C23F C22F 1_555 1_555
H17F C23F 1_555 1_555
C24F C23F 1_555 1_555
H18F C24F 1_555 1_555
C25F C24F 1_555 1_555
C26F C25F 1_555 1_555
H19F C26F 1_555 1_555
C27F C22F 1_555 1_555
H20F C27F 1_555 1_555
O2F C25F 1_555 1_555
C28F O2F 1_555 1_555
H21F C28F 1_555 1_555
H22F C28F 1_555 1_555
H23F C28F 1_555 1_555
N5F Ni1F 1_555 1_555
C29F N5F 1_555 1_555
H24F C29F 1_555 1_555
C30F C29F 1_555 1_555
H25F C30F 1_555 1_555
C31F C30F 1_555 1_555
H26F C31F 1_555 1_555
C32F C31F 1_555 1_555
H27F C32F 1_555 1_555
C33F N5F 1_555 1_555
N6F Ni1F 1_555 1_555
C34F C33F 1_555 1_555
C35F C34F 1_555 1_555
H28F C35F 1_555 1_555
C36F C35F 1_555 1_555
N7F N6F 1_555 1_555
C37F C36F 1_555 1_555
C38F C37F 1_555 1_555
H29F C38F 1_555 1_555
C39F C38F 1_555 1_555
H30F C39F 1_555 1_555
C40F C39F 1_555 1_555
C41F C40F 1_555 1_555
H31F C41F 1_555 1_555
C42F C37F 1_555 1_555
H32F C42F 1_555 1_555
N8F C40F 1_555 1_555
C43F N8F 1_555 1_555
C44F C43F 1_555 1_555
H33F C44F 1_555 1_555
C45F C44F 1_555 1_555
H34F C45F 1_555 1_555
C46F C45F 1_555 1_555
C47F C46F 1_555 1_555
H35F C47F 1_555 1_555
C48F C43F 1_555 1_555
H36F C48F 1_555 1_555
O3F C46F 1_555 1_555
C49F O3F 1_555 1_555
H37F C49F 1_555 1_555
H38F C49F 1_555 1_555
H39F C49F 1_555 1_555
C50F N8F 1_555 1_555
C51F C50F 1_555 1_555
H40F C51F 1_555 1_555
C52F C51F 1_555 1_555
H41F C52F 1_555 1_555
C53F C52F 1_555 1_555
C54F C53F 1_555 1_555
H42F C54F 1_555 1_555
C55F C50F 1_555 1_555
H43F C55F 1_555 1_555
O4F C53F 1_555 1_555
C56F O4F 1_555 1_555
H44F C56F 1_555 1_555
H45F C56F 1_555 1_555
H46F C56F 1_555 1_555
N9F Ni2F 1_555 1_555
C57F N9F 1_555 1_555
H47F C57F 1_555 1_555
C58F C57F 1_555 1_555
H48F C58F 1_555 1_555
C59F C58F 1_555 1_555
H49F C59F 1_555 1_555
C60F C59F 1_555 1_555
H50F C60F 1_555 1_555
C61F N9F 1_555 1_555
N10F Ni2F 1_555 1_555
C62F C61F 1_555 1_555
C63F C62F 1_555 1_555
H51F C63F 1_555 1_555
C64F C63F 1_555 1_555
N11F N10F 1_555 1_555
C65F C64F 1_555 1_555
C66F C65F 1_555 1_555
H52F C66F 1_555 1_555
C67F C66F 1_555 1_555
H53F C67F 1_555 1_555
C68F C67F 1_555 1_555
C69F C68F 1_555 1_555
H54F C69F 1_555 1_555
C70F C65F 1_555 1_555
H55F C70F 1_555 1_555
N12F C68F 1_555 1_555
C71F N12F 1_555 1_555
C72F C71F 1_555 1_555
H56F C72F 1_555 1_555
C73F C72F 1_555 1_555
H57F C73F 1_555 1_555
C74F C73F 1_555 1_555
C75F C74F 1_555 1_555
H58F C75F 1_555 1_555
C76F C71F 1_555 1_555
H59F C76F 1_555 1_555
O5F C74F 1_555 1_555
C77F O5F 1_555 1_555
H60F C77F 1_555 1_555
H61F C77F 1_555 1_555
H62F C77F 1_555 1_555
C78F N12F 1_555 1_555
C79F C78F 1_555 1_555
H63F C79F 1_555 1_555
C80F C79F 1_555 1_555
H64F C80F 1_555 1_555
C81F C80F 1_555 1_555
C82F C81F 1_555 1_555
H65F C82F 1_555 1_555
C83F C78F 1_555 1_555
H66F C83F 1_555 1_555
O6F C81F 1_555 1_555
C84F O6F 1_555 1_555
H67F C84F 1_555 1_555
H68F C84F 1_555 1_555
H69F C84F 1_555 1_555
N13F C85F 1_555 1_555
C85F H70F 1_555 1_555
C86F C85F 1_555 1_555
H71F C86F 1_555 1_555
C87F C86F 1_555 1_555
H72F C87F 1_555 1_555
C88F C87F 1_555 1_555
H73F C88F 1_555 1_555
C89F N13F 1_555 1_555
N14F Ni3F 1_555 1_555
C90F C89F 1_555 1_555
C91F C90F 1_555 1_555
H74F C91F 1_555 1_555
C92F C91F 1_555 1_555
N15F N14F 1_555 1_555
C93F C92F 1_555 1_555
C94F C93F 1_555 1_555
H75F C94F 1_555 1_555
C95F C94F 1_555 1_555
H76F C95F 1_555 1_555
C96F C95F 1_555 1_555
C97F C96F 1_555 1_555
H77F C97F 1_555 1_555
C98F C93F 1_555 1_555
H78F C98F 1_555 1_555
N16F C96F 1_555 1_555
C99F N16F 1_555 1_555
C100F C99F 1_555 1_555
H79F C100F 1_555 1_555
C101F C100F 1_555 1_555
H80F C101F 1_555 1_555
C102F C101F 1_555 1_555
C103F C102F 1_555 1_555
H81F C103F 1_555 1_555
C104F C99F 1_555 1_555
H82F C104F 1_555 1_555
O7F C102F 1_555 1_555
C105F O7F 1_555 1_555
H83F C105F 1_555 1_555
H84F C105F 1_555 1_555
H85F C105F 1_555 1_555
C106F N16F 1_555 1_555
C107F C106F 1_555 1_555
H86F C107F 1_555 1_555
C108F C107F 1_555 1_555
H87F C108F 1_555 1_555
C109F C108F 1_555 1_555
C110F C109F 1_555 1_555
H88F C110F 1_555 1_555
C111F C106F 1_555 1_555
H89F C111F 1_555 1_555
O8F C109F 1_555 1_555
C112F O8F 1_555 1_555
H90F C112F 1_555 1_555
H91F C112F 1_555 1_555
H92F C112F 1_555 1_555
N17F Ni3F 1_555 1_555
C113F N17F 1_555 1_555
H93F C113F 1_555 1_555
C114F C113F 1_555 1_555
H94F C114F 1_555 1_555
C115F C114F 1_555 1_555
H95F C115F 1_555 1_555
C116F C115F 1_555 1_555
H96F C116F 1_555 1_555
C117F N17F 1_555 1_555
N18F Ni3F 1_555 1_555
C118F C117F 1_555 1_555
C119F C118F 1_555 1_555
H97F C119F 1_555 1_555
C120F C119F 1_555 1_555
N19F N18F 1_555 1_555
C121F C120F 1_555 1_555
C122F C121F 1_555 1_555
H98F C122F 1_555 1_555
C123F C122F 1_555 1_555
H99F C123F 1_555 1_555
C124F C123F 1_555 1_555
C125F C124F 1_555 1_555
H100F C125F 1_555 1_555
C126F C121F 1_555 1_555
H101F C126F 1_555 1_555
N20F C124F 1_555 1_555
C127F N20F 1_555 1_555
C128F C127F 1_555 1_555
H102F C128F 1_555 1_555
C129F C128F 1_555 1_555
H103F C129F 1_555 1_555
C130F C129F 1_555 1_555
C131F C130F 1_555 1_555
H104F C131F 1_555 1_555
C132F C127F 1_555 1_555
H105F C132F 1_555 1_555
O9F C130F 1_555 1_555
C133F O9F 1_555 1_555
H106F C133F 1_555 1_555
H107F C133F 1_555 1_555
H108F C133F 1_555 1_555
C134F N20F 1_555 1_555
C135F C134F 1_555 1_555
H109F C135F 1_555 1_555
C136F C135F 1_555 1_555
H110F C136F 1_555 1_555
C137F C136F 1_555 1_555
C138F C137F 1_555 1_555
H111F C138F 1_555 1_555
C139F C134F 1_555 1_555
H112F C139F 1_555 1_555
O10F C137F 1_555 1_555
C140F O10F 1_555 1_555
H113F C140F 1_555 1_555
H114F C140F 1_555 1_555
H115F C140F 1_555 1_555
B1F H116F 1_555 1_555
N21F B1F 1_555 1_555
N22F N21F 1_555 1_555
C141F N22F 1_555 1_555
H117F C141F 1_555 1_555
C142F C141F 1_555 1_555
H118F C142F 1_555 1_555
C143F N21F 1_555 1_555
H119F C143F 1_555 1_555
N23F B1F 1_555 1_555
N24F Fe1F 1_555 1_555
C144F N24F 1_555 1_555
H120F C144F 1_555 1_555
C145F C144F 1_555 1_555
H121F C145F 1_555 1_555
C146F N23F 1_555 1_555
H122F C146F 1_555 1_555
N25F B1F 1_555 1_555
N26F Fe1F 1_555 1_555
C147F N26F 1_555 1_555
H123F C147F 1_555 1_555
C148F C147F 1_555 1_555
H124F C148F 1_555 1_555
C149F N25F 1_555 1_555
H125F C149F 1_555 1_555
B2F H126F 1_555 1_555
N27F B2F 1_555 1_555
C150F N27F 1_555 1_555
H127F C150F 1_555 1_555
C151F C150F 1_555 1_555
H128F C151F 1_555 1_555
C152F C151F 1_555 1_555
H129F C152F 1_555 1_555
N28F N27F 1_555 1_555
N29F B2F 1_555 1_555
C153F N29F 1_555 1_555
H130F C153F 1_555 1_555
C154F C153F 1_555 1_555
H131F C154F 1_555 1_555
C155F C154F 1_555 1_555
H132F C155F 1_555 1_555
N30F Fe2F 1_555 1_555
N31F B2F 1_555 1_555
C156F N31F 1_555 1_555
H133F C156F 1_555 1_555
C157F C156F 1_555 1_555
H134F C157F 1_555 1_555
C158F C157F 1_555 1_555
H135F C158F 1_555 1_555
N32F Fe2F 1_555 1_555
B3F H136F 1_555 1_555
N33F B3F 1_555 1_555
C159F N33F 1_555 1_555
H137F C159F 1_555 1_555
C160F C159F 1_555 1_555
H138F C160F 1_555 1_555
C161F C160F 1_555 1_555
H139F C161F 1_555 1_555
N34F N33F 1_555 1_555
N35F B3F 1_555 1_555
C162F N35F 1_555 1_555
H140F C162F 1_555 1_555
C163F C162F 1_555 1_555
H141F C163F 1_555 1_555
C164F C163F 1_555 1_555
H142F C164F 1_555 1_555
N36F Fe3F 1_555 1_555
N37F Fe3F 1_555 1_555
C165F N37F 1_555 1_555
H143F C165F 1_555 1_555
C166F C165F 1_555 1_555
H144F C166F 1_555 1_555
C167F C166F 1_555 1_555
H145F C167F 1_555 1_555
N38F B3F 1_555 1_555
B4F H146F 1_555 1_555
N39F B4F 1_555 1_555
C168F N39F 1_555 1_555
H147F C168F 1_555 1_555
C169F C168F 1_555 1_555
H148F C169F 1_555 1_555
C170F C169F 1_555 1_555
H149F C170F 1_555 1_555
N40F N39F 1_555 1_555
N41F B4F 1_555 1_555
C171F N41F 1_555 1_555
H150F C171F 1_555 1_555
C172F C171F 1_555 1_555
H151F C172F 1_555 1_555
C173F C172F 1_555 1_555
H152F C173F 1_555 1_555
N42F Fe4F 1_555 1_555
N43F B4F 1_555 1_555
C174F N43F 1_555 1_555
H153F C174F 1_555 1_555
C175F C174F 1_555 1_555
H154F C175F 1_555 1_555
C176F C175F 1_555 1_555
H155F C176F 1_555 1_555
N44F Fe4F 1_555 1_555
C177F Fe1F 1_555 1_555
N45F Ni1F 1_555 1_555
C178F Fe1F 1_555 1_555
N46F Ni2F 1_555 1_555
C179F Fe1F 1_555 1_555
N47F C179F 1_555 1_555
C180F Fe2F 1_555 1_555
N48F Ni3F 1_555 1_555
C181F Fe2F 1_555 1_555
N49F C181F 1_555 1_555
C182F Fe2F 1_555 1_555
N50F Ni2 1_555 1_555
C183F Fe3F 1_555 1_555
N51F Ni2F 1_555 1_555
C184F Fe3F 1_555 1_555
N52F C184F 1_555 1_555
C185F Fe3F 1_555 1_555
N53F C185F 1_555 1_555
C186F Fe4F 1_555 1_555
N54F Ni1F 1_555 1_555
C187F Fe4F 1_555 1_555
N55F Ni3F 1_555 1_555
C188F Fe4F 1_555 1_555
N56F C188F 1_555 1_555
N57F Ni2F 1_555 1_555
C189F N57F 1_555 1_555
C190F C189F 1_555 1_555
F3A P1 1_555 1_555
F4A P1 1_555 1_555
C4 C5 1_555 1_555
N2 C6 1_555 1_555
C8 N3 1_555 1_555
C13 C14 1_555 1_555
C19 C20 1_555 1_555
C26 C27 1_555 1_555
C32 C33 1_555 1_555
N6 C34 1_555 1_555
C36 N7 1_555 1_555
C41 C42 1_555 1_555
C47 C48 1_555 1_555
C54 C55 1_555 1_555
C60 C61 1_555 1_555
N10 C62 1_555 1_555
C64 N11 1_555 1_555
C69 C70 1_555 1_555
C75 C76 1_555 1_555
C82 C83 1_555 1_555
C88 C89 1_555 1_555
N14 C90 1_555 1_555
C92 N15 1_555 1_555
C97 C98 1_555 1_555
C103 C104 1_555 1_555
C110 C111 1_555 1_555
C116 C117 1_555 1_555
N18 C118 1_555 1_555
C120 N19 1_555 1_555
C125 C126 1_555 1_555
C131 C132 1_555 1_555
C138 C139 1_555 1_555
C142 C143 1_555 1_555
N23 N24 1_555 1_555
C145 C146 1_555 1_555
N25 N26 1_555 1_555
C148 C149 1_555 1_555
C152 N28 1_555 1_555
N29 N30 1_555 1_555
C155 N30 1_555 1_555
N31 N32 1_555 1_555
C158 N32 1_555 1_555
C161 N34 1_555 1_555
N35 N36 1_555 1_555
C164 N36 1_555 1_555
N37 N38 1_555 1_555
C167 N38 1_555 1_555
C170 N40 1_555 1_555
N41 N42 1_555 1_555
C173 N42 1_555 1_555
N43 N44 1_555 1_555
C176 N44 1_555 1_555
C177 N45 1_555 1_555
C178 N46 1_555 1_555
C180 N48 1_555 1_555
C183 N51 1_555 1_555
C186 N54 1_555 1_555
C187 N55 1_555 1_555
C4F C5F 1_555 1_555
N2F C6F 1_555 1_555
C8F N3F 1_555 1_555
C13F C14F 1_555 1_555
C19F C20F 1_555 1_555
C26F C27F 1_555 1_555
C32F C33F 1_555 1_555
N6F C34F 1_555 1_555
C36F N7F 1_555 1_555
C41F C42F 1_555 1_555
C47F C48F 1_555 1_555
C54F C55F 1_555 1_555
C60F C61F 1_555 1_555
N10F C62F 1_555 1_555
C64F N11F 1_555 1_555
C69F C70F 1_555 1_555
C75F C76F 1_555 1_555
C82F C83F 1_555 1_555
C88F C89F 1_555 1_555
N14F C90F 1_555 1_555
C92F N15F 1_555 1_555
C97F C98F 1_555 1_555
C103F C104F 1_555 1_555
C110F C111F 1_555 1_555
C116F C117F 1_555 1_555
N18F C118F 1_555 1_555
C120F N19F 1_555 1_555
C125F C126F 1_555 1_555
C131F C132F 1_555 1_555
C138F C139F 1_555 1_555
C142F C143F 1_555 1_555
N23F N24F 1_555 1_555
C145F C146F 1_555 1_555
N25F N26F 1_555 1_555
C148F C149F 1_555 1_555
C152F N28F 1_555 1_555
N29F N30F 1_555 1_555
C155F N30F 1_555 1_555
N31F N32F 1_555 1_555
C158F N32F 1_555 1_555
C161F N34F 1_555 1_555
N35F N36F 1_555 1_555
C164F N36F 1_555 1_555
N37F N38F 1_555 1_555
C167F N38F 1_555 1_555
C170F N40F 1_555 1_555
N41F N42F 1_555 1_555
C173F N42F 1_555 1_555
N43F N44F 1_555 1_555
C176F N44F 1_555 1_555
C177F N45F 1_555 1_555
C178F N46F 1_555 1_555
C180F N48F 1_555 1_555
C182F N50F 1_555 1_555
C183F N51F 1_555 1_555
C186F N54F 1_555 1_555
C187F N55F 1_555 1_555

#END
