
#######################################################################
#
#                 Cambridge Crystallographic Data Centre
#                                CCDC 
#
#######################################################################
#
# If this CIF has been generated from an entry in the Cambridge 
# Structural Database, then it will include bibliographic, chemical, 
# crystal, experimental, refinement or atomic coordinate data resulting 
# from the CCDC's data processing and validation procedures.
#
#######################################################################

data_TOBFAT
_chemical_formula_moiety         
'C264 H224 B8 Co4 Fe8 N96 O12,8(C2 H3 N1),28(H2 O1)'
_chemical_name_systematic        
'dodecakis(\m~2~-Cyano)-dodecacyano-octakis(hydridotris(pyrazol-1-yl)borate)-hexakis(4-methoxy-N-(4-methoxyphenyl)-N-(4-(3-(pyridin-2-yl)-1H-pyrazol-5-yl)phenyl)aniline)-tetra-cobalt-octa-iron acetonitrile solvate octacosahydrate'
_symmetry_cell_setting           triclinic
_symmetry_space_group_name_H-M   'P -1'
_symmetry_Int_Tables_number      2
_space_group_name_Hall           '-P 1'
loop_
_symmetry_equiv_pos_site_id
_symmetry_equiv_pos_as_xyz
1 x,y,z
2 -x,-y,-z
_cell_length_a                   20.874(5)
_cell_length_b                   20.966(5)
_cell_length_c                   23.125(5)
_cell_angle_alpha                113.626(5)
_cell_angle_beta                 90.605(5)
_cell_angle_gamma                114.671(5)
_cell_volume                     8231.38
_exptl_crystal_colour            green
_exptl_crystal_description       plate
_cell_formula_units_Z            1
loop_
_atom_site_label
_atom_site_type_symbol
_atom_site_fract_x
_atom_site_fract_y
_atom_site_fract_z
C1 C 0.5181(6) 0.8749(7) 0.3346(7)
H1 H 0.4800 0.8621 0.3566
C2 C 0.5028(7) 0.8724(6) 0.2764(7)
H2 H 0.4552 0.8592 0.2587
C3 C 0.5566(7) 0.8891(6) 0.2433(6)
H3 H 0.5472 0.8872 0.2022
C4 C 0.6255(7) 0.9088(7) 0.2718(7)
H4 H 0.6635 0.9185 0.2492
C5 C 0.6386(6) 0.9143(6) 0.3324(6)
C6 C 0.7098(6) 0.9458(7) 0.3710(6)
C7 C 0.7783(6) 0.9804(7) 0.3629(6)
H5 H 0.7924 0.9841 0.3249
C8 C 0.8236(6) 1.0092(7) 0.4216(6)
C9 C 0.9023(6) 1.0560(7) 0.4409(6)
C10 C 0.9387(7) 1.0850(8) 0.4001(7)
H6 H 0.9110 1.0753 0.3619
C11 C 1.0130(6) 1.1273(8) 0.4117(7)
H7 H 1.0354 1.1452 0.3819
C12 C 1.0545(7) 1.1434(7) 0.4684(7)
C13 C 1.0180(7) 1.1164(8) 0.5115(7)
H8 H 1.0446 1.1281 0.5511
C14 C 0.9433(6) 1.0730(7) 0.4961(6)
H9 H 0.9199 1.0545 0.5252
C15 C 1.1666(8) 1.1998(9) 0.4350(8)
C16 C 1.1682(8) 1.1412(10) 0.3826(8)
H10 H 1.1412 1.0888 0.3767
C17 C 1.2074(9) 1.1543(12) 0.3374(9)
H11 H 1.2066 1.1116 0.3006
C18 C 1.2464(11) 1.2275(16) 0.3461(11)
C19 C 1.2463(12) 1.2867(13) 0.3983(11)
H12 H 1.2730 1.3391 0.4042
C20 C 1.2073(11) 1.2721(11) 0.4442(10)
H13 H 1.2101 1.3148 0.4823
C21 C 1.3215(15) 1.2195(17) 0.2780(11)
H14 H 1.3282 1.2235 0.2375
H15 H 1.2965 1.1641 0.2688
H16 H 1.3687 1.2449 0.3068
C22 C 1.1704(6) 1.2208(8) 0.5465(7)
C23 C 1.2053(7) 1.1832(9) 0.5588(8)
H17 H 1.2004 1.1349 0.5264
C24 C 1.2467(7) 1.2167(12) 0.6185(9)
H18 H 1.2681 1.1888 0.6277
C25 C 1.2596(7) 1.2873(9) 0.6658(8)
C26 C 1.2232(9) 1.3251(10) 0.6549(9)
H19 H 1.2294 1.3739 0.6877
C27 C 1.1762(8) 1.2895(9) 0.5934(8)
H20 H 1.1494 1.3133 0.5854
C28 C 1.3212(8) 1.3928(9) 0.7690(7)
H21 H 1.3544 1.4285 0.7534
H22 H 1.3448 1.4040 0.8112
H23 H 1.2778 1.4001 0.7732
C29 C 0.6622(5) 0.9944(7) 0.5933(6)
H24 H 0.6628 1.0394 0.5921
C30 C 0.6760(5) 0.9955(7) 0.6512(6)
H25 H 0.6847 1.0406 0.6899
C31 C 0.6775(6) 0.9335(7) 0.6545(6)
H26 H 0.6883 0.9349 0.6951
C32 C 0.6632(6) 0.8683(7) 0.5984(6)
H27 H 0.6640 0.8235 0.5989
C33 C 0.6479(6) 0.8699(7) 0.5417(6)
C34 C 0.6238(6) 0.8004(7) 0.4791(6)
C35 C 0.6060(6) 0.7217(7) 0.4579(6)
H28 H 0.6119 0.6976 0.4833
C36 C 0.5777(6) 0.6856(7) 0.3916(6)
C37 C 0.5504(6) 0.6015(7) 0.3449(6)
C38 C 0.5751(6) 0.5553(7) 0.3568(6)
H29 H 0.6096 0.5779 0.3954
C39 C 0.5517(6) 0.4784(7) 0.3151(6)
H30 H 0.5696 0.4483 0.3251
C40 C 0.5011(6) 0.4432(7) 0.2572(6)
C41 C 0.4748(7) 0.4875(7) 0.2455(6)
H31 H 0.4402 0.4645 0.2069
C42 C 0.4979(6) 0.5662(7) 0.2893(5)
H32 H 0.4775 0.5954 0.2810
C43 C 0.5325(8) 0.3378(7) 0.2121(6)
C44 C 0.5210(7) 0.2755(7) 0.2222(6)
H33 H 0.4761 0.2484 0.2314
C45 C 0.5720(8) 0.2492(8) 0.2197(5)
H34 H 0.5622 0.2046 0.2265
C46 C 0.6365(9) 0.2886(9) 0.2071(6)
C47 C 0.6498(9) 0.3537(8) 0.1952(7)
H35 H 0.6941 0.3805 0.1851
C48 C 0.5976(10) 0.3769(8) 0.1986(6)
H36 H 0.6061 0.4211 0.1916
C49 C 0.6779(8) 0.1972(10) 0.1992(7)
H37 H 0.6703 0.1983 0.2412
H38 H 0.7184 0.1858 0.1884
H39 H 0.6342 0.1565 0.1660
C50 C 0.4201(6) 0.3188(5) 0.1620(5)
C51 C 0.3509(7) 0.3097(6) 0.1674(4)
H40 H 0.3415 0.3346 0.2085
C52 C 0.2953(5) 0.2643(6) 0.1127(6)
H41 H 0.2480 0.2582 0.1164
C53 C 0.3090(6) 0.2280(6) 0.0527(5)
C54 C 0.3782(7) 0.2370(6) 0.0473(5)
H42 H 0.3875 0.2122 0.0063
C55 C 0.4337(5) 0.2824(6) 0.1020(6)
H43 H 0.4810 0.2886 0.0983
C56 C 0.1880(13) 0.1698(16) 0.0002(17)
H44 H 0.1566 0.1358 -0.0429
H45 H 0.1870 0.2202 0.0178
H46 H 0.1710 0.1447 0.0287
C57 C 0.2233(6) 0.7151(7) 0.0810(6)
H47 H 0.2586 0.7660 0.0887
C58 C 0.1799(7) 0.6648(8) 0.0205(6)
H48 H 0.1851 0.6805 -0.0132
C59 C 0.1286(7) 0.5909(7) 0.0096(6)
H49 H 0.0981 0.5548 -0.0319
C60 C 0.1222(7) 0.5703(7) 0.0589(6)
H50 H 0.0869 0.5201 0.0527
C61 C 0.1689(6) 0.6248(7) 0.1186(6)
C62 C 0.1656(6) 0.6064(7) 0.1741(5)
C63 C 0.1212(6) 0.5431(8) 0.1849(6)
H51 H 0.0822 0.4956 0.1542
C64 C 0.1440(7) 0.5621(7) 0.2484(6)
C65 C 0.1173(6) 0.5201(8) 0.2866(7)
C66 C 0.0676(8) 0.4405(9) 0.2560(7)
H52 H 0.0518 0.4144 0.2103
C67 C 0.0414(9) 0.4000(8) 0.2917(8)
H53 H 0.0076 0.3459 0.2702
C68 C 0.0631(7) 0.4363(9) 0.3586(7)
C69 C 0.1100(6) 0.5141(9) 0.3887(7)
H54 H 0.1241 0.5409 0.4345
C70 C 0.1368(6) 0.5537(8) 0.3523(6)
H55 H 0.1709 0.6076 0.3742
C71 C -0.0410(8) 0.3308(9) 0.3696(7)
C72 C -0.0577(8) 0.2586(9) 0.3659(7)
H56 H -0.0212 0.2470 0.3769
C73 C -0.1314(8) 0.2018(8) 0.3451(7)
H57 H -0.1448 0.1509 0.3414
C74 C -0.1831(7) 0.2201(8) 0.3302(7)
C75 C -0.1654(8) 0.2922(8) 0.3340(7)
H58 H -0.2022 0.3028 0.3219
C76 C -0.0954(8) 0.3492(9) 0.3548(7)
H59 H -0.0833 0.4002 0.3593
C77 C -0.2791(8) 0.0987(9) 0.3175(10)
H60 H -0.2578 0.1130 0.3616
H61 H -0.2642 0.0622 0.2865
H62 H -0.3318 0.0736 0.3110
C78 C 0.0678(8) 0.4165(8) 0.4572(7)
C79 C 0.0338(10) 0.4237(10) 0.5077(10)
H63 H -0.0156 0.4117 0.5005
C80 C 0.0693(14) 0.4477(10) 0.5693(11)
H64 H 0.0433 0.4506 0.6030
C81 C 0.1397(15) 0.4672(13) 0.5825(11)
C82 C 0.1757(10) 0.4645(9) 0.5352(10)
H65 H 0.2261 0.4811 0.5448
C83 C 0.1420(8) 0.4379(8) 0.4716(7)
H66 H 0.1687 0.4342 0.4384
C84 C 0.2398(16) 0.5181(14) 0.6588(11)
H67 H 0.2534 0.4756 0.6452
H68 H 0.2568 0.5503 0.7057
H69 H 0.2617 0.5507 0.6368
C85 C 0.4602(6) 0.8559(6) 0.4639(5)
C86 C 0.3402(5) 0.8094(6) 0.3798(6)
C87 C 0.3723(5) 0.9232(8) 0.5002(6)
C88 C 0.3803(6) 0.6829(7) 0.1637(6)
C89 C 0.4934(6) 0.6753(8) 0.2042(7)
C90 C 0.4829(6) 0.6832(7) 0.0942(5)
C91 C 0.3727(6) 0.9033(7) 0.1855(6)
C92 C 0.4962(6) 0.9862(6) 0.1565(6)
C93 C 0.4089(6) 1.0504(7) 0.1981(6)
C94 C 0.1630(5) 0.8214(6) 0.2619(5)
C95 C 0.1336(7) 0.9139(9) 0.3586(6)
C96 C 0.1153(7) 0.9162(9) 0.2477(6)
C97 C 0.4382(7) 0.8862(8) 0.6052(6)
H70 H 0.4749 0.9338 0.6076
C98 C 0.4316(8) 0.8638(8) 0.6538(6)
H71 H 0.4620 0.8925 0.6957
C99 C 0.3720(7) 0.7909(8) 0.6296(6)
H72 H 0.3536 0.7599 0.6520
C100 C 0.2088(6) 0.8019(6) 0.4652(5)
H73 H 0.2139 0.8381 0.4486
C101 C 0.1490(6) 0.7645(8) 0.4856(6)
H74 H 0.1055 0.7689 0.4850
C102 C 0.1650(6) 0.7196(7) 0.5071(6)
H75 H 0.1347 0.6876 0.5252
C103 C 0.3690(6) 0.6689(7) 0.3839(5)
H76 H 0.3974 0.6881 0.3572
C104 C 0.3455(6) 0.5934(7) 0.3791(6)
H77 H 0.3533 0.5517 0.3492
C105 C 0.3088(6) 0.5943(7) 0.4281(6)
H78 H 0.2869 0.5523 0.4393
C106 C 0.3265(6) 0.5514(8) 0.2086(6)
H79 H 0.3410 0.6008 0.2448
C107 C 0.2734(7) 0.4813(8) 0.2038(6)
H80 H 0.2451 0.4728 0.2344
C108 C 0.2713(7) 0.4263(8) 0.1442(6)
H81 H 0.2404 0.3715 0.1263
C109 C 0.3175(6) 0.5734(7) 0.0080(6)
H82 H 0.3284 0.6260 0.0182
C110 C 0.2685(7) 0.5077(8) -0.0467(6)
H83 H 0.2405 0.5059 -0.0806
C111 C 0.2705(6) 0.4466(7) -0.0400(6)
H84 H 0.2425 0.3929 -0.0698
C112 C 0.5295(6) 0.5502(7) 0.0927(5)
H85 H 0.5712 0.5998 0.1112
C113 C 0.5301(7) 0.4792(7) 0.0643(6)
H86 H 0.5712 0.4701 0.0607
C114 C 0.4598(7) 0.4249(7) 0.0425(6)
H87 H 0.4425 0.3698 0.0195
C115 C 0.2386(6) 0.9183(6) 0.1297(6)
H88 H 0.2428 0.9391 0.1752
C116 C 0.1764(7) 0.8857(7) 0.0848(7)
H89 H 0.1302 0.8795 0.0932
C117 C 0.1943(7) 0.8638(8) 0.0256(7)
H90 H 0.1623 0.8390 -0.0150
C118 C 0.4669(6) 1.0664(7) 0.0715(6)
H91 H 0.5028 1.1070 0.1091
C119 C 0.4608(7) 1.0721(7) 0.0146(6)
H92 H 0.4894 1.1142 0.0051
C120 C 0.4024(7) 1.0012(8) -0.0249(6)
H93 H 0.3831 0.9851 -0.0686
C121 C 0.4138(6) 0.8055(7) 0.0531(6)
H94 H 0.4425 0.8100 0.0881
C122 C 0.3944(7) 0.7473(7) -0.0101(7)
H95 H 0.4064 0.7052 -0.0268
C123 C 0.3544(7) 0.7643(7) -0.0423(6)
H96 H 0.3332 0.7353 -0.0871
C124 C 0.0657(8) 0.7288(10) 0.3335(8)
H97 H 0.1149 0.7561 0.3552
C125 C 0.0154(11) 0.6618(13) 0.3348(11)
H98 H 0.0227 0.6331 0.3550
C126 C -0.0488(9) 0.6456(12) 0.2997(10)
H99 H -0.0951 0.6040 0.2930
C127 C -0.0199(7) 0.9106(9) 0.3191(7)
H100 H 0.0170 0.9630 0.3426
C128 C -0.0932(7) 0.8873(10) 0.3122(7)
H101 H -0.1162 0.9197 0.3280
C129 C -0.1247(7) 0.8086(10) 0.2781(7)
H102 H -0.1751 0.7747 0.2667
C130 C 0.0468(7) 0.7337(8) 0.1275(6)
H103 H 0.0935 0.7610 0.1212
C131 C -0.0073(8) 0.6697(9) 0.0804(8)
H104 H -0.0072 0.6451 0.0359
C132 C -0.0621(7) 0.6479(9) 0.1103(8)
H105 H -0.1068 0.6016 0.0898
N1 N 0.5843(5) 0.8944(5) 0.3627(4)
N2 N 0.7100(4) 0.9496(5) 0.4296(4)
N3 N 0.7800(4) 0.9900(5) 0.4605(4)
H106 H 0.7952 1.0022 0.5009
N4 N 1.1286(5) 1.1860(6) 0.4834(6)
N5 N 0.6480(4) 0.9316(5) 0.5382(4)
N6 N 0.6085(4) 0.8117(5) 0.4286(4)
N7 N 0.5790(4) 0.7412(5) 0.3753(4)
H107 H 0.5633 0.7331 0.3362
N8 N 0.4804(6) 0.3646(6) 0.2140(5)
N9 N 0.2177(4) 0.6953(6) 0.1291(4)
N10 N 0.2143(5) 0.6615(5) 0.2287(4)
N11 N 0.2006(5) 0.6347(6) 0.2717(5)
H108 H 0.2257 0.6611 0.3117
N12 N 0.0342(6) 0.3922(8) 0.3943(6)
N13 N 0.5208(5) 0.8783(5) 0.4617(4)
N14 N 0.3302(4) 0.8063(5) 0.3293(5)
N15 N 0.3763(4) 0.9856(6) 0.5200(5)
N16 N 0.3540(5) 0.7209(6) 0.1912(5)
N17 N 0.5366(5) 0.7138(6) 0.2511(5)
N18 N 0.5215(6) 0.7278(6) 0.0769(5)
N19 N 0.3496(5) 0.8671(6) 0.2138(4)
N20 N 0.5570(6) 1.0050(6) 0.1703(5)
N21 N 0.4149(5) 1.1092(6) 0.2372(5)
N22 N 0.2110(4) 0.8097(5) 0.2537(4)
N23 N 0.1686(5) 0.9604(7) 0.4081(5)
N24 N 0.1378(7) 0.9644(8) 0.2293(6)
N25 N 0.3849(5) 0.8307(6) 0.5538(4)
N26 N 0.3449(5) 0.7720(6) 0.5696(5)
N27 N 0.2578(4) 0.7803(5) 0.4720(4)
N28 N 0.2308(5) 0.7286(6) 0.4980(4)
N29 N 0.3462(4) 0.7088(5) 0.4298(4)
N30 N 0.3087(5) 0.6633(6) 0.4575(4)
N31 N 0.3544(5) 0.5415(6) 0.1567(4)
N32 N 0.3190(5) 0.4618(6) 0.1161(5)
N33 N 0.3470(5) 0.5526(5) 0.0442(4)
N34 N 0.3176(5) 0.4727(5) 0.0144(5)
N35 N 0.4622(5) 0.5394(6) 0.0905(4)
N36 N 0.4190(5) 0.4613(5) 0.0586(4)
N37 N 0.2919(5) 0.9163(5) 0.0993(4)
N38 N 0.2645(5) 0.8833(5) 0.0348(5)
N39 N 0.4182(5) 0.9991(6) 0.0692(5)
N40 N 0.3771(5) 0.9585(6) 0.0071(5)
N41 N 0.3867(5) 0.8541(6) 0.0576(5)
N42 N 0.3489(5) 0.8276(5) -0.0022(5)
N43 N 0.0378(6) 0.7506(7) 0.2987(5)
N44 N -0.0339(6) 0.6978(8) 0.2775(6)
N45 N -0.0092(5) 0.8485(7) 0.2880(5)
N46 N -0.0753(5) 0.7868(7) 0.2635(5)
N47 N 0.0270(5) 0.7543(6) 0.1842(5)
N48 N -0.0452(6) 0.7001(6) 0.1725(6)
O1 O 1.2833(8) 1.2538(11) 0.3056(8)
O2 O 1.3012(5) 1.3123(8) 0.7233(6)
O3 O 0.6935(5) 0.2700(6) 0.2019(5)
O4 O 0.2574(11) 0.1818(10) -0.0037(7)
O5 O -0.2548(5) 0.1680(6) 0.3080(6)
O6 O 0.1673(11) 0.4872(9) 0.6435(7)
Fe1 Fe 0.36186(8) 0.82077(9) 0.46529(7)
Fe2 Fe 0.42139(8) 0.61300(9) 0.12519(8)
Fe3 Fe 0.39674(9) 0.95255(10) 0.12903(8)
Fe4 Fe 0.07797(9) 0.83541(11) 0.27370(8)
Co1 Co 0.61549(7) 0.91414(9) 0.45082(7)
Co2 Co 0.28715(7) 0.76969(9) 0.23121(7)
B1 B -0.0798(8) 0.7054(11) 0.2307(8)
H109 H -0.1309 0.6635 0.2176
B2 B 0.3140(8) 0.8734(8) -0.0129(7)
H110 H 0.2875 0.8481 -0.0587
B3 B 0.2804(7) 0.7003(9) 0.5180(7)
H111 H 0.2540 0.6613 0.5346
B4 B 0.3370(7) 0.4338(8) 0.0493(7)
H112 H 0.3097 0.3755 0.0246
C1A C 0.4819(6) 1.1251(7) 0.6654(7)
H1A H 0.5200 1.1379 0.6434
C2A C 0.4972(7) 1.1276(6) 0.7236(7)
H2A H 0.5448 1.1408 0.7413
C3A C 0.4434(7) 1.1109(6) 0.7567(6)
H3A H 0.4528 1.1128 0.7978
C4A C 0.3745(7) 1.0912(7) 0.7282(7)
H4A H 0.3365 1.0815 0.7508
C5A C 0.3614(6) 1.0857(6) 0.6676(6)
C6A C 0.2902(6) 1.0542(7) 0.6290(6)
C7A C 0.2217(6) 1.0196(7) 0.6371(6)
H5A H 0.2076 1.0159 0.6751
C8A C 0.1764(6) 0.9908(7) 0.5784(6)
C9A C 0.0977(6) 0.9440(7) 0.5591(6)
C10A C 0.0613(7) 0.9150(8) 0.5999(7)
H6A H 0.0890 0.9247 0.6381
C11A C -0.0130(6) 0.8727(8) 0.5883(7)
H7A H -0.0354 0.8548 0.6181
C12A C -0.0545(7) 0.8566(7) 0.5316(7)
C13A C -0.0180(7) 0.8836(8) 0.4885(7)
H8A H -0.0446 0.8719 0.4489
C14A C 0.0567(6) 0.9270(7) 0.5039(6)
H9A H 0.0801 0.9455 0.4748
C15A C -0.1666(8) 0.8002(9) 0.5650(8)
C16A C -0.1682(8) 0.8588(10) 0.6174(8)
H10A H -0.1412 0.9112 0.6233
C17A C -0.2074(9) 0.8457(12) 0.6626(9)
H11A H -0.2066 0.8884 0.6994
C18A C -0.2464(11) 0.7725(16) 0.6539(11)
C19A C -0.2463(12) 0.7133(13) 0.6017(11)
H12A H -0.2730 0.6609 0.5958
C20A C -0.2073(11) 0.7279(11) 0.5558(10)
H13A H -0.2101 0.6852 0.5177
C21A C -0.3215(15) 0.7805(17) 0.7220(11)
H14A H -0.3282 0.7765 0.7625
H15A H -0.2965 0.8359 0.7312
H16A H -0.3687 0.7551 0.6932
C22A C -0.1704(6) 0.7792(8) 0.4535(7)
C23A C -0.2053(7) 0.8168(9) 0.4412(8)
H17A H -0.2004 0.8651 0.4736
C24A C -0.2467(7) 0.7833(12) 0.3815(9)
H18A H -0.2681 0.8112 0.3723
C25A C -0.2596(7) 0.7127(9) 0.3342(8)
C26A C -0.2232(9) 0.6749(10) 0.3451(9)
H19A H -0.2294 0.6261 0.3123
C27A C -0.1762(8) 0.7105(9) 0.4066(8)
H20A H -0.1494 0.6867 0.4146
C28A C -0.3212(8) 0.6072(9) 0.2310(7)
H21A H -0.3544 0.5715 0.2466
H22A H -0.3448 0.5960 0.1888
H23A H -0.2778 0.5999 0.2268
C29A C 0.3378(5) 1.0056(7) 0.4067(6)
H24A H 0.3372 0.9606 0.4079
C30A C 0.3240(5) 1.0045(7) 0.3488(6)
H25A H 0.3153 0.9594 0.3101
C31A C 0.3225(6) 1.0665(7) 0.3455(6)
H26A H 0.3117 1.0651 0.3049
C32A C 0.3368(6) 1.1317(7) 0.4016(6)
H27A H 0.3360 1.1765 0.4011
C33A C 0.3521(6) 1.1301(7) 0.4583(6)
C34A C 0.3762(6) 1.1996(7) 0.5209(6)
C35A C 0.3940(6) 1.2783(7) 0.5421(6)
H28A H 0.3881 1.3024 0.5167
C36A C 0.4223(6) 1.3144(7) 0.6084(6)
C37A C 0.4496(6) 1.3985(7) 0.6551(6)
C38A C 0.4249(6) 1.4447(7) 0.6432(6)
H29A H 0.3904 1.4221 0.6046
C39A C 0.4483(6) 1.5216(7) 0.6849(6)
H30A H 0.4304 1.5517 0.6749
C40A C 0.4989(6) 1.5568(7) 0.7428(6)
C41A C 0.5252(7) 1.5125(7) 0.7545(6)
H31A H 0.5598 1.5355 0.7931
C42A C 0.5021(6) 1.4338(7) 0.7107(5)
H32A H 0.5225 1.4046 0.7190
C43A C 0.4675(8) 1.6622(7) 0.7879(6)
C44A C 0.4790(7) 1.7245(7) 0.7778(6)
H33A H 0.5239 1.7516 0.7686
C45A C 0.4280(8) 1.7508(8) 0.7803(5)
H34A H 0.4378 1.7954 0.7735
C46A C 0.3635(9) 1.7114(9) 0.7929(6)
C47A C 0.3502(9) 1.6463(8) 0.8048(7)
H35A H 0.3059 1.6195 0.8149
C48A C 0.4024(10) 1.6231(8) 0.8014(6)
H36A H 0.3939 1.5789 0.8084
C49A C 0.3221(8) 1.8028(10) 0.8008(7)
H37A H 0.3297 1.8017 0.7588
H38A H 0.2816 1.8142 0.8116
H39A H 0.3658 1.8435 0.8340
C50A C 0.5799(6) 1.6812(5) 0.8380(5)
C51A C 0.6491(7) 1.6903(6) 0.8326(4)
H40A H 0.6585 1.6654 0.7915
C52A C 0.7047(5) 1.7357(6) 0.8873(6)
H41A H 0.7520 1.7418 0.8836
C53A C 0.6910(6) 1.7720(6) 0.9473(5)
C54A C 0.6218(7) 1.7630(6) 0.9527(5)
H42A H 0.6125 1.7878 0.9937
C55A C 0.5663(5) 1.7176(6) 0.8980(6)
H43A H 0.5190 1.7114 0.9017
C56A C 0.8120(13) 1.8302(16) 0.9998(17)
H44A H 0.8434 1.8642 1.0429
H45A H 0.8130 1.7798 0.9822
H46A H 0.8290 1.8553 0.9713
C57A C 0.7767(6) 1.2849(7) 0.9190(6)
H47A H 0.7414 1.2340 0.9113
C58A C 0.8201(7) 1.3352(8) 0.9795(6)
H48A H 0.8149 1.3195 1.0132
C59A C 0.8714(7) 1.4091(7) 0.9904(6)
H49A H 0.9019 1.4452 1.0319
C60A C 0.8778(7) 1.4297(7) 0.9411(6)
H50A H 0.9131 1.4799 0.9473
C61A C 0.8311(6) 1.3752(7) 0.8814(6)
C62A C 0.8344(6) 1.3936(7) 0.8259(5)
C63A C 0.8788(6) 1.4569(8) 0.8151(6)
H51A H 0.9178 1.5044 0.8458
C64A C 0.8560(7) 1.4379(7) 0.7516(6)
C65A C 0.8827(6) 1.4799(8) 0.7134(7)
C66A C 0.9324(8) 1.5595(9) 0.7440(7)
H52A H 0.9482 1.5856 0.7897
C67A C 0.9586(9) 1.6000(8) 0.7083(8)
H53A H 0.9924 1.6541 0.7298
C68A C 0.9369(7) 1.5637(9) 0.6414(7)
C69A C 0.8900(6) 1.4859(9) 0.6113(7)
H54A H 0.8759 1.4591 0.5655
C70A C 0.8632(6) 1.4463(8) 0.6477(6)
H55A H 0.8291 1.3924 0.6258
C71A C 1.0410(8) 1.6692(9) 0.6304(7)
C72A C 1.0577(8) 1.7414(9) 0.6341(7)
H56A H 1.0212 1.7530 0.6231
C73A C 1.1314(8) 1.7982(8) 0.6549(7)
H57A H 1.1448 1.8491 0.6586
C74A C 1.1831(7) 1.7799(8) 0.6698(7)
C75A C 1.1654(8) 1.7078(8) 0.6660(7)
H58A H 1.2022 1.6972 0.6781
C76A C 1.0954(8) 1.6508(9) 0.6452(7)
H59A H 1.0833 1.5998 0.6407
C77A C 1.2791(8) 1.9013(9) 0.6825(10)
H60A H 1.2578 1.8870 0.6384
H61A H 1.2642 1.9378 0.7135
H62A H 1.3318 1.9264 0.6890
C78A C 0.9322(8) 1.5835(8) 0.5428(7)
C79A C 0.9662(10) 1.5763(10) 0.4923(10)
H63A H 1.0156 1.5883 0.4995
C80A C 0.9307(14) 1.5523(10) 0.4307(11)
H64A H 0.9567 1.5494 0.3970
C81A C 0.8603(15) 1.5328(13) 0.4175(11)
C82A C 0.8243(10) 1.5355(9) 0.4648(10)
H65A H 0.7739 1.5189 0.4552
C83A C 0.8580(8) 1.5621(8) 0.5284(7)
H66A H 0.8313 1.5658 0.5616
C84A C 0.7602(16) 1.4819(14) 0.3412(11)
H67A H 0.7466 1.5244 0.3548
H68A H 0.7432 1.4497 0.2943
H69A H 0.7383 1.4493 0.3632
C85A C 0.5398(6) 1.1441(6) 0.5361(5)
C86A C 0.6598(5) 1.1906(6) 0.6202(6)
C87A C 0.6277(5) 1.0768(8) 0.4998(6)
C88A C 0.6197(6) 1.3171(7) 0.8363(6)
C89A C 0.5066(6) 1.3247(8) 0.7958(7)
C90A C 0.5171(6) 1.3168(7) 0.9058(5)
C91A C 0.6273(6) 1.0967(7) 0.8145(6)
C92A C 0.5038(6) 1.0138(6) 0.8435(6)
C93A C 0.5911(6) 0.9496(7) 0.8019(6)
C94A C 0.8370(5) 1.1786(6) 0.7381(5)
C95A C 0.8664(7) 1.0861(9) 0.6414(6)
C96A C 0.8847(7) 1.0838(9) 0.7523(6)
C97A C 0.5618(7) 1.1138(8) 0.3948(6)
H70A H 0.5251 1.0662 0.3924
C98A C 0.5684(8) 1.1362(8) 0.3462(6)
H71A H 0.5380 1.1075 0.3043
C99A C 0.6280(7) 1.2091(8) 0.3704(6)
H72A H 0.6464 1.2401 0.3480
C100A C 0.7912(6) 1.1981(6) 0.5348(5)
H73A H 0.7861 1.1619 0.5514
C101A C 0.8510(6) 1.2355(8) 0.5144(6)
H74A H 0.8945 1.2311 0.5150
C102A C 0.8350(6) 1.2804(7) 0.4929(6)
H75A H 0.8653 1.3124 0.4748
C103A C 0.6310(6) 1.3311(7) 0.6161(5)
H76A H 0.6026 1.3119 0.6428
C104A C 0.6545(6) 1.4066(7) 0.6209(6)
H77A H 0.6467 1.4483 0.6508
C105A C 0.6912(6) 1.4057(7) 0.5719(6)
H78A H 0.7131 1.4477 0.5607
C106A C 0.6735(6) 1.4486(8) 0.7914(6)
H79A H 0.6590 1.3992 0.7552
C107A C 0.7266(7) 1.5187(8) 0.7962(6)
H80A H 0.7549 1.5272 0.7656
C108A C 0.7287(7) 1.5737(8) 0.8558(6)
H81A H 0.7596 1.6285 0.8737
C109A C 0.6825(6) 1.4266(7) 0.9920(6)
H82A H 0.6716 1.3740 0.9818
C110A C 0.7315(7) 1.4923(8) 1.0467(6)
H83A H 0.7595 1.4941 1.0806
C111A C 0.7295(6) 1.5534(7) 1.0400(6)
H84A H 0.7575 1.6071 1.0698
C112A C 0.4705(6) 1.4498(7) 0.9073(5)
H85A H 0.4288 1.4002 0.8888
C113A C 0.4699(7) 1.5208(7) 0.9357(6)
H86A H 0.4288 1.5299 0.9393
C114A C 0.5402(7) 1.5751(7) 0.9575(6)
H87A H 0.5575 1.6302 0.9805
C115A C 0.7614(6) 1.0817(6) 0.8703(6)
H88A H 0.7572 1.0609 0.8248
C116A C 0.8236(7) 1.1143(7) 0.9152(7)
H89A H 0.8698 1.1205 0.9068
C117A C 0.8057(7) 1.1362(8) 0.9744(7)
H90A H 0.8377 1.1610 1.0150
C118A C 0.5331(6) 0.9336(7) 0.9285(6)
H91A H 0.4972 0.8930 0.8909
C119A C 0.5392(7) 0.9279(7) 0.9854(6)
H92A H 0.5106 0.8858 0.9949
C120A C 0.5976(7) 0.9988(8) 1.0249(6)
H93A H 0.6169 1.0149 1.0686
C121A C 0.5862(6) 1.1945(7) 0.9469(6)
H94A H 0.5575 1.1900 0.9119
C122A C 0.6056(7) 1.2527(7) 1.0101(7)
H95A H 0.5936 1.2948 1.0268
C123A C 0.6456(7) 1.2357(7) 1.0423(6)
H96A H 0.6668 1.2647 1.0871
C124A C 0.9343(8) 1.2712(10) 0.6665(8)
H97A H 0.8851 1.2439 0.6448
C125A C 0.9846(11) 1.3382(13) 0.6652(11)
H98A H 0.9773 1.3669 0.6450
C126A C 1.0488(9) 1.3544(12) 0.7003(10)
H99A H 1.0951 1.3960 0.7070
C127A C 1.0199(7) 1.0894(9) 0.6809(7)
H100A H 0.9830 1.0370 0.6574
C128A C 1.0932(7) 1.1127(10) 0.6878(7)
H101A H 1.1162 1.0803 0.6720
C129A C 1.1247(7) 1.1914(10) 0.7219(7)
H102A H 1.1751 1.2253 0.7333
C130A C 0.9532(7) 1.2663(8) 0.8725(6)
H103A H 0.9065 1.2390 0.8788
C131A C 1.0073(8) 1.3303(9) 0.9196(8)
H104A H 1.0072 1.3549 0.9641
C132A C 1.0621(7) 1.3521(9) 0.8897(8)
H105A H 1.1068 1.3984 0.9102
N1A N 0.4157(5) 1.1056(5) 0.6373(4)
N2A N 0.2900(4) 1.0504(5) 0.5704(4)
N3A N 0.2200(4) 1.0100(5) 0.5395(4)
H106A H 0.2048 0.9978 0.4991
N4A N -0.1286(5) 0.8140(6) 0.5166(6)
N5A N 0.3520(4) 1.0684(5) 0.4618(4)
N6A N 0.3915(4) 1.1883(5) 0.5714(4)
N7A N 0.4210(4) 1.2588(5) 0.6247(4)
H107A H 0.4367 1.2669 0.6638
N8A N 0.5196(6) 1.6354(6) 0.7860(5)
N9A N 0.7823(4) 1.3047(6) 0.8709(4)
N10A N 0.7857(5) 1.3385(5) 0.7713(4)
N11A N 0.7994(5) 1.3653(6) 0.7283(5)
H108A H 0.7743 1.3389 0.6883
N12A N 0.9658(6) 1.6078(8) 0.6057(6)
N13A N 0.4792(5) 1.1217(5) 0.5383(4)
N14A N 0.6698(4) 1.1937(5) 0.6707(5)
N15A N 0.6237(4) 1.0144(6) 0.4800(5)
N16A N 0.6460(5) 1.2791(6) 0.8088(5)
N17A N 0.4634(5) 1.2862(6) 0.7489(5)
N18A N 0.4785(6) 1.2722(6) 0.9231(5)
N19A N 0.6504(5) 1.1329(6) 0.7862(4)
N20A N 0.4430(6) 0.9950(6) 0.8297(5)
N21A N 0.5851(5) 0.8908(6) 0.7628(5)
N22A N 0.7890(4) 1.1903(5) 0.7463(4)
N23A N 0.8314(5) 1.0396(7) 0.5919(5)
N24A N 0.8622(7) 1.0356(8) 0.7707(6)
N25A N 0.6151(5) 1.1693(6) 0.4462(4)
N26A N 0.6551(5) 1.2280(6) 0.4304(5)
N27A N 0.7422(4) 1.2197(5) 0.5280(4)
N28A N 0.7692(5) 1.2714(6) 0.5020(4)
N29A N 0.6538(4) 1.2912(5) 0.5702(4)
N30A N 0.6913(5) 1.3367(6) 0.5425(4)
N31A N 0.6456(5) 1.4585(6) 0.8433(4)
N32A N 0.6810(5) 1.5382(6) 0.8839(5)
N33A N 0.6530(5) 1.4474(5) 0.9558(4)
N34A N 0.6824(5) 1.5273(5) 0.9856(5)
N35A N 0.5378(5) 1.4606(6) 0.9095(4)
N36A N 0.5810(5) 1.5387(5) 0.9414(4)
N37A N 0.7081(5) 1.0837(5) 0.9007(4)
N38A N 0.7355(5) 1.1167(5) 0.9652(5)
N39A N 0.5818(5) 1.0009(6) 0.9308(5)
N40A N 0.6229(5) 1.0415(6) 0.9929(5)
N41A N 0.6133(5) 1.1459(6) 0.9424(5)
N42A N 0.6511(5) 1.1724(5) 1.0022(5)
N43A N 0.9622(6) 1.2494(7) 0.7013(5)
N44A N 1.0339(6) 1.3022(8) 0.7225(6)
N45A N 1.0092(5) 1.1515(7) 0.7120(5)
N46A N 1.0753(5) 1.2132(7) 0.7365(5)
N47A N 0.9730(5) 1.2457(6) 0.8158(5)
N48A N 1.0452(6) 1.2999(6) 0.8275(6)
O1A O -0.2833(8) 0.7462(11) 0.6944(8)
O2A O -0.3012(5) 0.6877(8) 0.2767(6)
O3A O 0.3065(5) 1.7300(6) 0.7981(5)
O4A O 0.7426(11) 1.8182(10) 1.0037(7)
O5A O 1.2548(5) 1.8320(6) 0.6920(6)
O6A O 0.8327(11) 1.5128(9) 0.3565(7)
Fe1A Fe 0.63814(8) 1.17923(9) 0.53471(7)
Fe2A Fe 0.57861(8) 1.38700(9) 0.87481(8)
Fe3A Fe 0.60326(9) 1.04745(10) 0.87097(8)
Fe4A Fe 0.92203(9) 1.16459(11) 0.72630(8)
Co1A Co 0.38451(7) 1.08586(9) 0.54918(7)
Co2A Co 0.71285(7) 1.23031(9) 0.76879(7)
B1A B 1.0798(8) 1.2946(11) 0.7693(8)
H109A H 1.1309 1.3365 0.7824
B2A B 0.6860(8) 1.1266(8) 1.0129(7)
H110A H 0.7125 1.1519 1.0587
B3A B 0.7196(7) 1.2997(9) 0.4820(7)
H111A H 0.7460 1.3387 0.4654
B4A B 0.6630(7) 1.5662(8) 0.9507(7)
H112A H 0.6903 1.6245 0.9754
C133 C 0.8880(14) 0.7333(14) 0.7178(16)
H113 H 0.9231 0.7158 0.6990
H114 H 0.9038 0.7612 0.7650
H115 H 0.8845 0.7685 0.7015
C134 C 0.8168(14) 0.6647(17) 0.700(2)
N49 N 0.7597(15) 0.6094(15) 0.6822(16)
C135 C 0.5171(10) 0.2851(11) 0.4245(12)
H119 H 0.5128 0.2371 0.3887
H120 H 0.4714 0.2875 0.4209
H121 H 0.5282 0.2847 0.4657
C136 C 0.5761(11) 0.3548(12) 0.4220(12)
N50 N 0.6242(9) 0.4127(12) 0.4240(10)
C137 C 0.4129(10) 0.4805(12) 0.4160(11)
H122 H 0.4592 0.5116 0.4084
H123 H 0.3959 0.5157 0.4457
H124 H 0.3775 0.4461 0.3749
C138 C 0.4222(13) 0.4324(14) 0.4448(12)
N51 N 0.4288(12) 0.3867(16) 0.4589(14)
C139 C 0.1242(12) 0.6200(16) 0.8038(15)
H125 H 0.0872 0.5847 0.7638
H126 H 0.1648 0.6596 0.7967
H127 H 0.1036 0.6458 0.8379
C140 C 0.1504(14) 0.5736(16) 0.8238(14)
N52 N 0.1704(10) 0.5377(13) 0.8431(8)
O7 O 0.0534(12) 0.111(2) -0.1612(13)
O8 O -0.1082(15) 0.1915(19) 0.1527(9)
O9 O 0.7994(14) 0.9677(16) 0.2028(13)
O10 O 0.6413(13) 0.9033(12) 0.1161(10)
O11 O 0.3027(11) 1.0896(11) 0.0999(11)
O12 O -0.3001(15) 0.7847(16) 0.1786(16)
O13 O -0.0223(10) 0.3527(11) 0.0789(7)
O14 O 0.2370(11) 0.0331(10) 0.0170(13)
O15 O 0.2374(16) 0.2535(9) -0.1378(10)
O16 O 0.033(2) 0.279(2) 0.0566(16)
O17 O 0.007(2) -0.064(2) -0.2296(15)
O18 O -0.118(2) -0.0759(17) -0.155(2)
O19 O -0.0084(16) 0.091(2) -0.042(3)
O20 O 0.111(2) 0.2516(19) 0.140(3)
loop_
_geom_bond_atom_site_label_1
_geom_bond_atom_site_label_2
_geom_bond_site_symmetry_1
_geom_bond_site_symmetry_2
C1 H1 1_555 1_555
C2 C1 1_555 1_555
H2 C2 1_555 1_555
C3 C2 1_555 1_555
H3 C3 1_555 1_555
C4 C3 1_555 1_555
H4 C4 1_555 1_555
C5 C4 1_555 1_555
C6 C5 1_555 1_555
C7 C6 1_555 1_555
H5 C7 1_555 1_555
C8 C7 1_555 1_555
C9 C8 1_555 1_555
C10 C9 1_555 1_555
H6 C10 1_555 1_555
C11 C10 1_555 1_555
H7 C11 1_555 1_555
C12 C11 1_555 1_555
C13 C12 1_555 1_555
H8 C13 1_555 1_555
C14 C9 1_555 1_555
H9 C14 1_555 1_555
C15 C16 1_555 1_555
C16 H10 1_555 1_555
C17 C16 1_555 1_555
H11 C17 1_555 1_555
C18 C17 1_555 1_555
C19 C18 1_555 1_555
H12 C19 1_555 1_555
C20 C15 1_555 1_555
H13 C20 1_555 1_555
C21 H14 1_555 1_555
H15 C21 1_555 1_555
H16 C21 1_555 1_555
C22 C23 1_555 1_555
C23 H17 1_555 1_555
C24 C23 1_555 1_555
H18 C24 1_555 1_555
C25 C24 1_555 1_555
C26 C25 1_555 1_555
H19 C26 1_555 1_555
C27 C22 1_555 1_555
H20 C27 1_555 1_555
C28 H21 1_555 1_555
H22 C28 1_555 1_555
H23 C28 1_555 1_555
C29 H24 1_555 1_555
C30 C29 1_555 1_555
H25 C30 1_555 1_555
C31 C30 1_555 1_555
H26 C31 1_555 1_555
C32 C31 1_555 1_555
H27 C32 1_555 1_555
C33 C32 1_555 1_555
C34 C33 1_555 1_555
C35 C34 1_555 1_555
H28 C35 1_555 1_555
C36 C35 1_555 1_555
C37 C36 1_555 1_555
C38 C37 1_555 1_555
H29 C38 1_555 1_555
C39 C38 1_555 1_555
H30 C39 1_555 1_555
C40 C39 1_555 1_555
C41 C40 1_555 1_555
H31 C41 1_555 1_555
C42 C37 1_555 1_555
H32 C42 1_555 1_555
C43 C44 1_555 1_555
C44 H33 1_555 1_555
C45 C44 1_555 1_555
H34 C45 1_555 1_555
C46 C45 1_555 1_555
C47 C46 1_555 1_555
H35 C47 1_555 1_555
C48 C43 1_555 1_555
H36 C48 1_555 1_555
C49 H37 1_555 1_555
H38 C49 1_555 1_555
H39 C49 1_555 1_555
C50 C51 1_555 1_555
C51 H40 1_555 1_555
C52 C51 1_555 1_555
H41 C52 1_555 1_555
C53 C52 1_555 1_555
C54 C53 1_555 1_555
H42 C54 1_555 1_555
C55 C50 1_555 1_555
H43 C55 1_555 1_555
C56 H44 1_555 1_555
H45 C56 1_555 1_555
H46 C56 1_555 1_555
C57 H47 1_555 1_555
C58 C57 1_555 1_555
H48 C58 1_555 1_555
C59 C58 1_555 1_555
H49 C59 1_555 1_555
C60 C59 1_555 1_555
H50 C60 1_555 1_555
C61 C60 1_555 1_555
C62 C61 1_555 1_555
C63 C62 1_555 1_555
H51 C63 1_555 1_555
C64 C63 1_555 1_555
C65 C64 1_555 1_555
C66 C65 1_555 1_555
H52 C66 1_555 1_555
C67 C66 1_555 1_555
H53 C67 1_555 1_555
C68 C67 1_555 1_555
C69 C68 1_555 1_555
H54 C69 1_555 1_555
C70 C65 1_555 1_555
H55 C70 1_555 1_555
C71 C72 1_555 1_555
C72 H56 1_555 1_555
C73 C72 1_555 1_555
H57 C73 1_555 1_555
C74 C73 1_555 1_555
C75 C74 1_555 1_555
H58 C75 1_555 1_555
C76 C71 1_555 1_555
H59 C76 1_555 1_555
C77 H60 1_555 1_555
H61 C77 1_555 1_555
H62 C77 1_555 1_555
C78 C79 1_555 1_555
C79 H63 1_555 1_555
C80 C79 1_555 1_555
H64 C80 1_555 1_555
C81 C80 1_555 1_555
C82 C81 1_555 1_555
H65 C82 1_555 1_555
C83 C78 1_555 1_555
H66 C83 1_555 1_555
C84 H67 1_555 1_555
H68 C84 1_555 1_555
H69 C84 1_555 1_555
C85 N13 1_555 1_555
C86 N14 1_555 1_555
C87 N15 1_555 1_555
C88 N16 1_555 1_555
C89 N17 1_555 1_555
C90 N18 1_555 1_555
C91 N19 1_555 1_555
C92 N20 1_555 1_555
C93 N21 1_555 1_555
C94 N22 1_555 1_555
C95 N23 1_555 1_555
C96 N24 1_555 1_555
C97 H70 1_555 1_555
C98 C97 1_555 1_555
H71 C98 1_555 1_555
C99 C98 1_555 1_555
H72 C99 1_555 1_555
C100 H73 1_555 1_555
C101 C100 1_555 1_555
H74 C101 1_555 1_555
C102 C101 1_555 1_555
H75 C102 1_555 1_555
C103 H76 1_555 1_555
C104 C103 1_555 1_555
H77 C104 1_555 1_555
C105 C104 1_555 1_555
H78 C105 1_555 1_555
C106 H79 1_555 1_555
C107 C106 1_555 1_555
H80 C107 1_555 1_555
C108 C107 1_555 1_555
H81 C108 1_555 1_555
C109 H82 1_555 1_555
C110 C109 1_555 1_555
H83 C110 1_555 1_555
C111 C110 1_555 1_555
H84 C111 1_555 1_555
C112 H85 1_555 1_555
C113 C112 1_555 1_555
H86 C113 1_555 1_555
C114 C113 1_555 1_555
H87 C114 1_555 1_555
C115 H88 1_555 1_555
C116 C115 1_555 1_555
H89 C116 1_555 1_555
C117 C116 1_555 1_555
H90 C117 1_555 1_555
C118 H91 1_555 1_555
C119 C118 1_555 1_555
H92 C119 1_555 1_555
C120 C119 1_555 1_555
H93 C120 1_555 1_555
C121 H94 1_555 1_555
C122 C121 1_555 1_555
H95 C122 1_555 1_555
C123 C122 1_555 1_555
H96 C123 1_555 1_555
C124 H97 1_555 1_555
C125 C124 1_555 1_555
H98 C125 1_555 1_555
C126 C125 1_555 1_555
H99 C126 1_555 1_555
C127 H100 1_555 1_555
C128 C127 1_555 1_555
H101 C128 1_555 1_555
C129 C128 1_555 1_555
H102 C129 1_555 1_555
C130 H103 1_555 1_555
C131 C130 1_555 1_555
H104 C131 1_555 1_555
C132 C131 1_555 1_555
H105 C132 1_555 1_555
N1 C1 1_555 1_555
N2 C6 1_555 1_555
N3 C8 1_555 1_555
H106 N3 1_555 1_555
N4 C12 1_555 1_555
N5 C29 1_555 1_555
N6 C34 1_555 1_555
N7 C36 1_555 1_555
H107 N7 1_555 1_555
N8 C40 1_555 1_555
N9 C57 1_555 1_555
N10 C62 1_555 1_555
N11 C64 1_555 1_555
H108 N11 1_555 1_555
N12 C68 1_555 1_555
N13 Co1 1_555 1_555
N14 Co2 1_555 1_555
N15 Co1A 1_555 1_555
N16 Co2 1_555 1_555
N19 Co2 1_555 1_555
N22 Co2 1_555 1_555
N25 C97 1_555 1_555
N26 C99 1_555 1_555
N27 C100 1_555 1_555
N28 C102 1_555 1_555
N29 C103 1_555 1_555
N30 C105 1_555 1_555
N31 C106 1_555 1_555
N32 C108 1_555 1_555
N33 C109 1_555 1_555
N34 C111 1_555 1_555
N35 C112 1_555 1_555
N36 C114 1_555 1_555
N37 C115 1_555 1_555
N38 C117 1_555 1_555
N39 C118 1_555 1_555
N40 C120 1_555 1_555
N41 C121 1_555 1_555
N42 C123 1_555 1_555
N43 C124 1_555 1_555
N44 C126 1_555 1_555
N45 C127 1_555 1_555
N46 C129 1_555 1_555
N47 C130 1_555 1_555
N48 C132 1_555 1_555
O1 C18 1_555 1_555
O2 C25 1_555 1_555
O3 C46 1_555 1_555
O4 C53 1_555 1_555
O5 C74 1_555 1_555
O6 C81 1_555 1_555
Fe1 C85 1_555 1_555
Fe2 C88 1_555 1_555
Fe3 C91 1_555 1_555
Fe4 C94 1_555 1_555
Co1 N1 1_555 1_555
Co2 N9 1_555 1_555
B1 N44 1_555 1_555
H109 B1 1_555 1_555
B2 N38 1_555 1_555
H110 B2 1_555 1_555
B3 N26 1_555 1_555
H111 B3 1_555 1_555
B4 N32 1_555 1_555
H112 B4 1_555 1_555
C133 H113 1_555 1_555
H114 C133 1_555 1_555
H115 C133 1_555 1_555
C134 C133 1_555 1_555
N49 C134 1_555 1_555
C135 H119 1_555 1_555
H120 C135 1_555 1_555
H121 C135 1_555 1_555
C136 C135 1_555 1_555
N50 C136 1_555 1_555
C137 H122 1_555 1_555
H123 C137 1_555 1_555
H124 C137 1_555 1_555
C138 C137 1_555 1_555
N51 C138 1_555 1_555
C139 H125 1_555 1_555
H126 C139 1_555 1_555
H127 C139 1_555 1_555
C140 C139 1_555 1_555
N52 C140 1_555 1_555
C1A H1A 1_555 1_555
C2A C1A 1_555 1_555
H2A C2A 1_555 1_555
C3A C2A 1_555 1_555
H3A C3A 1_555 1_555
C4A C3A 1_555 1_555
H4A C4A 1_555 1_555
C5A C4A 1_555 1_555
C6A C5A 1_555 1_555
C7A C6A 1_555 1_555
H5A C7A 1_555 1_555
C8A C7A 1_555 1_555
C9A C8A 1_555 1_555
C10A C9A 1_555 1_555
H6A C10A 1_555 1_555
C11A C10A 1_555 1_555
H7A C11A 1_555 1_555
C12A C11A 1_555 1_555
C13A C12A 1_555 1_555
H8A C13A 1_555 1_555
C14A C9A 1_555 1_555
H9A C14A 1_555 1_555
C15A C16A 1_555 1_555
C16A H10A 1_555 1_555
C17A C16A 1_555 1_555
H11A C17A 1_555 1_555
C18A C17A 1_555 1_555
C19A C18A 1_555 1_555
H12A C19A 1_555 1_555
C20A C15A 1_555 1_555
H13A C20A 1_555 1_555
C21A H14A 1_555 1_555
H15A C21A 1_555 1_555
H16A C21A 1_555 1_555
C22A C23A 1_555 1_555
C23A H17A 1_555 1_555
C24A C23A 1_555 1_555
H18A C24A 1_555 1_555
C25A C24A 1_555 1_555
C26A C25A 1_555 1_555
H19A C26A 1_555 1_555
C27A C22A 1_555 1_555
H20A C27A 1_555 1_555
C28A H21A 1_555 1_555
H22A C28A 1_555 1_555
H23A C28A 1_555 1_555
C29A H24A 1_555 1_555
C30A C29A 1_555 1_555
H25A C30A 1_555 1_555
C31A C30A 1_555 1_555
H26A C31A 1_555 1_555
C32A C31A 1_555 1_555
H27A C32A 1_555 1_555
C33A C32A 1_555 1_555
C34A C33A 1_555 1_555
C35A C34A 1_555 1_555
H28A C35A 1_555 1_555
C36A C35A 1_555 1_555
C37A C36A 1_555 1_555
C38A C37A 1_555 1_555
H29A C38A 1_555 1_555
C39A C38A 1_555 1_555
H30A C39A 1_555 1_555
C40A C39A 1_555 1_555
C41A C40A 1_555 1_555
H31A C41A 1_555 1_555
C42A C37A 1_555 1_555
H32A C42A 1_555 1_555
C43A C44A 1_555 1_555
C44A H33A 1_555 1_555
C45A C44A 1_555 1_555
H34A C45A 1_555 1_555
C46A C45A 1_555 1_555
C47A C46A 1_555 1_555
H35A C47A 1_555 1_555
C48A C43A 1_555 1_555
H36A C48A 1_555 1_555
C49A H37A 1_555 1_555
H38A C49A 1_555 1_555
H39A C49A 1_555 1_555
C50A C51A 1_555 1_555
C51A H40A 1_555 1_555
C52A C51A 1_555 1_555
H41A C52A 1_555 1_555
C53A C52A 1_555 1_555
C54A C53A 1_555 1_555
H42A C54A 1_555 1_555
C55A C50A 1_555 1_555
H43A C55A 1_555 1_555
C56A H44A 1_555 1_555
H45A C56A 1_555 1_555
H46A C56A 1_555 1_555
C57A H47A 1_555 1_555
C58A C57A 1_555 1_555
H48A C58A 1_555 1_555
C59A C58A 1_555 1_555
H49A C59A 1_555 1_555
C60A C59A 1_555 1_555
H50A C60A 1_555 1_555
C61A C60A 1_555 1_555
C62A C61A 1_555 1_555
C63A C62A 1_555 1_555
H51A C63A 1_555 1_555
C64A C63A 1_555 1_555
C65A C64A 1_555 1_555
C66A C65A 1_555 1_555
H52A C66A 1_555 1_555
C67A C66A 1_555 1_555
H53A C67A 1_555 1_555
C68A C67A 1_555 1_555
C69A C68A 1_555 1_555
H54A C69A 1_555 1_555
C70A C65A 1_555 1_555
H55A C70A 1_555 1_555
C71A C72A 1_555 1_555
C72A H56A 1_555 1_555
C73A C72A 1_555 1_555
H57A C73A 1_555 1_555
C74A C73A 1_555 1_555
C75A C74A 1_555 1_555
H58A C75A 1_555 1_555
C76A C71A 1_555 1_555
H59A C76A 1_555 1_555
C77A H60A 1_555 1_555
H61A C77A 1_555 1_555
H62A C77A 1_555 1_555
C78A C79A 1_555 1_555
C79A H63A 1_555 1_555
C80A C79A 1_555 1_555
H64A C80A 1_555 1_555
C81A C80A 1_555 1_555
C82A C81A 1_555 1_555
H65A C82A 1_555 1_555
C83A C78A 1_555 1_555
H66A C83A 1_555 1_555
C84A H67A 1_555 1_555
H68A C84A 1_555 1_555
H69A C84A 1_555 1_555
C85A N13A 1_555 1_555
C86A N14A 1_555 1_555
C87A N15A 1_555 1_555
C88A N16A 1_555 1_555
C89A N17A 1_555 1_555
C90A N18A 1_555 1_555
C91A N19A 1_555 1_555
C92A N20A 1_555 1_555
C93A N21A 1_555 1_555
C94A N22A 1_555 1_555
C95A N23A 1_555 1_555
C96A N24A 1_555 1_555
C97A H70A 1_555 1_555
C98A C97A 1_555 1_555
H71A C98A 1_555 1_555
C99A C98A 1_555 1_555
H72A C99A 1_555 1_555
C100A H73A 1_555 1_555
C101A C100A 1_555 1_555
H74A C101A 1_555 1_555
C102A C101A 1_555 1_555
H75A C102A 1_555 1_555
C103A H76A 1_555 1_555
C104A C103A 1_555 1_555
H77A C104A 1_555 1_555
C105A C104A 1_555 1_555
H78A C105A 1_555 1_555
C106A H79A 1_555 1_555
C107A C106A 1_555 1_555
H80A C107A 1_555 1_555
C108A C107A 1_555 1_555
H81A C108A 1_555 1_555
C109A H82A 1_555 1_555
C110A C109A 1_555 1_555
H83A C110A 1_555 1_555
C111A C110A 1_555 1_555
H84A C111A 1_555 1_555
C112A H85A 1_555 1_555
C113A C112A 1_555 1_555
H86A C113A 1_555 1_555
C114A C113A 1_555 1_555
H87A C114A 1_555 1_555
C115A H88A 1_555 1_555
C116A C115A 1_555 1_555
H89A C116A 1_555 1_555
C117A C116A 1_555 1_555
H90A C117A 1_555 1_555
C118A H91A 1_555 1_555
C119A C118A 1_555 1_555
H92A C119A 1_555 1_555
C120A C119A 1_555 1_555
H93A C120A 1_555 1_555
C121A H94A 1_555 1_555
C122A C121A 1_555 1_555
H95A C122A 1_555 1_555
C123A C122A 1_555 1_555
H96A C123A 1_555 1_555
C124A H97A 1_555 1_555
C125A C124A 1_555 1_555
H98A C125A 1_555 1_555
C126A C125A 1_555 1_555
H99A C126A 1_555 1_555
C127A H100A 1_555 1_555
C128A C127A 1_555 1_555
H101A C128A 1_555 1_555
C129A C128A 1_555 1_555
H102A C129A 1_555 1_555
C130A H103A 1_555 1_555
C131A C130A 1_555 1_555
H104A C131A 1_555 1_555
C132A C131A 1_555 1_555
H105A C132A 1_555 1_555
N1A C1A 1_555 1_555
N2A C6A 1_555 1_555
N3A C8A 1_555 1_555
H106A N3A 1_555 1_555
N4A C12A 1_555 1_555
N5A C29A 1_555 1_555
N6A C34A 1_555 1_555
N7A C36A 1_555 1_555
H107A N7A 1_555 1_555
N8A C40A 1_555 1_555
N9A C57A 1_555 1_555
N10A C62A 1_555 1_555
N11A C64A 1_555 1_555
H108A N11A 1_555 1_555
N12A C68A 1_555 1_555
N13A Co1A 1_555 1_555
N14A Co2A 1_555 1_555
N15A Co1 1_555 1_555
N16A Co2A 1_555 1_555
N19A Co2A 1_555 1_555
N22A Co2A 1_555 1_555
N25A C97A 1_555 1_555
N26A C99A 1_555 1_555
N27A C100A 1_555 1_555
N28A C102A 1_555 1_555
N29A C103A 1_555 1_555
N30A C105A 1_555 1_555
N31A C106A 1_555 1_555
N32A C108A 1_555 1_555
N33A C109A 1_555 1_555
N34A C111A 1_555 1_555
N35A C112A 1_555 1_555
N36A C114A 1_555 1_555
N37A C115A 1_555 1_555
N38A C117A 1_555 1_555
N39A C118A 1_555 1_555
N40A C120A 1_555 1_555
N41A C121A 1_555 1_555
N42A C123A 1_555 1_555
N43A C124A 1_555 1_555
N44A C126A 1_555 1_555
N45A C127A 1_555 1_555
N46A C129A 1_555 1_555
N47A C130A 1_555 1_555
N48A C132A 1_555 1_555
O1A C18A 1_555 1_555
O2A C25A 1_555 1_555
O3A C46A 1_555 1_555
O4A C53A 1_555 1_555
O5A C74A 1_555 1_555
O6A C81A 1_555 1_555
Fe1A C85A 1_555 1_555
Fe2A C88A 1_555 1_555
Fe3A C91A 1_555 1_555
Fe4A C94A 1_555 1_555
Co1A N1A 1_555 1_555
Co2A N9A 1_555 1_555
B1A N44A 1_555 1_555
H109A B1A 1_555 1_555
B2A N38A 1_555 1_555
H110A B2A 1_555 1_555
B3A N26A 1_555 1_555
H111A B3A 1_555 1_555
B4A N32A 1_555 1_555
H112A B4A 1_555 1_555
C5 N1 1_555 1_555
C13 C14 1_555 1_555
C15 N4 1_555 1_555
C19 C20 1_555 1_555
C21 O1 1_555 1_555
C22 N4 1_555 1_555
C26 C27 1_555 1_555
C28 O2 1_555 1_555
C33 N5 1_555 1_555
C41 C42 1_555 1_555
C43 N8 1_555 1_555
C47 C48 1_555 1_555
C49 O3 1_555 1_555
C50 N8 1_555 1_555
C54 C55 1_555 1_555
C56 O4 1_555 1_555
C61 N9 1_555 1_555
C69 C70 1_555 1_555
C71 N12 1_555 1_555
C75 C76 1_555 1_555
C77 O5 1_555 1_555
C78 N12 1_555 1_555
C82 C83 1_555 1_555
C84 O6 1_555 1_555
C86 Fe1 1_555 1_555
C87 Fe1 1_555 1_555
C89 Fe2 1_555 1_555
C90 Fe2 1_555 1_555
C92 Fe3 1_555 1_555
C93 Fe3 1_555 1_555
C95 Fe4 1_555 1_555
C96 Fe4 1_555 1_555
N2 N3 1_555 1_555
N2 Co1 1_555 1_555
N5 Co1 1_555 1_555
N6 N7 1_555 1_555
N6 Co1 1_555 1_555
N10 N11 1_555 1_555
N10 Co2 1_555 1_555
N25 N26 1_555 1_555
N25 Fe1 1_555 1_555
N27 N28 1_555 1_555
N27 Fe1 1_555 1_555
N28 B3 1_555 1_555
N29 N30 1_555 1_555
N29 Fe1 1_555 1_555
N30 B3 1_555 1_555
N31 N32 1_555 1_555
N31 Fe2 1_555 1_555
N33 N34 1_555 1_555
N33 Fe2 1_555 1_555
N34 B4 1_555 1_555
N35 N36 1_555 1_555
N35 Fe2 1_555 1_555
N36 B4 1_555 1_555
N37 N38 1_555 1_555
N37 Fe3 1_555 1_555
N39 N40 1_555 1_555
N39 Fe3 1_555 1_555
N40 B2 1_555 1_555
N41 N42 1_555 1_555
N41 Fe3 1_555 1_555
N42 B2 1_555 1_555
N43 N44 1_555 1_555
N43 Fe4 1_555 1_555
N45 N46 1_555 1_555
N45 Fe4 1_555 1_555
N46 B1 1_555 1_555
N47 N48 1_555 1_555
N47 Fe4 1_555 1_555
N48 B1 1_555 1_555
C5A N1A 1_555 1_555
C13A C14A 1_555 1_555
C15A N4A 1_555 1_555
C19A C20A 1_555 1_555
C21A O1A 1_555 1_555
C22A N4A 1_555 1_555
C26A C27A 1_555 1_555
C28A O2A 1_555 1_555
C33A N5A 1_555 1_555
C41A C42A 1_555 1_555
C43A N8A 1_555 1_555
C47A C48A 1_555 1_555
C49A O3A 1_555 1_555
C50A N8A 1_555 1_555
C54A C55A 1_555 1_555
C56A O4A 1_555 1_555
C61A N9A 1_555 1_555
C69A C70A 1_555 1_555
C71A N12A 1_555 1_555
C75A C76A 1_555 1_555
C77A O5A 1_555 1_555
C78A N12A 1_555 1_555
C82A C83A 1_555 1_555
C84A O6A 1_555 1_555
C86A Fe1A 1_555 1_555
C87A Fe1A 1_555 1_555
C89A Fe2A 1_555 1_555
C90A Fe2A 1_555 1_555
C92A Fe3A 1_555 1_555
C93A Fe3A 1_555 1_555
C95A Fe4A 1_555 1_555
C96A Fe4A 1_555 1_555
N2A N3A 1_555 1_555
N2A Co1A 1_555 1_555
N5A Co1A 1_555 1_555
N6A N7A 1_555 1_555
N6A Co1A 1_555 1_555
N10A N11A 1_555 1_555
N10A Co2A 1_555 1_555
N25A N26A 1_555 1_555
N25A Fe1A 1_555 1_555
N27A N28A 1_555 1_555
N27A Fe1A 1_555 1_555
N28A B3A 1_555 1_555
N29A N30A 1_555 1_555
N29A Fe1A 1_555 1_555
N30A B3A 1_555 1_555
N31A N32A 1_555 1_555
N31A Fe2A 1_555 1_555
N33A N34A 1_555 1_555
N33A Fe2A 1_555 1_555
N34A B4A 1_555 1_555
N35A N36A 1_555 1_555
N35A Fe2A 1_555 1_555
N36A B4A 1_555 1_555
N37A N38A 1_555 1_555
N37A Fe3A 1_555 1_555
N39A N40A 1_555 1_555
N39A Fe3A 1_555 1_555
N40A B2A 1_555 1_555
N41A N42A 1_555 1_555
N41A Fe3A 1_555 1_555
N42A B2A 1_555 1_555
N43A N44A 1_555 1_555
N43A Fe4A 1_555 1_555
N45A N46A 1_555 1_555
N45A Fe4A 1_555 1_555
N46A B1A 1_555 1_555
N47A N48A 1_555 1_555
N47A Fe4A 1_555 1_555
N48A B1A 1_555 1_555

#END
