# generated using pymatgen
data_Cu8H200Au3(C47N9)4
_symmetry_space_group_name_H-M   'P 1'
_cell_length_a   23.05400000
_cell_length_b   23.09340000
_cell_length_c   47.66980000
_cell_angle_alpha   90.00000000
_cell_angle_beta   90.00000000
_cell_angle_gamma   90.24900000
_symmetry_Int_Tables_number   1
_chemical_formula_structural   Cu8H200Au3(C47N9)4
_chemical_formula_sum   'Cu16 H400 Au6 C376 N72'
_cell_volume   25378.93512077
_cell_formula_units_Z   2
loop_
 _symmetry_equiv_pos_site_id
 _symmetry_equiv_pos_as_xyz
  1  'x, y, z'
loop_
 _atom_site_type_symbol
 _atom_site_label
 _atom_site_symmetry_multiplicity
 _atom_site_fract_x
 _atom_site_fract_y
 _atom_site_fract_z
 _atom_site_occupancy
  Cu  Cu1  1  0.497200  0.888000  0.822100  1
  Cu  Cu2  1  0.997200  0.388000  0.177900  1
  Cu  Cu3  1  0.711100  0.633900  0.820200  1
  Cu  Cu4  1  0.211100  0.133900  0.179800  1
  Cu  Cu5  1  0.463400  0.429300  0.807420  1
  Cu  Cu6  1  0.963400  0.929300  0.192580  1
  Cu  Cu7  1  0.241300  0.677700  0.811220  1
  Cu  Cu8  1  0.741300  0.177700  0.188780  1
  Cu  Cu9  1  0.326400  0.818000  0.073700  1
  Cu  Cu10  1  0.826400  0.318000  0.926300  1
  Cu  Cu11  1  0.651300  0.760500  0.076780  1
  Cu  Cu12  1  0.151300  0.260500  0.923220  1
  Cu  Cu13  1  0.593500  0.434600  0.066820  1
  Cu  Cu14  1  0.093500  0.934600  0.933180  1
  Cu  Cu15  1  0.263900  0.495200  0.062710  1
  Cu  Cu16  1  0.763900  0.995200  0.937290  1
  H  H17  1  0.357900  0.902300  0.106800  1
  H  H18  1  0.857900  0.402300  0.893200  1
  H  H19  1  0.410000  0.909900  0.128700  1
  H  H20  1  0.910000  0.409900  0.871300  1
  H  H21  1  0.344300  0.912100  0.139400  1
  H  H22  1  0.844300  0.412100  0.860600  1
  H  H23  1  0.373400  0.676900  0.142800  1
  H  H24  1  0.873400  0.176900  0.857200  1
  H  H25  1  0.405700  0.736000  0.179300  1
  H  H26  1  0.905700  0.236000  0.820700  1
  H  H27  1  0.401000  0.835600  0.173600  1
  H  H28  1  0.901000  0.335600  0.826400  1
  H  H29  1  0.339300  0.662700  0.094800  1
  H  H30  1  0.839300  0.162700  0.905200  1
  H  H31  1  0.275200  0.625100  0.068500  1
  H  H32  1  0.775200  0.125100  0.931500  1
  H  H33  1  0.262300  0.604800  0.984300  1
  H  H34  1  0.762300  0.104800  0.015700  1
  H  H35  1  0.337600  0.749200  0.016400  1
  H  H36  1  0.837600  0.249200  0.983600  1
  H  H37  1  0.199700  0.542600  0.999800  1
  H  H38  1  0.699700  0.042600  0.000200  1
  H  H39  1  0.151600  0.316900  0.036800  1
  H  H40  1  0.651600  0.816900  0.963200  1
  H  H41  1  0.117400  0.358100  0.998200  1
  H  H42  1  0.617400  0.858100  0.001800  1
  H  H43  1  0.128300  0.462500  0.988300  1
  H  H44  1  0.628300  0.962500  0.011700  1
  H  H45  1  0.261400  0.386700  0.082800  1
  H  H46  1  0.761400  0.886700  0.917200  1
  H  H47  1  0.260300  0.327800  0.065100  1
  H  H48  1  0.760300  0.827800  0.934900  1
  H  H49  1  0.209100  0.341700  0.086700  1
  H  H50  1  0.709100  0.841700  0.913300  1
  H  H51  1  0.396900  0.745700  0.976500  1
  H  H52  1  0.896900  0.245700  0.023500  1
  H  H53  1  0.415900  0.774700  0.930400  1
  H  H54  1  0.915900  0.274700  0.069600  1
  H  H55  1  0.260900  0.708500  0.905800  1
  H  H56  1  0.760900  0.208500  0.094200  1
  H  H57  1  0.241900  0.679500  0.951900  1
  H  H58  1  0.741900  0.179500  0.048100  1
  H  H59  1  0.395300  0.842500  0.897900  1
  H  H60  1  0.895300  0.342500  0.102100  1
  H  H61  1  0.377300  0.822400  0.813900  1
  H  H62  1  0.877300  0.322400  0.186100  1
  H  H63  1  0.307400  0.704200  0.867000  1
  H  H64  1  0.807400  0.204200  0.133000  1
  H  H65  1  0.398500  0.936400  0.881100  1
  H  H66  1  0.898500  0.436400  0.118900  1
  H  H67  1  0.573900  0.089000  0.841900  1
  H  H68  1  0.073900  0.589000  0.158100  1
  H  H69  1  0.508200  0.106600  0.878300  1
  H  H70  1  0.008200  0.606600  0.121700  1
  H  H71  1  0.441100  0.039200  0.889500  1
  H  H72  1  0.941100  0.539200  0.110500  1
  H  H73  1  0.574300  0.952100  0.802300  1
  H  H74  1  0.074300  0.452100  0.197700  1
  H  H75  1  0.622700  0.993500  0.815800  1
  H  H76  1  0.122700  0.493500  0.184200  1
  H  H77  1  0.576400  0.019300  0.794100  1
  H  H78  1  0.076400  0.519300  0.205900  1
  H  H79  1  0.377500  0.746500  0.791000  1
  H  H80  1  0.877500  0.246500  0.209000  1
  H  H81  1  0.257300  0.601800  0.712600  1
  H  H82  1  0.757300  0.101800  0.287400  1
  H  H83  1  0.343500  0.661700  0.701900  1
  H  H84  1  0.843500  0.161700  0.298100  1
  H  H85  1  0.382000  0.722000  0.742400  1
  H  H86  1  0.882000  0.222000  0.257600  1
  H  H87  1  0.166900  0.617500  0.769800  1
  H  H88  1  0.666900  0.117500  0.230200  1
  H  H89  1  0.197200  0.566200  0.752700  1
  H  H90  1  0.697200  0.066200  0.247300  1
  H  H91  1  0.161400  0.614900  0.736400  1
  H  H92  1  0.661400  0.114900  0.263600  1
  H  H93  1  0.732300  0.728900  0.108100  1
  H  H94  1  0.232300  0.228900  0.891900  1
  H  H95  1  0.750000  0.673000  0.125900  1
  H  H96  1  0.250000  0.173000  0.874100  1
  H  H97  1  0.751500  0.735600  0.140200  1
  H  H98  1  0.251500  0.235600  0.859800  1
  H  H99  1  0.516400  0.695300  0.149300  1
  H  H100  1  0.016400  0.195300  0.850700  1
  H  H101  1  0.582600  0.660500  0.182300  1
  H  H102  1  0.082600  0.160500  0.817700  1
  H  H103  1  0.682300  0.665900  0.173300  1
  H  H104  1  0.182300  0.165900  0.826700  1
  H  H105  1  0.498000  0.739000  0.103300  1
  H  H106  1  0.998000  0.239000  0.896700  1
  H  H107  1  0.453200  0.812000  0.079000  1
  H  H108  1  0.953200  0.312000  0.921000  1
  H  H109  1  0.426200  0.835200  0.995800  1
  H  H110  1  0.926200  0.335200  0.004200  1
  H  H111  1  0.577500  0.766700  0.023200  1
  H  H112  1  0.077500  0.266700  0.976800  1
  H  H113  1  0.375600  0.900700  0.014000  1
  H  H114  1  0.875600  0.400700  0.986000  1
  H  H115  1  0.146000  0.936000  0.057600  1
  H  H116  1  0.646000  0.436000  0.942400  1
  H  H117  1  0.186900  0.984100  0.019100  1
  H  H118  1  0.686900  0.484100  0.980900  1
  H  H119  1  0.282100  0.963800  0.005400  1
  H  H120  1  0.782100  0.463800  0.994600  1
  H  H121  1  0.221900  0.824100  0.097500  1
  H  H122  1  0.721900  0.324100  0.902500  1
  H  H123  1  0.159800  0.826000  0.082500  1
  H  H124  1  0.659800  0.326000  0.917500  1
  H  H125  1  0.177100  0.874400  0.105100  1
  H  H126  1  0.677100  0.374400  0.894900  1
  H  H127  1  0.564400  0.713000  0.988000  1
  H  H128  1  0.064400  0.213000  0.012000  1
  H  H129  1  0.595400  0.683700  0.943500  1
  H  H130  1  0.095400  0.183700  0.056500  1
  H  H131  1  0.540100  0.835800  0.910800  1
  H  H132  1  0.040100  0.335800  0.089200  1
  H  H133  1  0.509200  0.865100  0.955400  1
  H  H134  1  0.009200  0.365100  0.044600  1
  H  H135  1  0.659800  0.722800  0.903800  1
  H  H136  1  0.159800  0.222800  0.096200  1
  H  H137  1  0.644300  0.747900  0.820000  1
  H  H138  1  0.144300  0.247900  0.180000  1
  H  H139  1  0.520800  0.808500  0.872800  1
  H  H140  1  0.020800  0.308500  0.127200  1
  H  H141  1  0.755200  0.727600  0.882200  1
  H  H142  1  0.255200  0.227600  0.117800  1
  H  H143  1  0.909900  0.542700  0.841200  1
  H  H144  1  0.409900  0.042700  0.158800  1
  H  H145  1  0.928500  0.603300  0.879600  1
  H  H146  1  0.428500  0.103300  0.120400  1
  H  H147  1  0.860700  0.673500  0.892600  1
  H  H148  1  0.360700  0.173500  0.107400  1
  H  H149  1  0.777900  0.561500  0.800400  1
  H  H150  1  0.277900  0.061500  0.199600  1
  H  H151  1  0.817400  0.507500  0.809000  1
  H  H152  1  0.317400  0.007500  0.191000  1
  H  H153  1  0.845000  0.560400  0.791800  1
  H  H154  1  0.345000  0.060400  0.208200  1
  H  H155  1  0.568100  0.757200  0.796100  1
  H  H156  1  0.068100  0.257200  0.203900  1
  H  H157  1  0.406400  0.880800  0.726800  1
  H  H158  1  0.906400  0.380800  0.273200  1
  H  H159  1  0.467500  0.799400  0.711100  1
  H  H160  1  0.967500  0.299400  0.288900  1
  H  H161  1  0.534800  0.757800  0.748000  1
  H  H162  1  0.034800  0.257800  0.252000  1
  H  H163  1  0.427500  0.962800  0.786500  1
  H  H164  1  0.927500  0.462800  0.213500  1
  H  H165  1  0.374700  0.933000  0.770000  1
  H  H166  1  0.874700  0.433000  0.230000  1
  H  H167  1  0.419800  0.973300  0.753500  1
  H  H168  1  0.919800  0.473300  0.246500  1
  H  H169  1  0.567900  0.339100  0.092900  1
  H  H170  1  0.067900  0.839100  0.907100  1
  H  H171  1  0.508300  0.330700  0.109600  1
  H  H172  1  0.008300  0.830700  0.890400  1
  H  H173  1  0.568600  0.315700  0.124500  1
  H  H174  1  0.068600  0.815700  0.875500  1
  H  H175  1  0.526700  0.545600  0.144900  1
  H  H176  1  0.026700  0.045600  0.855100  1
  H  H177  1  0.501100  0.467200  0.173500  1
  H  H178  1  0.001100  0.967200  0.826500  1
  H  H179  1  0.517600  0.372500  0.158200  1
  H  H180  1  0.017600  0.872500  0.841800  1
  H  H181  1  0.572700  0.585100  0.098700  1
  H  H182  1  0.072700  0.085100  0.901300  1
  H  H183  1  0.652800  0.623400  0.075500  1
  H  H184  1  0.152800  0.123400  0.924500  1
  H  H185  1  0.666667  0.667100  0.993500  1
  H  H186  1  0.166667  0.167100  0.006500  1
  H  H187  1  0.592000  0.514600  0.015500  1
  H  H188  1  0.092000  0.014600  0.984500  1
  H  H189  1  0.736000  0.721700  0.014500  1
  H  H190  1  0.236000  0.221700  0.985500  1
  H  H191  1  0.776300  0.940200  0.063500  1
  H  H192  1  0.276300  0.440200  0.936500  1
  H  H193  1  0.825000  0.897300  0.025800  1
  H  H194  1  0.325000  0.397300  0.974200  1
  H  H195  1  0.799600  0.803800  0.011200  1
  H  H196  1  0.299600  0.303800  0.988800  1
  H  H197  1  0.654400  0.855100  0.100300  1
  H  H198  1  0.154400  0.355100  0.899700  1
  H  H199  1  0.657100  0.921900  0.091300  1
  H  H200  1  0.157100  0.421900  0.908700  1
  H  H201  1  0.703400  0.896700  0.113100  1
  H  H202  1  0.203400  0.396700  0.886900  1
  H  H203  1  0.558200  0.511900  0.977400  1
  H  H204  1  0.058200  0.011900  0.022600  1
  H  H205  1  0.548200  0.483400  0.930500  1
  H  H206  1  0.048200  0.983400  0.069500  1
  H  H207  1  0.663100  0.607600  0.907100  1
  H  H208  1  0.163100  0.107600  0.092900  1
  H  H209  1  0.673100  0.636100  0.954000  1
  H  H210  1  0.173100  0.136100  0.046000  1
  H  H211  1  0.546300  0.458700  0.892800  1
  H  H212  1  0.046300  0.958700  0.107200  1
  H  H213  1  0.569500  0.496100  0.810500  1
  H  H214  1  0.069500  0.996100  0.189500  1
  H  H215  1  0.643400  0.597700  0.870000  1
  H  H216  1  0.143400  0.097700  0.130000  1
  H  H217  1  0.543200  0.368900  0.870000  1
  H  H218  1  0.043200  0.868900  0.130000  1
  H  H219  1  0.365000  0.225000  0.817100  1
  H  H220  1  0.865000  0.725000  0.182900  1
  H  H221  1  0.419200  0.201100  0.856900  1
  H  H222  1  0.919200  0.701100  0.143100  1
  H  H223  1  0.487800  0.266600  0.874600  1
  H  H224  1  0.987800  0.766600  0.125400  1
  H  H225  1  0.388400  0.362900  0.781500  1
  H  H226  1  0.888400  0.862900  0.218500  1
  H  H227  1  0.332400  0.324400  0.788600  1
  H  H228  1  0.832400  0.824400  0.211400  1
  H  H229  1  0.384300  0.297400  0.770700  1
  H  H230  1  0.884300  0.797400  0.229300  1
  H  H231  1  0.578500  0.576700  0.791900  1
  H  H232  1  0.078500  0.076700  0.208100  1
  H  H233  1  0.695300  0.754500  0.729400  1
  H  H234  1  0.195300  0.254500  0.270600  1
  H  H235  1  0.612300  0.696600  0.712300  1
  H  H236  1  0.112300  0.196600  0.287700  1
  H  H237  1  0.574900  0.620000  0.746000  1
  H  H238  1  0.074900  0.120000  0.254000  1
  H  H239  1  0.783900  0.720300  0.785300  1
  H  H240  1  0.283900  0.220300  0.214700  1
  H  H241  1  0.752100  0.776100  0.772800  1
  H  H242  1  0.252100  0.276100  0.227200  1
  H  H243  1  0.790700  0.736200  0.752800  1
  H  H244  1  0.290700  0.236200  0.247200  1
  H  H245  1  0.171300  0.514500  0.091200  1
  H  H246  1  0.671300  0.014500  0.908800  1
  H  H247  1  0.159100  0.566100  0.112800  1
  H  H248  1  0.659100  0.066100  0.887200  1
  H  H249  1  0.155100  0.500200  0.123100  1
  H  H250  1  0.655100  0.000200  0.876900  1
  H  H251  1  0.388600  0.532200  0.137800  1
  H  H252  1  0.888600  0.032200  0.862200  1
  H  H253  1  0.322100  0.563000  0.171500  1
  H  H254  1  0.822100  0.063000  0.828500  1
  H  H255  1  0.224100  0.557300  0.161000  1
  H  H256  1  0.724100  0.057300  0.839000  1
  H  H257  1  0.412700  0.499200  0.090600  1
  H  H258  1  0.912700  0.999200  0.909400  1
  H  H259  1  0.463300  0.432200  0.064000  1
  H  H260  1  0.963300  0.932200  0.936000  1
  H  H261  1  0.491500  0.437700  0.980100  1
  H  H262  1  0.991500  0.937700  0.019900  1
  H  H263  1  0.341100  0.499100  0.012300  1
  H  H264  1  0.841100  0.999100  0.987700  1
  H  H265  1  0.550600  0.370100  0.001700  1
  H  H266  1  0.050600  0.870100  0.998300  1
  H  H267  1  0.770900  0.319300  0.044900  1
  H  H268  1  0.270900  0.819300  0.955100  1
  H  H269  1  0.733600  0.285700  0.005200  1
  H  H270  1  0.233600  0.785700  0.994800  1
  H  H271  1  0.630500  0.297900  0.992400  1
  H  H272  1  0.130500  0.797900  0.007600  1
  H  H273  1  0.697900  0.430000  0.088900  1
  H  H274  1  0.197900  0.930000  0.911100  1
  H  H275  1  0.758900  0.428000  0.072900  1
  H  H276  1  0.258900  0.928000  0.927100  1
  H  H277  1  0.741300  0.377100  0.094000  1
  H  H278  1  0.241300  0.877100  0.906000  1
  H  H279  1  0.348900  0.533000  0.977900  1
  H  H280  1  0.848900  0.033000  0.022100  1
  H  H281  1  0.317400  0.575200  0.936000  1
  H  H282  1  0.817400  0.075200  0.064000  1
  H  H283  1  0.418800  0.464800  0.891900  1
  H  H284  1  0.918800  0.964800  0.108100  1
  H  H285  1  0.450300  0.422600  0.933800  1
  H  H286  1  0.950300  0.922600  0.066200  1
  H  H287  1  0.276600  0.572900  0.887400  1
  H  H288  1  0.776600  0.072900  0.112600  1
  H  H289  1  0.314700  0.566000  0.804500  1
  H  H290  1  0.814700  0.066000  0.195500  1
  H  H291  1  0.419900  0.487800  0.860900  1
  H  H292  1  0.919900  0.987800  0.139100  1
  H  H293  1  0.182000  0.577700  0.865900  1
  H  H294  1  0.682000  0.077700  0.134100  1
  H  H295  1  0.040500  0.758400  0.824500  1
  H  H296  1  0.540500  0.258400  0.175500  1
  H  H297  1  0.017700  0.693900  0.860700  1
  H  H298  1  0.517700  0.193900  0.139300  1
  H  H299  1  0.081600  0.624700  0.873100  1
  H  H300  1  0.581600  0.124700  0.126900  1
  H  H301  1  0.180100  0.753600  0.787100  1
  H  H302  1  0.680100  0.253600  0.212900  1
  H  H303  1  0.139900  0.803400  0.799800  1
  H  H304  1  0.639900  0.303400  0.200200  1
  H  H305  1  0.113500  0.757900  0.777800  1
  H  H306  1  0.613500  0.257900  0.222200  1
  H  H307  1  0.401000  0.569600  0.789600  1
  H  H308  1  0.901000  0.069600  0.210400  1
  H  H309  1  0.567900  0.454900  0.715500  1
  H  H310  1  0.067900  0.954900  0.284500  1
  H  H311  1  0.509000  0.539600  0.702100  1
  H  H312  1  0.009000  0.039600  0.297900  1
  H  H313  1  0.436100  0.572700  0.738500  1
  H  H314  1  0.936100  0.072700  0.261500  1
  H  H315  1  0.538400  0.360000  0.769600  1
  H  H316  1  0.038400  0.860000  0.230400  1
  H  H317  1  0.593400  0.393200  0.756700  1
  H  H318  1  0.093400  0.893200  0.243300  1
  H  H319  1  0.551000  0.357000  0.736600  1
  H  H320  1  0.051000  0.857000  0.263400  1
  H  H321  1  0.528500  0.346900  0.751900  1
  H  H322  1  0.028500  0.846900  0.248100  1
  H  H323  1  0.583500  0.380100  0.739000  1
  H  H324  1  0.083500  0.880100  0.261000  1
  H  H325  1  0.570800  0.383100  0.772000  1
  H  H326  1  0.070800  0.883100  0.228000  1
  H  H327  1  0.383600  0.913800  0.143100  1
  H  H328  1  0.883600  0.413800  0.856900  1
  H  H329  1  0.331400  0.906300  0.121200  1
  H  H330  1  0.831400  0.406300  0.878800  1
  H  H331  1  0.397200  0.904100  0.110500  1
  H  H332  1  0.897200  0.404100  0.889500  1
  H  H333  1  0.225700  0.317400  0.073600  1
  H  H334  1  0.725700  0.817400  0.926400  1
  H  H335  1  0.226900  0.376300  0.091300  1
  H  H336  1  0.726900  0.876300  0.908700  1
  H  H337  1  0.278100  0.362400  0.069700  1
  H  H338  1  0.778100  0.862400  0.930300  1
  H  H339  1  0.607900  0.024500  0.805800  1
  H  H340  1  0.107900  0.524500  0.194200  1
  H  H341  1  0.559600  0.983100  0.792400  1
  H  H342  1  0.059600  0.483100  0.207600  1
  H  H343  1  0.605800  0.957300  0.814000  1
  H  H344  1  0.105800  0.457300  0.186000  1
  H  H345  1  0.183400  0.581500  0.736100  1
  H  H346  1  0.683400  0.081500  0.263900  1
  H  H347  1  0.153200  0.632900  0.753200  1
  H  H348  1  0.653200  0.132900  0.246800  1
  H  H349  1  0.188900  0.584200  0.769600  1
  H  H350  1  0.688900  0.084200  0.230400  1
  H  H351  1  0.150600  0.858900  0.092600  1
  H  H352  1  0.650600  0.358900  0.907400  1
  H  H353  1  0.212700  0.857000  0.107500  1
  H  H354  1  0.712700  0.357000  0.892500  1
  H  H355  1  0.195500  0.808600  0.085000  1
  H  H356  1  0.695500  0.308600  0.915000  1
  H  H357  1  0.849000  0.524800  0.800400  1
  H  H358  1  0.349000  0.024800  0.199600  1
  H  H359  1  0.809500  0.578800  0.791800  1
  H  H360  1  0.309500  0.078800  0.208200  1
  H  H361  1  0.781800  0.525900  0.809000  1
  H  H362  1  0.281800  0.025900  0.191000  1
  H  H363  1  0.756900  0.696100  0.141400  1
  H  H364  1  0.256900  0.196100  0.858600  1
  H  H365  1  0.739200  0.752100  0.123600  1
  H  H366  1  0.239200  0.252100  0.876400  1
  H  H367  1  0.737700  0.689400  0.109300  1
  H  H368  1  0.237700  0.189400  0.890700  1
  H  H369  1  0.387200  0.949900  0.753500  1
  H  H370  1  0.887200  0.449900  0.246500  1
  H  H371  1  0.440000  0.979700  0.770000  1
  H  H372  1  0.940000  0.479700  0.230000  1
  H  H373  1  0.394900  0.939400  0.786500  1
  H  H374  1  0.894900  0.439400  0.213500  1
  H  H375  1  0.688800  0.927400  0.102900  1
  H  H376  1  0.188800  0.427400  0.897100  1
  H  H377  1  0.686200  0.860600  0.111800  1
  H  H378  1  0.186200  0.360600  0.888200  1
  H  H379  1  0.639900  0.885800  0.090000  1
  H  H380  1  0.139900  0.385800  0.910000  1
  H  H381  1  0.348300  0.293600  0.779100  1
  H  H382  1  0.848300  0.793600  0.220900  1
  H  H383  1  0.404300  0.332000  0.771900  1
  H  H384  1  0.904300  0.832000  0.228100  1
  H  H385  1  0.352400  0.359100  0.789900  1
  H  H386  1  0.852400  0.859100  0.210100  1
  H  H387  1  0.767300  0.768100  0.755300  1
  H  H388  1  0.267300  0.268100  0.244700  1
  H  H389  1  0.799000  0.712300  0.767800  1
  H  H390  1  0.299000  0.212300  0.232200  1
  H  H391  1  0.760400  0.752200  0.787800  1
  H  H392  1  0.260400  0.252200  0.212200  1
  H  H393  1  0.152300  0.539400  0.126800  1
  H  H394  1  0.652300  0.039400  0.873200  1
  H  H395  1  0.164500  0.487800  0.105300  1
  H  H396  1  0.664500  0.987800  0.894700  1
  H  H397  1  0.168600  0.553600  0.094900  1
  H  H398  1  0.668600  0.053600  0.905100  1
  H  H399  1  0.767500  0.393400  0.081600  1
  H  H400  1  0.267500  0.893400  0.918400  1
  H  H401  1  0.706500  0.395400  0.097700  1
  H  H402  1  0.206500  0.895400  0.902300  1
  H  H403  1  0.724100  0.446300  0.076500  1
  H  H404  1  0.224100  0.946300  0.923500  1
  H  H405  1  0.108900  0.789700  0.789400  1
  H  H406  1  0.608900  0.289700  0.210600  1
  H  H407  1  0.149100  0.739900  0.776700  1
  H  H408  1  0.649100  0.239900  0.223300  1
  H  H409  1  0.175500  0.785400  0.798600  1
  H  H410  1  0.675500  0.285400  0.201400  1
  H  H411  1  0.528600  0.317900  0.125100  1
  H  H412  1  0.028600  0.817900  0.874900  1
  H  H413  1  0.588200  0.326300  0.108400  1
  H  H414  1  0.088200  0.826300  0.891600  1
  H  H415  1  0.527900  0.341300  0.093500  1
  H  H416  1  0.027900  0.841300  0.906500  1
  Au  Au417  1  0.476700  0.653770  0.841020  1
  Au  Au418  1  0.976700  0.153770  0.158980  1
  Au  Au419  1  0.465690  0.637150  0.945170  1
  Au  Au420  1  0.965690  0.137150  0.054830  1
  Au  Au421  1  0.459130  0.622860  0.050060  1
  Au  Au422  1  0.959130  0.122860  0.949940  1
  C  C423  1  0.476000  0.660000  0.801000  1
  C  C424  1  0.976000  0.160000  0.199000  1
  C  C425  1  0.460000  0.622000  0.093000  1
  C  C426  1  0.960000  0.122000  0.907000  1
  C  C427  1  0.371000  0.894100  0.126000  1
  C  C428  1  0.871000  0.394100  0.874000  1
  C  C429  1  0.371600  0.833700  0.130300  1
  C  C430  1  0.871600  0.333700  0.869700  1
  C  C431  1  0.355800  0.741200  0.116200  1
  C  C432  1  0.855800  0.241200  0.883800  1
  C  C433  1  0.373600  0.717800  0.140600  1
  C  C434  1  0.873600  0.217800  0.859400  1
  C  C435  1  0.392100  0.752400  0.162300  1
  C  C436  1  0.892100  0.252400  0.837700  1
  C  C437  1  0.390600  0.810100  0.158700  1
  C  C438  1  0.890600  0.310100  0.841300  1
  C  C439  1  0.338800  0.703700  0.093100  1
  C  C440  1  0.838800  0.203700  0.906900  1
  C  C441  1  0.309200  0.692300  0.046100  1
  C  C442  1  0.809200  0.192300  0.953900  1
  C  C443  1  0.281900  0.639200  0.050100  1
  C  C444  1  0.781900  0.139200  0.949900  1
  C  C445  1  0.264400  0.606500  0.027100  1
  C  C446  1  0.764400  0.106500  0.972900  1
  C  C447  1  0.274200  0.627100  0.000100  1
  C  C448  1  0.774200  0.127100  0.999900  1
  C  C449  1  0.301500  0.680200  0.996100  1
  C  C450  1  0.801500  0.180200  0.003900  1
  C  C451  1  0.319000  0.712900  0.019100  1
  C  C452  1  0.819000  0.212900  0.980900  1
  C  C453  1  0.209500  0.523500  0.016800  1
  C  C454  1  0.709500  0.023500  0.983200  1
  C  C455  1  0.189700  0.469000  0.020600  1
  C  C456  1  0.689700  0.969000  0.979400  1
  C  C457  1  0.202500  0.389200  0.049800  1
  C  C458  1  0.702500  0.889200  0.950200  1
  C  C459  1  0.161700  0.355600  0.032300  1
  C  C460  1  0.661700  0.855600  0.967700  1
  C  C461  1  0.140300  0.381000  0.010500  1
  C  C462  1  0.640300  0.881000  0.989500  1
  C  C463  1  0.148400  0.443200  0.002900  1
  C  C464  1  0.648400  0.943200  0.997100  1
  C  C465  1  0.236400  0.358600  0.073200  1
  C  C466  1  0.736400  0.858600  0.926800  1
  C  C467  1  0.318000  0.710000  0.968600  1
  C  C468  1  0.818000  0.210000  0.031400  1
  C  C469  1  0.369000  0.738000  0.962100  1
  C  C470  1  0.869000  0.238000  0.037900  1
  C  C471  1  0.380600  0.755000  0.934700  1
  C  C472  1  0.880600  0.255000  0.065300  1
  C  C473  1  0.340000  0.744000  0.913700  1
  C  C474  1  0.840000  0.244000  0.086300  1
  C  C475  1  0.289000  0.716000  0.920200  1
  C  C476  1  0.789000  0.216000  0.079800  1
  C  C477  1  0.277300  0.699000  0.947600  1
  C  C478  1  0.777300  0.199000  0.052400  1
  C  C479  1  0.349700  0.770200  0.886700  1
  C  C480  1  0.849700  0.270200  0.113300  1
  C  C481  1  0.380900  0.821000  0.882300  1
  C  C482  1  0.880900  0.321000  0.117700  1
  C  C483  1  0.391200  0.840500  0.855200  1
  C  C484  1  0.891200  0.340500  0.144800  1
  C  C485  1  0.370300  0.809100  0.832400  1
  C  C486  1  0.870300  0.309100  0.167600  1
  C  C487  1  0.339000  0.758300  0.836800  1
  C  C488  1  0.839000  0.258300  0.163200  1
  C  C489  1  0.328700  0.738900  0.864000  1
  C  C490  1  0.828700  0.238900  0.136000  1
  C  C491  1  0.425700  0.932100  0.866300  1
  C  C492  1  0.925700  0.432100  0.133700  1
  C  C493  1  0.465700  0.977000  0.859800  1
  C  C494  1  0.965700  0.477000  0.140200  1
  C  C495  1  0.543200  0.004400  0.832600  1
  C  C496  1  0.043200  0.504400  0.167400  1
  C  C497  1  0.546000  0.060700  0.847100  1
  C  C498  1  0.046000  0.560700  0.152900  1
  C  C499  1  0.506900  0.071000  0.868300  1
  C  C500  1  0.006900  0.571000  0.131700  1
  C  C501  1  0.468000  0.031800  0.874800  1
  C  C502  1  0.968000  0.531800  0.125200  1
  C  C503  1  0.582400  0.991200  0.809300  1
  C  C504  1  0.082400  0.491200  0.190700  1
  C  C505  1  0.341200  0.727000  0.792400  1
  C  C506  1  0.841200  0.227000  0.207600  1
  C  C507  1  0.319300  0.695000  0.768600  1
  C  C508  1  0.819300  0.195000  0.231400  1
  C  C509  1  0.243200  0.644500  0.749500  1
  C  C510  1  0.743200  0.144500  0.250500  1
  C  C511  1  0.271500  0.630600  0.725100  1
  C  C512  1  0.771500  0.130600  0.274900  1
  C  C513  1  0.324600  0.662700  0.719600  1
  C  C514  1  0.824600  0.162700  0.280400  1
  C  C515  1  0.348300  0.698500  0.744300  1
  C  C516  1  0.848300  0.198500  0.255700  1
  C  C517  1  0.186900  0.607300  0.752400  1
  C  C518  1  0.686900  0.107300  0.247600  1
  C  C519  1  0.731100  0.710900  0.126700  1
  C  C520  1  0.231100  0.210900  0.873300  1
  C  C521  1  0.675200  0.704000  0.134900  1
  C  C522  1  0.175200  0.204000  0.865100  1
  C  C523  1  0.576600  0.721500  0.120600  1
  C  C524  1  0.076600  0.221500  0.879400  1
  C  C525  1  0.556800  0.697500  0.145600  1
  C  C526  1  0.056800  0.197500  0.854400  1
  C  C527  1  0.596200  0.676800  0.165200  1
  C  C528  1  0.096200  0.176800  0.834800  1
  C  C529  1  0.655400  0.680100  0.159900  1
  C  C530  1  0.155400  0.180100  0.840100  1
  C  C531  1  0.538700  0.741100  0.100300  1
  C  C532  1  0.038700  0.241100  0.899700  1
  C  C533  1  0.520900  0.786500  0.054600  1
  C  C534  1  0.020900  0.286500  0.945400  1
  C  C535  1  0.466400  0.809000  0.060200  1
  C  C536  1  0.966400  0.309000  0.939800  1
  C  C537  1  0.431100  0.827200  0.038300  1
  C  C538  1  0.931100  0.327200  0.961700  1
  C  C539  1  0.450300  0.822800  0.010800  1
  C  C540  1  0.950300  0.322800  0.989200  1
  C  C541  1  0.504900  0.800300  0.005100  1
  C  C542  1  0.004900  0.300300  0.994900  1
  C  C543  1  0.540200  0.782100  0.027000  1
  C  C544  1  0.040200  0.282100  0.973000  1
  C  C545  1  0.355700  0.886600  0.030000  1
  C  C546  1  0.855700  0.386600  0.970000  1
  C  C547  1  0.297800  0.903700  0.035700  1
  C  C548  1  0.797800  0.403700  0.964300  1
  C  C549  1  0.217000  0.887100  0.066700  1
  C  C550  1  0.717000  0.387100  0.933300  1
  C  C551  1  0.184700  0.927700  0.052000  1
  C  C552  1  0.684700  0.427700  0.948000  1
  C  C553  1  0.209000  0.956300  0.029200  1
  C  C554  1  0.709000  0.456300  0.970800  1
  C  C555  1  0.265500  0.944300  0.021000  1
  C  C556  1  0.765500  0.444300  0.979000  1
  C  C557  1  0.191700  0.849500  0.090000  1
  C  C558  1  0.691700  0.349500  0.910000  1
  C  C559  1  0.534000  0.792000  0.975800  1
  C  C560  1  0.034000  0.292000  0.024200  1
  C  C561  1  0.559000  0.738000  0.972300  1
  C  C562  1  0.059000  0.238000  0.027700  1
  C  C563  1  0.578000  0.721000  0.945900  1
  C  C564  1  0.078000  0.221000  0.054100  1
  C  C565  1  0.571000  0.757000  0.923000  1
  C  C566  1  0.071000  0.257000  0.077000  1
  C  C567  1  0.545000  0.811000  0.926500  1
  C  C568  1  0.045000  0.311000  0.073500  1
  C  C569  1  0.527000  0.828000  0.952900  1
  C  C570  1  0.027000  0.328000  0.047100  1
  C  C571  1  0.586900  0.766800  0.892600  1
  C  C572  1  0.086900  0.266800  0.107400  1
  C  C573  1  0.638900  0.737800  0.888300  1
  C  C574  1  0.138900  0.237800  0.111700  1
  C  C575  1  0.660300  0.730800  0.861300  1
  C  C576  1  0.160300  0.230800  0.138700  1
  C  C577  1  0.629700  0.752700  0.838500  1
  C  C578  1  0.129700  0.252700  0.161500  1
  C  C579  1  0.577700  0.781700  0.842800  1
  C  C580  1  0.077700  0.281700  0.157200  1
  C  C581  1  0.556300  0.788700  0.869900  1
  C  C582  1  0.056300  0.288700  0.130100  1
  C  C583  1  0.752000  0.699200  0.867800  1
  C  C584  1  0.252000  0.199200  0.132200  1
  C  C585  1  0.801900  0.654700  0.861900  1
  C  C586  1  0.301900  0.154700  0.138100  1
  C  C587  1  0.831100  0.577000  0.831400  1
  C  C588  1  0.331100  0.077000  0.168600  1
  C  C589  1  0.882400  0.571200  0.846500  1
  C  C590  1  0.382400  0.071200  0.153500  1
  C  C591  1  0.893400  0.607000  0.869300  1
  C  C592  1  0.393400  0.107000  0.130700  1
  C  C593  1  0.853200  0.649000  0.877000  1
  C  C594  1  0.353200  0.149000  0.123000  1
  C  C595  1  0.817000  0.549600  0.806300  1
  C  C596  1  0.317000  0.049600  0.193700  1
  C  C597  1  0.545700  0.791100  0.799000  1
  C  C598  1  0.045700  0.291100  0.201000  1
  C  C599  1  0.509600  0.815000  0.777200  1
  C  C600  1  0.009600  0.315000  0.222800  1
  C  C601  1  0.454000  0.891300  0.762600  1
  C  C602  1  0.954000  0.391300  0.237400  1
  C  C603  1  0.437500  0.866100  0.737800  1
  C  C604  1  0.937500  0.366100  0.262200  1
  C  C605  1  0.470500  0.815600  0.729300  1
  C  C606  1  0.970500  0.315600  0.270700  1
  C  C607  1  0.510500  0.790000  0.751800  1
  C  C608  1  0.010500  0.290000  0.248200  1
  C  C609  1  0.415400  0.945100  0.768700  1
  C  C610  1  0.915400  0.445100  0.231300  1
  C  C611  1  0.549200  0.341800  0.111300  1
  C  C612  1  0.049200  0.841800  0.888700  1
  C  C613  1  0.553000  0.394600  0.120400  1
  C  C614  1  0.053000  0.894600  0.879600  1
  C  C615  1  0.558400  0.497500  0.112600  1
  C  C616  1  0.058400  0.997500  0.887400  1
  C  C617  1  0.533400  0.507200  0.138700  1
  C  C618  1  0.033400  0.007200  0.861300  1
  C  C619  1  0.518200  0.460600  0.155700  1
  C  C620  1  0.018200  0.960600  0.844300  1
  C  C621  1  0.528000  0.404300  0.146600  1
  C  C622  1  0.028000  0.904300  0.853400  1
  C  C623  1  0.576400  0.545200  0.094300  1
  C  C624  1  0.076400  0.045200  0.905700  1
  C  C625  1  0.619700  0.562800  0.048800  1
  C  C626  1  0.119700  0.062800  0.951200  1
  C  C627  1  0.646500  0.614600  0.056300  1
  C  C628  1  0.146500  0.114600  0.943700  1
  C  C629  1  0.664000  0.653400  0.035700  1
  C  C630  1  0.164000  0.153400  0.964300  1
  C  C631  1  0.654700  0.640600  0.007600  1
  C  C632  1  0.154700  0.140600  0.992400  1
  C  C633  1  0.627900  0.588800  0.000100  1
  C  C634  1  0.127900  0.088800  0.999900  1
  C  C635  1  0.610300  0.550000  0.020700  1
  C  C636  1  0.110300  0.050000  0.979300  1
  C  C637  1  0.720300  0.737200  0.031300  1
  C  C638  1  0.220300  0.237200  0.968700  1
  C  C639  1  0.735800  0.791200  0.040200  1
  C  C640  1  0.235800  0.291200  0.959800  1
  C  C641  1  0.722000  0.872200  0.071300  1
  C  C642  1  0.222000  0.372200  0.928700  1
  C  C643  1  0.766000  0.902200  0.057600  1
  C  C644  1  0.266000  0.402200  0.942400  1
  C  C645  1  0.794900  0.876700  0.035200  1
  C  C646  1  0.294900  0.376700  0.964800  1
  C  C647  1  0.779900  0.821200  0.026500  1
  C  C648  1  0.279900  0.321200  0.973500  1
  C  C649  1  0.680300  0.888000  0.096400  1
  C  C650  1  0.180300  0.388000  0.903600  1
  C  C651  1  0.617000  0.577000  0.970100  1
  C  C652  1  0.117000  0.077000  0.029900  1
  C  C653  1  0.579000  0.531000  0.963100  1
  C  C654  1  0.079000  0.031000  0.036900  1
  C  C655  1  0.574000  0.514000  0.935300  1
  C  C656  1  0.074000  0.014000  0.064700  1
  C  C657  1  0.605000  0.543000  0.914400  1
  C  C658  1  0.105000  0.043000  0.085600  1
  C  C659  1  0.642000  0.588000  0.921400  1
  C  C660  1  0.142000  0.088000  0.078600  1
  C  C661  1  0.648000  0.605000  0.949200  1
  C  C662  1  0.148000  0.105000  0.050800  1
  C  C663  1  0.596500  0.530200  0.885800  1
  C  C664  1  0.096500  0.030200  0.114200  1
  C  C665  1  0.562600  0.482600  0.878600  1
  C  C666  1  0.062600  0.982600  0.121400  1
  C  C667  1  0.552500  0.469800  0.850500  1
  C  C668  1  0.052500  0.969800  0.149500  1
  C  C669  1  0.576300  0.504800  0.829700  1
  C  C670  1  0.076300  0.004800  0.170300  1
  C  C671  1  0.610200  0.552400  0.836900  1
  C  C672  1  0.110200  0.052400  0.163100  1
  C  C673  1  0.620300  0.565100  0.865000  1
  C  C674  1  0.120300  0.065100  0.135000  1
  C  C675  1  0.517900  0.374700  0.854600  1
  C  C676  1  0.017900  0.874700  0.145400  1
  C  C677  1  0.474300  0.329400  0.845200  1
  C  C678  1  0.974300  0.829400  0.154800  1
  C  C679  1  0.401400  0.304600  0.811100  1
  C  C680  1  0.901400  0.804600  0.188900  1
  C  C681  1  0.392800  0.251600  0.824300  1
  C  C682  1  0.892800  0.751600  0.175700  1
  C  C683  1  0.425100  0.237400  0.847900  1
  C  C684  1  0.925100  0.737400  0.152100  1
  C  C685  1  0.465800  0.276300  0.858400  1
  C  C686  1  0.965800  0.776300  0.141600  1
  C  C687  1  0.374500  0.323800  0.786100  1
  C  C688  1  0.874500  0.823800  0.213900  1
  C  C689  1  0.613700  0.597100  0.795100  1
  C  C690  1  0.113700  0.097100  0.204900  1
  C  C691  1  0.635200  0.638700  0.775000  1
  C  C692  1  0.135200  0.138700  0.225000  1
  C  C693  1  0.709800  0.698700  0.761900  1
  C  C694  1  0.209800  0.198700  0.238100  1
  C  C695  1  0.681800  0.720800  0.738800  1
  C  C696  1  0.181800  0.220800  0.261200  1
  C  C697  1  0.630400  0.689300  0.729800  1
  C  C698  1  0.130400  0.189300  0.270200  1
  C  C699  1  0.607400  0.643700  0.750400  1
  C  C700  1  0.107400  0.143700  0.249600  1
  C  C701  1  0.764200  0.736300  0.768800  1
  C  C702  1  0.264200  0.236300  0.231200  1
  C  C703  1  0.175600  0.527300  0.110700  1
  C  C704  1  0.675600  0.027300  0.889300  1
  C  C705  1  0.234900  0.528700  0.117900  1
  C  C706  1  0.734900  0.028700  0.882100  1
  C  C707  1  0.330100  0.514300  0.108200  1
  C  C708  1  0.830100  0.014300  0.891800  1
  C  C709  1  0.348300  0.531900  0.133700  1
  C  C710  1  0.848300  0.031900  0.866300  1
  C  C711  1  0.309300  0.549600  0.153700  1
  C  C712  1  0.809300  0.049600  0.846300  1
  C  C713  1  0.252500  0.547400  0.147400  1
  C  C714  1  0.752500  0.047400  0.852600  1
  C  C715  1  0.372200  0.498100  0.087000  1
  C  C716  1  0.872200  0.998100  0.913000  1
  C  C717  1  0.396600  0.467400  0.041800  1
  C  C718  1  0.896600  0.967400  0.958200  1
  C  C719  1  0.450600  0.442000  0.045700  1
  C  C720  1  0.950600  0.942000  0.954300  1
  C  C721  1  0.485900  0.431000  0.022700  1
  C  C722  1  0.985900  0.931000  0.977300  1
  C  C723  1  0.467300  0.445300  0.995800  1
  C  C724  1  0.967300  0.945300  0.004200  1
  C  C725  1  0.413400  0.470700  0.992000  1
  C  C726  1  0.913400  0.970700  0.008000  1
  C  C727  1  0.378000  0.481700  0.014900  1
  C  C728  1  0.878000  0.981700  0.985100  1
  C  C729  1  0.567900  0.379600  0.019200  1
  C  C730  1  0.067900  0.879600  0.980800  1
  C  C731  1  0.621500  0.359200  0.024400  1
  C  C732  1  0.121500  0.859200  0.975600  1
  C  C733  1  0.698100  0.371100  0.055800  1
  C  C734  1  0.198100  0.871100  0.944200  1
  C  C735  1  0.732800  0.329900  0.039300  1
  C  C736  1  0.232800  0.829900  0.960700  1
  C  C737  1  0.709600  0.308900  0.016800  1
  C  C738  1  0.209600  0.808900  0.983200  1
  C  C739  1  0.648500  0.317600  0.007600  1
  C  C740  1  0.148500  0.817600  0.992400  1
  C  C741  1  0.726600  0.404600  0.080100  1
  C  C742  1  0.226600  0.904600  0.919900  1
  C  C743  1  0.402600  0.473800  0.959800  1
  C  C744  1  0.902600  0.973800  0.040200  1
  C  C745  1  0.363100  0.519200  0.960400  1
  C  C746  1  0.863100  0.019200  0.039600  1
  C  C747  1  0.344400  0.544200  0.935500  1
  C  C748  1  0.844400  0.044200  0.064500  1
  C  C749  1  0.365100  0.523900  0.910000  1
  C  C750  1  0.865100  0.023900  0.090000  1
  C  C751  1  0.404600  0.478600  0.909300  1
  C  C752  1  0.904600  0.978600  0.090700  1
  C  C753  1  0.423300  0.453600  0.934200  1
  C  C754  1  0.923300  0.953600  0.065800  1
  C  C755  1  0.350400  0.528100  0.878500  1
  C  C756  1  0.850400  0.028100  0.121500  1
  C  C757  1  0.301200  0.560400  0.872600  1
  C  C758  1  0.801200  0.060400  0.127400  1
  C  C759  1  0.287900  0.574600  0.845000  1
  C  C760  1  0.787900  0.074600  0.155000  1
  C  C761  1  0.323800  0.556400  0.823300  1
  C  C762  1  0.823800  0.056400  0.176700  1
  C  C763  1  0.373000  0.524100  0.829200  1
  C  C764  1  0.873000  0.024100  0.170800  1
  C  C765  1  0.386300  0.509900  0.856800  1
  C  C766  1  0.886300  0.009900  0.143200  1
  C  C767  1  0.189500  0.605400  0.851600  1
  C  C768  1  0.689500  0.105400  0.148400  1
  C  C769  1  0.146800  0.646800  0.844400  1
  C  C770  1  0.646800  0.146800  0.155600  1
  C  C771  1  0.124500  0.724700  0.816600  1
  C  C772  1  0.624500  0.224700  0.183400  1
  C  C773  1  0.067400  0.729600  0.830200  1
  C  C774  1  0.567400  0.229600  0.169800  1
  C  C775  1  0.054000  0.691200  0.851300  1
  C  C776  1  0.554000  0.191200  0.148700  1
  C  C777  1  0.091100  0.651200  0.858600  1
  C  C778  1  0.591100  0.151200  0.141400  1
  C  C779  1  0.140900  0.763100  0.793400  1
  C  C780  1  0.640900  0.263100  0.206600  1
  C  C781  1  0.418000  0.532000  0.789500  1
  C  C782  1  0.918000  0.032000  0.210500  1
  C  C783  1  0.457200  0.509200  0.765400  1
  C  C784  1  0.957200  0.009200  0.234600  1
  C  C785  1  0.515200  0.436500  0.748800  1
  C  C786  1  0.015200  0.936500  0.251200  1
  C  C787  1  0.535300  0.467100  0.726100  1
  C  C788  1  0.035300  0.967100  0.273900  1
  C  C789  1  0.503300  0.519400  0.719200  1
  C  C790  1  0.003300  0.019400  0.280800  1
  C  C791  1  0.459900  0.539800  0.741500  1
  C  C792  1  0.959900  0.039800  0.258500  1
  C  C793  1  0.553000  0.381600  0.753400  1
  C  C794  1  0.053000  0.881600  0.246600  1
  C  C795  1  0.468000  0.639000  0.883000  0.5
  N  N796  1  0.468000  0.639000  0.883000  0.5
  C  C797  1  0.968000  0.139000  0.117000  0.5
  N  N798  1  0.968000  0.139000  0.117000  0.5
  C  C799  1  0.463000  0.632000  0.018200  0.5
  N  N800  1  0.463000  0.632000  0.018200  0.5
  C  C801  1  0.963000  0.132000  0.981800  0.5
  N  N802  1  0.963000  0.132000  0.981800  0.5
  C  C803  1  0.467000  0.642000  0.907000  0.5
  N  N804  1  0.467000  0.642000  0.907000  0.5
  C  C805  1  0.967000  0.142000  0.093000  0.5
  N  N806  1  0.967000  0.142000  0.093000  0.5
  C  C807  1  0.463000  0.633000  0.986600  0.5
  N  N808  1  0.463000  0.633000  0.986600  0.5
  C  C809  1  0.963000  0.133000  0.013400  0.5
  N  N810  1  0.963000  0.133000  0.013400  0.5
  N  N811  1  0.483900  0.672400  0.781200  1
  N  N812  1  0.983900  0.172400  0.218800  1
  N  N813  1  0.482800  0.620200  0.117900  1
  N  N814  1  0.982800  0.120200  0.882100  1
  N  N815  1  0.355500  0.799900  0.111300  1
  N  N816  1  0.855500  0.299900  0.888700  1
  N  N817  1  0.322700  0.729000  0.070200  1
  N  N818  1  0.822700  0.229000  0.929800  1
  N  N819  1  0.241200  0.551800  0.035000  1
  N  N820  1  0.741200  0.051800  0.965000  1
  N  N821  1  0.215000  0.441600  0.043700  1
  N  N822  1  0.715000  0.941600  0.956300  1
  N  N823  1  0.503200  0.971000  0.840900  1
  N  N824  1  0.003200  0.471000  0.159100  1
  N  N825  1  0.427100  0.888700  0.852600  1
  N  N826  1  0.927100  0.388700  0.147400  1
  N  N827  1  0.313400  0.729300  0.814200  1
  N  N828  1  0.813400  0.229300  0.185800  1
  N  N829  1  0.264500  0.670600  0.772400  1
  N  N830  1  0.764500  0.170600  0.227600  1
  N  N831  1  0.559100  0.762600  0.077000  1
  N  N832  1  0.059100  0.262600  0.923000  1
  N  N833  1  0.635800  0.724700  0.115200  1
  N  N834  1  0.135800  0.224700  0.884800  1
  N  N835  1  0.379700  0.852800  0.046500  1
  N  N836  1  0.879700  0.352800  0.953500  1
  N  N837  1  0.273600  0.875100  0.058500  1
  N  N838  1  0.773600  0.375100  0.941500  1
  N  N839  1  0.704700  0.695100  0.851700  1
  N  N840  1  0.204700  0.195100  0.148300  1
  N  N841  1  0.790800  0.618700  0.839200  1
  N  N842  1  0.290800  0.118700  0.160800  1
  N  N843  1  0.545800  0.817100  0.821500  1
  N  N844  1  0.045800  0.317100  0.178500  1
  N  N845  1  0.485900  0.864400  0.781600  1
  N  N846  1  0.985900  0.364400  0.218400  1
  N  N847  1  0.598900  0.524100  0.070400  1
  N  N848  1  0.098900  0.024100  0.929600  1
  N  N849  1  0.568200  0.441200  0.103500  1
  N  N850  1  0.068200  0.941200  0.896500  1
  N  N851  1  0.684100  0.707700  0.046000  1
  N  N852  1  0.184100  0.207700  0.954000  1
  N  N853  1  0.706900  0.816600  0.062600  1
  N  N854  1  0.206900  0.316600  0.937400  1
  N  N855  1  0.518000  0.419500  0.840700  1
  N  N856  1  0.018000  0.919500  0.159300  1
  N  N857  1  0.442100  0.343500  0.821600  1
  N  N858  1  0.942100  0.843500  0.178400  1
  N  N859  1  0.641600  0.588900  0.816100  1
  N  N860  1  0.141600  0.088900  0.183900  1
  N  N861  1  0.690000  0.664300  0.780900  1
  N  N862  1  0.190000  0.164300  0.219100  1
  N  N863  1  0.351700  0.482200  0.062900  1
  N  N864  1  0.851700  0.982200  0.937100  1
  N  N865  1  0.272500  0.513300  0.100600  1
  N  N866  1  0.772500  0.013300  0.899400  1
  N  N867  1  0.538100  0.411700  0.036500  1
  N  N868  1  0.038100  0.911700  0.963500  1
  N  N869  1  0.646600  0.384200  0.048200  1
  N  N870  1  0.146600  0.884200  0.951800  1
  N  N871  1  0.159500  0.685100  0.826400  1
  N  N872  1  0.659500  0.185100  0.173600  1
  N  N873  1  0.237200  0.605700  0.839100  1
  N  N874  1  0.737200  0.105700  0.160900  1
  N  N875  1  0.411800  0.497500  0.807900  1
  N  N876  1  0.911800  0.997500  0.192100  1
  N  N877  1  0.482700  0.453200  0.769600  1
  N  N878  1  0.982700  0.953200  0.230400  1
