
#######################################################################
#
#                 Cambridge Crystallographic Data Centre
#                                CCDC 
#
#######################################################################
#
# If this CIF has been generated from an entry in the Cambridge 
# Structural Database, then it will include bibliographic, chemical, 
# crystal, experimental, refinement or atomic coordinate data resulting 
# from the CCDC's data processing and validation procedures.
#
#######################################################################

data_TOCWIT
_chemical_formula_moiety         
'C184 H152 Cu8 N32 8+,C4 Au3 N4 1-,7(F6 Sb1 1-),38(C2 H3 N1),38(C4 H10 O1)'
_chemical_name_systematic        
"tetrakis(\m~4~-N,N',N'',N'''-1,1':4',1''-terphenyl-3,3'',5,5''-tetrayltetrakis(1-(6-methylpyridin-2-yl)methanimine))-octa copper bis(\m~2~-cyano)-bis(cyano)-tri-gold hepta(hexafluoroantimonate) acetonitrile diethyl ether solvate"
_symmetry_cell_setting           monoclinic
_symmetry_space_group_name_H-M   'P n'
_symmetry_Int_Tables_number      7
_space_group_name_Hall           'P -2yac'
loop_
_symmetry_equiv_pos_site_id
_symmetry_equiv_pos_as_xyz
1 x,y,z
2 1/2+x,-y,1/2+z
_cell_length_a                   23.0540(5)
_cell_length_b                   47.6698(16)
_cell_length_c                   23.0934(5)
_cell_angle_alpha                90
_cell_angle_beta                 90.249(2)
_cell_angle_gamma                90
_cell_volume                     25378.9
_exptl_crystal_colour            'dark red'
_exptl_crystal_description       block
_cell_formula_units_Z            2
loop_
_atom_site_label
_atom_site_type_symbol
_atom_site_fract_x
_atom_site_fract_y
_atom_site_fract_z
Au1 Au 0.52330(15) 0.15898(8) 0.34623(16)
Au2 Au 0.53431(13) 0.05483(8) 0.36285(13)
Au3 Au 0.54087(15) -0.05006(10) 0.37714(15)
C185 C 0.524(2) 0.1990(9) 0.340(2)
C186 C 0.540(3) -0.0930(10) 0.378(2)
N33 N 0.5161(18) 0.2188(3) 0.3276(17)
C187 C 0.532(2) 0.1170(9) 0.361(2)
C188 C 0.537(2) -0.0182(9) 0.368(2)
N34 N 0.533(2) 0.0930(10) 0.358(2)
N35 N 0.537(3) 0.0134(8) 0.367(2)
N36 N 0.5172(17) -0.1179(8) 0.3798(17)
N1 N 0.6445(11) -0.1113(5) 0.2001(12)
N2 N 0.6773(18) -0.0702(7) 0.2710(18)
C1 C 0.629(2) -0.1260(8) 0.1059(13)
H1 H 0.6421 -0.1068 0.0977
H2 H 0.5900 -0.1287 0.0901
H3 H 0.6557 -0.1394 0.0879
C2 C 0.6284(12) -0.1303(6) 0.1663(13)
C3 C 0.6442(11) -0.1162(6) 0.2588(12)
C4 C 0.6264(16) -0.1406(7) 0.2822(14)
H4 H 0.6266 -0.1428 0.3231
C5 C 0.6079(17) -0.1623(6) 0.2476(18)
H5 H 0.5943 -0.1793 0.2640
C6 C 0.6094(14) -0.1587(5) 0.1899(18)
H6 H 0.5990 -0.1736 0.1644
C7 C 0.6612(15) -0.0931(8) 0.2963(14)
H7 H 0.6607 -0.0948 0.3373
C8 C 0.6908(14) -0.0461(5) 0.3077(13)
C9 C 0.7181(14) -0.0501(4) 0.3608(14)
H8 H 0.7248 -0.0685 0.3749
C10 C 0.7356(14) -0.0271(6) 0.3935(11)
C11 C 0.7258(14) -0.0001(5) 0.3729(13)
H9 H 0.7377 0.0157 0.3952
C12 C 0.6985(14) 0.0039(4) 0.3198(14)
C13 C 0.6810(14) -0.0191(6) 0.2871(11)
H10 H 0.6624 -0.0164 0.2508
N3 N 0.7588(12) -0.0350(5) 0.4482(8)
N4 N 0.7850(7) -0.0437(3) 0.5584(8)
C14 C 0.7905(10) -0.0168(4) 0.4765(8)
H11 H 0.8003 0.0002 0.4574
C15 C 0.8103(8) -0.0206(3) 0.5310(8)
C16 C 0.7975(9) -0.0498(4) 0.6108(8)
C17 C 0.8383(10) -0.0323(5) 0.6444(8)
H12 H 0.8484 -0.0368 0.6831
C18 C 0.8597(10) -0.0105(5) 0.6190(11)
H13 H 0.8826 0.0018 0.6419
C19 C 0.8516(9) -0.0029(4) 0.5568(11)
H14 H 0.8717 0.0117 0.5375
C20 C 0.7636(13) -0.0732(5) 0.6414(10)
H15 H 0.7386 -0.0828 0.6133
H16 H 0.7397 -0.0651 0.6722
H17 H 0.7909 -0.0867 0.6583
C21 C 0.682(2) 0.0314(7) 0.290(2)
C22 C 0.631(2) 0.0379(10) 0.262(2)
H18 H 0.6031 0.0235 0.2543
C23 C 0.6194(19) 0.0653(12) 0.245(2)
H19 H 0.5841 0.0696 0.2253
C24 C 0.660(2) 0.0863(8) 0.256(2)
C25 C 0.711(2) 0.0798(9) 0.284(2)
H20 H 0.7391 0.0942 0.2915
C26 C 0.7227(19) 0.0524(11) 0.301(2)
H21 H 0.7581 0.0481 0.3205
C27 C 0.6503(16) 0.1133(6) 0.2298(17)
C28 C 0.6191(16) 0.1177(7) 0.1790(16)
H22 H 0.6047 0.1021 0.1575
C29 C 0.6088(16) 0.1448(8) 0.1595(14)
C30 C 0.6297(17) 0.1676(6) 0.1909(17)
H23 H 0.6227 0.1861 0.1776
C31 C 0.6610(16) 0.1632(7) 0.2417(16)
C32 C 0.6713(16) 0.1360(8) 0.2611(14)
H24 H 0.6926 0.1330 0.2958
N5 N 0.4968(10) 0.1591(4) 0.0290(11)
N6 N 0.5729(15) 0.1474(7) 0.1113(14)
C33 C 0.5743(12) 0.1337(6) 0.0679(15)
H25 H 0.6015 0.1189 0.0636
C34 C 0.5343(10) 0.1402(4) 0.0230(12)
C35 C 0.4568(11) 0.1674(5) -0.0044(12)
C36 C 0.4540(14) 0.1529(6) -0.0607(12)
H26 H 0.4261 0.1581 -0.0890
C37 C 0.4931(16) 0.1317(7) -0.0710(12)
H27 H 0.4918 0.1217 -0.1066
C38 C 0.5320(14) 0.1252(6) -0.0318(14)
H28 H 0.5589 0.1105 -0.0392
C39 C 0.4176(14) 0.1907(7) 0.0088(17)
H29 H 0.4257 0.1977 0.0479
H30 H 0.3773 0.1842 0.0065
H31 H 0.4236 0.2059 -0.0193
N7 N 0.6866(17) 0.1858(6) 0.2707(15)
N8 N 0.7355(10) 0.2276(5) 0.3294(10)
C40 C 0.6588(13) 0.2076(6) 0.2730(12)
H32 H 0.6225 0.2090 0.2535
C41 C 0.6807(10) 0.2314(5) 0.3050(10)
C42 C 0.7568(11) 0.2505(5) 0.3555(11)
C43 C 0.7285(14) 0.2749(5) 0.3694(13)
H33 H 0.7427 0.2874 0.3982
C44 C 0.6754(14) 0.2804(5) 0.3373(16)
H34 H 0.6565 0.2981 0.3383
C45 C 0.6517(12) 0.2557(6) 0.3015(14)
H35 H 0.6180 0.2576 0.2780
C46 C 0.8131(14) 0.2476(7) 0.3927(17)
H36 H 0.8331 0.2302 0.3825
H37 H 0.8028 0.2473 0.4338
H38 H 0.8386 0.2636 0.3851
N9 N 0.4409(14) -0.0770(6) 0.2374(14)
C47 C 0.2689(10) -0.1267(7) 0.2891(17)
H39 H 0.2677 -0.1081 0.2711
H40 H 0.2500 -0.1259 0.3270
H41 H 0.2485 -0.1402 0.2644
C48 C 0.3248(11) -0.1349(5) 0.2960(11)
N10 N 0.3642(10) -0.1152(4) 0.2753(9)
C49 C 0.4234(10) -0.1206(5) 0.2785(9)
C50 C 0.4432(12) -0.1456(6) 0.3025(13)
H42 H 0.4836 -0.1493 0.3047
C51 C 0.4038(15) -0.1652(5) 0.3232(14)
H43 H 0.4174 -0.1823 0.3395
C52 C 0.3446(14) -0.1599(5) 0.3199(12)
H44 H 0.3177 -0.1733 0.3341
C53 C 0.4613(11) -0.1003(6) 0.2589(12)
H45 H 0.5020 -0.1033 0.2610
C54 C 0.4791(15) -0.0546(6) 0.2135(15)
C55 C 0.5336(15) -0.0602(5) 0.1910(15)
H46 H 0.5468 -0.0790 0.1880
C56 C 0.5689(12) -0.0383(7) 0.1728(14)
C57 C 0.5497(15) -0.0108(6) 0.1772(15)
H47 H 0.5738 0.0042 0.1648
C58 C 0.4951(16) -0.0051(5) 0.1997(15)
C59 C 0.4598(12) -0.0270(7) 0.2179(14)
H48 H 0.4225 -0.0232 0.2333
N11 N 0.6203(11) -0.0465(7) 0.1472(16)
C60 C 0.6443(12) -0.0300(6) 0.1134(15)
H49 H 0.6244 -0.0140 0.0993
C61 C 0.7022(12) -0.0357(4) 0.0963(11)
N12 N 0.7264(11) -0.0585(4) 0.1249(10)
C62 C 0.7830(11) -0.0667(5) 0.1129(12)
C63 C 0.8153(12) -0.0520(6) 0.0723(13)
H50 H 0.8540 -0.0576 0.0640
C64 C 0.7910(15) -0.0292(7) 0.0437(13)
H51 H 0.8131 -0.0191 0.0159
C65 C 0.7345(15) -0.0210(5) 0.0557(12)
H52 H 0.7179 -0.0054 0.0362
C66 C 0.8083(14) -0.0900(7) 0.1505(17)
H53 H 0.7781 -0.0975 0.1759
H54 H 0.8402 -0.0825 0.1740
H55 H 0.8229 -0.1051 0.1256
C67 C 0.466(3) 0.0242(10) 0.208(3)
C68 C 0.441(3) 0.0277(11) 0.262(3)
H56 H 0.4356 0.0120 0.2870
C69 C 0.422(3) 0.0541(15) 0.279(2)
H57 H 0.4046 0.0565 0.3163
C70 C 0.429(3) 0.0770(10) 0.243(3)
C71 C 0.455(3) 0.0735(11) 0.189(3)
H58 H 0.4599 0.0892 0.1642
C72 C 0.473(3) 0.0471(15) 0.172(2)
H59 H 0.4908 0.0446 0.1349
C73 C 0.4131(14) 0.1074(5) 0.2332(14)
C74 C 0.3611(14) 0.1117(5) 0.2622(13)
H60 H 0.3402 0.0962 0.2772
C75 C 0.3397(12) 0.1387(7) 0.2692(14)
C76 C 0.3703(14) 0.1615(5) 0.2473(14)
H61 H 0.3557 0.1800 0.2521
C77 C 0.4223(14) 0.1572(5) 0.2183(14)
C78 C 0.4437(12) 0.1301(6) 0.2113(13)
H62 H 0.4792 0.1272 0.1915
C79 C 0.248(2) 0.1322(8) 0.3008(15)
H63 H 0.2448 0.1178 0.2724
C80 C 0.1981(15) 0.1381(6) 0.3453(13)
N13 N 0.2953(18) 0.1483(10) 0.3049(19)
N14 N 0.2092(13) 0.1608(6) 0.3813(13)
C81 C 0.1689(15) 0.1686(7) 0.4230(14)
C82 C 0.1176(15) 0.1535(9) 0.4288(17)
H64 H 0.0901 0.1588 0.4573
C83 C 0.1066(15) 0.1307(9) 0.393(2)
H65 H 0.0715 0.1204 0.3967
C84 C 0.1468(18) 0.1230(7) 0.3510(19)
H66 H 0.1393 0.1074 0.3265
C85 C 0.183(2) 0.1937(9) 0.4504(19)
H67 H 0.2221 0.1996 0.4385
H68 H 0.1826 0.1910 0.4925
H69 H 0.1550 0.2082 0.4396
N15 N 0.4542(15) 0.1785(6) 0.1829(17)
N16 N 0.5141(10) 0.2184(4) 0.1356(11)
C86 C 0.4543(12) 0.2010(7) 0.2089(14)
H70 H 0.4319 0.2039 0.2428
C87 C 0.4904(10) 0.2228(5) 0.1850(11)
C88 C 0.5460(11) 0.2374(5) 0.1087(11)
C89 C 0.5625(13) 0.2622(5) 0.1339(14)
H71 H 0.5936 0.2732 0.1192
C90 C 0.5295(16) 0.2707(5) 0.1844(15)
H72 H 0.5325 0.2889 0.2006
C91 C 0.4895(14) 0.2482(6) 0.2100(12)
H73 H 0.4652 0.2520 0.2422
C92 C 0.5846(17) 0.2313(8) 0.0549(14)
H74 H 0.5725 0.2135 0.0372
H75 H 0.6253 0.2300 0.0670
H76 H 0.5802 0.2465 0.0267
N17 N 0.4011(17) -0.0704(7) 0.4759(17)
C93 C 0.4508(19) -0.1113(8) 0.6582(12)
H77 H 0.4321 -0.0929 0.6609
H78 H 0.4917 -0.1096 0.6693
H79 H 0.4314 -0.1245 0.6843
C94 C 0.4470(12) -0.1204(6) 0.6054(12)
N18 N 0.4318(10) -0.1035(5) 0.5588(12)
C95 C 0.4416(11) -0.1126(6) 0.5025(12)
C96 C 0.4666(15) -0.1387(6) 0.4928(15)
H80 H 0.4733 -0.1449 0.4544
C97 C 0.4818(16) -0.1557(6) 0.5394(18)
H81 H 0.4989 -0.1735 0.5328
C98 C 0.4720(14) -0.1466(6) 0.5957(16)
H82 H 0.4824 -0.1582 0.6275
C99 C 0.4236(16) -0.0943(7) 0.4548(13)
H83 H 0.4273 -0.0987 0.4149
C100 C 0.3803(13) -0.0488(5) 0.4372(12)
C101 C 0.3535(14) -0.0563(4) 0.3854(14)
H84 H 0.3472 -0.0755 0.3766
C102 C 0.3360(14) -0.0357(6) 0.3466(11)
C103 C 0.3453(14) -0.0076(5) 0.3594(13)
H85 H 0.3333 0.0065 0.3329
C104 C 0.3721(14) -0.0001(4) 0.4112(14)
C105 C 0.3897(13) -0.0207(6) 0.4500(11)
H86 H 0.4080 -0.0155 0.4854
N19 N 0.3159(17) -0.0460(8) 0.2923(12)
C106 C 0.2797(15) -0.0313(6) 0.2628(12)
H87 H 0.2640 -0.0145 0.2783
C107 C 0.2642(11) -0.0402(4) 0.2088(12)
N20 N 0.2931(10) -0.0626(4) 0.1834(11)
C108 C 0.2780(13) -0.0713(5) 0.1278(11)
C109 C 0.2340(14) -0.0576(6) 0.0978(12)
H88 H 0.2237 -0.0635 0.0598
C110 C 0.2051(13) -0.0352(7) 0.1233(15)
H89 H 0.1750 -0.0258 0.1027
C111 C 0.2201(12) -0.0265(5) 0.1788(15)
H90 H 0.2004 -0.0112 0.1962
C112 C 0.3197(18) -0.0964(7) 0.1120(16)
H91 H 0.3456 -0.1003 0.1449
H92 H 0.3429 -0.0913 0.0781
H93 H 0.2966 -0.1131 0.1033
C113 C 0.383(3) 0.0299(8) 0.423(3)
C114 C 0.421(2) 0.0369(11) 0.469(2)
H94 H 0.4418 0.0226 0.4881
C115 C 0.426(2) 0.0647(13) 0.486(2)
H95 H 0.4518 0.0695 0.5166
C116 C 0.395(3) 0.0856(8) 0.457(3)
C117 C 0.358(2) 0.0786(11) 0.412(2)
H96 H 0.3369 0.0929 0.3924
C118 C 0.352(2) 0.0508(13) 0.395(2)
H97 H 0.3269 0.0460 0.3639
C119 C 0.4035(15) 0.1142(5) 0.4698(15)
C120 C 0.4374(14) 0.1214(6) 0.5174(14)
H98 H 0.4537 0.1072 0.5413
C121 C 0.4475(14) 0.1495(7) 0.5302(13)
C122 C 0.4237(15) 0.1703(5) 0.4952(15)
H99 H 0.4305 0.1895 0.5039
C123 C 0.3898(14) 0.1631(6) 0.4476(14)
C124 C 0.3797(14) 0.1350(7) 0.4349(13)
H100 H 0.3566 0.1300 0.4023
N21 N 0.4820(12) 0.1593(6) 0.5805(12)
C125 C 0.4821(10) 0.1454(5) 0.6253(13)
H101 H 0.4568 0.1300 0.6311
C126 C 0.5257(9) 0.1548(4) 0.6706(10)
N22 N 0.5579(8) 0.1784(4) 0.6565(9)
C127 C 0.5986(9) 0.1889(5) 0.6954(11)
C128 C 0.6072(11) 0.1757(6) 0.7484(10)
H102 H 0.6350 0.1829 0.7750
C129 C 0.5749(14) 0.1521(6) 0.7626(10)
H103 H 0.5808 0.1431 0.7989
C130 C 0.5342(12) 0.1416(5) 0.7237(12)
H104 H 0.5122 0.1254 0.7334
C131 C 0.6255(13) 0.2139(6) 0.6762(14)
H105 H 0.6116 0.2185 0.6371
H106 H 0.6676 0.2114 0.6756
H107 H 0.6157 0.2293 0.7026
N23 N 0.3584(13) 0.1839(5) 0.4111(10)
N24 N 0.3100(8) 0.2191(3) 0.3357(8)
C132 C 0.3863(10) 0.2049(5) 0.4029(9)
H108 H 0.4215 0.2081 0.4233
C133 C 0.3648(8) 0.2250(4) 0.3613(8)
C134 C 0.2902(8) 0.2381(4) 0.3013(8)
C135 C 0.3182(11) 0.2612(4) 0.2792(9)
H109 H 0.3047 0.2706 0.2455
C136 C 0.3696(11) 0.2702(4) 0.3107(12)
H110 H 0.3877 0.2877 0.3034
C137 C 0.3926(9) 0.2496(4) 0.3563(11)
H111 H 0.4251 0.2540 0.3800
C138 C 0.2358(11) 0.2312(6) 0.2637(13)
H112 H 0.2161 0.2147 0.2797
H113 H 0.2479 0.2272 0.2239
H114 H 0.2093 0.2472 0.2638
N25 N 0.6483(16) -0.0629(6) 0.5178(16)
N26 N 0.7275(11) -0.1006(4) 0.4867(10)
C139 C 0.8244(11) -0.1107(7) 0.4727(19)
H115 H 0.8287 -0.0912 0.4855
H116 H 0.8409 -0.1128 0.4339
H117 H 0.8449 -0.1231 0.4998
C140 C 0.7651(11) -0.1179(5) 0.4713(12)
C141 C 0.6699(11) -0.1082(5) 0.4857(10)
C142 C 0.6517(13) -0.1337(6) 0.4681(14)
H118 H 0.6114 -0.1378 0.4678
C143 C 0.6907(16) -0.1537(5) 0.4504(15)
H119 H 0.6779 -0.1715 0.4370
C144 C 0.7475(15) -0.1474(5) 0.4526(13)
H120 H 0.7759 -0.1610 0.4427
C145 C 0.6278(12) -0.0870(7) 0.5019(14)
H121 H 0.5873 -0.0906 0.5008
C146 C 0.6034(13) -0.0418(5) 0.5326(14)
C147 C 0.5494(14) -0.0457(5) 0.5580(13)
H122 H 0.5367 -0.0640 0.5678
C148 C 0.5141(11) -0.0227(6) 0.5690(13)
C149 C 0.5327(13) 0.0042(5) 0.5547(14)
H123 H 0.5085 0.0199 0.5623
C150 C 0.5866(14) 0.0080(5) 0.5293(13)
C151 C 0.6220(11) -0.0149(6) 0.5183(13)
H124 H 0.6589 -0.0123 0.5009
C152 C 0.4321(11) -0.0192(5) 0.6204(12)
H125 H 0.4494 -0.0017 0.6299
N27 N 0.4619(10) -0.0365(7) 0.5883(14)
N28 N 0.3534(9) -0.0482(4) 0.6158(9)
C153 C 0.3785(10) -0.0244(4) 0.6408(9)
C154 C 0.3019(10) -0.0558(5) 0.6289(11)
C155 C 0.2672(10) -0.0393(6) 0.6701(12)
H126 H 0.2291 -0.0449 0.6807
C156 C 0.2904(13) -0.0168(6) 0.6911(12)
H127 H 0.2664 -0.0052 0.7143
C157 C 0.3515(14) -0.0076(5) 0.6824(12)
H128 H 0.3695 0.0076 0.7021
C158 C 0.2734(13) -0.0801(6) 0.5954(16)
H129 H 0.3021 -0.0889 0.5700
H130 H 0.2411 -0.0729 0.5720
H131 H 0.2587 -0.0940 0.6229
C159 C 0.5974(18) 0.0402(6) 0.5262(18)
C160 C 0.6369(17) 0.0396(6) 0.4808(18)
H132 H 0.6511 0.0221 0.4670
C161 C 0.6556(16) 0.0645(9) 0.4558(15)
H133 H 0.6826 0.0640 0.4248
C162 C 0.6349(18) 0.0900(7) 0.4761(18)
C163 C 0.5954(18) 0.0907(6) 0.5214(18)
H134 H 0.5812 0.1081 0.5352
C164 C 0.5767(16) 0.0658(9) 0.5464(16)
H135 H 0.5497 0.0662 0.5774
C165 C 0.6496(18) 0.1215(6) 0.4719(17)
C166 C 0.6988(17) 0.1274(7) 0.4396(17)
H136 H 0.7234 0.1126 0.4271
C167 C 0.7121(15) 0.1550(9) 0.4254(17)
C168 C 0.6762(19) 0.1767(6) 0.4436(18)
H137 H 0.6853 0.1955 0.4340
C169 C 0.6270(17) 0.1708(7) 0.4759(18)
C170 C 0.6137(15) 0.1432(9) 0.4901(16)
H138 H 0.5801 0.1391 0.5122
N29 N 0.8405(8) 0.1736(3) 0.3149(8)
N30 N 0.7628(9) 0.1609(4) 0.3943(9)
C171 C 0.8105(10) 0.1484(4) 0.3946(9)
H139 H 0.8180 0.1341 0.4223
C172 C 0.8532(8) 0.1556(3) 0.3532(8)
C173 C 0.8755(9) 0.1834(4) 0.2753(9)
C174 C 0.9326(9) 0.1698(5) 0.2704(10)
H140 H 0.9595 0.1755 0.2416
C175 C 0.9460(9) 0.1487(5) 0.3088(11)
H141 H 0.9823 0.1393 0.3061
C176 C 0.9089(9) 0.1414(4) 0.3488(10)
H142 H 0.9184 0.1269 0.3753
C177 C 0.8591(12) 0.2066(5) 0.2369(11)
H143 H 0.8199 0.2129 0.2464
H144 H 0.8601 0.2002 0.1966
H145 H 0.8865 0.2222 0.2421
C178 C 0.5820(13) 0.2105(9) 0.468(2)
H146 H 0.5990 0.2104 0.4304
N31 N 0.5882(16) 0.1921(6) 0.5025(19)
N32 N 0.5173(11) 0.2304(5) 0.5468(12)
C179 C 0.5428(11) 0.2346(5) 0.4908(12)
C180 C 0.4848(11) 0.2512(5) 0.5635(12)
C181 C 0.4647(13) 0.2739(5) 0.5329(15)
H147 H 0.4321 0.2845 0.5451
C182 C 0.4967(16) 0.2808(5) 0.4806(15)
H148 H 0.4910 0.2979 0.4604
C183 C 0.5401(15) 0.2585(6) 0.4602(13)
H149 H 0.5639 0.2615 0.4273
C184 C 0.4470(17) 0.2466(8) 0.6184(15)
H150 H 0.4616 0.2304 0.6400
H151 H 0.4066 0.2433 0.6068
H152 H 0.4490 0.2634 0.6430
Cu1 Cu 0.5028(4) 0.1779(2) 0.1120(4)
Cu2 Cu 0.2889(5) 0.1798(2) 0.3661(5)
Cu3 Cu 0.5366(4) 0.19258(17) 0.5707(4)
Cu4 Cu 0.7587(4) 0.18878(16) 0.3223(4)
Cu5 Cu 0.6736(4) -0.0737(2) 0.1820(4)
Cu6 Cu 0.3487(4) -0.07678(15) 0.2395(4)
Cu7 Cu 0.4065(4) -0.06682(15) 0.5654(4)
Cu8 Cu 0.7361(3) -0.06271(14) 0.5048(4)
loop_
_geom_bond_atom_site_label_1
_geom_bond_atom_site_label_2
_geom_bond_site_symmetry_1
_geom_bond_site_symmetry_2
N1 C2 1_555 1_555
N2 C7 1_555 1_555
C1 H1 1_555 1_555
H2 C1 1_555 1_555
H3 C1 1_555 1_555
C2 C1 1_555 1_555
C3 N1 1_555 1_555
C4 C3 1_555 1_555
H4 C4 1_555 1_555
C5 C4 1_555 1_555
H5 C5 1_555 1_555
C6 C2 1_555 1_555
H6 C6 1_555 1_555
C7 C3 1_555 1_555
H7 C7 1_555 1_555
C8 N2 1_555 1_555
C9 C8 1_555 1_555
H8 C9 1_555 1_555
C10 C9 1_555 1_555
C11 C10 1_555 1_555
H9 C11 1_555 1_555
C12 C11 1_555 1_555
C13 C8 1_555 1_555
H10 C13 1_555 1_555
N3 C10 1_555 1_555
N4 C15 1_555 1_555
C14 N3 1_555 1_555
H11 C14 1_555 1_555
C15 C14 1_555 1_555
C16 N4 1_555 1_555
C17 C16 1_555 1_555
H12 C17 1_555 1_555
C18 C17 1_555 1_555
H13 C18 1_555 1_555
C19 C15 1_555 1_555
H14 C19 1_555 1_555
C20 C16 1_555 1_555
H15 C20 1_555 1_555
H16 C20 1_555 1_555
H17 C20 1_555 1_555
C21 C12 1_555 1_555
C22 C21 1_555 1_555
H18 C22 1_555 1_555
C23 C22 1_555 1_555
H19 C23 1_555 1_555
C24 C23 1_555 1_555
C25 C24 1_555 1_555
H20 C25 1_555 1_555
C26 C21 1_555 1_555
H21 C26 1_555 1_555
C27 C24 1_555 1_555
C28 C27 1_555 1_555
H22 C28 1_555 1_555
C29 C28 1_555 1_555
C30 C29 1_555 1_555
H23 C30 1_555 1_555
C31 C30 1_555 1_555
C32 C27 1_555 1_555
H24 C32 1_555 1_555
N5 C34 1_555 1_555
N6 C29 1_555 1_555
C33 N6 1_555 1_555
H25 C33 1_555 1_555
C34 C33 1_555 1_555
C35 N5 1_555 1_555
C36 C35 1_555 1_555
H26 C36 1_555 1_555
C37 C36 1_555 1_555
H27 C37 1_555 1_555
C38 C34 1_555 1_555
H28 C38 1_555 1_555
C39 C35 1_555 1_555
H29 C39 1_555 1_555
H30 C39 1_555 1_555
H31 C39 1_555 1_555
N7 C31 1_555 1_555
N8 C41 1_555 1_555
C40 N7 1_555 1_555
H32 C40 1_555 1_555
C41 C40 1_555 1_555
C42 N8 1_555 1_555
C43 C42 1_555 1_555
H33 C43 1_555 1_555
C44 C43 1_555 1_555
H34 C44 1_555 1_555
C45 C41 1_555 1_555
H35 C45 1_555 1_555
C46 C42 1_555 1_555
H36 C46 1_555 1_555
H37 C46 1_555 1_555
H38 C46 1_555 1_555
N9 C53 1_555 1_555
C47 H39 1_555 1_555
H40 C47 1_555 1_555
H41 C47 1_555 1_555
C48 C47 1_555 1_555
N10 C48 1_555 1_555
C49 N10 1_555 1_555
C50 C49 1_555 1_555
H42 C50 1_555 1_555
C51 C50 1_555 1_555
H43 C51 1_555 1_555
C52 C48 1_555 1_555
H44 C52 1_555 1_555
C53 C49 1_555 1_555
H45 C53 1_555 1_555
C54 N9 1_555 1_555
C55 C54 1_555 1_555
H46 C55 1_555 1_555
C56 C55 1_555 1_555
C57 C56 1_555 1_555
H47 C57 1_555 1_555
C58 C57 1_555 1_555
C59 C54 1_555 1_555
H48 C59 1_555 1_555
N11 C56 1_555 1_555
C60 N11 1_555 1_555
H49 C60 1_555 1_555
C61 C60 1_555 1_555
N12 C61 1_555 1_555
C62 N12 1_555 1_555
C63 C62 1_555 1_555
H50 C63 1_555 1_555
C64 C63 1_555 1_555
H51 C64 1_555 1_555
C65 C61 1_555 1_555
H52 C65 1_555 1_555
C66 C62 1_555 1_555
H53 C66 1_555 1_555
H54 C66 1_555 1_555
H55 C66 1_555 1_555
C67 C58 1_555 1_555
C68 C67 1_555 1_555
H56 C68 1_555 1_555
C69 C68 1_555 1_555
H57 C69 1_555 1_555
C70 C69 1_555 1_555
C71 C70 1_555 1_555
H58 C71 1_555 1_555
C72 C67 1_555 1_555
H59 C72 1_555 1_555
C73 C70 1_555 1_555
C74 C73 1_555 1_555
H60 C74 1_555 1_555
C75 C74 1_555 1_555
C76 C75 1_555 1_555
H61 C76 1_555 1_555
C77 C76 1_555 1_555
C78 C73 1_555 1_555
H62 C78 1_555 1_555
C79 H63 1_555 1_555
C80 C79 1_555 1_555
N13 C75 1_555 1_555
N14 C80 1_555 1_555
C81 N14 1_555 1_555
C82 C81 1_555 1_555
H64 C82 1_555 1_555
C83 C82 1_555 1_555
H65 C83 1_555 1_555
C84 C80 1_555 1_555
H66 C84 1_555 1_555
C85 C81 1_555 1_555
H67 C85 1_555 1_555
H68 C85 1_555 1_555
H69 C85 1_555 1_555
N15 C77 1_555 1_555
N16 C87 1_555 1_555
C86 N15 1_555 1_555
H70 C86 1_555 1_555
C87 C86 1_555 1_555
C88 N16 1_555 1_555
C89 C88 1_555 1_555
H71 C89 1_555 1_555
C90 C89 1_555 1_555
H72 C90 1_555 1_555
C91 C87 1_555 1_555
H73 C91 1_555 1_555
C92 C88 1_555 1_555
H74 C92 1_555 1_555
H75 C92 1_555 1_555
H76 C92 1_555 1_555
N17 C99 1_555 1_555
C93 H77 1_555 1_555
H78 C93 1_555 1_555
H79 C93 1_555 1_555
C94 C93 1_555 1_555
N18 C94 1_555 1_555
C95 N18 1_555 1_555
C96 C95 1_555 1_555
H80 C96 1_555 1_555
C97 C96 1_555 1_555
H81 C97 1_555 1_555
C98 C94 1_555 1_555
H82 C98 1_555 1_555
C99 C95 1_555 1_555
H83 C99 1_555 1_555
C100 N17 1_555 1_555
C101 C100 1_555 1_555
H84 C101 1_555 1_555
C102 C101 1_555 1_555
C103 C102 1_555 1_555
H85 C103 1_555 1_555
C104 C103 1_555 1_555
C105 C100 1_555 1_555
H86 C105 1_555 1_555
N19 C102 1_555 1_555
C106 N19 1_555 1_555
H87 C106 1_555 1_555
C107 C106 1_555 1_555
N20 C107 1_555 1_555
C108 N20 1_555 1_555
C109 C108 1_555 1_555
H88 C109 1_555 1_555
C110 C109 1_555 1_555
H89 C110 1_555 1_555
C111 C107 1_555 1_555
H90 C111 1_555 1_555
C112 C108 1_555 1_555
H91 C112 1_555 1_555
H92 C112 1_555 1_555
H93 C112 1_555 1_555
C113 C104 1_555 1_555
C114 C113 1_555 1_555
H94 C114 1_555 1_555
C115 C114 1_555 1_555
H95 C115 1_555 1_555
C116 C115 1_555 1_555
C117 C116 1_555 1_555
H96 C117 1_555 1_555
C118 C113 1_555 1_555
H97 C118 1_555 1_555
C119 C116 1_555 1_555
C120 C119 1_555 1_555
H98 C120 1_555 1_555
C121 C120 1_555 1_555
C122 C121 1_555 1_555
H99 C122 1_555 1_555
C123 C122 1_555 1_555
C124 C119 1_555 1_555
H100 C124 1_555 1_555
N21 C121 1_555 1_555
C125 N21 1_555 1_555
H101 C125 1_555 1_555
C126 C125 1_555 1_555
N22 C126 1_555 1_555
C127 N22 1_555 1_555
C128 C127 1_555 1_555
H102 C128 1_555 1_555
C129 C128 1_555 1_555
H103 C129 1_555 1_555
C130 C126 1_555 1_555
H104 C130 1_555 1_555
C131 C127 1_555 1_555
H105 C131 1_555 1_555
H106 C131 1_555 1_555
H107 C131 1_555 1_555
N23 C123 1_555 1_555
N24 C133 1_555 1_555
C132 N23 1_555 1_555
H108 C132 1_555 1_555
C133 C132 1_555 1_555
C134 N24 1_555 1_555
C135 C134 1_555 1_555
H109 C135 1_555 1_555
C136 C135 1_555 1_555
H110 C136 1_555 1_555
C137 C133 1_555 1_555
H111 C137 1_555 1_555
C138 C134 1_555 1_555
H112 C138 1_555 1_555
H113 C138 1_555 1_555
H114 C138 1_555 1_555
N25 C145 1_555 1_555
N26 C140 1_555 1_555
C139 H115 1_555 1_555
H116 C139 1_555 1_555
H117 C139 1_555 1_555
C140 C139 1_555 1_555
C141 N26 1_555 1_555
C142 C141 1_555 1_555
H118 C142 1_555 1_555
C143 C142 1_555 1_555
H119 C143 1_555 1_555
C144 C140 1_555 1_555
H120 C144 1_555 1_555
C145 C141 1_555 1_555
H121 C145 1_555 1_555
C146 N25 1_555 1_555
C147 C146 1_555 1_555
H122 C147 1_555 1_555
C148 C147 1_555 1_555
C149 C148 1_555 1_555
H123 C149 1_555 1_555
C150 C149 1_555 1_555
C151 C146 1_555 1_555
H124 C151 1_555 1_555
C152 H125 1_555 1_555
N27 C148 1_555 1_555
N28 C153 1_555 1_555
C153 C152 1_555 1_555
C154 N28 1_555 1_555
C155 C154 1_555 1_555
H126 C155 1_555 1_555
C156 C155 1_555 1_555
H127 C156 1_555 1_555
C157 C153 1_555 1_555
H128 C157 1_555 1_555
C158 C154 1_555 1_555
H129 C158 1_555 1_555
H130 C158 1_555 1_555
H131 C158 1_555 1_555
C159 C150 1_555 1_555
C160 C159 1_555 1_555
H132 C160 1_555 1_555
C161 C160 1_555 1_555
H133 C161 1_555 1_555
C162 C161 1_555 1_555
C163 C162 1_555 1_555
H134 C163 1_555 1_555
C164 C159 1_555 1_555
H135 C164 1_555 1_555
C165 C162 1_555 1_555
C166 C165 1_555 1_555
H136 C166 1_555 1_555
C167 C166 1_555 1_555
C168 C167 1_555 1_555
H137 C168 1_555 1_555
C169 C168 1_555 1_555
C170 C165 1_555 1_555
H138 C170 1_555 1_555
N29 C172 1_555 1_555
N30 C167 1_555 1_555
C171 N30 1_555 1_555
H139 C171 1_555 1_555
C172 C171 1_555 1_555
C173 N29 1_555 1_555
C174 C173 1_555 1_555
H140 C174 1_555 1_555
C175 C174 1_555 1_555
H141 C175 1_555 1_555
C176 C172 1_555 1_555
H142 C176 1_555 1_555
C177 C173 1_555 1_555
H143 C177 1_555 1_555
H144 C177 1_555 1_555
H145 C177 1_555 1_555
C178 H146 1_555 1_555
N31 C169 1_555 1_555
N32 C179 1_555 1_555
C179 C178 1_555 1_555
C180 N32 1_555 1_555
C181 C180 1_555 1_555
H147 C181 1_555 1_555
C182 C181 1_555 1_555
H148 C182 1_555 1_555
C183 C179 1_555 1_555
H149 C183 1_555 1_555
C184 C180 1_555 1_555
H150 C184 1_555 1_555
H151 C184 1_555 1_555
H152 C184 1_555 1_555
Cu1 N5 1_555 1_555
Cu2 N13 1_555 1_555
Cu3 N21 1_555 1_555
Cu4 N7 1_555 1_555
Cu5 N1 1_555 1_555
Cu6 N9 1_555 1_555
Cu7 N17 1_555 1_555
Cu8 N3 1_555 1_555
Au1 C185 1_555 1_555
Au2 N34 1_555 1_555
Au3 C186 1_555 1_555
C185 N33 1_555 1_555
C186 N36 1_555 1_555
C187 Au1 1_555 1_555
C188 Au3 1_555 1_555
N34 C187 1_555 1_555
N35 Au2 1_555 1_555
N2 Cu5 1_555 1_555
C5 C6 1_555 1_555
C12 C13 1_555 1_555
N4 Cu8 1_555 1_555
C18 C19 1_555 1_555
C25 C26 1_555 1_555
C31 C32 1_555 1_555
N6 Cu1 1_555 1_555
C37 C38 1_555 1_555
N8 Cu4 1_555 1_555
C44 C45 1_555 1_555
N10 Cu6 1_555 1_555
C51 C52 1_555 1_555
C58 C59 1_555 1_555
N11 Cu5 1_555 1_555
N12 Cu5 1_555 1_555
C64 C65 1_555 1_555
C71 C72 1_555 1_555
C77 C78 1_555 1_555
C79 N13 1_555 1_555
N14 Cu2 1_555 1_555
C83 C84 1_555 1_555
N15 Cu1 1_555 1_555
N16 Cu1 1_555 1_555
C90 C91 1_555 1_555
N18 Cu7 1_555 1_555
C97 C98 1_555 1_555
C104 C105 1_555 1_555
N19 Cu6 1_555 1_555
N20 Cu6 1_555 1_555
C110 C111 1_555 1_555
C117 C118 1_555 1_555
C123 C124 1_555 1_555
N22 Cu3 1_555 1_555
C129 C130 1_555 1_555
N23 Cu2 1_555 1_555
N24 Cu2 1_555 1_555
C136 C137 1_555 1_555
N25 Cu8 1_555 1_555
N26 Cu8 1_555 1_555
C143 C144 1_555 1_555
C150 C151 1_555 1_555
C152 N27 1_555 1_555
N27 Cu7 1_555 1_555
N28 Cu7 1_555 1_555
C156 C157 1_555 1_555
C163 C164 1_555 1_555
C169 C170 1_555 1_555
N29 Cu4 1_555 1_555
N30 Cu4 1_555 1_555
C175 C176 1_555 1_555
C178 N31 1_555 1_555
N31 Cu3 1_555 1_555
N32 Cu3 1_555 1_555
C182 C183 1_555 1_555
C188 N35 1_555 1_555

#END
