
#######################################################################
#
#                 Cambridge Crystallographic Data Centre
#                                CCDC 
#
#######################################################################
#
# If this CIF has been generated from an entry in the Cambridge 
# Structural Database, then it will include bibliographic, chemical, 
# crystal, experimental, refinement or atomic coordinate data resulting 
# from the CCDC's data processing and validation procedures.
#
#######################################################################

data_TODGOK
_chemical_formula_moiety         
'C200 H160 Cu8 N32 8+,C4 Au2 Cu1 N4 1-,F24 K1 P4 3-,4(F6 P1 1-),4(C2 H3 N1),2(C4 H10 O1),H2 O1'
_chemical_name_systematic        
"tetrakis(\m~4~-N,N',N'',N'''-(Naphthalene-2,6-diyldibenzene-5,1,3-triyl)tetrakis(1-(6-methylpyridin-2-yl)methanimine))-octa-copper (bis(\m~2~-cyano)-dicyano-copper-di-gold) clathrate tetrakis(hexafluorophosphate)-potassium tetrakis(hexafluorophosphate) acetonitrile diethyl ether solvate monohydrate"
_symmetry_cell_setting           monoclinic
_symmetry_space_group_name_H-M   'C 2/c'
_symmetry_Int_Tables_number      15
_space_group_name_Hall           '-C 2yn'
loop_
_symmetry_equiv_pos_site_id
_symmetry_equiv_pos_as_xyz
1 x,y,z
2 -x,y,1/2-z
3 1/2+x,1/2+y,z
4 1/2-x,1/2+y,1/2-z
5 -x,-y,-z
6 x,-y,1/2+z
7 1/2-x,1/2-y,-z
8 1/2+x,1/2-y,1/2+z
_cell_length_a                   23.215(6)
_cell_length_b                   46.980(12)
_cell_length_c                   22.848(6)
_cell_angle_alpha                90
_cell_angle_beta                 90.171(2)
_cell_angle_gamma                90
_cell_volume                     24918.8
_exptl_crystal_colour            'dark red'
_exptl_crystal_description       block
_cell_formula_units_Z            4
_chemical_properties_physical    air-sensitive
loop_
_atom_site_label
_atom_site_type_symbol
_atom_site_fract_x
_atom_site_fract_y
_atom_site_fract_z
C1 C 0.7865(3) 0.14278(14) 0.1139(3)
C2 C 0.7754(4) 0.11328(15) 0.0326(3)
C3 C 0.8205(4) 0.12744(18) 0.0052(4)
H1 H 0.8317 0.1220 -0.0332
C4 C 0.8490(5) 0.14936(18) 0.0330(4)
H2 H 0.8797 0.1591 0.0142
C5 C 0.8322(4) 0.15695(17) 0.0888(4)
H3 H 0.8516 0.1716 0.1094
C6 C 0.7451(5) 0.0885(2) 0.0035(4)
H4 H 0.7348 0.0743 0.0332
H5 H 0.7708 0.0798 -0.0254
H6 H 0.7101 0.0953 -0.0160
C7 C 0.7649(3) 0.15043(16) 0.1706(3)
H7 H 0.7809 0.1658 0.1922
C8 C 0.6950(3) 0.14272(16) 0.2432(3)
C9 C 0.6733(3) 0.12077(16) 0.2762(3)
H8 H 0.6784 0.1016 0.2639
C10 C 0.6437(3) 0.12680(16) 0.3280(3)
C11 C 0.6367(3) 0.15452(17) 0.3463(3)
H9 H 0.6170 0.1584 0.3817
C12 C 0.6583(3) 0.17674(17) 0.3129(3)
C13 C 0.6877(3) 0.17099(16) 0.2614(3)
H10 H 0.7029 0.1861 0.2386
C14 C 0.6027(4) 0.08179(18) 0.3391(4)
H11 H 0.5989 0.0807 0.2978
C15 C 0.5858(4) 0.05807(19) 0.3761(4)
C16 C 0.5749(5) 0.04191(19) 0.4710(4)
C17 C 0.5553(7) 0.0161(2) 0.4493(5)
H12 H 0.5433 0.0017 0.4760
C18 C 0.5527(7) 0.0106(3) 0.3900(6)
H13 H 0.5422 -0.0077 0.3759
C19 C 0.5661(5) 0.0328(2) 0.3512(5)
H14 H 0.5618 0.0306 0.3101
C20 C 0.5803(6) 0.0472(2) 0.5341(5)
H15 H 0.6212 0.0486 0.5446
H16 H 0.5626 0.0315 0.5558
H17 H 0.5608 0.0651 0.5440
C21 C 0.6509(4) 0.20725(17) 0.3310(3)
C22 C 0.6454(4) 0.22851(16) 0.2905(3)
H18 H 0.6432 0.2234 0.2503
C23 C 0.6430(4) 0.25718(17) 0.3052(3)
C24 C 0.6459(4) 0.26491(16) 0.3644(3)
C25 C 0.6505(4) 0.24289(18) 0.4072(3)
H19 H 0.6515 0.2478 0.4475
C26 C 0.6533(4) 0.21516(17) 0.3913(4)
H20 H 0.6570 0.2009 0.4205
C27 C 0.6367(5) 0.27930(17) 0.2640(3)
H21 H 0.6341 0.2745 0.2237
C28 C 0.6342(4) 0.30674(19) 0.2796(3)
H22 H 0.6304 0.3211 0.2505
C29 C 0.6372(3) 0.31435(16) 0.3394(3)
C30 C 0.6432(3) 0.29408(16) 0.3802(3)
H23 H 0.6457 0.2993 0.4203
C31 C 0.6287(3) 0.34448(16) 0.3571(3)
C32 C 0.6474(3) 0.36744(16) 0.3216(3)
H24 H 0.6664 0.3638 0.2856
C33 C 0.6375(3) 0.39523(16) 0.3398(3)
C34 C 0.6113(3) 0.40133(16) 0.3916(3)
H25 H 0.6058 0.4205 0.4034
C35 C 0.5924(3) 0.37878(16) 0.4276(3)
C36 C 0.6023(3) 0.35061(16) 0.4099(3)
H26 H 0.5906 0.3354 0.4346
C37 C 0.6323(4) 0.44073(18) 0.2975(3)
H27 H 0.5990 0.4444 0.3202
C38 C 0.6545(5) 0.46179(19) 0.2568(4)
C39 C 0.7248(7) 0.4732(2) 0.1880(5)
C40 C 0.6942(9) 0.4975(3) 0.1731(6)
H28 H 0.7080 0.5091 0.1422
C41 C 0.6449(8) 0.5052(2) 0.2014(6)
H29 H 0.6250 0.5223 0.1917
C42 C 0.6244(6) 0.48678(18) 0.2461(4)
H30 H 0.5910 0.4914 0.2680
C43 C 0.7773(8) 0.4648(3) 0.1597(7)
H31 H 0.8011 0.4539 0.1871
H32 H 0.7984 0.4819 0.1472
H33 H 0.7683 0.4531 0.1255
C44 C 0.5660(4) 0.36835(18) 0.5237(3)
H34 H 0.5950 0.3541 0.5258
C45 C 0.5261(4) 0.37221(17) 0.5712(3)
C46 C 0.4465(4) 0.39765(17) 0.6042(3)
C47 C 0.4459(4) 0.3797(2) 0.6545(3)
H35 H 0.4172 0.3825 0.6834
C48 C 0.4850(5) 0.3588(2) 0.6622(4)
H36 H 0.4840 0.3471 0.6962
C49 C 0.5269(4) 0.35442(19) 0.6194(4)
H37 H 0.5548 0.3398 0.6232
C50 C 0.4042(4) 0.42040(19) 0.5954(4)
H38 H 0.4150 0.4317 0.5611
H39 H 0.4034 0.4327 0.6300
H40 H 0.3660 0.4120 0.5892
C51 C 0.6261(3) 0.05770(15) 0.1665(4)
C52 C 0.7197(4) 0.04396(18) 0.1829(5)
C53 C 0.7012(4) 0.0177(2) 0.2030(6)
H41 H 0.7284 0.0040 0.2160
C54 C 0.6432(4) 0.0115(2) 0.2041(6)
H42 H 0.6300 -0.0065 0.2173
C55 C 0.6048(4) 0.0321(2) 0.1855(5)
H43 H 0.5645 0.0286 0.1858
C56 C 0.7822(4) 0.0510(2) 0.1806(6)
H44 H 0.7879 0.0679 0.1564
H45 H 0.8034 0.0349 0.1636
H46 H 0.7965 0.0547 0.2203
C57 C 0.5883(3) 0.08033(17) 0.1444(4)
H47 H 0.5477 0.0778 0.1441
C58 C 0.5752(3) 0.12523(16) 0.1028(4)
C59 C 0.5252(3) 0.11878(16) 0.0722(4)
H48 H 0.5133 0.0996 0.0670
C60 C 0.4929(3) 0.14096(16) 0.0495(3)
C61 C 0.5096(3) 0.16896(16) 0.0586(3)
H49 H 0.4860 0.1839 0.0442
C62 C 0.5601(3) 0.17551(16) 0.0883(3)
C63 C 0.5932(3) 0.15331(16) 0.1101(4)
H50 H 0.6283 0.1573 0.1301
C64 C 0.4204(3) 0.14806(16) -0.0214(4)
H51 H 0.4415 0.1634 -0.0380
N1 N 0.3369(3) 0.11931(12) -0.0153(3)
C65 C 0.2845(4) 0.11148(18) -0.0327(4)
C66 C 0.2577(4) 0.1251(2) -0.0791(5)
H52 H 0.2196 0.1199 -0.0901
C67 C 0.2860(4) 0.1459(2) -0.1093(4)
H53 H 0.2684 0.1543 -0.1426
C68 C 0.3400(4) 0.15458(18) -0.0915(4)
H54 H 0.3599 0.1694 -0.1111
C69 C 0.2554(4) 0.0886(2) 0.0001(5)
H55 H 0.2843 0.0754 0.0156
H56 H 0.2291 0.0784 -0.0260
H57 H 0.2337 0.0970 0.0326
C70 C 0.5779(3) 0.20574(16) 0.0954(3)
C71 C 0.5386(4) 0.22711(17) 0.1006(5)
H58 H 0.4988 0.2224 0.1017
C72 C 0.5550(4) 0.25581(16) 0.1043(4)
C73 C 0.6137(3) 0.26330(16) 0.1026(3)
C74 C 0.6540(4) 0.24106(16) 0.0978(4)
H59 H 0.6939 0.2455 0.0969
C75 C 0.6372(4) 0.21359(18) 0.0947(4)
H60 H 0.6656 0.1991 0.0919
C76 C 0.5143(4) 0.27778(18) 0.1104(5)
H61 H 0.4745 0.2732 0.1131
C77 C 0.5312(4) 0.30577(18) 0.1124(4)
H62 H 0.5031 0.3204 0.1143
C78 C 0.5899(3) 0.31275(15) 0.1118(3)
C79 C 0.6301(4) 0.29190(16) 0.1055(3)
H63 H 0.6697 0.2968 0.1031
C80 C 0.6076(3) 0.34301(15) 0.1202(3)
C81 C 0.6591(4) 0.34913(16) 0.1477(3)
H64 H 0.6839 0.3341 0.1597
C82 C 0.6745(3) 0.37708(15) 0.1577(3)
C83 C 0.6407(4) 0.39933(16) 0.1391(3)
H65 H 0.6520 0.4185 0.1462
C84 C 0.5892(3) 0.39331(15) 0.1097(3)
C85 C 0.5729(3) 0.36536(15) 0.0999(3)
H66 H 0.5382 0.3613 0.0794
C86 C 0.7695(4) 0.36850(17) 0.1898(4)
H67 H 0.7713 0.3525 0.1645
C87 C 0.8183(4) 0.3751(2) 0.2293(4)
C88 C 0.8499(5) 0.4071(3) 0.2999(4)
C89 C 0.9018(5) 0.3903(4) 0.3033(5)
H68 H 0.9310 0.3955 0.3305
C90 C 0.9094(5) 0.3681(4) 0.2695(6)
H69 H 0.9446 0.3578 0.2716
C91 C 0.8664(4) 0.3593(3) 0.2302(5)
H70 H 0.8710 0.3431 0.2058
C92 C 0.8384(6) 0.4322(3) 0.3365(5)
H71 H 0.8118 0.4450 0.3159
H72 H 0.8746 0.4423 0.3445
H73 H 0.8210 0.4262 0.3735
C93 C 0.5478(4) 0.43861(16) 0.1144(3)
H74 H 0.5685 0.4420 0.1497
C94 C 0.5090(4) 0.45989(16) 0.0906(4)
C95 C 0.4452(5) 0.47165(18) 0.0163(4)
C96 C 0.4309(5) 0.49626(19) 0.0442(5)
H75 H 0.4029 0.5086 0.0275
C97 C 0.4570(6) 0.5034(2) 0.0970(5)
H76 H 0.4473 0.5206 0.1165
C98 C 0.4972(5) 0.48501(18) 0.1207(4)
H77 H 0.5162 0.4894 0.1565
C99 C 0.4171(5) 0.4625(2) -0.0400(4)
H78 H 0.4456 0.4531 -0.0649
H79 H 0.4017 0.4793 -0.0603
H80 H 0.3856 0.4493 -0.0315
N2 N 0.7590(3) 0.12090(12) 0.0866(3)
N3 N 0.7223(2) 0.13545(13) 0.1911(3)
N4 N 0.6226(3) 0.10407(13) 0.3636(3)
N5 N 0.5890(3) 0.06279(14) 0.4341(3)
N6 N 0.6589(3) 0.41735(14) 0.3017(3)
N7 N 0.7037(4) 0.45508(15) 0.2288(3)
N8 N 0.5618(3) 0.38437(13) 0.4787(3)
N9 N 0.4866(3) 0.39314(14) 0.5637(2)
N10 N 0.6822(3) 0.06361(14) 0.1658(3)
N11 N 0.6106(3) 0.10331(13) 0.1257(3)
N12 N 0.4411(3) 0.13363(13) 0.0210(3)
C100 C 0.3642(3) 0.14061(17) -0.0435(4)
N13 N 0.8077(3) 0.39899(17) 0.2628(3)
N14 N 0.7259(3) 0.38404(14) 0.1900(3)
N15 N 0.5533(3) 0.41506(13) 0.0867(2)
N16 N 0.4843(3) 0.45343(13) 0.0388(3)
Cu1 Cu 0.69807(4) 0.103419(19) 0.13623(4)
Cu2 Cu 0.61454(4) 0.10264(2) 0.45195(4)
Cu3 Cu 0.73133(5) 0.41605(2) 0.25013(4)
Cu4 Cu 0.50290(4) 0.413844(19) 0.01265(4)
C1A C 0.2135(3) 0.14278(14) 0.3861(3)
C2A C 0.2246(4) 0.11328(15) 0.4674(3)
C3A C 0.1795(4) 0.12744(18) 0.4948(4)
H1A H 0.1683 0.1220 0.5332
C4A C 0.1510(5) 0.14936(18) 0.4670(4)
H2A H 0.1203 0.1591 0.4858
C5A C 0.1678(4) 0.15695(17) 0.4112(4)
H3A H 0.1484 0.1716 0.3906
C6A C 0.2549(5) 0.0885(2) 0.4965(4)
H4A H 0.2652 0.0743 0.4668
H5A H 0.2292 0.0798 0.5254
H6A H 0.2899 0.0953 0.5160
C7A C 0.2351(3) 0.15043(16) 0.3294(3)
H7A H 0.2191 0.1658 0.3078
C8A C 0.3050(3) 0.14272(16) 0.2568(3)
C9A C 0.3267(3) 0.12077(16) 0.2238(3)
H8A H 0.3216 0.1016 0.2361
C10A C 0.3563(3) 0.12680(16) 0.1720(3)
C11A C 0.3633(3) 0.15452(17) 0.1537(3)
H9A H 0.3830 0.1584 0.1183
C12A C 0.3417(3) 0.17674(17) 0.1871(3)
C13A C 0.3123(3) 0.17099(16) 0.2386(3)
H10A H 0.2971 0.1861 0.2614
C14A C 0.3973(4) 0.08179(18) 0.1609(4)
H11A H 0.4011 0.0807 0.2022
C15A C 0.4142(4) 0.05807(19) 0.1239(4)
C16A C 0.4251(5) 0.04191(19) 0.0290(4)
C17A C 0.4447(7) 0.0161(2) 0.0507(5)
H12A H 0.4567 0.0017 0.0240
C18A C 0.4473(7) 0.0106(3) 0.1100(6)
H13A H 0.4578 -0.0077 0.1241
C19A C 0.4339(5) 0.0328(2) 0.1488(5)
H14A H 0.4382 0.0306 0.1899
C20A C 0.4197(6) 0.0472(2) -0.0341(5)
H15A H 0.3788 0.0486 -0.0446
H16A H 0.4374 0.0315 -0.0558
H17A H 0.4392 0.0651 -0.0440
C21A C 0.3491(4) 0.20725(17) 0.1690(3)
C22A C 0.3546(4) 0.22851(16) 0.2095(3)
H18A H 0.3568 0.2234 0.2497
C23A C 0.3570(4) 0.25718(17) 0.1948(3)
C24A C 0.3541(4) 0.26491(16) 0.1356(3)
C25A C 0.3495(4) 0.24289(18) 0.0928(3)
H19A H 0.3485 0.2478 0.0525
C26A C 0.3467(4) 0.21516(17) 0.1087(4)
H20A H 0.3430 0.2009 0.0795
C27A C 0.3633(5) 0.27930(17) 0.2360(3)
H21A H 0.3659 0.2745 0.2763
C28A C 0.3658(4) 0.30674(19) 0.2204(3)
H22A H 0.3696 0.3211 0.2495
C29A C 0.3628(3) 0.31435(16) 0.1606(3)
C30A C 0.3568(3) 0.29408(16) 0.1198(3)
H23A H 0.3543 0.2993 0.0797
C31A C 0.3713(3) 0.34448(16) 0.1429(3)
C32A C 0.3526(3) 0.36744(16) 0.1784(3)
H24A H 0.3336 0.3638 0.2144
C33A C 0.3625(3) 0.39523(16) 0.1602(3)
C34A C 0.3887(3) 0.40133(16) 0.1084(3)
H25A H 0.3942 0.4205 0.0966
C35A C 0.4076(3) 0.37878(16) 0.0724(3)
C36A C 0.3977(3) 0.35061(16) 0.0901(3)
H26A H 0.4094 0.3354 0.0654
C37A C 0.3677(4) 0.44073(18) 0.2025(3)
H27A H 0.4010 0.4444 0.1798
C38A C 0.3455(5) 0.46179(19) 0.2432(4)
C39A C 0.2752(7) 0.4732(2) 0.3120(5)
C40A C 0.3058(9) 0.4975(3) 0.3269(6)
H28A H 0.2920 0.5091 0.3578
C41A C 0.3551(8) 0.5052(2) 0.2986(6)
H29A H 0.3750 0.5223 0.3083
C42A C 0.3756(6) 0.48678(18) 0.2539(4)
H30A H 0.4090 0.4914 0.2320
C43A C 0.2227(8) 0.4648(3) 0.3403(7)
H31A H 0.1989 0.4539 0.3129
H32A H 0.2016 0.4819 0.3528
H33A H 0.2317 0.4531 0.3745
C44A C 0.4340(4) 0.36835(18) -0.0237(3)
H34A H 0.4050 0.3541 -0.0258
C45A C 0.4739(4) 0.37221(17) -0.0712(3)
C46A C 0.5535(4) 0.39765(17) -0.1042(3)
C47A C 0.5541(4) 0.3797(2) -0.1545(3)
H35A H 0.5828 0.3825 -0.1834
C48A C 0.5150(5) 0.3588(2) -0.1622(4)
H36A H 0.5160 0.3471 -0.1962
C49A C 0.4731(4) 0.35442(19) -0.1194(4)
H37A H 0.4452 0.3398 -0.1232
C50A C 0.5958(4) 0.42040(19) -0.0954(4)
H38A H 0.5850 0.4317 -0.0611
H39A H 0.5966 0.4327 -0.1300
H40A H 0.6340 0.4120 -0.0892
C51A C 0.3739(3) 0.05770(15) 0.3335(4)
C52A C 0.2803(4) 0.04396(18) 0.3171(5)
C53A C 0.2988(4) 0.0177(2) 0.2970(6)
H41A H 0.2716 0.0040 0.2840
C54A C 0.3568(4) 0.0115(2) 0.2959(6)
H42A H 0.3700 -0.0065 0.2827
C55A C 0.3952(4) 0.0321(2) 0.3145(5)
H43A H 0.4355 0.0286 0.3142
C56A C 0.2178(4) 0.0510(2) 0.3194(6)
H44A H 0.2121 0.0679 0.3436
H45A H 0.1966 0.0349 0.3364
H46A H 0.2035 0.0547 0.2797
C57A C 0.4117(3) 0.08033(17) 0.3556(4)
H47A H 0.4523 0.0778 0.3559
C58A C 0.4248(3) 0.12523(16) 0.3972(4)
C59A C 0.4748(3) 0.11878(16) 0.4278(4)
H48A H 0.4867 0.0996 0.4330
C60A C 0.5071(3) 0.14096(16) 0.4505(3)
C61A C 0.4904(3) 0.16896(16) 0.4414(3)
H49A H 0.5140 0.1839 0.4558
C62A C 0.4399(3) 0.17551(16) 0.4117(3)
C63A C 0.4068(3) 0.15331(16) 0.3899(4)
H50A H 0.3717 0.1573 0.3699
C64A C 0.5796(3) 0.14806(16) 0.5214(4)
H51A H 0.5585 0.1634 0.5380
N1A N 0.6631(3) 0.11931(12) 0.5153(3)
C65A C 0.7155(4) 0.11148(18) 0.5327(4)
C66A C 0.7423(4) 0.1251(2) 0.5791(5)
H52A H 0.7804 0.1199 0.5901
C67A C 0.7140(4) 0.1459(2) 0.6093(4)
H53A H 0.7316 0.1543 0.6426
C68A C 0.6600(4) 0.15458(18) 0.5915(4)
H54A H 0.6401 0.1694 0.6111
C69A C 0.7446(4) 0.0886(2) 0.4999(5)
H55A H 0.7157 0.0754 0.4844
H56A H 0.7709 0.0784 0.5260
H57A H 0.7663 0.0970 0.4674
C70A C 0.4221(3) 0.20574(16) 0.4046(3)
C71A C 0.4614(4) 0.22711(17) 0.3994(5)
H58A H 0.5012 0.2224 0.3983
C72A C 0.4450(4) 0.25581(16) 0.3957(4)
C73A C 0.3863(3) 0.26330(16) 0.3974(3)
C74A C 0.3460(4) 0.24106(16) 0.4022(4)
H59A H 0.3061 0.2455 0.4031
C75A C 0.3628(4) 0.21359(18) 0.4053(4)
H60A H 0.3344 0.1991 0.4081
C76A C 0.4857(4) 0.27778(18) 0.3896(5)
H61A H 0.5255 0.2732 0.3869
C77A C 0.4688(4) 0.30577(18) 0.3876(4)
H62A H 0.4969 0.3204 0.3857
C78A C 0.4101(3) 0.31275(15) 0.3882(3)
C79A C 0.3699(4) 0.29190(16) 0.3945(3)
H63A H 0.3303 0.2968 0.3969
C80A C 0.3924(3) 0.34301(15) 0.3798(3)
C81A C 0.3409(4) 0.34913(16) 0.3523(3)
H64A H 0.3161 0.3341 0.3403
C82A C 0.3255(3) 0.37708(15) 0.3423(3)
C83A C 0.3593(4) 0.39933(16) 0.3609(3)
H65A H 0.3480 0.4185 0.3538
C84A C 0.4108(3) 0.39331(15) 0.3903(3)
C85A C 0.4271(3) 0.36536(15) 0.4001(3)
H66A H 0.4618 0.3613 0.4206
C86A C 0.2305(4) 0.36850(17) 0.3102(4)
H67A H 0.2287 0.3525 0.3355
C87A C 0.1817(4) 0.3751(2) 0.2707(4)
C88A C 0.1501(5) 0.4071(3) 0.2001(4)
C89A C 0.0982(5) 0.3903(4) 0.1967(5)
H68A H 0.0690 0.3955 0.1695
C90A C 0.0906(5) 0.3681(4) 0.2305(6)
H69A H 0.0554 0.3578 0.2284
C91A C 0.1336(4) 0.3593(3) 0.2698(5)
H70A H 0.1290 0.3431 0.2942
C92A C 0.1616(6) 0.4322(3) 0.1635(5)
H71A H 0.1882 0.4450 0.1841
H72A H 0.1254 0.4423 0.1555
H73A H 0.1790 0.4262 0.1265
C93A C 0.4522(4) 0.43861(16) 0.3856(3)
H74A H 0.4315 0.4420 0.3503
C94A C 0.4910(4) 0.45989(16) 0.4094(4)
C95A C 0.5548(5) 0.47165(18) 0.4837(4)
C96A C 0.5691(5) 0.49626(19) 0.4558(5)
H75A H 0.5971 0.5086 0.4725
C97A C 0.5430(6) 0.5034(2) 0.4030(5)
H76A H 0.5527 0.5206 0.3835
C98A C 0.5028(5) 0.48501(18) 0.3793(4)
H77A H 0.4838 0.4894 0.3435
C99A C 0.5829(5) 0.4625(2) 0.5400(4)
H78A H 0.5544 0.4531 0.5649
H79A H 0.5983 0.4793 0.5603
H80A H 0.6144 0.4493 0.5315
N2A N 0.2410(3) 0.12090(12) 0.4134(3)
N3A N 0.2777(2) 0.13545(13) 0.3089(3)
N4A N 0.3774(3) 0.10407(13) 0.1364(3)
N5A N 0.4110(3) 0.06279(14) 0.0659(3)
N6A N 0.3411(3) 0.41735(14) 0.1983(3)
N7A N 0.2963(4) 0.45508(15) 0.2712(3)
N8A N 0.4382(3) 0.38437(13) 0.0213(3)
N9A N 0.5134(3) 0.39314(14) -0.0637(2)
N10A N 0.3178(3) 0.06361(14) 0.3342(3)
N11A N 0.3894(3) 0.10331(13) 0.3743(3)
N12A N 0.5589(3) 0.13363(13) 0.4790(3)
C100A C 0.6358(3) 0.14061(17) 0.5435(4)
N13A N 0.1923(3) 0.39899(17) 0.2372(3)
N14A N 0.2741(3) 0.38404(14) 0.3100(3)
N15A N 0.4467(3) 0.41506(13) 0.4133(2)
N16A N 0.5157(3) 0.45343(13) 0.4612(3)
Cu1A Cu 0.30193(4) 0.103419(19) 0.36377(4)
Cu2A Cu 0.38546(4) 0.10264(2) 0.04805(4)
Cu3A Cu 0.26867(5) 0.41605(2) 0.24987(4)
Cu4A Cu 0.49710(4) 0.413844(19) 0.48735(4)
C101 C 0.5000 0.1322(4) 0.2500
C102 C 0.5000 0.2069(4) 0.2500
C103 C 0.5000 0.3453(3) 0.2500
C104 C 0.5000 0.4188(4) 0.2500
N17 N 0.5000 0.0989(3) 0.2500
N18 N 0.5000 0.2334(3) 0.2500
N19 N 0.5000 0.3089(3) 0.2500
N20 N 0.5000 0.4423(3) 0.2500
Cu5 Cu 0.5000 0.27124(4) 0.2500
Au1 Au 0.5000 0.165659(12) 0.2500
Au2 Au 0.5000 0.376249(12) 0.2500
F1 F 0.0000 0.01721(15) 0.2500
F2 F 0.0000 0.08536(15) 0.2500
F3 F 0.0232(4) 0.05093(13) 0.1841(2)
F4 F -0.0649(4) 0.05089(12) 0.2263(3)
P1 P 0.0000 0.05123(7) 0.2500
F3A F -0.0232(4) 0.05093(13) 0.3159(2)
F4A F 0.0649(4) 0.05089(12) 0.2737(3)
F5 F 0.0000 0.42778(14) 0.2500
F6 F 0.0000 0.49534(13) 0.2500
F7 F 0.0260(2) 0.46184(12) 0.1849(3)
F8 F -0.0638(2) 0.46168(11) 0.2236(3)
P2 P 0.0000 0.46130(6) 0.2500
F7A F -0.0260(2) 0.46184(12) 0.3151(3)
F8A F 0.0638(2) 0.46168(11) 0.2764(3)
F9 F 0.0006(8) 0.2625(3) 0.3655(7)
F10 F -0.0086(8) 0.3304(3) 0.3715(7)
F11 F -0.0482(8) 0.2927(3) 0.3228(7)
F12 F 0.0281(7) 0.2968(3) 0.4267(7)
F13 F 0.0426(7) 0.2964(3) 0.3258(7)
F14 F -0.0611(7) 0.2903(3) 0.4146(6)
K1 K 0.0000 0.25127(9) 0.2500
P3 P 0.0004(4) 0.29799(16) 0.3681(2)
F15 F -0.1225(4) 0.17132(16) 0.2366(5)
F16 F -0.1132(4) 0.2374(2) 0.2585(5)
F17 F -0.1790(5) 0.2052(2) 0.2726(7)
F18 F -0.0719(7) 0.2082(2) 0.2003(6)
F19 F -0.0769(8) 0.2003(3) 0.2938(8)
F20 F -0.1552(8) 0.2101(3) 0.1889(7)
P4 P -0.11909(14) 0.20473(7) 0.24530(18)
F9A F -0.0006(8) 0.2625(3) 0.1345(7)
F10A F 0.0086(8) 0.3304(3) 0.1285(7)
F11A F 0.0482(8) 0.2927(3) 0.1772(7)
F12A F -0.0281(7) 0.2968(3) 0.0733(7)
F13A F -0.0426(7) 0.2964(3) 0.1742(7)
F14A F 0.0611(7) 0.2903(3) 0.0854(6)
P3A P -0.0004(4) 0.29799(16) 0.1319(2)
F15A F 0.1225(4) 0.17132(16) 0.2634(5)
F16A F 0.1132(4) 0.2374(2) 0.2415(5)
F17A F 0.1790(5) 0.2052(2) 0.2274(7)
F18A F 0.0719(7) 0.2082(2) 0.2997(6)
F19A F 0.0769(8) 0.2003(3) 0.2062(8)
F20A F 0.1552(8) 0.2101(3) 0.3111(7)
P4A P 0.11909(14) 0.20473(7) 0.25470(18)
P5 P 0.7594(4) -0.00485(14) 0.0269(4)
F21 F 0.7123(5) 0.0187(2) 0.0413(7)
F22 F 0.7251(6) -0.0274(2) 0.0669(6)
F23 F 0.7959(6) 0.0044(3) 0.0830(5)
F24 F 0.7220(6) -0.0148(3) -0.0284(5)
F25 F 0.7928(6) 0.0174(2) -0.0126(6)
F26 F 0.8061(5) -0.0289(2) 0.0133(6)
O1 O 0.1805(8) 0.1305(4) 0.1072(7)
C105 C 0.2076(12) 0.1559(5) 0.1099(9)
H81 H 0.2455 0.1537 0.1293
H82 H 0.1843 0.1695 0.1332
C106 C 0.2159(12) 0.1676(5) 0.0482(9)
H83 H 0.1987 0.1544 0.0198
H84 H 0.2571 0.1696 0.0403
H85 H 0.1971 0.1862 0.0449
C107 C 0.1734(12) 0.1215(4) 0.1674(8)
H86 H 0.1442 0.1331 0.1878
H87 H 0.2103 0.1225 0.1893
C108 C 0.1534(12) 0.0909(4) 0.1603(12)
H88 H 0.1469 0.0825 0.1989
H89 H 0.1830 0.0800 0.1396
H90 H 0.1175 0.0905 0.1377
N21 N 0.7789(9) 0.2896(5) 0.2272(8)
C109 C 0.7719(10) 0.2958(6) 0.1801(9)
C110 C 0.7905(12) 0.3069(6) 0.1180(8)
H91 H 0.7564 0.3132 0.0962
H92 H 0.8095 0.2915 0.0965
H93 H 0.8173 0.3229 0.1225
N22 N 0.7816(10) 0.2176(5) 0.0291(12)
C111 C 0.8151(11) 0.2325(6) 0.0457(14)
C112 C 0.8447(13) 0.2586(6) 0.0752(14)
H94 H 0.8782 0.2644 0.0520
H95 H 0.8574 0.2534 0.1148
H96 H 0.8173 0.2744 0.0774
O2 O 0.6770(12) 0.1626(6) -0.0353(13)
loop_
_geom_bond_atom_site_label_1
_geom_bond_atom_site_label_2
_geom_bond_site_symmetry_1
_geom_bond_site_symmetry_2
C1 C5 1_555 1_555
C2 C3 1_555 1_555
C3 H1 1_555 1_555
C4 C3 1_555 1_555
H2 C4 1_555 1_555
C5 C4 1_555 1_555
H3 C5 1_555 1_555
C6 C2 1_555 1_555
H4 C6 1_555 1_555
H5 C6 1_555 1_555
H6 C6 1_555 1_555
C7 C1 1_555 1_555
H7 C7 1_555 1_555
C8 C9 1_555 1_555
C9 H8 1_555 1_555
C10 C9 1_555 1_555
C11 C10 1_555 1_555
H9 C11 1_555 1_555
C12 C11 1_555 1_555
C13 C8 1_555 1_555
H10 C13 1_555 1_555
C14 H11 1_555 1_555
C15 C14 1_555 1_555
C16 C17 1_555 1_555
C17 H12 1_555 1_555
C18 C17 1_555 1_555
H13 C18 1_555 1_555
C19 C15 1_555 1_555
H14 C19 1_555 1_555
C20 C16 1_555 1_555
H15 C20 1_555 1_555
H16 C20 1_555 1_555
H17 C20 1_555 1_555
C21 C12 1_555 1_555
C22 C21 1_555 1_555
H18 C22 1_555 1_555
C23 C22 1_555 1_555
C24 C23 1_555 1_555
C25 C24 1_555 1_555
H19 C25 1_555 1_555
C26 C21 1_555 1_555
H20 C26 1_555 1_555
C27 C23 1_555 1_555
H21 C27 1_555 1_555
C28 C27 1_555 1_555
H22 C28 1_555 1_555
C29 C28 1_555 1_555
C30 C24 1_555 1_555
H23 C30 1_555 1_555
C31 C29 1_555 1_555
C32 C31 1_555 1_555
H24 C32 1_555 1_555
C33 C32 1_555 1_555
C34 C33 1_555 1_555
H25 C34 1_555 1_555
C35 C34 1_555 1_555
C36 C31 1_555 1_555
H26 C36 1_555 1_555
C37 H27 1_555 1_555
C38 C37 1_555 1_555
C39 C40 1_555 1_555
C40 H28 1_555 1_555
C41 C40 1_555 1_555
H29 C41 1_555 1_555
C42 C38 1_555 1_555
H30 C42 1_555 1_555
C43 C39 1_555 1_555
H31 C43 1_555 1_555
H32 C43 1_555 1_555
H33 C43 1_555 1_555
C44 H34 1_555 1_555
C45 C44 1_555 1_555
C46 C47 1_555 1_555
C47 H35 1_555 1_555
C48 C47 1_555 1_555
H36 C48 1_555 1_555
C49 C45 1_555 1_555
H37 C49 1_555 1_555
C50 C46 1_555 1_555
H38 C50 1_555 1_555
H39 C50 1_555 1_555
H40 C50 1_555 1_555
C51 C55 1_555 1_555
C52 C53 1_555 1_555
C53 H41 1_555 1_555
C54 C53 1_555 1_555
H42 C54 1_555 1_555
C55 C54 1_555 1_555
H43 C55 1_555 1_555
C56 C52 1_555 1_555
H44 C56 1_555 1_555
H45 C56 1_555 1_555
H46 C56 1_555 1_555
C57 C51 1_555 1_555
H47 C57 1_555 1_555
C58 C59 1_555 1_555
C59 H48 1_555 1_555
C60 C59 1_555 1_555
C61 C60 1_555 1_555
H49 C61 1_555 1_555
C62 C61 1_555 1_555
C63 C58 1_555 1_555
H50 C63 1_555 1_555
C64 H51 1_555 1_555
N1 C65 1_555 1_555
C65 C66 1_555 1_555
C66 H52 1_555 1_555
C67 C66 1_555 1_555
H53 C67 1_555 1_555
C68 C67 1_555 1_555
H54 C68 1_555 1_555
C69 C65 1_555 1_555
H55 C69 1_555 1_555
H56 C69 1_555 1_555
H57 C69 1_555 1_555
C70 C62 1_555 1_555
C71 C70 1_555 1_555
H58 C71 1_555 1_555
C72 C71 1_555 1_555
C73 C72 1_555 1_555
C74 C73 1_555 1_555
H59 C74 1_555 1_555
C75 C70 1_555 1_555
H60 C75 1_555 1_555
C76 C72 1_555 1_555
H61 C76 1_555 1_555
C77 C76 1_555 1_555
H62 C77 1_555 1_555
C78 C77 1_555 1_555
C79 C73 1_555 1_555
H63 C79 1_555 1_555
C80 C78 1_555 1_555
C81 C80 1_555 1_555
H64 C81 1_555 1_555
C82 C81 1_555 1_555
C83 C82 1_555 1_555
H65 C83 1_555 1_555
C84 C83 1_555 1_555
C85 C80 1_555 1_555
H66 C85 1_555 1_555
C86 H67 1_555 1_555
C87 C86 1_555 1_555
C88 C89 1_555 1_555
C89 H68 1_555 1_555
C90 C89 1_555 1_555
H69 C90 1_555 1_555
C91 C87 1_555 1_555
H70 C91 1_555 1_555
C92 C88 1_555 1_555
H71 C92 1_555 1_555
H72 C92 1_555 1_555
H73 C92 1_555 1_555
C93 H74 1_555 1_555
C94 C93 1_555 1_555
C95 C96 1_555 1_555
C96 H75 1_555 1_555
C97 C96 1_555 1_555
H76 C97 1_555 1_555
C98 C94 1_555 1_555
H77 C98 1_555 1_555
C99 C95 1_555 1_555
H78 C99 1_555 1_555
H79 C99 1_555 1_555
H80 C99 1_555 1_555
N2 C1 1_555 1_555
N3 C7 1_555 1_555
N4 C10 1_555 1_555
N5 C15 1_555 1_555
N6 C33 1_555 1_555
N7 C38 1_555 1_555
N8 C35 1_555 1_555
N9 C45 1_555 1_555
N10 C51 1_555 1_555
N11 C57 1_555 1_555
N12 C60 1_555 1_555
C100 C64 1_555 1_555
N13 C87 1_555 1_555
N14 C82 1_555 1_555
N15 C84 1_555 1_555
N16 C94 1_555 1_555
Cu1 N2 1_555 1_555
Cu2 N4 1_555 1_555
Cu3 N6 1_555 1_555
Cu4 N15 1_555 1_555
C101 N17 1_555 1_555
C102 N18 1_555 1_555
C103 N19 1_555 1_555
C104 N20 1_555 1_555
N18 Cu5 1_555 1_555
N19 Cu5 1_555 1_555
Au1 C101 1_555 1_555
Au2 C103 1_555 1_555
F1 P1 1_555 1_555
F2 P1 1_555 1_555
F3 P1 1_555 1_555
F4 P1 1_555 1_555
P1 F3A 1_555 1_555
F5 P2 1_555 1_555
F6 P2 1_555 1_555
F7 P2 1_555 1_555
F8 P2 1_555 1_555
P2 F7A 1_555 1_555
F9 K1 1_555 1_555
F10 P3 1_555 1_555
F11 K1 1_555 1_555
F12 P3 1_555 1_555
F13 K1 1_555 1_555
F14 P3 1_555 1_555
K1 F16 1_555 1_555
P3 F9 1_555 1_555
F15 P4 1_555 1_555
F16 P4 1_555 1_555
F17 P4 1_555 1_555
F18 K1 1_555 1_555
F19 K1 1_555 1_555
F20 P4 1_555 1_555
P4 F18 1_555 1_555
P5 F21 1_555 1_555
F22 P5 1_555 1_555
F23 P5 1_555 1_555
F24 P5 1_555 1_555
F25 P5 1_555 1_555
F26 P5 1_555 1_555
O1 C105 1_555 1_555
C105 H81 1_555 1_555
H82 C105 1_555 1_555
C106 C105 1_555 1_555
H83 C106 1_555 1_555
H84 C106 1_555 1_555
H85 C106 1_555 1_555
C107 O1 1_555 1_555
H86 C107 1_555 1_555
H87 C107 1_555 1_555
C108 C107 1_555 1_555
H88 C108 1_555 1_555
H89 C108 1_555 1_555
H90 C108 1_555 1_555
N21 C109 1_555 1_555
C109 C110 1_555 1_555
C110 H91 1_555 1_555
H92 C110 1_555 1_555
H93 C110 1_555 1_555
N22 C111 1_555 1_555
C111 C112 1_555 1_555
C112 H94 1_555 1_555
H95 C112 1_555 1_555
H96 C112 1_555 1_555
C1A C5A 1_555 1_555
C2A C3A 1_555 1_555
C3A H1A 1_555 1_555
C4A C3A 1_555 1_555
H2A C4A 1_555 1_555
C5A C4A 1_555 1_555
H3A C5A 1_555 1_555
C6A C2A 1_555 1_555
H4A C6A 1_555 1_555
H5A C6A 1_555 1_555
H6A C6A 1_555 1_555
C7A C1A 1_555 1_555
H7A C7A 1_555 1_555
C8A C9A 1_555 1_555
C9A H8A 1_555 1_555
C10A C9A 1_555 1_555
C11A C10A 1_555 1_555
H9A C11A 1_555 1_555
C12A C11A 1_555 1_555
C13A C8A 1_555 1_555
H10A C13A 1_555 1_555
C14A H11A 1_555 1_555
C15A C14A 1_555 1_555
C16A C17A 1_555 1_555
C17A H12A 1_555 1_555
C18A C17A 1_555 1_555
H13A C18A 1_555 1_555
C19A C15A 1_555 1_555
H14A C19A 1_555 1_555
C20A C16A 1_555 1_555
H15A C20A 1_555 1_555
H16A C20A 1_555 1_555
H17A C20A 1_555 1_555
C21A C12A 1_555 1_555
C22A C21A 1_555 1_555
H18A C22A 1_555 1_555
C23A C22A 1_555 1_555
C24A C23A 1_555 1_555
C25A C24A 1_555 1_555
H19A C25A 1_555 1_555
C26A C21A 1_555 1_555
H20A C26A 1_555 1_555
C27A C23A 1_555 1_555
H21A C27A 1_555 1_555
C28A C27A 1_555 1_555
H22A C28A 1_555 1_555
C29A C28A 1_555 1_555
C30A C24A 1_555 1_555
H23A C30A 1_555 1_555
C31A C29A 1_555 1_555
C32A C31A 1_555 1_555
H24A C32A 1_555 1_555
C33A C32A 1_555 1_555
C34A C33A 1_555 1_555
H25A C34A 1_555 1_555
C35A C34A 1_555 1_555
C36A C31A 1_555 1_555
H26A C36A 1_555 1_555
C37A H27A 1_555 1_555
C38A C37A 1_555 1_555
C39A C40A 1_555 1_555
C40A H28A 1_555 1_555
C41A C40A 1_555 1_555
H29A C41A 1_555 1_555
C42A C38A 1_555 1_555
H30A C42A 1_555 1_555
C43A C39A 1_555 1_555
H31A C43A 1_555 1_555
H32A C43A 1_555 1_555
H33A C43A 1_555 1_555
C44A H34A 1_555 1_555
C45A C44A 1_555 1_555
C46A C47A 1_555 1_555
C47A H35A 1_555 1_555
C48A C47A 1_555 1_555
H36A C48A 1_555 1_555
C49A C45A 1_555 1_555
H37A C49A 1_555 1_555
C50A C46A 1_555 1_555
H38A C50A 1_555 1_555
H39A C50A 1_555 1_555
H40A C50A 1_555 1_555
C51A C55A 1_555 1_555
C52A C53A 1_555 1_555
C53A H41A 1_555 1_555
C54A C53A 1_555 1_555
H42A C54A 1_555 1_555
C55A C54A 1_555 1_555
H43A C55A 1_555 1_555
C56A C52A 1_555 1_555
H44A C56A 1_555 1_555
H45A C56A 1_555 1_555
H46A C56A 1_555 1_555
C57A C51A 1_555 1_555
H47A C57A 1_555 1_555
C58A C59A 1_555 1_555
C59A H48A 1_555 1_555
C60A C59A 1_555 1_555
C61A C60A 1_555 1_555
H49A C61A 1_555 1_555
C62A C61A 1_555 1_555
C63A C58A 1_555 1_555
H50A C63A 1_555 1_555
C64A H51A 1_555 1_555
N1A Cu2 1_555 1_555
C65A N1A 1_555 1_555
C66A C65A 1_555 1_555
H52A C66A 1_555 1_555
C67A C66A 1_555 1_555
H53A C67A 1_555 1_555
C68A C67A 1_555 1_555
H54A C68A 1_555 1_555
C69A C65A 1_555 1_555
H55A C69A 1_555 1_555
H56A C69A 1_555 1_555
H57A C69A 1_555 1_555
C70A C62A 1_555 1_555
C71A C70A 1_555 1_555
H58A C71A 1_555 1_555
C72A C71A 1_555 1_555
C73A C72A 1_555 1_555
C74A C73A 1_555 1_555
H59A C74A 1_555 1_555
C75A C70A 1_555 1_555
H60A C75A 1_555 1_555
C76A C72A 1_555 1_555
H61A C76A 1_555 1_555
C77A C76A 1_555 1_555
H62A C77A 1_555 1_555
C78A C77A 1_555 1_555
C79A C73A 1_555 1_555
H63A C79A 1_555 1_555
C80A C78A 1_555 1_555
C81A C80A 1_555 1_555
H64A C81A 1_555 1_555
C82A C81A 1_555 1_555
C83A C82A 1_555 1_555
H65A C83A 1_555 1_555
C84A C83A 1_555 1_555
C85A C80A 1_555 1_555
H66A C85A 1_555 1_555
C86A H67A 1_555 1_555
C87A C86A 1_555 1_555
C88A C89A 1_555 1_555
C89A H68A 1_555 1_555
C90A C89A 1_555 1_555
H69A C90A 1_555 1_555
C91A C87A 1_555 1_555
H70A C91A 1_555 1_555
C92A C88A 1_555 1_555
H71A C92A 1_555 1_555
H72A C92A 1_555 1_555
H73A C92A 1_555 1_555
C93A H74A 1_555 1_555
C94A C93A 1_555 1_555
C95A C96A 1_555 1_555
C96A H75A 1_555 1_555
C97A C96A 1_555 1_555
H76A C97A 1_555 1_555
C98A C94A 1_555 1_555
H77A C98A 1_555 1_555
C99A C95A 1_555 1_555
H78A C99A 1_555 1_555
H79A C99A 1_555 1_555
H80A C99A 1_555 1_555
N2A C1A 1_555 1_555
N3A C7A 1_555 1_555
N4A C10A 1_555 1_555
N5A C15A 1_555 1_555
N6A C33A 1_555 1_555
N7A C38A 1_555 1_555
N8A Cu4 1_555 1_555
N9A Cu4 1_555 1_555
N10A C51A 1_555 1_555
N11A C57A 1_555 1_555
N12A Cu2 1_555 1_555
C100A C64A 1_555 1_555
N13A C87A 1_555 1_555
N14A C82A 1_555 1_555
N15A C84A 1_555 1_555
N16A C94A 1_555 1_555
Cu1A N2A 1_555 1_555
Cu2A N1 1_555 1_555
Cu3A N6A 1_555 1_555
Cu4A N8 1_555 1_555
F4A P1 1_555 1_555
F8A P2 1_555 1_555
F9A K1 1_555 1_555
F10A P3A 1_555 1_555
F11A K1 1_555 1_555
F12A P3A 1_555 1_555
F13A K1 1_555 1_555
F14A P3A 1_555 1_555
P3A F9A 1_555 1_555
F15A P4A 1_555 1_555
F16A K1 1_555 1_555
F17A P4A 1_555 1_555
F18A K1 1_555 1_555
F19A K1 1_555 1_555
F20A P4A 1_555 1_555
P4A F16A 1_555 1_555
C2 N2 1_555 1_555
C8 N3 1_555 1_555
C12 C13 1_555 1_555
C14 N4 1_555 1_555
C16 N5 1_555 1_555
C18 C19 1_555 1_555
C25 C26 1_555 1_555
C29 C30 1_555 1_555
C35 C36 1_555 1_555
C37 N6 1_555 1_555
C39 N7 1_555 1_555
C41 C42 1_555 1_555
C44 N8 1_555 1_555
C46 N9 1_555 1_555
C48 C49 1_555 1_555
C52 N10 1_555 1_555
C58 N11 1_555 1_555
C62 C63 1_555 1_555
C64 N12 1_555 1_555
N1 C100 1_555 1_555
C68 C100 1_555 1_555
C74 C75 1_555 1_555
C78 C79 1_555 1_555
C84 C85 1_555 1_555
C86 N14 1_555 1_555
C88 N13 1_555 1_555
C90 C91 1_555 1_555
C93 N15 1_555 1_555
C95 N16 1_555 1_555
C97 C98 1_555 1_555
N3 Cu1 1_555 1_555
N5 Cu2 1_555 1_555
N7 Cu3 1_555 1_555
N9 Cu4A 1_555 1_555
N10 Cu1 1_555 1_555
N11 Cu1 1_555 1_555
N12 Cu2A 1_555 1_555
N13 Cu3 1_555 1_555
N14 Cu3 1_555 1_555
N16 Cu4 1_555 1_555
C102 Au1 1_555 1_555
C104 Au2 1_555 1_555
F11 P3 1_555 1_555
F13 P3 1_555 1_555
F19 P4 1_555 1_555
C2A N2A 1_555 1_555
C8A N3A 1_555 1_555
C12A C13A 1_555 1_555
C14A N4A 1_555 1_555
C16A N5A 1_555 1_555
C18A C19A 1_555 1_555
C25A C26A 1_555 1_555
C29A C30A 1_555 1_555
C35A C36A 1_555 1_555
C35A N8A 1_555 1_555
C37A N6A 1_555 1_555
C39A N7A 1_555 1_555
C41A C42A 1_555 1_555
C44A N8A 1_555 1_555
C45A N9A 1_555 1_555
C46A N9A 1_555 1_555
C48A C49A 1_555 1_555
C52A N10A 1_555 1_555
C58A N11A 1_555 1_555
C60A N12A 1_555 1_555
C62A C63A 1_555 1_555
C64A N12A 1_555 1_555
N1A C100A 1_555 1_555
C68A C100A 1_555 1_555
C74A C75A 1_555 1_555
C78A C79A 1_555 1_555
C84A C85A 1_555 1_555
C86A N14A 1_555 1_555
C88A N13A 1_555 1_555
C90A C91A 1_555 1_555
C93A N15A 1_555 1_555
C95A N16A 1_555 1_555
C97A C98A 1_555 1_555
N3A Cu1A 1_555 1_555
N4A Cu2A 1_555 1_555
N5A Cu2A 1_555 1_555
N7A Cu3A 1_555 1_555
N10A Cu1A 1_555 1_555
N11A Cu1A 1_555 1_555
N13A Cu3A 1_555 1_555
N14A Cu3A 1_555 1_555
N15A Cu4A 1_555 1_555
N16A Cu4A 1_555 1_555
F11A P3A 1_555 1_555
F13A P3A 1_555 1_555
F18A P4A 1_555 1_555
F19A P4A 1_555 1_555

#END
