
#######################################################################
#
#                 Cambridge Crystallographic Data Centre
#                                CCDC 
#
#######################################################################
#
# If this CIF has been generated from an entry in the Cambridge 
# Structural Database, then it will include bibliographic, chemical, 
# crystal, experimental, refinement or atomic coordinate data resulting 
# from the CCDC's data processing and validation procedures.
#
#######################################################################

data_TODGUQ
_chemical_formula_moiety         
'C200 H160 Cu8 N32 8+,8(F6 P1 1-),16(C2 H3 N1),3(C4 H10 O1)'
_chemical_name_systematic        
"tetrakis(\m~4~-N,N',N'',N'''-(Naphthalene-2,6-diyldibenzene-5,1,3-triyl)tetrakis(1-(6-methylpyridin-2-yl)methanimine))-octa-copper octakis(hexafluorophosphate) acetonitrile diethyl ether solvate"
_symmetry_cell_setting           tetragonal
_symmetry_space_group_name_H-M   'I 41/a'
_symmetry_Int_Tables_number      88
_space_group_name_Hall           '-I 4ad'
loop_
_symmetry_equiv_pos_site_id
_symmetry_equiv_pos_as_xyz
1 x,y,z
2 1/2-x,-y,1/2+z
3 3/4-y,1/4+x,1/4+z
4 3/4+y,3/4-x,3/4+z
5 1/2+x,1/2+y,1/2+z
6 -x,1/2-y,z
7 1/4-y,3/4+x,3/4+z
8 1/4+y,1/4-x,1/4+z
9 -x,-y,-z
10 1/2+x,y,1/2-z
11 1/4+y,3/4-x,3/4-z
12 1/4-y,1/4+x,1/4-z
13 1/2-x,1/2-y,1/2-z
14 x,1/2+y,-z
15 3/4+y,1/4-x,1/4-z
16 3/4-y,3/4+x,3/4-z
_cell_length_a                   22.896(3)
_cell_length_b                   22.896(3)
_cell_length_c                   95.642(19)
_cell_angle_alpha                90
_cell_angle_beta                 90
_cell_angle_gamma                90
_cell_volume                     50138.1
_exptl_crystal_colour            'dark brown'
_exptl_crystal_description       prism
_cell_formula_units_Z            8
loop_
_atom_site_label
_atom_site_type_symbol
_atom_site_fract_x
_atom_site_fract_y
_atom_site_fract_z
C51 C 0.5972(3) 0.4804(3) 0.06106(7)
C52 C 0.5494(3) 0.4691(3) 0.04006(8)
C53 C 0.5380(4) 0.4112(4) 0.04305(9)
H41 H 0.5164 0.3879 0.0366
C54 C 0.5583(4) 0.3871(4) 0.05553(9)
H42 H 0.5518 0.3470 0.0576
C55 C 0.5883(4) 0.4228(3) 0.06485(8)
H43 H 0.6021 0.4081 0.0735
C56 C 0.5288(3) 0.4965(4) 0.02695(8)
H44 H 0.5066 0.5319 0.0292
H45 H 0.5036 0.4690 0.0219
H46 H 0.5624 0.5067 0.0211
C57 C 0.6266(3) 0.5220(3) 0.07046(7)
H47 H 0.6403 0.5093 0.0793
C58 C 0.6578(2) 0.6152(3) 0.07645(6)
C59 C 0.6903(2) 0.6624(3) 0.07137(6)
H48 H 0.6971 0.6663 0.0616
C60 C 0.7124(2) 0.7029(3) 0.08045(7)
C61 C 0.7006(2) 0.7001(3) 0.09488(7)
H49 H 0.7145 0.7295 0.1011
C62 C 0.6681(2) 0.6531(3) 0.09987(6)
C63 C 0.6467(2) 0.6113(3) 0.09071(6)
H50 H 0.6241 0.5797 0.0942
C64 C 0.7741(3) 0.7865(3) 0.08190(8)
H51 H 0.7811 0.7784 0.0915
C65 C 0.7979(3) 0.8384(3) 0.07537(9)
C66 C 0.8023(3) 0.8933(3) 0.05504(10)
C67 C 0.8348(4) 0.9367(4) 0.06188(11)
H52 H 0.8465 0.9709 0.0570
C68 C 0.8493(4) 0.9293(4) 0.07544(14)
H53 H 0.8718 0.9582 0.0801
C69 C 0.8313(4) 0.8791(3) 0.08269(10)
H54 H 0.8415 0.8731 0.0922
C70 C 0.7877(4) 0.8971(4) 0.03956(10)
H55 H 0.8090 0.8666 0.0345
H56 H 0.7991 0.9355 0.0360
H57 H 0.7456 0.8915 0.0382
C71 C 0.6513(2) 0.6518(2) 0.11507(6)
C72 C 0.6343(2) 0.7016(3) 0.12168(6)
H58 H 0.6350 0.7377 0.1168
C73 C 0.6154(3) 0.6999(2) 0.13592(6)
C74 C 0.6160(3) 0.6462(2) 0.14329(6)
C75 C 0.6335(4) 0.5954(3) 0.13605(7)
H59 H 0.6339 0.5589 0.1408
C76 C 0.6498(3) 0.5979(3) 0.12239(7)
H60 H 0.6604 0.5629 0.1177
C77 C 0.5952(3) 0.7506(2) 0.14303(6)
H61 H 0.5922 0.7865 0.1381
C78 C 0.5803(3) 0.7484(3) 0.15667(7)
H62 H 0.5678 0.7832 0.1612
C79 C 0.5826(3) 0.6962(2) 0.16439(6)
C80 C 0.6003(3) 0.6454(3) 0.15746(6)
H63 H 0.6017 0.6096 0.1625
C81 C 0.5716(3) 0.6957(2) 0.17955(6)
C82 C 0.5869(3) 0.7438(2) 0.18776(6)
H64 H 0.6005 0.7785 0.1834
C83 C 0.5823(3) 0.7414(3) 0.20241(6)
C84 C 0.5638(3) 0.6906(3) 0.20905(6)
H65 H 0.5618 0.6886 0.2190
C85 C 0.5481(3) 0.6425(3) 0.20076(6)
C86 C 0.5522(3) 0.6451(2) 0.18644(6)
H66 H 0.5417 0.6118 0.1811
C87 C 0.5868(3) 0.8005(3) 0.22249(7)
H67 H 0.5609 0.7746 0.2272
C88 C 0.6109(3) 0.8513(3) 0.22956(7)
C89 C 0.6652(4) 0.9355(4) 0.22751(9)
C90 C 0.6618(5) 0.9430(5) 0.24221(11)
H68 H 0.6817 0.9746 0.2465
C91 C 0.6309(5) 0.9062(6) 0.25003(10)
H69 H 0.6267 0.9139 0.2597
C92 C 0.6045(4) 0.8564(5) 0.24429(9)
H70 H 0.5841 0.8285 0.2498
C93 C 0.6938(4) 0.9791(4) 0.21765(10)
H71 H 0.7133 0.9581 0.2100
H72 H 0.7226 1.0023 0.2228
H73 H 0.6639 1.0051 0.2137
C94 C 0.5152(3) 0.5827(3) 0.21922(7)
H74 H 0.5161 0.6152 0.2254
C95 C 0.4962(3) 0.5243(4) 0.22419(8)
C96 C 0.4720(3) 0.4293(3) 0.21717(10)
C97 C 0.4598(4) 0.4160(5) 0.23125(12)
H75 H 0.4468 0.3779 0.2336
C98 C 0.4663(4) 0.4574(5) 0.24169(11)
H76 H 0.4579 0.4478 0.2511
C99 C 0.4854(4) 0.5136(5) 0.23814(9)
H77 H 0.4907 0.5430 0.2450
C100 C 0.4647(4) 0.3876(3) 0.20559(11)
H78 H 0.4946 0.3948 0.1985
H79 H 0.4259 0.3925 0.2014
H80 H 0.4687 0.3477 0.2091
N9 N 0.5785(2) 0.5033(2) 0.04903(5)
N10 N 0.6336(2) 0.5754(2) 0.06667(5)
N11 N 0.7433(2) 0.7520(2) 0.07443(6)
N12 N 0.7848(2) 0.8455(2) 0.06173(7)
N13 N 0.6016(2) 0.7918(2) 0.20968(5)
N14 N 0.6402(3) 0.8889(2) 0.22162(6)
N15 N 0.5303(2) 0.5879(2) 0.20651(5)
N16 N 0.4906(3) 0.4831(2) 0.21383(7)
Cu3 Cu 0.60301(4) 0.59092(4) 0.047364(9)
Cu4 Cu 0.73954(4) 0.77555(4) 0.054170(11)
C51K C 0.7696(3) 0.8472(3) 0.18894(7)
C52K C 0.7809(3) 0.7994(3) 0.20994(8)
C53K C 0.8388(4) 0.7880(4) 0.20695(9)
H41K H 0.8621 0.7664 0.2134
C54K C 0.8629(4) 0.8083(4) 0.19447(9)
H42K H 0.9030 0.8018 0.1924
C55K C 0.8272(3) 0.8383(4) 0.18515(8)
H43K H 0.8419 0.8521 0.1765
C56K C 0.7535(4) 0.7788(3) 0.22305(8)
H44K H 0.7181 0.7566 0.2208
H45K H 0.7810 0.7536 0.2281
H46K H 0.7433 0.8124 0.2289
C57K C 0.7280(3) 0.8766(3) 0.17954(7)
H47K H 0.7407 0.8903 0.1707
C58K C 0.6348(3) 0.9078(2) 0.17355(6)
C59K C 0.5876(3) 0.9403(2) 0.17863(6)
H48K H 0.5837 0.9471 0.1884
C60K C 0.5471(3) 0.9624(2) 0.16955(7)
C61K C 0.5499(3) 0.9506(2) 0.15512(7)
H49K H 0.5205 0.9645 0.1489
C62K C 0.5969(3) 0.9181(2) 0.15013(6)
C63K C 0.6387(3) 0.8967(2) 0.15929(6)
H50K H 0.6703 0.8741 0.1558
C64K C 0.4635(3) 1.0241(3) 0.16810(8)
H51K H 0.4716 1.0311 0.1585
C65K C 0.4116(3) 1.0479(3) 0.17463(9)
C66K C 0.3567(3) 1.0523(3) 0.19496(10)
C67K C 0.3133(4) 1.0848(4) 0.18812(11)
H52K H 0.2791 1.0965 0.1930
C68K C 0.3207(4) 1.0993(4) 0.17456(14)
H53K H 0.2918 1.1218 0.1699
C69K C 0.3709(3) 1.0813(4) 0.16731(10)
H54K H 0.3769 1.0915 0.1578
C70K C 0.3529(4) 1.0377(4) 0.21044(10)
H55K H 0.3834 1.0590 0.2155
H56K H 0.3145 1.0491 0.2140
H57K H 0.3585 0.9956 0.2118
C71K C 0.5982(2) 0.9013(2) 0.13493(6)
C72K C 0.5484(3) 0.8843(2) 0.12832(6)
H58K H 0.5123 0.8850 0.1332
C73K C 0.5501(2) 0.8654(3) 0.11408(6)
C74K C 0.6038(2) 0.8660(3) 0.10671(6)
C75K C 0.6546(3) 0.8835(4) 0.11395(7)
H59K H 0.6911 0.8839 0.1092
C76K C 0.6521(3) 0.8998(3) 0.12761(7)
H60K H 0.6871 0.9104 0.1323
C77K C 0.4994(2) 0.8452(3) 0.10697(6)
H61K H 0.4635 0.8422 0.1119
C78K C 0.5016(3) 0.8303(3) 0.09333(7)
H62K H 0.4668 0.8178 0.0888
C79K C 0.5538(2) 0.8326(3) 0.08561(6)
C80K C 0.6046(3) 0.8503(3) 0.09254(6)
H63K H 0.6404 0.8517 0.0875
C81K C 0.5543(2) 0.8216(3) 0.07045(6)
C82K C 0.5062(2) 0.8369(3) 0.06224(6)
H64K H 0.4715 0.8505 0.0666
C83K C 0.5086(3) 0.8323(3) 0.04759(6)
C84K C 0.5594(3) 0.8138(3) 0.04095(6)
H65K H 0.5614 0.8118 0.0310
C85K C 0.6075(3) 0.7981(3) 0.04924(6)
C86K C 0.6049(2) 0.8022(3) 0.06356(6)
H66K H 0.6382 0.7917 0.0689
C87K C 0.4495(3) 0.8368(3) 0.02751(7)
H67K H 0.4754 0.8109 0.0228
C88K C 0.3987(3) 0.8609(3) 0.02044(7)
C89K C 0.3145(4) 0.9152(4) 0.02249(9)
C90K C 0.3070(5) 0.9118(5) 0.00779(11)
H68K H 0.2754 0.9317 0.0035
C91K C 0.3438(6) 0.8809(5) -0.00003(10)
H69K H 0.3361 0.8767 -0.0097
C92K C 0.3936(5) 0.8545(4) 0.00571(9)
H70K H 0.4215 0.8341 0.0002
C93K C 0.2709(4) 0.9438(4) 0.03235(10)
H71K H 0.2919 0.9633 0.0400
H72K H 0.2477 0.9726 0.0272
H73K H 0.2449 0.9139 0.0363
C94K C 0.6673(3) 0.7652(3) 0.03078(7)
H74K H 0.6348 0.7661 0.0246
C95K C 0.7257(4) 0.7462(3) 0.02581(8)
C96K C 0.8207(3) 0.7220(3) 0.03283(10)
C97K C 0.8340(5) 0.7098(4) 0.01875(12)
H75K H 0.8721 0.6968 0.0164
C98K C 0.7926(5) 0.7163(4) 0.00831(11)
H76K H 0.8022 0.7079 -0.0011
C99K C 0.7364(5) 0.7354(4) 0.01186(9)
H77K H 0.7070 0.7407 0.0050
C100K C 0.8624(3) 0.7147(4) 0.04441(11)
H78K H 0.8552 0.7446 0.0515
H79K H 0.8575 0.6759 0.0486
H80K H 0.9023 0.7187 0.0409
N9K N 0.7467(2) 0.8285(2) 0.20097(5)
N10K N 0.6746(2) 0.8836(2) 0.18333(5)
N11K N 0.4980(2) 0.9933(2) 0.17557(6)
N12K N 0.4045(2) 1.0348(2) 0.18827(7)
N13K N 0.4582(2) 0.8516(2) 0.04032(5)
N14K N 0.3611(2) 0.8902(3) 0.02838(6)
N15K N 0.6621(2) 0.7803(2) 0.04349(5)
N16K N 0.7669(2) 0.7406(3) 0.03617(7)
Cu3K Cu 0.65908(4) 0.85301(4) 0.202636(9)
Cu4K Cu 0.47445(4) 0.98954(4) 0.195830(11)
C51N C 0.2304(3) 0.6528(3) 0.18894(7)
C52N C 0.2191(3) 0.7006(3) 0.20994(8)
C53N C 0.1612(4) 0.7120(4) 0.20695(9)
H41N H 0.1379 0.7336 0.2134
C54N C 0.1371(4) 0.6917(4) 0.19447(9)
H42N H 0.0970 0.6982 0.1924
C55N C 0.1728(3) 0.6617(4) 0.18515(8)
H43N H 0.1581 0.6479 0.1765
C56N C 0.2465(4) 0.7212(3) 0.22305(8)
H44N H 0.2819 0.7434 0.2208
H45N H 0.2190 0.7464 0.2281
H46N H 0.2567 0.6876 0.2289
C57N C 0.2720(3) 0.6234(3) 0.17954(7)
H47N H 0.2593 0.6097 0.1707
C58N C 0.3652(3) 0.5922(2) 0.17355(6)
C59N C 0.4124(3) 0.5597(2) 0.17863(6)
H48N H 0.4163 0.5529 0.1884
C60N C 0.4529(3) 0.5376(2) 0.16955(7)
C61N C 0.4501(3) 0.5494(2) 0.15512(7)
H49N H 0.4795 0.5355 0.1489
C62N C 0.4031(3) 0.5819(2) 0.15013(6)
C63N C 0.3613(3) 0.6033(2) 0.15929(6)
H50N H 0.3297 0.6259 0.1558
C64N C 0.5365(3) 0.4759(3) 0.16810(8)
H51N H 0.5284 0.4689 0.1585
C65N C 0.5884(3) 0.4521(3) 0.17463(9)
C66N C 0.6433(3) 0.4477(3) 0.19496(10)
C67N C 0.6867(4) 0.4152(4) 0.18812(11)
H52N H 0.7209 0.4035 0.1930
C68N C 0.6793(4) 0.4007(4) 0.17456(14)
H53N H 0.7082 0.3782 0.1699
C69N C 0.6291(3) 0.4187(4) 0.16731(10)
H54N H 0.6231 0.4085 0.1578
C70N C 0.6471(4) 0.4623(4) 0.21044(10)
H55N H 0.6166 0.4410 0.2155
H56N H 0.6855 0.4509 0.2140
H57N H 0.6415 0.5044 0.2118
C71N C 0.4018(2) 0.5987(2) 0.13493(6)
C72N C 0.4516(3) 0.6157(2) 0.12832(6)
H58N H 0.4877 0.6150 0.1332
C73N C 0.4499(2) 0.6346(3) 0.11408(6)
C74N C 0.3962(2) 0.6340(3) 0.10671(6)
C75N C 0.3454(3) 0.6165(4) 0.11395(7)
H59N H 0.3089 0.6161 0.1092
C76N C 0.3479(3) 0.6002(3) 0.12761(7)
H60N H 0.3129 0.5896 0.1323
C77N C 0.5006(2) 0.6548(3) 0.10697(6)
H61N H 0.5365 0.6578 0.1119
C78N C 0.4984(3) 0.6697(3) 0.09333(7)
H62N H 0.5332 0.6822 0.0888
C79N C 0.4462(2) 0.6674(3) 0.08561(6)
C80N C 0.3954(3) 0.6497(3) 0.09254(6)
H63N H 0.3596 0.6483 0.0875
C81N C 0.4457(2) 0.6784(3) 0.07045(6)
C82N C 0.4938(2) 0.6631(3) 0.06224(6)
H64N H 0.5285 0.6495 0.0666
C83N C 0.4914(3) 0.6677(3) 0.04759(6)
C84N C 0.4406(3) 0.6862(3) 0.04095(6)
H65N H 0.4386 0.6882 0.0310
C85N C 0.3925(3) 0.7019(3) 0.04924(6)
C86N C 0.3951(2) 0.6978(3) 0.06356(6)
H66N H 0.3618 0.7083 0.0689
C87N C 0.5505(3) 0.6632(3) 0.02751(7)
H67N H 0.5246 0.6891 0.0228
C88N C 0.6013(3) 0.6391(3) 0.02044(7)
C89N C 0.6855(4) 0.5848(4) 0.02249(9)
C90N C 0.6930(5) 0.5882(5) 0.00779(11)
H68N H 0.7246 0.5683 0.0035
C91N C 0.6562(6) 0.6191(5) -0.00003(10)
H69N H 0.6639 0.6233 -0.0097
C92N C 0.6064(5) 0.6455(4) 0.00571(9)
H70N H 0.5785 0.6659 0.0002
C93N C 0.7291(4) 0.5562(4) 0.03235(10)
H71N H 0.7081 0.5367 0.0400
H72N H 0.7523 0.5274 0.0272
H73N H 0.7551 0.5861 0.0363
C94N C 0.3327(3) 0.7348(3) 0.03078(7)
H74N H 0.3652 0.7339 0.0246
C95N C 0.2743(4) 0.7538(3) 0.02581(8)
C96N C 0.1793(3) 0.7780(3) 0.03283(10)
C97N C 0.1660(5) 0.7902(4) 0.01875(12)
H75N H 0.1279 0.8032 0.0164
C98N C 0.2074(5) 0.7837(4) 0.00831(11)
H76N H 0.1978 0.7921 -0.0011
C99N C 0.2636(5) 0.7646(4) 0.01186(9)
H77N H 0.2930 0.7593 0.0050
C100N C 0.1376(3) 0.7853(4) 0.04441(11)
H78N H 0.1448 0.7554 0.0515
H79N H 0.1425 0.8241 0.0486
H80N H 0.0977 0.7813 0.0409
N9N N 0.2533(2) 0.6715(2) 0.20097(5)
N10N N 0.3254(2) 0.6164(2) 0.18333(5)
N11N N 0.5020(2) 0.5067(2) 0.17557(6)
N12N N 0.5955(2) 0.4652(2) 0.18827(7)
N13N N 0.5418(2) 0.6484(2) 0.04032(5)
N14N N 0.6389(2) 0.6098(3) 0.02838(6)
N15N N 0.3379(2) 0.7197(2) 0.04349(5)
N16N N 0.2331(2) 0.7594(3) 0.03617(7)
Cu3N Cu 0.34092(4) 0.64699(4) 0.202636(9)
Cu4N Cu 0.52555(4) 0.51046(4) 0.195830(11)
C51E C 0.4028(3) 1.0196(3) 0.06106(7)
C52E C 0.4506(3) 1.0309(3) 0.04006(8)
C53E C 0.4620(4) 1.0888(4) 0.04305(9)
H41E H 0.4836 1.1121 0.0366
C54E C 0.4417(4) 1.1129(4) 0.05553(9)
H42E H 0.4482 1.1530 0.0576
C55E C 0.4117(4) 1.0772(3) 0.06485(8)
H43E H 0.3979 1.0919 0.0735
C56E C 0.4712(3) 1.0035(4) 0.02695(8)
H44E H 0.4934 0.9681 0.0292
H45E H 0.4964 1.0310 0.0219
H46E H 0.4376 0.9933 0.0211
C57E C 0.3734(3) 0.9780(3) 0.07046(7)
H47E H 0.3597 0.9907 0.0793
C58E C 0.3422(2) 0.8848(3) 0.07645(6)
C59E C 0.3097(2) 0.8376(3) 0.07137(6)
H48E H 0.3029 0.8337 0.0616
C60E C 0.2876(2) 0.7971(3) 0.08045(7)
C61E C 0.2994(2) 0.7999(3) 0.09488(7)
H49E H 0.2855 0.7705 0.1011
C62E C 0.3319(2) 0.8469(3) 0.09987(6)
C63E C 0.3533(2) 0.8887(3) 0.09071(6)
H50E H 0.3759 0.9203 0.0942
C64E C 0.2259(3) 0.7135(3) 0.08190(8)
H51E H 0.2189 0.7216 0.0915
C65E C 0.2021(3) 0.6616(3) 0.07537(9)
C66E C 0.1977(3) 0.6067(3) 0.05504(10)
C67E C 0.1652(4) 0.5633(4) 0.06188(11)
H52E H 0.1535 0.5291 0.0570
C68E C 0.1507(4) 0.5707(4) 0.07544(14)
H53E H 0.1282 0.5418 0.0801
C69E C 0.1687(4) 0.6209(3) 0.08269(10)
H54E H 0.1585 0.6269 0.0922
C70E C 0.2123(4) 0.6029(4) 0.03956(10)
H55E H 0.1910 0.6334 0.0345
H56E H 0.2009 0.5645 0.0360
H57E H 0.2544 0.6085 0.0382
C71E C 0.3487(2) 0.8482(2) 0.11507(6)
C72E C 0.3657(2) 0.7984(3) 0.12168(6)
H58E H 0.3650 0.7623 0.1168
C73E C 0.3846(3) 0.8001(2) 0.13592(6)
C74E C 0.3840(3) 0.8538(2) 0.14329(6)
C75E C 0.3665(4) 0.9046(3) 0.13605(7)
H59E H 0.3661 0.9411 0.1408
C76E C 0.3502(3) 0.9021(3) 0.12239(7)
H60E H 0.3396 0.9371 0.1177
C77E C 0.4048(3) 0.7494(2) 0.14303(6)
H61E H 0.4078 0.7135 0.1381
C78E C 0.4197(3) 0.7516(3) 0.15667(7)
H62E H 0.4322 0.7168 0.1612
C79E C 0.4174(3) 0.8038(2) 0.16439(6)
C80E C 0.3997(3) 0.8546(3) 0.15746(6)
H63E H 0.3983 0.8904 0.1625
C81E C 0.4284(3) 0.8043(2) 0.17955(6)
C82E C 0.4131(3) 0.7562(2) 0.18776(6)
H64E H 0.3995 0.7215 0.1834
C83E C 0.4177(3) 0.7586(3) 0.20241(6)
C84E C 0.4362(3) 0.8094(3) 0.20905(6)
H65E H 0.4382 0.8114 0.2190
C85E C 0.4519(3) 0.8575(3) 0.20076(6)
C86E C 0.4478(3) 0.8549(2) 0.18644(6)
H66E H 0.4583 0.8882 0.1811
C87E C 0.4132(3) 0.6995(3) 0.22249(7)
H67E H 0.4391 0.7254 0.2272
C88E C 0.3891(3) 0.6487(3) 0.22956(7)
C89E C 0.3348(4) 0.5645(4) 0.22751(9)
C90E C 0.3382(5) 0.5570(5) 0.24221(11)
H68E H 0.3183 0.5254 0.2465
C91E C 0.3691(5) 0.5938(6) 0.25003(10)
H69E H 0.3733 0.5861 0.2597
C92E C 0.3955(4) 0.6436(5) 0.24429(9)
H70E H 0.4159 0.6715 0.2498
C93E C 0.3062(4) 0.5209(4) 0.21765(10)
H71E H 0.2867 0.5419 0.2100
H72E H 0.2774 0.4977 0.2228
H73E H 0.3361 0.4949 0.2137
C94E C 0.4848(3) 0.9173(3) 0.21922(7)
H74E H 0.4839 0.8848 0.2254
C95E C 0.5038(3) 0.9757(4) 0.22419(8)
C96E C 0.5280(3) 1.0707(3) 0.21717(10)
C97E C 0.5402(4) 1.0840(5) 0.23125(12)
H75E H 0.5532 1.1221 0.2336
C98E C 0.5337(4) 1.0426(5) 0.24169(11)
H76E H 0.5421 1.0522 0.2511
C99E C 0.5146(4) 0.9864(5) 0.23814(9)
H77E H 0.5093 0.9570 0.2450
C100E C 0.5353(4) 1.1124(3) 0.20559(11)
H78E H 0.5054 1.1052 0.1985
H79E H 0.5741 1.1075 0.2014
H80E H 0.5313 1.1523 0.2091
N9E N 0.4215(2) 0.9967(2) 0.04903(5)
N10E N 0.3664(2) 0.9246(2) 0.06667(5)
N11E N 0.2567(2) 0.7480(2) 0.07443(6)
N12E N 0.2152(2) 0.6545(2) 0.06173(7)
N13E N 0.3984(2) 0.7082(2) 0.20968(5)
N14E N 0.3598(3) 0.6111(2) 0.22162(6)
N15E N 0.4697(2) 0.9121(2) 0.20651(5)
N16E N 0.5094(3) 1.0169(2) 0.21383(7)
Cu3E Cu 0.39699(4) 0.90908(4) 0.047364(9)
Cu4E Cu 0.26046(4) 0.72445(4) 0.054170(11)
F1 F 0.3766(5) 0.1771(3) 0.01230(8)
F2 F 0.4455(3) 0.1098(2) -0.01090(6)
F3 F 0.4679(3) 0.1419(4) 0.01020(7)
F4 F 0.3904(2) 0.0829(3) 0.00752(6)
F5 F 0.3567(3) 0.1435(3) -0.00893(7)
F6 F 0.4328(2) 0.2044(2) -0.00589(4)
P1 P 0.41098(11) 0.14269(11) 0.00099(2)
F7 F 0.2851(3) 0.1326(3) 0.11081(6)
F8 F 0.3057(5) 0.0695(4) 0.09392(7)
F9 F 0.3692(5) 0.0274(3) 0.10655(9)
F10 F 0.3723(4) 0.1206(3) 0.10318(12)
F11 F 0.3507(5) 0.0860(4) 0.12385(8)
F12 F 0.2808(4) 0.0372(3) 0.11479(10)
P2 P 0.32811(15) 0.08050(11) 0.10930(3)
F13 F 0.8185(2) 0.1332(3) 0.03647(8)
F14 F 0.8054(2) 0.0209(2) 0.01752(5)
F15 F 0.7669(4) 0.0383(5) 0.03822(10)
F16 F 0.7548(5) 0.1047(7) 0.02121(14)
F17 F 0.8515(5) 0.1075(4) 0.01736(10)
F18 F 0.8633(4) 0.0406(5) 0.03419(13)
P3 P 0.81249(9) 0.07785(9) 0.02672(2)
F19 F 0.0000 0.7500 -0.01078(9)
F20 F -0.0318(2) 0.6886(3) 0.00538(8)
F21 F 0.0000 0.7500 0.02193(7)
F22 F 0.0604(2) 0.7177(3) 0.00602(8)
P4 P 0.0000 0.7500 0.00610(2)
F20E F 0.0318(2) 0.8114(3) 0.00538(8)
F22E F -0.0604(2) 0.7823(3) 0.00602(8)
F23 F 0.8728(4) 0.7628(5) 0.10287(13)
F24 F 0.9192(4) 0.7037(6) 0.11612(12)
F25 F 0.9178(5) 0.6339(6) 0.09906(14)
F26 F 0.8702(4) 0.6982(6) 0.08559(12)
F27 F 0.8342(5) 0.6741(6) 0.10668(13)
F28 F 0.9566(5) 0.7227(7) 0.09490(14)
P5 P 0.8956(3) 0.7011(4) 0.10071(9)
N17 N -0.3033(7) 0.2911(7) 0.14845(14)
C101 C -0.3187(8) 0.2719(8) 0.13834(16)
C102 C -0.3122(8) 0.2404(8) 0.12388(14)
H81 H -0.3456 0.2503 0.1179
H82 H -0.3111 0.1980 0.1253
H83 H -0.2760 0.2530 0.1194
N18 N 0.7806(9) 0.7740(9) 0.11957(19)
C103 C 0.7728(14) 0.7581(13) 0.1306(2)
C104 C 0.7527(11) 0.7596(12) 0.14621(19)
H84 H 0.7122 0.7459 0.1469
H85 H 0.7552 0.7997 0.1497
H86 H 0.7780 0.7342 0.1518
N19 N 0.2016(7) -0.0490(7) 0.09108(13)
C105 C 0.1989(8) -0.0528(9) 0.07904(14)
C106 C 0.2128(8) -0.0404(8) 0.06393(13)
H87 H 0.2285 -0.0757 0.0595
H88 H 0.2418 -0.0090 0.0634
H89 H 0.1771 -0.0283 0.0591
N20 N 0.697(2) 0.5917(19) 0.1877(4)
C107 C 0.724(2) 0.628(2) 0.1836(4)
C108 C 0.759(3) 0.684(2) 0.1813(6)
H90 H 0.7319 0.7172 0.1804
H91 H 0.7805 0.6794 0.1725
H92 H 0.7869 0.6926 0.1889
N21 N 0.1647(5) -0.1439(6) 0.21344(14)
C109 C 0.2062(5) -0.1276(6) 0.21786(15)
C110 C 0.2601(6) -0.1027(7) 0.22519(17)
H93 H 0.2557 -0.0603 0.2263
H94 H 0.2949 -0.1109 0.2196
H95 H 0.2643 -0.1208 0.2344
C1 C 0.0433(3) 0.0588(3) 0.02104(6)
C2 C 0.0963(3) -0.0265(3) 0.02442(7)
C3 C 0.1072(4) -0.0301(3) 0.01029(7)
H1 H 0.1312 -0.0606 0.0068
C4 C 0.0839(5) 0.0096(4) 0.00136(8)
H2 H 0.0887 0.0055 -0.0085
C5 C 0.0526(4) 0.0569(4) 0.00697(7)
H3 H 0.0381 0.0870 0.0011
C6 C 0.1165(4) -0.0713(4) 0.03453(8)
H4 H 0.1444 -0.0974 0.0299
H5 H 0.0830 -0.0939 0.0379
H6 H 0.1355 -0.0520 0.0425
C7 C 0.0087(3) 0.1051(3) 0.02770(6)
H7 H -0.0036 0.1383 0.0225
C8 C -0.0383(3) 0.1430(3) 0.04764(6)
C9 C -0.0667(2) 0.1886(3) 0.04091(6)
H8 H -0.0627 0.1937 0.0311
C10 C -0.1012(3) 0.2269(3) 0.04873(6)
C11 C -0.1074(3) 0.2186(3) 0.06306(6)
H9 H -0.1301 0.2455 0.0683
C12 C -0.0806(4) 0.1711(4) 0.06992(7)
C13 C -0.0449(3) 0.1350(3) 0.06182(6)
H10 H -0.0245 0.1039 0.0662
C14 C -0.1270(3) 0.2897(3) 0.03003(6)
H11 H -0.0939 0.2766 0.0249
C15 C -0.1677(3) 0.3317(3) 0.02384(6)
C16 C -0.2515(3) 0.3861(3) 0.02730(7)
C17 C -0.2491(4) 0.4061(4) 0.01361(7)
H12 H -0.2783 0.4319 0.0102
C18 C -0.2054(5) 0.3888(4) 0.00517(8)
H13 H -0.2032 0.4026 -0.0042
C19 C -0.1632(4) 0.3503(4) 0.01030(7)
H14 H -0.1321 0.3373 0.0045
C20 C -0.3005(3) 0.4036(4) 0.03710(8)
H15 H -0.3255 0.3697 0.0389
H16 H -0.3238 0.4346 0.0328
H17 H -0.2840 0.4177 0.0459
C21 C -0.0917(4) 0.1572(4) 0.08474(8)
C22 C -0.0976(4) 0.0956(4) 0.08896(8)
H18 H -0.0917 0.0657 0.0822
C23 C -0.1113(4) 0.0810(4) 0.10237(8)
H19 H -0.1164 0.0413 0.1050
C24 C -0.1180(3) 0.1261(4) 0.11241(8)
C25 C -0.1137(4) 0.1843(3) 0.10896(9)
C26 C -0.1002(5) 0.1980(4) 0.09437(8)
H20 H -0.0974 0.2379 0.0917
C27 C -0.1315(3) 0.1108(4) 0.12685(7)
H21 H -0.1357 0.0710 0.1295
C28 C -0.1380(3) 0.1534(4) 0.13638(7)
C29 C -0.1314(5) 0.2135(4) 0.13216(9)
H22 H -0.1369 0.2437 0.1389
C30 C -0.1178(6) 0.2274(4) 0.11891(9)
H23 H -0.1109 0.2670 0.1164
C31 C -0.1477(3) 0.1394(3) 0.15143(6)
C32 C -0.1168(3) 0.0955(3) 0.15784(6)
H24 H -0.0906 0.0723 0.1525
C33 C -0.1233(3) 0.0842(3) 0.17218(6)
C34 C -0.1610(3) 0.1183(3) 0.17989(6)
H25 H -0.1643 0.1126 0.1897
C35 C -0.1950(3) 0.1619(3) 0.17325(6)
C36 C -0.1871(3) 0.1733(3) 0.15921(6)
H26 H -0.2083 0.2039 0.1548
C37 C -0.0751(3) -0.0063(3) 0.17269(7)
H27 H -0.0864 -0.0121 0.1632
C38 C -0.0402(3) -0.0495(3) 0.17990(7)
C39 C 0.0118(4) -0.0695(4) 0.20008(8)
C40 C 0.0309(5) -0.1234(5) 0.19452(11)
H28 H 0.0560 -0.1481 0.1998
C41 C 0.0117(6) -0.1399(6) 0.18096(13)
H29 H 0.0234 -0.1761 0.1770
C42 C -0.0245(5) -0.1018(4) 0.17371(10)
H30 H -0.0382 -0.1115 0.1646
C43 C 0.0293(4) -0.0545(4) 0.21454(8)
H31 H 0.0380 -0.0126 0.2151
H32 H 0.0641 -0.0769 0.2171
H33 H -0.0026 -0.0640 0.2210
C44 C -0.2846(3) 0.2095(3) 0.17580(7)
H34 H -0.2933 0.1989 0.1664
C45 C -0.3261(3) 0.2436(3) 0.18392(7)
C46 C -0.3450(3) 0.2881(3) 0.20516(7)
C47 C -0.4011(4) 0.3003(4) 0.20084(9)
H35 H -0.4269 0.3205 0.2070
C48 C -0.4201(4) 0.2840(4) 0.18795(9)
H36 H -0.4588 0.2927 0.1850
C49 C -0.3822(3) 0.2545(4) 0.17916(9)
H37 H -0.3942 0.2422 0.1701
C50 C -0.3230(4) 0.3054(4) 0.21939(7)
H38 H -0.3202 0.2707 0.2253
H39 H -0.3502 0.3334 0.2236
H40 H -0.2844 0.3235 0.2185
N1 N 0.0646(2) 0.0181(2) 0.02965(5)
N2 N -0.0045(2) 0.0996(2) 0.04060(5)
N3 N -0.1364(2) 0.2707(2) 0.04247(5)
N4 N -0.2105(2) 0.3502(2) 0.03245(5)
N5 N -0.0907(2) 0.0402(2) 0.17931(5)
N6 N -0.0212(2) -0.0336(3) 0.19288(6)
N7 N -0.2352(2) 0.1937(2) 0.18145(5)
N8 N -0.3070(2) 0.2603(2) 0.19672(5)
Cu1 Cu 0.02776(4) 0.02392(4) 0.048909(8)
Cu2 Cu -0.20787(4) 0.30952(4) 0.051080(8)
C1K C 0.1912(3) 0.2933(3) 0.22896(6)
C2K C 0.2765(3) 0.3463(3) 0.22558(7)
C3K C 0.2801(3) 0.3572(4) 0.23971(7)
H1K H 0.3106 0.3812 0.2432
C4K C 0.2404(4) 0.3339(5) 0.24864(8)
H2K H 0.2445 0.3387 0.2585
C5K C 0.1931(4) 0.3026(4) 0.24303(7)
H3K H 0.1630 0.2881 0.2489
C6K C 0.3213(4) 0.3665(4) 0.21547(8)
H4K H 0.3474 0.3944 0.2201
H5K H 0.3439 0.3330 0.2121
H6K H 0.3020 0.3855 0.2075
C7K C 0.1449(3) 0.2587(3) 0.22230(6)
H7K H 0.1117 0.2464 0.2275
C8K C 0.1070(3) 0.2117(3) 0.20236(6)
C9K C 0.0614(3) 0.1833(2) 0.20909(6)
H8K H 0.0563 0.1873 0.2189
C10K C 0.0231(3) 0.1488(3) 0.20127(6)
C11K C 0.0314(3) 0.1426(3) 0.18694(6)
H9K H 0.0045 0.1199 0.1817
C12K C 0.0789(4) 0.1694(4) 0.18008(7)
C13K C 0.1150(3) 0.2051(3) 0.18818(6)
H10K H 0.1461 0.2255 0.1838
C14K C -0.0397(3) 0.1230(3) 0.21997(6)
H11K H -0.0266 0.1561 0.2251
C15K C -0.0817(3) 0.0823(3) 0.22616(6)
C16K C -0.1361(3) -0.0015(3) 0.22270(7)
C17K C -0.1561(4) 0.0009(4) 0.23639(7)
H12K H -0.1819 -0.0283 0.2398
C18K C -0.1388(4) 0.0446(5) 0.24483(8)
H13K H -0.1526 0.0468 0.2542
C19K C -0.1003(4) 0.0868(4) 0.23970(7)
H14K H -0.0873 0.1179 0.2455
C20K C -0.1536(4) -0.0505(3) 0.21290(8)
H15K H -0.1197 -0.0755 0.2111
H16K H -0.1846 -0.0738 0.2172
H17K H -0.1677 -0.0340 0.2041
C21K C 0.0928(4) 0.1583(4) 0.16526(8)
C22K C 0.1544(4) 0.1524(4) 0.16104(8)
H18K H 0.1843 0.1583 0.1678
C23K C 0.1690(4) 0.1387(4) 0.14763(8)
H19K H 0.2087 0.1336 0.1450
C24K C 0.1239(4) 0.1320(3) 0.13759(8)
C25K C 0.0657(3) 0.1363(4) 0.14104(9)
C26K C 0.0520(4) 0.1498(5) 0.15563(8)
H20K H 0.0121 0.1526 0.1583
C27K C 0.1392(4) 0.1185(3) 0.12315(7)
H21K H 0.1790 0.1143 0.1205
C28K C 0.0966(4) 0.1120(3) 0.11362(7)
C29K C 0.0365(4) 0.1186(5) 0.11784(9)
H22K H 0.0063 0.1131 0.1111
C30K C 0.0226(4) 0.1322(6) 0.13109(9)
H23K H -0.0170 0.1391 0.1336
C31K C 0.1106(3) 0.1023(3) 0.09857(6)
C32K C 0.1545(3) 0.1332(3) 0.09216(6)
H24K H 0.1777 0.1594 0.0975
C33K C 0.1658(3) 0.1267(3) 0.07782(6)
C34K C 0.1317(3) 0.0890(3) 0.07011(6)
H25K H 0.1374 0.0857 0.0603
C35K C 0.0881(3) 0.0550(3) 0.07675(6)
C36K C 0.0767(3) 0.0629(3) 0.09079(6)
H26K H 0.0461 0.0417 0.0952
C37K C 0.2563(3) 0.1749(3) 0.07731(7)
H27K H 0.2621 0.1636 0.0868
C38K C 0.2995(3) 0.2098(3) 0.07010(7)
C39K C 0.3195(4) 0.2618(4) 0.04992(8)
C40K C 0.3734(5) 0.2809(5) 0.05548(11)
H28K H 0.3981 0.3060 0.0502
C41K C 0.3899(6) 0.2617(6) 0.06904(13)
H29K H 0.4261 0.2734 0.0730
C42K C 0.3518(4) 0.2255(5) 0.07629(10)
H30K H 0.3615 0.2118 0.0854
C43K C 0.3045(4) 0.2793(4) 0.03546(8)
H31K H 0.2626 0.2880 0.0349
H32K H 0.3269 0.3141 0.0329
H33K H 0.3140 0.2474 0.0290
C44K C 0.0405(3) -0.0346(3) 0.07420(7)
H34K H 0.0511 -0.0433 0.0836
C45K C 0.0064(3) -0.0761(3) 0.06608(7)
C46K C -0.0381(3) -0.0950(3) 0.04484(7)
C47K C -0.0503(4) -0.1511(4) 0.04916(9)
H35K H -0.0705 -0.1769 0.0430
C48K C -0.0340(4) -0.1701(4) 0.06205(9)
H36K H -0.0427 -0.2088 0.0650
C49K C -0.0045(4) -0.1322(3) 0.07084(9)
H37K H 0.0078 -0.1442 0.0799
C50K C -0.0554(4) -0.0730(4) 0.03061(7)
H38K H -0.0207 -0.0702 0.0247
H39K H -0.0834 -0.1002 0.0264
H40K H -0.0735 -0.0344 0.0315
N1K N 0.2319(2) 0.3146(2) 0.22035(5)
N2K N 0.1504(2) 0.2455(2) 0.20940(5)
N3K N -0.0207(2) 0.1136(2) 0.20753(5)
N4K N -0.1002(2) 0.0395(2) 0.21755(5)
N5K N 0.2098(2) 0.1593(2) 0.07069(5)
N6K N 0.2836(3) 0.2288(2) 0.05712(6)
N7K N 0.0563(2) 0.0148(2) 0.06855(5)
N8K N -0.0103(2) -0.0570(2) 0.05328(5)
Cu1K Cu 0.22608(4) 0.27776(4) 0.201091(8)
Cu2K Cu -0.05952(4) 0.04213(4) 0.198920(8)
C1N C -0.1912(3) 0.2067(3) 0.22896(6)
C2N C -0.2765(3) 0.1537(3) 0.22558(7)
C3N C -0.2801(3) 0.1428(4) 0.23971(7)
H1N H -0.3106 0.1188 0.2432
C4N C -0.2404(4) 0.1661(5) 0.24864(8)
H2N H -0.2445 0.1613 0.2585
C5N C -0.1931(4) 0.1974(4) 0.24303(7)
H3N H -0.1630 0.2119 0.2489
C6N C -0.3213(4) 0.1335(4) 0.21547(8)
H4N H -0.3474 0.1056 0.2201
H5N H -0.3439 0.1670 0.2121
H6N H -0.3020 0.1145 0.2075
C7N C -0.1449(3) 0.2413(3) 0.22230(6)
H7N H -0.1117 0.2536 0.2275
C8N C -0.1070(3) 0.2883(3) 0.20236(6)
C9N C -0.0614(3) 0.3167(2) 0.20909(6)
H8N H -0.0563 0.3127 0.2189
C10N C -0.0231(3) 0.3512(3) 0.20127(6)
C11N C -0.0314(3) 0.3574(3) 0.18694(6)
H9N H -0.0045 0.3801 0.1817
C12N C -0.0789(4) 0.3306(4) 0.18008(7)
C13N C -0.1150(3) 0.2949(3) 0.18818(6)
H10N H -0.1461 0.2745 0.1838
C14N C 0.0397(3) 0.3770(3) 0.21997(6)
H11N H 0.0266 0.3439 0.2251
C15N C 0.0817(3) 0.4177(3) 0.22616(6)
C16N C 0.1361(3) 0.5015(3) 0.22270(7)
C17N C 0.1561(4) 0.4991(4) 0.23639(7)
H12N H 0.1819 0.5283 0.2398
C18N C 0.1388(4) 0.4554(5) 0.24483(8)
H13N H 0.1526 0.4532 0.2542
C19N C 0.1003(4) 0.4132(4) 0.23970(7)
H14N H 0.0873 0.3821 0.2455
C20N C 0.1536(4) 0.5505(3) 0.21290(8)
H15N H 0.1197 0.5755 0.2111
H16N H 0.1846 0.5738 0.2172
H17N H 0.1677 0.5340 0.2041
C21N C -0.0928(4) 0.3417(4) 0.16526(8)
C22N C -0.1544(4) 0.3476(4) 0.16104(8)
H18N H -0.1843 0.3417 0.1678
C23N C -0.1690(4) 0.3613(4) 0.14763(8)
H19N H -0.2087 0.3664 0.1450
C24N C -0.1239(4) 0.3680(3) 0.13759(8)
C25N C -0.0657(3) 0.3637(4) 0.14104(9)
C26N C -0.0520(4) 0.3502(5) 0.15563(8)
H20N H -0.0121 0.3474 0.1583
C27N C -0.1392(4) 0.3815(3) 0.12315(7)
H21N H -0.1790 0.3857 0.1205
C28N C -0.0966(4) 0.3880(3) 0.11362(7)
C29N C -0.0365(4) 0.3814(5) 0.11784(9)
H22N H -0.0063 0.3869 0.1111
C30N C -0.0226(4) 0.3678(6) 0.13109(9)
H23N H 0.0170 0.3609 0.1336
C31N C -0.1106(3) 0.3977(3) 0.09857(6)
C32N C -0.1545(3) 0.3668(3) 0.09216(6)
H24N H -0.1777 0.3406 0.0975
C33N C -0.1658(3) 0.3733(3) 0.07782(6)
C34N C -0.1317(3) 0.4110(3) 0.07011(6)
H25N H -0.1374 0.4143 0.0603
C35N C -0.0881(3) 0.4450(3) 0.07675(6)
C36N C -0.0767(3) 0.4371(3) 0.09079(6)
H26N H -0.0461 0.4583 0.0952
C37N C -0.2563(3) 0.3251(3) 0.07731(7)
H27N H -0.2621 0.3364 0.0868
C38N C -0.2995(3) 0.2902(3) 0.07010(7)
C39N C -0.3195(4) 0.2382(4) 0.04992(8)
C40N C -0.3734(5) 0.2191(5) 0.05548(11)
H28N H -0.3981 0.1940 0.0502
C41N C -0.3899(6) 0.2383(6) 0.06904(13)
H29N H -0.4261 0.2266 0.0730
C42N C -0.3518(4) 0.2745(5) 0.07629(10)
H30N H -0.3615 0.2882 0.0854
C43N C -0.3045(4) 0.2207(4) 0.03546(8)
H31N H -0.2626 0.2120 0.0349
H32N H -0.3269 0.1859 0.0329
H33N H -0.3140 0.2526 0.0290
C44N C -0.0405(3) 0.5346(3) 0.07420(7)
H34N H -0.0511 0.5433 0.0836
C45N C -0.0064(3) 0.5761(3) 0.06608(7)
C46N C 0.0381(3) 0.5950(3) 0.04484(7)
C47N C 0.0503(4) 0.6511(4) 0.04916(9)
H35N H 0.0705 0.6769 0.0430
C48N C 0.0340(4) 0.6701(4) 0.06205(9)
H36N H 0.0427 0.7088 0.0650
C49N C 0.0045(4) 0.6322(3) 0.07084(9)
H37N H -0.0078 0.6442 0.0799
C50N C 0.0554(4) 0.5730(4) 0.03061(7)
H38N H 0.0207 0.5702 0.0247
H39N H 0.0834 0.6002 0.0264
H40N H 0.0735 0.5344 0.0315
N1N N -0.2319(2) 0.1854(2) 0.22035(5)
N2N N -0.1504(2) 0.2545(2) 0.20940(5)
N3N N 0.0207(2) 0.3864(2) 0.20753(5)
N4N N 0.1002(2) 0.4605(2) 0.21755(5)
N5N N -0.2098(2) 0.3407(2) 0.07069(5)
N6N N -0.2836(3) 0.2712(2) 0.05712(6)
N7N N -0.0563(2) 0.4852(2) 0.06855(5)
N8N N 0.0103(2) 0.5570(2) 0.05328(5)
Cu1N Cu -0.22608(4) 0.22224(4) 0.201091(8)
Cu2N Cu 0.05952(4) 0.45787(4) 0.198920(8)
C1E C -0.0433(3) 0.4412(3) 0.02104(6)
C2E C -0.0963(3) 0.5265(3) 0.02442(7)
C3E C -0.1072(4) 0.5301(3) 0.01029(7)
H1E H -0.1312 0.5606 0.0068
C4E C -0.0839(5) 0.4904(4) 0.00136(8)
H2E H -0.0887 0.4945 -0.0085
C5E C -0.0526(4) 0.4431(4) 0.00697(7)
H3E H -0.0381 0.4130 0.0011
C6E C -0.1165(4) 0.5713(4) 0.03453(8)
H4E H -0.1444 0.5974 0.0299
H5E H -0.0830 0.5939 0.0379
H6E H -0.1355 0.5520 0.0425
C7E C -0.0087(3) 0.3949(3) 0.02770(6)
H7E H 0.0036 0.3617 0.0225
C8E C 0.0383(3) 0.3570(3) 0.04764(6)
C9E C 0.0667(2) 0.3114(3) 0.04091(6)
H8E H 0.0627 0.3063 0.0311
C10E C 0.1012(3) 0.2731(3) 0.04873(6)
C11E C 0.1074(3) 0.2814(3) 0.06306(6)
H9E H 0.1301 0.2545 0.0683
C12E C 0.0806(4) 0.3289(4) 0.06992(7)
C13E C 0.0449(3) 0.3650(3) 0.06182(6)
H10E H 0.0245 0.3961 0.0662
C14E C 0.1270(3) 0.2103(3) 0.03003(6)
H11E H 0.0939 0.2234 0.0249
C15E C 0.1677(3) 0.1683(3) 0.02384(6)
C16E C 0.2515(3) 0.1139(3) 0.02730(7)
C17E C 0.2491(4) 0.0939(4) 0.01361(7)
H12E H 0.2783 0.0681 0.0102
C18E C 0.2054(5) 0.1112(4) 0.00517(8)
H13E H 0.2032 0.0974 -0.0042
C19E C 0.1632(4) 0.1497(4) 0.01030(7)
H14E H 0.1321 0.1627 0.0045
C20E C 0.3005(3) 0.0964(4) 0.03710(8)
H15E H 0.3255 0.1303 0.0389
H16E H 0.3238 0.0654 0.0328
H17E H 0.2840 0.0823 0.0459
C21E C 0.0917(4) 0.3428(4) 0.08474(8)
C22E C 0.0976(4) 0.4044(4) 0.08896(8)
H18E H 0.0917 0.4343 0.0822
C23E C 0.1113(4) 0.4190(4) 0.10237(8)
H19E H 0.1164 0.4587 0.1050
C24E C 0.1180(3) 0.3739(4) 0.11241(8)
C25E C 0.1137(4) 0.3157(3) 0.10896(9)
C26E C 0.1002(5) 0.3020(4) 0.09437(8)
H20E H 0.0974 0.2621 0.0917
C27E C 0.1315(3) 0.3892(4) 0.12685(7)
H21E H 0.1357 0.4290 0.1295
C28E C 0.1380(3) 0.3466(4) 0.13638(7)
C29E C 0.1314(5) 0.2865(4) 0.13216(9)
H22E H 0.1369 0.2563 0.1389
C30E C 0.1178(6) 0.2726(4) 0.11891(9)
H23E H 0.1109 0.2330 0.1164
C31E C 0.1477(3) 0.3606(3) 0.15143(6)
C32E C 0.1168(3) 0.4045(3) 0.15784(6)
H24E H 0.0906 0.4277 0.1525
C33E C 0.1233(3) 0.4158(3) 0.17218(6)
C34E C 0.1610(3) 0.3817(3) 0.17989(6)
H25E H 0.1643 0.3874 0.1897
C35E C 0.1950(3) 0.3381(3) 0.17325(6)
C36E C 0.1871(3) 0.3267(3) 0.15921(6)
H26E H 0.2083 0.2961 0.1548
C37E C 0.0751(3) 0.5063(3) 0.17269(7)
H27E H 0.0864 0.5121 0.1632
C38E C 0.0402(3) 0.5495(3) 0.17990(7)
C39E C -0.0118(4) 0.5695(4) 0.20008(8)
C40E C -0.0309(5) 0.6234(5) 0.19452(11)
H28E H -0.0560 0.6481 0.1998
C41E C -0.0117(6) 0.6399(6) 0.18096(13)
H29E H -0.0234 0.6761 0.1770
C42E C 0.0245(5) 0.6018(4) 0.17371(10)
H30E H 0.0382 0.6115 0.1646
C43E C -0.0293(4) 0.5545(4) 0.21454(8)
H31E H -0.0380 0.5126 0.2151
H32E H -0.0641 0.5769 0.2171
H33E H 0.0026 0.5640 0.2210
C44E C 0.2846(3) 0.2905(3) 0.17580(7)
H34E H 0.2933 0.3011 0.1664
C45E C 0.3261(3) 0.2564(3) 0.18392(7)
C46E C 0.3450(3) 0.2119(3) 0.20516(7)
C47E C 0.4011(4) 0.1997(4) 0.20084(9)
H35E H 0.4269 0.1795 0.2070
C48E C 0.4201(4) 0.2160(4) 0.18795(9)
H36E H 0.4588 0.2073 0.1850
C49E C 0.3822(3) 0.2455(4) 0.17916(9)
H37E H 0.3942 0.2578 0.1701
C50E C 0.3230(4) 0.1946(4) 0.21939(7)
H38E H 0.3202 0.2293 0.2253
H39E H 0.3502 0.1666 0.2236
H40E H 0.2844 0.1765 0.2185
N1E N -0.0646(2) 0.4819(2) 0.02965(5)
N2E N 0.0045(2) 0.4004(2) 0.04060(5)
N3E N 0.1364(2) 0.2293(2) 0.04247(5)
N4E N 0.2105(2) 0.1498(2) 0.03245(5)
N5E N 0.0907(2) 0.4598(2) 0.17931(5)
N6E N 0.0212(2) 0.5336(3) 0.19288(6)
N7E N 0.2352(2) 0.3063(2) 0.18145(5)
N8E N 0.3070(2) 0.2397(2) 0.19672(5)
Cu1E Cu -0.02776(4) 0.47608(4) 0.048909(8)
Cu2E Cu 0.20787(4) 0.19048(4) 0.051080(8)
F29? F 0.8039(5) 0.1111(6) 0.01086(13)
F30? F 0.7504(5) 0.0803(8) 0.02883(16)
F31? F 0.8314(6) 0.0520(7) 0.03983(10)
F32? F 0.8847(4) 0.0836(5) 0.02189(10)
N22? N 0.0000 -0.2500 0.20194(18)
C111? C 0.0086(12) -0.2377(10) 0.21310(18)
C112? C 0.0240(13) -0.2077(12) 0.2269(2)
H96? H 0.0503 -0.1748 0.2251
H97? H 0.0433 -0.2358 0.2331
H98? H -0.0118 -0.1934 0.2314
loop_
_geom_bond_atom_site_label_1
_geom_bond_atom_site_label_2
_geom_bond_site_symmetry_1
_geom_bond_site_symmetry_2
C1 C5 1_555 1_555
C2 C3 1_555 1_555
C3 H1 1_555 1_555
C4 C3 1_555 1_555
H2 C4 1_555 1_555
C5 C4 1_555 1_555
H3 C5 1_555 1_555
C6 C2 1_555 1_555
H4 C6 1_555 1_555
H5 C6 1_555 1_555
H6 C6 1_555 1_555
C7 C1 1_555 1_555
H7 C7 1_555 1_555
C8 C9 1_555 1_555
C9 H8 1_555 1_555
C10 C9 1_555 1_555
C11 C10 1_555 1_555
H9 C11 1_555 1_555
C12 C11 1_555 1_555
C13 C8 1_555 1_555
H10 C13 1_555 1_555
C14 H11 1_555 1_555
C15 C14 1_555 1_555
C16 C17 1_555 1_555
C17 H12 1_555 1_555
C18 C17 1_555 1_555
H13 C18 1_555 1_555
C19 C15 1_555 1_555
H14 C19 1_555 1_555
C20 C16 1_555 1_555
H15 C20 1_555 1_555
H16 C20 1_555 1_555
H17 C20 1_555 1_555
C21 C12 1_555 1_555
C22 C21 1_555 1_555
H18 C22 1_555 1_555
C23 C22 1_555 1_555
H19 C23 1_555 1_555
C24 C23 1_555 1_555
C25 C24 1_555 1_555
C26 C21 1_555 1_555
H20 C26 1_555 1_555
C27 C24 1_555 1_555
H21 C27 1_555 1_555
C28 C27 1_555 1_555
C29 C28 1_555 1_555
H22 C29 1_555 1_555
C30 C25 1_555 1_555
H23 C30 1_555 1_555
C31 C28 1_555 1_555
C32 C31 1_555 1_555
H24 C32 1_555 1_555
C33 C32 1_555 1_555
C34 C33 1_555 1_555
H25 C34 1_555 1_555
C35 C34 1_555 1_555
C36 C31 1_555 1_555
H26 C36 1_555 1_555
C37 H27 1_555 1_555
C38 C37 1_555 1_555
C39 C40 1_555 1_555
C40 H28 1_555 1_555
C41 C40 1_555 1_555
H29 C41 1_555 1_555
C42 C38 1_555 1_555
H30 C42 1_555 1_555
C43 C39 1_555 1_555
H31 C43 1_555 1_555
H32 C43 1_555 1_555
H33 C43 1_555 1_555
C44 H34 1_555 1_555
C45 C44 1_555 1_555
C46 C47 1_555 1_555
C47 H35 1_555 1_555
C48 C47 1_555 1_555
H36 C48 1_555 1_555
C49 C45 1_555 1_555
H37 C49 1_555 1_555
C50 C46 1_555 1_555
H38 C50 1_555 1_555
H39 C50 1_555 1_555
H40 C50 1_555 1_555
N1 C1 1_555 1_555
N2 C7 1_555 1_555
N3 C10 1_555 1_555
N4 C15 1_555 1_555
N5 C33 1_555 1_555
N6 C38 1_555 1_555
N7 C35 1_555 1_555
N8 C45 1_555 1_555
Cu1 N1 1_555 1_555
Cu2 N3 1_555 1_555
C51 C55 1_555 1_555
C52 C53 1_555 1_555
C53 H41 1_555 1_555
C54 C53 1_555 1_555
H42 C54 1_555 1_555
C55 C54 1_555 1_555
H43 C55 1_555 1_555
C56 C52 1_555 1_555
H44 C56 1_555 1_555
H45 C56 1_555 1_555
H46 C56 1_555 1_555
C57 C51 1_555 1_555
H47 C57 1_555 1_555
C58 C59 1_555 1_555
C59 H48 1_555 1_555
C60 C59 1_555 1_555
C61 C60 1_555 1_555
H49 C61 1_555 1_555
C62 C61 1_555 1_555
C63 C58 1_555 1_555
H50 C63 1_555 1_555
C64 H51 1_555 1_555
C65 C64 1_555 1_555
C66 C67 1_555 1_555
C67 H52 1_555 1_555
C68 C67 1_555 1_555
H53 C68 1_555 1_555
C69 C65 1_555 1_555
H54 C69 1_555 1_555
C70 C66 1_555 1_555
H55 C70 1_555 1_555
H56 C70 1_555 1_555
H57 C70 1_555 1_555
C71 C62 1_555 1_555
C72 C71 1_555 1_555
H58 C72 1_555 1_555
C73 C72 1_555 1_555
C74 C73 1_555 1_555
C75 C74 1_555 1_555
H59 C75 1_555 1_555
C76 C71 1_555 1_555
H60 C76 1_555 1_555
C77 C73 1_555 1_555
H61 C77 1_555 1_555
C78 C77 1_555 1_555
H62 C78 1_555 1_555
C79 C78 1_555 1_555
C80 C74 1_555 1_555
H63 C80 1_555 1_555
C81 C79 1_555 1_555
C82 C81 1_555 1_555
H64 C82 1_555 1_555
C83 C82 1_555 1_555
C84 C83 1_555 1_555
H65 C84 1_555 1_555
C85 C84 1_555 1_555
C86 C81 1_555 1_555
H66 C86 1_555 1_555
C87 H67 1_555 1_555
C88 C87 1_555 1_555
C89 C90 1_555 1_555
C90 H68 1_555 1_555
C91 C90 1_555 1_555
H69 C91 1_555 1_555
C92 C88 1_555 1_555
H70 C92 1_555 1_555
C93 C89 1_555 1_555
H71 C93 1_555 1_555
H72 C93 1_555 1_555
H73 C93 1_555 1_555
C94 H74 1_555 1_555
C95 C94 1_555 1_555
C96 C97 1_555 1_555
C97 H75 1_555 1_555
C98 C97 1_555 1_555
H76 C98 1_555 1_555
C99 C95 1_555 1_555
H77 C99 1_555 1_555
C100 C96 1_555 1_555
H78 C100 1_555 1_555
H79 C100 1_555 1_555
H80 C100 1_555 1_555
N9 C51 1_555 1_555
N10 C57 1_555 1_555
N11 C60 1_555 1_555
N12 C65 1_555 1_555
N13 C83 1_555 1_555
N14 C88 1_555 1_555
N15 C85 1_555 1_555
N16 C95 1_555 1_555
Cu3 N9 1_555 1_555
Cu4 N11 1_555 1_555
F1 P1 1_555 1_555
F2 P1 1_555 1_555
F3 P1 1_555 1_555
F4 P1 1_555 1_555
F5 P1 1_555 1_555
F6 P1 1_555 1_555
F7 P2 1_555 1_555
F8 P2 1_555 1_555
F9 P2 1_555 1_555
F10 P2 1_555 1_555
F11 P2 1_555 1_555
F12 P2 1_555 1_555
F13 P3 1_555 1_555
F14 P3 1_555 1_555
F15 P3 1_555 1_555
F16 P3 1_555 1_555
F17 P3 1_555 1_555
F18 P3 1_555 1_555
F19 P4 1_555 1_555
F20 P4 1_555 1_555
F21 P4 1_555 1_555
F22 P4 1_555 1_555
P4 F20E 1_555 1_555
F23 P5 1_555 1_555
F24 P5 1_555 1_555
F25 P5 1_555 1_555
F26 P5 1_555 1_555
F27 P5 1_555 1_555
F28 P5 1_555 1_555
N17 C101 1_555 1_555
C101 C102 1_555 1_555
C102 H81 1_555 1_555
H82 C102 1_555 1_555
H83 C102 1_555 1_555
N18 C103 1_555 1_555
C103 C104 1_555 1_555
C104 H84 1_555 1_555
H85 C104 1_555 1_555
H86 C104 1_555 1_555
N19 C105 1_555 1_555
C105 C106 1_555 1_555
C106 H87 1_555 1_555
H88 C106 1_555 1_555
H89 C106 1_555 1_555
N20 C107 1_555 1_555
C107 C108 1_555 1_555
C108 H90 1_555 1_555
H91 C108 1_555 1_555
H92 C108 1_555 1_555
N21 C109 1_555 1_555
C109 C110 1_555 1_555
C110 H93 1_555 1_555
H94 C110 1_555 1_555
H95 C110 1_555 1_555
C1K C5K 1_555 1_555
C2K C3K 1_555 1_555
C3K H1K 1_555 1_555
C4K C3K 1_555 1_555
H2K C4K 1_555 1_555
C5K C4K 1_555 1_555
H3K C5K 1_555 1_555
C6K C2K 1_555 1_555
H4K C6K 1_555 1_555
H5K C6K 1_555 1_555
H6K C6K 1_555 1_555
C7K C1K 1_555 1_555
H7K C7K 1_555 1_555
C8K C9K 1_555 1_555
C9K H8K 1_555 1_555
C10K C9K 1_555 1_555
C11K C10K 1_555 1_555
H9K C11K 1_555 1_555
C12K C11K 1_555 1_555
C13K C8K 1_555 1_555
H10K C13K 1_555 1_555
C14K H11K 1_555 1_555
C15K C14K 1_555 1_555
C16K C17K 1_555 1_555
C17K H12K 1_555 1_555
C18K C17K 1_555 1_555
H13K C18K 1_555 1_555
C19K C15K 1_555 1_555
H14K C19K 1_555 1_555
C20K C16K 1_555 1_555
H15K C20K 1_555 1_555
H16K C20K 1_555 1_555
H17K C20K 1_555 1_555
C21K C12K 1_555 1_555
C22K C21K 1_555 1_555
H18K C22K 1_555 1_555
C23K C22K 1_555 1_555
H19K C23K 1_555 1_555
C24K C23K 1_555 1_555
C25K C24K 1_555 1_555
C26K C21K 1_555 1_555
H20K C26K 1_555 1_555
C27K C24K 1_555 1_555
H21K C27K 1_555 1_555
C28K C27K 1_555 1_555
C29K C28K 1_555 1_555
H22K C29K 1_555 1_555
C30K C25K 1_555 1_555
H23K C30K 1_555 1_555
C31K C28K 1_555 1_555
C32K C31K 1_555 1_555
H24K C32K 1_555 1_555
C33K C32K 1_555 1_555
C34K C33K 1_555 1_555
H25K C34K 1_555 1_555
C35K C34K 1_555 1_555
C36K C31K 1_555 1_555
H26K C36K 1_555 1_555
C37K H27K 1_555 1_555
C38K C37K 1_555 1_555
C39K C40K 1_555 1_555
C40K H28K 1_555 1_555
C41K C40K 1_555 1_555
H29K C41K 1_555 1_555
C42K C38K 1_555 1_555
H30K C42K 1_555 1_555
C43K C39K 1_555 1_555
H31K C43K 1_555 1_555
H32K C43K 1_555 1_555
H33K C43K 1_555 1_555
C44K H34K 1_555 1_555
C45K C44K 1_555 1_555
C46K C47K 1_555 1_555
C47K H35K 1_555 1_555
C48K C47K 1_555 1_555
H36K C48K 1_555 1_555
C49K C45K 1_555 1_555
H37K C49K 1_555 1_555
C50K C46K 1_555 1_555
H38K C50K 1_555 1_555
H39K C50K 1_555 1_555
H40K C50K 1_555 1_555
N1K C1K 1_555 1_555
N2K C7K 1_555 1_555
N3K C10K 1_555 1_555
N4K C15K 1_555 1_555
N5K C33K 1_555 1_555
N6K C38K 1_555 1_555
N7K Cu1 1_555 1_555
N8K Cu1 1_555 1_555
Cu1K N1K 1_555 1_555
Cu2K N5 1_555 1_555
C1N C5N 1_555 1_555
C2N C3N 1_555 1_555
C3N H1N 1_555 1_555
C4N C3N 1_555 1_555
H2N C4N 1_555 1_555
C5N C4N 1_555 1_555
H3N C5N 1_555 1_555
C6N C2N 1_555 1_555
H4N C6N 1_555 1_555
H5N C6N 1_555 1_555
H6N C6N 1_555 1_555
C7N C1N 1_555 1_555
H7N C7N 1_555 1_555
C8N C9N 1_555 1_555
C9N H8N 1_555 1_555
C10N C9N 1_555 1_555
C11N C10N 1_555 1_555
H9N C11N 1_555 1_555
C12N C11N 1_555 1_555
C13N C8N 1_555 1_555
H10N C13N 1_555 1_555
C14N H11N 1_555 1_555
C15N C14N 1_555 1_555
C16N C17N 1_555 1_555
C17N H12N 1_555 1_555
C18N C17N 1_555 1_555
H13N C18N 1_555 1_555
C19N C15N 1_555 1_555
H14N C19N 1_555 1_555
C20N C16N 1_555 1_555
H15N C20N 1_555 1_555
H16N C20N 1_555 1_555
H17N C20N 1_555 1_555
C21N C12N 1_555 1_555
C22N C21N 1_555 1_555
H18N C22N 1_555 1_555
C23N C22N 1_555 1_555
H19N C23N 1_555 1_555
C24N C23N 1_555 1_555
C25N C24N 1_555 1_555
C26N C21N 1_555 1_555
H20N C26N 1_555 1_555
C27N C24N 1_555 1_555
H21N C27N 1_555 1_555
C28N C27N 1_555 1_555
C29N C28N 1_555 1_555
H22N C29N 1_555 1_555
C30N C25N 1_555 1_555
H23N C30N 1_555 1_555
C31N C28N 1_555 1_555
C32N C31N 1_555 1_555
H24N C32N 1_555 1_555
C33N C32N 1_555 1_555
C34N C33N 1_555 1_555
H25N C34N 1_555 1_555
C35N C34N 1_555 1_555
C36N C31N 1_555 1_555
H26N C36N 1_555 1_555
C37N H27N 1_555 1_555
C38N C37N 1_555 1_555
C39N C40N 1_555 1_555
C40N H28N 1_555 1_555
C41N C40N 1_555 1_555
H29N C41N 1_555 1_555
C42N C38N 1_555 1_555
H30N C42N 1_555 1_555
C43N C39N 1_555 1_555
H31N C43N 1_555 1_555
H32N C43N 1_555 1_555
H33N C43N 1_555 1_555
C44N H34N 1_555 1_555
C45N C44N 1_555 1_555
C46N C47N 1_555 1_555
C47N H35N 1_555 1_555
C48N C47N 1_555 1_555
H36N C48N 1_555 1_555
C49N C45N 1_555 1_555
H37N C49N 1_555 1_555
C50N C46N 1_555 1_555
H38N C50N 1_555 1_555
H39N C50N 1_555 1_555
H40N C50N 1_555 1_555
N1N C1N 1_555 1_555
N2N C7N 1_555 1_555
N3N C10N 1_555 1_555
N4N C15N 1_555 1_555
N5N Cu2 1_555 1_555
N6N Cu2 1_555 1_555
N7N C35N 1_555 1_555
N8N C45N 1_555 1_555
Cu1N N7 1_555 1_555
Cu2N N3N 1_555 1_555
C1E C5E 1_555 1_555
C2E C3E 1_555 1_555
C3E H1E 1_555 1_555
C4E C3E 1_555 1_555
H2E C4E 1_555 1_555
C5E C4E 1_555 1_555
H3E C5E 1_555 1_555
C6E C2E 1_555 1_555
H4E C6E 1_555 1_555
H5E C6E 1_555 1_555
H6E C6E 1_555 1_555
C7E C1E 1_555 1_555
H7E C7E 1_555 1_555
C8E C9E 1_555 1_555
C9E H8E 1_555 1_555
C10E C9E 1_555 1_555
C11E C10E 1_555 1_555
H9E C11E 1_555 1_555
C12E C11E 1_555 1_555
C13E C8E 1_555 1_555
H10E C13E 1_555 1_555
C14E H11E 1_555 1_555
C15E C14E 1_555 1_555
C16E C17E 1_555 1_555
C17E H12E 1_555 1_555
C18E C17E 1_555 1_555
H13E C18E 1_555 1_555
C19E C15E 1_555 1_555
H14E C19E 1_555 1_555
C20E C16E 1_555 1_555
H15E C20E 1_555 1_555
H16E C20E 1_555 1_555
H17E C20E 1_555 1_555
C21E C12E 1_555 1_555
C22E C21E 1_555 1_555
H18E C22E 1_555 1_555
C23E C22E 1_555 1_555
H19E C23E 1_555 1_555
C24E C23E 1_555 1_555
C25E C24E 1_555 1_555
C26E C21E 1_555 1_555
H20E C26E 1_555 1_555
C27E C24E 1_555 1_555
H21E C27E 1_555 1_555
C28E C27E 1_555 1_555
C29E C28E 1_555 1_555
H22E C29E 1_555 1_555
C30E C25E 1_555 1_555
H23E C30E 1_555 1_555
C31E C28E 1_555 1_555
C32E C31E 1_555 1_555
H24E C32E 1_555 1_555
C33E C32E 1_555 1_555
C34E C33E 1_555 1_555
H25E C34E 1_555 1_555
C35E C34E 1_555 1_555
C36E C31E 1_555 1_555
H26E C36E 1_555 1_555
C37E H27E 1_555 1_555
C38E C37E 1_555 1_555
C39E C40E 1_555 1_555
C40E H28E 1_555 1_555
C41E C40E 1_555 1_555
H29E C41E 1_555 1_555
C42E C38E 1_555 1_555
H30E C42E 1_555 1_555
C43E C39E 1_555 1_555
H31E C43E 1_555 1_555
H32E C43E 1_555 1_555
H33E C43E 1_555 1_555
C44E H34E 1_555 1_555
C45E C44E 1_555 1_555
C46E C47E 1_555 1_555
C47E H35E 1_555 1_555
C48E C47E 1_555 1_555
H36E C48E 1_555 1_555
C49E C45E 1_555 1_555
H37E C49E 1_555 1_555
C50E C46E 1_555 1_555
H38E C50E 1_555 1_555
H39E C50E 1_555 1_555
H40E C50E 1_555 1_555
N1E C1E 1_555 1_555
N2E C7E 1_555 1_555
N3E C10E 1_555 1_555
N4E C15E 1_555 1_555
N5E Cu2N 1_555 1_555
N6E Cu2N 1_555 1_555
N7E Cu1K 1_555 1_555
N8E Cu1K 1_555 1_555
Cu1E N7N 1_555 1_555
Cu2E N5K 1_555 1_555
C51K C55K 1_555 1_555
C52K C53K 1_555 1_555
C53K H41K 1_555 1_555
C54K C53K 1_555 1_555
H42K C54K 1_555 1_555
C55K C54K 1_555 1_555
H43K C55K 1_555 1_555
C56K C52K 1_555 1_555
H44K C56K 1_555 1_555
H45K C56K 1_555 1_555
H46K C56K 1_555 1_555
C57K C51K 1_555 1_555
H47K C57K 1_555 1_555
C58K C59K 1_555 1_555
C59K H48K 1_555 1_555
C60K C59K 1_555 1_555
C61K C60K 1_555 1_555
H49K C61K 1_555 1_555
C62K C61K 1_555 1_555
C63K C58K 1_555 1_555
H50K C63K 1_555 1_555
C64K H51K 1_555 1_555
C65K C64K 1_555 1_555
C66K C67K 1_555 1_555
C67K H52K 1_555 1_555
C68K C67K 1_555 1_555
H53K C68K 1_555 1_555
C69K C65K 1_555 1_555
H54K C69K 1_555 1_555
C70K C66K 1_555 1_555
H55K C70K 1_555 1_555
H56K C70K 1_555 1_555
H57K C70K 1_555 1_555
C71K C62K 1_555 1_555
C72K C71K 1_555 1_555
H58K C72K 1_555 1_555
C73K C72K 1_555 1_555
C74K C73K 1_555 1_555
C75K C74K 1_555 1_555
H59K C75K 1_555 1_555
C76K C71K 1_555 1_555
H60K C76K 1_555 1_555
C77K C73K 1_555 1_555
H61K C77K 1_555 1_555
C78K C77K 1_555 1_555
H62K C78K 1_555 1_555
C79K C78K 1_555 1_555
C80K C74K 1_555 1_555
H63K C80K 1_555 1_555
C81K C79K 1_555 1_555
C82K C81K 1_555 1_555
H64K C82K 1_555 1_555
C83K C82K 1_555 1_555
C84K C83K 1_555 1_555
H65K C84K 1_555 1_555
C85K C84K 1_555 1_555
C86K C81K 1_555 1_555
H66K C86K 1_555 1_555
C87K H67K 1_555 1_555
C88K C87K 1_555 1_555
C89K C90K 1_555 1_555
C90K H68K 1_555 1_555
C91K C90K 1_555 1_555
H69K C91K 1_555 1_555
C92K C88K 1_555 1_555
H70K C92K 1_555 1_555
C93K C89K 1_555 1_555
H71K C93K 1_555 1_555
H72K C93K 1_555 1_555
H73K C93K 1_555 1_555
C94K H74K 1_555 1_555
C95K C94K 1_555 1_555
C96K C97K 1_555 1_555
C97K H75K 1_555 1_555
C98K C97K 1_555 1_555
H76K C98K 1_555 1_555
C99K C95K 1_555 1_555
H77K C99K 1_555 1_555
C100K C96K 1_555 1_555
H78K C100K 1_555 1_555
H79K C100K 1_555 1_555
H80K C100K 1_555 1_555
N9K C51K 1_555 1_555
N10K C57K 1_555 1_555
N11K C60K 1_555 1_555
N12K C65K 1_555 1_555
N13K C83K 1_555 1_555
N14K C88K 1_555 1_555
N15K Cu4 1_555 1_555
N16K Cu4 1_555 1_555
Cu3K N13 1_555 1_555
Cu4K N11K 1_555 1_555
C51N C55N 1_555 1_555
C52N C53N 1_555 1_555
C53N H41N 1_555 1_555
C54N C53N 1_555 1_555
H42N C54N 1_555 1_555
C55N C54N 1_555 1_555
H43N C55N 1_555 1_555
C56N C52N 1_555 1_555
H44N C56N 1_555 1_555
H45N C56N 1_555 1_555
H46N C56N 1_555 1_555
C57N C51N 1_555 1_555
H47N C57N 1_555 1_555
C58N C59N 1_555 1_555
C59N H48N 1_555 1_555
C60N C59N 1_555 1_555
C61N C60N 1_555 1_555
H49N C61N 1_555 1_555
C62N C61N 1_555 1_555
C63N C58N 1_555 1_555
H50N C63N 1_555 1_555
C64N H51N 1_555 1_555
C65N C64N 1_555 1_555
C66N C67N 1_555 1_555
C67N H52N 1_555 1_555
C68N C67N 1_555 1_555
H53N C68N 1_555 1_555
C69N C65N 1_555 1_555
H54N C69N 1_555 1_555
C70N C66N 1_555 1_555
H55N C70N 1_555 1_555
H56N C70N 1_555 1_555
H57N C70N 1_555 1_555
C71N C62N 1_555 1_555
C72N C71N 1_555 1_555
H58N C72N 1_555 1_555
C73N C72N 1_555 1_555
C74N C73N 1_555 1_555
C75N C74N 1_555 1_555
H59N C75N 1_555 1_555
C76N C71N 1_555 1_555
H60N C76N 1_555 1_555
C77N C73N 1_555 1_555
H61N C77N 1_555 1_555
C78N C77N 1_555 1_555
H62N C78N 1_555 1_555
C79N C78N 1_555 1_555
C80N C74N 1_555 1_555
H63N C80N 1_555 1_555
C81N C79N 1_555 1_555
C82N C81N 1_555 1_555
H64N C82N 1_555 1_555
C83N C82N 1_555 1_555
C84N C83N 1_555 1_555
H65N C84N 1_555 1_555
C85N C84N 1_555 1_555
C86N C81N 1_555 1_555
H66N C86N 1_555 1_555
C87N H67N 1_555 1_555
C88N C87N 1_555 1_555
C89N C90N 1_555 1_555
C90N H68N 1_555 1_555
C91N C90N 1_555 1_555
H69N C91N 1_555 1_555
C92N C88N 1_555 1_555
H70N C92N 1_555 1_555
C93N C89N 1_555 1_555
H71N C93N 1_555 1_555
H72N C93N 1_555 1_555
H73N C93N 1_555 1_555
C94N H74N 1_555 1_555
C95N C94N 1_555 1_555
C96N C97N 1_555 1_555
C97N H75N 1_555 1_555
C98N C97N 1_555 1_555
H76N C98N 1_555 1_555
C99N C95N 1_555 1_555
H77N C99N 1_555 1_555
C100N C96N 1_555 1_555
H78N C100N 1_555 1_555
H79N C100N 1_555 1_555
H80N C100N 1_555 1_555
N9N C51N 1_555 1_555
N10N C57N 1_555 1_555
N11N C60N 1_555 1_555
N12N C65N 1_555 1_555
N13N Cu3 1_555 1_555
N14N Cu3 1_555 1_555
N15N C85N 1_555 1_555
N16N C95N 1_555 1_555
Cu3N N9N 1_555 1_555
Cu4N N15 1_555 1_555
C51E C55E 1_555 1_555
C52E C53E 1_555 1_555
C53E H41E 1_555 1_555
C54E C53E 1_555 1_555
H42E C54E 1_555 1_555
C55E C54E 1_555 1_555
H43E C55E 1_555 1_555
C56E C52E 1_555 1_555
H44E C56E 1_555 1_555
H45E C56E 1_555 1_555
H46E C56E 1_555 1_555
C57E C51E 1_555 1_555
H47E C57E 1_555 1_555
C58E C59E 1_555 1_555
C59E H48E 1_555 1_555
C60E C59E 1_555 1_555
C61E C60E 1_555 1_555
H49E C61E 1_555 1_555
C62E C61E 1_555 1_555
C63E C58E 1_555 1_555
H50E C63E 1_555 1_555
C64E H51E 1_555 1_555
C65E C64E 1_555 1_555
C66E C67E 1_555 1_555
C67E H52E 1_555 1_555
C68E C67E 1_555 1_555
H53E C68E 1_555 1_555
C69E C65E 1_555 1_555
H54E C69E 1_555 1_555
C70E C66E 1_555 1_555
H55E C70E 1_555 1_555
H56E C70E 1_555 1_555
H57E C70E 1_555 1_555
C71E C62E 1_555 1_555
C72E C71E 1_555 1_555
H58E C72E 1_555 1_555
C73E C72E 1_555 1_555
C74E C73E 1_555 1_555
C75E C74E 1_555 1_555
H59E C75E 1_555 1_555
C76E C71E 1_555 1_555
H60E C76E 1_555 1_555
C77E C73E 1_555 1_555
H61E C77E 1_555 1_555
C78E C77E 1_555 1_555
H62E C78E 1_555 1_555
C79E C78E 1_555 1_555
C80E C74E 1_555 1_555
H63E C80E 1_555 1_555
C81E C79E 1_555 1_555
C82E C81E 1_555 1_555
H64E C82E 1_555 1_555
C83E C82E 1_555 1_555
C84E C83E 1_555 1_555
H65E C84E 1_555 1_555
C85E C84E 1_555 1_555
C86E C81E 1_555 1_555
H66E C86E 1_555 1_555
C87E H67E 1_555 1_555
C88E C87E 1_555 1_555
C89E C90E 1_555 1_555
C90E H68E 1_555 1_555
C91E C90E 1_555 1_555
H69E C91E 1_555 1_555
C92E C88E 1_555 1_555
H70E C92E 1_555 1_555
C93E C89E 1_555 1_555
H71E C93E 1_555 1_555
H72E C93E 1_555 1_555
H73E C93E 1_555 1_555
C94E H74E 1_555 1_555
C95E C94E 1_555 1_555
C96E C97E 1_555 1_555
C97E H75E 1_555 1_555
C98E C97E 1_555 1_555
H76E C98E 1_555 1_555
C99E C95E 1_555 1_555
H77E C99E 1_555 1_555
C100E C96E 1_555 1_555
H78E C100E 1_555 1_555
H79E C100E 1_555 1_555
H80E C100E 1_555 1_555
N9E C51E 1_555 1_555
N10E C57E 1_555 1_555
N11E C60E 1_555 1_555
N12E C65E 1_555 1_555
N13E Cu3N 1_555 1_555
N14E Cu3N 1_555 1_555
N15E Cu4K 1_555 1_555
N16E Cu4K 1_555 1_555
Cu3E N13K 1_555 1_555
Cu4E N15N 1_555 1_555
F22E P4 1_555 1_555
C2 N1 1_555 1_555
C8 N2 1_555 1_555
C12 C13 1_555 1_555
C14 N3 1_555 1_555
C16 N4 1_555 1_555
C18 C19 1_555 1_555
C25 C26 1_555 1_555
C29 C30 1_555 1_555
C35 C36 1_555 1_555
C37 N5 1_555 1_555
C39 N6 1_555 1_555
C41 C42 1_555 1_555
C44 N7 1_555 1_555
C46 N8 1_555 1_555
C48 C49 1_555 1_555
N2 Cu1 1_555 1_555
N4 Cu2 1_555 1_555
N6 Cu2K 1_555 1_555
N8 Cu1N 1_555 1_555
C52 N9 1_555 1_555
C58 N10 1_555 1_555
C62 C63 1_555 1_555
C64 N11 1_555 1_555
C66 N12 1_555 1_555
C68 C69 1_555 1_555
C75 C76 1_555 1_555
C79 C80 1_555 1_555
C85 C86 1_555 1_555
C87 N13 1_555 1_555
C89 N14 1_555 1_555
C91 C92 1_555 1_555
C94 N15 1_555 1_555
C96 N16 1_555 1_555
C98 C99 1_555 1_555
N10 Cu3 1_555 1_555
N12 Cu4 1_555 1_555
N14 Cu3K 1_555 1_555
N16 Cu4N 1_555 1_555
C2K N1K 1_555 1_555
C8K N2K 1_555 1_555
C12K C13K 1_555 1_555
C14K N3K 1_555 1_555
C16K N4K 1_555 1_555
C18K C19K 1_555 1_555
C25K C26K 1_555 1_555
C29K C30K 1_555 1_555
C35K C36K 1_555 1_555
C35K N7K 1_555 1_555
C37K N5K 1_555 1_555
C39K N6K 1_555 1_555
C41K C42K 1_555 1_555
C44K N7K 1_555 1_555
C45K N8K 1_555 1_555
C46K N8K 1_555 1_555
C48K C49K 1_555 1_555
N2K Cu1K 1_555 1_555
N3K Cu2K 1_555 1_555
N4K Cu2K 1_555 1_555
N6K Cu2E 1_555 1_555
C2N N1N 1_555 1_555
C8N N2N 1_555 1_555
C12N C13N 1_555 1_555
C14N N3N 1_555 1_555
C16N N4N 1_555 1_555
C18N C19N 1_555 1_555
C25N C26N 1_555 1_555
C29N C30N 1_555 1_555
C33N N5N 1_555 1_555
C35N C36N 1_555 1_555
C37N N5N 1_555 1_555
C38N N6N 1_555 1_555
C39N N6N 1_555 1_555
C41N C42N 1_555 1_555
C44N N7N 1_555 1_555
C46N N8N 1_555 1_555
C48N C49N 1_555 1_555
N1N Cu1N 1_555 1_555
N2N Cu1N 1_555 1_555
N4N Cu2N 1_555 1_555
N8N Cu1E 1_555 1_555
C2E N1E 1_555 1_555
C8E N2E 1_555 1_555
C12E C13E 1_555 1_555
C14E N3E 1_555 1_555
C16E N4E 1_555 1_555
C18E C19E 1_555 1_555
C25E C26E 1_555 1_555
C29E C30E 1_555 1_555
C33E N5E 1_555 1_555
C35E C36E 1_555 1_555
C35E N7E 1_555 1_555
C37E N5E 1_555 1_555
C38E N6E 1_555 1_555
C39E N6E 1_555 1_555
C41E C42E 1_555 1_555
C44E N7E 1_555 1_555
C45E N8E 1_555 1_555
C46E N8E 1_555 1_555
C48E C49E 1_555 1_555
N1E Cu1E 1_555 1_555
N2E Cu1E 1_555 1_555
N3E Cu2E 1_555 1_555
N4E Cu2E 1_555 1_555
C52K N9K 1_555 1_555
C58K N10K 1_555 1_555
C62K C63K 1_555 1_555
C64K N11K 1_555 1_555
C66K N12K 1_555 1_555
C68K C69K 1_555 1_555
C75K C76K 1_555 1_555
C79K C80K 1_555 1_555
C85K C86K 1_555 1_555
C85K N15K 1_555 1_555
C87K N13K 1_555 1_555
C89K N14K 1_555 1_555
C91K C92K 1_555 1_555
C94K N15K 1_555 1_555
C95K N16K 1_555 1_555
C96K N16K 1_555 1_555
C98K C99K 1_555 1_555
N9K Cu3K 1_555 1_555
N10K Cu3K 1_555 1_555
N12K Cu4K 1_555 1_555
N14K Cu3E 1_555 1_555
C52N N9N 1_555 1_555
C58N N10N 1_555 1_555
C62N C63N 1_555 1_555
C64N N11N 1_555 1_555
C66N N12N 1_555 1_555
C68N C69N 1_555 1_555
C75N C76N 1_555 1_555
C79N C80N 1_555 1_555
C83N N13N 1_555 1_555
C85N C86N 1_555 1_555
C87N N13N 1_555 1_555
C88N N14N 1_555 1_555
C89N N14N 1_555 1_555
C91N C92N 1_555 1_555
C94N N15N 1_555 1_555
C96N N16N 1_555 1_555
C98N C99N 1_555 1_555
N10N Cu3N 1_555 1_555
N11N Cu4N 1_555 1_555
N12N Cu4N 1_555 1_555
N16N Cu4E 1_555 1_555
C52E N9E 1_555 1_555
C58E N10E 1_555 1_555
C62E C63E 1_555 1_555
C64E N11E 1_555 1_555
C66E N12E 1_555 1_555
C68E C69E 1_555 1_555
C75E C76E 1_555 1_555
C79E C80E 1_555 1_555
C83E N13E 1_555 1_555
C85E C86E 1_555 1_555
C85E N15E 1_555 1_555
C87E N13E 1_555 1_555
C88E N14E 1_555 1_555
C89E N14E 1_555 1_555
C91E C92E 1_555 1_555
C94E N15E 1_555 1_555
C95E N16E 1_555 1_555
C96E N16E 1_555 1_555
C98E C99E 1_555 1_555
N9E Cu3E 1_555 1_555
N10E Cu3E 1_555 1_555
N11E Cu4E 1_555 1_555
N12E Cu4E 1_555 1_555

#END
