# generated using pymatgen
data_KCu9P10H248Au2C236N44(OF10)6
_symmetry_space_group_name_H-M   'P 1'
_cell_length_a   22.84800000
_cell_length_b   23.21500000
_cell_length_c   26.20141516
_cell_angle_alpha   63.70388373
_cell_angle_beta   90.07575469
_cell_angle_gamma   90.17100000
_symmetry_Int_Tables_number   1
_chemical_formula_structural   KCu9P10H248Au2C236N44(OF10)6
_chemical_formula_sum   'K2 Cu18 P20 H496 Au4 C472 N88 O12 F120'
_cell_volume   12459.42386657
_cell_formula_units_Z   2
loop_
 _symmetry_equiv_pos_site_id
 _symmetry_equiv_pos_as_xyz
  1  'x, y, z'
loop_
 _atom_site_type_symbol
 _atom_site_label
 _atom_site_symmetry_multiplicity
 _atom_site_fract_x
 _atom_site_fract_y
 _atom_site_fract_z
 _atom_site_occupancy
  Au  Au1  1  0.250000  0.334341  0.331318  1
  Au  Au2  1  0.750000  0.665659  0.668682  1
  Au  Au3  1  0.250000  0.123751  0.752498  1
  Au  Au4  1  0.750000  0.876249  0.247502  1
  C  C5  1  0.250000  0.367800  0.264400  1
  C  C6  1  0.750000  0.632200  0.735600  1
  C  C7  1  0.250000  0.293100  0.413800  1
  C  C8  1  0.750000  0.706900  0.586200  1
  C  C9  1  0.250000  0.154700  0.690600  1
  C  C10  1  0.750000  0.845300  0.309400  1
  C  C11  1  0.250000  0.081200  0.837600  1
  C  C12  1  0.750000  0.918800  0.162400  1
  C  C13  1  0.109900  0.051700  0.311800  1
  C  C14  1  0.390100  0.636500  0.311800  1
  C  C15  1  0.890100  0.948300  0.688200  1
  C  C16  1  0.609900  0.363500  0.688200  1
  C  C17  1  0.048200  0.048300  0.335200  1
  C  C18  1  0.451800  0.616500  0.335200  1
  C  C19  1  0.951800  0.951700  0.664800  1
  C  C20  1  0.548200  0.383500  0.664800  1
  C  C21  1  0.167400  0.051900  0.243000  1
  C  C22  1  0.332600  0.705100  0.243000  1
  C  C23  1  0.832600  0.948100  0.757000  1
  C  C24  1  0.667400  0.294900  0.757000  1
  C  C25  1  0.160300  0.062500  0.181800  1
  C  C26  1  0.339700  0.755700  0.181800  1
  C  C27  1  0.839700  0.937500  0.818200  1
  C  C28  1  0.660300  0.244300  0.818200  1
  C  C29  1  0.180100  0.476100  0.591600  1
  C  C30  1  0.319900  0.932300  0.591600  1
  C  C31  1  0.819900  0.523900  0.408400  1
  C  C32  1  0.680100  0.067700  0.408400  1
  C  C33  1  0.118000  0.483600  0.613800  1
  C  C34  1  0.382000  0.902600  0.613800  1
  C  C35  1  0.882000  0.516400  0.386200  1
  C  C36  1  0.618000  0.097400  0.386200  1
  C  C37  1  0.045700  0.582600  0.465000  1
  C  C38  1  0.454300  0.952400  0.465000  1
  C  C39  1  0.954300  0.417400  0.535000  1
  C  C40  1  0.545700  0.047600  0.535000  1
  C  C41  1  0.075200  0.586100  0.517200  1
  C  C42  1  0.424800  0.896700  0.517200  1
  C  C43  1  0.924800  0.413900  0.482800  1
  C  C44  1  0.575200  0.103300  0.482800  1
  C  C45  1  0.984200  0.479200  0.159600  1
  C  C46  1  0.515800  0.361200  0.159600  1
  C  C47  1  0.015800  0.520800  0.840400  1
  C  C48  1  0.484200  0.638800  0.840400  1
  C  C49  1  0.891800  0.498700  0.196600  1
  C  C50  1  0.608200  0.304700  0.196600  1
  C  C51  1  0.108200  0.501300  0.803400  1
  C  C52  1  0.391800  0.695300  0.803400  1
  C  C53  1  0.018400  0.512200  0.103600  1
  C  C54  1  0.481600  0.384200  0.103600  1
  C  C55  1  0.981600  0.487800  0.896400  1
  C  C56  1  0.518400  0.615800  0.896400  1
  C  C57  1  0.914000  0.520800  0.240400  1
  C  C58  1  0.586000  0.238800  0.240400  1
  C  C59  1  0.086000  0.479200  0.759600  1
  C  C60  1  0.414000  0.761200  0.759600  1
  C  C61  1  0.525300  0.278800  0.592800  1
  C  C62  1  0.974700  0.128400  0.592800  1
  C  C63  1  0.474700  0.721200  0.407200  1
  C  C64  1  0.025300  0.871600  0.407200  1
  C  C65  1  0.542800  0.328900  0.615000  1
  C  C66  1  0.957200  0.056100  0.615000  1
  C  C67  1  0.457200  0.671100  0.385000  1
  C  C68  1  0.042800  0.943900  0.385000  1
  C  C69  1  0.574300  0.472500  0.460200  1
  C  C70  1  0.925700  0.067300  0.460200  1
  C  C71  1  0.425700  0.527500  0.539800  1
  C  C72  1  0.074300  0.932700  0.539800  1
  C  C73  1  0.641500  0.461200  0.470800  1
  C  C74  1  0.858500  0.068000  0.470800  1
  C  C75  1  0.358500  0.538800  0.529200  1
  C  C76  1  0.141500  0.932000  0.529200  1
  C  C77  1  0.113900  0.643720  0.285560  1.0
  C  C78  1  0.386100  0.070720  0.285560  1.0
  C  C79  1  0.886100  0.356280  0.714440  1.0
  C  C80  1  0.613900  0.929280  0.714440  1.0
  C  C81  1  0.032600  0.662120  0.226560  1.0
  C  C82  1  0.467400  0.111320  0.226560  1.0
  C  C83  1  0.967400  0.337880  0.773440  1.0
  C  C84  1  0.532600  0.888680  0.773440  1.0
  C  C85  1  0.005200  0.693060  0.254880  1.0
  C  C86  1  0.494800  0.052060  0.254880  1.0
  C  C87  1  0.994800  0.306940  0.745120  1.0
  C  C88  1  0.505200  0.947940  0.745120  1.0
  C  C89  1  0.033000  0.699640  0.298720  1.0
  C  C90  1  0.467000  0.001640  0.298720  1.0
  C  C91  1  0.967000  0.300360  0.701280  1.0
  C  C92  1  0.533000  0.998360  0.701280  1.0
  C  C93  1  0.088800  0.675250  0.313900  1.0
  C  C94  1  0.411200  0.010850  0.313900  1.0
  C  C95  1  0.911200  0.324750  0.686100  1.0
  C  C96  1  0.588800  0.989150  0.686100  1.0
  C  C97  1  0.003500  0.656600  0.177000  1.0
  C  C98  1  0.496500  0.166400  0.177000  1.0
  C  C99  1  0.996500  0.343400  0.823000  1.0
  C  C100  1  0.503500  0.833600  0.823000  1.0
  C  C101  1  0.170600  0.614470  0.300860  1.0
  C  C102  1  0.329400  0.084670  0.300860  1.0
  C  C103  1  0.829400  0.385530  0.699140  1.0
  C  C104  1  0.670600  0.915330  0.699140  1.0
  C  C105  1  0.243200  0.552280  0.285440  1.0
  C  C106  1  0.256800  0.162280  0.285440  1.0
  C  C107  1  0.756800  0.447720  0.714560  1.0
  C  C108  1  0.743200  0.837720  0.714560  1.0
  C  C109  1  0.276200  0.552530  0.241540  1.0
  C  C110  1  0.223800  0.205930  0.241540  1.0
  C  C111  1  0.723800  0.447470  0.758460  1.0
  C  C112  1  0.776200  0.794070  0.758460  1.0
  C  C113  1  0.328000  0.516900  0.253600  1.0
  C  C114  1  0.172000  0.229500  0.253600  1.0
  C  C115  1  0.672000  0.483100  0.746400  1.0
  C  C116  1  0.828000  0.770500  0.746400  1.0
  C  C117  1  0.346300  0.482180  0.309040  1.0
  C  C118  1  0.153700  0.208780  0.309040  1.0
  C  C119  1  0.653700  0.517820  0.690960  1.0
  C  C120  1  0.846300  0.791220  0.690960  1.0
  C  C121  1  0.312900  0.481560  0.353480  1.0
  C  C122  1  0.187100  0.164960  0.353480  1.0
  C  C123  1  0.687100  0.518440  0.646520  1.0
  C  C124  1  0.812900  0.835040  0.646520  1.0
  C  C125  1  0.261400  0.516710  0.341980  1.0
  C  C126  1  0.238600  0.141310  0.341980  1.0
  C  C127  1  0.738600  0.483290  0.658020  1.0
  C  C128  1  0.761400  0.858690  0.658020  1.0
  C  C129  1  0.339100  0.520910  0.163580  1.0
  C  C130  1  0.160900  0.315510  0.163580  1.0
  C  C131  1  0.660900  0.479090  0.836420  1.0
  C  C132  1  0.839100  0.684490  0.836420  1.0
  C  C133  1  0.376100  0.527730  0.116140  1.0
  C  C134  1  0.123900  0.356130  0.116140  1.0
  C  C135  1  0.623900  0.472270  0.883860  1.0
  C  C136  1  0.876100  0.643870  0.883860  1.0
  C  C137  1  0.471000  0.532990  0.083820  1.0
  C  C138  1  0.029000  0.383190  0.083820  1.0
  C  C139  1  0.529000  0.467010  0.916180  1.0
  C  C140  1  0.971000  0.616810  0.916180  1.0
  C  C141  1  0.449300  0.539200  0.032200  1.0
  C  C142  1  0.050700  0.428600  0.032200  1.0
  C  C143  1  0.550700  0.460800  0.967800  1.0
  C  C144  1  0.949300  0.571400  0.967800  1.0
  C  C145  1  0.390000  0.542100  0.021200  1.0
  C  C146  1  0.110000  0.436700  0.021200  1.0
  C  C147  1  0.610000  0.457900  0.978800  1.0
  C  C148  1  0.890000  0.563300  0.978800  1.0
  C  C149  1  0.351200  0.533300  0.065600  1.0
  C  C150  1  0.148800  0.401100  0.065600  1.0
  C  C151  1  0.648800  0.466700  0.934400  1.0
  C  C152  1  0.851200  0.598900  0.934400  1.0
  C  C153  1  0.534100  0.533100  0.094400  1.0
  C  C154  1  0.965900  0.372500  0.094400  1.0
  C  C155  1  0.465900  0.466900  0.905600  1.0
  C  C156  1  0.034100  0.627500  0.905600  1.0
  C  C157  1  0.331000  0.443650  0.414500  1.0
  C  C158  1  0.169000  0.141850  0.414500  1.0
  C  C159  1  0.669000  0.556350  0.585500  1.0
  C  C160  1  0.831000  0.858150  0.585500  1.0
  C  C161  1  0.290500  0.416890  0.457020  1.0
  C  C162  1  0.209500  0.126090  0.457020  1.0
  C  C163  1  0.709500  0.583110  0.542980  1.0
  C  C164  1  0.790500  0.873910  0.542980  1.0
  C  C165  1  0.305200  0.385820  0.514360  1.0
  C  C166  1  0.194800  0.099820  0.514360  1.0
  C  C167  1  0.694800  0.614180  0.485640  1.0
  C  C168  1  0.805200  0.900180  0.485640  1.0
  C  C169  1  0.364400  0.380990  0.529820  1.0
  C  C170  1  0.135600  0.089190  0.529820  1.0
  C  C171  1  0.635600  0.619010  0.470180  1.0
  C  C172  1  0.864400  0.910810  0.470180  1.0
  C  C173  1  0.407200  0.407610  0.485780  1.0
  C  C174  1  0.092800  0.106610  0.485780  1.0
  C  C175  1  0.592800  0.592390  0.514220  1.0
  C  C176  1  0.907200  0.893390  0.514220  1.0
  C  C177  1  0.391300  0.438140  0.430320  1.0
  C  C178  1  0.108700  0.131540  0.430320  1.0
  C  C179  1  0.608700  0.561860  0.569680  1.0
  C  C180  1  0.891300  0.868460  0.569680  1.0
  C  C181  1  0.264000  0.357400  0.558600  1.0
  C  C182  1  0.236000  0.084000  0.558600  1.0
  C  C183  1  0.736000  0.642600  0.441400  1.0
  C  C184  1  0.764000  0.916000  0.441400  1.0
  C  C185  1  0.279600  0.327460  0.613480  1.0
  C  C186  1  0.220400  0.059060  0.613480  1.0
  C  C187  1  0.720400  0.672540  0.386520  1.0
  C  C188  1  0.779600  0.940940  0.386520  1.0
  C  C189  1  0.339400  0.322850  0.628700  1.0
  C  C190  1  0.160600  0.048450  0.628700  1.0
  C  C191  1  0.660600  0.677150  0.371300  1.0
  C  C192  1  0.839400  0.951550  0.371300  1.0
  C  C193  1  0.380200  0.349120  0.588160  1.0
  C  C194  1  0.119800  0.062720  0.588160  1.0
  C  C195  1  0.619800  0.650880  0.411840  1.0
  C  C196  1  0.880200  0.937280  0.411840  1.0
  C  C197  1  0.357100  0.284220  0.688960  1.0
  C  C198  1  0.142900  0.026820  0.688960  1.0
  C  C199  1  0.642900  0.715780  0.311040  1.0
  C  C200  1  0.857100  0.973180  0.311040  1.0
  C  C201  1  0.321600  0.279960  0.734880  1.0
  C  C202  1  0.178400  0.985160  0.734880  1.0
  C  C203  1  0.678400  0.720040  0.265120  1.0
  C  C204  1  0.821600  0.014840  0.265120  1.0
  C  C205  1  0.339800  0.242270  0.790460  1.0
  C  C206  1  0.160200  0.967270  0.790460  1.0
  C  C207  1  0.660200  0.757730  0.209540  1.0
  C  C208  1  0.839800  0.032730  0.209540  1.0
  C  C209  1  0.391600  0.209970  0.802660  1.0
  C  C210  1  0.108400  0.987370  0.802660  1.0
  C  C211  1  0.608400  0.790030  0.197340  1.0
  C  C212  1  0.891600  0.012630  0.197340  1.0
  C  C213  1  0.427600  0.213620  0.757560  1.0
  C  C214  1  0.072400  0.028820  0.757560  1.0
  C  C215  1  0.572400  0.786380  0.242440  1.0
  C  C216  1  0.927600  0.971180  0.242440  1.0
  C  C217  1  0.409900  0.251690  0.701220  1.0
  C  C218  1  0.090100  0.047090  0.701220  1.0
  C  C219  1  0.590100  0.748310  0.298780  1.0
  C  C220  1  0.909900  0.952910  0.298780  1.0
  C  C221  1  0.297500  0.191570  0.881460  1.0
  C  C222  1  0.202500  0.926970  0.881460  1.0
  C  C223  1  0.702500  0.808430  0.118540  1.0
  C  C224  1  0.797500  0.073030  0.118540  1.0
  C  C225  1  0.256800  0.192710  0.923580  1.0
  C  C226  1  0.243200  0.883710  0.923580  1.0
  C  C227  1  0.743200  0.807290  0.076420  1.0
  C  C228  1  0.756800  0.116290  0.076420  1.0
  C  C229  1  0.188000  0.251600  0.946400  1.0
  C  C230  1  0.312000  0.802000  0.946400  1.0
  C  C231  1  0.812000  0.748400  0.053600  1.0
  C  C232  1  0.688000  0.198000  0.053600  1.0
  C  C233  1  0.173100  0.196700  0.995000  1.0
  C  C234  1  0.326900  0.808300  0.995000  1.0
  C  C235  1  0.826900  0.803300  0.005000  1.0
  C  C236  1  0.673100  0.191700  0.005000  1.0
  C  C237  1  0.201400  0.139700  0.010400  1.0
  C  C238  1  0.298600  0.849900  0.010400  1.0
  C  C239  1  0.798600  0.860300  0.989600  1.0
  C  C240  1  0.701400  0.150100  0.989600  1.0
  C  C241  1  0.246100  0.137620  0.973560  1.0
  C  C242  1  0.253900  0.888820  0.973560  1.0
  C  C243  1  0.753900  0.862380  0.026440  1.0
  C  C244  1  0.746100  0.111180  0.026440  1.0
  C  C245  1  0.159700  0.312500  0.929600  1.0
  C  C246  1  0.340300  0.757900  0.929600  1.0
  C  C247  1  0.840300  0.687500  0.070400  1.0
  C  C248  1  0.659700  0.242100  0.070400  1.0
  C  C249  1  0.523700  0.197650  0.736700  1.0
  C  C250  1  0.976300  0.065650  0.736700  1.0
  C  C251  1  0.476300  0.802350  0.263300  1.0
  C  C252  1  0.023700  0.934350  0.263300  1.0
  C  C253  1  0.571200  0.153890  0.744420  1.0
  C  C254  1  0.928800  0.101690  0.744420  1.0
  C  C255  1  0.428800  0.846110  0.255580  1.0
  C  C256  1  0.071200  0.898310  0.255580  1.0
  C  C257  1  0.604200  0.048850  0.795300  1.0
  C  C258  1  0.895800  0.155850  0.795300  1.0
  C  C259  1  0.395800  0.951150  0.204700  1.0
  C  C260  1  0.104200  0.844150  0.204700  1.0
  C  C261  1  0.654500  0.066200  0.759400  1.0
  C  C262  1  0.845500  0.174400  0.759400  1.0
  C  C263  1  0.345500  0.933800  0.240600  1.0
  C  C264  1  0.154500  0.825600  0.240600  1.0
  C  C265  1  0.662200  0.126200  0.717600  1.0
  C  C266  1  0.837800  0.156200  0.717600  1.0
  C  C267  1  0.337800  0.873800  0.282400  1.0
  C  C268  1  0.162200  0.843800  0.282400  1.0
  C  C269  1  0.619400  0.172480  0.708840  1.0
  C  C270  1  0.880600  0.118680  0.708840  1.0
  C  C271  1  0.380600  0.827520  0.291160  1.0
  C  C272  1  0.119400  0.881320  0.291160  1.0
  C  C273  1  0.595400  0.983800  0.840800  1.0
  C  C274  1  0.904600  0.175400  0.840800  1.0
  C  C275  1  0.404600  0.016200  0.159200  1.0
  C  C276  1  0.095400  0.824600  0.159200  1.0
  C  C277  1  0.166500  0.568400  0.115400  1.0
  C  C278  1  0.333500  0.316200  0.115400  1.0
  C  C279  1  0.833500  0.431600  0.884600  1.0
  C  C280  1  0.666500  0.683800  0.884600  1.0
  C  C281  1  0.182900  0.675740  0.087920  1.0
  C  C282  1  0.317100  0.236340  0.087920  1.0
  C  C283  1  0.817100  0.324260  0.912080  1.0
  C  C284  1  0.682900  0.763660  0.912080  1.0
  C  C285  1  0.203000  0.683500  0.035400  1.0
  C  C286  1  0.297000  0.281100  0.035400  1.0
  C  C287  1  0.797000  0.316500  0.964600  1.0
  C  C288  1  0.703000  0.718900  0.964600  1.0
  C  C289  1  0.204100  0.631700  0.023000  1.0
  C  C290  1  0.295900  0.345300  0.023000  1.0
  C  C291  1  0.795900  0.368300  0.977000  1.0
  C  C292  1  0.704100  0.654700  0.977000  1.0
  C  C293  1  0.185500  0.572700  0.064200  1.0
  C  C294  1  0.314500  0.363100  0.064200  1.0
  C  C295  1  0.814500  0.427300  0.935800  1.0
  C  C296  1  0.685500  0.636900  0.935800  1.0
  C  C297  1  0.180600  0.731200  0.102000  1.0
  C  C298  1  0.319400  0.166800  0.102000  1.0
  C  C299  1  0.819400  0.268800  0.898000  1.0
  C  C300  1  0.680600  0.833200  0.898000  1.0
  C  C301  1  0.144400  0.507970  0.160660  1.0
  C  C302  1  0.355600  0.331370  0.160660  1.0
  C  C303  1  0.855600  0.492030  0.839340  1.0
  C  C304  1  0.644400  0.668630  0.839340  1.0
  C  C305  1  0.102800  0.449970  0.250460  1.0
  C  C306  1  0.397200  0.299570  0.250460  1.0
  C  C307  1  0.897200  0.550030  0.749540  1.0
  C  C308  1  0.602800  0.700430  0.749540  1.0
  C  C309  1  0.072200  0.406420  0.237560  1.0
  C  C310  1  0.427800  0.356020  0.237560  1.0
  C  C311  1  0.927800  0.593580  0.762440  1.0
  C  C312  1  0.572200  0.643980  0.762440  1.0
  C  C313  1  0.049500  0.351940  0.281920  1.0
  C  C314  1  0.450500  0.366140  0.281920  1.0
  C  C315  1  0.950500  0.648060  0.718080  1.0
  C  C316  1  0.549500  0.633860  0.718080  1.0
  C  C317  1  0.058600  0.340640  0.337920  1.0
  C  C318  1  0.441400  0.321440  0.337920  1.0
  C  C319  1  0.941400  0.659360  0.662080  1.0
  C  C320  1  0.558600  0.678560  0.662080  1.0
  C  C321  1  0.088300  0.384590  0.351020  1.0
  C  C322  1  0.411700  0.264390  0.351020  1.0
  C  C323  1  0.911700  0.615410  0.648980  1.0
  C  C324  1  0.588300  0.735610  0.648980  1.0
  C  C325  1  0.110100  0.439890  0.306620  1.0
  C  C326  1  0.389900  0.253490  0.306620  1.0
  C  C327  1  0.889900  0.560110  0.693380  1.0
  C  C328  1  0.610100  0.746510  0.693380  1.0
  C  C329  1  0.978600  0.272340  0.296120  1.0
  C  C330  1  0.521400  0.431540  0.296120  1.0
  C  C331  1  0.021400  0.727660  0.703880  1.0
  C  C332  1  0.478600  0.568460  0.703880  1.0
  C  C333  1  0.967300  0.173020  0.222960  1.0
  C  C334  1  0.532700  0.604020  0.222960  1.0
  C  C335  1  0.032700  0.826980  0.777040  1.0
  C  C336  1  0.467300  0.395980  0.777040  1.0
  C  C337  1  0.920900  0.132600  0.250200  1.0
  C  C338  1  0.579100  0.617200  0.250200  1.0
  C  C339  1  0.079100  0.867400  0.749800  1.0
  C  C340  1  0.420900  0.382800  0.749800  1.0
  C  C341  1  0.890700  0.140100  0.291800  1.0
  C  C342  1  0.609300  0.568100  0.291800  1.0
  C  C343  1  0.109300  0.859900  0.708200  1.0
  C  C344  1  0.390700  0.431900  0.708200  1.0
  C  C345  1  0.908500  0.185420  0.309160  1.0
  C  C346  1  0.591500  0.505420  0.309160  1.0
  C  C347  1  0.091500  0.814580  0.690840  1.0
  C  C348  1  0.408500  0.494580  0.690840  1.0
  C  C349  1  0.000100  0.166800  0.177200  1.0
  C  C350  1  0.499900  0.656000  0.177200  1.0
  C  C351  1  0.999900  0.833200  0.822800  1.0
  C  C352  1  0.500100  0.344000  0.822800  1.0
  C  C353  1  0.095400  0.372160  0.411480  1.0
  C  C354  1  0.404600  0.216360  0.411480  1.0
  C  C355  1  0.904600  0.627840  0.588520  1.0
  C  C356  1  0.595400  0.783640  0.588520  1.0
  C  C357  1  0.100600  0.311490  0.454220  1.0
  C  C358  1  0.399400  0.234290  0.454220  1.0
  C  C359  1  0.899400  0.688510  0.545780  1.0
  C  C360  1  0.600600  0.765710  0.545780  1.0
  C  C361  1  0.104300  0.299190  0.511620  1.0
  C  C362  1  0.395700  0.189190  0.511620  1.0
  C  C363  1  0.895700  0.700810  0.488380  1.0
  C  C364  1  0.604300  0.810810  0.488380  1.0
  C  C365  1  0.102600  0.350400  0.526600  1.0
  C  C366  1  0.397400  0.123000  0.526600  1.0
  C  C367  1  0.897400  0.649600  0.473400  1.0
  C  C368  1  0.602600  0.877000  0.473400  1.0
  C  C369  1  0.097800  0.412940  0.482120  1.0
  C  C370  1  0.402200  0.104940  0.482120  1.0
  C  C371  1  0.902200  0.587060  0.517880  1.0
  C  C372  1  0.597800  0.895060  0.517880  1.0
  C  C373  1  0.094700  0.423610  0.427180  1.0
  C  C374  1  0.405300  0.149210  0.427180  1.0
  C  C375  1  0.905300  0.576390  0.572820  1.0
  C  C376  1  0.594700  0.850790  0.572820  1.0
  C  C377  1  0.110400  0.236520  0.555560  1.0
  C  C378  1  0.389600  0.207920  0.555560  1.0
  C  C379  1  0.889600  0.763480  0.444440  1.0
  C  C380  1  0.610400  0.792080  0.444440  1.0
  C  C381  1  0.112400  0.225430  0.611540  1.0
  C  C382  1  0.387600  0.163030  0.611540  1.0
  C  C383  1  0.887600  0.774570  0.388460  1.0
  C  C384  1  0.612400  0.836970  0.388460  1.0
  C  C385  1  0.111800  0.277150  0.625500  1.0
  C  C386  1  0.388200  0.097350  0.625500  1.0
  C  C387  1  0.888200  0.722850  0.374500  1.0
  C  C388  1  0.611800  0.902650  0.374500  1.0
  C  C389  1  0.105500  0.338200  0.583800  1.0
  C  C390  1  0.394500  0.078000  0.583800  1.0
  C  C391  1  0.894500  0.661800  0.416200  1.0
  C  C392  1  0.605500  0.922000  0.416200  1.0
  C  C393  1  0.120200  0.264590  0.686020  1.0
  C  C394  1  0.379800  0.049390  0.686020  1.0
  C  C395  1  0.879800  0.735410  0.313980  1.0
  C  C396  1  0.620200  0.950610  0.313980  1.0
  C  C397  1  0.147700  0.309970  0.698260  1.0
  C  C398  1  0.352300  0.991770  0.698260  1.0
  C  C399  1  0.852300  0.690030  0.301740  1.0
  C  C400  1  0.647700  0.008230  0.301740  1.0
  C  C401  1  0.157700  0.297420  0.754160  1.0
  C  C402  1  0.342300  0.948420  0.754160  1.0
  C  C403  1  0.842300  0.702580  0.245840  1.0
  C  C404  1  0.657700  0.051580  0.245840  1.0
  C  C405  1  0.139100  0.241370  0.798660  1.0
  C  C406  1  0.360900  0.959970  0.798660  1.0
  C  C407  1  0.860900  0.758630  0.201340  1.0
  C  C408  1  0.639100  0.040030  0.201340  1.0
  C  C409  1  0.109700  0.195890  0.786620  1.0
  C  C410  1  0.390300  0.017490  0.786620  1.0
  C  C411  1  0.890300  0.804110  0.213380  1.0
  C  C412  1  0.609700  0.982510  0.213380  1.0
  C  C413  1  0.099900  0.207540  0.730720  1.0
  C  C414  1  0.400100  0.061740  0.730720  1.0
  C  C415  1  0.900100  0.792460  0.269280  1.0
  C  C416  1  0.599900  0.938260  0.269280  1.0
  C  C417  1  0.189800  0.401000  0.737000  1.0
  C  C418  1  0.310200  0.862000  0.737000  1.0
  C  C419  1  0.810200  0.599000  0.263000  1.0
  C  C420  1  0.689800  0.138000  0.263000  1.0
  C  C421  1  0.229300  0.443200  0.750200  1.0
  C  C422  1  0.270700  0.806600  0.750200  1.0
  C  C423  1  0.770700  0.556800  0.249800  1.0
  C  C424  1  0.729300  0.193400  0.249800  1.0
  C  C425  1  0.299900  0.442800  0.814200  1.0
  C  C426  1  0.200100  0.743000  0.814200  1.0
  C  C427  1  0.700100  0.557200  0.185800  1.0
  C  C428  1  0.799900  0.257000  0.185800  1.0
  C  C429  1  0.303300  0.511500  0.780600  1.0
  C  C430  1  0.196700  0.707900  0.780600  1.0
  C  C431  1  0.696700  0.488500  0.219400  1.0
  C  C432  1  0.803300  0.292100  0.219400  1.0
  C  C433  1  0.269500  0.541300  0.736200  1.0
  C  C434  1  0.230500  0.722500  0.736200  1.0
  C  C435  1  0.730500  0.458700  0.263800  1.0
  C  C436  1  0.769500  0.277500  0.263800  1.0
  C  C437  1  0.230200  0.507100  0.718600  1.0
  C  C438  1  0.269800  0.774300  0.718600  1.0
  C  C439  1  0.769800  0.492900  0.281400  1.0
  C  C440  1  0.730200  0.225700  0.281400  1.0
  C  C441  1  0.336500  0.406200  0.864400  1.0
  C  C442  1  0.163500  0.729400  0.864400  1.0
  C  C443  1  0.663500  0.593800  0.135600  1.0
  C  C444  1  0.836500  0.270600  0.135600  1.0
  C  C445  1  0.114400  0.109190  0.877220  1.0
  C  C446  1  0.385600  0.013590  0.877220  1.0
  C  C447  1  0.885600  0.890810  0.122780  1.0
  C  C448  1  0.614400  0.986410  0.122780  1.0
  C  C449  1  0.090600  0.049110  0.919780  1.0
  C  C450  1  0.409400  0.031110  0.919780  1.0
  C  C451  1  0.909400  0.950890  0.080220  1.0
  C  C452  1  0.590600  0.968890  0.080220  1.0
  C  C453  1  0.016300  0.973550  0.943300  1.0
  C  C454  1  0.483700  0.083150  0.943300  1.0
  C  C455  1  0.983700  0.026450  0.056700  1.0
  C  C456  1  0.516300  0.916850  0.056700  1.0
  C  C457  1  0.044200  0.934640  0.992520  1.0
  C  C458  1  0.455800  0.072840  0.992520  1.0
  C  C459  1  0.955800  0.065360  0.007480  1.0
  C  C460  1  0.544200  0.927160  0.007480  1.0
  C  C461  1  0.097000  0.953600  0.006800  1.0
  C  C462  1  0.403000  0.039600  0.006800  1.0
  C  C463  1  0.903000  0.046400  0.993200  1.0
  C  C464  1  0.597000  0.960400  0.993200  1.0
  C  C465  1  0.120700  0.012190  0.970020  1.0
  C  C466  1  0.379300  0.017790  0.970020  1.0
  C  C467  1  0.879300  0.987810  0.029980  1.0
  C  C468  1  0.620700  0.982210  0.029980  1.0
  C  C469  1  0.960000  0.954600  0.925000  1.0
  C  C470  1  0.540000  0.120400  0.925000  1.0
  C  C471  1  0.040000  0.045400  0.075000  1.0
  C  C472  1  0.460000  0.879600  0.075000  1.0
  C  C473  1  0.956500  0.223590  0.281220  1.0
  C  C474  1  0.543500  0.495190  0.281220  1.0
  C  C475  1  0.043500  0.776410  0.718780  1.0
  C  C476  1  0.456500  0.504810  0.718780  1.0
  Cu  Cu477  1  0.250000  0.228760  0.542480  1
  Cu  Cu478  1  0.750000  0.771240  0.457520  1
  Cu  Cu479  1  0.136230  0.594651  0.206838  1.0
  Cu  Cu480  1  0.363770  0.198511  0.206838  1.0
  Cu  Cu481  1  0.863770  0.405349  0.793162  1.0
  Cu  Cu482  1  0.636230  0.801489  0.793162  1.0
  Cu  Cu483  1  0.451950  0.511900  0.205280  1.0
  Cu  Cu484  1  0.048050  0.282820  0.205280  1.0
  Cu  Cu485  1  0.548050  0.488100  0.794720  1.0
  Cu  Cu486  1  0.951950  0.717180  0.794720  1.0
  Cu  Cu487  1  0.250130  0.315280  0.832100  1.0
  Cu  Cu488  1  0.249870  0.852620  0.832100  1.0
  Cu  Cu489  1  0.749870  0.684720  0.167900  1.0
  Cu  Cu490  1  0.750130  0.147380  0.167900  1.0
  Cu  Cu491  1  0.012650  0.089056  0.827688  1.0
  Cu  Cu492  1  0.487350  0.083256  0.827688  1.0
  Cu  Cu493  1  0.987350  0.910944  0.172312  1.0
  Cu  Cu494  1  0.512650  0.916744  0.172312  1.0
  F  F495  1  0.250000  0.982790  0.034420  1
  F  F496  1  0.750000  0.017210  0.965580  1
  F  F497  1  0.250000  0.914640  0.170720  1
  F  F498  1  0.750000  0.085360  0.829280  1
  F  F499  1  0.250000  0.572220  0.855560  1
  F  F500  1  0.750000  0.427780  0.144440  1
  F  F501  1  0.250000  0.504660  0.990680  1
  F  F502  1  0.750000  0.495340  0.009320  1
  F  F503  1  0.041300  0.693600  0.037400  1
  F  F504  1  0.458700  0.269000  0.037400  1
  F  F505  1  0.958700  0.306400  0.962600  1
  F  F506  1  0.541300  0.731000  0.962600  1
  F  F507  1  0.066900  0.752500  0.945200  1
  F  F508  1  0.433100  0.302300  0.945200  1
  F  F509  1  0.933100  0.247500  0.054800  1
  F  F510  1  0.566900  0.697700  0.054800  1
  F  F511  1  0.083000  0.791500  0.008800  1
  F  F512  1  0.417000  0.199700  0.008800  1
  F  F513  1  0.917000  0.208500  0.991200  1
  F  F514  1  0.583000  0.800300  0.991200  1
  F  F515  1  0.971600  0.736800  0.970400  1
  F  F516  1  0.528400  0.292800  0.970400  1
  F  F517  1  0.028400  0.263200  0.029600  1
  F  F518  1  0.471600  0.707200  0.029600  1
  F  F519  1  0.987400  0.775400  0.034800  1
  F  F520  1  0.512600  0.189800  0.034800  1
  F  F521  1  0.012600  0.224600  0.965200  1
  F  F522  1  0.487400  0.810200  0.965200  1
  F  F523  1  0.013300  0.835000  0.942200  1
  F  F524  1  0.486700  0.222800  0.942200  1
  F  F525  1  0.986700  0.165000  0.057800  1
  F  F526  1  0.513300  0.777200  0.057800  1
  F  F527  1  0.064600  0.689500  0.016200  1
  F  F528  1  0.435400  0.294300  0.016200  1
  F  F529  1  0.935400  0.310500  0.983800  1
  F  F530  1  0.564600  0.705700  0.983800  1
  F  F531  1  0.071100  0.797400  0.966600  1
  F  F532  1  0.428900  0.236000  0.966600  1
  F  F533  1  0.928900  0.202600  0.033400  1
  F  F534  1  0.571100  0.764000  0.033400  1
  F  F535  1  0.044900  0.753140  0.058920  1
  F  F536  1  0.455100  0.187940  0.058920  1
  F  F537  1  0.955100  0.246860  0.941080  1
  F  F538  1  0.544900  0.812060  0.941080  1
  F  F539  1  0.998500  0.743440  0.947920  1
  F  F540  1  0.501500  0.308640  0.947920  1
  F  F541  1  0.001500  0.256560  0.052080  1
  F  F542  1  0.498500  0.691360  0.052080  1
  F  F543  1  0.972200  0.698000  0.040800  1
  F  F544  1  0.527800  0.261200  0.040800  1
  F  F545  1  0.027800  0.302000  0.959200  1
  F  F546  1  0.472200  0.738800  0.959200  1
  F  F547  1  0.978600  0.806900  0.991200  1
  F  F548  1  0.521400  0.201900  0.991200  1
  F  F549  1  0.021400  0.193100  0.008800  1
  F  F550  1  0.478600  0.798100  0.008800  1
  F  F551  1  0.184100  0.972270  0.101860  1.0
  F  F552  1  0.315900  0.925870  0.101860  1.0
  F  F553  1  0.815900  0.027730  0.898140  1.0
  F  F554  1  0.684100  0.074130  0.898140  1.0
  F  F555  1  0.226300  0.884210  0.101780  1.0
  F  F556  1  0.273700  0.014010  0.101780  1.0
  F  F557  1  0.773700  0.115790  0.898220  1.0
  F  F558  1  0.726300  0.985990  0.898220  1.0
  F  F559  1  0.184900  0.564160  0.923680  1.0
  F  F560  1  0.315100  0.512160  0.923680  1.0
  F  F561  1  0.815100  0.435840  0.076320  1.0
  F  F562  1  0.684900  0.487840  0.076320  1.0
  F  F563  1  0.223600  0.474520  0.923360  1.0
  F  F564  1  0.276400  0.602120  0.923360  1.0
  F  F565  1  0.776400  0.525480  0.076640  1.0
  F  F566  1  0.723600  0.397880  0.076640  1.0
  F  F567  1  0.365500  0.738100  0.525000  1.0
  F  F568  1  0.134500  0.736900  0.525000  1.0
  F  F569  1  0.634500  0.261900  0.475000  1.0
  F  F570  1  0.865500  0.263100  0.475000  1.0
  F  F571  1  0.371500  0.661000  0.660800  1.0
  F  F572  1  0.128500  0.678200  0.660800  1.0
  F  F573  1  0.628500  0.339000  0.339200  1.0
  F  F574  1  0.871500  0.321800  0.339200  1.0
  F  F575  1  0.322800  0.659100  0.585400  1.0
  F  F576  1  0.177200  0.755500  0.585400  1.0
  F  F577  1  0.677200  0.340900  0.414600  1.0
  F  F578  1  0.822800  0.244500  0.414600  1.0
  F  F579  1  0.426700  0.731300  0.593600  1.0
  F  F580  1  0.073300  0.675100  0.593600  1.0
  F  F581  1  0.573300  0.268700  0.406400  1.0
  F  F582  1  0.926700  0.324900  0.406400  1.0
  F  F583  1  0.325800  0.746200  0.592800  1.0
  F  F584  1  0.174200  0.661000  0.592800  1.0
  F  F585  1  0.674200  0.253800  0.407200  1.0
  F  F586  1  0.825800  0.339000  0.407200  1.0
  F  F587  1  0.414600  0.648600  0.580600  1.0
  F  F588  1  0.085400  0.770800  0.580600  1.0
  F  F589  1  0.585400  0.351400  0.419400  1.0
  F  F590  1  0.914600  0.229200  0.419400  1.0
  F  F591  1  0.236600  0.706180  0.342640  1.0
  F  F592  1  0.263400  0.951180  0.342640  1.0
  F  F593  1  0.763400  0.293820  0.657360  1.0
  F  F594  1  0.736600  0.048820  0.657360  1.0
  F  F595  1  0.258500  0.649400  0.474800  1.0
  F  F596  1  0.241500  0.875800  0.474800  1.0
  F  F597  1  0.741500  0.350600  0.525200  1.0
  F  F598  1  0.758500  0.124200  0.525200  1.0
  F  F599  1  0.272600  0.615800  0.410400  1.0
  F  F600  1  0.227400  0.973800  0.410400  1.0
  F  F601  1  0.727400  0.384200  0.589600  1.0
  F  F602  1  0.772600  0.026200  0.589600  1.0
  F  F603  1  0.200300  0.719900  0.416400  1.0
  F  F604  1  0.299700  0.863700  0.416400  1.0
  F  F605  1  0.799700  0.280100  0.583600  1.0
  F  F606  1  0.700300  0.136300  0.583600  1.0
  F  F607  1  0.293800  0.722800  0.400600  1.0
  F  F608  1  0.206200  0.876600  0.400600  1.0
  F  F609  1  0.706200  0.277200  0.599400  1.0
  F  F610  1  0.793800  0.123400  0.599400  1.0
  F  F611  1  0.188900  0.634700  0.420200  1.0
  F  F612  1  0.311100  0.945100  0.420200  1.0
  F  F613  1  0.811100  0.365300  0.579800  1.0
  F  F614  1  0.688900  0.054900  0.579800  1.0
  H  H615  1  0.129300  0.091800  0.307400  1
  H  H616  1  0.370700  0.600800  0.307400  1
  H  H617  1  0.870700  0.908200  0.692600  1
  H  H618  1  0.629300  0.399200  0.692600  1
  H  H619  1  0.133200  0.014800  0.339000  1
  H  H620  1  0.366800  0.646200  0.339000  1
  H  H621  1  0.866800  0.985200  0.661000  1
  H  H622  1  0.633200  0.353800  0.661000  1
  H  H623  1  0.019800  0.044300  0.308800  1
  H  H624  1  0.480200  0.646900  0.308800  1
  H  H625  1  0.980200  0.955700  0.691200  1
  H  H626  1  0.519800  0.353100  0.691200  1
  H  H627  1  0.040300  0.087500  0.339200  1
  H  H628  1  0.459700  0.573300  0.339200  1
  H  H629  1  0.959700  0.912500  0.660800  1
  H  H630  1  0.540300  0.426700  0.660800  1
  H  H631  1  0.044900  0.010900  0.372400  1
  H  H632  1  0.455100  0.616700  0.372400  1
  H  H633  1  0.955100  0.989100  0.627600  1
  H  H634  1  0.544900  0.383300  0.627600  1
  H  H635  1  0.187800  0.011100  0.266200  1
  H  H636  1  0.312200  0.722700  0.266200  1
  H  H637  1  0.812200  0.988900  0.733800  1
  H  H638  1  0.687800  0.277300  0.733800  1
  H  H639  1  0.189300  0.087800  0.245000  1
  H  H640  1  0.310700  0.667200  0.245000  1
  H  H641  1  0.810700  0.912200  0.755000  1
  H  H642  1  0.689300  0.332800  0.755000  1
  H  H643  1  0.198900  0.064400  0.165000  1
  H  H644  1  0.301100  0.770600  0.165000  1
  H  H645  1  0.801100  0.935600  0.835000  1
  H  H646  1  0.698900  0.229400  0.835000  1
  H  H647  1  0.139600  0.103000  0.160000  1
  H  H648  1  0.360400  0.737000  0.160000  1
  H  H649  1  0.860400  0.897000  0.840000  1
  H  H650  1  0.639600  0.263000  0.840000  1
  H  H651  1  0.137700  0.027000  0.181000  1
  H  H652  1  0.362300  0.792000  0.181000  1
  H  H653  1  0.862300  0.973000  0.819000  1
  H  H654  1  0.637700  0.208000  0.819000  1
  H  H655  1  0.096200  0.443200  0.626400  1
  H  H656  1  0.403800  0.930400  0.626400  1
  H  H657  1  0.903800  0.556800  0.373600  1
  H  H658  1  0.596200  0.069600  0.373600  1
  H  H659  1  0.096500  0.518000  0.583000  1
  H  H660  1  0.403500  0.899000  0.583000  1
  H  H661  1  0.903500  0.482000  0.417000  1
  H  H662  1  0.596500  0.101000  0.417000  1
  H  H663  1  0.122500  0.494400  0.645800  1
  H  H664  1  0.377500  0.859800  0.645800  1
  H  H665  1  0.877500  0.505600  0.354200  1
  H  H666  1  0.622500  0.140200  0.354200  1
  H  H667  1  0.052000  0.613800  0.528800  1
  H  H668  1  0.448000  0.857400  0.528800  1
  H  H669  1  0.948000  0.386200  0.471200  1
  H  H670  1  0.552000  0.142600  0.471200  1
  H  H671  1  0.114800  0.604000  0.506800  1
  H  H672  1  0.385200  0.889200  0.506800  1
  H  H673  1  0.885200  0.396000  0.493200  1
  H  H674  1  0.614800  0.110800  0.493200  1
  H  H675  1  0.077400  0.542900  0.548800  1
  H  H676  1  0.422600  0.908300  0.548800  1
  H  H677  1  0.922600  0.457100  0.451200  1
  H  H678  1  0.577400  0.091700  0.451200  1
  H  H679  1  0.984700  0.432300  0.173600  1
  H  H680  1  0.515300  0.394100  0.173600  1
  H  H681  1  0.015300  0.567700  0.826400  1
  H  H682  1  0.484700  0.605900  0.826400  1
  H  H683  1  0.002200  0.490000  0.188800  1
  H  H684  1  0.497800  0.321200  0.188800  1
  H  H685  1  0.997800  0.510000  0.811200  1
  H  H686  1  0.502200  0.678800  0.811200  1
  H  H687  1  0.880700  0.452700  0.218600  1
  H  H688  1  0.619300  0.328700  0.218600  1
  H  H689  1  0.119300  0.547300  0.781400  1
  H  H690  1  0.380700  0.671300  0.781400  1
  H  H691  1  0.855000  0.522200  0.181000  1
  H  H692  1  0.645000  0.296800  0.181000  1
  H  H693  1  0.145000  0.477800  0.819000  1
  H  H694  1  0.355000  0.703200  0.819000  1
  H  H695  1  0.059200  0.497700  0.110000  1
  H  H696  1  0.440800  0.392300  0.110000  1
  H  H697  1  0.940800  0.502300  0.890000  1
  H  H698  1  0.559200  0.607700  0.890000  1
  H  H699  1  0.017100  0.558900  0.089800  1
  H  H700  1  0.482900  0.351300  0.089800  1
  H  H701  1  0.982900  0.441100  0.910200  1
  H  H702  1  0.517100  0.648700  0.910200  1
  H  H703  1  0.000800  0.500900  0.075000  1
  H  H704  1  0.499200  0.424100  0.075000  1
  H  H705  1  0.999200  0.499100  0.925000  1
  H  H706  1  0.500800  0.575900  0.925000  1
  H  H707  1  0.992200  0.540600  0.073200  1
  H  H708  1  0.507800  0.386200  0.073200  1
  H  H709  1  0.007800  0.459400  0.926800  1
  H  H710  1  0.492200  0.613800  0.926800  1
  H  H711  1  0.034300  0.479400  0.093400  1
  H  H712  1  0.465700  0.427200  0.093400  1
  H  H713  1  0.965700  0.520600  0.906600  1
  H  H714  1  0.534300  0.572800  0.906600  1
  H  H715  1  0.050600  0.537600  0.108000  1
  H  H716  1  0.449400  0.354400  0.108000  1
  H  H717  1  0.949400  0.462400  0.892000  1
  H  H718  1  0.550600  0.645600  0.892000  1
  H  H719  1  0.883900  0.513400  0.269000  1
  H  H720  1  0.616100  0.217600  0.269000  1
  H  H721  1  0.116100  0.486600  0.731000  1
  H  H722  1  0.383900  0.782400  0.731000  1
  H  H723  1  0.923600  0.566800  0.221000  1
  H  H724  1  0.576400  0.212200  0.221000  1
  H  H725  1  0.076400  0.433200  0.779000  1
  H  H726  1  0.423600  0.787800  0.779000  1
  H  H727  1  0.949400  0.496600  0.259000  1
  H  H728  1  0.550600  0.244400  0.259000  1
  H  H729  1  0.050600  0.503400  0.741000  1
  H  H730  1  0.449400  0.755600  0.741000  1
  H  H731  1  0.954100  0.537800  0.230200  1
  H  H732  1  0.545900  0.232000  0.230200  1
  H  H733  1  0.045900  0.462200  0.769800  1
  H  H734  1  0.454100  0.768000  0.769800  1
  H  H735  1  0.914300  0.484400  0.278400  1
  H  H736  1  0.585700  0.237200  0.278400  1
  H  H737  1  0.085700  0.515600  0.721600  1
  H  H738  1  0.414300  0.762800  0.721600  1
  H  H739  1  0.888500  0.554600  0.240400  1
  H  H740  1  0.611500  0.205000  0.240400  1
  H  H741  1  0.111500  0.445400  0.759600  1
  H  H742  1  0.388500  0.795000  0.759600  1
  H  H743  1  0.573900  0.311000  0.643600  1
  H  H744  1  0.926100  0.045400  0.643600  1
  H  H745  1  0.426100  0.689000  0.356400  1
  H  H746  1  0.073900  0.954600  0.356400  1
  H  H747  1  0.508600  0.338800  0.632200  1
  H  H748  1  0.991400  0.029000  0.632200  1
  H  H749  1  0.491400  0.661200  0.367800  1
  H  H750  1  0.008600  0.971000  0.367800  1
  H  H751  1  0.556900  0.368300  0.583200  1
  H  H752  1  0.943100  0.048500  0.583200  1
  H  H753  1  0.443100  0.631700  0.416800  1
  H  H754  1  0.056900  0.951500  0.416800  1
  H  H755  1  0.662800  0.498700  0.443200  1
  H  H756  1  0.837200  0.058100  0.443200  1
  H  H757  1  0.337200  0.501300  0.556800  1
  H  H758  1  0.162800  0.941900  0.556800  1
  H  H759  1  0.652900  0.423100  0.466200  1
  H  H760  1  0.847100  0.110700  0.466200  1
  H  H761  1  0.347100  0.576900  0.533800  1
  H  H762  1  0.152900  0.889300  0.533800  1
  H  H763  1  0.650900  0.454800  0.509400  1
  H  H764  1  0.849100  0.035800  0.509400  1
  H  H765  1  0.349100  0.545200  0.490600  1
  H  H766  1  0.150900  0.964200  0.490600  1
  H  H767  1  0.050200  0.050900  0.371400  1
  H  H768  1  0.449800  0.577700  0.371400  1
  H  H769  1  0.949800  0.949100  0.628600  1
  H  H770  1  0.550200  0.422300  0.628600  1
  H  H771  1  0.029800  0.007700  0.341000  1
  H  H772  1  0.470200  0.651300  0.341000  1
  H  H773  1  0.970200  0.992300  0.659000  1
  H  H774  1  0.529800  0.348700  0.659000  1
  H  H775  1  0.025100  0.084300  0.307800  1
  H  H776  1  0.474900  0.607900  0.307800  1
  H  H777  1  0.974900  0.915700  0.692200  1
  H  H778  1  0.525100  0.392100  0.692200  1
  H  H779  1  0.118600  0.065100  0.172400  1
  H  H780  1  0.381400  0.762500  0.172400  1
  H  H781  1  0.881400  0.934900  0.827600  1
  H  H782  1  0.618600  0.237500  0.827600  1
  H  H783  1  0.177900  0.026600  0.177400  1
  H  H784  1  0.322100  0.796000  0.177400  1
  H  H785  1  0.822100  0.973400  0.822600  1
  H  H786  1  0.677900  0.204000  0.822600  1
  H  H787  1  0.179700  0.102700  0.156200  1
  H  H788  1  0.320300  0.741100  0.156200  1
  H  H789  1  0.820300  0.897300  0.843800  1
  H  H790  1  0.679700  0.258900  0.843800  1
  H  H791  1  0.966800  0.709700  0.244000  1.0
  H  H792  1  0.533200  0.046300  0.244000  1.0
  H  H793  1  0.033200  0.290300  0.756000  1.0
  H  H794  1  0.466800  0.953700  0.756000  1.0
  H  H795  1  0.014200  0.720600  0.318200  1.0
  H  H796  1  0.485800  0.961200  0.318200  1.0
  H  H797  1  0.985800  0.279400  0.681800  1.0
  H  H798  1  0.514200  0.038800  0.681800  1.0
  H  H799  1  0.109400  0.680000  0.343200  1.0
  H  H800  1  0.390600  0.976800  0.343200  1.0
  H  H801  1  0.890600  0.320000  0.656800  1.0
  H  H802  1  0.609400  0.023200  0.656800  1.0
  H  H803  1  0.033200  0.660500  0.148600  1.0
  H  H804  1  0.466800  0.190900  0.148600  1.0
  H  H805  1  0.966800  0.339500  0.851400  1.0
  H  H806  1  0.533200  0.809100  0.851400  1.0
  H  H807  1  0.974600  0.691000  0.159600  1.0
  H  H808  1  0.525400  0.149400  0.159600  1.0
  H  H809  1  0.025400  0.309000  0.840400  1.0
  H  H810  1  0.474600  0.850600  0.840400  1.0
  H  H811  1  0.984000  0.614800  0.190600  1.0
  H  H812  1  0.516000  0.194600  0.190600  1.0
  H  H813  1  0.016000  0.385200  0.809400  1.0
  H  H814  1  0.484000  0.805400  0.809400  1.0
  H  H815  1  0.192200  0.615100  0.331600  1.0
  H  H816  1  0.307800  0.053300  0.331600  1.0
  H  H817  1  0.807800  0.384900  0.668400  1.0
  H  H818  1  0.692200  0.946700  0.668400  1.0
  H  H819  1  0.263900  0.576800  0.203200  1.0
  H  H820  1  0.236100  0.220000  0.203200  1.0
  H  H821  1  0.736100  0.423200  0.796800  1.0
  H  H822  1  0.763900  0.780000  0.796800  1.0
  H  H823  1  0.381700  0.458600  0.316800  1.0
  H  H824  1  0.118300  0.224600  0.316800  1.0
  H  H825  1  0.618300  0.541400  0.683200  1.0
  H  H826  1  0.881700  0.775400  0.683200  1.0
  H  H827  1  0.238600  0.516800  0.372200  1.0
  H  H828  1  0.261400  0.111000  0.372200  1.0
  H  H829  1  0.761400  0.483200  0.627800  1.0
  H  H830  1  0.738600  0.889000  0.627800  1.0
  H  H831  1  0.297800  0.518200  0.161400  1.0
  H  H832  1  0.202200  0.320400  0.161400  1.0
  H  H833  1  0.702200  0.481800  0.838600  1.0
  H  H834  1  0.797800  0.679600  0.838600  1.0
  H  H835  1  0.476000  0.541600  0.003400  1.0
  H  H836  1  0.024000  0.455000  0.003400  1.0
  H  H837  1  0.524000  0.458400  0.996600  1.0
  H  H838  1  0.976000  0.545000  0.996600  1.0
  H  H839  1  0.375900  0.549900  0.984600  1.0
  H  H840  1  0.124100  0.465500  0.984600  1.0
  H  H841  1  0.624100  0.450100  0.015400  1.0
  H  H842  1  0.875900  0.534500  0.015400  1.0
  H  H843  1  0.310100  0.531200  0.061200  1.0
  H  H844  1  0.189900  0.407600  0.061200  1.0
  H  H845  1  0.689900  0.468800  0.938800  1.0
  H  H846  1  0.810100  0.592400  0.938800  1.0
  H  H847  1  0.544600  0.572600  0.097200  1.0
  H  H848  1  0.955400  0.330200  0.097200  1.0
  H  H849  1  0.455400  0.427400  0.902800  1.0
  H  H850  1  0.044600  0.669800  0.902800  1.0
  H  H851  1  0.555800  0.531100  0.063000  1.0
  H  H852  1  0.944200  0.405900  0.063000  1.0
  H  H853  1  0.444200  0.468900  0.937000  1.0
  H  H854  1  0.055800  0.594100  0.937000  1.0
  H  H855  1  0.544000  0.495700  0.130200  1.0
  H  H856  1  0.956000  0.374100  0.130200  1.0
  H  H857  1  0.456000  0.504300  0.869800  1.0
  H  H858  1  0.044000  0.625900  0.869800  1.0
  H  H859  1  0.250300  0.419800  0.446800  1.0
  H  H860  1  0.249700  0.133400  0.446800  1.0
  H  H861  1  0.749700  0.580200  0.553200  1.0
  H  H862  1  0.750300  0.866600  0.553200  1.0
  H  H863  1  0.447500  0.403700  0.495600  1.0
  H  H864  1  0.052500  0.100700  0.495600  1.0
  H  H865  1  0.552500  0.596300  0.504400  1.0
  H  H866  1  0.947500  0.899300  0.504400  1.0
  H  H867  1  0.420500  0.456100  0.401800  1.0
  H  H868  1  0.079500  0.142100  0.401800  1.0
  H  H869  1  0.579500  0.543900  0.598200  1.0
  H  H870  1  0.920500  0.857900  0.598200  1.0
  H  H871  1  0.223700  0.359600  0.549000  1.0
  H  H872  1  0.276300  0.091400  0.549000  1.0
  H  H873  1  0.776300  0.640400  0.451000  1.0
  H  H874  1  0.723700  0.908600  0.451000  1.0
  H  H875  1  0.250500  0.309300  0.642200  1.0
  H  H876  1  0.249500  0.048500  0.642200  1.0
  H  H877  1  0.749500  0.690700  0.357800  1.0
  H  H878  1  0.750500  0.951500  0.357800  1.0
  H  H879  1  0.420300  0.346400  0.598600  1.0
  H  H880  1  0.079700  0.055000  0.598600  1.0
  H  H881  1  0.579700  0.653600  0.401400  1.0
  H  H882  1  0.920300  0.945000  0.401400  1.0
  H  H883  1  0.285600  0.302600  0.727600  1.0
  H  H884  1  0.214400  0.969800  0.727600  1.0
  H  H885  1  0.714400  0.697400  0.272400  1.0
  H  H886  1  0.785600  0.030200  0.272400  1.0
  H  H887  1  0.403400  0.185300  0.841000  1.0
  H  H888  1  0.096600  0.973700  0.841000  1.0
  H  H889  1  0.596600  0.814700  0.159000  1.0
  H  H890  1  0.903400  0.026300  0.159000  1.0
  H  H891  1  0.434600  0.255200  0.670800  1.0
  H  H892  1  0.065400  0.074000  0.670800  1.0
  H  H893  1  0.565400  0.744800  0.329200  1.0
  H  H894  1  0.934600  0.926000  0.329200  1.0
  H  H895  1  0.320200  0.154600  0.888800  1.0
  H  H896  1  0.179800  0.956600  0.888800  1.0
  H  H897  1  0.679800  0.845400  0.111200  1.0
  H  H898  1  0.820200  0.043400  0.111200  1.0
  H  H899  1  0.142200  0.198900  0.018200  1.0
  H  H900  1  0.357800  0.782900  0.018200  1.0
  H  H901  1  0.857800  0.801100  0.981800  1.0
  H  H902  1  0.642200  0.217100  0.981800  1.0
  H  H903  1  0.191700  0.102700  0.044600  1.0
  H  H904  1  0.308300  0.852700  0.044600  1.0
  H  H905  1  0.808300  0.897300  0.955400  1.0
  H  H906  1  0.691700  0.147300  0.955400  1.0
  H  H907  1  0.268000  0.099600  0.982800  1.0
  H  H908  1  0.232000  0.917600  0.982800  1.0
  H  H909  1  0.732000  0.900400  0.017200  1.0
  H  H910  1  0.768000  0.082400  0.017200  1.0
  H  H911  1  0.187100  0.347200  0.907800  1.0
  H  H912  1  0.312900  0.745000  0.907800  1.0
  H  H913  1  0.812900  0.652800  0.092200  1.0
  H  H914  1  0.687100  0.255000  0.092200  1.0
  H  H915  1  0.147200  0.316500  0.963800  1.0
  H  H916  1  0.352800  0.719700  0.963800  1.0
  H  H917  1  0.852800  0.683500  0.036200  1.0
  H  H918  1  0.647200  0.280300  0.036200  1.0
  H  H919  1  0.125500  0.315200  0.906200  1.0
  H  H920  1  0.374500  0.778600  0.906200  1.0
  H  H921  1  0.874500  0.684800  0.093800  1.0
  H  H922  1  0.625500  0.221400  0.093800  1.0
  H  H923  1  0.525800  0.240900  0.708200  1.0
  H  H924  1  0.974200  0.050900  0.708200  1.0
  H  H925  1  0.474200  0.759100  0.291800  1.0
  H  H926  1  0.025800  0.949100  0.291800  1.0
  H  H927  1  0.683400  0.034700  0.765000  1.0
  H  H928  1  0.816600  0.200300  0.765000  1.0
  H  H929  1  0.316600  0.965300  0.235000  1.0
  H  H930  1  0.183400  0.799700  0.235000  1.0
  H  H931  1  0.696200  0.136900  0.694200  1.0
  H  H932  1  0.803800  0.168900  0.694200  1.0
  H  H933  1  0.303800  0.863100  0.305800  1.0
  H  H934  1  0.196200  0.831100  0.305800  1.0
  H  H935  1  0.623200  0.215000  0.679600  1.0
  H  H936  1  0.876800  0.105400  0.679600  1.0
  H  H937  1  0.376800  0.785000  0.320400  1.0
  H  H938  1  0.123200  0.894600  0.320400  1.0
  H  H939  1  0.561100  0.983300  0.863400  1.0
  H  H940  1  0.938900  0.153300  0.863400  1.0
  H  H941  1  0.438900  0.016700  0.136600  1.0
  H  H942  1  0.061100  0.846700  0.136600  1.0
  H  H943  1  0.630000  0.970700  0.865400  1.0
  H  H944  1  0.870000  0.163900  0.865400  1.0
  H  H945  1  0.370000  0.029300  0.134600  1.0
  H  H946  1  0.130000  0.836100  0.134600  1.0
  H  H947  1  0.589200  0.954000  0.824000  1.0
  H  H948  1  0.910800  0.222000  0.824000  1.0
  H  H949  1  0.410800  0.046000  0.176000  1.0
  H  H950  1  0.089200  0.778000  0.176000  1.0
  H  H951  1  0.216000  0.724400  0.008000  1.0
  H  H952  1  0.284000  0.267600  0.008000  1.0
  H  H953  1  0.784000  0.275600  0.992000  1.0
  H  H954  1  0.716000  0.732400  0.992000  1.0
  H  H955  1  0.217300  0.636500  0.987000  1.0
  H  H956  1  0.282700  0.376500  0.987000  1.0
  H  H957  1  0.782700  0.363500  0.013000  1.0
  H  H958  1  0.717300  0.623500  0.013000  1.0
  H  H959  1  0.185800  0.535900  0.057200  1.0
  H  H960  1  0.314200  0.406900  0.057200  1.0
  H  H961  1  0.814200  0.464100  0.942800  1.0
  H  H962  1  0.685800  0.593100  0.942800  1.0
  H  H963  1  0.156400  0.720000  0.135800  1.0
  H  H964  1  0.343600  0.144200  0.135800  1.0
  H  H965  1  0.843600  0.280000  0.864200  1.0
  H  H966  1  0.656400  0.855800  0.864200  1.0
  H  H967  1  0.163600  0.768500  0.069800  1.0
  H  H968  1  0.336400  0.161700  0.069800  1.0
  H  H969  1  0.836400  0.231500  0.930200  1.0
  H  H970  1  0.663600  0.838300  0.930200  1.0
  H  H971  1  0.220300  0.741800  0.109400  1.0
  H  H972  1  0.279700  0.148800  0.109400  1.0
  H  H973  1  0.779700  0.258200  0.890600  1.0
  H  H974  1  0.720300  0.851200  0.890600  1.0
  H  H975  1  0.144100  0.469900  0.155600  1.0
  H  H976  1  0.355900  0.374500  0.155600  1.0
  H  H977  1  0.855900  0.530100  0.844400  1.0
  H  H978  1  0.644100  0.625500  0.844400  1.0
  H  H979  1  0.067000  0.413700  0.199200  1.0
  H  H980  1  0.433000  0.387100  0.199200  1.0
  H  H981  1  0.933000  0.586300  0.800800  1.0
  H  H982  1  0.567000  0.612900  0.800800  1.0
  H  H983  1  0.044200  0.302100  0.367800  1.0
  H  H984  1  0.455800  0.330100  0.367800  1.0
  H  H985  1  0.955800  0.697900  0.632200  1.0
  H  H986  1  0.544200  0.669900  0.632200  1.0
  H  H987  1  0.130100  0.471000  0.314600  1.0
  H  H988  1  0.369900  0.214400  0.314600  1.0
  H  H989  1  0.869900  0.529000  0.685400  1.0
  H  H990  1  0.630100  0.785600  0.685400  1.0
  H  H991  1  0.962000  0.278100  0.326800  1.0
  H  H992  1  0.538000  0.395100  0.326800  1.0
  H  H993  1  0.038000  0.721900  0.673200  1.0
  H  H994  1  0.462000  0.604900  0.673200  1.0
  H  H995  1  0.909900  0.099700  0.239800  1.0
  H  H996  1  0.590100  0.660500  0.239800  1.0
  H  H997  1  0.090100  0.900300  0.760200  1.0
  H  H998  1  0.409900  0.339500  0.760200  1.0
  H  H999  1  0.857400  0.114100  0.308600  1.0
  H  H1000  1  0.642600  0.577300  0.308600  1.0
  H  H1001  1  0.142600  0.885900  0.691400  1.0
  H  H1002  1  0.357400  0.422700  0.691400  1.0
  H  H1003  1  0.888900  0.190500  0.338800  1.0
  H  H1004  1  0.611100  0.470700  0.338800  1.0
  H  H1005  1  0.111100  0.809500  0.661200  1.0
  H  H1006  1  0.388900  0.529300  0.661200  1.0
  H  H1007  1  0.015600  0.208900  0.150800  1.0
  H  H1008  1  0.484400  0.640300  0.150800  1.0
  H  H1009  1  0.984400  0.791100  0.849200  1.0
  H  H1010  1  0.515600  0.359700  0.849200  1.0
  H  H1011  1  0.974000  0.150700  0.156800  1.0
  H  H1012  1  0.526000  0.692500  0.156800  1.0
  H  H1013  1  0.026000  0.849300  0.843200  1.0
  H  H1014  1  0.474000  0.307500  0.843200  1.0
  H  H1015  1  0.032600  0.136700  0.194000  1.0
  H  H1016  1  0.467400  0.669300  0.194000  1.0
  H  H1017  1  0.967400  0.863300  0.806000  1.0
  H  H1018  1  0.532600  0.330700  0.806000  1.0
  H  H1019  1  0.101700  0.276400  0.444800  1.0
  H  H1020  1  0.398300  0.278800  0.444800  1.0
  H  H1021  1  0.898300  0.723600  0.555200  1.0
  H  H1022  1  0.601700  0.721200  0.555200  1.0
  H  H1023  1  0.096900  0.448400  0.491000  1.0
  H  H1024  1  0.403100  0.060600  0.491000  1.0
  H  H1025  1  0.903100  0.551600  0.509000  1.0
  H  H1026  1  0.596900  0.939400  0.509000  1.0
  H  H1027  1  0.091900  0.466500  0.398200  1.0
  H  H1028  1  0.408100  0.135300  0.398200  1.0
  H  H1029  1  0.908100  0.533500  0.601800  1.0
  H  H1030  1  0.591900  0.864700  0.601800  1.0
  H  H1031  1  0.113100  0.201300  0.546400  1.0
  H  H1032  1  0.386900  0.252300  0.546400  1.0
  H  H1033  1  0.886900  0.798700  0.453600  1.0
  H  H1034  1  0.613100  0.747700  0.453600  1.0
  H  H1035  1  0.114300  0.182700  0.640800  1.0
  H  H1036  1  0.385700  0.176500  0.640800  1.0
  H  H1037  1  0.885700  0.817300  0.359200  1.0
  H  H1038  1  0.614300  0.823500  0.359200  1.0
  H  H1039  1  0.103100  0.372900  0.593600  1.0
  H  H1040  1  0.396900  0.033500  0.593600  1.0
  H  H1041  1  0.896900  0.627100  0.406400  1.0
  H  H1042  1  0.603100  0.966500  0.406400  1.0
  H  H1043  1  0.159700  0.349800  0.668200  1.0
  H  H1044  1  0.340300  0.982000  0.668200  1.0
  H  H1045  1  0.840300  0.650200  0.331800  1.0
  H  H1046  1  0.659700  0.018000  0.331800  1.0
  H  H1047  1  0.146200  0.233500  0.837000  1.0
  H  H1048  1  0.353800  0.929500  0.837000  1.0
  H  H1049  1  0.853800  0.766500  0.163000  1.0
  H  H1050  1  0.646200  0.070500  0.163000  1.0
  H  H1051  1  0.079400  0.176900  0.722600  1.0
  H  H1052  1  0.420600  0.100500  0.722600  1.0
  H  H1053  1  0.920600  0.823100  0.277400  1.0
  H  H1054  1  0.579400  0.899500  0.277400  1.0
  H  H1055  1  0.164500  0.418800  0.705000  1.0
  H  H1056  1  0.335500  0.876200  0.705000  1.0
  H  H1057  1  0.835500  0.581200  0.295000  1.0
  H  H1058  1  0.664500  0.123800  0.295000  1.0
  H  H1059  1  0.330500  0.535500  0.791000  1.0
  H  H1060  1  0.169500  0.673500  0.791000  1.0
  H  H1061  1  0.669500  0.464500  0.209000  1.0
  H  H1062  1  0.830500  0.326500  0.209000  1.0
  H  H1063  1  0.271600  0.586800  0.715600  1.0
  H  H1064  1  0.228400  0.697600  0.715600  1.0
  H  H1065  1  0.728400  0.413200  0.284400  1.0
  H  H1066  1  0.771600  0.302400  0.284400  1.0
  H  H1067  1  0.205800  0.527900  0.686200  1.0
  H  H1068  1  0.294200  0.785900  0.686200  1.0
  H  H1069  1  0.794200  0.472100  0.313800  1.0
  H  H1070  1  0.705800  0.214100  0.313800  1.0
  H  H1071  1  0.315900  0.366800  0.890000  1.0
  H  H1072  1  0.184100  0.743200  0.890000  1.0
  H  H1073  1  0.684100  0.633200  0.110000  1.0
  H  H1074  1  0.815900  0.256800  0.110000  1.0
  H  H1075  1  0.344500  0.432300  0.884600  1.0
  H  H1076  1  0.155500  0.683100  0.884600  1.0
  H  H1077  1  0.655500  0.567700  0.115400  1.0
  H  H1078  1  0.844500  0.316900  0.115400  1.0
  H  H1079  1  0.373500  0.394800  0.852400  1.0
  H  H1080  1  0.126500  0.752800  0.852400  1.0
  H  H1081  1  0.626500  0.605200  0.147600  1.0
  H  H1082  1  0.873500  0.247200  0.147600  1.0
  H  H1083  1  0.149700  0.126500  0.884000  1.0
  H  H1084  1  0.350300  0.989500  0.884000  1.0
  H  H1085  1  0.850300  0.873500  0.116000  1.0
  H  H1086  1  0.649700  0.010500  0.116000  1.0
  H  H1087  1  0.027500  0.894300  0.017200  1.0
  H  H1088  1  0.472500  0.088500  0.017200  1.0
  H  H1089  1  0.972500  0.105700  0.982800  1.0
  H  H1090  1  0.527500  0.911500  0.982800  1.0
  H  H1091  1  0.116500  0.926700  0.041200  1.0
  H  H1092  1  0.383500  0.032100  0.041200  1.0
  H  H1093  1  0.883500  0.073300  0.958800  1.0
  H  H1094  1  0.616500  0.967900  0.958800  1.0
  H  H1095  1  0.156500  0.026800  0.978800  1.0
  H  H1096  1  0.343500  0.994400  0.978800  1.0
  H  H1097  1  0.843500  0.973200  0.021200  1.0
  H  H1098  1  0.656500  0.005600  0.021200  1.0
  H  H1099  1  0.935100  0.992500  0.906200  1.0
  H  H1100  1  0.564900  0.101300  0.906200  1.0
  H  H1101  1  0.064900  0.007500  0.093800  1.0
  H  H1102  1  0.435100  0.898700  0.093800  1.0
  H  H1103  1  0.939700  0.922400  0.958600  1.0
  H  H1104  1  0.560300  0.119000  0.958600  1.0
  H  H1105  1  0.060300  0.077600  0.041400  1.0
  H  H1106  1  0.439700  0.881000  0.041400  1.0
  H  H1107  1  0.968500  0.936300  0.898600  1.0
  H  H1108  1  0.531500  0.165100  0.898600  1.0
  H  H1109  1  0.031500  0.063700  0.101400  1.0
  H  H1110  1  0.468500  0.834900  0.101400  1.0
  K  K1111  1  0.250000  0.748730  0.502540  1
  K  K1112  1  0.750000  0.251270  0.497460  1
  N  N1113  1  0.250000  0.401100  0.197800  1
  N  N1114  1  0.750000  0.598900  0.802200  1
  N  N1115  1  0.250000  0.266600  0.466800  1
  N  N1116  1  0.750000  0.733400  0.533200  1
  N  N1117  1  0.250000  0.191100  0.617800  1
  N  N1118  1  0.750000  0.808900  0.382200  1
  N  N1119  1  0.250000  0.057700  0.884600  1
  N  N1120  1  0.750000  0.942300  0.115400  1
  N  N1121  1  0.227200  0.489300  0.579200  1
  N  N1122  1  0.272800  0.931500  0.579200  1
  N  N1123  1  0.772800  0.510700  0.420800  1
  N  N1124  1  0.727200  0.068500  0.420800  1
  N  N1125  1  0.029100  0.564000  0.435200  1
  N  N1126  1  0.470900  0.000800  0.435200  1
  N  N1127  1  0.970900  0.436000  0.564800  1
  N  N1128  1  0.529100  0.999200  0.564800  1
  N  N1129  1  0.531600  0.239300  0.579600  1
  N  N1130  1  0.968400  0.181100  0.579600  1
  N  N1131  1  0.468400  0.760700  0.420400  1
  N  N1132  1  0.031600  0.818900  0.420400  1
  N  N1133  1  0.533000  0.498600  0.438600  1
  N  N1134  1  0.967000  0.062800  0.438600  1
  N  N1135  1  0.467000  0.501400  0.561400  1
  N  N1136  1  0.033000  0.937200  0.561400  1
  N  N1137  1  0.984700  0.217590  0.238620  1.0
  N  N1138  1  0.515300  0.543790  0.238620  1.0
  N  N1139  1  0.015300  0.782410  0.761380  1.0
  N  N1140  1  0.484700  0.456210  0.761380  1.0
  N  N1141  1  0.086600  0.638100  0.241800  1.0
  N  N1142  1  0.413400  0.120100  0.241800  1.0
  N  N1143  1  0.913400  0.361900  0.758200  1.0
  N  N1144  1  0.586600  0.879900  0.758200  1.0
  N  N1145  1  0.191100  0.586850  0.270900  1.0
  N  N1146  1  0.308900  0.142250  0.270900  1.0
  N  N1147  1  0.808900  0.413150  0.729100  1.0
  N  N1148  1  0.691100  0.857750  0.729100  1.0
  N  N1149  1  0.363600  0.518530  0.208140  1.0
  N  N1150  1  0.136400  0.273330  0.208140  1.0
  N  N1151  1  0.636400  0.481470  0.791860  1.0
  N  N1152  1  0.863600  0.726670  0.791860  1.0
  N  N1153  1  0.434100  0.526210  0.125580  1.0
  N  N1154  1  0.065900  0.348210  0.125580  1.0
  N  N1155  1  0.565900  0.473790  0.874420  1.0
  N  N1156  1  0.934100  0.651790  0.874420  1.0
  N  N1157  1  0.301700  0.241550  0.834700  1.0
  N  N1158  1  0.198300  0.923750  0.834700  1.0
  N  N1159  1  0.698300  0.758450  0.165300  1.0
  N  N1160  1  0.801700  0.076250  0.165300  1.0
  N  N1161  1  0.228800  0.248620  0.910160  1.0
  N  N1162  1  0.271200  0.841220  0.910160  1.0
  N  N1163  1  0.771200  0.751380  0.089840  1.0
  N  N1164  1  0.728800  0.158780  0.089840  1.0
  N  N1165  1  0.478700  0.177430  0.768740  1.0
  N  N1166  1  0.021300  0.053830  0.768740  1.0
  N  N1167  1  0.521300  0.822570  0.231260  1.0
  N  N1168  1  0.978700  0.946170  0.231260  1.0
  N  N1169  1  0.563700  0.093460  0.786280  1.0
  N  N1170  1  0.936300  0.120260  0.786280  1.0
  N  N1171  1  0.436300  0.906540  0.213720  1.0
  N  N1172  1  0.063700  0.879740  0.213720  1.0
  N  N1173  1  0.165800  0.618590  0.127220  1.0
  N  N1174  1  0.334200  0.254190  0.127220  1.0
  N  N1175  1  0.834200  0.381410  0.872780  1.0
  N  N1176  1  0.665800  0.745810  0.872780  1.0
  N  N1177  1  0.125700  0.507290  0.206620  1.0
  N  N1178  1  0.374300  0.286090  0.206620  1.0
  N  N1179  1  0.874300  0.492710  0.793380  1.0
  N  N1180  1  0.625700  0.713910  0.793380  1.0
  N  N1181  1  0.021000  0.307470  0.267260  1.0
  N  N1182  1  0.479000  0.425270  0.267260  1.0
  N  N1183  1  0.979000  0.692530  0.732740  1.0
  N  N1184  1  0.521000  0.574730  0.732740  1.0
  N  N1185  1  0.262800  0.408710  0.797980  1.0
  N  N1186  1  0.237200  0.793310  0.797980  1.0
  N  N1187  1  0.737200  0.591290  0.202020  1.0
  N  N1188  1  0.762800  0.206690  0.202020  1.0
  N  N1189  1  0.190000  0.341860  0.768080  1.0
  N  N1190  1  0.310000  0.890060  0.768080  1.0
  N  N1191  1  0.810000  0.658140  0.231920  1.0
  N  N1192  1  0.690000  0.109940  0.231920  1.0
  N  N1193  1  0.086700  0.138240  0.830120  1.0
  N  N1194  1  0.413300  0.031640  0.830120  1.0
  N  N1195  1  0.913300  0.861760  0.169880  1.0
  N  N1196  1  0.586700  0.968360  0.169880  1.0
  N  N1197  1  0.038800  0.030870  0.906860  1.0
  N  N1198  1  0.461200  0.062270  0.906860  1.0
  N  N1199  1  0.961200  0.969130  0.093140  1.0
  N  N1200  1  0.538800  0.937730  0.093140  1.0
  O  O1201  1  0.107200  0.050000  0.261000  1
  O  O1202  1  0.392800  0.689000  0.261000  1
  O  O1203  1  0.892800  0.950000  0.739000  1
  O  O1204  1  0.607200  0.311000  0.739000  1
  O  O1205  1  0.964700  0.514400  0.325200  1
  O  O1206  1  0.535300  0.160400  0.325200  1
  O  O1207  1  0.035300  0.485600  0.674800  1
  O  O1208  1  0.464700  0.839600  0.674800  1
  O  O1209  1  0.925300  0.502600  0.148800  1
  O  O1210  1  0.574700  0.348600  0.148800  1
  O  O1211  1  0.074700  0.497400  0.851200  1
  O  O1212  1  0.425300  0.651400  0.851200  1
  P  P1213  1  0.250000  0.948770  0.102460  1
  P  P1214  1  0.750000  0.051230  0.897540  1
  P  P1215  1  0.250000  0.538700  0.922600  1
  P  P1216  1  0.750000  0.461300  0.077400  1
  P  P1217  1  0.026900  0.764250  0.990300  1
  P  P1218  1  0.473100  0.245450  0.990300  1
  P  P1219  1  0.973100  0.235750  0.009700  1
  P  P1220  1  0.526900  0.754550  0.009700  1
  P  P1221  1  0.021200  0.747560  0.004080  1
  P  P1222  1  0.478800  0.248360  0.004080  1
  P  P1223  1  0.978800  0.252440  0.995920  1
  P  P1224  1  0.521200  0.751640  0.995920  1
  P  P1225  1  0.368100  0.702410  0.595980  1.0
  P  P1226  1  0.131900  0.701610  0.595980  1.0
  P  P1227  1  0.631900  0.297590  0.404020  1.0
  P  P1228  1  0.868100  0.298390  0.404020  1.0
  P  P1229  1  0.245300  0.676180  0.409460  1.0
  P  P1230  1  0.254700  0.914360  0.409460  1.0
  P  P1231  1  0.754700  0.323820  0.590540  1.0
  P  P1232  1  0.745300  0.085640  0.590540  1.0
