# generated using pymatgen
data_Cu8P9H196C224N43F62
_symmetry_space_group_name_H-M   'P 1'
_cell_length_a   22.89600000
_cell_length_b   22.89600000
_cell_length_c   50.48724046
_cell_angle_alpha   103.10582706
_cell_angle_beta   103.10582706
_cell_angle_gamma   90.00000000
_symmetry_Int_Tables_number   1
_chemical_formula_structural   Cu8P9H196C224N43F62
_chemical_formula_sum   'Cu32 P36 H784 C896 N172 F248'
_cell_volume   25069.05056794
_cell_formula_units_Z   4
loop_
 _symmetry_equiv_pos_site_id
 _symmetry_equiv_pos_as_xyz
  1  'x, y, z'
loop_
 _atom_site_type_symbol
 _atom_site_label
 _atom_site_symmetry_multiplicity
 _atom_site_fract_x
 _atom_site_fract_y
 _atom_site_fract_z
 _atom_site_occupancy
  C  C1  1  0.819640  0.410240  0.276680  1
  C  C2  1  0.457040  0.366440  0.276680  1
  C  C3  1  0.866440  0.319640  0.776680  1
  C  C4  1  0.910240  0.957040  0.776680  1
  C  C5  1  0.180360  0.589760  0.723320  1
  C  C6  1  0.542960  0.633560  0.723320  1
  C  C7  1  0.133560  0.680360  0.223320  1
  C  C8  1  0.089760  0.042960  0.223320  1
  C  C9  1  0.811680  0.364280  0.247760  1
  C  C10  1  0.436080  0.383480  0.247760  1
  C  C11  1  0.883480  0.311680  0.747760  1
  C  C12  1  0.864280  0.936080  0.747760  1
  C  C13  1  0.188320  0.635720  0.752240  1
  C  C14  1  0.563920  0.616520  0.752240  1
  C  C15  1  0.116520  0.688320  0.252240  1
  C  C16  1  0.135720  0.063920  0.252240  1
  C  C17  1  0.903400  0.888700  0.261200  1
  C  C18  1  0.357800  0.872500  0.261200  1
  C  C19  1  0.372500  0.403400  0.761200  1
  C  C20  1  0.388700  0.857800  0.761200  1
  C  C21  1  0.096600  0.111300  0.738800  1
  C  C22  1  0.642200  0.127500  0.738800  1
  C  C23  1  0.627500  0.596600  0.238800  1
  C  C24  1  0.611300  0.142200  0.238800  1
  C  C25  1  0.898910  0.905810  0.292420  1
  C  C26  1  0.393510  0.886610  0.292420  1
  C  C27  1  0.386610  0.398910  0.792420  1
  C  C28  1  0.405810  0.893510  0.792420  1
  C  C29  1  0.101090  0.094190  0.707580  1
  C  C30  1  0.606490  0.113390  0.707580  1
  C  C31  1  0.613390  0.601090  0.207580  1
  C  C32  1  0.594190  0.106490  0.207580  1
  C  C33  1  0.277940  0.026240  0.158080  1
  C  C34  1  0.880140  0.631840  0.158080  1
  C  C35  1  0.131840  0.777940  0.658080  1
  C  C36  1  0.526240  0.380140  0.658080  1
  C  C37  1  0.722060  0.973760  0.841920  1
  C  C38  1  0.119860  0.368160  0.841920  1
  C  C39  1  0.868160  0.222060  0.341920  1
  C  C40  1  0.473760  0.619860  0.341920  1
  C  C41  1  0.276730  0.023530  0.127860  1
  C  C42  1  0.851130  0.604330  0.127860  1
  C  C43  1  0.104330  0.776730  0.627860  1
  C  C44  1  0.523530  0.351130  0.627860  1
  C  C45  1  0.723270  0.976470  0.872140  1
  C  C46  1  0.148870  0.395670  0.872140  1
  C  C47  1  0.895670  0.223270  0.372140  1
  C  C48  1  0.476470  0.648870  0.372140  1
  C  C49  1  0.907600  0.811600  0.367200  1
  C  C50  1  0.459600  0.055600  0.367200  1
  C  C51  1  0.555600  0.407600  0.867200  1
  C  C52  1  0.311600  0.959600  0.867200  1
  C  C53  1  0.092400  0.188400  0.632800  1
  C  C54  1  0.540400  0.944400  0.632800  1
  C  C55  1  0.444400  0.592400  0.132800  1
  C  C56  1  0.688400  0.040400  0.132800  1
  C  C57  1  0.940300  0.865300  0.362600  1
  C  C58  1  0.422300  0.997300  0.362600  1
  C  C59  1  0.497300  0.440300  0.862600  1
  C  C60  1  0.365300  0.922300  0.862600  1
  C  C61  1  0.059700  0.134700  0.637400  1
  C  C62  1  0.577700  0.002700  0.637400  1
  C  C63  1  0.502700  0.559700  0.137400  1
  C  C64  1  0.634700  0.077700  0.137400  1
  C  C65  1  0.424060  0.090260  0.435720  1
  C  C66  1  0.011660  0.845460  0.435720  1
  C  C67  1  0.345460  0.924060  0.935720  1
  C  C68  1  0.590260  0.511660  0.935720  1
  C  C69  1  0.575940  0.909740  0.564280  1
  C  C70  1  0.988340  0.154540  0.564280  1
  C  C71  1  0.654540  0.075940  0.064280  1
  C  C72  1  0.409740  0.488340  0.064280  1
  C  C73  1  0.485290  0.122490  0.450380  1
  C  C74  1  0.965090  0.827890  0.450380  1
  C  C75  1  0.327890  0.985290  0.950380  1
  C  C76  1  0.622490  0.465090  0.950380  1
  C  C77  1  0.514710  0.877510  0.549620  1
  C  C78  1  0.034910  0.172110  0.549620  1
  C  C79  1  0.672110  0.014710  0.049620  1
  C  C80  1  0.377510  0.534910  0.049620  1
  C  C81  1  0.221700  0.975400  0.426200  1
  C  C82  1  0.204500  0.950800  0.426200  1
  C  C83  1  0.450800  0.721700  0.926200  1
  C  C84  1  0.475400  0.704500  0.926200  1
  C  C85  1  0.778300  0.024600  0.573800  1
  C  C86  1  0.795500  0.049200  0.573800  1
  C  C87  1  0.549200  0.278300  0.073800  1
  C  C88  1  0.524600  0.295500  0.073800  1
  C  C89  1  0.250900  0.019200  0.453800  1
  C  C90  1  0.202900  0.934600  0.453800  1
  C  C91  1  0.434600  0.750900  0.953800  1
  C  C92  1  0.519200  0.702900  0.953800  1
  C  C93  1  0.749100  0.980800  0.546200  1
  C  C94  1  0.797100  0.065400  0.546200  1
  C  C95  1  0.565400  0.249100  0.046200  1
  C  C96  1  0.480800  0.297100  0.046200  1
  C  C97  1  0.658260  0.541460  0.122120  1.0
  C  C98  1  0.463860  0.080660  0.122120  1.0
  C  C99  1  0.580660  0.158260  0.622120  1.0
  C  C100  1  0.041460  0.963860  0.622120  1.0
  C  C101  1  0.341740  0.458540  0.877880  1.0
  C  C102  1  0.536140  0.919340  0.877880  1.0
  C  C103  1  0.419340  0.841740  0.377880  1.0
  C  C104  1  0.958540  0.036140  0.377880  1.0
  C  C105  1  0.589460  0.509160  0.080120  1.0
  C  C106  1  0.490660  0.070960  0.080120  1.0
  C  C107  1  0.570960  0.089460  0.580120  1.0
  C  C108  1  0.009160  0.990660  0.580120  1.0
  C  C109  1  0.410540  0.490840  0.919880  1.0
  C  C110  1  0.509340  0.929040  0.919880  1.0
  C  C111  1  0.429040  0.910540  0.419880  1.0
  C  C112  1  0.990840  0.009340  0.419880  1.0
  C  C113  1  0.581050  0.454250  0.086100  1.0
  C  C114  1  0.505050  0.131850  0.086100  1.0
  C  C115  1  0.631850  0.081050  0.586100  1.0
  C  C116  1  0.954250  0.005050  0.586100  1.0
  C  C117  1  0.418950  0.545750  0.913900  1.0
  C  C118  1  0.494950  0.868150  0.913900  1.0
  C  C119  1  0.368150  0.918950  0.413900  1.0
  C  C120  1  0.045750  0.994950  0.413900  1.0
  C  C121  1  0.613830  0.442630  0.111060  1.0
  C  C122  1  0.497230  0.168430  0.111060  1.0
  C  C123  1  0.668430  0.113830  0.611060  1.0
  C  C124  1  0.942630  0.997230  0.611060  1.0
  C  C125  1  0.386170  0.557370  0.888940  1.0
  C  C126  1  0.502770  0.831570  0.888940  1.0
  C  C127  1  0.331570  0.886170  0.388940  1.0
  C  C128  1  0.057370  0.002770  0.388940  1.0
  C  C129  1  0.653150  0.487650  0.129700  1.0
  C  C130  1  0.476550  0.142050  0.129700  1.0
  C  C131  1  0.642050  0.153150  0.629700  1.0
  C  C132  1  0.987650  0.976550  0.629700  1.0
  C  C133  1  0.346850  0.512350  0.870300  1.0
  C  C134  1  0.523450  0.857950  0.870300  1.0
  C  C135  1  0.357950  0.846850  0.370300  1.0
  C  C136  1  0.012350  0.023450  0.370300  1.0
  C  C137  1  0.555750  0.523450  0.053900  1.0
  C  C138  1  0.498150  0.030450  0.053900  1.0
  C  C139  1  0.530450  0.055750  0.553900  1.0
  C  C140  1  0.023450  0.998150  0.553900  1.0
  C  C141  1  0.444250  0.476550  0.946100  1.0
  C  C142  1  0.501850  0.969550  0.946100  1.0
  C  C143  1  0.469550  0.944250  0.446100  1.0
  C  C144  1  0.976550  0.001850  0.446100  1.0
  C  C145  1  0.697060  0.592460  0.140920  1.0
  C  C146  1  0.443860  0.048460  0.140920  1.0
  C  C147  1  0.548460  0.197060  0.640920  1.0
  C  C148  1  0.092460  0.943860  0.640920  1.0
  C  C149  1  0.302940  0.407540  0.859080  1.0
  C  C150  1  0.556140  0.951540  0.859080  1.0
  C  C151  1  0.451540  0.802940  0.359080  1.0
  C  C152  1  0.907540  0.056140  0.359080  1.0
  C  C153  1  0.734250  0.691650  0.152900  1.0
  C  C154  1  0.418650  0.961250  0.152900  1.0
  C  C155  1  0.461250  0.234250  0.652900  1.0
  C  C156  1  0.191650  0.918650  0.652900  1.0
  C  C157  1  0.265750  0.308350  0.847100  1.0
  C  C158  1  0.581350  0.038750  0.847100  1.0
  C  C159  1  0.538750  0.765750  0.347100  1.0
  C  C160  1  0.808350  0.081350  0.347100  1.0
  C  C161  1  0.761670  0.733770  0.142740  1.0
  C  C162  1  0.381070  0.908970  0.142740  1.0
  C  C163  1  0.408970  0.261670  0.642740  1.0
  C  C164  1  0.233770  0.881070  0.642740  1.0
  C  C165  1  0.238330  0.266230  0.857260  1.0
  C  C166  1  0.618930  0.091030  0.857260  1.0
  C  C167  1  0.591030  0.738330  0.357260  1.0
  C  C168  1  0.766230  0.118930  0.357260  1.0
  C  C169  1  0.792850  0.783350  0.160900  1.0
  C  C170  1  0.368050  0.877550  0.160900  1.0
  C  C171  1  0.377550  0.292850  0.660900  1.0
  C  C172  1  0.283350  0.868050  0.660900  1.0
  C  C173  1  0.207150  0.216650  0.839100  1.0
  C  C174  1  0.631950  0.122450  0.839100  1.0
  C  C175  1  0.622450  0.707150  0.339100  1.0
  C  C176  1  0.716650  0.131950  0.339100  1.0
  C  C177  1  0.795480  0.794980  0.189760  1.0
  C  C178  1  0.394280  0.894780  0.189760  1.0
  C  C179  1  0.394780  0.295480  0.689760  1.0
  C  C180  1  0.294980  0.894280  0.689760  1.0
  C  C181  1  0.204520  0.205020  0.810240  1.0
  C  C182  1  0.605720  0.105220  0.810240  1.0
  C  C183  1  0.605220  0.704520  0.310240  1.0
  C  C184  1  0.705020  0.105720  0.310240  1.0
  C  C185  1  0.767970  0.752970  0.199740  1.0
  C  C186  1  0.431770  0.946770  0.199740  1.0
  C  C187  1  0.446770  0.267970  0.699740  1.0
  C  C188  1  0.252970  0.931770  0.699740  1.0
  C  C189  1  0.232030  0.247030  0.800260  1.0
  C  C190  1  0.568230  0.053230  0.800260  1.0
  C  C191  1  0.553230  0.732030  0.300260  1.0
  C  C192  1  0.747030  0.068230  0.300260  1.0
  C  C193  1  0.737410  0.702010  0.181420  1.0
  C  C194  1  0.444010  0.979410  0.181420  1.0
  C  C195  1  0.479410  0.237410  0.681420  1.0
  C  C196  1  0.202010  0.944010  0.681420  1.0
  C  C197  1  0.262590  0.297990  0.818580  1.0
  C  C198  1  0.555990  0.020590  0.818580  1.0
  C  C199  1  0.520590  0.762590  0.318580  1.0
  C  C200  1  0.797990  0.055990  0.318580  1.0
  C  C201  1  0.856000  0.868400  0.163800  1.0
  C  C202  1  0.307800  0.795400  0.163800  1.0
  C  C203  1  0.295400  0.356000  0.663800  1.0
  C  C204  1  0.368400  0.807800  0.663800  1.0
  C  C205  1  0.144000  0.131600  0.836200  1.0
  C  C206  1  0.692200  0.204600  0.836200  1.0
  C  C207  1  0.704600  0.644000  0.336200  1.0
  C  C208  1  0.631600  0.192200  0.336200  1.0
  C  C209  1  0.873270  0.913770  0.150740  1.0
  C  C210  1  0.277470  0.736970  0.150740  1.0
  C  C211  1  0.236970  0.373270  0.650740  1.0
  C  C212  1  0.413770  0.777470  0.650740  1.0
  C  C213  1  0.126730  0.086230  0.849260  1.0
  C  C214  1  0.722530  0.263030  0.849260  1.0
  C  C215  1  0.763030  0.626730  0.349260  1.0
  C  C216  1  0.586230  0.222530  0.349260  1.0
  C  C217  1  0.857340  0.948340  0.110080  1.0
  C  C218  1  0.252740  0.661740  0.110080  1.0
  C  C219  1  0.161740  0.357340  0.610080  1.0
  C  C220  1  0.448340  0.752740  0.610080  1.0
  C  C221  1  0.142660  0.051660  0.889920  1.0
  C  C222  1  0.747260  0.338260  0.889920  1.0
  C  C223  1  0.838260  0.642660  0.389920  1.0
  C  C224  1  0.551660  0.247260  0.389920  1.0
  C  C225  1  0.896680  0.998580  0.123760  1.0
  C  C226  1  0.227080  0.625180  0.123760  1.0
  C  C227  1  0.125180  0.396680  0.623760  1.0
  C  C228  1  0.498580  0.727080  0.623760  1.0
  C  C229  1  0.103320  0.001420  0.876240  1.0
  C  C230  1  0.772920  0.374820  0.876240  1.0
  C  C231  1  0.874820  0.603320  0.376240  1.0
  C  C232  1  0.501420  0.272920  0.376240  1.0
  C  C233  1  0.924740  0.004740  0.150880  1.0
  C  C234  1  0.226140  0.646140  0.150880  1.0
  C  C235  1  0.146140  0.424740  0.650880  1.0
  C  C236  1  0.504740  0.726140  0.650880  1.0
  C  C237  1  0.075260  0.995260  0.849120  1.0
  C  C238  1  0.773860  0.353860  0.849120  1.0
  C  C239  1  0.853860  0.575260  0.349120  1.0
  C  C240  1  0.495260  0.273860  0.349120  1.0
  C  C241  1  0.913990  0.961790  0.165380  1.0
  C  C242  1  0.251390  0.703590  0.165380  1.0
  C  C243  1  0.203590  0.413990  0.665380  1.0
  C  C244  1  0.461790  0.751390  0.665380  1.0
  C  C245  1  0.086010  0.038210  0.834620  1.0
  C  C246  1  0.748610  0.296410  0.834620  1.0
  C  C247  1  0.796410  0.586010  0.334620  1.0
  C  C248  1  0.538210  0.248610  0.334620  1.0
  C  C249  1  0.827260  0.936660  0.079120  1.0
  C  C250  1  0.251860  0.642460  0.079120  1.0
  C  C251  1  0.142460  0.327260  0.579120  1.0
  C  C252  1  0.436660  0.751860  0.579120  1.0
  C  C253  1  0.172740  0.063340  0.920880  1.0
  C  C254  1  0.748140  0.357540  0.920880  1.0
  C  C255  1  0.857540  0.672740  0.420880  1.0
  C  C256  1  0.563340  0.248140  0.420880  1.0
  C  C257  1  0.766370  0.766870  0.230140  1.0
  C  C258  1  0.463770  0.963270  0.230140  1.0
  C  C259  1  0.463270  0.266370  0.730140  1.0
  C  C260  1  0.266870  0.963770  0.730140  1.0
  C  C261  1  0.233630  0.233130  0.769860  1.0
  C  C262  1  0.536230  0.036730  0.769860  1.0
  C  C263  1  0.536730  0.733630  0.269860  1.0
  C  C264  1  0.733130  0.036230  0.269860  1.0
  C  C265  1  0.755980  0.823280  0.243360  1.0
  C  C266  1  0.487380  0.920080  0.243360  1.0
  C  C267  1  0.420080  0.255980  0.743360  1.0
  C  C268  1  0.323280  0.987380  0.743360  1.0
  C  C269  1  0.244020  0.176720  0.756640  1.0
  C  C270  1  0.512620  0.079920  0.756640  1.0
  C  C271  1  0.579920  0.744020  0.256640  1.0
  C  C272  1  0.676720  0.012620  0.256640  1.0
  C  C273  1  0.751320  0.835820  0.271840  1.0
  C  C274  1  0.520520  0.936020  0.271840  1.0
  C  C275  1  0.436020  0.251320  0.771840  1.0
  C  C276  1  0.335820  0.020520  0.771840  1.0
  C  C277  1  0.248680  0.164180  0.728160  1.0
  C  C278  1  0.479480  0.063980  0.728160  1.0
  C  C279  1  0.563980  0.748680  0.228160  1.0
  C  C280  1  0.664180  0.979480  0.228160  1.0
  C  C281  1  0.759290  0.789490  0.286580  1.0
  C  C282  1  0.527290  0.997090  0.286580  1.0
  C  C283  1  0.497090  0.259290  0.786580  1.0
  C  C284  1  0.289490  0.027290  0.786580  1.0
  C  C285  1  0.240710  0.210510  0.713420  1.0
  C  C286  1  0.472710  0.002910  0.713420  1.0
  C  C287  1  0.502910  0.740710  0.213420  1.0
  C  C288  1  0.710510  0.972710  0.213420  1.0
  C  C289  1  0.769550  0.731450  0.272100  1.0
  C  C290  1  0.502550  0.040650  0.272100  1.0
  C  C291  1  0.540650  0.269550  0.772100  1.0
  C  C292  1  0.231450  0.002550  0.772100  1.0
  C  C293  1  0.230450  0.268550  0.727900  1.0
  C  C294  1  0.497450  0.959350  0.727900  1.0
  C  C295  1  0.459350  0.730450  0.227900  1.0
  C  C296  1  0.768550  0.997450  0.227900  1.0
  C  C297  1  0.772190  0.720290  0.244780  1.0
  C  C298  1  0.472590  0.024490  0.244780  1.0
  C  C299  1  0.524490  0.272190  0.744780  1.0
  C  C300  1  0.220290  0.972590  0.744780  1.0
  C  C301  1  0.227810  0.279710  0.755220  1.0
  C  C302  1  0.527410  0.975510  0.755220  1.0
  C  C303  1  0.475510  0.727810  0.255220  1.0
  C  C304  1  0.779710  0.027410  0.255220  1.0
  C  C305  1  0.738230  0.893630  0.286060  1.0
  C  C306  1  0.547830  0.892430  0.286060  1.0
  C  C307  1  0.392430  0.238230  0.786060  1.0
  C  C308  1  0.393630  0.047830  0.786060  1.0
  C  C309  1  0.261770  0.106370  0.713940  1.0
  C  C310  1  0.452170  0.107570  0.713940  1.0
  C  C311  1  0.607570  0.761770  0.213940  1.0
  C  C312  1  0.606370  0.952170  0.213940  1.0
  C  C313  1  0.736970  0.905070  0.313340  1.0
  C  C314  1  0.576370  0.908270  0.313340  1.0
  C  C315  1  0.408270  0.236970  0.813340  1.0
  C  C316  1  0.405070  0.076370  0.813340  1.0
  C  C317  1  0.263030  0.094930  0.686660  1.0
  C  C318  1  0.423630  0.091730  0.686660  1.0
  C  C319  1  0.591730  0.763030  0.186660  1.0
  C  C320  1  0.594930  0.923630  0.186660  1.0
  C  C321  1  0.746990  0.860590  0.328780  1.0
  C  C322  1  0.581790  0.968190  0.328780  1.0
  C  C323  1  0.468190  0.246990  0.828780  1.0
  C  C324  1  0.360590  0.081790  0.828780  1.0
  C  C325  1  0.253010  0.139410  0.671220  1.0
  C  C326  1  0.418210  0.031810  0.671220  1.0
  C  C327  1  0.531810  0.753010  0.171220  1.0
  C  C328  1  0.639410  0.918210  0.171220  1.0
  C  C329  1  0.757760  0.802860  0.314920  1.0
  C  C330  1  0.557160  0.012060  0.314920  1.0
  C  C331  1  0.512060  0.257760  0.814920  1.0
  C  C332  1  0.302860  0.057160  0.814920  1.0
  C  C333  1  0.242240  0.197140  0.685080  1.0
  C  C334  1  0.442840  0.987940  0.685080  1.0
  C  C335  1  0.487940  0.742240  0.185080  1.0
  C  C336  1  0.697140  0.942840  0.185080  1.0
  C  C337  1  0.751150  0.875250  0.359100  1.0
  C  C338  1  0.607950  0.983850  0.359100  1.0
  C  C339  1  0.483850  0.251150  0.859100  1.0
  C  C340  1  0.375250  0.107950  0.859100  1.0
  C  C341  1  0.248850  0.124750  0.640900  1.0
  C  C342  1  0.392050  0.016150  0.640900  1.0
  C  C343  1  0.516150  0.748850  0.140900  1.0
  C  C344  1  0.624750  0.892050  0.140900  1.0
  C  C345  1  0.774660  0.931560  0.375520  1.0
  C  C346  1  0.600860  0.943960  0.375520  1.0
  C  C347  1  0.443960  0.274660  0.875520  1.0
  C  C348  1  0.431560  0.100860  0.875520  1.0
  C  C349  1  0.225340  0.068440  0.624480  1.0
  C  C350  1  0.399140  0.056040  0.624480  1.0
  C  C351  1  0.556040  0.725340  0.124480  1.0
  C  C352  1  0.568440  0.899140  0.124480  1.0
  C  C353  1  0.784710  0.943810  0.404820  1.0
  C  C354  1  0.620110  0.961010  0.404820  1.0
  C  C355  1  0.461010  0.284710  0.904820  1.0
  C  C356  1  0.443810  0.120110  0.904820  1.0
  C  C357  1  0.215290  0.056190  0.595180  1.0
  C  C358  1  0.379890  0.038990  0.595180  1.0
  C  C359  1  0.538990  0.715290  0.095180  1.0
  C  C360  1  0.556190  0.879890  0.095180  1.0
  C  C361  1  0.772850  0.899650  0.418100  1.0
  C  C362  1  0.645250  0.018450  0.418100  1.0
  C  C363  1  0.518450  0.272850  0.918100  1.0
  C  C364  1  0.399650  0.145250  0.918100  1.0
  C  C365  1  0.227150  0.100350  0.581900  1.0
  C  C366  1  0.354750  0.981550  0.581900  1.0
  C  C367  1  0.481550  0.727150  0.081900  1.0
  C  C368  1  0.600350  0.854750  0.081900  1.0
  C  C369  1  0.748860  0.843260  0.401520  1.0
  C  C370  1  0.652660  0.058260  0.401520  1.0
  C  C371  1  0.558260  0.248860  0.901520  1.0
  C  C372  1  0.343260  0.152660  0.901520  1.0
  C  C373  1  0.251140  0.156740  0.598480  1.0
  C  C374  1  0.347340  0.941740  0.598480  1.0
  C  C375  1  0.441740  0.751140  0.098480  1.0
  C  C376  1  0.656740  0.847340  0.098480  1.0
  C  C377  1  0.738640  0.831540  0.372880  1.0
  C  C378  1  0.634240  0.041340  0.372880  1.0
  C  C379  1  0.541340  0.238640  0.872880  1.0
  C  C380  1  0.331540  0.134240  0.872880  1.0
  C  C381  1  0.261360  0.168460  0.627120  1.0
  C  C382  1  0.365760  0.958660  0.627120  1.0
  C  C383  1  0.458660  0.761360  0.127120  1.0
  C  C384  1  0.668460  0.865760  0.127120  1.0
  C  C385  1  0.809290  0.022990  0.444980  1.0
  C  C386  1  0.635690  0.921990  0.444980  1.0
  C  C387  1  0.421990  0.309290  0.944980  1.0
  C  C388  1  0.522990  0.135690  0.944980  1.0
  C  C389  1  0.190710  0.977010  0.555020  1.0
  C  C390  1  0.364310  0.078010  0.555020  1.0
  C  C391  1  0.578010  0.690710  0.055020  1.0
  C  C392  1  0.477010  0.864310  0.055020  1.0
  C  C393  1  0.840460  0.080860  0.459120  1.0
  C  C394  1  0.618660  0.878260  0.459120  1.0
  C  C395  1  0.378260  0.340460  0.959120  1.0
  C  C396  1  0.580860  0.118660  0.959120  1.0
  C  C397  1  0.159540  0.919140  0.540880  1.0
  C  C398  1  0.381340  0.121740  0.540880  1.0
  C  C399  1  0.621740  0.659540  0.040880  1.0
  C  C400  1  0.419140  0.881340  0.040880  1.0
  C  C401  1  0.892710  0.163010  0.455020  1.0
  C  C402  1  0.562310  0.792010  0.455020  1.0
  C  C403  1  0.292010  0.392710  0.955020  1.0
  C  C404  1  0.663010  0.062310  0.955020  1.0
  C  C405  1  0.107290  0.836990  0.544980  1.0
  C  C406  1  0.437690  0.207990  0.544980  1.0
  C  C407  1  0.707990  0.607290  0.044980  1.0
  C  C408  1  0.336990  0.937690  0.044980  1.0
  C  C409  1  0.904010  0.185210  0.484420  1.0
  C  C410  1  0.580410  0.799210  0.484420  1.0
  C  C411  1  0.299210  0.404010  0.984420  1.0
  C  C412  1  0.685210  0.080410  0.984420  1.0
  C  C413  1  0.095990  0.814790  0.515580  1.0
  C  C414  1  0.419590  0.200790  0.515580  1.0
  C  C415  1  0.700790  0.595990  0.015580  1.0
  C  C416  1  0.314790  0.919590  0.015580  1.0
  C  C417  1  0.880930  0.156230  0.500060  1.0
  C  C418  1  0.619130  0.843830  0.500060  1.0
  C  C419  1  0.343830  0.380930  0.000060  1.0
  C  C420  1  0.656230  0.119130  0.000060  1.0
  C  C421  1  0.119070  0.843770  0.499940  1.0
  C  C422  1  0.380870  0.156170  0.499940  1.0
  C  C423  1  0.656170  0.619070  0.999940  1.0
  C  C424  1  0.343770  0.880870  0.999940  1.0
  C  C425  1  0.848790  0.100690  0.488580  1.0
  C  C426  1  0.639790  0.887890  0.488580  1.0
  C  C427  1  0.387890  0.348790  0.988580  1.0
  C  C428  1  0.600690  0.139790  0.988580  1.0
  C  C429  1  0.151210  0.899310  0.511420  1.0
  C  C430  1  0.360210  0.112110  0.511420  1.0
  C  C431  1  0.612110  0.651210  0.011420  1.0
  C  C432  1  0.399310  0.860210  0.011420  1.0
  C  C433  1  0.911450  0.196750  0.435300  1.0
  C  C434  1  0.523850  0.738550  0.435300  1.0
  C  C435  1  0.238550  0.411450  0.935300  1.0
  C  C436  1  0.696750  0.023850  0.935300  1.0
  C  C437  1  0.088550  0.803250  0.564700  1.0
  C  C438  1  0.476150  0.261450  0.564700  1.0
  C  C439  1  0.761450  0.588550  0.064700  1.0
  C  C440  1  0.303250  0.976150  0.064700  1.0
  C  C441  1  0.734420  0.801920  0.438440  1.0
  C  C442  1  0.704020  0.136520  0.438440  1.0
  C  C443  1  0.636520  0.234420  0.938440  1.0
  C  C444  1  0.301920  0.204020  0.938440  1.0
  C  C445  1  0.265580  0.198080  0.561560  1.0
  C  C446  1  0.295980  0.863480  0.561560  1.0
  C  C447  1  0.363480  0.765580  0.061560  1.0
  C  C448  1  0.698080  0.795980  0.061560  1.0
  C  C449  1  0.720390  0.748490  0.448380  1.0
  C  C450  1  0.727990  0.199890  0.448380  1.0
  C  C451  1  0.699890  0.220390  0.948380  1.0
  C  C452  1  0.248490  0.227990  0.948380  1.0
  C  C453  1  0.279610  0.251510  0.551620  1.0
  C  C454  1  0.272010  0.800110  0.551620  1.0
  C  C455  1  0.300110  0.779610  0.051620  1.0
  C  C456  1  0.751510  0.772010  0.051620  1.0
  C  C457  1  0.689170  0.646470  0.434340  1.0
  C  C458  1  0.745170  0.287870  0.434340  1.0
  C  C459  1  0.787870  0.189170  0.934340  1.0
  C  C460  1  0.146470  0.245170  0.934340  1.0
  C  C461  1  0.310830  0.353530  0.565660  1.0
  C  C462  1  0.254830  0.712130  0.565660  1.0
  C  C463  1  0.212130  0.810830  0.065660  1.0
  C  C464  1  0.853530  0.754830  0.065660  1.0
  C  C465  1  0.691050  0.647250  0.462500  1.0
  C  C466  1  0.771450  0.315250  0.462500  1.0
  C  C467  1  0.815250  0.191050  0.962500  1.0
  C  C468  1  0.147250  0.271450  0.962500  1.0
  C  C469  1  0.308950  0.352750  0.537500  1.0
  C  C470  1  0.228550  0.684750  0.537500  1.0
  C  C471  1  0.184750  0.808950  0.037500  1.0
  C  C472  1  0.852750  0.728550  0.037500  1.0
  C  C473  1  0.707990  0.699090  0.483380  1.0
  C  C474  1  0.775390  0.284290  0.483380  1.0
  C  C475  1  0.784290  0.207990  0.983380  1.0
  C  C476  1  0.199090  0.275390  0.983380  1.0
  C  C477  1  0.292010  0.300910  0.516620  1.0
  C  C478  1  0.224610  0.715710  0.516620  1.0
  C  C479  1  0.215710  0.792010  0.016620  1.0
  C  C480  1  0.800910  0.724610  0.016620  1.0
  C  C481  1  0.723540  0.751740  0.476280  1.0
  C  C482  1  0.752740  0.224540  0.476280  1.0
  C  C483  1  0.724540  0.223540  0.976280  1.0
  C  C484  1  0.251740  0.252740  0.976280  1.0
  C  C485  1  0.276460  0.248260  0.523720  1.0
  C  C486  1  0.247260  0.775460  0.523720  1.0
  C  C487  1  0.275460  0.776460  0.023720  1.0
  C  C488  1  0.748260  0.747260  0.023720  1.0
  C  C489  1  0.670290  0.593190  0.411180  1.0
  C  C490  1  0.740890  0.317990  0.411180  1.0
  C  C491  1  0.817990  0.170290  0.911180  1.0
  C  C492  1  0.093190  0.240890  0.911180  1.0
  C  C493  1  0.329710  0.406810  0.588820  1.0
  C  C494  1  0.259110  0.682010  0.588820  1.0
  C  C495  1  0.182010  0.829710  0.088820  1.0
  C  C496  1  0.906810  0.759110  0.088820  1.0
  C  C497  1  0.064340  0.079840  0.042080  1.0
  C  C498  1  0.977740  0.462240  0.042080  1.0
  C  C499  1  0.962240  0.564340  0.542080  1.0
  C  C500  1  0.579840  0.477740  0.542080  1.0
  C  C501  1  0.935660  0.920160  0.957920  1.0
  C  C502  1  0.022260  0.537760  0.957920  1.0
  C  C503  1  0.037760  0.435660  0.457920  1.0
  C  C504  1  0.420160  0.522260  0.457920  1.0
  C  C505  1  0.120720  0.997920  0.048840  1.0
  C  C506  1  0.928120  0.550920  0.048840  1.0
  C  C507  1  0.050920  0.620720  0.548840  1.0
  C  C508  1  0.497920  0.428120  0.548840  1.0
  C  C509  1  0.879280  0.002080  0.951160  1.0
  C  C510  1  0.071880  0.449080  0.951160  1.0
  C  C511  1  0.949080  0.379280  0.451160  1.0
  C  C512  1  0.502080  0.571880  0.451160  1.0
  C  C513  1  0.117490  0.980190  0.020580  1.0
  C  C514  1  0.903090  0.540390  0.020580  1.0
  C  C515  1  0.040390  0.617490  0.520580  1.0
  C  C516  1  0.480190  0.403090  0.520580  1.0
  C  C517  1  0.882510  0.019810  0.979420  1.0
  C  C518  1  0.096910  0.459610  0.979420  1.0
  C  C519  1  0.959610  0.382510  0.479420  1.0
  C  C520  1  0.519810  0.596910  0.479420  1.0
  C  C521  1  0.085260  0.010960  0.002720  1.0
  C  C522  1  0.917460  0.491760  0.002720  1.0
  C  C523  1  0.991760  0.585260  0.502720  1.0
  C  C524  1  0.510960  0.417460  0.502720  1.0
  C  C525  1  0.914740  0.989040  0.997280  1.0
  C  C526  1  0.082540  0.508240  0.997280  1.0
  C  C527  1  0.008240  0.414740  0.497280  1.0
  C  C528  1  0.489040  0.582540  0.497280  1.0
  C  C529  1  0.059570  0.063870  0.013940  1.0
  C  C530  1  0.954370  0.450070  0.013940  1.0
  C  C531  1  0.950070  0.559570  0.513940  1.0
  C  C532  1  0.563870  0.454370  0.513940  1.0
  C  C533  1  0.940430  0.936130  0.986060  1.0
  C  C534  1  0.045630  0.549930  0.986060  1.0
  C  C535  1  0.049930  0.440430  0.486060  1.0
  C  C536  1  0.436130  0.545630  0.486060  1.0
  C  C537  1  0.151030  0.963230  0.069060  1.0
  C  C538  1  0.918030  0.605830  0.069060  1.0
  C  C539  1  0.105830  0.651030  0.569060  1.0
  C  C540  1  0.463230  0.418030  0.569060  1.0
  C  C541  1  0.848970  0.036770  0.930940  1.0
  C  C542  1  0.081970  0.394170  0.930940  1.0
  C  C543  1  0.894170  0.348970  0.430940  1.0
  C  C544  1  0.536770  0.581970  0.430940  1.0
  C  C545  1  0.036400  0.132800  0.055400  1.0
  C  C546  1  0.019000  0.422600  0.055400  1.0
  C  C547  1  0.922600  0.536400  0.555400  1.0
  C  C548  1  0.632800  0.519000  0.555400  1.0
  C  C549  1  0.963600  0.867200  0.944600  1.0
  C  C550  1  0.981000  0.577400  0.944600  1.0
  C  C551  1  0.077400  0.463600  0.444600  1.0
  C  C552  1  0.367200  0.481000  0.444600  1.0
  C  C553  1  0.009340  0.190640  0.095280  1.0
  C  C554  1  0.085940  0.404640  0.095280  1.0
  C  C555  1  0.904640  0.509340  0.595280  1.0
  C  C556  1  0.690640  0.585940  0.595280  1.0
  C  C557  1  0.990660  0.809360  0.904720  1.0
  C  C558  1  0.914060  0.595360  0.904720  1.0
  C  C559  1  0.095360  0.490660  0.404720  1.0
  C  C560  1  0.309360  0.414060  0.404720  1.0
  C  C561  1  0.974210  0.229510  0.081820  1.0
  C  C562  1  0.107610  0.352310  0.081820  1.0
  C  C563  1  0.852310  0.474210  0.581820  1.0
  C  C564  1  0.729510  0.607610  0.581820  1.0
  C  C565  1  0.025790  0.770490  0.918180  1.0
  C  C566  1  0.892390  0.647690  0.918180  1.0
  C  C567  1  0.147690  0.525790  0.418180  1.0
  C  C568  1  0.270490  0.392390  0.418180  1.0
  C  C569  1  0.947530  0.275630  0.097460  1.0
  C  C570  1  0.149930  0.321830  0.097460  1.0
  C  C571  1  0.821830  0.447530  0.597460  1.0
  C  C572  1  0.775630  0.649930  0.597460  1.0
  C  C573  1  0.052470  0.724370  0.902540  1.0
  C  C574  1  0.850070  0.678170  0.902540  1.0
  C  C575  1  0.178170  0.552470  0.402540  1.0
  C  C576  1  0.224370  0.350070  0.402540  1.0
  C  C577  1  0.955660  0.281660  0.126120  1.0
  C  C578  1  0.170460  0.344460  0.126120  1.0
  C  C579  1  0.844460  0.455660  0.626120  1.0
  C  C580  1  0.781660  0.670460  0.626120  1.0
  C  C581  1  0.044340  0.718340  0.873880  1.0
  C  C582  1  0.829540  0.655540  0.873880  1.0
  C  C583  1  0.155540  0.544340  0.373880  1.0
  C  C584  1  0.218340  0.329540  0.373880  1.0
  C  C585  1  0.989320  0.241020  0.139840  1.0
  C  C586  1  0.150520  0.398820  0.139840  1.0
  C  C587  1  0.898820  0.489320  0.639840  1.0
  C  C588  1  0.741020  0.650520  0.639840  1.0
  C  C589  1  0.010680  0.758980  0.860160  1.0
  C  C590  1  0.849480  0.601180  0.860160  1.0
  C  C591  1  0.101180  0.510680  0.360160  1.0
  C  C592  1  0.258980  0.349480  0.360160  1.0
  C  C593  1  0.016920  0.196820  0.123640  1.0
  C  C594  1  0.106720  0.426820  0.123640  1.0
  C  C595  1  0.926820  0.516920  0.623640  1.0
  C  C596  1  0.696820  0.606720  0.623640  1.0
  C  C597  1  0.983080  0.803180  0.876360  1.0
  C  C598  1  0.893280  0.573180  0.876360  1.0
  C  C599  1  0.073180  0.483080  0.376360  1.0
  C  C600  1  0.303180  0.393280  0.376360  1.0
  C  C601  1  0.903030  0.319730  0.060060  1.0
  C  C602  1  0.157030  0.240330  0.060060  1.0
  C  C603  1  0.740330  0.403030  0.560060  1.0
  C  C604  1  0.819730  0.657030  0.560060  1.0
  C  C605  1  0.096970  0.680270  0.939940  1.0
  C  C606  1  0.842970  0.759670  0.939940  1.0
  C  C607  1  0.259670  0.596970  0.439940  1.0
  C  C608  1  0.180270  0.342970  0.439940  1.0
  C  C609  1  0.856140  0.355540  0.047680  1.0
  C  C610  1  0.191540  0.192140  0.047680  1.0
  C  C611  1  0.692140  0.356140  0.547680  1.0
  C  C612  1  0.855540  0.691540  0.547680  1.0
  C  C613  1  0.143860  0.644460  0.952320  1.0
  C  C614  1  0.808460  0.807860  0.952320  1.0
  C  C615  1  0.307860  0.643860  0.452320  1.0
  C  C616  1  0.144460  0.308460  0.452320  1.0
  C  C617  1  0.775800  0.413400  0.054600  1.0
  C  C618  1  0.278800  0.141200  0.054600  1.0
  C  C619  1  0.641200  0.275800  0.554600  1.0
  C  C620  1  0.913400  0.778800  0.554600  1.0
  C  C621  1  0.224200  0.586600  0.945400  1.0
  C  C622  1  0.721200  0.858800  0.945400  1.0
  C  C623  1  0.358800  0.724200  0.445400  1.0
  C  C624  1  0.086600  0.221200  0.445400  1.0
  C  C625  1  0.764510  0.419710  0.027220  1.0
  C  C626  1  0.262710  0.107510  0.027220  1.0
  C  C627  1  0.607510  0.264510  0.527220  1.0
  C  C628  1  0.919710  0.762710  0.527220  1.0
  C  C629  1  0.235490  0.580290  0.972780  1.0
  C  C630  1  0.737290  0.892490  0.972780  1.0
  C  C631  1  0.392490  0.735490  0.472780  1.0
  C  C632  1  0.080290  0.237290  0.472780  1.0
  C  C633  1  0.799770  0.393970  0.010340  1.0
  C  C634  1  0.210570  0.116370  0.010340  1.0
  C  C635  1  0.616370  0.299770  0.510340  1.0
  C  C636  1  0.893970  0.710570  0.510340  1.0
  C  C637  1  0.200230  0.606030  0.989660  1.0
  C  C638  1  0.789430  0.883630  0.989660  1.0
  C  C639  1  0.383630  0.700230  0.489660  1.0
  C  C640  1  0.106030  0.289430  0.489660  1.0
  C  C641  1  0.847100  0.360600  0.020600  1.0
  C  C642  1  0.173500  0.160000  0.020600  1.0
  C  C643  1  0.660000  0.347100  0.520600  1.0
  C  C644  1  0.860600  0.673500  0.520600  1.0
  C  C645  1  0.152900  0.639400  0.979400  1.0
  C  C646  1  0.826500  0.840000  0.979400  1.0
  C  C647  1  0.340000  0.652900  0.479400  1.0
  C  C648  1  0.139400  0.326500  0.479400  1.0
  C  C649  1  0.736600  0.440700  0.074200  1.0
  C  C650  1  0.337600  0.133500  0.074200  1.0
  C  C651  1  0.633500  0.236600  0.574200  1.0
  C  C652  1  0.940700  0.837600  0.574200  1.0
  C  C653  1  0.263400  0.559300  0.925800  1.0
  C  C654  1  0.662400  0.866500  0.925800  1.0
  C  C655  1  0.366500  0.763400  0.425800  1.0
  C  C656  1  0.059300  0.162400  0.425800  1.0
  C  C657  1  0.993040  0.241940  0.169480  1.0
  C  C658  1  0.176440  0.427540  0.169480  1.0
  C  C659  1  0.927540  0.493040  0.669480  1.0
  C  C660  1  0.741940  0.676440  0.669480  1.0
  C  C661  1  0.006960  0.758060  0.830520  1.0
  C  C662  1  0.823560  0.572460  0.830520  1.0
  C  C663  1  0.072460  0.506960  0.330520  1.0
  C  C664  1  0.258060  0.323560  0.330520  1.0
  C  C665  1  0.991360  0.184560  0.177920  1.0
  C  C666  1  0.186560  0.493360  0.177920  1.0
  C  C667  1  0.993360  0.491360  0.677920  1.0
  C  C668  1  0.684560  0.686560  0.677920  1.0
  C  C669  1  0.008640  0.815440  0.822080  1.0
  C  C670  1  0.813440  0.506640  0.822080  1.0
  C  C671  1  0.006640  0.508640  0.322080  1.0
  C  C672  1  0.315440  0.313440  0.322080  1.0
  C  C673  1  0.991070  0.183370  0.204740  1.0
  C  C674  1  0.213670  0.521370  0.204740  1.0
  C  C675  1  0.021370  0.491070  0.704740  1.0
  C  C676  1  0.683370  0.713670  0.704740  1.0
  C  C677  1  0.008930  0.816630  0.795260  1.0
  C  C678  1  0.786330  0.478630  0.795260  1.0
  C  C679  1  0.978630  0.508930  0.295260  1.0
  C  C680  1  0.316630  0.286330  0.295260  1.0
  C  C681  1  0.994410  0.238510  0.224820  1.0
  C  C682  1  0.230410  0.486310  0.224820  1.0
  C  C683  1  0.986310  0.494410  0.724820  1.0
  C  C684  1  0.738510  0.730410  0.724820  1.0
  C  C685  1  0.005590  0.761490  0.775180  1.0
  C  C686  1  0.769590  0.513690  0.775180  1.0
  C  C687  1  0.013690  0.505590  0.275180  1.0
  C  C688  1  0.261490  0.269590  0.275180  1.0
  C  C689  1  0.995260  0.293260  0.217920  1.0
  C  C690  1  0.222660  0.424660  0.217920  1.0
  C  C691  1  0.924660  0.495260  0.717920  1.0
  C  C692  1  0.793260  0.722660  0.717920  1.0
  C  C693  1  0.004740  0.706740  0.782080  1.0
  C  C694  1  0.777340  0.575340  0.782080  1.0
  C  C695  1  0.075340  0.504740  0.282080  1.0
  C  C696  1  0.206740  0.277340  0.282080  1.0
  C  C697  1  0.994170  0.292370  0.188740  1.0
  C  C698  1  0.194570  0.396370  0.188740  1.0
  C  C699  1  0.896370  0.494170  0.688740  1.0
  C  C700  1  0.792370  0.694570  0.688740  1.0
  C  C701  1  0.005830  0.707630  0.811260  1.0
  C  C702  1  0.805430  0.603630  0.811260  1.0
  C  C703  1  0.103630  0.505830  0.311260  1.0
  C  C704  1  0.207630  0.305430  0.311260  1.0
  C  C705  1  0.995350  0.237650  0.253700  1.0
  C  C706  1  0.258350  0.516050  0.253700  1.0
  C  C707  1  0.016050  0.495350  0.753700  1.0
  C  C708  1  0.737650  0.758350  0.753700  1.0
  C  C709  1  0.004650  0.762350  0.746300  1.0
  C  C710  1  0.741650  0.483950  0.746300  1.0
  C  C711  1  0.983950  0.504650  0.246300  1.0
  C  C712  1  0.262350  0.241650  0.246300  1.0
  C  C713  1  0.998380  0.289780  0.272760  1.0
  C  C714  1  0.274380  0.482980  0.272760  1.0
  C  C715  1  0.982980  0.498380  0.772760  1.0
  C  C716  1  0.789780  0.774380  0.772760  1.0
  C  C717  1  0.001620  0.710220  0.727240  1.0
  C  C718  1  0.725620  0.517020  0.727240  1.0
  C  C719  1  0.017020  0.501620  0.227240  1.0
  C  C720  1  0.210220  0.225620  0.227240  1.0
  C  C721  1  0.000760  0.345660  0.264320  1.0
  C  C722  1  0.263560  0.418660  0.264320  1.0
  C  C723  1  0.918660  0.500760  0.764320  1.0
  C  C724  1  0.845660  0.763560  0.764320  1.0
  C  C725  1  0.999240  0.654340  0.735680  1.0
  C  C726  1  0.736440  0.581340  0.735680  1.0
  C  C727  1  0.081340  0.499240  0.235680  1.0
  C  C728  1  0.154340  0.236440  0.235680  1.0
  C  C729  1  0.001110  0.346310  0.237820  1.0
  C  C730  1  0.236710  0.391510  0.237820  1.0
  C  C731  1  0.891510  0.501110  0.737820  1.0
  C  C732  1  0.846310  0.736710  0.737820  1.0
  C  C733  1  0.998890  0.653690  0.762180  1.0
  C  C734  1  0.763290  0.608490  0.762180  1.0
  C  C735  1  0.108490  0.498890  0.262180  1.0
  C  C736  1  0.153690  0.263290  0.262180  1.0
  C  C737  1  0.003730  0.290830  0.302860  1.0
  C  C738  1  0.299130  0.512030  0.302860  1.0
  C  C739  1  0.012030  0.503730  0.802860  1.0
  C  C740  1  0.790830  0.799130  0.802860  1.0
  C  C741  1  0.996270  0.709170  0.697140  1.0
  C  C742  1  0.700870  0.487970  0.697140  1.0
  C  C743  1  0.987970  0.496270  0.197140  1.0
  C  C744  1  0.209170  0.200870  0.197140  1.0
  C  C745  1  0.041040  0.253340  0.315680  1.0
  C  C746  1  0.274640  0.562340  0.315680  1.0
  C  C747  1  0.062340  0.541040  0.815680  1.0
  C  C748  1  0.753340  0.774640  0.815680  1.0
  C  C749  1  0.958960  0.746660  0.684320  1.0
  C  C750  1  0.725360  0.437660  0.684320  1.0
  C  C751  1  0.937660  0.458960  0.184320  1.0
  C  C752  1  0.246660  0.225360  0.184320  1.0
  C  C753  1  0.048880  0.256380  0.344360  1.0
  C  C754  1  0.295480  0.587980  0.344360  1.0
  C  C755  1  0.087980  0.548880  0.844360  1.0
  C  C756  1  0.756380  0.795480  0.844360  1.0
  C  C757  1  0.951120  0.743620  0.655640  1.0
  C  C758  1  0.704520  0.412020  0.655640  1.0
  C  C759  1  0.912020  0.451120  0.155640  1.0
  C  C760  1  0.243620  0.204520  0.155640  1.0
  C  C761  1  0.018890  0.298190  0.359780  1.0
  C  C762  1  0.340890  0.561590  0.359780  1.0
  C  C763  1  0.061590  0.518890  0.859780  1.0
  C  C764  1  0.798190  0.840890  0.859780  1.0
  C  C765  1  0.981110  0.701810  0.640220  1.0
  C  C766  1  0.659110  0.438410  0.640220  1.0
  C  C767  1  0.938410  0.481110  0.140220  1.0
  C  C768  1  0.201810  0.159110  0.140220  1.0
  C  C769  1  0.978250  0.335150  0.346500  1.0
  C  C770  1  0.368250  0.511350  0.346500  1.0
  C  C771  1  0.011350  0.478250  0.846500  1.0
  C  C772  1  0.835150  0.868250  0.846500  1.0
  C  C773  1  0.021750  0.664850  0.653500  1.0
  C  C774  1  0.631750  0.488650  0.653500  1.0
  C  C775  1  0.988650  0.521750  0.153500  1.0
  C  C776  1  0.164850  0.131750  0.153500  1.0
  C  C777  1  0.972110  0.332510  0.318420  1.0
  C  C778  1  0.346310  0.485910  0.318420  1.0
  C  C779  1  0.985910  0.472110  0.818420  1.0
  C  C780  1  0.832510  0.846310  0.818420  1.0
  C  C781  1  0.027890  0.667490  0.681580  1.0
  C  C782  1  0.653690  0.514090  0.681580  1.0
  C  C783  1  0.014090  0.527890  0.181580  1.0
  C  C784  1  0.167490  0.153690  0.181580  1.0
  C  C785  1  0.097590  0.166390  0.345380  1.0
  C  C786  1  0.247790  0.678990  0.345380  1.0
  C  C787  1  0.178990  0.597590  0.845380  1.0
  C  C788  1  0.666390  0.747790  0.845380  1.0
  C  C789  1  0.902410  0.833610  0.654620  1.0
  C  C790  1  0.752210  0.321010  0.654620  1.0
  C  C791  1  0.821010  0.402410  0.154620  1.0
  C  C792  1  0.333610  0.252210  0.154620  1.0
  C  C793  1  0.139700  0.130400  0.359800  1.0
  C  C794  1  0.220100  0.729400  0.359800  1.0
  C  C795  1  0.229400  0.639700  0.859800  1.0
  C  C796  1  0.630400  0.720100  0.859800  1.0
  C  C797  1  0.860300  0.869600  0.640200  1.0
  C  C798  1  0.779900  0.270600  0.640200  1.0
  C  C799  1  0.770600  0.360300  0.140200  1.0
  C  C800  1  0.369600  0.279900  0.140200  1.0
  C  C801  1  0.211880  0.130580  0.400160  1.0
  C  C802  1  0.188280  0.769580  0.400160  1.0
  C  C803  1  0.269580  0.711880  0.900160  1.0
  C  C804  1  0.630580  0.688280  0.900160  1.0
  C  C805  1  0.788120  0.869420  0.599840  1.0
  C  C806  1  0.811720  0.230420  0.599840  1.0
  C  C807  1  0.730420  0.288120  0.099840  1.0
  C  C808  1  0.369420  0.311720  0.099840  1.0
  C  C809  1  0.225420  0.071120  0.389040  1.0
  C  C810  1  0.163620  0.817920  0.389040  1.0
  C  C811  1  0.317920  0.725420  0.889040  1.0
  C  C812  1  0.571120  0.663620  0.889040  1.0
  C  C813  1  0.774580  0.928880  0.610960  1.0
  C  C814  1  0.836380  0.182080  0.610960  1.0
  C  C815  1  0.682080  0.274580  0.110960  1.0
  C  C816  1  0.428880  0.336380  0.110960  1.0
  C  C817  1  0.192660  0.041060  0.361920  1.0
  C  C818  1  0.169260  0.820860  0.361920  1.0
  C  C819  1  0.320860  0.692660  0.861920  1.0
  C  C820  1  0.541060  0.669260  0.861920  1.0
  C  C821  1  0.807340  0.958940  0.638080  1.0
  C  C822  1  0.830740  0.179140  0.638080  1.0
  C  C823  1  0.679140  0.307340  0.138080  1.0
  C  C824  1  0.458940  0.330740  0.138080  1.0
  C  C825  1  0.149210  0.071910  0.347420  1.0
  C  C826  1  0.198210  0.775510  0.347420  1.0
  C  C827  1  0.275510  0.649210  0.847420  1.0
  C  C828  1  0.571910  0.698210  0.847420  1.0
  C  C829  1  0.850790  0.928090  0.652580  1.0
  C  C830  1  0.801790  0.224490  0.652580  1.0
  C  C831  1  0.724490  0.350790  0.152580  1.0
  C  C832  1  0.428090  0.301790  0.152580  1.0
  C  C833  1  0.243840  0.160040  0.429080  1.0
  C  C834  1  0.185240  0.769040  0.429080  1.0
  C  C835  1  0.269040  0.743840  0.929080  1.0
  C  C836  1  0.660040  0.685240  0.929080  1.0
  C  C837  1  0.756160  0.839960  0.570920  1.0
  C  C838  1  0.814760  0.230960  0.570920  1.0
  C  C839  1  0.730960  0.256160  0.070920  1.0
  C  C840  1  0.339960  0.314760  0.070920  1.0
  C  C841  1  0.891200  0.385300  0.351600  1.0
  C  C842  1  0.460400  0.466300  0.351600  1.0
  C  C843  1  0.966300  0.391200  0.851600  1.0
  C  C844  1  0.885300  0.960400  0.851600  1.0
  C  C845  1  0.108800  0.614700  0.648400  1.0
  C  C846  1  0.539600  0.533700  0.648400  1.0
  C  C847  1  0.033700  0.608800  0.148400  1.0
  C  C848  1  0.114700  0.039600  0.148400  1.0
  C  C849  1  0.857820  0.427520  0.367840  1.0
  C  C850  1  0.510020  0.440320  0.367840  1.0
  C  C851  1  0.940320  0.357820  0.867840  1.0
  C  C852  1  0.927520  0.010020  0.867840  1.0
  C  C853  1  0.142180  0.572480  0.632160  1.0
  C  C854  1  0.489980  0.559680  0.632160  1.0
  C  C855  1  0.059680  0.642180  0.132160  1.0
  C  C856  1  0.072480  0.989980  0.132160  1.0
  C  C857  1  0.860160  0.493260  0.410320  1.0
  C  C858  1  0.550160  0.417060  0.410320  1.0
  C  C859  1  0.917060  0.360160  0.910320  1.0
  C  C860  1  0.993260  0.050160  0.910320  1.0
  C  C861  1  0.139840  0.506740  0.589680  1.0
  C  C862  1  0.449840  0.582940  0.589680  1.0
  C  C863  1  0.082940  0.639840  0.089680  1.0
  C  C864  1  0.006740  0.949840  0.089680  1.0
  C  C865  1  0.799740  0.501140  0.401680  1.0
  C  C866  1  0.601940  0.400540  0.401680  1.0
  C  C867  1  0.900540  0.299740  0.901680  1.0
  C  C868  1  0.001140  0.101940  0.901680  1.0
  C  C869  1  0.200260  0.498860  0.598320  1.0
  C  C870  1  0.398060  0.599460  0.598320  1.0
  C  C871  1  0.099460  0.700260  0.098320  1.0
  C  C872  1  0.998860  0.898060  0.098320  1.0
  C  C873  1  0.767850  0.471950  0.375900  1.0
  C  C874  1  0.608050  0.403950  0.375900  1.0
  C  C875  1  0.903950  0.267850  0.875900  1.0
  C  C876  1  0.971950  0.108050  0.875900  1.0
  C  C877  1  0.232150  0.528050  0.624100  1.0
  C  C878  1  0.391950  0.596050  0.624100  1.0
  C  C879  1  0.096050  0.732150  0.124100  1.0
  C  C880  1  0.028050  0.891950  0.124100  1.0
  C  C881  1  0.796960  0.433660  0.358320  1.0
  C  C882  1  0.561360  0.424660  0.358320  1.0
  C  C883  1  0.924660  0.296960  0.858320  1.0
  C  C884  1  0.933660  0.061360  0.858320  1.0
  C  C885  1  0.203040  0.566340  0.641680  1.0
  C  C886  1  0.438640  0.575340  0.641680  1.0
  C  C887  1  0.075340  0.703040  0.141680  1.0
  C  C888  1  0.066340  0.938640  0.141680  1.0
  C  C889  1  0.896390  0.524790  0.438780  1.0
  C  C890  1  0.542390  0.413990  0.438780  1.0
  C  C891  1  0.913990  0.396390  0.938780  1.0
  C  C892  1  0.024790  0.042390  0.938780  1.0
  C  C893  1  0.103610  0.475210  0.561220  1.0
  C  C894  1  0.457610  0.586010  0.561220  1.0
  C  C895  1  0.086010  0.603610  0.061220  1.0
  C  C896  1  0.975210  0.957610  0.061220  1.0
  Cu  Cu897  1  0.650374  0.638284  0.094728  1.0
  Cu  Cu898  1  0.444354  0.956444  0.094728  1.0
  Cu  Cu899  1  0.456444  0.150374  0.594728  1.0
  Cu  Cu900  1  0.138284  0.944354  0.594728  1.0
  Cu  Cu901  1  0.349626  0.361716  0.905272  1.0
  Cu  Cu902  1  0.555646  0.043556  0.905272  1.0
  Cu  Cu903  1  0.543556  0.849626  0.405272  1.0
  Cu  Cu904  1  0.861716  0.055646  0.405272  1.0
  Cu  Cu905  1  0.793710  0.829720  0.108340  1.0
  Cu  Cu906  1  0.314630  0.778620  0.108340  1.0
  Cu  Cu907  1  0.278620  0.293710  0.608340  1.0
  Cu  Cu908  1  0.329720  0.814630  0.608340  1.0
  Cu  Cu909  1  0.206290  0.170280  0.891660  1.0
  Cu  Cu910  1  0.685370  0.221380  0.891660  1.0
  Cu  Cu911  1  0.721380  0.706290  0.391660  1.0
  Cu  Cu912  1  0.670280  0.185370  0.391660  1.0
  Cu  Cu913  1  0.076669  0.072829  0.097818  1.0
  Cu  Cu914  1  0.021149  0.524989  0.097818  1.0
  Cu  Cu915  1  0.024989  0.576669  0.597818  1.0
  Cu  Cu916  1  0.572829  0.521149  0.597818  1.0
  Cu  Cu917  1  0.923331  0.927171  0.902182  1.0
  Cu  Cu918  1  0.978851  0.475011  0.902182  1.0
  Cu  Cu919  1  0.975011  0.423331  0.402182  1.0
  Cu  Cu920  1  0.427171  0.478851  0.402182  1.0
  Cu  Cu921  1  0.843210  0.360600  0.102160  1.0
  Cu  Cu922  1  0.258950  0.241560  0.102160  1.0
  Cu  Cu923  1  0.741560  0.343210  0.602160  1.0
  Cu  Cu924  1  0.860600  0.758950  0.602160  1.0
  Cu  Cu925  1  0.156790  0.639400  0.897840  1.0
  Cu  Cu926  1  0.741050  0.758440  0.897840  1.0
  Cu  Cu927  1  0.258440  0.656790  0.397840  1.0
  Cu  Cu928  1  0.139400  0.241050  0.397840  1.0
  F  F929  1  0.388900  0.189400  0.024600  1
  F  F930  1  0.635700  0.335200  0.024600  1
  F  F931  1  0.835200  0.888900  0.524600  1
  F  F932  1  0.689400  0.135700  0.524600  1
  F  F933  1  0.611100  0.810600  0.975400  1
  F  F934  1  0.364300  0.664800  0.975400  1
  F  F935  1  0.164800  0.111100  0.475400  1
  F  F936  1  0.310600  0.864300  0.475400  1
  F  F937  1  0.434600  0.098900  0.978200  1
  F  F938  1  0.543600  0.379300  0.978200  1
  F  F939  1  0.879300  0.934600  0.478200  1
  F  F940  1  0.598900  0.043600  0.478200  1
  F  F941  1  0.565400  0.901100  0.021800  1
  F  F942  1  0.456400  0.620700  0.021800  1
  F  F943  1  0.120700  0.065400  0.521800  1
  F  F944  1  0.401100  0.956400  0.521800  1
  F  F945  1  0.478100  0.152100  0.020400  1
  F  F946  1  0.542300  0.368300  0.020400  1
  F  F947  1  0.868300  0.978100  0.520400  1
  F  F948  1  0.652100  0.042300  0.520400  1
  F  F949  1  0.521900  0.847900  0.979600  1
  F  F950  1  0.457700  0.631700  0.979600  1
  F  F951  1  0.131700  0.021900  0.479600  1
  F  F952  1  0.347900  0.957700  0.479600  1
  F  F953  1  0.397920  0.090420  0.015040  1
  F  F954  1  0.617120  0.424620  0.015040  1
  F  F955  1  0.924620  0.897920  0.515040  1
  F  F956  1  0.590420  0.117120  0.515040  1
  F  F957  1  0.602080  0.909580  0.984960  1
  F  F958  1  0.382880  0.575380  0.984960  1
  F  F959  1  0.075380  0.102080  0.484960  1
  F  F960  1  0.409580  0.882880  0.484960  1
  F  F961  1  0.347770  0.134570  0.982140  1
  F  F962  1  0.634370  0.347570  0.982140  1
  F  F963  1  0.847570  0.847770  0.482140  1
  F  F964  1  0.634570  0.134370  0.482140  1
  F  F965  1  0.652230  0.865430  0.017860  1
  F  F966  1  0.365630  0.652430  0.017860  1
  F  F967  1  0.152430  0.152230  0.517860  1
  F  F968  1  0.365430  0.865630  0.517860  1
  F  F969  1  0.426910  0.198510  0.988220  1
  F  F970  1  0.561310  0.289710  0.988220  1
  F  F971  1  0.789710  0.926910  0.488220  1
  F  F972  1  0.698510  0.061310  0.488220  1
  F  F973  1  0.573090  0.801490  0.011780  1
  F  F974  1  0.438690  0.710290  0.011780  1
  F  F975  1  0.210290  0.073090  0.511780  1
  F  F976  1  0.301490  0.938690  0.511780  1
  F  F977  1  0.395910  0.243410  0.221620  1
  F  F978  1  0.825710  0.478210  0.221620  1
  F  F979  1  0.978210  0.895910  0.721620  1
  F  F980  1  0.743410  0.325710  0.721620  1
  F  F981  1  0.604090  0.756590  0.778380  1
  F  F982  1  0.174290  0.521790  0.778380  1
  F  F983  1  0.021790  0.104090  0.278380  1
  F  F984  1  0.256590  0.674290  0.278380  1
  F  F985  1  0.399620  0.163420  0.187840  1
  F  F986  1  0.788220  0.524420  0.187840  1
  F  F987  1  0.024420  0.899620  0.687840  1
  F  F988  1  0.663420  0.288220  0.687840  1
  F  F989  1  0.600380  0.836580  0.812160  1
  F  F990  1  0.211780  0.475580  0.812160  1
  F  F991  1  0.975580  0.100380  0.312160  1
  F  F992  1  0.336580  0.711780  0.312160  1
  F  F993  1  0.475750  0.133950  0.213100  1
  F  F994  1  0.737350  0.579150  0.213100  1
  F  F995  1  0.079150  0.975750  0.713100  1
  F  F996  1  0.633950  0.237350  0.713100  1
  F  F997  1  0.524250  0.866050  0.786900  1
  F  F998  1  0.262650  0.420850  0.786900  1
  F  F999  1  0.920850  0.024250  0.286900  1
  F  F1000  1  0.366050  0.762650  0.286900  1
  F  F1001  1  0.475480  0.223780  0.206360  1
  F  F1002  1  0.730880  0.482580  0.206360  1
  F  F1003  1  0.982580  0.975480  0.706360  1
  F  F1004  1  0.723780  0.230880  0.706360  1
  F  F1005  1  0.524520  0.776220  0.793640  1
  F  F1006  1  0.269120  0.517420  0.793640  1
  F  F1007  1  0.017420  0.024520  0.293640  1
  F  F1008  1  0.276220  0.769120  0.293640  1
  F  F1009  1  0.474550  0.209850  0.247700  1
  F  F1010  1  0.773150  0.537850  0.247700  1
  F  F1011  1  0.037850  0.974550  0.747700  1
  F  F1012  1  0.709850  0.273150  0.747700  1
  F  F1013  1  0.525450  0.790150  0.752300  1
  F  F1014  1  0.226850  0.462150  0.752300  1
  F  F1015  1  0.962150  0.025450  0.252300  1
  F  F1016  1  0.290150  0.726850  0.252300  1
  F  F1017  1  0.395590  0.151990  0.229580  1
  F  F1018  1  0.833990  0.577590  0.229580  1
  F  F1019  1  0.077590  0.895590  0.729580  1
  F  F1020  1  0.651990  0.333990  0.729580  1
  F  F1021  1  0.604410  0.848010  0.770420  1
  F  F1022  1  0.166010  0.422410  0.770420  1
  F  F1023  1  0.922410  0.104410  0.270420  1
  F  F1024  1  0.348010  0.666010  0.270420  1
  F  F1025  1  0.854970  0.169670  0.072940  1
  F  F1026  1  0.217970  0.403270  0.072940  1
  F  F1027  1  0.903270  0.354970  0.572940  1
  F  F1028  1  0.669670  0.717970  0.572940  1
  F  F1029  1  0.145030  0.830330  0.927060  1
  F  F1030  1  0.782030  0.596730  0.927060  1
  F  F1031  1  0.096730  0.645030  0.427060  1
  F  F1032  1  0.330330  0.282030  0.427060  1
  F  F1033  1  0.822920  0.038420  0.035040  1
  F  F1034  1  0.212120  0.496620  0.035040  1
  F  F1035  1  0.996620  0.322920  0.535040  1
  F  F1036  1  0.538420  0.712120  0.535040  1
  F  F1037  1  0.177080  0.961580  0.964960  1
  F  F1038  1  0.787880  0.503380  0.964960  1
  F  F1039  1  0.003380  0.677080  0.464960  1
  F  F1040  1  0.461580  0.287880  0.464960  1
  F  F1041  1  0.805120  0.076520  0.076440  1
  F  F1042  1  0.271320  0.499920  0.076440  1
  F  F1043  1  0.999920  0.305120  0.576440  1
  F  F1044  1  0.576520  0.771320  0.576440  1
  F  F1045  1  0.194880  0.923480  0.923560  1
  F  F1046  1  0.728680  0.500080  0.923560  1
  F  F1047  1  0.000080  0.694880  0.423560  1
  F  F1048  1  0.423480  0.228680  0.423560  1
  F  F1049  1  0.776010  0.125910  0.042420  1
  F  F1050  1  0.266410  0.416510  0.042420  1
  F  F1051  1  0.916510  0.276010  0.542420  1
  F  F1052  1  0.625910  0.766410  0.542420  1
  F  F1053  1  0.223990  0.874090  0.957580  1
  F  F1054  1  0.733590  0.583490  0.957580  1
  F  F1055  1  0.083490  0.723990  0.457580  1
  F  F1056  1  0.374090  0.233590  0.457580  1
  F  F1057  1  0.868860  0.124860  0.034720  1
  F  F1058  1  0.165860  0.409860  0.034720  1
  F  F1059  1  0.909860  0.368860  0.534720  1
  F  F1060  1  0.624860  0.665860  0.534720  1
  F  F1061  1  0.131140  0.875140  0.965280  1
  F  F1062  1  0.834140  0.590140  0.965280  1
  F  F1063  1  0.090140  0.631140  0.465280  1
  F  F1064  1  0.375140  0.334140  0.465280  1
  F  F1065  1  0.897490  0.074790  0.068380  1
  F  F1066  1  0.170890  0.493590  0.068380  1
  F  F1067  1  0.993590  0.397490  0.568380  1
  F  F1068  1  0.574790  0.670890  0.568380  1
  F  F1069  1  0.102510  0.925210  0.931620  1
  F  F1070  1  0.829110  0.506410  0.931620  1
  F  F1071  1  0.006410  0.602510  0.431620  1
  F  F1072  1  0.425210  0.329110  0.431620  1
  F  F1073  1  0.989220  0.739220  0.978440  1
  F  F1074  1  0.239220  0.489220  0.478440  1
  F  F1075  1  0.010780  0.260780  0.021560  1
  F  F1076  1  0.760780  0.510780  0.521560  1
  F  F1077  1  0.021930  0.771930  0.043860  1
  F  F1078  1  0.271930  0.521930  0.543860  1
  F  F1079  1  0.978070  0.228070  0.956140  1
  F  F1080  1  0.728070  0.478070  0.456140  1
  F  F1081  1  0.975670  0.865670  0.205740  1
  F  F1082  1  0.230070  0.840070  0.205740  1
  F  F1083  1  0.340070  0.475670  0.705740  1
  F  F1084  1  0.365670  0.730070  0.705740  1
  F  F1085  1  0.024330  0.134330  0.794260  1
  F  F1086  1  0.769930  0.159930  0.794260  1
  F  F1087  1  0.659930  0.524330  0.294260  1
  F  F1088  1  0.634330  0.269930  0.294260  1
  F  F1089  1  0.035320  0.819820  0.232240  1
  F  F1090  1  0.196920  0.912420  0.232240  1
  F  F1091  1  0.412420  0.535320  0.732240  1
  F  F1092  1  0.319820  0.696920  0.732240  1
  F  F1093  1  0.964680  0.180180  0.767760  1
  F  F1094  1  0.803080  0.087580  0.767760  1
  F  F1095  1  0.587580  0.464680  0.267760  1
  F  F1096  1  0.680180  0.303080  0.267760  1
  F  F1097  1  0.016860  0.732960  0.198120  1
  F  F1098  1  0.181260  0.965160  0.198120  1
  F  F1099  1  0.465160  0.516860  0.698120  1
  F  F1100  1  0.232960  0.681260  0.698120  1
  F  F1101  1  0.983140  0.267040  0.801880  1
  F  F1102  1  0.818740  0.034840  0.801880  1
  F  F1103  1  0.534840  0.483140  0.301880  1
  F  F1104  1  0.767040  0.318740  0.301880  1
  F  F1105  1  0.955790  0.783790  0.171180  1
  F  F1106  1  0.215390  0.887390  0.171180  1
  F  F1107  1  0.387390  0.455790  0.671180  1
  F  F1108  1  0.283790  0.715390  0.671180  1
  F  F1109  1  0.044210  0.216210  0.828820  1
  F  F1110  1  0.784610  0.112610  0.828820  1
  F  F1111  1  0.612610  0.544210  0.328820  1
  F  F1112  1  0.716210  0.284610  0.328820  1
  F  F1113  1  0.940880  0.780780  0.213360  1
  F  F1114  1  0.272480  0.932580  0.213360  1
  F  F1115  1  0.432580  0.440880  0.713360  1
  F  F1116  1  0.280780  0.772480  0.713360  1
  F  F1117  1  0.059120  0.219220  0.786640  1
  F  F1118  1  0.727520  0.067420  0.786640  1
  F  F1119  1  0.567420  0.559120  0.286640  1
  F  F1120  1  0.719220  0.227520  0.286640  1
  F  F1121  1  0.051500  0.817600  0.189800  1
  F  F1122  1  0.138300  0.872200  0.189800  1
  F  F1123  1  0.372200  0.551500  0.689800  1
  F  F1124  1  0.317600  0.638300  0.689800  1
  F  F1125  1  0.948500  0.182400  0.810200  1
  F  F1126  1  0.861700  0.127800  0.810200  1
  F  F1127  1  0.627800  0.448500  0.310200  1
  F  F1128  1  0.682400  0.361700  0.310200  1
  F  F1129  1  0.814760  0.121960  0.021720  1
  F  F1130  1  0.206960  0.399760  0.021720  1
  F  F1131  1  0.899760  0.314760  0.521720  1
  F  F1132  1  0.621960  0.706960  0.521720  1
  F  F1133  1  0.185240  0.878040  0.978280  1
  F  F1134  1  0.793040  0.600240  0.978280  1
  F  F1135  1  0.100240  0.685240  0.478280  1
  F  F1136  1  0.378040  0.293040  0.478280  1
  F  F1137  1  0.779230  0.109130  0.057660  1
  F  F1138  1  0.278430  0.448530  0.057660  1
  F  F1139  1  0.948530  0.279230  0.557660  1
  F  F1140  1  0.609130  0.778430  0.557660  1
  F  F1141  1  0.220770  0.890870  0.942340  1
  F  F1142  1  0.721570  0.551470  0.942340  1
  F  F1143  1  0.051470  0.720770  0.442340  1
  F  F1144  1  0.390870  0.221570  0.442340  1
  F  F1145  1  0.871230  0.091830  0.079660  1
  F  F1146  1  0.208430  0.487830  0.079660  1
  F  F1147  1  0.987830  0.371230  0.579660  1
  F  F1148  1  0.591830  0.708430  0.579660  1
  F  F1149  1  0.128770  0.908170  0.920340  1
  F  F1150  1  0.791570  0.512170  0.920340  1
  F  F1151  1  0.012170  0.628770  0.420340  1
  F  F1152  1  0.408170  0.291570  0.420340  1
  F  F1153  1  0.906590  0.105490  0.043780  1
  F  F1154  1  0.137190  0.438290  0.043780  1
  F  F1155  1  0.938290  0.406590  0.543780  1
  F  F1156  1  0.605490  0.637190  0.543780  1
  F  F1157  1  0.093410  0.894510  0.956220  1
  F  F1158  1  0.862810  0.561710  0.956220  1
  F  F1159  1  0.061710  0.593410  0.456220  1
  F  F1160  1  0.394510  0.362810  0.456220  1
  F  F1161  1  0.973580  0.693980  0.010760  1.0
  F  F1162  1  0.037180  0.816780  0.010760  1.0
  F  F1163  1  0.316780  0.473580  0.510760  1.0
  F  F1164  1  0.193980  0.537180  0.510760  1.0
  F  F1165  1  0.026420  0.306020  0.989240  1.0
  F  F1166  1  0.962820  0.183220  0.989240  1.0
  F  F1167  1  0.683220  0.526420  0.489240  1.0
  F  F1168  1  0.806020  0.462820  0.489240  1.0
  F  F1169  1  0.066420  0.723720  0.012040  1.0
  F  F1170  1  0.945620  0.788320  0.012040  1.0
  F  F1171  1  0.288320  0.566420  0.512040  1.0
  F  F1172  1  0.223720  0.445620  0.512040  1.0
  F  F1173  1  0.933580  0.276280  0.987960  1.0
  F  F1174  1  0.054380  0.211680  0.987960  1.0
  F  F1175  1  0.711680  0.433580  0.487960  1.0
  F  F1176  1  0.776280  0.554380  0.487960  1.0
  H  H1177  1  0.772300  0.368200  0.235800  1
  H  H1178  1  0.463500  0.367600  0.235800  1
  H  H1179  1  0.867600  0.272300  0.735800  1
  H  H1180  1  0.868200  0.963500  0.735800  1
  H  H1181  1  0.227700  0.631800  0.764200  1
  H  H1182  1  0.536500  0.632400  0.764200  1
  H  H1183  1  0.132400  0.727700  0.264200  1
  H  H1184  1  0.131800  0.036500  0.264200  1
  H  H1185  1  0.814200  0.323300  0.250600  1
  H  H1186  1  0.436400  0.427300  0.250600  1
  H  H1187  1  0.927300  0.314200  0.750600  1
  H  H1188  1  0.823300  0.936400  0.750600  1
  H  H1189  1  0.185800  0.676700  0.749400  1
  H  H1190  1  0.563600  0.572700  0.749400  1
  H  H1191  1  0.072700  0.685800  0.249400  1
  H  H1192  1  0.176700  0.063600  0.249400  1
  H  H1193  1  0.843400  0.372400  0.238800  1
  H  H1194  1  0.395400  0.366400  0.238800  1
  H  H1195  1  0.866400  0.343400  0.738800  1
  H  H1196  1  0.872400  0.895400  0.738800  1
  H  H1197  1  0.156600  0.627600  0.761200  1
  H  H1198  1  0.604600  0.633600  0.761200  1
  H  H1199  1  0.133600  0.656600  0.261200  1
  H  H1200  1  0.127600  0.104600  0.261200  1
  H  H1201  1  0.859100  0.892800  0.293800  1
  H  H1202  1  0.434700  0.901000  0.293800  1
  H  H1203  1  0.401000  0.359100  0.793800  1
  H  H1204  1  0.392800  0.934700  0.793800  1
  H  H1205  1  0.140900  0.107200  0.706200  1
  H  H1206  1  0.565300  0.099000  0.706200  1
  H  H1207  1  0.599000  0.640900  0.206200  1
  H  H1208  1  0.607200  0.065300  0.206200  1
  H  H1209  1  0.904900  0.949400  0.299400  1
  H  H1210  1  0.394500  0.850000  0.299400  1
  H  H1211  1  0.350000  0.404900  0.799400  1
  H  H1212  1  0.449400  0.894500  0.799400  1
  H  H1213  1  0.095100  0.050600  0.700600  1
  H  H1214  1  0.605500  0.150000  0.700600  1
  H  H1215  1  0.650000  0.595100  0.200600  1
  H  H1216  1  0.550600  0.105500  0.200600  1
  H  H1217  1  0.929800  0.886000  0.303600  1
  H  H1218  1  0.373800  0.917600  0.303600  1
  H  H1219  1  0.417600  0.429800  0.803600  1
  H  H1220  1  0.386000  0.873800  0.803600  1
  H  H1221  1  0.070200  0.114000  0.696400  1
  H  H1222  1  0.626200  0.082400  0.696400  1
  H  H1223  1  0.582400  0.570200  0.196400  1
  H  H1224  1  0.614000  0.126200  0.196400  1
  H  H1225  1  0.288000  0.983800  0.119000  1
  H  H1226  1  0.831000  0.635200  0.119000  1
  H  H1227  1  0.135200  0.788000  0.619000  1
  H  H1228  1  0.483800  0.331000  0.619000  1
  H  H1229  1  0.712000  0.016200  0.881000  1
  H  H1230  1  0.169000  0.364800  0.881000  1
  H  H1231  1  0.864800  0.212000  0.381000  1
  H  H1232  1  0.516200  0.669000  0.381000  1
  H  H1233  1  0.305200  0.054400  0.126800  1
  H  H1234  1  0.821600  0.572400  0.126800  1
  H  H1235  1  0.072400  0.805200  0.626800  1
  H  H1236  1  0.554400  0.321600  0.626800  1
  H  H1237  1  0.694800  0.945600  0.873200  1
  H  H1238  1  0.178400  0.427600  0.873200  1
  H  H1239  1  0.927600  0.194800  0.373200  1
  H  H1240  1  0.445600  0.678400  0.373200  1
  H  H1241  1  0.236200  0.030800  0.118200  1
  H  H1242  1  0.882000  0.587400  0.118200  1
  H  H1243  1  0.087400  0.736200  0.618200  1
  H  H1244  1  0.530800  0.382000  0.618200  1
  H  H1245  1  0.763800  0.969200  0.881800  1
  H  H1246  1  0.118000  0.412600  0.881800  1
  H  H1247  1  0.912600  0.263800  0.381800  1
  H  H1248  1  0.469200  0.618000  0.381800  1
  H  H1249  1  0.912300  0.897600  0.360800  1
  H  H1250  1  0.448500  0.963200  0.360800  1
  H  H1251  1  0.463200  0.412300  0.860800  1
  H  H1252  1  0.397600  0.948500  0.860800  1
  H  H1253  1  0.087700  0.102400  0.639200  1
  H  H1254  1  0.551500  0.036800  0.639200  1
  H  H1255  1  0.536800  0.587700  0.139200  1
  H  H1256  1  0.602400  0.051500  0.139200  1
  H  H1257  1  0.953000  0.851900  0.345000  1
  H  H1258  1  0.392000  0.993100  0.345000  1
  H  H1259  1  0.493100  0.453000  0.845000  1
  H  H1260  1  0.351900  0.892000  0.845000  1
  H  H1261  1  0.047000  0.148100  0.655000  1
  H  H1262  1  0.608000  0.006900  0.655000  1
  H  H1263  1  0.506900  0.547000  0.155000  1
  H  H1264  1  0.648100  0.108000  0.155000  1
  H  H1265  1  0.975800  0.881500  0.377800  1
  H  H1266  1  0.402000  0.996300  0.377800  1
  H  H1267  1  0.496300  0.475800  0.877800  1
  H  H1268  1  0.381500  0.902000  0.877800  1
  H  H1269  1  0.024200  0.118500  0.622200  1
  H  H1270  1  0.598000  0.003700  0.622200  1
  H  H1271  1  0.503700  0.524200  0.122200  1
  H  H1272  1  0.618500  0.098000  0.122200  1
  H  H1273  1  0.482000  0.166000  0.452600  1
  H  H1274  1  0.970600  0.786600  0.452600  1
  H  H1275  1  0.286600  0.982000  0.952600  1
  H  H1276  1  0.666000  0.470600  0.952600  1
  H  H1277  1  0.518000  0.834000  0.547400  1
  H  H1278  1  0.029400  0.213400  0.547400  1
  H  H1279  1  0.713400  0.018000  0.047400  1
  H  H1280  1  0.334000  0.529400  0.047400  1
  H  H1281  1  0.514500  0.108700  0.439200  1
  H  H1282  1  0.924700  0.830500  0.439200  1
  H  H1283  1  0.330500  0.014500  0.939200  1
  H  H1284  1  0.608700  0.424700  0.939200  1
  H  H1285  1  0.485500  0.891300  0.560800  1
  H  H1286  1  0.075300  0.169500  0.560800  1
  H  H1287  1  0.669500  0.985500  0.060800  1
  H  H1288  1  0.391300  0.575300  0.060800  1
  H  H1289  1  0.498700  0.113600  0.468800  1
  H  H1290  1  0.970100  0.855200  0.468800  1
  H  H1291  1  0.355200  0.998700  0.968800  1
  H  H1292  1  0.613600  0.470100  0.968800  1
  H  H1293  1  0.501300  0.886400  0.531200  1
  H  H1294  1  0.029900  0.144800  0.531200  1
  H  H1295  1  0.644800  0.001300  0.031200  1
  H  H1296  1  0.386400  0.529900  0.031200  1
  H  H1297  1  0.275400  0.050300  0.450200  1
  H  H1298  1  0.174800  0.899900  0.450200  1
  H  H1299  1  0.399900  0.775400  0.950200  1
  H  H1300  1  0.550300  0.674800  0.950200  1
  H  H1301  1  0.724600  0.949700  0.549800  1
  H  H1302  1  0.825200  0.100100  0.549800  1
  H  H1303  1  0.600100  0.224600  0.049800  1
  H  H1304  1  0.449700  0.325200  0.049800  1
  H  H1305  1  0.276400  0.997300  0.466200  1
  H  H1306  1  0.189800  0.968900  0.466200  1
  H  H1307  1  0.468900  0.776400  0.966200  1
  H  H1308  1  0.497300  0.689800  0.966200  1
  H  H1309  1  0.723600  0.002700  0.533800  1
  H  H1310  1  0.810200  0.031100  0.533800  1
  H  H1311  1  0.531100  0.223600  0.033800  1
  H  H1312  1  0.502700  0.310200  0.033800  1
  H  H1313  1  0.219600  0.038000  0.462800  1
  H  H1314  1  0.243200  0.924800  0.462800  1
  H  H1315  1  0.424800  0.719600  0.962800  1
  H  H1316  1  0.538000  0.743200  0.962800  1
  H  H1317  1  0.780400  0.962000  0.537200  1
  H  H1318  1  0.756800  0.075200  0.537200  1
  H  H1319  1  0.575200  0.280400  0.037200  1
  H  H1320  1  0.462000  0.256800  0.037200  1
  H  H1321  1  0.553000  0.424500  0.073200  1.0
  H  H1322  1  0.520200  0.148700  0.073200  1.0
  H  H1323  1  0.648700  0.053000  0.573200  1.0
  H  H1324  1  0.924500  0.020200  0.573200  1.0
  H  H1325  1  0.447000  0.575500  0.926800  1.0
  H  H1326  1  0.479800  0.851300  0.926800  1.0
  H  H1327  1  0.351300  0.947000  0.426800  1.0
  H  H1328  1  0.075500  0.979800  0.426800  1.0
  H  H1329  1  0.609400  0.404600  0.115200  1.0
  H  H1330  1  0.505800  0.210600  0.115200  1.0
  H  H1331  1  0.710600  0.109400  0.615200  1.0
  H  H1332  1  0.904600  0.005800  0.615200  1.0
  H  H1333  1  0.390600  0.595400  0.884800  1.0
  H  H1334  1  0.494200  0.789400  0.884800  1.0
  H  H1335  1  0.289400  0.890600  0.384800  1.0
  H  H1336  1  0.095400  0.994200  0.384800  1.0
  H  H1337  1  0.675600  0.481600  0.147000  1.0
  H  H1338  1  0.471400  0.165400  0.147000  1.0
  H  H1339  1  0.665400  0.175600  0.647000  1.0
  H  H1340  1  0.981600  0.971400  0.647000  1.0
  H  H1341  1  0.324400  0.518400  0.853000  1.0
  H  H1342  1  0.528600  0.834600  0.853000  1.0
  H  H1343  1  0.334600  0.824400  0.353000  1.0
  H  H1344  1  0.018400  0.028600  0.353000  1.0
  H  H1345  1  0.535800  0.561100  0.058400  1.0
  H  H1346  1  0.522600  0.997300  0.058400  1.0
  H  H1347  1  0.497300  0.035800  0.558400  1.0
  H  H1348  1  0.061100  0.022600  0.558400  1.0
  H  H1349  1  0.464200  0.438900  0.941600  1.0
  H  H1350  1  0.477400  0.002700  0.941600  1.0
  H  H1351  1  0.502700  0.964200  0.441600  1.0
  H  H1352  1  0.938900  0.977400  0.441600  1.0
  H  H1353  1  0.525500  0.490900  0.043800  1.0
  H  H1354  1  0.518300  0.052900  0.043800  1.0
  H  H1355  1  0.552900  0.025500  0.543800  1.0
  H  H1356  1  0.990900  0.018300  0.543800  1.0
  H  H1357  1  0.474500  0.509100  0.956200  1.0
  H  H1358  1  0.481700  0.947100  0.956200  1.0
  H  H1359  1  0.447100  0.974500  0.456200  1.0
  H  H1360  1  0.009100  0.981700  0.456200  1.0
  H  H1361  1  0.583500  0.527800  0.042200  1.0
  H  H1362  1  0.458700  0.014400  0.042200  1.0
  H  H1363  1  0.514400  0.083500  0.542200  1.0
  H  H1364  1  0.027800  0.958700  0.542200  1.0
  H  H1365  1  0.416500  0.472200  0.957800  1.0
  H  H1366  1  0.541300  0.985600  0.957800  1.0
  H  H1367  1  0.485600  0.916500  0.457800  1.0
  H  H1368  1  0.972200  0.041300  0.457800  1.0
  H  H1369  1  0.719600  0.588600  0.158600  1.0
  H  H1370  1  0.439000  0.070000  0.158600  1.0
  H  H1371  1  0.570000  0.219600  0.658600  1.0
  H  H1372  1  0.088600  0.939000  0.658600  1.0
  H  H1373  1  0.280400  0.411400  0.841400  1.0
  H  H1374  1  0.561000  0.930000  0.841400  1.0
  H  H1375  1  0.430000  0.780400  0.341400  1.0
  H  H1376  1  0.911400  0.061000  0.341400  1.0
  H  H1377  1  0.758700  0.727900  0.123200  1.0
  H  H1378  1  0.364500  0.895300  0.123200  1.0
  H  H1379  1  0.395300  0.258700  0.623200  1.0
  H  H1380  1  0.227900  0.864500  0.623200  1.0
  H  H1381  1  0.241300  0.272100  0.876800  1.0
  H  H1382  1  0.635500  0.104700  0.876800  1.0
  H  H1383  1  0.604700  0.741300  0.376800  1.0
  H  H1384  1  0.772100  0.135500  0.376800  1.0
  H  H1385  1  0.815600  0.830600  0.202200  1.0
  H  H1386  1  0.386600  0.871600  0.202200  1.0
  H  H1387  1  0.371600  0.315600  0.702200  1.0
  H  H1388  1  0.330600  0.886600  0.702200  1.0
  H  H1389  1  0.184400  0.169400  0.797800  1.0
  H  H1390  1  0.613400  0.128400  0.797800  1.0
  H  H1391  1  0.628400  0.684400  0.297800  1.0
  H  H1392  1  0.669400  0.113400  0.297800  1.0
  H  H1393  1  0.718300  0.673900  0.188400  1.0
  H  H1394  1  0.470100  0.014500  0.188400  1.0
  H  H1395  1  0.514500  0.218300  0.688400  1.0
  H  H1396  1  0.173900  0.970100  0.688400  1.0
  H  H1397  1  0.281700  0.326100  0.811600  1.0
  H  H1398  1  0.529900  0.985500  0.811600  1.0
  H  H1399  1  0.485500  0.781700  0.311600  1.0
  H  H1400  1  0.826100  0.029900  0.311600  1.0
  H  H1401  1  0.872600  0.869900  0.183000  1.0
  H  H1402  1  0.310400  0.813100  0.183000  1.0
  H  H1403  1  0.313100  0.372600  0.683000  1.0
  H  H1404  1  0.369900  0.810400  0.683000  1.0
  H  H1405  1  0.127400  0.130100  0.817000  1.0
  H  H1406  1  0.689600  0.186900  0.817000  1.0
  H  H1407  1  0.686900  0.627400  0.317000  1.0
  H  H1408  1  0.630100  0.189600  0.317000  1.0
  H  H1409  1  0.903500  0.027900  0.114000  1.0
  H  H1410  1  0.210500  0.586100  0.114000  1.0
  H  H1411  1  0.086100  0.403500  0.614000  1.0
  H  H1412  1  0.527900  0.710500  0.614000  1.0
  H  H1413  1  0.096500  0.972100  0.886000  1.0
  H  H1414  1  0.789500  0.413900  0.886000  1.0
  H  H1415  1  0.913900  0.596500  0.386000  1.0
  H  H1416  1  0.472100  0.289500  0.386000  1.0
  H  H1417  1  0.951900  0.038300  0.160200  1.0
  H  H1418  1  0.208300  0.621900  0.160200  1.0
  H  H1419  1  0.121900  0.451900  0.660200  1.0
  H  H1420  1  0.538300  0.708300  0.660200  1.0
  H  H1421  1  0.048100  0.961700  0.839800  1.0
  H  H1422  1  0.791700  0.378100  0.839800  1.0
  H  H1423  1  0.878100  0.548100  0.339800  1.0
  H  H1424  1  0.461700  0.291700  0.339800  1.0
  H  H1425  1  0.933700  0.965300  0.184400  1.0
  H  H1426  1  0.250700  0.719100  0.184400  1.0
  H  H1427  1  0.219100  0.433700  0.684400  1.0
  H  H1428  1  0.465300  0.750700  0.684400  1.0
  H  H1429  1  0.066300  0.034700  0.815600  1.0
  H  H1430  1  0.749300  0.280900  0.815600  1.0
  H  H1431  1  0.780900  0.566300  0.315600  1.0
  H  H1432  1  0.534700  0.249300  0.315600  1.0
  H  H1433  1  0.843500  0.901100  0.069000  1.0
  H  H1434  1  0.225500  0.667900  0.069000  1.0
  H  H1435  1  0.167900  0.343500  0.569000  1.0
  H  H1436  1  0.401100  0.725500  0.569000  1.0
  H  H1437  1  0.156500  0.098900  0.931000  1.0
  H  H1438  1  0.774500  0.332100  0.931000  1.0
  H  H1439  1  0.832100  0.656500  0.431000  1.0
  H  H1440  1  0.598900  0.274500  0.431000  1.0
  H  H1441  1  0.835100  0.971500  0.072000  1.0
  H  H1442  1  0.236900  0.600500  0.072000  1.0
  H  H1443  1  0.100500  0.335100  0.572000  1.0
  H  H1444  1  0.471500  0.736900  0.572000  1.0
  H  H1445  1  0.164900  0.028500  0.928000  1.0
  H  H1446  1  0.763100  0.399500  0.928000  1.0
  H  H1447  1  0.899500  0.664900  0.428000  1.0
  H  H1448  1  0.528500  0.263100  0.428000  1.0
  H  H1449  1  0.783800  0.929700  0.076400  1.0
  H  H1450  1  0.292600  0.646700  0.076400  1.0
  H  H1451  1  0.146700  0.283800  0.576400  1.0
  H  H1452  1  0.429700  0.792600  0.576400  1.0
  H  H1453  1  0.216200  0.070300  0.923600  1.0
  H  H1454  1  0.707400  0.353300  0.923600  1.0
  H  H1455  1  0.853300  0.716200  0.423600  1.0
  H  H1456  1  0.570300  0.207400  0.423600  1.0
  H  H1457  1  0.751800  0.854500  0.233600  1.0
  H  H1458  1  0.481800  0.879100  0.233600  1.0
  H  H1459  1  0.379100  0.251800  0.733600  1.0
  H  H1460  1  0.354500  0.981800  0.733600  1.0
  H  H1461  1  0.248200  0.145500  0.766400  1.0
  H  H1462  1  0.518200  0.120900  0.766400  1.0
  H  H1463  1  0.620900  0.748200  0.266400  1.0
  H  H1464  1  0.645500  0.018200  0.266400  1.0
  H  H1465  1  0.774700  0.699700  0.281600  1.0
  H  H1466  1  0.506900  0.081900  0.281600  1.0
  H  H1467  1  0.581900  0.274700  0.781600  1.0
  H  H1468  1  0.199700  0.006900  0.781600  1.0
  H  H1469  1  0.225300  0.300300  0.718400  1.0
  H  H1470  1  0.493100  0.918100  0.718400  1.0
  H  H1471  1  0.418100  0.725300  0.218400  1.0
  H  H1472  1  0.800300  0.993100  0.218400  1.0
  H  H1473  1  0.778100  0.680600  0.235400  1.0
  H  H1474  1  0.457300  0.054800  0.235400  1.0
  H  H1475  1  0.554800  0.278100  0.735400  1.0
  H  H1476  1  0.180600  0.957300  0.735400  1.0
  H  H1477  1  0.221900  0.319400  0.764600  1.0
  H  H1478  1  0.542700  0.945200  0.764600  1.0
  H  H1479  1  0.445200  0.721900  0.264600  1.0
  H  H1480  1  0.819400  0.042700  0.264600  1.0
  H  H1481  1  0.730300  0.924600  0.276200  1.0
  H  H1482  1  0.545900  0.851600  0.276200  1.0
  H  H1483  1  0.351600  0.230300  0.776200  1.0
  H  H1484  1  0.424600  0.045900  0.776200  1.0
  H  H1485  1  0.269700  0.075400  0.723800  1.0
  H  H1486  1  0.454100  0.148400  0.723800  1.0
  H  H1487  1  0.648400  0.769700  0.223800  1.0
  H  H1488  1  0.575400  0.954100  0.223800  1.0
  H  H1489  1  0.729000  0.944400  0.322400  1.0
  H  H1490  1  0.593400  0.878000  0.322400  1.0
  H  H1491  1  0.378000  0.229000  0.822400  1.0
  H  H1492  1  0.444400  0.093400  0.822400  1.0
  H  H1493  1  0.271000  0.055600  0.677600  1.0
  H  H1494  1  0.406600  0.122000  0.677600  1.0
  H  H1495  1  0.622000  0.771000  0.177600  1.0
  H  H1496  1  0.555600  0.906600  0.177600  1.0
  H  H1497  1  0.764200  0.772100  0.325000  1.0
  H  H1498  1  0.560800  0.052900  0.325000  1.0
  H  H1499  1  0.552900  0.264200  0.825000  1.0
  H  H1500  1  0.272100  0.060800  0.825000  1.0
  H  H1501  1  0.235800  0.227900  0.675000  1.0
  H  H1502  1  0.439200  0.947100  0.675000  1.0
  H  H1503  1  0.447100  0.735800  0.175000  1.0
  H  H1504  1  0.727900  0.939200  0.175000  1.0
  H  H1505  1  0.783900  0.961900  0.366800  1.0
  H  H1506  1  0.582900  0.904900  0.366800  1.0
  H  H1507  1  0.404900  0.283900  0.866800  1.0
  H  H1508  1  0.461900  0.082900  0.866800  1.0
  H  H1509  1  0.216100  0.038100  0.633200  1.0
  H  H1510  1  0.417100  0.095100  0.633200  1.0
  H  H1511  1  0.595100  0.716100  0.133200  1.0
  H  H1512  1  0.538100  0.917100  0.133200  1.0
  H  H1513  1  0.780800  0.907600  0.438000  1.0
  H  H1514  1  0.657200  0.030400  0.438000  1.0
  H  H1515  1  0.530400  0.280800  0.938000  1.0
  H  H1516  1  0.407600  0.157200  0.938000  1.0
  H  H1517  1  0.219200  0.092400  0.562000  1.0
  H  H1518  1  0.342800  0.969600  0.562000  1.0
  H  H1519  1  0.469600  0.719200  0.062000  1.0
  H  H1520  1  0.592400  0.842800  0.062000  1.0
  H  H1521  1  0.722800  0.792900  0.362200  1.0
  H  H1522  1  0.639400  0.069300  0.362200  1.0
  H  H1523  1  0.569300  0.222800  0.862200  1.0
  H  H1524  1  0.292900  0.139400  0.862200  1.0
  H  H1525  1  0.277200  0.207100  0.637800  1.0
  H  H1526  1  0.360600  0.930700  0.637800  1.0
  H  H1527  1  0.430700  0.777200  0.137800  1.0
  H  H1528  1  0.707100  0.860600  0.137800  1.0
  H  H1529  1  0.788100  0.001800  0.454400  1.0
  H  H1530  1  0.666300  0.952600  0.454400  1.0
  H  H1531  1  0.452600  0.288100  0.954400  1.0
  H  H1532  1  0.501800  0.166300  0.954400  1.0
  H  H1533  1  0.211900  0.998200  0.545600  1.0
  H  H1534  1  0.333700  0.047400  0.545600  1.0
  H  H1535  1  0.547400  0.711900  0.045600  1.0
  H  H1536  1  0.498200  0.833700  0.045600  1.0
  H  H1537  1  0.928200  0.221100  0.493000  1.0
  H  H1538  1  0.564800  0.771900  0.493000  1.0
  H  H1539  1  0.271900  0.428200  0.993000  1.0
  H  H1540  1  0.721100  0.064800  0.993000  1.0
  H  H1541  1  0.071800  0.778900  0.507000  1.0
  H  H1542  1  0.435200  0.228100  0.507000  1.0
  H  H1543  1  0.728100  0.571800  0.007000  1.0
  H  H1544  1  0.278900  0.935200  0.007000  1.0
  H  H1545  1  0.886400  0.173600  0.519400  1.0
  H  H1546  1  0.633000  0.845800  0.519400  1.0
  H  H1547  1  0.345800  0.386400  0.019400  1.0
  H  H1548  1  0.673600  0.133000  0.019400  1.0
  H  H1549  1  0.113600  0.826400  0.480600  1.0
  H  H1550  1  0.367000  0.154200  0.480600  1.0
  H  H1551  1  0.654200  0.613600  0.980600  1.0
  H  H1552  1  0.326400  0.867000  0.980600  1.0
  H  H1553  1  0.833900  0.078300  0.499600  1.0
  H  H1554  1  0.665700  0.921300  0.499600  1.0
  H  H1555  1  0.421300  0.333900  0.999600  1.0
  H  H1556  1  0.578300  0.165700  0.999600  1.0
  H  H1557  1  0.166100  0.921700  0.500400  1.0
  H  H1558  1  0.334300  0.078700  0.500400  1.0
  H  H1559  1  0.578700  0.666100  0.000400  1.0
  H  H1560  1  0.421700  0.834300  0.000400  1.0
  H  H1561  1  0.923300  0.168100  0.420000  1.0
  H  H1562  1  0.496700  0.751900  0.420000  1.0
  H  H1563  1  0.251900  0.423300  0.920000  1.0
  H  H1564  1  0.668100  0.996700  0.920000  1.0
  H  H1565  1  0.076700  0.831900  0.580000  1.0
  H  H1566  1  0.503300  0.248100  0.580000  1.0
  H  H1567  1  0.748100  0.576700  0.080000  1.0
  H  H1568  1  0.331900  0.003300  0.080000  1.0
  H  H1569  1  0.945400  0.225100  0.445600  1.0
  H  H1570  1  0.500200  0.720500  0.445600  1.0
  H  H1571  1  0.220500  0.445400  0.945600  1.0
  H  H1572  1  0.725100  0.000200  0.945600  1.0
  H  H1573  1  0.054600  0.774900  0.554400  1.0
  H  H1574  1  0.499800  0.279500  0.554400  1.0
  H  H1575  1  0.779500  0.554600  0.054400  1.0
  H  H1576  1  0.274900  0.999800  0.054400  1.0
  H  H1577  1  0.877600  0.218800  0.427400  1.0
  H  H1578  1  0.549800  0.708600  0.427400  1.0
  H  H1579  1  0.208600  0.377600  0.927400  1.0
  H  H1580  1  0.718800  0.049800  0.927400  1.0
  H  H1581  1  0.122400  0.781200  0.572600  1.0
  H  H1582  1  0.450200  0.291400  0.572600  1.0
  H  H1583  1  0.791400  0.622400  0.072600  1.0
  H  H1584  1  0.281200  0.950200  0.072600  1.0
  H  H1585  1  0.741500  0.840600  0.450800  1.0
  H  H1586  1  0.709300  0.110200  0.450800  1.0
  H  H1587  1  0.610200  0.241500  0.950800  1.0
  H  H1588  1  0.340600  0.209300  0.950800  1.0
  H  H1589  1  0.258500  0.159400  0.549200  1.0
  H  H1590  1  0.290700  0.889800  0.549200  1.0
  H  H1591  1  0.389800  0.758500  0.049200  1.0
  H  H1592  1  0.659400  0.790700  0.049200  1.0
  H  H1593  1  0.680400  0.611500  0.467200  1.0
  H  H1594  1  0.786800  0.355700  0.467200  1.0
  H  H1595  1  0.855700  0.180400  0.967200  1.0
  H  H1596  1  0.111500  0.286800  0.967200  1.0
  H  H1597  1  0.319600  0.388500  0.532800  1.0
  H  H1598  1  0.213200  0.644300  0.532800  1.0
  H  H1599  1  0.144300  0.819600  0.032800  1.0
  H  H1600  1  0.888500  0.713200  0.032800  1.0
  H  H1601  1  0.709000  0.698900  0.502200  1.0
  H  H1602  1  0.793200  0.303300  0.502200  1.0
  H  H1603  1  0.803300  0.209000  0.002200  1.0
  H  H1604  1  0.198900  0.293200  0.002200  1.0
  H  H1605  1  0.291000  0.301100  0.497800  1.0
  H  H1606  1  0.206800  0.696700  0.497800  1.0
  H  H1607  1  0.196700  0.791000  0.997800  1.0
  H  H1608  1  0.801100  0.706800  0.997800  1.0
  H  H1609  1  0.735700  0.788000  0.490000  1.0
  H  H1610  1  0.754300  0.202000  0.490000  1.0
  H  H1611  1  0.702000  0.235700  0.990000  1.0
  H  H1612  1  0.288000  0.254300  0.990000  1.0
  H  H1613  1  0.264300  0.212000  0.510000  1.0
  H  H1614  1  0.245700  0.798000  0.510000  1.0
  H  H1615  1  0.298000  0.764300  0.010000  1.0
  H  H1616  1  0.712000  0.745700  0.010000  1.0
  H  H1617  1  0.693100  0.593300  0.397000  1.0
  H  H1618  1  0.703900  0.303700  0.397000  1.0
  H  H1619  1  0.803700  0.193100  0.897000  1.0
  H  H1620  1  0.093300  0.203900  0.897000  1.0
  H  H1621  1  0.306900  0.406700  0.603000  1.0
  H  H1622  1  0.296100  0.696300  0.603000  1.0
  H  H1623  1  0.196300  0.806900  0.103000  1.0
  H  H1624  1  0.906700  0.796100  0.103000  1.0
  H  H1625  1  0.627300  0.593900  0.402800  1.0
  H  H1626  1  0.775500  0.308900  0.402800  1.0
  H  H1627  1  0.808900  0.127300  0.902800  1.0
  H  H1628  1  0.093900  0.275500  0.902800  1.0
  H  H1629  1  0.372700  0.406100  0.597200  1.0
  H  H1630  1  0.224500  0.691100  0.597200  1.0
  H  H1631  1  0.191100  0.872700  0.097200  1.0
  H  H1632  1  0.906100  0.724500  0.097200  1.0
  H  H1633  1  0.677800  0.556800  0.418200  1.0
  H  H1634  1  0.740400  0.361400  0.418200  1.0
  H  H1635  1  0.861400  0.177800  0.918200  1.0
  H  H1636  1  0.056800  0.240400  0.918200  1.0
  H  H1637  1  0.322200  0.443200  0.581800  1.0
  H  H1638  1  0.259600  0.638600  0.581800  1.0
  H  H1639  1  0.138600  0.822200  0.081800  1.0
  H  H1640  1  0.943200  0.759600  0.081800  1.0
  H  H1641  1  0.138000  0.946200  0.013600  1.0
  H  H1642  1  0.875600  0.567400  0.013600  1.0
  H  H1643  1  0.067400  0.638000  0.513600  1.0
  H  H1644  1  0.446200  0.375600  0.513600  1.0
  H  H1645  1  0.862000  0.053800  0.986400  1.0
  H  H1646  1  0.124400  0.432600  0.986400  1.0
  H  H1647  1  0.932600  0.362000  0.486400  1.0
  H  H1648  1  0.553800  0.624400  0.486400  1.0
  H  H1649  1  0.080200  0.997000  0.983000  1.0
  H  H1650  1  0.902800  0.486000  0.983000  1.0
  H  H1651  1  0.986000  0.580200  0.483000  1.0
  H  H1652  1  0.497000  0.402800  0.483000  1.0
  H  H1653  1  0.919800  0.003000  0.017000  1.0
  H  H1654  1  0.097200  0.514000  0.017000  1.0
  H  H1655  1  0.014000  0.419800  0.517000  1.0
  H  H1656  1  0.503000  0.597200  0.517000  1.0
  H  H1657  1  0.039200  0.088100  0.002200  1.0
  H  H1658  1  0.963000  0.414100  0.002200  1.0
  H  H1659  1  0.914100  0.539200  0.502200  1.0
  H  H1660  1  0.588100  0.463000  0.502200  1.0
  H  H1661  1  0.960800  0.911900  0.997800  1.0
  H  H1662  1  0.037000  0.585900  0.997800  1.0
  H  H1663  1  0.085900  0.460800  0.497800  1.0
  H  H1664  1  0.411900  0.537000  0.497800  1.0
  H  H1665  1  0.174300  0.932500  0.059800  1.0
  H  H1666  1  0.885500  0.627300  0.059800  1.0
  H  H1667  1  0.127300  0.674300  0.559800  1.0
  H  H1668  1  0.432500  0.385500  0.559800  1.0
  H  H1669  1  0.825700  0.067500  0.940200  1.0
  H  H1670  1  0.114500  0.372700  0.940200  1.0
  H  H1671  1  0.872700  0.325700  0.440200  1.0
  H  H1672  1  0.567500  0.614500  0.440200  1.0
  H  H1673  1  0.120900  0.944000  0.075800  1.0
  H  H1674  1  0.954900  0.631800  0.075800  1.0
  H  H1675  1  0.131800  0.620900  0.575800  1.0
  H  H1676  1  0.444000  0.454900  0.575800  1.0
  H  H1677  1  0.879100  0.056000  0.924200  1.0
  H  H1678  1  0.045100  0.368200  0.924200  1.0
  H  H1679  1  0.868200  0.379100  0.424200  1.0
  H  H1680  1  0.556000  0.545100  0.424200  1.0
  H  H1681  1  0.178000  0.990500  0.085000  1.0
  H  H1682  1  0.907000  0.594500  0.085000  1.0
  H  H1683  1  0.094500  0.678000  0.585000  1.0
  H  H1684  1  0.490500  0.407000  0.585000  1.0
  H  H1685  1  0.822000  0.009500  0.915000  1.0
  H  H1686  1  0.093000  0.405500  0.915000  1.0
  H  H1687  1  0.905500  0.322000  0.415000  1.0
  H  H1688  1  0.509500  0.593000  0.415000  1.0
  H  H1689  1  0.018900  0.160800  0.045000  1.0
  H  H1690  1  0.026100  0.384200  0.045000  1.0
  H  H1691  1  0.884200  0.518900  0.545000  1.0
  H  H1692  1  0.660800  0.526100  0.545000  1.0
  H  H1693  1  0.981100  0.839200  0.955000  1.0
  H  H1694  1  0.973900  0.615800  0.955000  1.0
  H  H1695  1  0.115800  0.481100  0.455000  1.0
  H  H1696  1  0.339200  0.473900  0.455000  1.0
  H  H1697  1  0.968400  0.224800  0.062200  1.0
  H  H1698  1  0.093800  0.337400  0.062200  1.0
  H  H1699  1  0.837400  0.468400  0.562200  1.0
  H  H1700  1  0.724800  0.593800  0.562200  1.0
  H  H1701  1  0.031600  0.775200  0.937800  1.0
  H  H1702  1  0.906200  0.662600  0.937800  1.0
  H  H1703  1  0.162600  0.531600  0.437800  1.0
  H  H1704  1  0.275200  0.406200  0.437800  1.0
  H  H1705  1  0.938200  0.313800  0.136600  1.0
  H  H1706  1  0.198400  0.322800  0.136600  1.0
  H  H1707  1  0.822800  0.438200  0.636600  1.0
  H  H1708  1  0.813800  0.698400  0.636600  1.0
  H  H1709  1  0.061800  0.686200  0.863400  1.0
  H  H1710  1  0.801600  0.677200  0.863400  1.0
  H  H1711  1  0.177200  0.561800  0.363400  1.0
  H  H1712  1  0.186200  0.301600  0.363400  1.0
  H  H1713  1  0.041700  0.170100  0.132400  1.0
  H  H1714  1  0.090700  0.462300  0.132400  1.0
  H  H1715  1  0.962300  0.541700  0.632400  1.0
  H  H1716  1  0.670100  0.590700  0.632400  1.0
  H  H1717  1  0.958300  0.829900  0.867600  1.0
  H  H1718  1  0.909300  0.537700  0.867600  1.0
  H  H1719  1  0.037700  0.458300  0.367600  1.0
  H  H1720  1  0.329900  0.409300  0.367600  1.0
  H  H1721  1  0.931000  0.301500  0.049800  1.0
  H  H1722  1  0.118800  0.248300  0.049800  1.0
  H  H1723  1  0.748300  0.431000  0.549800  1.0
  H  H1724  1  0.801500  0.618800  0.549800  1.0
  H  H1725  1  0.069000  0.698500  0.950200  1.0
  H  H1726  1  0.881200  0.751700  0.950200  1.0
  H  H1727  1  0.251700  0.569000  0.450200  1.0
  H  H1728  1  0.198500  0.381200  0.450200  1.0
  H  H1729  1  0.731900  0.442100  0.020400  1.0
  H  H1730  1  0.288500  0.078300  0.020400  1.0
  H  H1731  1  0.578300  0.231900  0.520400  1.0
  H  H1732  1  0.942100  0.788500  0.520400  1.0
  H  H1733  1  0.268100  0.557900  0.979600  1.0
  H  H1734  1  0.711500  0.921700  0.979600  1.0
  H  H1735  1  0.421700  0.768100  0.479600  1.0
  H  H1736  1  0.057900  0.211500  0.479600  1.0
  H  H1737  1  0.792600  0.398400  0.991600  1.0
  H  H1738  1  0.199000  0.093200  0.991600  1.0
  H  H1739  1  0.593200  0.292600  0.491600  1.0
  H  H1740  1  0.898400  0.699000  0.491600  1.0
  H  H1741  1  0.207400  0.601600  0.008400  1.0
  H  H1742  1  0.801000  0.906800  0.008400  1.0
  H  H1743  1  0.406800  0.707400  0.508400  1.0
  H  H1744  1  0.101600  0.301000  0.508400  1.0
  H  H1745  1  0.872400  0.341800  0.009000  1.0
  H  H1746  1  0.136600  0.167200  0.009000  1.0
  H  H1747  1  0.667200  0.372400  0.509000  1.0
  H  H1748  1  0.841800  0.636600  0.509000  1.0
  H  H1749  1  0.127600  0.658200  0.991000  1.0
  H  H1750  1  0.863400  0.832800  0.991000  1.0
  H  H1751  1  0.332800  0.627600  0.491000  1.0
  H  H1752  1  0.158200  0.363400  0.491000  1.0
  H  H1753  1  0.713400  0.408600  0.077800  1.0
  H  H1754  1  0.364400  0.169200  0.077800  1.0
  H  H1755  1  0.669200  0.213400  0.577800  1.0
  H  H1756  1  0.908600  0.864400  0.577800  1.0
  H  H1757  1  0.286600  0.591400  0.922200  1.0
  H  H1758  1  0.635600  0.830800  0.922200  1.0
  H  H1759  1  0.330800  0.786600  0.422200  1.0
  H  H1760  1  0.091400  0.135600  0.422200  1.0
  H  H1761  1  0.709000  0.467400  0.065600  1.0
  H  H1762  1  0.356600  0.098200  0.065600  1.0
  H  H1763  1  0.598200  0.209000  0.565600  1.0
  H  H1764  1  0.967400  0.856600  0.565600  1.0
  H  H1765  1  0.291000  0.532600  0.934400  1.0
  H  H1766  1  0.643400  0.901800  0.934400  1.0
  H  H1767  1  0.401800  0.791000  0.434400  1.0
  H  H1768  1  0.032600  0.143400  0.434400  1.0
  H  H1769  1  0.761900  0.463600  0.091800  1.0
  H  H1770  1  0.329900  0.128200  0.091800  1.0
  H  H1771  1  0.628200  0.261900  0.591800  1.0
  H  H1772  1  0.963600  0.829900  0.591800  1.0
  H  H1773  1  0.238100  0.536400  0.908200  1.0
  H  H1774  1  0.670100  0.871800  0.908200  1.0
  H  H1775  1  0.371800  0.738100  0.408200  1.0
  H  H1776  1  0.036400  0.170100  0.408200  1.0
  H  H1777  1  0.990500  0.147900  0.164400  1.0
  H  H1778  1  0.173900  0.516500  0.164400  1.0
  H  H1779  1  0.016500  0.490500  0.664400  1.0
  H  H1780  1  0.647900  0.673900  0.664400  1.0
  H  H1781  1  0.009500  0.852100  0.835600  1.0
  H  H1782  1  0.826100  0.483500  0.835600  1.0
  H  H1783  1  0.983500  0.509500  0.335600  1.0
  H  H1784  1  0.352100  0.326100  0.335600  1.0
  H  H1785  1  0.988600  0.146300  0.210000  1.0
  H  H1786  1  0.221400  0.563700  0.210000  1.0
  H  H1787  1  0.063700  0.488600  0.710000  1.0
  H  H1788  1  0.646300  0.721400  0.710000  1.0
  H  H1789  1  0.011400  0.853700  0.790000  1.0
  H  H1790  1  0.778600  0.436300  0.790000  1.0
  H  H1791  1  0.936300  0.511400  0.290000  1.0
  H  H1792  1  0.353700  0.278600  0.290000  1.0
  H  H1793  1  0.994300  0.329600  0.183400  1.0
  H  H1794  1  0.189100  0.353800  0.183400  1.0
  H  H1795  1  0.853800  0.494300  0.683400  1.0
  H  H1796  1  0.829600  0.689100  0.683400  1.0
  H  H1797  1  0.005700  0.670400  0.816600  1.0
  H  H1798  1  0.810900  0.646200  0.816600  1.0
  H  H1799  1  0.146200  0.505700  0.316600  1.0
  H  H1800  1  0.170400  0.310900  0.316600  1.0
  H  H1801  1  0.993800  0.200500  0.259000  1.0
  H  H1802  1  0.265200  0.558500  0.259000  1.0
  H  H1803  1  0.058500  0.493800  0.759000  1.0
  H  H1804  1  0.700500  0.765200  0.759000  1.0
  H  H1805  1  0.006200  0.799500  0.741000  1.0
  H  H1806  1  0.734800  0.441500  0.741000  1.0
  H  H1807  1  0.941500  0.506200  0.241000  1.0
  H  H1808  1  0.299500  0.234800  0.241000  1.0
  H  H1809  1  0.002000  0.382600  0.277800  1.0
  H  H1810  1  0.275800  0.395200  0.277800  1.0
  H  H1811  1  0.895200  0.502000  0.777800  1.0
  H  H1812  1  0.882600  0.775800  0.777800  1.0
  H  H1813  1  0.998000  0.617400  0.722200  1.0
  H  H1814  1  0.724200  0.604800  0.722200  1.0
  H  H1815  1  0.104800  0.498000  0.222200  1.0
  H  H1816  1  0.117400  0.224200  0.222200  1.0
  H  H1817  1  0.005500  0.383400  0.232800  1.0
  H  H1818  1  0.227300  0.349400  0.232800  1.0
  H  H1819  1  0.849400  0.505500  0.732800  1.0
  H  H1820  1  0.883400  0.727300  0.732800  1.0
  H  H1821  1  0.994500  0.616600  0.767200  1.0
  H  H1822  1  0.772700  0.650600  0.767200  1.0
  H  H1823  1  0.150600  0.494500  0.267200  1.0
  H  H1824  1  0.116600  0.272700  0.267200  1.0
  H  H1825  1  0.061900  0.224800  0.305000  1.0
  H  H1826  1  0.243100  0.580200  0.305000  1.0
  H  H1827  1  0.080200  0.561900  0.805000  1.0
  H  H1828  1  0.724800  0.743100  0.805000  1.0
  H  H1829  1  0.938100  0.775200  0.695000  1.0
  H  H1830  1  0.756900  0.419800  0.695000  1.0
  H  H1831  1  0.919800  0.438100  0.195000  1.0
  H  H1832  1  0.275200  0.256900  0.195000  1.0
  H  H1833  1  0.025400  0.302300  0.379400  1.0
  H  H1834  1  0.354000  0.577100  0.379400  1.0
  H  H1835  1  0.077100  0.525400  0.879400  1.0
  H  H1836  1  0.802300  0.854000  0.879400  1.0
  H  H1837  1  0.974600  0.697700  0.620600  1.0
  H  H1838  1  0.646000  0.422900  0.620600  1.0
  H  H1839  1  0.922900  0.474600  0.120600  1.0
  H  H1840  1  0.197700  0.146000  0.120600  1.0
  H  H1841  1  0.946500  0.358700  0.309600  1.0
  H  H1842  1  0.363100  0.450900  0.309600  1.0
  H  H1843  1  0.950900  0.446500  0.809600  1.0
  H  H1844  1  0.858700  0.863100  0.809600  1.0
  H  H1845  1  0.053500  0.641300  0.690400  1.0
  H  H1846  1  0.636900  0.549100  0.690400  1.0
  H  H1847  1  0.049100  0.553500  0.190400  1.0
  H  H1848  1  0.141300  0.136900  0.190400  1.0
  H  H1849  1  0.076800  0.151100  0.326400  1.0
  H  H1850  1  0.249600  0.675300  0.326400  1.0
  H  H1851  1  0.175300  0.576800  0.826400  1.0
  H  H1852  1  0.651100  0.749600  0.826400  1.0
  H  H1853  1  0.923200  0.848900  0.673600  1.0
  H  H1854  1  0.750400  0.324700  0.673600  1.0
  H  H1855  1  0.824700  0.423200  0.173600  1.0
  H  H1856  1  0.348900  0.250400  0.173600  1.0
  H  H1857  1  0.255800  0.051700  0.399600  1.0
  H  H1858  1  0.143800  0.847900  0.399600  1.0
  H  H1859  1  0.347900  0.755800  0.899600  1.0
  H  H1860  1  0.551700  0.643800  0.899600  1.0
  H  H1861  1  0.744200  0.948300  0.600400  1.0
  H  H1862  1  0.856200  0.152100  0.600400  1.0
  H  H1863  1  0.652100  0.244200  0.100400  1.0
  H  H1864  1  0.448300  0.356200  0.100400  1.0
  H  H1865  1  0.200400  0.000900  0.354000  1.0
  H  H1866  1  0.153600  0.853100  0.354000  1.0
  H  H1867  1  0.353100  0.700400  0.854000  1.0
  H  H1868  1  0.500900  0.653600  0.854000  1.0
  H  H1869  1  0.799600  0.999100  0.646000  1.0
  H  H1870  1  0.846400  0.146900  0.646000  1.0
  H  H1871  1  0.646900  0.299600  0.146000  1.0
  H  H1872  1  0.499100  0.346400  0.146000  1.0
  H  H1873  1  0.126400  0.053100  0.329200  1.0
  H  H1874  1  0.202800  0.776100  0.329200  1.0
  H  H1875  1  0.276100  0.626400  0.829200  1.0
  H  H1876  1  0.553100  0.702800  0.829200  1.0
  H  H1877  1  0.873600  0.946900  0.670800  1.0
  H  H1878  1  0.797200  0.223900  0.670800  1.0
  H  H1879  1  0.723900  0.373600  0.170800  1.0
  H  H1880  1  0.446900  0.297200  0.170800  1.0
  H  H1881  1  0.253100  0.202500  0.430200  1.0
  H  H1882  1  0.177100  0.727700  0.430200  1.0
  H  H1883  1  0.227700  0.753100  0.930200  1.0
  H  H1884  1  0.702500  0.677100  0.930200  1.0
  H  H1885  1  0.746900  0.797500  0.569800  1.0
  H  H1886  1  0.822900  0.272300  0.569800  1.0
  H  H1887  1  0.772300  0.246900  0.069800  1.0
  H  H1888  1  0.297500  0.322900  0.069800  1.0
  H  H1889  1  0.281200  0.140200  0.434200  1.0
  H  H1890  1  0.153000  0.794000  0.434200  1.0
  H  H1891  1  0.294000  0.781200  0.934200  1.0
  H  H1892  1  0.640200  0.653000  0.934200  1.0
  H  H1893  1  0.718800  0.859800  0.565800  1.0
  H  H1894  1  0.847000  0.206000  0.565800  1.0
  H  H1895  1  0.706000  0.218800  0.065800  1.0
  H  H1896  1  0.359800  0.347000  0.065800  1.0
  H  H1897  1  0.218400  0.157000  0.442000  1.0
  H  H1898  1  0.223600  0.785000  0.442000  1.0
  H  H1899  1  0.285000  0.718400  0.942000  1.0
  H  H1900  1  0.657000  0.723600  0.942000  1.0
  H  H1901  1  0.781600  0.843000  0.558000  1.0
  H  H1902  1  0.776400  0.215000  0.558000  1.0
  H  H1903  1  0.715000  0.281600  0.058000  1.0
  H  H1904  1  0.343000  0.276400  0.058000  1.0
  H  H1905  1  0.873100  0.365300  0.332800  1.0
  H  H1906  1  0.459700  0.467500  0.332800  1.0
  H  H1907  1  0.967500  0.373100  0.832800  1.0
  H  H1908  1  0.865300  0.959700  0.832800  1.0
  H  H1909  1  0.126900  0.634700  0.667200  1.0
  H  H1910  1  0.540300  0.532500  0.667200  1.0
  H  H1911  1  0.032500  0.626900  0.167200  1.0
  H  H1912  1  0.134700  0.040300  0.167200  1.0
  H  H1913  1  0.780100  0.527500  0.414000  1.0
  H  H1914  1  0.633900  0.386500  0.414000  1.0
  H  H1915  1  0.886500  0.280100  0.914000  1.0
  H  H1916  1  0.027500  0.133900  0.914000  1.0
  H  H1917  1  0.219900  0.472500  0.586000  1.0
  H  H1918  1  0.366100  0.613500  0.586000  1.0
  H  H1919  1  0.113500  0.719900  0.086000  1.0
  H  H1920  1  0.972500  0.866100  0.086000  1.0
  H  H1921  1  0.726200  0.477700  0.370000  1.0
  H  H1922  1  0.643800  0.392300  0.370000  1.0
  H  H1923  1  0.892300  0.226200  0.870000  1.0
  H  H1924  1  0.977700  0.143800  0.870000  1.0
  H  H1925  1  0.273800  0.522300  0.630000  1.0
  H  H1926  1  0.356200  0.607700  0.630000  1.0
  H  H1927  1  0.107700  0.773800  0.130000  1.0
  H  H1928  1  0.022300  0.856200  0.130000  1.0
  H  H1929  1  0.775900  0.412300  0.340200  1.0
  H  H1930  1  0.564300  0.427900  0.340200  1.0
  H  H1931  1  0.927900  0.275900  0.840200  1.0
  H  H1932  1  0.912300  0.064300  0.840200  1.0
  H  H1933  1  0.224100  0.587700  0.659800  1.0
  H  H1934  1  0.435700  0.572100  0.659800  1.0
  H  H1935  1  0.072100  0.724100  0.159800  1.0
  H  H1936  1  0.087700  0.935700  0.159800  1.0
  H  H1937  1  0.905100  0.496000  0.450600  1.0
  H  H1938  1  0.545500  0.454600  0.450600  1.0
  H  H1939  1  0.954600  0.405100  0.950600  1.0
  H  H1940  1  0.996000  0.045500  0.950600  1.0
  H  H1941  1  0.094900  0.504000  0.549400  1.0
  H  H1942  1  0.454500  0.545400  0.549400  1.0
  H  H1943  1  0.045400  0.594900  0.049400  1.0
  H  H1944  1  0.004000  0.954500  0.049400  1.0
  H  H1945  1  0.873400  0.557000  0.447200  1.0
  H  H1946  1  0.573800  0.390200  0.447200  1.0
  H  H1947  1  0.890200  0.373400  0.947200  1.0
  H  H1948  1  0.057000  0.073800  0.947200  1.0
  H  H1949  1  0.126600  0.443000  0.552800  1.0
  H  H1950  1  0.426200  0.609800  0.552800  1.0
  H  H1951  1  0.109800  0.626600  0.052800  1.0
  H  H1952  1  0.943000  0.926200  0.052800  1.0
  H  H1953  1  0.934100  0.542000  0.437000  1.0
  H  H1954  1  0.502900  0.395000  0.437000  1.0
  H  H1955  1  0.895000  0.434100  0.937000  1.0
  H  H1956  1  0.042000  0.002900  0.937000  1.0
  H  H1957  1  0.065900  0.458000  0.563000  1.0
  H  H1958  1  0.497100  0.605000  0.563000  1.0
  H  H1959  1  0.105000  0.565900  0.063000  1.0
  H  H1960  1  0.958000  0.997100  0.063000  1.0
  N  N1961  1  0.845150  0.439550  0.296900  1
  N  N1962  1  0.451750  0.357350  0.296900  1
  N  N1963  1  0.857350  0.345150  0.796900  1
  N  N1964  1  0.939550  0.951750  0.796900  1
  N  N1965  1  0.154850  0.560450  0.703100  1
  N  N1966  1  0.548250  0.642650  0.703100  1
  N  N1967  1  0.142650  0.654850  0.203100  1
  N  N1968  1  0.060450  0.048250  0.203100  1
  N  N1969  1  0.900170  0.893570  0.239140  1
  N  N1970  1  0.338970  0.845570  0.239140  1
  N  N1971  1  0.345570  0.400170  0.739140  1
  N  N1972  1  0.393570  0.838970  0.739140  1
  N  N1973  1  0.099830  0.106430  0.760860  1
  N  N1974  1  0.661030  0.154430  0.760860  1
  N  N1975  1  0.654430  0.599830  0.260860  1
  N  N1976  1  0.606430  0.161030  0.260860  1
  N  N1977  1  0.292680  0.042080  0.182160  1
  N  N1978  1  0.889480  0.640080  0.182160  1
  N  N1979  1  0.140080  0.792680  0.682160  1
  N  N1980  1  0.542080  0.389480  0.682160  1
  N  N1981  1  0.707320  0.957920  0.817840  1
  N  N1982  1  0.110520  0.359920  0.817840  1
  N  N1983  1  0.859920  0.207320  0.317840  1
  N  N1984  1  0.457920  0.610520  0.317840  1
  N  N1985  1  0.884700  0.779400  0.375400  1
  N  N1986  1  0.490700  0.096000  0.375400  1
  N  N1987  1  0.596000  0.384700  0.875400  1
  N  N1988  1  0.279400  0.990700  0.875400  1
  N  N1989  1  0.115300  0.220600  0.624600  1
  N  N1990  1  0.509300  0.904000  0.624600  1
  N  N1991  1  0.404000  0.615300  0.124600  1
  N  N1992  1  0.720600  0.009300  0.124600  1
  N  N1993  1  0.378140  0.069540  0.426880  1
  N  N1994  1  0.048740  0.857340  0.426880  1
  N  N1995  1  0.357340  0.878140  0.926880  1
  N  N1996  1  0.569540  0.548740  0.926880  1
  N  N1997  1  0.621860  0.930460  0.573120  1
  N  N1998  1  0.951260  0.142660  0.573120  1
  N  N1999  1  0.642660  0.121860  0.073120  1
  N  N2000  1  0.430460  0.451260  0.073120  1
  N  N2001  1  0.201940  0.951940  0.403880  1
  N  N2002  1  0.451940  0.701940  0.903880  1
  N  N2003  1  0.798060  0.048060  0.596120  1
  N  N2004  1  0.548060  0.298060  0.096120  1
  N  N2005  1  0.627530  0.552330  0.098060  1.0
  N  N2006  1  0.470530  0.045730  0.098060  1.0
  N  N2007  1  0.545730  0.127530  0.598060  1.0
  N  N2008  1  0.052330  0.970530  0.598060  1.0
  N  N2009  1  0.372470  0.447670  0.901940  1.0
  N  N2010  1  0.529470  0.954270  0.901940  1.0
  N  N2011  1  0.454270  0.872470  0.401940  1.0
  N  N2012  1  0.947670  0.029470  0.401940  1.0
  N  N2013  1  0.700270  0.642070  0.133340  1.0
  N  N2014  1  0.433070  0.991270  0.133340  1.0
  N  N2015  1  0.491270  0.200270  0.633340  1.0
  N  N2016  1  0.142070  0.933070  0.633340  1.0
  N  N2017  1  0.299730  0.357930  0.866660  1.0
  N  N2018  1  0.566930  0.008730  0.866660  1.0
  N  N2019  1  0.508730  0.799730  0.366660  1.0
  N  N2020  1  0.857930  0.066930  0.366660  1.0
  N  N2021  1  0.817730  0.826430  0.148860  1.0
  N  N2022  1  0.331130  0.822430  0.148860  1.0
  N  N2023  1  0.322430  0.317730  0.648860  1.0
  N  N2024  1  0.326430  0.831130  0.648860  1.0
  N  N2025  1  0.182270  0.173570  0.851140  1.0
  N  N2026  1  0.668870  0.177570  0.851140  1.0
  N  N2027  1  0.677570  0.682270  0.351140  1.0
  N  N2028  1  0.673570  0.168870  0.351140  1.0
  N  N2029  1  0.846530  0.907230  0.123460  1.0
  N  N2030  1  0.276930  0.716230  0.123460  1.0
  N  N2031  1  0.216230  0.346530  0.623460  1.0
  N  N2032  1  0.407230  0.776930  0.623460  1.0
  N  N2033  1  0.153470  0.092770  0.876540  1.0
  N  N2034  1  0.723070  0.283770  0.876540  1.0
  N  N2035  1  0.783770  0.653470  0.376540  1.0
  N  N2036  1  0.592770  0.223070  0.376540  1.0
  N  N2037  1  0.811280  0.001480  0.419360  1.0
  N  N2038  1  0.608080  0.917880  0.419360  1.0
  N  N2039  1  0.417880  0.311280  0.919360  1.0
  N  N2040  1  0.501480  0.108080  0.919360  1.0
  N  N2041  1  0.188720  0.998520  0.580640  1.0
  N  N2042  1  0.391920  0.082120  0.580640  1.0
  N  N2043  1  0.582120  0.688720  0.080640  1.0
  N  N2044  1  0.498520  0.891920  0.080640  1.0
  N  N2045  1  0.861820  0.110520  0.443240  1.0
  N  N2046  1  0.581420  0.832720  0.443240  1.0
  N  N2047  1  0.332720  0.361820  0.943240  1.0
  N  N2048  1  0.610520  0.081420  0.943240  1.0
  N  N2049  1  0.138180  0.889480  0.556760  1.0
  N  N2050  1  0.418580  0.167280  0.556760  1.0
  N  N2051  1  0.667280  0.638180  0.056760  1.0
  N  N2052  1  0.389480  0.918580  0.056760  1.0
  N  N2053  1  0.736810  0.794410  0.413020  1.0
  N  N2054  1  0.676210  0.118610  0.413020  1.0
  N  N2055  1  0.618610  0.236810  0.913020  1.0
  N  N2056  1  0.294410  0.176210  0.913020  1.0
  N  N2057  1  0.263190  0.205590  0.586980  1.0
  N  N2058  1  0.323790  0.881390  0.586980  1.0
  N  N2059  1  0.381390  0.763190  0.086980  1.0
  N  N2060  1  0.705590  0.823790  0.086980  1.0
  N  N2061  1  0.704430  0.696930  0.427660  1.0
  N  N2062  1  0.723230  0.230730  0.427660  1.0
  N  N2063  1  0.730730  0.204430  0.927660  1.0
  N  N2064  1  0.196930  0.223230  0.927660  1.0
  N  N2065  1  0.295570  0.303070  0.572340  1.0
  N  N2066  1  0.276770  0.769270  0.572340  1.0
  N  N2067  1  0.269270  0.795570  0.072340  1.0
  N  N2068  1  0.803070  0.776770  0.072340  1.0
  N  N2069  1  0.094250  0.047750  0.059300  1.0
  N  N2070  1  0.965050  0.511550  0.059300  1.0
  N  N2071  1  0.011550  0.594250  0.559300  1.0
  N  N2072  1  0.547750  0.465050  0.559300  1.0
  N  N2073  1  0.905750  0.952250  0.940700  1.0
  N  N2074  1  0.034950  0.488450  0.940700  1.0
  N  N2075  1  0.988450  0.405750  0.440700  1.0
  N  N2076  1  0.452250  0.534950  0.440700  1.0
  N  N2077  1  0.036100  0.140200  0.081200  1.0
  N  N2078  1  0.045100  0.441000  0.081200  1.0
  N  N2079  1  0.941000  0.536100  0.581200  1.0
  N  N2080  1  0.640200  0.545100  0.581200  1.0
  N  N2081  1  0.963900  0.859800  0.918800  1.0
  N  N2082  1  0.954900  0.559000  0.918800  1.0
  N  N2083  1  0.059000  0.463900  0.418800  1.0
  N  N2084  1  0.359800  0.454900  0.418800  1.0
  N  N2085  1  0.906070  0.313170  0.084940  1.0
  N  N2086  1  0.178870  0.271770  0.084940  1.0
  N  N2087  1  0.771770  0.406070  0.584940  1.0
  N  N2088  1  0.813170  0.678870  0.584940  1.0
  N  N2089  1  0.093930  0.686830  0.915060  1.0
  N  N2090  1  0.821130  0.728230  0.915060  1.0
  N  N2091  1  0.228230  0.593930  0.415060  1.0
  N  N2092  1  0.186830  0.321130  0.415060  1.0
  N  N2093  1  0.821950  0.382650  0.064900  1.0
  N  N2094  1  0.242950  0.182250  0.064900  1.0
  N  N2095  1  0.682250  0.321950  0.564900  1.0
  N  N2096  1  0.882650  0.742950  0.564900  1.0
  N  N2097  1  0.178050  0.617350  0.935100  1.0
  N  N2098  1  0.757050  0.817750  0.935100  1.0
  N  N2099  1  0.317750  0.678050  0.435100  1.0
  N  N2100  1  0.117350  0.257050  0.435100  1.0
  N  N2101  1  0.088610  0.219510  0.358620  1.0
  N  N2102  1  0.270010  0.639110  0.358620  1.0
  N  N2103  1  0.139110  0.588610  0.858620  1.0
  N  N2104  1  0.719510  0.770010  0.858620  1.0
  N  N2105  1  0.911390  0.780490  0.641380  1.0
  N  N2106  1  0.729990  0.360890  0.641380  1.0
  N  N2107  1  0.860890  0.411390  0.141380  1.0
  N  N2108  1  0.280490  0.229990  0.141380  1.0
  N  N2109  1  0.171680  0.159280  0.385760  1.0
  N  N2110  1  0.214080  0.726480  0.385760  1.0
  N  N2111  1  0.226480  0.671680  0.885760  1.0
  N  N2112  1  0.659280  0.714080  0.885760  1.0
  N  N2113  1  0.828320  0.840720  0.614240  1.0
  N  N2114  1  0.785920  0.273520  0.614240  1.0
  N  N2115  1  0.773520  0.328320  0.114240  1.0
  N  N2116  1  0.340720  0.285920  0.114240  1.0
  N  N2117  1  0.946250  0.375150  0.362900  1.0
  N  N2118  1  0.416650  0.487750  0.362900  1.0
  N  N2119  1  0.987750  0.446250  0.862900  1.0
  N  N2120  1  0.875150  0.916650  0.862900  1.0
  N  N2121  1  0.053750  0.624850  0.637100  1.0
  N  N2122  1  0.583350  0.512250  0.637100  1.0
  N  N2123  1  0.012250  0.553750  0.137100  1.0
  N  N2124  1  0.124850  0.083350  0.137100  1.0
  N  N2125  1  0.889720  0.457020  0.393440  1.0
  N  N2126  1  0.503720  0.436420  0.393440  1.0
  N  N2127  1  0.936420  0.389720  0.893440  1.0
  N  N2128  1  0.957020  0.003720  0.893440  1.0
  N  N2129  1  0.110280  0.542980  0.606560  1.0
  N  N2130  1  0.496280  0.563580  0.606560  1.0
  N  N2131  1  0.063580  0.610280  0.106560  1.0
  N  N2132  1  0.042980  0.996280  0.106560  1.0
  P  P2133  1  0.411970  0.143680  0.001980  1
  P  P2134  1  0.590010  0.358300  0.001980  1
  P  P2135  1  0.858300  0.911970  0.501980  1
  P  P2136  1  0.643680  0.090010  0.501980  1
  P  P2137  1  0.588030  0.856320  0.998020  1
  P  P2138  1  0.409990  0.641700  0.998020  1
  P  P2139  1  0.141700  0.088030  0.498020  1
  P  P2140  1  0.356320  0.909990  0.498020  1
  P  P2141  1  0.437410  0.189800  0.218600  1
  P  P2142  1  0.781190  0.528800  0.218600  1
  P  P2143  1  0.028800  0.937410  0.718600  1
  P  P2144  1  0.689800  0.281190  0.718600  1
  P  P2145  1  0.562590  0.810200  0.781400  1
  P  P2146  1  0.218810  0.471200  0.781400  1
  P  P2147  1  0.971200  0.062590  0.281400  1
  P  P2148  1  0.310200  0.718810  0.281400  1
  P  P2149  1  0.839210  0.104570  0.053440  1
  P  P2150  1  0.214230  0.448870  0.053440  1
  P  P2151  1  0.948870  0.339210  0.553440  1
  P  P2152  1  0.604570  0.714230  0.553440  1
  P  P2153  1  0.160790  0.895430  0.946560  1
  P  P2154  1  0.785770  0.551130  0.946560  1
  P  P2155  1  0.051130  0.660790  0.446560  1
  P  P2156  1  0.395430  0.285770  0.446560  1
  P  P2157  1  0.006100  0.756100  0.012200  1
  P  P2158  1  0.256100  0.506100  0.512200  1
  P  P2159  1  0.993900  0.243900  0.987800  1
  P  P2160  1  0.743900  0.493900  0.487800  1
  P  P2161  1  0.996310  0.801810  0.201420  1
  P  P2162  1  0.205110  0.899610  0.201420  1
  P  P2163  1  0.399610  0.496310  0.701420  1
  P  P2164  1  0.301810  0.705110  0.701420  1
  P  P2165  1  0.003690  0.198190  0.798580  1
  P  P2166  1  0.794890  0.100390  0.798580  1
  P  P2167  1  0.600390  0.503690  0.298580  1
  P  P2168  1  0.698190  0.294890  0.298580  1
