# generated using pymatgen
data_Ag12B7H237C279(N24F17)2
_symmetry_space_group_name_H-M   'P 1'
_cell_length_a   25.51450784
_cell_length_b   25.51450784
_cell_length_c   25.51450784
_cell_angle_alpha   87.87602770
_cell_angle_beta   87.87602770
_cell_angle_gamma   87.87602770
_symmetry_Int_Tables_number   1
_chemical_formula_structural   Ag12B7H237C279(N24F17)2
_chemical_formula_sum   'Ag24 B14 H474 C558 N96 F68'
_cell_volume   16576.28215256
_cell_formula_units_Z   2
loop_
 _symmetry_equiv_pos_site_id
 _symmetry_equiv_pos_as_xyz
  1  'x, y, z'
loop_
 _atom_site_type_symbol
 _atom_site_label
 _atom_site_symmetry_multiplicity
 _atom_site_fract_x
 _atom_site_fract_y
 _atom_site_fract_z
 _atom_site_occupancy
  Ag  Ag1  1  0.374595  0.054665  0.194465  1.0
  Ag  Ag2  1  0.194465  0.374595  0.054665  1.0
  Ag  Ag3  1  0.054665  0.194465  0.374595  1.0
  Ag  Ag4  1  0.805535  0.945335  0.625405  1.0
  Ag  Ag5  1  0.945335  0.625405  0.805535  1.0
  Ag  Ag6  1  0.625405  0.805535  0.945335  1.0
  Ag  Ag7  1  0.494704  0.404334  0.841084  1.0
  Ag  Ag8  1  0.841084  0.494704  0.404334  1.0
  Ag  Ag9  1  0.404334  0.841084  0.494704  1.0
  Ag  Ag10  1  0.158916  0.595666  0.505296  1.0
  Ag  Ag11  1  0.595666  0.505296  0.158916  1.0
  Ag  Ag12  1  0.505296  0.158916  0.595666  1.0
  Ag  Ag13  1  0.693947  0.340927  0.808817  1.0
  Ag  Ag14  1  0.808817  0.693947  0.340927  1.0
  Ag  Ag15  1  0.340927  0.808817  0.693947  1.0
  Ag  Ag16  1  0.191183  0.659073  0.306053  1.0
  Ag  Ag17  1  0.659073  0.306053  0.191183  1.0
  Ag  Ag18  1  0.306053  0.191183  0.659073  1.0
  Ag  Ag19  1  0.691006  0.941136  0.079786  1.0
  Ag  Ag20  1  0.079786  0.691006  0.941136  1.0
  Ag  Ag21  1  0.941136  0.079786  0.691006  1.0
  Ag  Ag22  1  0.920214  0.058864  0.308994  1.0
  Ag  Ag23  1  0.058864  0.308994  0.920214  1.0
  Ag  Ag24  1  0.308994  0.920214  0.058864  1.0
  B  B25  1  0.151600  0.923900  0.765000  1
  B  B26  1  0.765000  0.151600  0.923900  1
  B  B27  1  0.923900  0.765000  0.151600  1
  B  B28  1  0.235000  0.076100  0.848400  1
  B  B29  1  0.076100  0.848400  0.235000  1
  B  B30  1  0.848400  0.235000  0.076100  1
  B  B31  1  0.588500  0.921500  0.719600  1
  B  B32  1  0.719600  0.588500  0.921500  1
  B  B33  1  0.921500  0.719600  0.588500  1
  B  B34  1  0.280400  0.078500  0.411500  1
  B  B35  1  0.078500  0.411500  0.280400  1
  B  B36  1  0.411500  0.280400  0.078500  1
  B  B37  1  0.642467  0.642467  0.642467  1
  B  B38  1  0.357533  0.357533  0.357533  1
  C  C39  1  0.236300  0.170400  0.541500  1
  C  C40  1  0.541500  0.236300  0.170400  1
  C  C41  1  0.170400  0.541500  0.236300  1
  C  C42  1  0.458500  0.829600  0.763700  1
  C  C43  1  0.829600  0.763700  0.458500  1
  C  C44  1  0.763700  0.458500  0.829600  1
  C  C45  1  0.259800  0.027500  0.267500  1.0
  C  C46  1  0.267500  0.259800  0.027500  1.0
  C  C47  1  0.027500  0.267500  0.259800  1.0
  C  C48  1  0.732500  0.972500  0.740200  1.0
  C  C49  1  0.972500  0.740200  0.732500  1.0
  C  C50  1  0.740200  0.732500  0.972500  1.0
  C  C51  1  0.296200  0.980500  0.268200  1.0
  C  C52  1  0.268200  0.296200  0.980500  1.0
  C  C53  1  0.980500  0.268200  0.296200  1.0
  C  C54  1  0.731800  0.019500  0.703800  1.0
  C  C55  1  0.019500  0.703800  0.731800  1.0
  C  C56  1  0.703800  0.731800  0.019500  1.0
  C  C57  1  0.286700  0.939400  0.300500  1.0
  C  C58  1  0.300500  0.286700  0.939400  1.0
  C  C59  1  0.939400  0.300500  0.286700  1.0
  C  C60  1  0.699500  0.060600  0.713300  1.0
  C  C61  1  0.060600  0.713300  0.699500  1.0
  C  C62  1  0.713300  0.699500  0.060600  1.0
  C  C63  1  0.319900  0.895000  0.300300  1.0
  C  C64  1  0.300300  0.319900  0.895000  1.0
  C  C65  1  0.895000  0.300300  0.319900  1.0
  C  C66  1  0.699700  0.105000  0.680100  1.0
  C  C67  1  0.105000  0.680100  0.699700  1.0
  C  C68  1  0.680100  0.699700  0.105000  1.0
  C  C69  1  0.360200  0.891800  0.263500  1.0
  C  C70  1  0.263500  0.360200  0.891800  1.0
  C  C71  1  0.891800  0.263500  0.360200  1.0
  C  C72  1  0.736500  0.108200  0.639800  1.0
  C  C73  1  0.108200  0.639800  0.736500  1.0
  C  C74  1  0.639800  0.736500  0.108200  1.0
  C  C75  1  0.370000  0.936300  0.236800  1.0
  C  C76  1  0.236800  0.370000  0.936300  1.0
  C  C77  1  0.936300  0.236800  0.370000  1.0
  C  C78  1  0.763200  0.063700  0.630000  1.0
  C  C79  1  0.063700  0.630000  0.763200  1.0
  C  C80  1  0.630000  0.763200  0.063700  1.0
  C  C81  1  0.416500  0.939900  0.199300  1.0
  C  C82  1  0.199300  0.416500  0.939900  1.0
  C  C83  1  0.939900  0.199300  0.416500  1.0
  C  C84  1  0.800700  0.060100  0.583500  1.0
  C  C85  1  0.060100  0.583500  0.800700  1.0
  C  C86  1  0.583500  0.800700  0.060100  1.0
  C  C87  1  0.478000  0.985700  0.146600  1.0
  C  C88  1  0.146600  0.478000  0.985700  1.0
  C  C89  1  0.985700  0.146600  0.478000  1.0
  C  C90  1  0.853400  0.014300  0.522000  1.0
  C  C91  1  0.014300  0.522000  0.853400  1.0
  C  C92  1  0.522000  0.853400  0.014300  1.0
  C  C93  1  0.520700  0.949100  0.153100  1.0
  C  C94  1  0.153100  0.520700  0.949100  1.0
  C  C95  1  0.949100  0.153100  0.520700  1.0
  C  C96  1  0.846900  0.050900  0.479300  1.0
  C  C97  1  0.050900  0.479300  0.846900  1.0
  C  C98  1  0.479300  0.846900  0.050900  1.0
  C  C99  1  0.566600  0.956700  0.122100  1.0
  C  C100  1  0.122100  0.566600  0.956700  1.0
  C  C101  1  0.956700  0.122100  0.566600  1.0
  C  C102  1  0.877900  0.043300  0.433400  1.0
  C  C103  1  0.043300  0.433400  0.877900  1.0
  C  C104  1  0.433400  0.877900  0.043300  1.0
  C  C105  1  0.568400  0.999400  0.086900  1.0
  C  C106  1  0.086900  0.568400  0.999400  1.0
  C  C107  1  0.999400  0.086900  0.568400  1.0
  C  C108  1  0.913100  0.000600  0.431600  1.0
  C  C109  1  0.000600  0.431600  0.913100  1.0
  C  C110  1  0.431600  0.913100  0.000600  1.0
  C  C111  1  0.529400  0.037400  0.082200  1.0
  C  C112  1  0.082200  0.529400  0.037400  1.0
  C  C113  1  0.037400  0.082200  0.529400  1.0
  C  C114  1  0.917800  0.962600  0.470600  1.0
  C  C115  1  0.962600  0.470600  0.917800  1.0
  C  C116  1  0.470600  0.917800  0.962600  1.0
  C  C117  1  0.483500  0.029700  0.113000  1.0
  C  C118  1  0.113000  0.483500  0.029700  1.0
  C  C119  1  0.029700  0.113000  0.483500  1.0
  C  C120  1  0.887000  0.970300  0.516500  1.0
  C  C121  1  0.970300  0.516500  0.887000  1.0
  C  C122  1  0.516500  0.887000  0.970300  1.0
  C  C123  1  0.536100  0.085500  0.048400  1.0
  C  C124  1  0.048400  0.536100  0.085500  1.0
  C  C125  1  0.085500  0.048400  0.536100  1.0
  C  C126  1  0.951600  0.914500  0.463900  1.0
  C  C127  1  0.914500  0.463900  0.951600  1.0
  C  C128  1  0.463900  0.951600  0.914500  1.0
  C  C129  1  0.516700  0.133600  0.064400  1.0
  C  C130  1  0.064400  0.516700  0.133600  1.0
  C  C131  1  0.133600  0.064400  0.516700  1.0
  C  C132  1  0.935600  0.866400  0.483300  1.0
  C  C133  1  0.866400  0.483300  0.935600  1.0
  C  C134  1  0.483300  0.935600  0.866400  1.0
  C  C135  1  0.525500  0.179400  0.035000  1.0
  C  C136  1  0.035000  0.525500  0.179400  1.0
  C  C137  1  0.179400  0.035000  0.525500  1.0
  C  C138  1  0.965000  0.820600  0.474500  1.0
  C  C139  1  0.820600  0.474500  0.965000  1.0
  C  C140  1  0.474500  0.965000  0.820600  1.0
  C  C141  1  0.557640  0.178940  0.988740  1.0
  C  C142  1  0.988740  0.557640  0.178940  1.0
  C  C143  1  0.178940  0.988740  0.557640  1.0
  C  C144  1  0.011260  0.821060  0.442360  1.0
  C  C145  1  0.821060  0.442360  0.011260  1.0
  C  C146  1  0.442360  0.011260  0.821060  1.0
  C  C147  1  0.574900  0.129900  0.972100  1.0
  C  C148  1  0.972100  0.574900  0.129900  1.0
  C  C149  1  0.129900  0.972100  0.574900  1.0
  C  C150  1  0.027900  0.870100  0.425100  1.0
  C  C151  1  0.870100  0.425100  0.027900  1.0
  C  C152  1  0.425100  0.027900  0.870100  1.0
  C  C153  1  0.564900  0.084000  0.000400  1.0
  C  C154  1  0.000400  0.564900  0.084000  1.0
  C  C155  1  0.084000  0.000400  0.564900  1.0
  C  C156  1  0.999600  0.916000  0.435100  1.0
  C  C157  1  0.916000  0.435100  0.999600  1.0
  C  C158  1  0.435100  0.999600  0.916000  1.0
  C  C159  1  0.567620  0.226720  0.958520  1.0
  C  C160  1  0.958520  0.567620  0.226720  1.0
  C  C161  1  0.226720  0.958520  0.567620  1.0
  C  C162  1  0.041480  0.773280  0.432380  1.0
  C  C163  1  0.773280  0.432380  0.041480  1.0
  C  C164  1  0.432380  0.041480  0.773280  1.0
  C  C165  1  0.528170  0.266270  0.953170  1.0
  C  C166  1  0.953170  0.528170  0.266270  1.0
  C  C167  1  0.266270  0.953170  0.528170  1.0
  C  C168  1  0.046830  0.733730  0.471830  1.0
  C  C169  1  0.733730  0.471830  0.046830  1.0
  C  C170  1  0.471830  0.046830  0.733730  1.0
  C  C171  1  0.536870  0.312970  0.922670  1.0
  C  C172  1  0.922670  0.536870  0.312970  1.0
  C  C173  1  0.312970  0.922670  0.536870  1.0
  C  C174  1  0.077330  0.687030  0.463130  1.0
  C  C175  1  0.687030  0.463130  0.077330  1.0
  C  C176  1  0.463130  0.077330  0.687030  1.0
  C  C177  1  0.584600  0.319300  0.899900  1.0
  C  C178  1  0.899900  0.584600  0.319300  1.0
  C  C179  1  0.319300  0.899900  0.584600  1.0
  C  C180  1  0.100100  0.680700  0.415400  1.0
  C  C181  1  0.680700  0.415400  0.100100  1.0
  C  C182  1  0.415400  0.100100  0.680700  1.0
  C  C183  1  0.626700  0.284700  0.908900  1.0
  C  C184  1  0.908900  0.626700  0.284700  1.0
  C  C185  1  0.284700  0.908900  0.626700  1.0
  C  C186  1  0.091100  0.715300  0.373300  1.0
  C  C187  1  0.715300  0.373300  0.091100  1.0
  C  C188  1  0.373300  0.091100  0.715300  1.0
  C  C189  1  0.617840  0.236240  0.937240  1.0
  C  C190  1  0.937240  0.617840  0.236240  1.0
  C  C191  1  0.236240  0.937240  0.617840  1.0
  C  C192  1  0.062760  0.763760  0.382160  1.0
  C  C193  1  0.763760  0.382160  0.062760  1.0
  C  C194  1  0.382160  0.062760  0.763760  1.0
  C  C195  1  0.462200  0.359700  0.948000  1.0
  C  C196  1  0.948000  0.462200  0.359700  1.0
  C  C197  1  0.359700  0.948000  0.462200  1.0
  C  C198  1  0.052000  0.640300  0.537800  1.0
  C  C199  1  0.640300  0.537800  0.052000  1.0
  C  C200  1  0.537800  0.052000  0.640300  1.0
  C  C201  1  0.418300  0.398500  0.939300  1.0
  C  C202  1  0.939300  0.418300  0.398500  1.0
  C  C203  1  0.398500  0.939300  0.418300  1.0
  C  C204  1  0.060700  0.601500  0.581700  1.0
  C  C205  1  0.601500  0.581700  0.060700  1.0
  C  C206  1  0.581700  0.060700  0.601500  1.0
  C  C207  1  0.378500  0.407500  0.977000  1.0
  C  C208  1  0.977000  0.378500  0.407500  1.0
  C  C209  1  0.407500  0.977000  0.378500  1.0
  C  C210  1  0.023000  0.592500  0.621500  1.0
  C  C211  1  0.592500  0.621500  0.023000  1.0
  C  C212  1  0.621500  0.023000  0.592500  1.0
  C  C213  1  0.340200  0.444200  0.967500  1.0
  C  C214  1  0.967500  0.340200  0.444200  1.0
  C  C215  1  0.444200  0.967500  0.340200  1.0
  C  C216  1  0.032500  0.555800  0.659800  1.0
  C  C217  1  0.555800  0.659800  0.032500  1.0
  C  C218  1  0.659800  0.032500  0.555800  1.0
  C  C219  1  0.341200  0.471400  0.919200  1.0
  C  C220  1  0.919200  0.341200  0.471400  1.0
  C  C221  1  0.471400  0.919200  0.341200  1.0
  C  C222  1  0.080800  0.528600  0.658800  1.0
  C  C223  1  0.528600  0.658800  0.080800  1.0
  C  C224  1  0.658800  0.080800  0.528600  1.0
  C  C225  1  0.378700  0.461400  0.882400  1.0
  C  C226  1  0.882400  0.378700  0.461400  1.0
  C  C227  1  0.461400  0.882400  0.378700  1.0
  C  C228  1  0.117600  0.538600  0.621300  1.0
  C  C229  1  0.538600  0.621300  0.117600  1.0
  C  C230  1  0.621300  0.117600  0.538600  1.0
  C  C231  1  0.379700  0.489200  0.831100  1.0
  C  C232  1  0.831100  0.379700  0.489200  1.0
  C  C233  1  0.489200  0.831100  0.379700  1.0
  C  C234  1  0.168900  0.510800  0.620300  1.0
  C  C235  1  0.510800  0.620300  0.168900  1.0
  C  C236  1  0.620300  0.168900  0.510800  1.0
  C  C237  1  0.719080  0.286880  0.914480  1.0
  C  C238  1  0.914480  0.719080  0.286880  1.0
  C  C239  1  0.286880  0.914480  0.719080  1.0
  C  C240  1  0.085520  0.713120  0.280920  1.0
  C  C241  1  0.713120  0.280920  0.085520  1.0
  C  C242  1  0.280920  0.085520  0.713120  1.0
  C  C243  1  0.769100  0.303800  0.895000  1.0
  C  C244  1  0.895000  0.769100  0.303800  1.0
  C  C245  1  0.303800  0.895000  0.769100  1.0
  C  C246  1  0.105000  0.696200  0.230900  1.0
  C  C247  1  0.696200  0.230900  0.105000  1.0
  C  C248  1  0.230900  0.105000  0.696200  1.0
  C  C249  1  0.811000  0.311900  0.931100  1.0
  C  C250  1  0.931100  0.811000  0.311900  1.0
  C  C251  1  0.311900  0.931100  0.811000  1.0
  C  C252  1  0.068900  0.688100  0.189000  1.0
  C  C253  1  0.688100  0.189000  0.068900  1.0
  C  C254  1  0.189000  0.068900  0.688100  1.0
  C  C255  1  0.854400  0.335400  0.914300  1.0
  C  C256  1  0.914300  0.854400  0.335400  1.0
  C  C257  1  0.335400  0.914300  0.854400  1.0
  C  C258  1  0.085700  0.664600  0.145600  1.0
  C  C259  1  0.664600  0.145600  0.085700  1.0
  C  C260  1  0.145600  0.085700  0.664600  1.0
  C  C261  1  0.860300  0.349900  0.863900  1.0
  C  C262  1  0.863900  0.860300  0.349900  1.0
  C  C263  1  0.349900  0.863900  0.860300  1.0
  C  C264  1  0.136100  0.650100  0.139700  1.0
  C  C265  1  0.650100  0.139700  0.136100  1.0
  C  C266  1  0.139700  0.136100  0.650100  1.0
  C  C267  1  0.819800  0.340200  0.826800  1.0
  C  C268  1  0.826800  0.819800  0.340200  1.0
  C  C269  1  0.340200  0.826800  0.819800  1.0
  C  C270  1  0.173200  0.659800  0.180200  1.0
  C  C271  1  0.659800  0.180200  0.173200  1.0
  C  C272  1  0.180200  0.173200  0.659800  1.0
  C  C273  1  0.826400  0.356100  0.770400  1.0
  C  C274  1  0.770400  0.826400  0.356100  1.0
  C  C275  1  0.356100  0.770400  0.826400  1.0
  C  C276  1  0.229600  0.643900  0.173600  1.0
  C  C277  1  0.643900  0.173600  0.229600  1.0
  C  C278  1  0.173600  0.229600  0.643900  1.0
  C  C279  1  0.618800  0.888400  0.163400  1.0
  C  C280  1  0.163400  0.618800  0.888400  1.0
  C  C281  1  0.888400  0.163400  0.618800  1.0
  C  C282  1  0.836600  0.111600  0.381200  1.0
  C  C283  1  0.111600  0.381200  0.836600  1.0
  C  C284  1  0.381200  0.836600  0.111600  1.0
  C  C285  1  0.666800  0.857200  0.167000  1.0
  C  C286  1  0.167000  0.666800  0.857200  1.0
  C  C287  1  0.857200  0.167000  0.666800  1.0
  C  C288  1  0.833000  0.142800  0.333200  1.0
  C  C289  1  0.142800  0.333200  0.833000  1.0
  C  C290  1  0.333200  0.833000  0.142800  1.0
  C  C291  1  0.676100  0.819600  0.206700  1.0
  C  C292  1  0.206700  0.676100  0.819600  1.0
  C  C293  1  0.819600  0.206700  0.676100  1.0
  C  C294  1  0.793300  0.180400  0.323900  1.0
  C  C295  1  0.180400  0.323900  0.793300  1.0
  C  C296  1  0.323900  0.793300  0.180400  1.0
  C  C297  1  0.720100  0.792200  0.209600  1.0
  C  C298  1  0.209600  0.720100  0.792200  1.0
  C  C299  1  0.792200  0.209600  0.720100  1.0
  C  C300  1  0.790400  0.207800  0.279900  1.0
  C  C301  1  0.207800  0.279900  0.790400  1.0
  C  C302  1  0.279900  0.790400  0.207800  1.0
  C  C303  1  0.757900  0.799900  0.174000  1.0
  C  C304  1  0.174000  0.757900  0.799900  1.0
  C  C305  1  0.799900  0.174000  0.757900  1.0
  C  C306  1  0.826000  0.200100  0.242100  1.0
  C  C307  1  0.200100  0.242100  0.826000  1.0
  C  C308  1  0.242100  0.826000  0.200100  1.0
  C  C309  1  0.749300  0.838700  0.129100  1.0
  C  C310  1  0.129100  0.749300  0.838700  1.0
  C  C311  1  0.838700  0.129100  0.749300  1.0
  C  C312  1  0.870900  0.161300  0.250700  1.0
  C  C313  1  0.161300  0.250700  0.870900  1.0
  C  C314  1  0.250700  0.870900  0.161300  1.0
  C  C315  1  0.789600  0.849500  0.089100  1.0
  C  C316  1  0.089100  0.789600  0.849500  1.0
  C  C317  1  0.849500  0.089100  0.789600  1.0
  C  C318  1  0.910900  0.150500  0.210400  1.0
  C  C319  1  0.150500  0.210400  0.910900  1.0
  C  C320  1  0.210400  0.910900  0.150500  1.0
  C  C321  1  0.292200  0.802900  0.992300  1.0
  C  C322  1  0.992300  0.292200  0.802900  1.0
  C  C323  1  0.802900  0.992300  0.292200  1.0
  C  C324  1  0.007700  0.197100  0.707800  1.0
  C  C325  1  0.197100  0.707800  0.007700  1.0
  C  C326  1  0.707800  0.007700  0.197100  1.0
  C  C327  1  0.260800  0.846000  0.966500  1.0
  C  C328  1  0.966500  0.260800  0.846000  1.0
  C  C329  1  0.846000  0.966500  0.260800  1.0
  C  C330  1  0.033500  0.154000  0.739200  1.0
  C  C331  1  0.154000  0.739200  0.033500  1.0
  C  C332  1  0.739200  0.033500  0.154000  1.0
  C  C333  1  0.227800  0.836900  0.925200  1.0
  C  C334  1  0.925200  0.227800  0.836900  1.0
  C  C335  1  0.836900  0.925200  0.227800  1.0
  C  C336  1  0.074800  0.163100  0.772200  1.0
  C  C337  1  0.163100  0.772200  0.074800  1.0
  C  C338  1  0.772200  0.074800  0.163100  1.0
  C  C339  1  0.203500  0.878900  0.900000  1.0
  C  C340  1  0.900000  0.203500  0.878900  1.0
  C  C341  1  0.878900  0.900000  0.203500  1.0
  C  C342  1  0.100000  0.121100  0.796500  1.0
  C  C343  1  0.121100  0.796500  0.100000  1.0
  C  C344  1  0.796500  0.100000  0.121100  1.0
  C  C345  1  0.212300  0.929400  0.914500  1.0
  C  C346  1  0.914500  0.212300  0.929400  1.0
  C  C347  1  0.929400  0.914500  0.212300  1.0
  C  C348  1  0.085500  0.070600  0.787700  1.0
  C  C349  1  0.070600  0.787700  0.085500  1.0
  C  C350  1  0.787700  0.085500  0.070600  1.0
  C  C351  1  0.244630  0.935430  0.955730  1.0
  C  C352  1  0.955730  0.244630  0.935430  1.0
  C  C353  1  0.935430  0.955730  0.244630  1.0
  C  C354  1  0.044270  0.064570  0.755370  1.0
  C  C355  1  0.064570  0.755370  0.044270  1.0
  C  C356  1  0.755370  0.044270  0.064570  1.0
  C  C357  1  0.259300  0.987300  0.971000  1.0
  C  C358  1  0.971000  0.259300  0.987300  1.0
  C  C359  1  0.987300  0.971000  0.259300  1.0
  C  C360  1  0.029000  0.012700  0.740700  1.0
  C  C361  1  0.012700  0.740700  0.029000  1.0
  C  C362  1  0.740700  0.029000  0.012700  1.0
  C  C363  1  0.311880  0.042780  0.015280  1.0
  C  C364  1  0.015280  0.311880  0.042780  1.0
  C  C365  1  0.042780  0.015280  0.311880  1.0
  C  C366  1  0.984720  0.957220  0.688120  1.0
  C  C367  1  0.957220  0.688120  0.984720  1.0
  C  C368  1  0.688120  0.984720  0.957220  1.0
  C  C369  1  0.323400  0.056400  0.066100  1.0
  C  C370  1  0.066100  0.323400  0.056400  1.0
  C  C371  1  0.056400  0.066100  0.323400  1.0
  C  C372  1  0.933900  0.943600  0.676600  1.0
  C  C373  1  0.943600  0.676600  0.933900  1.0
  C  C374  1  0.676600  0.933900  0.943600  1.0
  C  C375  1  0.347160  0.102460  0.073560  1.0
  C  C376  1  0.073560  0.347160  0.102460  1.0
  C  C377  1  0.102460  0.073560  0.347160  1.0
  C  C378  1  0.926440  0.897540  0.652840  1.0
  C  C379  1  0.897540  0.652840  0.926440  1.0
  C  C380  1  0.652840  0.926440  0.897540  1.0
  C  C381  1  0.364260  0.134860  0.031260  1.0
  C  C382  1  0.031260  0.364260  0.134860  1.0
  C  C383  1  0.134860  0.031260  0.364260  1.0
  C  C384  1  0.968740  0.865140  0.635740  1.0
  C  C385  1  0.865140  0.635740  0.968740  1.0
  C  C386  1  0.635740  0.968740  0.865140  1.0
  C  C387  1  0.353880  0.120480  0.980780  1.0
  C  C388  1  0.980780  0.353880  0.120480  1.0
  C  C389  1  0.120480  0.980780  0.353880  1.0
  C  C390  1  0.019220  0.879520  0.646120  1.0
  C  C391  1  0.879520  0.646120  0.019220  1.0
  C  C392  1  0.646120  0.019220  0.879520  1.0
  C  C393  1  0.328060  0.073760  0.972560  1.0
  C  C394  1  0.972560  0.328060  0.073760  1.0
  C  C395  1  0.073760  0.972560  0.328060  1.0
  C  C396  1  0.027440  0.926240  0.671940  1.0
  C  C397  1  0.926240  0.671940  0.027440  1.0
  C  C398  1  0.671940  0.027440  0.926240  1.0
  C  C399  1  0.369790  0.154390  0.932490  1.0
  C  C400  1  0.932490  0.369790  0.154390  1.0
  C  C401  1  0.154390  0.932490  0.369790  1.0
  C  C402  1  0.067510  0.845610  0.630210  1.0
  C  C403  1  0.845610  0.630210  0.067510  1.0
  C  C404  1  0.630210  0.067510  0.845610  1.0
  C  C405  1  0.335680  0.159580  0.890880  1.0
  C  C406  1  0.890880  0.335680  0.159580  1.0
  C  C407  1  0.159580  0.890880  0.335680  1.0
  C  C408  1  0.109120  0.840420  0.664320  1.0
  C  C409  1  0.840420  0.664320  0.109120  1.0
  C  C410  1  0.664320  0.109120  0.840420  1.0
  C  C411  1  0.349630  0.188730  0.846730  1.0
  C  C412  1  0.846730  0.349630  0.188730  1.0
  C  C413  1  0.188730  0.846730  0.349630  1.0
  C  C414  1  0.153270  0.811270  0.650370  1.0
  C  C415  1  0.811270  0.650370  0.153270  1.0
  C  C416  1  0.650370  0.153270  0.811270  1.0
  C  C417  1  0.395940  0.212840  0.842040  1.0
  C  C418  1  0.842040  0.395940  0.212840  1.0
  C  C419  1  0.212840  0.842040  0.395940  1.0
  C  C420  1  0.157960  0.787160  0.604060  1.0
  C  C421  1  0.787160  0.604060  0.157960  1.0
  C  C422  1  0.604060  0.157960  0.787160  1.0
  C  C423  1  0.430920  0.206020  0.882820  1.0
  C  C424  1  0.882820  0.430920  0.206020  1.0
  C  C425  1  0.206020  0.882820  0.430920  1.0
  C  C426  1  0.117180  0.793980  0.569080  1.0
  C  C427  1  0.793980  0.569080  0.117180  1.0
  C  C428  1  0.569080  0.117180  0.793980  1.0
  C  C429  1  0.418280  0.176880  0.926880  1.0
  C  C430  1  0.926880  0.418280  0.176880  1.0
  C  C431  1  0.176880  0.926880  0.418280  1.0
  C  C432  1  0.073120  0.823120  0.581720  1.0
  C  C433  1  0.823120  0.581720  0.073120  1.0
  C  C434  1  0.581720  0.073120  0.823120  1.0
  C  C435  1  0.407700  0.247300  0.793000  1.0
  C  C436  1  0.793000  0.407700  0.247300  1.0
  C  C437  1  0.247300  0.793000  0.407700  1.0
  C  C438  1  0.207000  0.752700  0.592300  1.0
  C  C439  1  0.752700  0.592300  0.207000  1.0
  C  C440  1  0.592300  0.207000  0.752700  1.0
  C  C441  1  0.386300  0.238600  0.746600  1.0
  C  C442  1  0.746600  0.386300  0.238600  1.0
  C  C443  1  0.238600  0.746600  0.386300  1.0
  C  C444  1  0.253400  0.761400  0.613700  1.0
  C  C445  1  0.761400  0.613700  0.253400  1.0
  C  C446  1  0.613700  0.253400  0.761400  1.0
  C  C447  1  0.389300  0.271800  0.702900  1.0
  C  C448  1  0.702900  0.389300  0.271800  1.0
  C  C449  1  0.271800  0.702900  0.389300  1.0
  C  C450  1  0.297100  0.728200  0.610700  1.0
  C  C451  1  0.728200  0.610700  0.297100  1.0
  C  C452  1  0.610700  0.297100  0.728200  1.0
  C  C453  1  0.420400  0.316700  0.704300  1.0
  C  C454  1  0.704300  0.420400  0.316700  1.0
  C  C455  1  0.316700  0.704300  0.420400  1.0
  C  C456  1  0.295700  0.683300  0.579600  1.0
  C  C457  1  0.683300  0.579600  0.295700  1.0
  C  C458  1  0.579600  0.295700  0.683300  1.0
  C  C459  1  0.444150  0.326750  0.751050  1.0
  C  C460  1  0.751050  0.444150  0.326750  1.0
  C  C461  1  0.326750  0.751050  0.444150  1.0
  C  C462  1  0.248950  0.673250  0.555850  1.0
  C  C463  1  0.673250  0.555850  0.248950  1.0
  C  C464  1  0.555850  0.248950  0.673250  1.0
  C  C465  1  0.438770  0.292770  0.795270  1.0
  C  C466  1  0.795270  0.438770  0.292770  1.0
  C  C467  1  0.292770  0.795270  0.438770  1.0
  C  C468  1  0.204730  0.707230  0.561230  1.0
  C  C469  1  0.707230  0.561230  0.204730  1.0
  C  C470  1  0.561230  0.204730  0.707230  1.0
  C  C471  1  0.365100  0.284000  0.614400  1.0
  C  C472  1  0.614400  0.365100  0.284000  1.0
  C  C473  1  0.284000  0.614400  0.365100  1.0
  C  C474  1  0.385600  0.716000  0.634900  1.0
  C  C475  1  0.716000  0.634900  0.385600  1.0
  C  C476  1  0.634900  0.385600  0.716000  1.0
  C  C477  1  0.336000  0.270900  0.570200  1.0
  C  C478  1  0.570200  0.336000  0.270900  1.0
  C  C479  1  0.270900  0.570200  0.336000  1.0
  C  C480  1  0.429800  0.729100  0.664000  1.0
  C  C481  1  0.729100  0.664000  0.429800  1.0
  C  C482  1  0.664000  0.429800  0.729100  1.0
  C  C483  1  0.333800  0.305400  0.524100  1.0
  C  C484  1  0.524100  0.333800  0.305400  1.0
  C  C485  1  0.305400  0.524100  0.333800  1.0
  C  C486  1  0.475900  0.694600  0.666200  1.0
  C  C487  1  0.694600  0.666200  0.475900  1.0
  C  C488  1  0.666200  0.475900  0.694600  1.0
  C  C489  1  0.303100  0.286400  0.483500  1.0
  C  C490  1  0.483500  0.303100  0.286400  1.0
  C  C491  1  0.286400  0.483500  0.303100  1.0
  C  C492  1  0.516500  0.713600  0.696900  1.0
  C  C493  1  0.713600  0.696900  0.516500  1.0
  C  C494  1  0.696900  0.516500  0.713600  1.0
  C  C495  1  0.278100  0.239800  0.489700  1.0
  C  C496  1  0.489700  0.278100  0.239800  1.0
  C  C497  1  0.239800  0.489700  0.278100  1.0
  C  C498  1  0.510300  0.760200  0.721900  1.0
  C  C499  1  0.760200  0.721900  0.510300  1.0
  C  C500  1  0.721900  0.510300  0.760200  1.0
  C  C501  1  0.280600  0.212100  0.533500  1.0
  C  C502  1  0.533500  0.280600  0.212100  1.0
  C  C503  1  0.212100  0.533500  0.280600  1.0
  C  C504  1  0.466500  0.787900  0.719400  1.0
  C  C505  1  0.787900  0.719400  0.466500  1.0
  C  C506  1  0.719400  0.466500  0.787900  1.0
  C  C507  1  0.348840  0.163340  0.140840  1.0
  C  C508  1  0.140840  0.348840  0.163340  1.0
  C  C509  1  0.163340  0.140840  0.348840  1.0
  C  C510  1  0.859160  0.836660  0.651160  1.0
  C  C511  1  0.836660  0.651160  0.859160  1.0
  C  C512  1  0.651160  0.859160  0.836660  1.0
  C  C513  1  0.356950  0.177850  0.195050  1.0
  C  C514  1  0.195050  0.356950  0.177850  1.0
  C  C515  1  0.177850  0.195050  0.356950  1.0
  C  C516  1  0.804950  0.822150  0.643050  1.0
  C  C517  1  0.822150  0.643050  0.804950  1.0
  C  C518  1  0.643050  0.804950  0.822150  1.0
  C  C519  1  0.348150  0.228250  0.209850  1.0
  C  C520  1  0.209850  0.348150  0.228250  1.0
  C  C521  1  0.228250  0.209850  0.348150  1.0
  C  C522  1  0.790150  0.771750  0.651850  1.0
  C  C523  1  0.771750  0.651850  0.790150  1.0
  C  C524  1  0.651850  0.790150  0.771750  1.0
  C  C525  1  0.356550  0.238650  0.262450  1.0
  C  C526  1  0.262450  0.356550  0.238650  1.0
  C  C527  1  0.238650  0.262450  0.356550  1.0
  C  C528  1  0.737550  0.761350  0.643450  1.0
  C  C529  1  0.761350  0.643450  0.737550  1.0
  C  C530  1  0.643450  0.737550  0.761350  1.0
  C  C531  1  0.372870  0.199670  0.295970  1.0
  C  C532  1  0.295970  0.372870  0.199670  1.0
  C  C533  1  0.199670  0.295970  0.372870  1.0
  C  C534  1  0.704030  0.800330  0.627130  1.0
  C  C535  1  0.800330  0.627130  0.704030  1.0
  C  C536  1  0.627130  0.704030  0.800330  1.0
  C  C537  1  0.382460  0.150360  0.278360  1.0
  C  C538  1  0.278360  0.382460  0.150360  1.0
  C  C539  1  0.150360  0.278360  0.382460  1.0
  C  C540  1  0.721640  0.849640  0.617540  1.0
  C  C541  1  0.849640  0.617540  0.721640  1.0
  C  C542  1  0.617540  0.721640  0.849640  1.0
  C  C543  1  0.403100  0.106200  0.313400  1.0
  C  C544  1  0.313400  0.403100  0.106200  1.0
  C  C545  1  0.106200  0.313400  0.403100  1.0
  C  C546  1  0.686600  0.893800  0.596900  1.0
  C  C547  1  0.893800  0.596900  0.686600  1.0
  C  C548  1  0.596900  0.686600  0.893800  1.0
  C  C549  1  0.485100  0.404200  0.723100  1.0
  C  C550  1  0.723100  0.485100  0.404200  1.0
  C  C551  1  0.404200  0.723100  0.485100  1.0
  C  C552  1  0.276900  0.595800  0.514900  1.0
  C  C553  1  0.595800  0.514900  0.276900  1.0
  C  C554  1  0.514900  0.276900  0.595800  1.0
  C  C555  1  0.513100  0.454500  0.731200  1.0
  C  C556  1  0.731200  0.513100  0.454500  1.0
  C  C557  1  0.454500  0.731200  0.513100  1.0
  C  C558  1  0.268800  0.545500  0.486900  1.0
  C  C559  1  0.545500  0.486900  0.268800  1.0
  C  C560  1  0.486900  0.268800  0.545500  1.0
  C  C561  1  0.518000  0.489400  0.690500  1.0
  C  C562  1  0.690500  0.518000  0.489400  1.0
  C  C563  1  0.489400  0.690500  0.518000  1.0
  C  C564  1  0.309500  0.510600  0.482000  1.0
  C  C565  1  0.510600  0.482000  0.309500  1.0
  C  C566  1  0.482000  0.309500  0.510600  1.0
  C  C567  1  0.543600  0.534600  0.701900  1.0
  C  C568  1  0.701900  0.543600  0.534600  1.0
  C  C569  1  0.534600  0.701900  0.543600  1.0
  C  C570  1  0.298100  0.465400  0.456400  1.0
  C  C571  1  0.465400  0.456400  0.298100  1.0
  C  C572  1  0.456400  0.298100  0.465400  1.0
  C  C573  1  0.558600  0.544000  0.748600  1.0
  C  C574  1  0.748600  0.558600  0.544000  1.0
  C  C575  1  0.544000  0.748600  0.558600  1.0
  C  C576  1  0.251400  0.456000  0.441400  1.0
  C  C577  1  0.456000  0.441400  0.251400  1.0
  C  C578  1  0.441400  0.251400  0.456000  1.0
  C  C579  1  0.553700  0.503100  0.789000  1.0
  C  C580  1  0.789000  0.553700  0.503100  1.0
  C  C581  1  0.503100  0.789000  0.553700  1.0
  C  C582  1  0.211000  0.496900  0.446300  1.0
  C  C583  1  0.496900  0.446300  0.211000  1.0
  C  C584  1  0.446300  0.211000  0.496900  1.0
  C  C585  1  0.572000  0.509100  0.843300  1.0
  C  C586  1  0.843300  0.572000  0.509100  1.0
  C  C587  1  0.509100  0.843300  0.572000  1.0
  C  C588  1  0.156700  0.490900  0.428000  1.0
  C  C589  1  0.490900  0.428000  0.156700  1.0
  C  C590  1  0.428000  0.156700  0.490900  1.0
  C  C591  1  0.263900  0.152800  0.539000  1.0
  C  C592  1  0.539000  0.263900  0.152800  1.0
  C  C593  1  0.152800  0.539000  0.263900  1.0
  C  C594  1  0.461000  0.847200  0.736100  1.0
  C  C595  1  0.847200  0.736100  0.461000  1.0
  C  C596  1  0.736100  0.461000  0.847200  1.0
  F  F597  1  0.180960  0.881260  0.758960  1
  F  F598  1  0.758960  0.180960  0.881260  1
  F  F599  1  0.881260  0.758960  0.180960  1
  F  F600  1  0.241040  0.118740  0.819040  1
  F  F601  1  0.118740  0.819040  0.241040  1
  F  F602  1  0.819040  0.241040  0.118740  1
  F  F603  1  0.144980  0.953030  0.720230  1
  F  F604  1  0.720230  0.144980  0.953030  1
  F  F605  1  0.953030  0.720230  0.144980  1
  F  F606  1  0.279770  0.046970  0.855020  1
  F  F607  1  0.046970  0.855020  0.279770  1
  F  F608  1  0.855020  0.279770  0.046970  1
  F  F609  1  0.097400  0.901700  0.777200  1
  F  F610  1  0.777200  0.097400  0.901700  1
  F  F611  1  0.901700  0.777200  0.097400  1
  F  F612  1  0.222800  0.098300  0.902600  1
  F  F613  1  0.098300  0.902600  0.222800  1
  F  F614  1  0.902600  0.222800  0.098300  1
  F  F615  1  0.145600  0.950200  0.815800  1
  F  F616  1  0.815800  0.145600  0.950200  1
  F  F617  1  0.950200  0.815800  0.145600  1
  F  F618  1  0.184200  0.049800  0.854400  1
  F  F619  1  0.049800  0.854400  0.184200  1
  F  F620  1  0.854400  0.184200  0.049800  1
  F  F621  1  0.557350  0.924150  0.678650  1
  F  F622  1  0.678650  0.557350  0.924150  1
  F  F623  1  0.924150  0.678650  0.557350  1
  F  F624  1  0.321350  0.075850  0.442650  1
  F  F625  1  0.075850  0.442650  0.321350  1
  F  F626  1  0.442650  0.321350  0.075850  1
  F  F627  1  0.639000  0.901800  0.709500  1
  F  F628  1  0.709500  0.639000  0.901800  1
  F  F629  1  0.901800  0.709500  0.639000  1
  F  F630  1  0.290500  0.098200  0.361000  1
  F  F631  1  0.098200  0.361000  0.290500  1
  F  F632  1  0.361000  0.290500  0.098200  1
  F  F633  1  0.594350  0.973850  0.732650  1
  F  F634  1  0.732650  0.594350  0.973850  1
  F  F635  1  0.973850  0.732650  0.594350  1
  F  F636  1  0.267350  0.026150  0.405650  1
  F  F637  1  0.026150  0.405650  0.267350  1
  F  F638  1  0.405650  0.267350  0.026150  1
  F  F639  1  0.569120  0.896320  0.763620  1
  F  F640  1  0.763620  0.569120  0.896320  1
  F  F641  1  0.896320  0.763620  0.569120  1
  F  F642  1  0.236380  0.103680  0.430880  1
  F  F643  1  0.103680  0.430880  0.236380  1
  F  F644  1  0.430880  0.236380  0.103680  1
  F  F645  1  0.611917  0.611917  0.611917  1
  F  F646  1  0.388083  0.388083  0.388083  1
  F  F647  1  0.111900  0.927700  0.805100  1
  F  F648  1  0.805100  0.111900  0.927700  1
  F  F649  1  0.927700  0.805100  0.111900  1
  F  F650  1  0.194900  0.072300  0.888100  1
  F  F651  1  0.072300  0.888100  0.194900  1
  F  F652  1  0.888100  0.194900  0.072300  1
  F  F653  1  0.192200  0.958600  0.785700  1
  F  F654  1  0.785700  0.192200  0.958600  1
  F  F655  1  0.958600  0.785700  0.192200  1
  F  F656  1  0.214300  0.041400  0.807800  1
  F  F657  1  0.041400  0.807800  0.214300  1
  F  F658  1  0.807800  0.214300  0.041400  1
  F  F659  1  0.695140  0.629210  0.633860  1.0
  F  F660  1  0.633860  0.695140  0.629210  1.0
  F  F661  1  0.629210  0.633860  0.695140  1.0
  F  F662  1  0.366140  0.370790  0.304860  1.0
  F  F663  1  0.370790  0.304860  0.366140  1.0
  F  F664  1  0.304860  0.366140  0.370790  1.0
  H  H665  1  0.239300  0.152500  0.575900  1
  H  H666  1  0.575900  0.239300  0.152500  1
  H  H667  1  0.152500  0.575900  0.239300  1
  H  H668  1  0.424100  0.847500  0.760700  1
  H  H669  1  0.847500  0.760700  0.424100  1
  H  H670  1  0.760700  0.424100  0.847500  1
  H  H671  1  0.240500  0.144600  0.513900  1
  H  H672  1  0.513900  0.240500  0.144600  1
  H  H673  1  0.144600  0.513900  0.240500  1
  H  H674  1  0.486100  0.855400  0.759500  1
  H  H675  1  0.855400  0.759500  0.486100  1
  H  H676  1  0.759500  0.486100  0.855400  1
  H  H677  1  0.201800  0.188300  0.539200  1
  H  H678  1  0.539200  0.201800  0.188300  1
  H  H679  1  0.188300  0.539200  0.201800  1
  H  H680  1  0.460800  0.811700  0.798200  1
  H  H681  1  0.811700  0.798200  0.460800  1
  H  H682  1  0.798200  0.460800  0.811700  1
  H  H683  1  0.229500  0.021100  0.291300  1.0
  H  H684  1  0.291300  0.229500  0.021100  1.0
  H  H685  1  0.021100  0.291300  0.229500  1.0
  H  H686  1  0.708700  0.978900  0.770500  1.0
  H  H687  1  0.978900  0.770500  0.708700  1.0
  H  H688  1  0.770500  0.708700  0.978900  1.0
  H  H689  1  0.247700  0.034600  0.231700  1.0
  H  H690  1  0.231700  0.247700  0.034600  1.0
  H  H691  1  0.034600  0.231700  0.247700  1.0
  H  H692  1  0.768300  0.965400  0.752300  1.0
  H  H693  1  0.965400  0.752300  0.768300  1.0
  H  H694  1  0.752300  0.768300  0.965400  1.0
  H  H695  1  0.278100  0.058100  0.278900  1.0
  H  H696  1  0.278900  0.278100  0.058100  1.0
  H  H697  1  0.058100  0.278900  0.278100  1.0
  H  H698  1  0.721100  0.941900  0.721900  1.0
  H  H699  1  0.941900  0.721900  0.721100  1.0
  H  H700  1  0.721900  0.721100  0.941900  1.0
  H  H701  1  0.256700  0.940400  0.323800  1.0
  H  H702  1  0.323800  0.256700  0.940400  1.0
  H  H703  1  0.940400  0.323800  0.256700  1.0
  H  H704  1  0.676200  0.059600  0.743300  1.0
  H  H705  1  0.059600  0.743300  0.676200  1.0
  H  H706  1  0.743300  0.676200  0.059600  1.0
  H  H707  1  0.314800  0.867100  0.325500  1.0
  H  H708  1  0.325500  0.314800  0.867100  1.0
  H  H709  1  0.867100  0.325500  0.314800  1.0
  H  H710  1  0.674500  0.132900  0.685200  1.0
  H  H711  1  0.132900  0.685200  0.674500  1.0
  H  H712  1  0.685200  0.674500  0.132900  1.0
  H  H713  1  0.379900  0.860100  0.257500  1.0
  H  H714  1  0.257500  0.379900  0.860100  1.0
  H  H715  1  0.860100  0.257500  0.379900  1.0
  H  H716  1  0.742500  0.139900  0.620100  1.0
  H  H717  1  0.139900  0.620100  0.742500  1.0
  H  H718  1  0.620100  0.742500  0.139900  1.0
  H  H719  1  0.435800  0.908600  0.190600  1.0
  H  H720  1  0.190600  0.435800  0.908600  1.0
  H  H721  1  0.908600  0.190600  0.435800  1.0
  H  H722  1  0.809400  0.091400  0.564200  1.0
  H  H723  1  0.091400  0.564200  0.809400  1.0
  H  H724  1  0.564200  0.809400  0.091400  1.0
  H  H725  1  0.518300  0.920400  0.177600  1.0
  H  H726  1  0.177600  0.518300  0.920400  1.0
  H  H727  1  0.920400  0.177600  0.518300  1.0
  H  H728  1  0.822400  0.079600  0.481700  1.0
  H  H729  1  0.079600  0.481700  0.822400  1.0
  H  H730  1  0.481700  0.822400  0.079600  1.0
  H  H731  1  0.598700  0.002400  0.064400  1.0
  H  H732  1  0.064400  0.598700  0.002400  1.0
  H  H733  1  0.002400  0.064400  0.598700  1.0
  H  H734  1  0.935600  0.997600  0.401300  1.0
  H  H735  1  0.997600  0.401300  0.935600  1.0
  H  H736  1  0.401300  0.935600  0.997600  1.0
  H  H737  1  0.455400  0.055100  0.110900  1.0
  H  H738  1  0.110900  0.455400  0.055100  1.0
  H  H739  1  0.055100  0.110900  0.455400  1.0
  H  H740  1  0.889100  0.944900  0.544600  1.0
  H  H741  1  0.944900  0.544600  0.889100  1.0
  H  H742  1  0.544600  0.889100  0.944900  1.0
  H  H743  1  0.496700  0.135300  0.096500  1.0
  H  H744  1  0.096500  0.496700  0.135300  1.0
  H  H745  1  0.135300  0.096500  0.496700  1.0
  H  H746  1  0.903500  0.864700  0.503300  1.0
  H  H747  1  0.864700  0.503300  0.903500  1.0
  H  H748  1  0.503300  0.903500  0.864700  1.0
  H  H749  1  0.509800  0.211600  0.046100  1.0
  H  H750  1  0.046100  0.509800  0.211600  1.0
  H  H751  1  0.211600  0.046100  0.509800  1.0
  H  H752  1  0.953900  0.788400  0.490200  1.0
  H  H753  1  0.788400  0.490200  0.953900  1.0
  H  H754  1  0.490200  0.953900  0.788400  1.0
  H  H755  1  0.594500  0.127900  0.939800  1.0
  H  H756  1  0.939800  0.594500  0.127900  1.0
  H  H757  1  0.127900  0.939800  0.594500  1.0
  H  H758  1  0.060200  0.872100  0.405500  1.0
  H  H759  1  0.872100  0.405500  0.060200  1.0
  H  H760  1  0.405500  0.060200  0.872100  1.0
  H  H761  1  0.577700  0.051300  0.987600  1.0
  H  H762  1  0.987600  0.577700  0.051300  1.0
  H  H763  1  0.051300  0.987600  0.577700  1.0
  H  H764  1  0.012400  0.948700  0.422300  1.0
  H  H765  1  0.948700  0.422300  0.012400  1.0
  H  H766  1  0.422300  0.012400  0.948700  1.0
  H  H767  1  0.495000  0.261600  0.970400  1.0
  H  H768  1  0.970400  0.495000  0.261600  1.0
  H  H769  1  0.261600  0.970400  0.495000  1.0
  H  H770  1  0.029600  0.738400  0.505000  1.0
  H  H771  1  0.738400  0.505000  0.029600  1.0
  H  H772  1  0.505000  0.029600  0.738400  1.0
  H  H773  1  0.589600  0.348800  0.876500  1.0
  H  H774  1  0.876500  0.589600  0.348800  1.0
  H  H775  1  0.348800  0.876500  0.589600  1.0
  H  H776  1  0.123500  0.651200  0.410400  1.0
  H  H777  1  0.651200  0.410400  0.123500  1.0
  H  H778  1  0.410400  0.123500  0.651200  1.0
  H  H779  1  0.645600  0.210900  0.941600  1.0
  H  H780  1  0.941600  0.645600  0.210900  1.0
  H  H781  1  0.210900  0.941600  0.645600  1.0
  H  H782  1  0.058400  0.789100  0.354400  1.0
  H  H783  1  0.789100  0.354400  0.058400  1.0
  H  H784  1  0.354400  0.058400  0.789100  1.0
  H  H785  1  0.462900  0.339100  0.979900  1.0
  H  H786  1  0.979900  0.462900  0.339100  1.0
  H  H787  1  0.339100  0.979900  0.462900  1.0
  H  H788  1  0.020100  0.660900  0.537100  1.0
  H  H789  1  0.660900  0.537100  0.020100  1.0
  H  H790  1  0.537100  0.020100  0.660900  1.0
  H  H791  1  0.378300  0.387600  0.009400  1.0
  H  H792  1  0.009400  0.378300  0.387600  1.0
  H  H793  1  0.387600  0.009400  0.378300  1.0
  H  H794  1  0.990600  0.612400  0.621700  1.0
  H  H795  1  0.612400  0.621700  0.990600  1.0
  H  H796  1  0.621700  0.990600  0.612400  1.0
  H  H797  1  0.313200  0.451500  0.993200  1.0
  H  H798  1  0.993200  0.313200  0.451500  1.0
  H  H799  1  0.451500  0.993200  0.313200  1.0
  H  H800  1  0.006800  0.548500  0.686800  1.0
  H  H801  1  0.548500  0.686800  0.006800  1.0
  H  H802  1  0.686800  0.006800  0.548500  1.0
  H  H803  1  0.314900  0.497800  0.912200  1.0
  H  H804  1  0.912200  0.314900  0.497800  1.0
  H  H805  1  0.497800  0.912200  0.314900  1.0
  H  H806  1  0.087800  0.502200  0.685100  1.0
  H  H807  1  0.502200  0.685100  0.087800  1.0
  H  H808  1  0.685100  0.087800  0.502200  1.0
  H  H809  1  0.407000  0.515300  0.830200  1.0
  H  H810  1  0.830200  0.407000  0.515300  1.0
  H  H811  1  0.515300  0.830200  0.407000  1.0
  H  H812  1  0.169800  0.484700  0.593000  1.0
  H  H813  1  0.484700  0.593000  0.169800  1.0
  H  H814  1  0.593000  0.169800  0.484700  1.0
  H  H815  1  0.345500  0.506800  0.825500  1.0
  H  H816  1  0.825500  0.345500  0.506800  1.0
  H  H817  1  0.506800  0.825500  0.345500  1.0
  H  H818  1  0.174500  0.493200  0.654500  1.0
  H  H819  1  0.493200  0.654500  0.174500  1.0
  H  H820  1  0.654500  0.174500  0.493200  1.0
  H  H821  1  0.387400  0.464000  0.803600  1.0
  H  H822  1  0.803600  0.387400  0.464000  1.0
  H  H823  1  0.464000  0.803600  0.387400  1.0
  H  H824  1  0.196400  0.536000  0.612600  1.0
  H  H825  1  0.536000  0.612600  0.196400  1.0
  H  H826  1  0.612600  0.196400  0.536000  1.0
  H  H827  1  0.716300  0.267800  0.947200  1.0
  H  H828  1  0.947200  0.716300  0.267800  1.0
  H  H829  1  0.267800  0.947200  0.716300  1.0
  H  H830  1  0.052800  0.732200  0.283700  1.0
  H  H831  1  0.732200  0.283700  0.052800  1.0
  H  H832  1  0.283700  0.052800  0.732200  1.0
  H  H833  1  0.807100  0.300300  0.966700  1.0
  H  H834  1  0.966700  0.807100  0.300300  1.0
  H  H835  1  0.300300  0.966700  0.807100  1.0
  H  H836  1  0.033300  0.699700  0.192900  1.0
  H  H837  1  0.699700  0.192900  0.033300  1.0
  H  H838  1  0.192900  0.033300  0.699700  1.0
  H  H839  1  0.881100  0.341600  0.938100  1.0
  H  H840  1  0.938100  0.881100  0.341600  1.0
  H  H841  1  0.341600  0.938100  0.881100  1.0
  H  H842  1  0.061900  0.658400  0.118900  1.0
  H  H843  1  0.658400  0.118900  0.061900  1.0
  H  H844  1  0.118900  0.061900  0.658400  1.0
  H  H845  1  0.891200  0.367000  0.851900  1.0
  H  H846  1  0.851900  0.891200  0.367000  1.0
  H  H847  1  0.367000  0.851900  0.891200  1.0
  H  H848  1  0.148100  0.633000  0.108800  1.0
  H  H849  1  0.633000  0.108800  0.148100  1.0
  H  H850  1  0.108800  0.148100  0.633000  1.0
  H  H851  1  0.791800  0.359600  0.754700  1.0
  H  H852  1  0.754700  0.791800  0.359600  1.0
  H  H853  1  0.359600  0.754700  0.791800  1.0
  H  H854  1  0.245300  0.640400  0.208200  1.0
  H  H855  1  0.640400  0.208200  0.245300  1.0
  H  H856  1  0.208200  0.245300  0.640400  1.0
  H  H857  1  0.847900  0.329500  0.752100  1.0
  H  H858  1  0.752100  0.847900  0.329500  1.0
  H  H859  1  0.329500  0.752100  0.847900  1.0
  H  H860  1  0.247900  0.670500  0.152100  1.0
  H  H861  1  0.670500  0.152100  0.247900  1.0
  H  H862  1  0.152100  0.247900  0.670500  1.0
  H  H863  1  0.843600  0.389900  0.767100  1.0
  H  H864  1  0.767100  0.843600  0.389900  1.0
  H  H865  1  0.389900  0.767100  0.843600  1.0
  H  H866  1  0.232900  0.610100  0.156400  1.0
  H  H867  1  0.610100  0.156400  0.232900  1.0
  H  H868  1  0.156400  0.232900  0.610100  1.0
  H  H869  1  0.591200  0.883300  0.188900  1.0
  H  H870  1  0.188900  0.591200  0.883300  1.0
  H  H871  1  0.883300  0.188900  0.591200  1.0
  H  H872  1  0.811100  0.116700  0.408800  1.0
  H  H873  1  0.116700  0.408800  0.811100  1.0
  H  H874  1  0.408800  0.811100  0.116700  1.0
  H  H875  1  0.649300  0.813700  0.232800  1.0
  H  H876  1  0.232800  0.649300  0.813700  1.0
  H  H877  1  0.813700  0.232800  0.649300  1.0
  H  H878  1  0.767200  0.186300  0.350700  1.0
  H  H879  1  0.186300  0.350700  0.767200  1.0
  H  H880  1  0.350700  0.767200  0.186300  1.0
  H  H881  1  0.724800  0.766900  0.237400  1.0
  H  H882  1  0.237400  0.724800  0.766900  1.0
  H  H883  1  0.766900  0.237400  0.724800  1.0
  H  H884  1  0.762600  0.233100  0.275200  1.0
  H  H885  1  0.233100  0.275200  0.762600  1.0
  H  H886  1  0.275200  0.762600  0.233100  1.0
  H  H887  1  0.790400  0.781000  0.176600  1.0
  H  H888  1  0.176600  0.790400  0.781000  1.0
  H  H889  1  0.781000  0.176600  0.790400  1.0
  H  H890  1  0.823400  0.219000  0.209600  1.0
  H  H891  1  0.219000  0.209600  0.823400  1.0
  H  H892  1  0.209600  0.823400  0.219000  1.0
  H  H893  1  0.811100  0.817500  0.083100  1.0
  H  H894  1  0.083100  0.811100  0.817500  1.0
  H  H895  1  0.817500  0.083100  0.811100  1.0
  H  H896  1  0.916900  0.182500  0.188900  1.0
  H  H897  1  0.182500  0.188900  0.916900  1.0
  H  H898  1  0.188900  0.916900  0.182500  1.0
  H  H899  1  0.811900  0.876900  0.100900  1.0
  H  H900  1  0.100900  0.811900  0.876900  1.0
  H  H901  1  0.876900  0.100900  0.811900  1.0
  H  H902  1  0.899100  0.123100  0.188100  1.0
  H  H903  1  0.123100  0.188100  0.899100  1.0
  H  H904  1  0.188100  0.899100  0.123100  1.0
  H  H905  1  0.773200  0.861300  0.056500  1.0
  H  H906  1  0.056500  0.773200  0.861300  1.0
  H  H907  1  0.861300  0.056500  0.773200  1.0
  H  H908  1  0.943500  0.138700  0.226800  1.0
  H  H909  1  0.138700  0.226800  0.943500  1.0
  H  H910  1  0.226800  0.943500  0.138700  1.0
  H  H911  1  0.327100  0.815400  0.999200  1.0
  H  H912  1  0.999200  0.327100  0.815400  1.0
  H  H913  1  0.815400  0.999200  0.327100  1.0
  H  H914  1  0.000800  0.184600  0.672900  1.0
  H  H915  1  0.184600  0.672900  0.000800  1.0
  H  H916  1  0.672900  0.000800  0.184600  1.0
  H  H917  1  0.295900  0.773100  0.969200  1.0
  H  H918  1  0.969200  0.295900  0.773100  1.0
  H  H919  1  0.773100  0.969200  0.295900  1.0
  H  H920  1  0.030800  0.226900  0.704100  1.0
  H  H921  1  0.226900  0.704100  0.030800  1.0
  H  H922  1  0.704100  0.030800  0.226900  1.0
  H  H923  1  0.274700  0.792000  0.025500  1.0
  H  H924  1  0.025500  0.274700  0.792000  1.0
  H  H925  1  0.792000  0.025500  0.274700  1.0
  H  H926  1  0.974500  0.208000  0.725300  1.0
  H  H927  1  0.208000  0.725300  0.974500  1.0
  H  H928  1  0.725300  0.974500  0.208000  1.0
  H  H929  1  0.222500  0.802200  0.914800  1.0
  H  H930  1  0.914800  0.222500  0.802200  1.0
  H  H931  1  0.802200  0.914800  0.222500  1.0
  H  H932  1  0.085200  0.197800  0.777500  1.0
  H  H933  1  0.197800  0.777500  0.085200  1.0
  H  H934  1  0.777500  0.085200  0.197800  1.0
  H  H935  1  0.180500  0.873300  0.872500  1.0
  H  H936  1  0.872500  0.180500  0.873300  1.0
  H  H937  1  0.873300  0.872500  0.180500  1.0
  H  H938  1  0.127500  0.126700  0.819500  1.0
  H  H939  1  0.126700  0.819500  0.127500  1.0
  H  H940  1  0.819500  0.127500  0.126700  1.0
  H  H941  1  0.196600  0.959000  0.896700  1.0
  H  H942  1  0.896700  0.196600  0.959000  1.0
  H  H943  1  0.959000  0.896700  0.196600  1.0
  H  H944  1  0.103300  0.041000  0.803400  1.0
  H  H945  1  0.041000  0.803400  0.103300  1.0
  H  H946  1  0.803400  0.103300  0.041000  1.0
  H  H947  1  0.245500  0.017400  0.952600  1.0
  H  H948  1  0.952600  0.245500  0.017400  1.0
  H  H949  1  0.017400  0.952600  0.245500  1.0
  H  H950  1  0.047400  0.982600  0.754500  1.0
  H  H951  1  0.982600  0.754500  0.047400  1.0
  H  H952  1  0.754500  0.047400  0.982600  1.0
  H  H953  1  0.314700  0.033800  0.095300  1.0
  H  H954  1  0.095300  0.314700  0.033800  1.0
  H  H955  1  0.033800  0.095300  0.314700  1.0
  H  H956  1  0.904700  0.966200  0.685300  1.0
  H  H957  1  0.966200  0.685300  0.904700  1.0
  H  H958  1  0.685300  0.904700  0.966200  1.0
  H  H959  1  0.382500  0.165900  0.037000  1.0
  H  H960  1  0.037000  0.382500  0.165900  1.0
  H  H961  1  0.165900  0.037000  0.382500  1.0
  H  H962  1  0.963000  0.834100  0.617500  1.0
  H  H963  1  0.834100  0.617500  0.963000  1.0
  H  H964  1  0.617500  0.963000  0.834100  1.0
  H  H965  1  0.321900  0.063700  0.937900  1.0
  H  H966  1  0.937900  0.321900  0.063700  1.0
  H  H967  1  0.063700  0.937900  0.321900  1.0
  H  H968  1  0.062100  0.936300  0.678100  1.0
  H  H969  1  0.936300  0.678100  0.062100  1.0
  H  H970  1  0.678100  0.062100  0.936300  1.0
  H  H971  1  0.303000  0.142800  0.893300  1.0
  H  H972  1  0.893300  0.303000  0.142800  1.0
  H  H973  1  0.142800  0.893300  0.303000  1.0
  H  H974  1  0.106700  0.857200  0.697000  1.0
  H  H975  1  0.857200  0.697000  0.106700  1.0
  H  H976  1  0.697000  0.106700  0.857200  1.0
  H  H977  1  0.326200  0.191900  0.818600  1.0
  H  H978  1  0.818600  0.326200  0.191900  1.0
  H  H979  1  0.191900  0.818600  0.326200  1.0
  H  H980  1  0.181400  0.808100  0.673800  1.0
  H  H981  1  0.808100  0.673800  0.181400  1.0
  H  H982  1  0.673800  0.181400  0.808100  1.0
  H  H983  1  0.464000  0.222000  0.879600  1.0
  H  H984  1  0.879600  0.464000  0.222000  1.0
  H  H985  1  0.222000  0.879600  0.464000  1.0
  H  H986  1  0.120400  0.778000  0.536000  1.0
  H  H987  1  0.778000  0.536000  0.120400  1.0
  H  H988  1  0.536000  0.120400  0.778000  1.0
  H  H989  1  0.442900  0.171800  0.953900  1.0
  H  H990  1  0.953900  0.442900  0.171800  1.0
  H  H991  1  0.171800  0.953900  0.442900  1.0
  H  H992  1  0.046100  0.828200  0.557100  1.0
  H  H993  1  0.828200  0.557100  0.046100  1.0
  H  H994  1  0.557100  0.046100  0.828200  1.0
  H  H995  1  0.367800  0.207300  0.743900  1.0
  H  H996  1  0.743900  0.367800  0.207300  1.0
  H  H997  1  0.207300  0.743900  0.367800  1.0
  H  H998  1  0.256100  0.792700  0.632200  1.0
  H  H999  1  0.792700  0.632200  0.256100  1.0
  H  H1000  1  0.632200  0.256100  0.792700  1.0
  H  H1001  1  0.424800  0.339200  0.674100  1.0
  H  H1002  1  0.674100  0.424800  0.339200  1.0
  H  H1003  1  0.339200  0.674100  0.424800  1.0
  H  H1004  1  0.325900  0.660800  0.575200  1.0
  H  H1005  1  0.660800  0.575200  0.325900  1.0
  H  H1006  1  0.575200  0.325900  0.660800  1.0
  H  H1007  1  0.455700  0.299800  0.826600  1.0
  H  H1008  1  0.826600  0.455700  0.299800  1.0
  H  H1009  1  0.299800  0.826600  0.455700  1.0
  H  H1010  1  0.173400  0.700200  0.544300  1.0
  H  H1011  1  0.700200  0.544300  0.173400  1.0
  H  H1012  1  0.544300  0.173400  0.700200  1.0
  H  H1013  1  0.387700  0.312600  0.610600  1.0
  H  H1014  1  0.610600  0.387700  0.312600  1.0
  H  H1015  1  0.312600  0.610600  0.387700  1.0
  H  H1016  1  0.389400  0.687400  0.612300  1.0
  H  H1017  1  0.687400  0.612300  0.389400  1.0
  H  H1018  1  0.612300  0.389400  0.687400  1.0
  H  H1019  1  0.351200  0.337700  0.520900  1.0
  H  H1020  1  0.520900  0.351200  0.337700  1.0
  H  H1021  1  0.337700  0.520900  0.351200  1.0
  H  H1022  1  0.479100  0.662300  0.648800  1.0
  H  H1023  1  0.662300  0.648800  0.479100  1.0
  H  H1024  1  0.648800  0.479100  0.662300  1.0
  H  H1025  1  0.300000  0.306500  0.451800  1.0
  H  H1026  1  0.451800  0.300000  0.306500  1.0
  H  H1027  1  0.306500  0.451800  0.300000  1.0
  H  H1028  1  0.548200  0.693500  0.700000  1.0
  H  H1029  1  0.693500  0.700000  0.548200  1.0
  H  H1030  1  0.700000  0.548200  0.693500  1.0
  H  H1031  1  0.258700  0.227700  0.461800  1.0
  H  H1032  1  0.461800  0.258700  0.227700  1.0
  H  H1033  1  0.227700  0.461800  0.258700  1.0
  H  H1034  1  0.538200  0.772300  0.741300  1.0
  H  H1035  1  0.772300  0.741300  0.538200  1.0
  H  H1036  1  0.741300  0.538200  0.772300  1.0
  H  H1037  1  0.338800  0.189800  0.115600  1.0
  H  H1038  1  0.115600  0.338800  0.189800  1.0
  H  H1039  1  0.189800  0.115600  0.338800  1.0
  H  H1040  1  0.884400  0.810200  0.661200  1.0
  H  H1041  1  0.810200  0.661200  0.884400  1.0
  H  H1042  1  0.661200  0.884400  0.810200  1.0
  H  H1043  1  0.336800  0.255200  0.185700  1.0
  H  H1044  1  0.185700  0.336800  0.255200  1.0
  H  H1045  1  0.255200  0.185700  0.336800  1.0
  H  H1046  1  0.814300  0.744800  0.663200  1.0
  H  H1047  1  0.744800  0.663200  0.814300  1.0
  H  H1048  1  0.663200  0.814300  0.744800  1.0
  H  H1049  1  0.350800  0.273300  0.274500  1.0
  H  H1050  1  0.274500  0.350800  0.273300  1.0
  H  H1051  1  0.273300  0.274500  0.350800  1.0
  H  H1052  1  0.725500  0.726700  0.649200  1.0
  H  H1053  1  0.726700  0.649200  0.725500  1.0
  H  H1054  1  0.649200  0.725500  0.726700  1.0
  H  H1055  1  0.377600  0.206600  0.331800  1.0
  H  H1056  1  0.331800  0.377600  0.206600  1.0
  H  H1057  1  0.206600  0.331800  0.377600  1.0
  H  H1058  1  0.668200  0.793400  0.622400  1.0
  H  H1059  1  0.793400  0.622400  0.668200  1.0
  H  H1060  1  0.622400  0.668200  0.793400  1.0
  H  H1061  1  0.399300  0.072800  0.296600  1.0
  H  H1062  1  0.296600  0.399300  0.072800  1.0
  H  H1063  1  0.072800  0.296600  0.399300  1.0
  H  H1064  1  0.703400  0.927200  0.600700  1.0
  H  H1065  1  0.927200  0.600700  0.703400  1.0
  H  H1066  1  0.600700  0.703400  0.927200  1.0
  H  H1067  1  0.383300  0.106100  0.347100  1.0
  H  H1068  1  0.347100  0.383300  0.106100  1.0
  H  H1069  1  0.106100  0.347100  0.383300  1.0
  H  H1070  1  0.652900  0.893900  0.616700  1.0
  H  H1071  1  0.893900  0.616700  0.652900  1.0
  H  H1072  1  0.616700  0.652900  0.893900  1.0
  H  H1073  1  0.440300  0.111300  0.319400  1.0
  H  H1074  1  0.319400  0.440300  0.111300  1.0
  H  H1075  1  0.111300  0.319400  0.440300  1.0
  H  H1076  1  0.680600  0.888700  0.559700  1.0
  H  H1077  1  0.888700  0.559700  0.680600  1.0
  H  H1078  1  0.559700  0.680600  0.888700  1.0
  H  H1079  1  0.476700  0.396300  0.688400  1.0
  H  H1080  1  0.688400  0.476700  0.396300  1.0
  H  H1081  1  0.396300  0.688400  0.476700  1.0
  H  H1082  1  0.311600  0.603700  0.523300  1.0
  H  H1083  1  0.603700  0.523300  0.311600  1.0
  H  H1084  1  0.523300  0.311600  0.603700  1.0
  H  H1085  1  0.505000  0.483600  0.656800  1.0
  H  H1086  1  0.656800  0.505000  0.483600  1.0
  H  H1087  1  0.483600  0.656800  0.505000  1.0
  H  H1088  1  0.343200  0.516400  0.495000  1.0
  H  H1089  1  0.516400  0.495000  0.343200  1.0
  H  H1090  1  0.495000  0.343200  0.516400  1.0
  H  H1091  1  0.550400  0.559800  0.674400  1.0
  H  H1092  1  0.674400  0.550400  0.559800  1.0
  H  H1093  1  0.559800  0.674400  0.550400  1.0
  H  H1094  1  0.325600  0.440200  0.449600  1.0
  H  H1095  1  0.440200  0.449600  0.325600  1.0
  H  H1096  1  0.449600  0.325600  0.440200  1.0
  H  H1097  1  0.572500  0.576700  0.756000  1.0
  H  H1098  1  0.756000  0.572500  0.576700  1.0
  H  H1099  1  0.576700  0.756000  0.572500  1.0
  H  H1100  1  0.244000  0.423300  0.427500  1.0
  H  H1101  1  0.423300  0.427500  0.244000  1.0
  H  H1102  1  0.427500  0.244000  0.423300  1.0
  H  H1103  1  0.546300  0.530900  0.863100  1.0
  H  H1104  1  0.863100  0.546300  0.530900  1.0
  H  H1105  1  0.530900  0.863100  0.546300  1.0
  H  H1106  1  0.136900  0.469100  0.453700  1.0
  H  H1107  1  0.469100  0.453700  0.136900  1.0
  H  H1108  1  0.453700  0.136900  0.469100  1.0
  H  H1109  1  0.605900  0.526100  0.841600  1.0
  H  H1110  1  0.841600  0.605900  0.526100  1.0
  H  H1111  1  0.526100  0.841600  0.605900  1.0
  H  H1112  1  0.158400  0.473900  0.394100  1.0
  H  H1113  1  0.473900  0.394100  0.158400  1.0
  H  H1114  1  0.394100  0.158400  0.473900  1.0
  H  H1115  1  0.575800  0.474500  0.860900  1.0
  H  H1116  1  0.860900  0.575800  0.474500  1.0
  H  H1117  1  0.474500  0.860900  0.575800  1.0
  H  H1118  1  0.139100  0.525500  0.424200  1.0
  H  H1119  1  0.525500  0.424200  0.139100  1.0
  H  H1120  1  0.424200  0.139100  0.525500  1.0
  H  H1121  1  0.266900  0.140100  0.575400  1.0
  H  H1122  1  0.575400  0.266900  0.140100  1.0
  H  H1123  1  0.140100  0.575400  0.266900  1.0
  H  H1124  1  0.424600  0.859900  0.733100  1.0
  H  H1125  1  0.859900  0.733100  0.424600  1.0
  H  H1126  1  0.733100  0.424600  0.859900  1.0
  H  H1127  1  0.287000  0.131200  0.516200  1.0
  H  H1128  1  0.516200  0.287000  0.131200  1.0
  H  H1129  1  0.131200  0.516200  0.287000  1.0
  H  H1130  1  0.483800  0.868800  0.713000  1.0
  H  H1131  1  0.868800  0.713000  0.483800  1.0
  H  H1132  1  0.713000  0.483800  0.868800  1.0
  H  H1133  1  0.227600  0.150400  0.528500  1.0
  H  H1134  1  0.528500  0.227600  0.150400  1.0
  H  H1135  1  0.150400  0.528500  0.227600  1.0
  H  H1136  1  0.471500  0.849600  0.772400  1.0
  H  H1137  1  0.849600  0.772400  0.471500  1.0
  H  H1138  1  0.772400  0.471500  0.849600  1.0
  N  N1139  1  0.338180  0.980780  0.235780  1.0
  N  N1140  1  0.235780  0.338180  0.980780  1.0
  N  N1141  1  0.980780  0.235780  0.338180  1.0
  N  N1142  1  0.764220  0.019220  0.661820  1.0
  N  N1143  1  0.019220  0.661820  0.764220  1.0
  N  N1144  1  0.661820  0.764220  0.019220  1.0
  N  N1145  1  0.431210  0.984010  0.178310  1.0
  N  N1146  1  0.178310  0.431210  0.984010  1.0
  N  N1147  1  0.984010  0.178310  0.431210  1.0
  N  N1148  1  0.821690  0.015990  0.568790  1.0
  N  N1149  1  0.015990  0.568790  0.821690  1.0
  N  N1150  1  0.568790  0.821690  0.015990  1.0
  N  N1151  1  0.373930  0.138330  0.228930  1.0
  N  N1152  1  0.228930  0.373930  0.138330  1.0
  N  N1153  1  0.138330  0.228930  0.373930  1.0
  N  N1154  1  0.771070  0.861670  0.626070  1.0
  N  N1155  1  0.861670  0.626070  0.771070  1.0
  N  N1156  1  0.626070  0.771070  0.861670  1.0
  N  N1157  1  0.354950  0.115550  0.127050  1.0
  N  N1158  1  0.127050  0.354950  0.115550  1.0
  N  N1159  1  0.115550  0.127050  0.354950  1.0
  N  N1160  1  0.872950  0.884450  0.645050  1.0
  N  N1161  1  0.884450  0.645050  0.872950  1.0
  N  N1162  1  0.645050  0.872950  0.884450  1.0
  N  N1163  1  0.612670  0.924170  0.124670  1.0
  N  N1164  1  0.124670  0.612670  0.924170  1.0
  N  N1165  1  0.924170  0.124670  0.612670  1.0
  N  N1166  1  0.875330  0.075830  0.387330  1.0
  N  N1167  1  0.075830  0.387330  0.875330  1.0
  N  N1168  1  0.387330  0.875330  0.075830  1.0
  N  N1169  1  0.705410  0.866410  0.128810  1.0
  N  N1170  1  0.128810  0.705410  0.866410  1.0
  N  N1171  1  0.866410  0.128810  0.705410  1.0
  N  N1172  1  0.871190  0.133590  0.294590  1.0
  N  N1173  1  0.133590  0.294590  0.871190  1.0
  N  N1174  1  0.294590  0.871190  0.133590  1.0
  N  N1175  1  0.269080  0.893780  0.981480  1.0
  N  N1176  1  0.981480  0.269080  0.893780  1.0
  N  N1177  1  0.893780  0.981480  0.269080  1.0
  N  N1178  1  0.018520  0.106220  0.730920  1.0
  N  N1179  1  0.106220  0.730920  0.018520  1.0
  N  N1180  1  0.730920  0.018520  0.106220  1.0
  N  N1181  1  0.290320  0.993020  0.008420  1.0
  N  N1182  1  0.008420  0.290320  0.993020  1.0
  N  N1183  1  0.993020  0.008420  0.290320  1.0
  N  N1184  1  0.991580  0.006980  0.709680  1.0
  N  N1185  1  0.006980  0.709680  0.991580  1.0
  N  N1186  1  0.709680  0.991580  0.006980  1.0
  N  N1187  1  0.775600  0.319500  0.844300  1.0
  N  N1188  1  0.844300  0.775600  0.319500  1.0
  N  N1189  1  0.319500  0.844300  0.775600  1.0
  N  N1190  1  0.155700  0.680500  0.224400  1.0
  N  N1191  1  0.680500  0.224400  0.155700  1.0
  N  N1192  1  0.224400  0.155700  0.680500  1.0
  N  N1193  1  0.677970  0.297370  0.888070  1.0
  N  N1194  1  0.888070  0.677970  0.297370  1.0
  N  N1195  1  0.297370  0.888070  0.677970  1.0
  N  N1196  1  0.111930  0.702630  0.322030  1.0
  N  N1197  1  0.702630  0.322030  0.111930  1.0
  N  N1198  1  0.322030  0.111930  0.702630  1.0
  N  N1199  1  0.307550  0.226950  0.574650  1.0
  N  N1200  1  0.574650  0.307550  0.226950  1.0
  N  N1201  1  0.226950  0.574650  0.307550  1.0
  N  N1202  1  0.425350  0.773050  0.692450  1.0
  N  N1203  1  0.773050  0.692450  0.425350  1.0
  N  N1204  1  0.692450  0.425350  0.773050  1.0
  N  N1205  1  0.362220  0.259720  0.657520  1.0
  N  N1206  1  0.657520  0.362220  0.259720  1.0
  N  N1207  1  0.259720  0.657520  0.362220  1.0
  N  N1208  1  0.342480  0.740280  0.637780  1.0
  N  N1209  1  0.740280  0.637780  0.342480  1.0
  N  N1210  1  0.637780  0.342480  0.740280  1.0
  N  N1211  1  0.497700  0.353500  0.914500  1.0
  N  N1212  1  0.914500  0.497700  0.353500  1.0
  N  N1213  1  0.353500  0.914500  0.497700  1.0
  N  N1214  1  0.085500  0.646500  0.502300  1.0
  N  N1215  1  0.646500  0.502300  0.085500  1.0
  N  N1216  1  0.502300  0.085500  0.646500  1.0
  N  N1217  1  0.418600  0.425700  0.893200  1.0
  N  N1218  1  0.893200  0.418600  0.425700  1.0
  N  N1219  1  0.425700  0.893200  0.418600  1.0
  N  N1220  1  0.106800  0.574300  0.581400  1.0
  N  N1221  1  0.574300  0.581400  0.106800  1.0
  N  N1222  1  0.581400  0.106800  0.574300  1.0
  N  N1223  1  0.472820  0.373020  0.759120  1.0
  N  N1224  1  0.759120  0.472820  0.373020  1.0
  N  N1225  1  0.373020  0.759120  0.472820  1.0
  N  N1226  1  0.240880  0.626980  0.527180  1.0
  N  N1227  1  0.626980  0.527180  0.240880  1.0
  N  N1228  1  0.527180  0.240880  0.626980  1.0
  N  N1229  1  0.529140  0.460740  0.778640  1.0
  N  N1230  1  0.778640  0.529140  0.460740  1.0
  N  N1231  1  0.460740  0.778640  0.529140  1.0
  N  N1232  1  0.221360  0.539260  0.470860  1.0
  N  N1233  1  0.539260  0.470860  0.221360  1.0
  N  N1234  1  0.470860  0.221360  0.539260  1.0
