
#######################################################################
#
#                 Cambridge Crystallographic Data Centre
#                                CCDC 
#
#######################################################################
#
# If this CIF has been generated from an entry in the Cambridge 
# Structural Database, then it will include bibliographic, chemical, 
# crystal, experimental, refinement or atomic coordinate data resulting 
# from the CCDC's data processing and validation procedures.
#
#######################################################################

data_TODHAX
_chemical_formula_moiety         'C184 H152 Ag8 N32 8+,8(B1 F4 1-)'
_chemical_name_systematic        
"tetrakis(\m~4~-N,N',N'',N'''-1,1':4',1''-Terphenyl-3,3'',5,5''-tetrayltetrakis(1-(6-methylpyridin-2-yl)methanimine))-octa-silver(i) octakis(tetrafluoroborate) unknown solvate"
_symmetry_cell_setting           rhombohedral
_symmetry_space_group_name_H-M   'R 3 2'
_symmetry_Int_Tables_number      155
_space_group_name_Hall           'R 3 2"'
loop_
_symmetry_equiv_pos_site_id
_symmetry_equiv_pos_as_xyz
1 x,y,z
2 -y,x-y,z
3 -x+y,-x,z
4 y,x,-z
5 x-y,-y,-z
6 -x,-x+y,-z
7 2/3+x,1/3+y,1/3+z
8 2/3-y,1/3+x-y,1/3+z
9 2/3-x+y,1/3-x,1/3+z
10 2/3+y,1/3+x,1/3-z
11 2/3+x-y,1/3-y,1/3-z
12 2/3-x,1/3-x+y,1/3-z
13 1/3+x,2/3+y,2/3+z
14 1/3-y,2/3+x-y,2/3+z
15 1/3-x+y,2/3-x,2/3+z
16 1/3+y,2/3+x,2/3-z
17 1/3+x-y,2/3-y,2/3-z
18 1/3-x,2/3-x+y,2/3-z
_cell_length_a                   35.408(5)
_cell_length_b                   35.408(5)
_cell_length_c                   45.801(9)
_cell_angle_alpha                90
_cell_angle_beta                 90
_cell_angle_gamma                120
_cell_volume                     49728.8
_exptl_crystal_colour            colorless
_exptl_crystal_description       block
_cell_formula_units_Z            9
loop_
_atom_site_label
_atom_site_type_symbol
_atom_site_fract_x
_atom_site_fract_y
_atom_site_fract_z
C1 C 0.4082(4) 0.5841(4) 0.8516(3)
H1 H 0.3822 0.5560 0.8473
H2 H 0.4097 0.6063 0.8380
H3 H 0.4064 0.5928 0.8717
C2 C 0.4479(3) 0.5801(3) 0.8483(2)
C3 C 0.4445(4) 0.5417(5) 0.8422(3)
H4 H 0.4164 0.5165 0.8403
C4 C 0.4815(6) 0.5381(5) 0.8384(4)
H5 H 0.4790 0.5103 0.8358
C5 C 0.5217(4) 0.5750(4) 0.8385(3)
H6 H 0.5474 0.5750 0.8325
C6 C 0.5223(4) 0.6109(4) 0.8477(3)
C7 C 0.5646(3) 0.6526(3) 0.8519(3)
H7 H 0.5908 0.6544 0.8450
C8 C 0.6079(3) 0.7235(3) 0.8701(2)
C9 C 0.6464(3) 0.7212(3) 0.8743(2)
H8 H 0.6462 0.6945 0.8721
C10 C 0.6848(3) 0.7597(3) 0.8818(2)
C11 C 0.6835(3) 0.7980(3) 0.8849(2)
H9 H 0.7102 0.8241 0.8885
C12 C 0.6464(3) 0.8008(3) 0.8830(2)
C13 C 0.6081(3) 0.7624(3) 0.8754(2)
H10 H 0.5816 0.7629 0.8738
C14 C 0.6461(3) 0.8416(3) 0.8900(2)
C15 C 0.6118(3) 0.8405(3) 0.9049(2)
H11 H 0.5872 0.8130 0.9095
C16 C 0.6122(3) 0.8783(3) 0.91330(19)
H12 H 0.5873 0.8764 0.9225
C17 C 0.6492(3) 0.9197(3) 0.90844(17)
C18 C 0.6826(3) 0.9202(3) 0.8923(2)
H13 H 0.7071 0.9476 0.8874
C19 C 0.6818(3) 0.8827(3) 0.8831(2)
H14 H 0.7055 0.8846 0.8722
C20 C 0.6500(3) 0.9591(3) 0.91762(18)
C21 C 0.6123(3) 0.9627(3) 0.91587(18)
H15 H 0.5860 0.9386 0.9090
C22 C 0.6127(3) 1.0015(3) 0.92417(18)
C23 C 0.6500(3) 1.0347(3) 0.93460(19)
H16 H 0.6513 1.0618 0.9383
C24 C 0.6866(3) 1.0312(3) 0.9401(2)
C25 C 0.6874(3) 0.9932(3) 0.93044(17)
H17 H 0.7129 0.9911 0.9327
C26 C 0.5389(4) 0.9753(3) 0.9233(2)
H18 H 0.5356 0.9474 0.9273
C27 C 0.4996(4) 0.9794(4) 0.9187(3)
C28 C 0.4575(5) 0.9440(5) 0.9210(4)
H19 H 0.4532 0.9157 0.9251
C29 C 0.4229(5) 0.9498(5) 0.9173(4)
H20 H 0.3939 0.9261 0.9193
C30 C 0.4306(4) 0.9914(5) 0.9106(4)
H21 H 0.4066 0.9961 0.9083
C31 C 0.4712(4) 1.0251(4) 0.9075(4)
C32 C 0.4797(6) 1.0689(5) 0.9000(5)
H22 H 0.4895 1.0873 0.9175
H23 H 0.4529 1.0671 0.8926
H24 H 0.5024 1.0814 0.8850
C33 C 0.7456(3) 1.0590(3) 0.97348(19)
H25 H 0.7392 1.0299 0.9771
C34 C 0.7798(4) 1.0943(4) 0.9893(2)
C35 C 0.7930(4) 1.0869(4) 1.0180(2)
H26 H 0.7824 1.0580 1.0247
C36 C 0.8197(4) 1.1204(4) 1.0347(2)
H27 H 0.8275 1.1155 1.0536
C37 C 0.8356(4) 1.1608(4) 1.0247(3)
H28 H 0.8545 1.1848 1.0367
C38 C 0.8242(4) 1.1688(4) 0.9956(3)
C39 C 0.8421(6) 1.2139(5) 0.9843(4)
H29 H 0.8231 1.2140 0.9687
H30 H 0.8714 1.2244 0.9765
H31 H 0.8434 1.2331 1.0002
C40 C 0.7286(4) 0.7268(4) 0.8902(3)
H32 H 0.7034 0.6989 0.8878
C41 C 0.7698(4) 0.7300(4) 0.8970(3)
C42 C 0.7753(5) 0.6941(5) 0.9008(4)
H33 H 0.7507 0.6658 0.8986
C43 C 0.8128(5) 0.6977(5) 0.9073(4)
H34 H 0.8151 0.6723 0.9097
C44 C 0.8473(5) 0.7366(5) 0.9106(3)
H35 H 0.8744 0.7394 0.9160
C45 C 0.8436(3) 0.7766(4) 0.9057(2)
C46 C 0.8802(4) 0.8203(5) 0.9094(3)
H36 H 0.9072 0.8208 0.9039
H37 H 0.8820 0.8290 0.9299
H38 H 0.8762 0.8405 0.8970
C47 C 0.5964(5) 0.7035(6) 0.6958(2)
H39 H 0.6132 0.7147 0.7139
H40 H 0.6165 0.7102 0.6794
H41 H 0.5773 0.6719 0.6974
C48 C 0.5697(5) 0.7246(6) 0.6911(2)
C49 C 0.5645(5) 0.7381(6) 0.6633(2)
H42 H 0.5760 0.7317 0.6465
C50 C 0.5427(5) 0.7608(7) 0.6608(2)
H43 H 0.5384 0.7696 0.6421
C51 C 0.5269(5) 0.7709(6) 0.6854(2)
H44 H 0.5125 0.7874 0.6841
C52 C 0.5327(4) 0.7562(5) 0.71193(18)
C53 C 0.5201(3) 0.7682(4) 0.7392(2)
H45 H 0.5070 0.7859 0.7385
C54 C 0.5219(3) 0.7747(3) 0.78998(18)
C55 C 0.5081(3) 0.7492(3) 0.81530(18)
H46 H 0.5001 0.7193 0.8146
C56 C 0.5061(3) 0.7675(3) 0.84106(17)
C57 C 0.5208(3) 0.8122(3) 0.84346(18)
H47 H 0.5207 0.8248 0.8618
C58 C 0.5355(3) 0.8376(3) 0.81838(17)
C59 C 0.5366(3) 0.8189(3) 0.79146(16)
H48 H 0.5474 0.8366 0.7745
C60 C 0.5509(3) 0.8864(3) 0.81889(16)
C61 C 0.5403(3) 0.9045(3) 0.79538(18)
H49 H 0.5233 0.8864 0.7797
C62 C 0.5546(3) 0.9483(3) 0.79503(18)
H50 H 0.5473 0.9603 0.7789
C63 C 0.5790(3) 0.9749(3) 0.81694(18)
C64 C 0.5910(3) 0.9571(3) 0.83992(18)
H51 H 0.6088 0.9756 0.8552
C65 C 0.5776(3) 0.9138(3) 0.84068(18)
H52 H 0.5867 0.9023 0.8562
C66 C 0.5917(3) 1.0230(3) 0.8160(2)
C67 C 0.5958(3) 1.0439(3) 0.79050(17)
H53 H 0.5948 1.0291 0.7730
C68 C 0.6013(3) 1.0851(3) 0.7880(2)
C69 C 0.6066(4) 1.1095(3) 0.8138(2)
H54 H 0.6121 1.1386 0.8127
C70 C 0.6035(3) 1.0896(3) 0.84065(19)
C71 C 0.5965(3) 1.0470(3) 0.84227(19)
H55 H 0.5950 1.0341 0.8607
C72 C 0.6106(4) 1.1401(6) 0.7545(2)
H56 H 0.6174 1.1597 0.7703
C73 C 0.6103(5) 1.1555(6) 0.7257(3)
C74 C 0.6127(6) 1.1970(8) 0.7211(3)
H57 H 0.6146 1.2157 0.7366
C75 C 0.6121(6) 1.2075(8) 0.6910(3)
H58 H 0.6139 1.2343 0.6861
C76 C 0.6089(7) 1.1795(10) 0.6692(3)
H59 H 0.6093 1.1876 0.6494
C77 C 0.6052(5) 1.1419(7) 0.6754(3)
C78 C 0.4645(3) 0.7435(3) 0.88434(18)
H60 H 0.4574 0.7658 0.8814
C79 C 0.4470(3) 0.7149(3) 0.90995(18)
C80 C 0.4194(3) 0.7189(3) 0.92875(18)
H61 H 0.4109 0.7402 0.9259
C81 C 0.4040(3) 0.6901(3) 0.95255(18)
H62 H 0.3846 0.6917 0.9662
C82 C 0.4167(3) 0.6602(3) 0.95617(18)
H63 H 0.4056 0.6402 0.9720
C83 C 0.4454(3) 0.6587(3) 0.93706(18)
C84 C 0.4622(4) 0.6275(4) 0.9409(2)
H64 H 0.4764 0.6263 0.9229
H65 H 0.4378 0.5984 0.9455
H66 H 0.4833 0.6376 0.9570
C85 C 0.6143(4) 1.1477(3) 0.8708(2)
H67 H 0.6229 1.1654 0.8538
C86 C 0.6135(4) 1.1684(3) 0.8996(3)
C87 C 0.6187(7) 1.2088(4) 0.8993(3)
H68 H 0.6232 1.2250 0.8818
C88 C 0.6169(7) 1.2248(4) 0.9267(3)
H69 H 0.6222 1.2538 0.9282
C89 C 0.6082(6) 1.2018(4) 0.9504(3)
H70 H 0.6041 1.2124 0.9684
C90 C 0.6051(4) 1.1596(3) 0.9486(3)
C91 C 0.5972(5) 1.1315(5) 0.9748(2)
H71 H 0.5662 1.1170 0.9801
H72 H 0.6147 1.1496 0.9912
H73 H 0.6054 1.1095 0.9704
N1 N 0.4866(3) 0.6158(3) 0.85158(16)
N2 N 0.5667(2) 0.6862(3) 0.86451(18)
N3 N 0.4602(2) 0.6848(2) 0.91373(14)
N4 N 0.4891(2) 0.7388(2) 0.86585(15)
N5 N 0.7255(2) 0.7625(2) 0.88717(17)
N6 N 0.8052(3) 0.7714(3) 0.90021(16)
N7 N 0.5543(3) 0.7333(4) 0.71478(15)
N8 N 0.5264(2) 0.7555(3) 0.76392(14)
N9 N 0.7958(3) 1.1355(2) 0.97980(17)
N10 N 0.7235(3) 1.0664(3) 0.95447(16)
N11 N 0.6045(4) 1.1284(5) 0.70305(17)
N12 N 0.6024(3) 1.1023(4) 0.75982(15)
N13 N 0.5758(2) 1.0074(2) 0.92190(16)
N14 N 0.5061(3) 1.0193(3) 0.9125(2)
N15 N 0.6045(3) 1.1092(2) 0.86832(15)
N16 N 0.6063(3) 1.1442(3) 0.92284(16)
Ag1 Ag 0.50002(2) 0.68011(2) 0.874575(16)
Ag2 Ag 0.58133(3) 1.07229(2) 0.913374(16)
Ag3 Ag 0.74605(3) 1.13908(3) 0.947897(16)
Ag4 Ag 0.78703(2) 0.82419(2) 0.903976(15)
C92 C 0.6120(9) 1.1129(11) 0.6519(4)
H74 H 0.6061 1.0854 0.6608
H75 H 0.6422 1.1286 0.6448
H76 H 0.5921 1.1070 0.6355
C1Q C 0.9251(4) 0.8426(6) 0.8151(3)
H1Q H 0.9511 0.8405 0.8194
H2Q H 0.9236 0.8633 0.8287
H3Q H 0.9269 0.8531 0.7950
C2Q C 0.8854(3) 0.7989(4) 0.8184(2)
C3Q C 0.8888(4) 0.7639(6) 0.8245(3)
H4Q H 0.9169 0.7668 0.8264
C4Q C 0.8518(6) 0.7233(8) 0.8283(4)
H5Q H 0.8543 0.6980 0.8309
C5Q C 0.8116(4) 0.7200(6) 0.8282(3)
H6Q H 0.7859 0.6943 0.8342
C6Q C 0.8110(4) 0.7553(6) 0.8190(3)
C7Q C 0.7687(3) 0.7547(4) 0.8148(3)
H7Q H 0.7425 0.7303 0.8217
C8Q C 0.7254(3) 0.7823(4) 0.7966(2)
C9Q C 0.6869(3) 0.7415(4) 0.7924(2)
H8Q H 0.6871 0.7150 0.7946
C10Q C 0.6485(3) 0.7416(4) 0.7849(2)
C11Q C 0.6498(3) 0.7812(4) 0.7818(2)
H9Q H 0.6231 0.7806 0.7782
C12Q C 0.6869(3) 0.8211(4) 0.7837(2)
C13Q C 0.7252(3) 0.8210(4) 0.7913(2)
H10Q H 0.7517 0.8480 0.7929
C14Q C 0.6872(3) 0.8622(4) 0.7767(2)
C15Q C 0.7215(3) 0.8954(4) 0.7618(2)
H11Q H 0.7461 0.8925 0.7572
C16Q C 0.7211(3) 0.9328(4) 0.75337(19)
H12Q H 0.7460 0.9558 0.7442
C17Q C 0.6841(3) 0.9372(4) 0.75823(17)
C18Q C 0.6507(3) 0.9043(4) 0.7744(2)
H13Q H 0.6262 0.9072 0.7793
C19Q C 0.6515(3) 0.8676(4) 0.7836(2)
H14Q H 0.6278 0.8458 0.7945
C20Q C 0.6833(3) 0.9758(4) 0.74905(18)
C21Q C 0.7210(3) 1.0171(4) 0.75080(18)
H15Q H 0.7473 1.0193 0.7577
C22Q C 0.7206(3) 1.0555(4) 0.74250(18)
C23Q C 0.6833(3) 1.0514(4) 0.73207(19)
H16Q H 0.6820 1.0772 0.7284
C24Q C 0.6467(3) 1.0113(4) 0.7266(2)
C25Q C 0.6459(3) 0.9725(4) 0.73623(17)
H17Q H 0.6204 0.9449 0.7340
C26Q C 0.7944(4) 1.1031(5) 0.7434(2)
H18Q H 0.7977 1.0785 0.7394
C27Q C 0.8337(4) 1.1465(6) 0.7480(3)
C28Q C 0.8758(5) 1.1532(7) 0.7457(4)
H19Q H 0.8801 1.1292 0.7416
C29Q C 0.9104(5) 1.1936(7) 0.7494(4)
H20Q H 0.9394 1.1989 0.7474
C30Q C 0.9027(4) 1.2275(6) 0.7561(4)
H21Q H 0.9267 1.2562 0.7584
C31Q C 0.8621(4) 1.2206(6) 0.7592(4)
C32Q C 0.8536(6) 1.2559(8) 0.7667(5)
H22Q H 0.8438 1.2645 0.7492
H23Q H 0.8804 1.2809 0.7741
H24Q H 0.8309 1.2457 0.7817
C33Q C 0.5877(3) 0.9801(4) 0.69319(19)
H25Q H 0.5941 0.9574 0.6896
C34Q C 0.5535(4) 0.9812(6) 0.6774(2)
C35Q C 0.5403(4) 0.9606(6) 0.6487(2)
H26Q H 0.5509 0.9423 0.6420
C36Q C 0.5136(4) 0.9674(6) 0.6320(2)
H27Q H 0.5058 0.9547 0.6131
C37Q C 0.4977(4) 0.9919(6) 0.6420(3)
H28Q H 0.4788 0.9970 0.6300
C38Q C 0.5091(4) 1.0113(6) 0.6711(3)
C39Q C 0.4912(6) 1.0385(8) 0.6824(4)
H29Q H 0.5102 1.0576 0.6980
H30Q H 0.4619 1.0197 0.6902
H31Q H 0.4899 1.0564 0.6665
C40Q C 0.6047(4) 0.6649(6) 0.7765(3)
H32Q H 0.6299 0.6622 0.7789
C41Q C 0.5635(4) 0.6269(6) 0.7697(3)
C42Q C 0.5580(5) 0.5855(7) 0.7659(4)
H33Q H 0.5826 0.5818 0.7681
C43Q C 0.5205(5) 0.5516(7) 0.7594(4)
H34Q H 0.5182 0.5239 0.7570
C44Q C 0.4860(5) 0.5560(7) 0.7561(3)
H35Q H 0.4589 0.5317 0.7507
C45Q C 0.4897(3) 0.5997(5) 0.7610(2)
C46Q C 0.4531(4) 0.6068(6) 0.7573(3)
H36Q H 0.4261 0.5803 0.7628
H37Q H 0.4513 0.6137 0.7368
H38Q H 0.4571 0.6310 0.7697
C47Q C 0.7369(5) 0.7738(8) 0.9709(2)
H39Q H 0.7201 0.7682 0.9528
H40Q H 0.7168 0.7604 0.9873
H41Q H 0.7560 0.7613 0.9693
C48Q C 0.7636(5) 0.8216(8) 0.9756(2)
C49Q C 0.7688(5) 0.8403(8) 1.0034(2)
H42Q H 0.7573 0.8224 1.0202
C50Q C 0.7906(5) 0.8848(9) 1.0059(2)
H43Q H 0.7949 0.8979 1.0246
C51Q C 0.8064(5) 0.9107(8) 0.9813(2)
H44Q H 0.8208 0.9416 0.9826
C52Q C 0.8006(4) 0.8902(6) 0.95474(18)
C53Q C 0.8132(3) 0.9148(5) 0.9275(2)
H45Q H 0.8263 0.9456 0.9282
C54Q C 0.8114(3) 0.9195(4) 0.87669(18)
C55Q C 0.8252(3) 0.9078(4) 0.85137(18)
H46Q H 0.8332 0.8859 0.8521
C56Q C 0.8272(3) 0.9281(4) 0.82561(17)
C57Q C 0.8125(3) 0.9581(4) 0.82321(18)
H47Q H 0.8126 0.9708 0.8049
C58Q C 0.7978(3) 0.9688(4) 0.84829(17)
C59Q C 0.7967(3) 0.9490(4) 0.87521(16)
H48Q H 0.7859 0.9559 0.8922
C60Q C 0.7824(3) 1.0022(4) 0.84778(16)
C61Q C 0.7930(3) 1.0309(4) 0.87129(18)
H49Q H 0.8100 1.0298 0.8870
C62Q C 0.7787(3) 1.0604(4) 0.87164(18)
H50Q H 0.7860 1.0797 0.8878
C63Q C 0.7543(3) 1.0626(4) 0.84973(18)
C64Q C 0.7423(3) 1.0328(4) 0.82675(18)
H51Q H 0.7245 1.0335 0.8115
C65Q C 0.7557(3) 1.0029(4) 0.82599(18)
H52Q H 0.7466 0.9823 0.8105
C66Q C 0.7416(3) 1.0980(4) 0.8507(2)
C67Q C 0.7375(3) 1.1148(4) 0.87617(17)
H53Q H 0.7385 1.1010 0.8937
C68Q C 0.7320(3) 1.1505(4) 0.8787(2)
C69Q C 0.7267(4) 1.1696(5) 0.8529(2)
H54Q H 0.7212 1.1932 0.8540
C70Q C 0.7298(3) 1.1528(4) 0.82602(19)
C71Q C 0.7368(3) 1.1172(4) 0.82440(19)
H55Q H 0.7383 1.1058 0.8060
C72Q C 0.7227(4) 1.1962(7) 0.9122(2)
H56Q H 0.7159 1.2090 0.8964
C73Q C 0.7230(5) 1.2119(8) 0.9410(3)
C74Q C 0.7206(6) 1.2510(10) 0.9456(3)
H57Q H 0.7187 1.2678 0.9301
C75Q C 0.7212(6) 1.2621(10) 0.9757(3)
H58Q H 0.7194 1.2871 0.9806
C76Q C 0.7244(7) 1.2373(12) 0.9975(3)
H59Q H 0.7240 1.2450 1.0173
C77Q C 0.7281(5) 1.2034(9) 0.9913(3)
C78Q C 0.8688(3) 0.9457(4) 0.78233(18)
H60Q H 0.8759 0.9751 0.7853
C79Q C 0.8863(3) 0.9346(4) 0.75672(18)
C80Q C 0.9139(3) 0.9662(4) 0.73792(18)
H61Q H 0.9224 0.9960 0.7408
C81Q C 0.9293(3) 0.9528(4) 0.71412(18)
H62Q H 0.9487 0.9738 0.7005
C82Q C 0.9166(3) 0.9102(4) 0.71050(18)
H63Q H 0.9277 0.9013 0.6947
C83Q C 0.8879(3) 0.8800(4) 0.72961(18)
C84Q C 0.8711(4) 0.8320(6) 0.7258(2)
H64Q H 0.8569 0.8166 0.7438
H65Q H 0.8955 0.8273 0.7212
H66Q H 0.8500 0.8210 0.7097
C85Q C 0.7190(4) 1.2001(5) 0.7959(2)
H67Q H 0.7104 1.2092 0.8129
C86Q C 0.7198(4) 1.2216(5) 0.7671(3)
C87Q C 0.7146(7) 1.2568(8) 0.7674(3)
H68Q H 0.7101 1.2685 0.7849
C88Q C 0.7164(7) 1.2746(8) 0.7400(3)
H69Q H 0.7111 1.2983 0.7385
C89Q C 0.7251(6) 1.2603(7) 0.7163(3)
H70Q H 0.7292 1.2750 0.6983
C90Q C 0.7282(4) 1.2212(5) 0.7181(3)
C91Q C 0.7361(5) 1.2010(7) 0.6919(2)
H71Q H 0.7671 1.2175 0.6866
H72Q H 0.7186 1.2016 0.6755
H73Q H 0.7279 1.1708 0.6963
N1Q N 0.8467(3) 0.7959(4) 0.81509(16)
N2Q N 0.7666(2) 0.7862(4) 0.80216(18)
N3Q N 0.8731(2) 0.8913(3) 0.75294(14)
N4Q N 0.8442(2) 0.9164(3) 0.80082(15)
N5Q N 0.6078(2) 0.7037(3) 0.77950(17)
N6Q N 0.5281(3) 0.6329(4) 0.76646(16)
N7Q N 0.7790(3) 0.8457(5) 0.95189(15)
N8Q N 0.8069(2) 0.8958(4) 0.90275(14)
N9Q N 0.5375(3) 1.0064(4) 0.68687(17)
N10Q N 0.6098(3) 1.0096(4) 0.71220(16)
N11Q N 0.7288(4) 1.1906(6) 0.96362(17)
N12Q N 0.7309(3) 1.1666(5) 0.90685(15)
N13Q N 0.7575(2) 1.0983(3) 0.74477(16)
N14Q N 0.8272(3) 1.1799(4) 0.7542(2)
N15Q N 0.7288(3) 1.1714(4) 0.79835(15)
N16Q N 0.7270(3) 1.2046(4) 0.74383(16)
Ag1Q Ag 0.83331(2) 0.84676(3) 0.792092(16)
Ag2Q Ag 0.75200(3) 1.15763(4) 0.753293(16)
Ag3Q Ag 0.58728(3) 1.05970(4) 0.718770(16)
Ag4Q Ag 0.54630(2) 0.70383(3) 0.762691(15)
C92Q C 0.7213(9) 1.1676(14) 1.0148(4)
H74Q H 0.7272 1.1460 1.0059
H75Q H 0.6911 1.1531 1.0219
H76Q H 0.7412 1.1816 1.0312
B1 B 0.5381(5) 0.8485(5) 0.6135(2)
F1 F 0.5739(3) 0.8481(3) 0.60706(14)
F2 F 0.5389(2) 0.88585(19) 0.60608(13)
F3 F 0.5053(4) 0.8149(4) 0.5921(3)
F4 F 0.5084(4) 0.8214(4) 0.6372(2)
B2 B 0.8453(5) 0.0236(5) 0.7432(3)
F7 F 0.8373(5) 0.0414(4) 0.72005(18)
F8 F 0.8889(3) 0.0406(3) 0.7501(2)
F9 F 0.8274(3) 0.0343(3) 0.76695(17)
F10 F 0.8261(2) -0.0206(2) 0.74302(15)
B3 B 0.6667 0.3333 0.9758(4)
F11 F 0.6667 0.3333 0.94525(19)
F12 F 0.70907(16) 0.35221(18) 0.98607(11)
F12A F 0.64779(18) 0.35686(24) 0.98607(11)
F12B F 0.64314(24) 0.29093(16) 0.98607(11)
C93? C 0.5869(14) 1.1079(20) 0.6494(6)
H77? H 0.5834 1.0800 0.6559
H78? H 0.6075 1.1191 0.6330
H79? H 0.5587 1.1039 0.6431
F5? F 0.4970(5) 0.8098(5) 0.6149(4)
F6? F 0.5467(6) 0.8598(6) 0.6455(3)
loop_
_geom_bond_atom_site_label_1
_geom_bond_atom_site_label_2
_geom_bond_site_symmetry_1
_geom_bond_site_symmetry_2
C1 H1 1_555 1_555
H2 C1 1_555 1_555
H3 C1 1_555 1_555
C2 C1 1_555 1_555
C3 C2 1_555 1_555
H4 C3 1_555 1_555
C4 C3 1_555 1_555
H5 C4 1_555 1_555
C5 C4 1_555 1_555
H6 C5 1_555 1_555
C6 C5 1_555 1_555
C7 C6 1_555 1_555
H7 C7 1_555 1_555
C8 C9 1_555 1_555
C9 H8 1_555 1_555
C10 C9 1_555 1_555
C11 C10 1_555 1_555
H9 C11 1_555 1_555
C12 C11 1_555 1_555
C13 C8 1_555 1_555
H10 C13 1_555 1_555
C14 C12 1_555 1_555
C15 C14 1_555 1_555
H11 C15 1_555 1_555
C16 C15 1_555 1_555
H12 C16 1_555 1_555
C17 C16 1_555 1_555
C18 C17 1_555 1_555
H13 C18 1_555 1_555
C19 C14 1_555 1_555
H14 C19 1_555 1_555
C20 C17 1_555 1_555
C21 C20 1_555 1_555
H15 C21 1_555 1_555
C22 C21 1_555 1_555
C23 C22 1_555 1_555
H16 C23 1_555 1_555
C24 C23 1_555 1_555
C25 C20 1_555 1_555
H17 C25 1_555 1_555
C26 H18 1_555 1_555
C27 C26 1_555 1_555
C28 C27 1_555 1_555
H19 C28 1_555 1_555
C29 C28 1_555 1_555
H20 C29 1_555 1_555
C30 C29 1_555 1_555
H21 C30 1_555 1_555
C31 C30 1_555 1_555
C32 C31 1_555 1_555
H22 C32 1_555 1_555
H23 C32 1_555 1_555
H24 C32 1_555 1_555
C33 H25 1_555 1_555
C34 C33 1_555 1_555
C35 C34 1_555 1_555
H26 C35 1_555 1_555
C36 C35 1_555 1_555
H27 C36 1_555 1_555
C37 C36 1_555 1_555
H28 C37 1_555 1_555
C38 C37 1_555 1_555
C39 C38 1_555 1_555
H29 C39 1_555 1_555
H30 C39 1_555 1_555
H31 C39 1_555 1_555
C40 H32 1_555 1_555
C41 C40 1_555 1_555
C42 C41 1_555 1_555
H33 C42 1_555 1_555
C43 C42 1_555 1_555
H34 C43 1_555 1_555
C44 C43 1_555 1_555
H35 C44 1_555 1_555
C45 C44 1_555 1_555
C46 C45 1_555 1_555
H36 C46 1_555 1_555
H37 C46 1_555 1_555
H38 C46 1_555 1_555
C47 H39 1_555 1_555
H40 C47 1_555 1_555
H41 C47 1_555 1_555
C48 C47 1_555 1_555
C49 C48 1_555 1_555
H42 C49 1_555 1_555
C50 C49 1_555 1_555
H43 C50 1_555 1_555
C51 C50 1_555 1_555
H44 C51 1_555 1_555
C52 C51 1_555 1_555
C53 C52 1_555 1_555
H45 C53 1_555 1_555
C54 C55 1_555 1_555
C55 H46 1_555 1_555
C56 C55 1_555 1_555
C57 C56 1_555 1_555
H47 C57 1_555 1_555
C58 C57 1_555 1_555
C59 C54 1_555 1_555
H48 C59 1_555 1_555
C60 C58 1_555 1_555
C61 C60 1_555 1_555
H49 C61 1_555 1_555
C62 C61 1_555 1_555
H50 C62 1_555 1_555
C63 C62 1_555 1_555
C64 C63 1_555 1_555
H51 C64 1_555 1_555
C65 C60 1_555 1_555
H52 C65 1_555 1_555
C66 C63 1_555 1_555
C67 C66 1_555 1_555
H53 C67 1_555 1_555
C68 C67 1_555 1_555
C69 C68 1_555 1_555
H54 C69 1_555 1_555
C70 C69 1_555 1_555
C71 C66 1_555 1_555
H55 C71 1_555 1_555
C72 H56 1_555 1_555
C73 C72 1_555 1_555
C74 C73 1_555 1_555
H57 C74 1_555 1_555
C75 C74 1_555 1_555
H58 C75 1_555 1_555
C76 C75 1_555 1_555
H59 C76 1_555 1_555
C77 C76 1_555 1_555
C78 H60 1_555 1_555
C79 C78 1_555 1_555
C80 C79 1_555 1_555
H61 C80 1_555 1_555
C81 C80 1_555 1_555
H62 C81 1_555 1_555
C82 C81 1_555 1_555
H63 C82 1_555 1_555
C83 C82 1_555 1_555
C84 C83 1_555 1_555
H64 C84 1_555 1_555
H65 C84 1_555 1_555
H66 C84 1_555 1_555
C85 H67 1_555 1_555
C86 C85 1_555 1_555
C87 C86 1_555 1_555
H68 C87 1_555 1_555
C88 C87 1_555 1_555
H69 C88 1_555 1_555
C89 C88 1_555 1_555
H70 C89 1_555 1_555
C90 C89 1_555 1_555
C91 C90 1_555 1_555
H71 C91 1_555 1_555
H72 C91 1_555 1_555
H73 C91 1_555 1_555
N1 C2 1_555 1_555
N2 C7 1_555 1_555
N3 C79 1_555 1_555
N4 C56 1_555 1_555
N5 C10 1_555 1_555
N6 C41 1_555 1_555
N7 C48 1_555 1_555
N8 C53 1_555 1_555
N9 C34 1_555 1_555
N10 C24 1_555 1_555
N11 C73 1_555 1_555
N12 C68 1_555 1_555
N13 C22 1_555 1_555
N14 C27 1_555 1_555
N15 C70 1_555 1_555
N16 C86 1_555 1_555
Ag1 N1 1_555 1_555
Ag2 N13 1_555 1_555
Ag3 N9 1_555 1_555
Ag4 N5 1_555 1_555
C92 C77 1_555 1_555
H74 C92 1_555 1_555
H75 C92 1_555 1_555
H76 C92 1_555 1_555
B1 F1 1_555 1_555
F2 B1 1_555 1_555
F3 B1 1_555 1_555
F4 B1 1_555 1_555
B2 F7 1_555 1_555
F8 B2 1_555 1_555
F9 B2 1_555 1_555
F10 B2 1_555 1_555
B3 F11 1_555 1_555
F12 B3 1_555 1_555
C1Q H1Q 1_555 1_555
H2Q C1Q 1_555 1_555
H3Q C1Q 1_555 1_555
C2Q C1Q 1_555 1_555
C3Q C2Q 1_555 1_555
H4Q C3Q 1_555 1_555
C4Q C3Q 1_555 1_555
H5Q C4Q 1_555 1_555
C5Q C4Q 1_555 1_555
H6Q C5Q 1_555 1_555
C6Q C5Q 1_555 1_555
C7Q C6Q 1_555 1_555
H7Q C7Q 1_555 1_555
C8Q C9Q 1_555 1_555
C9Q H8Q 1_555 1_555
C10Q C9Q 1_555 1_555
C11Q C10Q 1_555 1_555
H9Q C11Q 1_555 1_555
C12Q C11Q 1_555 1_555
C13Q C8Q 1_555 1_555
H10Q C13Q 1_555 1_555
C14Q C12Q 1_555 1_555
C15Q C14Q 1_555 1_555
H11Q C15Q 1_555 1_555
C16Q C15Q 1_555 1_555
H12Q C16Q 1_555 1_555
C17Q C16Q 1_555 1_555
C18Q C17Q 1_555 1_555
H13Q C18Q 1_555 1_555
C19Q C14Q 1_555 1_555
H14Q C19Q 1_555 1_555
C20Q C17Q 1_555 1_555
C21Q C20Q 1_555 1_555
H15Q C21Q 1_555 1_555
C22Q C21Q 1_555 1_555
C23Q C22Q 1_555 1_555
H16Q C23Q 1_555 1_555
C24Q C23Q 1_555 1_555
C25Q C20Q 1_555 1_555
H17Q C25Q 1_555 1_555
C26Q H18Q 1_555 1_555
C27Q C26Q 1_555 1_555
C28Q C27Q 1_555 1_555
H19Q C28Q 1_555 1_555
C29Q C28Q 1_555 1_555
H20Q C29Q 1_555 1_555
C30Q C29Q 1_555 1_555
H21Q C30Q 1_555 1_555
C31Q C30Q 1_555 1_555
C32Q C31Q 1_555 1_555
H22Q C32Q 1_555 1_555
H23Q C32Q 1_555 1_555
H24Q C32Q 1_555 1_555
C33Q H25Q 1_555 1_555
C34Q C33Q 1_555 1_555
C35Q C34Q 1_555 1_555
H26Q C35Q 1_555 1_555
C36Q C35Q 1_555 1_555
H27Q C36Q 1_555 1_555
C37Q C36Q 1_555 1_555
H28Q C37Q 1_555 1_555
C38Q C37Q 1_555 1_555
C39Q C38Q 1_555 1_555
H29Q C39Q 1_555 1_555
H30Q C39Q 1_555 1_555
H31Q C39Q 1_555 1_555
C40Q H32Q 1_555 1_555
C41Q C40Q 1_555 1_555
C42Q C41Q 1_555 1_555
H33Q C42Q 1_555 1_555
C43Q C42Q 1_555 1_555
H34Q C43Q 1_555 1_555
C44Q C43Q 1_555 1_555
H35Q C44Q 1_555 1_555
C45Q C44Q 1_555 1_555
C46Q C45Q 1_555 1_555
H36Q C46Q 1_555 1_555
H37Q C46Q 1_555 1_555
H38Q C46Q 1_555 1_555
C47Q H39Q 1_555 1_555
H40Q C47Q 1_555 1_555
H41Q C47Q 1_555 1_555
C48Q C47Q 1_555 1_555
C49Q C48Q 1_555 1_555
H42Q C49Q 1_555 1_555
C50Q C49Q 1_555 1_555
H43Q C50Q 1_555 1_555
C51Q C50Q 1_555 1_555
H44Q C51Q 1_555 1_555
C52Q C51Q 1_555 1_555
C53Q C52Q 1_555 1_555
H45Q C53Q 1_555 1_555
C54Q C55Q 1_555 1_555
C55Q H46Q 1_555 1_555
C56Q C55Q 1_555 1_555
C57Q C56Q 1_555 1_555
H47Q C57Q 1_555 1_555
C58Q C57Q 1_555 1_555
C59Q C54Q 1_555 1_555
H48Q C59Q 1_555 1_555
C60Q C58Q 1_555 1_555
C61Q C60Q 1_555 1_555
H49Q C61Q 1_555 1_555
C62Q C61Q 1_555 1_555
H50Q C62Q 1_555 1_555
C63Q C62Q 1_555 1_555
C64Q C63Q 1_555 1_555
H51Q C64Q 1_555 1_555
C65Q C60Q 1_555 1_555
H52Q C65Q 1_555 1_555
C66Q C63Q 1_555 1_555
C67Q C66Q 1_555 1_555
H53Q C67Q 1_555 1_555
C68Q C67Q 1_555 1_555
C69Q C68Q 1_555 1_555
H54Q C69Q 1_555 1_555
C70Q C69Q 1_555 1_555
C71Q C66Q 1_555 1_555
H55Q C71Q 1_555 1_555
C72Q H56Q 1_555 1_555
C73Q C72Q 1_555 1_555
C74Q C73Q 1_555 1_555
H57Q C74Q 1_555 1_555
C75Q C74Q 1_555 1_555
H58Q C75Q 1_555 1_555
C76Q C75Q 1_555 1_555
H59Q C76Q 1_555 1_555
C77Q C76Q 1_555 1_555
C78Q H60Q 1_555 1_555
C79Q C78Q 1_555 1_555
C80Q C79Q 1_555 1_555
H61Q C80Q 1_555 1_555
C81Q C80Q 1_555 1_555
H62Q C81Q 1_555 1_555
C82Q C81Q 1_555 1_555
H63Q C82Q 1_555 1_555
C83Q C82Q 1_555 1_555
C84Q C83Q 1_555 1_555
H64Q C84Q 1_555 1_555
H65Q C84Q 1_555 1_555
H66Q C84Q 1_555 1_555
C85Q H67Q 1_555 1_555
C86Q C85Q 1_555 1_555
C87Q C86Q 1_555 1_555
H68Q C87Q 1_555 1_555
C88Q C87Q 1_555 1_555
H69Q C88Q 1_555 1_555
C89Q C88Q 1_555 1_555
H70Q C89Q 1_555 1_555
C90Q C89Q 1_555 1_555
C91Q C90Q 1_555 1_555
H71Q C91Q 1_555 1_555
H72Q C91Q 1_555 1_555
H73Q C91Q 1_555 1_555
N1Q C2Q 1_555 1_555
N2Q C7Q 1_555 1_555
N3Q C79Q 1_555 1_555
N4Q C56Q 1_555 1_555
N5Q C10Q 1_555 1_555
N6Q C41Q 1_555 1_555
N7Q Ag4 1_555 1_555
N8Q Ag4 1_555 1_555
N9Q C34Q 1_555 1_555
N10Q C24Q 1_555 1_555
N11Q Ag3 1_555 1_555
N12Q Ag3 1_555 1_555
N13Q C22Q 1_555 1_555
N14Q C27Q 1_555 1_555
N15Q C70Q 1_555 1_555
N16Q C86Q 1_555 1_555
Ag1Q N1Q 1_555 1_555
Ag2Q N13Q 1_555 1_555
Ag3Q N11 1_555 1_555
Ag4Q N7 1_555 1_555
C92Q C77Q 1_555 1_555
H74Q C92Q 1_555 1_555
H75Q C92Q 1_555 1_555
H76Q C92Q 1_555 1_555
F12A B3 1_555 1_555
F12B B3 1_555 1_555
C6 N1 1_555 1_555
C8 N2 1_555 1_555
C12 C13 1_555 1_555
C18 C19 1_555 1_555
C24 C25 1_555 1_555
C26 N13 1_555 1_555
C31 N14 1_555 1_555
C33 N10 1_555 1_555
C38 N9 1_555 1_555
C40 N5 1_555 1_555
C45 N6 1_555 1_555
C52 N7 1_555 1_555
C54 N8 1_555 1_555
C58 C59 1_555 1_555
C64 C65 1_555 1_555
C70 C71 1_555 1_555
C72 N12 1_555 1_555
C77 N11 1_555 1_555
C78 N4 1_555 1_555
C83 N3 1_555 1_555
C85 N15 1_555 1_555
C90 N16 1_555 1_555
N2 Ag1 1_555 1_555
N3 Ag1 1_555 1_555
N4 Ag1 1_555 1_555
N6 Ag4 1_555 1_555
N8 Ag4Q 1_555 1_555
N10 Ag3 1_555 1_555
N12 Ag3Q 1_555 1_555
N14 Ag2 1_555 1_555
N15 Ag2 1_555 1_555
N16 Ag2 1_555 1_555
C6Q N1Q 1_555 1_555
C8Q N2Q 1_555 1_555
C12Q C13Q 1_555 1_555
C18Q C19Q 1_555 1_555
C24Q C25Q 1_555 1_555
C26Q N13Q 1_555 1_555
C31Q N14Q 1_555 1_555
C33Q N10Q 1_555 1_555
C38Q N9Q 1_555 1_555
C40Q N5Q 1_555 1_555
C45Q N6Q 1_555 1_555
C48Q N7Q 1_555 1_555
C52Q N7Q 1_555 1_555
C53Q N8Q 1_555 1_555
C54Q N8Q 1_555 1_555
C58Q C59Q 1_555 1_555
C64Q C65Q 1_555 1_555
C68Q N12Q 1_555 1_555
C70Q C71Q 1_555 1_555
C72Q N12Q 1_555 1_555
C73Q N11Q 1_555 1_555
C77Q N11Q 1_555 1_555
C78Q N4Q 1_555 1_555
C83Q N3Q 1_555 1_555
C85Q N15Q 1_555 1_555
C90Q N16Q 1_555 1_555
N2Q Ag1Q 1_555 1_555
N3Q Ag1Q 1_555 1_555
N4Q Ag1Q 1_555 1_555
N5Q Ag4Q 1_555 1_555
N6Q Ag4Q 1_555 1_555
N9Q Ag3Q 1_555 1_555
N10Q Ag3Q 1_555 1_555
N14Q Ag2Q 1_555 1_555
N15Q Ag2Q 1_555 1_555
N16Q Ag2Q 1_555 1_555

#END
