
#######################################################################
#
#                 Cambridge Crystallographic Data Centre
#                                CCDC 
#
#######################################################################
#
# If this CIF has been generated from an entry in the Cambridge 
# Structural Database, then it will include bibliographic, chemical, 
# crystal, experimental, refinement or atomic coordinate data resulting 
# from the CCDC's data processing and validation procedures.
#
#######################################################################

data_TODHIF
_chemical_formula_moiety         
'C184 H152 Cu8 N32 8+,C4 Ag1 Au2 N4 1-,7(B1 F4 1-)'
_chemical_name_systematic        
"tetrakis(\m~4~-N,N',N'',N'''-1,1':4',1''-Terphenyl-3,3'',5,5''-tetrayltetrakis(1-(6-methylpyridin-2-yl)methanimine))-octa-copper (bis(\m~2~-cyano)-dicyano-di-gold-silver) clathrate octakis(tetrafluoroborate) unknown solvate"
_symmetry_cell_setting           tetragonal
_symmetry_space_group_name_H-M   'P 4/n'
_symmetry_Int_Tables_number      85
_space_group_name_Hall           '-P 4a'
loop_
_symmetry_equiv_pos_site_id
_symmetry_equiv_pos_as_xyz
1 x,y,z
2 1/2-x,1/2-y,z
3 1/2-y,x,z
4 y,1/2-x,z
5 -x,-y,-z
6 1/2+x,1/2+y,-z
7 1/2+y,-x,-z
8 -y,1/2+x,-z
_cell_length_a                   23.101(9)
_cell_length_b                   23.101(9)
_cell_length_c                   46.775(18)
_cell_angle_alpha                90
_cell_angle_beta                 90
_cell_angle_gamma                90
_cell_volume                     24961.8
_exptl_crystal_colour            brown
_exptl_crystal_description       block
_cell_formula_units_Z            2
_chemical_properties_physical    air-sensitive
loop_
_atom_site_label
_atom_site_type_symbol
_atom_site_fract_x
_atom_site_fract_y
_atom_site_fract_z
Cu1 Cu 0.38605(5) 0.06100(5) -0.07154(4)
Cu2 Cu 0.02205(16) 0.27238(15) 0.18862(6)
C1 C 0.0634(4) 0.1713(4) 0.1508(3)
C2 C 0.0993(5) 0.1551(5) 0.17326(18)
H1 H 0.0888 0.1641 0.1924
C3 C 0.1507(5) 0.1258(5) 0.1677(2)
C4 C 0.1661(4) 0.1127(4) 0.1397(3)
H2 H 0.2012 0.0926 0.1360
C5 C 0.1301(5) 0.1288(5) 0.11729(18)
C6 C 0.0788(5) 0.1581(5) 0.1228(2)
H3 H 0.0542 0.1692 0.1075
C7 C 0.1541(3) 0.1211(3) 0.08564(10)
C8 C 0.1412(3) 0.1606(2) 0.06417(14)
H4 H 0.1206 0.1951 0.0686
C9 C 0.1586(3) 0.1499(2) 0.03622(12)
H5 H 0.1498 0.1769 0.0216
C10 C 0.1888(3) 0.0995(3) 0.02973(10)
C11 C 0.2017(3) 0.0600(2) 0.05120(13)
H6 H 0.2223 0.0255 0.0468
C12 C 0.1843(3) 0.0707(3) 0.07915(11)
H7 H 0.1931 0.0437 0.0938
C13 C 0.2057(2) 0.0862(2) 0.00071(9)
C14 C 0.1699(2) 0.1022(3) -0.02180(12)
H8 H 0.1329 0.1186 -0.0180
C15 C 0.1880(2) 0.0942(3) -0.04985(11)
C16 C 0.2420(2) 0.0702(3) -0.05540(9)
H9 H 0.2545 0.0648 -0.0746
C17 C 0.2779(2) 0.0542(3) -0.03289(12)
C18 C 0.2598(2) 0.0622(2) -0.00483(11)
H10 H 0.2843 0.0513 0.0106
C19 C -0.0257(6) 0.2097(6) 0.1450(3)
H11 H -0.0327 0.1815 0.1306
N1 N -0.0535(4) 0.2924(5) 0.1723(2)
C20 C -0.0669(5) 0.2526(5) 0.1510(3)
C21 C -0.1214(6) 0.2531(5) 0.1384(2)
H12 H -0.1305 0.2259 0.1238
C22 C -0.1625(4) 0.2934(6) 0.1471(3)
H13 H -0.1997 0.2937 0.1385
C23 C -0.1491(5) 0.3331(5) 0.1684(3)
H14 H -0.1773 0.3606 0.1743
C24 C -0.0947(6) 0.3326(5) 0.1810(2)
C25 C -0.0794(9) 0.3842(7) 0.2003(4)
H15 H -0.0408 0.3783 0.2086
H16 H -0.1080 0.3874 0.2157
H17 H -0.0795 0.4199 0.1890
C26 C 0.3558(5) -0.0016(5) -0.0238(3)
H18 H 0.3355 -0.0164 -0.0077
N2 N 0.4426(3) 0.0053(3) -0.05303(14)
C27 C 0.4157(2) -0.0179(3) -0.02906(15)
C28 C 0.4458(3) -0.0557(3) -0.01133(13)
H19 H 0.4274 -0.0715 0.0051
C29 C 0.5029(3) -0.0701(3) -0.01756(16)
H20 H 0.5234 -0.0959 -0.0054
C30 C 0.5298(3) -0.0469(4) -0.04152(18)
H21 H 0.5687 -0.0568 -0.0458
C31 C 0.4997(3) -0.0091(3) -0.05926(14)
C32 C 0.5207(6) 0.0252(6) -0.0840(3)
H22 H 0.4884 0.0470 -0.0923
H23 H 0.5367 -0.0010 -0.0985
H24 H 0.5508 0.0521 -0.0776
N3 N 0.1797(6) 0.1067(7) 0.1900(3)
N4 N 0.2386(4) 0.0476(5) 0.2319(2)
C33 C 0.1958(5) 0.1344(6) 0.2124(3)
H25 H 0.1879 0.1747 0.2139
C34 C 0.2260(4) 0.1051(5) 0.2359(3)
C35 C 0.2407(6) 0.1344(5) 0.2601(3)
H26 H 0.2320 0.1744 0.2624
C36 C 0.2692(6) 0.1029(7) 0.2816(3)
H27 H 0.2801 0.1216 0.2989
C37 C 0.2811(5) 0.0462(7) 0.2778(2)
H28 H 0.2995 0.0247 0.2926
C38 C 0.2668(5) 0.0197(5) 0.2527(3)
C39 C 0.2818(8) -0.0425(5) 0.2469(4)
H29 H 0.2678 -0.0532 0.2278
H30 H 0.2633 -0.0672 0.2612
H31 H 0.3238 -0.0475 0.2477
N5 N 0.0750(6) 0.1382(5) -0.1120(2)
C40 C 0.1332(5) 0.1390(5) -0.1194(3)
C41 C 0.1502(4) 0.1604(6) -0.1459(3)
H32 H 0.1901 0.1610 -0.1509
C42 C 0.1090(6) 0.1810(5) -0.1650(2)
H33 H 0.1206 0.1956 -0.1831
C43 C 0.0507(5) 0.1801(5) -0.1576(3)
H34 H 0.0225 0.1942 -0.1706
C44 C 0.0337(4) 0.1587(5) -0.1311(3)
C45 C -0.0301(6) 0.1541(7) -0.1214(3)
H35 H -0.0316 0.1386 -0.1019
H36 H -0.0511 0.1283 -0.1343
H37 H -0.0479 0.1926 -0.1218
N6 N 0.0264(6) 0.2091(5) 0.1608(3)
N7 N 0.3331(3) 0.0301(3) -0.03969(17)
C46 C 0.1660(7) 0.1264(6) -0.0959(3)
H38 H 0.2066 0.1296 -0.0984
N8 N 0.1501(3) 0.1116(3) -0.07208(16)
Cu1B Cu 0.43900(5) 0.38605(5) -0.07154(4)
Cu2B Cu 0.22762(15) 0.02205(16) 0.18862(6)
C1B C 0.3287(4) 0.0634(4) 0.1508(3)
C2B C 0.3449(5) 0.0993(5) 0.17326(18)
H1B H 0.3359 0.0888 0.1924
C3B C 0.3742(5) 0.1507(5) 0.1677(2)
C4B C 0.3873(4) 0.1661(4) 0.1397(3)
H2B H 0.4074 0.2012 0.1360
C5B C 0.3712(5) 0.1301(5) 0.11729(18)
C6B C 0.3419(5) 0.0788(5) 0.1228(2)
H3B H 0.3308 0.0542 0.1075
C7B C 0.3789(3) 0.1541(3) 0.08564(10)
C8B C 0.3394(2) 0.1412(3) 0.06417(14)
H4B H 0.3049 0.1206 0.0686
C9B C 0.3501(2) 0.1586(3) 0.03622(12)
H5B H 0.3231 0.1498 0.0216
C10B C 0.4005(3) 0.1888(3) 0.02973(10)
C11B C 0.4400(2) 0.2017(3) 0.05120(13)
H6B H 0.4745 0.2223 0.0468
C12B C 0.4293(3) 0.1843(3) 0.07915(11)
H7B H 0.4563 0.1931 0.0938
C13B C 0.4138(2) 0.2057(2) 0.00071(9)
C14B C 0.3978(3) 0.1699(2) -0.02180(12)
H8B H 0.3814 0.1329 -0.0180
C15B C 0.4058(3) 0.1880(2) -0.04985(11)
C16B C 0.4298(3) 0.2420(2) -0.05540(9)
H9B H 0.4352 0.2545 -0.0746
C17B C 0.4458(3) 0.2779(2) -0.03289(12)
C18B C 0.4378(2) 0.2598(2) -0.00483(11)
H10B H 0.4487 0.2843 0.0106
C19B C 0.2903(6) -0.0257(6) 0.1450(3)
H11B H 0.3185 -0.0327 0.1306
N1B N 0.2076(5) -0.0535(4) 0.1723(2)
C20B C 0.2474(5) -0.0669(5) 0.1510(3)
C21B C 0.2469(5) -0.1214(6) 0.1384(2)
H12B H 0.2741 -0.1305 0.1238
C22B C 0.2066(6) -0.1625(4) 0.1471(3)
H13B H 0.2063 -0.1997 0.1385
C23B C 0.1669(5) -0.1491(5) 0.1684(3)
H14B H 0.1394 -0.1773 0.1743
C24B C 0.1674(5) -0.0947(6) 0.1810(2)
C25B C 0.1158(7) -0.0794(9) 0.2003(4)
H15B H 0.1217 -0.0408 0.2086
H16B H 0.1126 -0.1080 0.2157
H17B H 0.0801 -0.0795 0.1890
C26B C 0.5016(5) 0.3558(5) -0.0238(3)
H18B H 0.5164 0.3355 -0.0077
N2B N 0.4947(3) 0.4426(3) -0.05303(14)
C27B C 0.5179(3) 0.4157(2) -0.02906(15)
C28B C 0.5557(3) 0.4458(3) -0.01133(13)
H19B H 0.5715 0.4274 0.0051
C29B C 0.5701(3) 0.5029(3) -0.01756(16)
H20B H 0.5959 0.5234 -0.0054
C30B C 0.5469(4) 0.5298(3) -0.04152(18)
H21B H 0.5568 0.5687 -0.0458
C31B C 0.5091(3) 0.4997(3) -0.05926(14)
C32B C 0.4748(6) 0.5207(6) -0.0840(3)
H22B H 0.4530 0.4884 -0.0923
H23B H 0.5010 0.5367 -0.0985
H24B H 0.4479 0.5508 -0.0776
N3B N 0.3933(7) 0.1797(6) 0.1900(3)
N4B N 0.4524(5) 0.2386(4) 0.2319(2)
C33B C 0.3656(6) 0.1958(5) 0.2124(3)
H25B H 0.3253 0.1879 0.2139
C34B C 0.3949(5) 0.2260(4) 0.2359(3)
C35B C 0.3656(5) 0.2407(6) 0.2601(3)
H26B H 0.3256 0.2320 0.2624
C36B C 0.3971(7) 0.2692(6) 0.2816(3)
H27B H 0.3784 0.2801 0.2989
C37B C 0.4538(7) 0.2811(5) 0.2778(2)
H28B H 0.4753 0.2995 0.2926
C38B C 0.4803(5) 0.2668(5) 0.2527(3)
C39B C 0.5425(5) 0.2818(8) 0.2469(4)
H29B H 0.5532 0.2678 0.2278
H30B H 0.5672 0.2633 0.2612
H31B H 0.5475 0.3238 0.2477
N5B N 0.3618(5) 0.0750(6) -0.1120(2)
C40B C 0.3610(5) 0.1332(5) -0.1194(3)
C41B C 0.3396(6) 0.1502(4) -0.1459(3)
H32B H 0.3390 0.1901 -0.1509
C42B C 0.3190(5) 0.1090(6) -0.1650(2)
H33B H 0.3044 0.1206 -0.1831
C43B C 0.3199(5) 0.0507(5) -0.1576(3)
H34B H 0.3058 0.0225 -0.1706
C44B C 0.3413(5) 0.0337(4) -0.1311(3)
C45B C 0.3459(7) -0.0301(6) -0.1214(3)
H35B H 0.3614 -0.0316 -0.1019
H36B H 0.3717 -0.0511 -0.1343
H37B H 0.3074 -0.0479 -0.1218
N6B N 0.2909(5) 0.0264(6) 0.1608(3)
N7B N 0.4699(3) 0.3331(3) -0.03969(17)
C46B C 0.3736(6) 0.1660(7) -0.0959(3)
H38B H 0.3704 0.2066 -0.0984
N8B N 0.3884(3) 0.1501(3) -0.07208(16)
Cu1C Cu 0.06100(5) 0.11395(5) -0.07154(4)
Cu2C Cu 0.27238(15) 0.47795(16) 0.18862(6)
C1C C 0.1713(4) 0.4366(4) 0.1508(3)
C2C C 0.1551(5) 0.4007(5) 0.17326(18)
H1C H 0.1641 0.4112 0.1924
C3C C 0.1258(5) 0.3493(5) 0.1677(2)
C4C C 0.1127(4) 0.3339(4) 0.1397(3)
H2C H 0.0926 0.2988 0.1360
C5C C 0.1288(5) 0.3699(5) 0.11729(18)
C6C C 0.1581(5) 0.4212(5) 0.1228(2)
H3C H 0.1692 0.4458 0.1075
C7C C 0.1211(3) 0.3459(3) 0.08564(10)
C8C C 0.1606(2) 0.3588(3) 0.06417(14)
H4C H 0.1951 0.3794 0.0686
C9C C 0.1499(2) 0.3414(3) 0.03622(12)
H5C H 0.1769 0.3502 0.0216
C10C C 0.0995(3) 0.3112(3) 0.02973(10)
C11C C 0.0600(2) 0.2983(3) 0.05120(13)
H6C H 0.0255 0.2777 0.0468
C12C C 0.0707(3) 0.3157(3) 0.07915(11)
H7C H 0.0437 0.3069 0.0938
C13C C 0.0862(2) 0.2943(2) 0.00071(9)
C14C C 0.1022(3) 0.3301(2) -0.02180(12)
H8C H 0.1186 0.3671 -0.0180
C15C C 0.0942(3) 0.3120(2) -0.04985(11)
C16C C 0.0702(3) 0.2580(2) -0.05540(9)
H9C H 0.0648 0.2455 -0.0746
C17C C 0.0542(3) 0.2221(2) -0.03289(12)
C18C C 0.0622(2) 0.2402(2) -0.00483(11)
H10C H 0.0513 0.2157 0.0106
C19C C 0.2097(6) 0.5257(6) 0.1450(3)
H11C H 0.1815 0.5327 0.1306
N1C N 0.2924(5) 0.5535(4) 0.1723(2)
C20C C 0.2526(5) 0.5669(5) 0.1510(3)
C21C C 0.2531(5) 0.6214(6) 0.1384(2)
H12C H 0.2259 0.6305 0.1238
C22C C 0.2934(6) 0.6625(4) 0.1471(3)
H13C H 0.2937 0.6997 0.1385
C23C C 0.3331(5) 0.6491(5) 0.1684(3)
H14C H 0.3606 0.6773 0.1743
C24C C 0.3326(5) 0.5947(6) 0.1810(2)
C25C C 0.3842(7) 0.5794(9) 0.2003(4)
H15C H 0.3783 0.5408 0.2086
H16C H 0.3874 0.6080 0.2157
H17C H 0.4199 0.5795 0.1890
C26C C -0.0016(5) 0.1442(5) -0.0238(3)
H18C H -0.0164 0.1645 -0.0077
N2C N 0.0053(3) 0.0574(3) -0.05303(14)
C27C C -0.0179(3) 0.0843(2) -0.02906(15)
C28C C -0.0557(3) 0.0542(3) -0.01133(13)
H19C H -0.0715 0.0726 0.0051
C29C C -0.0701(3) -0.0029(3) -0.01756(16)
H20C H -0.0959 -0.0234 -0.0054
C30C C -0.0469(4) -0.0298(3) -0.04152(18)
H21C H -0.0568 -0.0687 -0.0458
C31C C -0.0091(3) 0.0003(3) -0.05926(14)
C32C C 0.0252(6) -0.0207(6) -0.0840(3)
H22C H 0.0470 0.0116 -0.0923
H23C H -0.0010 -0.0367 -0.0985
H24C H 0.0521 -0.0508 -0.0776
N3C N 0.1067(7) 0.3203(6) 0.1900(3)
N4C N 0.0476(5) 0.2614(4) 0.2319(2)
C33C C 0.1344(6) 0.3042(5) 0.2124(3)
H25C H 0.1747 0.3121 0.2139
C34C C 0.1051(5) 0.2740(4) 0.2359(3)
C35C C 0.1344(5) 0.2593(6) 0.2601(3)
H26C H 0.1744 0.2680 0.2624
C36C C 0.1029(7) 0.2308(6) 0.2816(3)
H27C H 0.1216 0.2199 0.2989
C37C C 0.0462(7) 0.2189(5) 0.2778(2)
H28C H 0.0247 0.2005 0.2926
C38C C 0.0197(5) 0.2332(5) 0.2527(3)
C39C C -0.0425(5) 0.2182(8) 0.2469(4)
H29C H -0.0532 0.2322 0.2278
H30C H -0.0672 0.2367 0.2612
H31C H -0.0475 0.1762 0.2477
N5C N 0.1382(5) 0.4250(6) -0.1120(2)
C40C C 0.1390(5) 0.3668(5) -0.1194(3)
C41C C 0.1604(6) 0.3498(4) -0.1459(3)
H32C H 0.1610 0.3099 -0.1509
C42C C 0.1810(5) 0.3910(6) -0.1650(2)
H33C H 0.1956 0.3794 -0.1831
C43C C 0.1801(5) 0.4493(5) -0.1576(3)
H34C H 0.1942 0.4775 -0.1706
C44C C 0.1587(5) 0.4663(4) -0.1311(3)
C45C C 0.1541(7) 0.5301(6) -0.1214(3)
H35C H 0.1386 0.5316 -0.1019
H36C H 0.1283 0.5511 -0.1343
H37C H 0.1926 0.5479 -0.1218
N6C N 0.2091(5) 0.4736(6) 0.1608(3)
N7C N 0.0301(3) 0.1669(3) -0.03969(17)
C46C C 0.1264(6) 0.3340(7) -0.0959(3)
H38C H 0.1296 0.2934 -0.0984
N8C N 0.1116(3) 0.3499(3) -0.07208(16)
Cu1A Cu 0.11395(5) 0.43900(5) -0.07154(4)
Cu2A Cu 0.47795(16) 0.22762(15) 0.18862(6)
C1A C 0.4366(4) 0.3287(4) 0.1508(3)
C2A C 0.4007(5) 0.3449(5) 0.17326(18)
H1A H 0.4112 0.3359 0.1924
C3A C 0.3493(5) 0.3742(5) 0.1677(2)
C4A C 0.3339(4) 0.3873(4) 0.1397(3)
H2A H 0.2988 0.4074 0.1360
C5A C 0.3699(5) 0.3712(5) 0.11729(18)
C6A C 0.4212(5) 0.3419(5) 0.1228(2)
H3A H 0.4458 0.3308 0.1075
C7A C 0.3459(3) 0.3789(3) 0.08564(10)
C8A C 0.3588(3) 0.3394(2) 0.06417(14)
H4A H 0.3794 0.3049 0.0686
C9A C 0.3414(3) 0.3501(2) 0.03622(12)
H5A H 0.3502 0.3231 0.0216
C10A C 0.3112(3) 0.4005(3) 0.02973(10)
C11A C 0.2983(3) 0.4400(2) 0.05120(13)
H6A H 0.2777 0.4745 0.0468
C12A C 0.3157(3) 0.4293(3) 0.07915(11)
H7A H 0.3069 0.4563 0.0938
C13A C 0.2943(2) 0.4138(2) 0.00071(9)
C14A C 0.3301(2) 0.3978(3) -0.02180(12)
H8A H 0.3671 0.3814 -0.0180
C15A C 0.3120(2) 0.4058(3) -0.04985(11)
C16A C 0.2580(2) 0.4298(3) -0.05540(9)
H9A H 0.2455 0.4352 -0.0746
C17A C 0.2221(2) 0.4458(3) -0.03289(12)
C18A C 0.2402(2) 0.4378(2) -0.00483(11)
H10A H 0.2157 0.4487 0.0106
C19A C 0.5257(6) 0.2903(6) 0.1450(3)
H11A H 0.5327 0.3185 0.1306
N1A N 0.5535(4) 0.2076(5) 0.1723(2)
C20A C 0.5669(5) 0.2474(5) 0.1510(3)
C21A C 0.6214(6) 0.2469(5) 0.1384(2)
H12A H 0.6305 0.2741 0.1238
C22A C 0.6625(4) 0.2066(6) 0.1471(3)
H13A H 0.6997 0.2063 0.1385
C23A C 0.6491(5) 0.1669(5) 0.1684(3)
H14A H 0.6773 0.1394 0.1743
C24A C 0.5947(6) 0.1674(5) 0.1810(2)
C25A C 0.5794(9) 0.1158(7) 0.2003(4)
H15A H 0.5408 0.1217 0.2086
H16A H 0.6080 0.1126 0.2157
H17A H 0.5795 0.0801 0.1890
C26A C 0.1442(5) 0.5016(5) -0.0238(3)
H18A H 0.1645 0.5164 -0.0077
N2A N 0.0574(3) 0.4947(3) -0.05303(14)
C27A C 0.0843(2) 0.5179(3) -0.02906(15)
C28A C 0.0542(3) 0.5557(3) -0.01133(13)
H19A H 0.0726 0.5715 0.0051
C29A C -0.0029(3) 0.5701(3) -0.01756(16)
H20A H -0.0234 0.5959 -0.0054
C30A C -0.0298(3) 0.5469(4) -0.04152(18)
H21A H -0.0687 0.5568 -0.0458
C31A C 0.0003(3) 0.5091(3) -0.05926(14)
C32A C -0.0207(6) 0.4748(6) -0.0840(3)
H22A H 0.0116 0.4530 -0.0923
H23A H -0.0367 0.5010 -0.0985
H24A H -0.0508 0.4479 -0.0776
N3A N 0.3203(6) 0.3933(7) 0.1900(3)
N4A N 0.2614(4) 0.4524(5) 0.2319(2)
C33A C 0.3042(5) 0.3656(6) 0.2124(3)
H25A H 0.3121 0.3253 0.2139
C34A C 0.2740(4) 0.3949(5) 0.2359(3)
C35A C 0.2593(6) 0.3656(5) 0.2601(3)
H26A H 0.2680 0.3256 0.2624
C36A C 0.2308(6) 0.3971(7) 0.2816(3)
H27A H 0.2199 0.3784 0.2989
C37A C 0.2189(5) 0.4538(7) 0.2778(2)
H28A H 0.2005 0.4753 0.2926
C38A C 0.2332(5) 0.4803(5) 0.2527(3)
C39A C 0.2182(8) 0.5425(5) 0.2469(4)
H29A H 0.2322 0.5532 0.2278
H30A H 0.2367 0.5672 0.2612
H31A H 0.1762 0.5475 0.2477
N5A N 0.4250(6) 0.3618(5) -0.1120(2)
C40A C 0.3668(5) 0.3610(5) -0.1194(3)
C41A C 0.3498(4) 0.3396(6) -0.1459(3)
H32A H 0.3099 0.3390 -0.1509
C42A C 0.3910(6) 0.3190(5) -0.1650(2)
H33A H 0.3794 0.3044 -0.1831
C43A C 0.4493(5) 0.3199(5) -0.1576(3)
H34A H 0.4775 0.3058 -0.1706
C44A C 0.4663(4) 0.3413(5) -0.1311(3)
C45A C 0.5301(6) 0.3459(7) -0.1214(3)
H35A H 0.5316 0.3614 -0.1019
H36A H 0.5511 0.3717 -0.1343
H37A H 0.5479 0.3074 -0.1218
N6A N 0.4736(6) 0.2909(5) 0.1608(3)
N7A N 0.1669(3) 0.4699(3) -0.03969(17)
C46A C 0.3340(7) 0.3736(6) -0.0959(3)
H38A H 0.2934 0.3704 -0.0984
N8A N 0.3499(3) 0.3884(3) -0.07208(16)
Ag1 Ag 0.2500 0.2500 0.04990(5)
Au1 Au 0.2500 0.2500 0.15765(4)
N9 N 0.2500 0.2500 0.0883(5)
C47 C 0.2500 0.2500 0.1165(4)
C48 C 0.2500 0.2500 0.1994(3)
N10 N 0.2500 0.2500 0.2245(3)
Au2 Au 0.2500 0.2500 -0.05774(3)
C49 C 0.2500 0.2500 -0.0161(4)
C50 C 0.2500 0.2500 -0.0993(4)
N11 N 0.2500 0.2500 0.0098(5)
N12 N 0.2500 0.2500 -0.1237(5)
B1 B -0.3242(2) 0.0545(2) -0.05370(11)
F1 F -0.3377(3) -0.0047(2) -0.05491(15)
F2 F -0.3740(3) 0.0860(3) -0.04657(19)
F3 F -0.2814(3) 0.0638(3) -0.03293(15)
F4 F -0.3037(4) 0.0728(4) -0.08044(13)
loop_
_geom_bond_atom_site_label_1
_geom_bond_atom_site_label_2
_geom_bond_site_symmetry_1
_geom_bond_site_symmetry_2
Cu1 N2 1_555 1_555
Cu2 N1 1_555 1_555
C1 C2 1_555 1_555
C2 H1 1_555 1_555
C3 C2 1_555 1_555
C4 C3 1_555 1_555
H2 C4 1_555 1_555
C5 C4 1_555 1_555
C6 C1 1_555 1_555
H3 C6 1_555 1_555
C7 C5 1_555 1_555
C8 C7 1_555 1_555
H4 C8 1_555 1_555
C9 C8 1_555 1_555
H5 C9 1_555 1_555
C10 C9 1_555 1_555
C11 C10 1_555 1_555
H6 C11 1_555 1_555
C12 C7 1_555 1_555
H7 C12 1_555 1_555
C13 C10 1_555 1_555
C14 C13 1_555 1_555
H8 C14 1_555 1_555
C15 C14 1_555 1_555
C16 C15 1_555 1_555
H9 C16 1_555 1_555
C17 C16 1_555 1_555
C18 C13 1_555 1_555
H10 C18 1_555 1_555
C19 H11 1_555 1_555
N1 C20 1_555 1_555
C20 C19 1_555 1_555
C21 C20 1_555 1_555
H12 C21 1_555 1_555
C22 C21 1_555 1_555
H13 C22 1_555 1_555
C23 C22 1_555 1_555
H14 C23 1_555 1_555
C24 N1 1_555 1_555
C25 C24 1_555 1_555
H15 C25 1_555 1_555
H16 C25 1_555 1_555
H17 C25 1_555 1_555
C26 H18 1_555 1_555
N2 C27 1_555 1_555
C27 C26 1_555 1_555
C28 C27 1_555 1_555
H19 C28 1_555 1_555
C29 C28 1_555 1_555
H20 C29 1_555 1_555
C30 C29 1_555 1_555
H21 C30 1_555 1_555
C31 N2 1_555 1_555
C32 C31 1_555 1_555
H22 C32 1_555 1_555
H23 C32 1_555 1_555
H24 C32 1_555 1_555
N3 C3 1_555 1_555
N4 C34 1_555 1_555
C33 N3 1_555 1_555
H25 C33 1_555 1_555
C34 C33 1_555 1_555
C35 C34 1_555 1_555
H26 C35 1_555 1_555
C36 C35 1_555 1_555
H27 C36 1_555 1_555
C37 C36 1_555 1_555
H28 C37 1_555 1_555
C38 N4 1_555 1_555
C39 C38 1_555 1_555
H29 C39 1_555 1_555
H30 C39 1_555 1_555
H31 C39 1_555 1_555
N5 C40 1_555 1_555
C40 C41 1_555 1_555
C41 H32 1_555 1_555
C42 C41 1_555 1_555
H33 C42 1_555 1_555
C43 C42 1_555 1_555
H34 C43 1_555 1_555
C44 N5 1_555 1_555
C45 C44 1_555 1_555
H35 C45 1_555 1_555
H36 C45 1_555 1_555
H37 C45 1_555 1_555
N6 Cu2 1_555 1_555
N7 Cu1 1_555 1_555
C46 C40 1_555 1_555
H38 C46 1_555 1_555
N8 C15 1_555 1_555
Ag1 N9 1_555 1_555
Au1 C47 1_555 1_555
N9 C47 1_555 1_555
C48 Au1 1_555 1_555
N10 C48 1_555 1_555
Au2 C49 1_555 1_555
C49 N11 1_555 1_555
C50 Au2 1_555 1_555
N11 Ag1 1_555 1_555
N12 C50 1_555 1_555
B1 F1 1_555 1_555
F2 B1 1_555 1_555
F3 B1 1_555 1_555
F4 B1 1_555 1_555
Cu1B N2B 1_555 1_555
Cu2B N3 1_555 1_555
C1B C2B 1_555 1_555
C2B H1B 1_555 1_555
C3B C2B 1_555 1_555
C4B C3B 1_555 1_555
H2B C4B 1_555 1_555
C5B C4B 1_555 1_555
C6B C1B 1_555 1_555
H3B C6B 1_555 1_555
C7B C5B 1_555 1_555
C8B C7B 1_555 1_555
H4B C8B 1_555 1_555
C9B C8B 1_555 1_555
H5B C9B 1_555 1_555
C10B C9B 1_555 1_555
C11B C10B 1_555 1_555
H6B C11B 1_555 1_555
C12B C7B 1_555 1_555
H7B C12B 1_555 1_555
C13B C10B 1_555 1_555
C14B C13B 1_555 1_555
H8B C14B 1_555 1_555
C15B C14B 1_555 1_555
C16B C15B 1_555 1_555
H9B C16B 1_555 1_555
C17B C16B 1_555 1_555
C18B C13B 1_555 1_555
H10B C18B 1_555 1_555
C19B H11B 1_555 1_555
N1B Cu2B 1_555 1_555
C20B C19B 1_555 1_555
C21B C20B 1_555 1_555
H12B C21B 1_555 1_555
C22B C21B 1_555 1_555
H13B C22B 1_555 1_555
C23B C22B 1_555 1_555
H14B C23B 1_555 1_555
C24B N1B 1_555 1_555
C25B C24B 1_555 1_555
H15B C25B 1_555 1_555
H16B C25B 1_555 1_555
H17B C25B 1_555 1_555
C26B H18B 1_555 1_555
N2B C27B 1_555 1_555
C27B C26B 1_555 1_555
C28B C27B 1_555 1_555
H19B C28B 1_555 1_555
C29B C28B 1_555 1_555
H20B C29B 1_555 1_555
C30B C29B 1_555 1_555
H21B C30B 1_555 1_555
C31B N2B 1_555 1_555
C32B C31B 1_555 1_555
H22B C32B 1_555 1_555
H23B C32B 1_555 1_555
H24B C32B 1_555 1_555
N3B C3B 1_555 1_555
N4B C34B 1_555 1_555
C33B N3B 1_555 1_555
H25B C33B 1_555 1_555
C34B C33B 1_555 1_555
C35B C34B 1_555 1_555
H26B C35B 1_555 1_555
C36B C35B 1_555 1_555
H27B C36B 1_555 1_555
C37B C36B 1_555 1_555
H28B C37B 1_555 1_555
C38B N4B 1_555 1_555
C39B C38B 1_555 1_555
H29B C39B 1_555 1_555
H30B C39B 1_555 1_555
H31B C39B 1_555 1_555
N5B Cu1 1_555 1_555
C40B N5B 1_555 1_555
C41B C40B 1_555 1_555
H32B C41B 1_555 1_555
C42B C41B 1_555 1_555
H33B C42B 1_555 1_555
C43B C42B 1_555 1_555
H34B C43B 1_555 1_555
C44B N5B 1_555 1_555
C45B C44B 1_555 1_555
H35B C45B 1_555 1_555
H36B C45B 1_555 1_555
H37B C45B 1_555 1_555
N6B Cu2B 1_555 1_555
N7B Cu1B 1_555 1_555
C46B C40B 1_555 1_555
H38B C46B 1_555 1_555
N8B Cu1 1_555 1_555
Cu1C N5 1_555 1_555
Cu2C N1C 1_555 1_555
C1C C2C 1_555 1_555
C2C H1C 1_555 1_555
C3C C2C 1_555 1_555
C4C C3C 1_555 1_555
H2C C4C 1_555 1_555
C5C C4C 1_555 1_555
C6C C1C 1_555 1_555
H3C C6C 1_555 1_555
C7C C5C 1_555 1_555
C8C C7C 1_555 1_555
H4C C8C 1_555 1_555
C9C C8C 1_555 1_555
H5C C9C 1_555 1_555
C10C C9C 1_555 1_555
C11C C10C 1_555 1_555
H6C C11C 1_555 1_555
C12C C7C 1_555 1_555
H7C C12C 1_555 1_555
C13C C10C 1_555 1_555
C14C C13C 1_555 1_555
H8C C14C 1_555 1_555
C15C C14C 1_555 1_555
C16C C15C 1_555 1_555
H9C C16C 1_555 1_555
C17C C16C 1_555 1_555
C18C C13C 1_555 1_555
H10C C18C 1_555 1_555
C19C H11C 1_555 1_555
N1C C20C 1_555 1_555
C20C C19C 1_555 1_555
C21C C20C 1_555 1_555
H12C C21C 1_555 1_555
C22C C21C 1_555 1_555
H13C C22C 1_555 1_555
C23C C22C 1_555 1_555
H14C C23C 1_555 1_555
C24C N1C 1_555 1_555
C25C C24C 1_555 1_555
H15C C25C 1_555 1_555
H16C C25C 1_555 1_555
H17C C25C 1_555 1_555
C26C H18C 1_555 1_555
N2C Cu1C 1_555 1_555
C27C C26C 1_555 1_555
C28C C27C 1_555 1_555
H19C C28C 1_555 1_555
C29C C28C 1_555 1_555
H20C C29C 1_555 1_555
C30C C29C 1_555 1_555
H21C C30C 1_555 1_555
C31C N2C 1_555 1_555
C32C C31C 1_555 1_555
H22C C32C 1_555 1_555
H23C C32C 1_555 1_555
H24C C32C 1_555 1_555
N3C Cu2 1_555 1_555
N4C Cu2 1_555 1_555
C33C N3C 1_555 1_555
H25C C33C 1_555 1_555
C34C N4C 1_555 1_555
C35C C34C 1_555 1_555
H26C C35C 1_555 1_555
C36C C35C 1_555 1_555
H27C C36C 1_555 1_555
C37C C36C 1_555 1_555
H28C C37C 1_555 1_555
C38C N4C 1_555 1_555
C39C C38C 1_555 1_555
H29C C39C 1_555 1_555
H30C C39C 1_555 1_555
H31C C39C 1_555 1_555
N5C C40C 1_555 1_555
C40C C41C 1_555 1_555
C41C H32C 1_555 1_555
C42C C41C 1_555 1_555
H33C C42C 1_555 1_555
C43C C42C 1_555 1_555
H34C C43C 1_555 1_555
C44C N5C 1_555 1_555
C45C C44C 1_555 1_555
H35C C45C 1_555 1_555
H36C C45C 1_555 1_555
H37C C45C 1_555 1_555
N6C Cu2C 1_555 1_555
N7C Cu1C 1_555 1_555
C46C C40C 1_555 1_555
H38C C46C 1_555 1_555
N8C C15C 1_555 1_555
Cu1A N5C 1_555 1_555
Cu2A N3B 1_555 1_555
C1A C2A 1_555 1_555
C2A H1A 1_555 1_555
C3A C2A 1_555 1_555
C4A C3A 1_555 1_555
H2A C4A 1_555 1_555
C5A C4A 1_555 1_555
C6A C1A 1_555 1_555
H3A C6A 1_555 1_555
C7A C5A 1_555 1_555
C8A C7A 1_555 1_555
H4A C8A 1_555 1_555
C9A C8A 1_555 1_555
H5A C9A 1_555 1_555
C10A C9A 1_555 1_555
C11A C10A 1_555 1_555
H6A C11A 1_555 1_555
C12A C7A 1_555 1_555
H7A C12A 1_555 1_555
C13A C10A 1_555 1_555
C14A C13A 1_555 1_555
H8A C14A 1_555 1_555
C15A C14A 1_555 1_555
C16A C15A 1_555 1_555
H9A C16A 1_555 1_555
C17A C16A 1_555 1_555
C18A C13A 1_555 1_555
H10A C18A 1_555 1_555
C19A H11A 1_555 1_555
N1A Cu2A 1_555 1_555
C20A C19A 1_555 1_555
C21A C20A 1_555 1_555
H12A C21A 1_555 1_555
C22A C21A 1_555 1_555
H13A C22A 1_555 1_555
C23A C22A 1_555 1_555
H14A C23A 1_555 1_555
C24A N1A 1_555 1_555
C25A C24A 1_555 1_555
H15A C25A 1_555 1_555
H16A C25A 1_555 1_555
H17A C25A 1_555 1_555
C26A H18A 1_555 1_555
N2A Cu1A 1_555 1_555
C27A C26A 1_555 1_555
C28A C27A 1_555 1_555
H19A C28A 1_555 1_555
C29A C28A 1_555 1_555
H20A C29A 1_555 1_555
C30A C29A 1_555 1_555
H21A C30A 1_555 1_555
C31A N2A 1_555 1_555
C32A C31A 1_555 1_555
H22A C32A 1_555 1_555
H23A C32A 1_555 1_555
H24A C32A 1_555 1_555
N3A Cu2C 1_555 1_555
N4A Cu2C 1_555 1_555
C33A N3A 1_555 1_555
H25A C33A 1_555 1_555
C34A N4A 1_555 1_555
C35A C34A 1_555 1_555
H26A C35A 1_555 1_555
C36A C35A 1_555 1_555
H27A C36A 1_555 1_555
C37A C36A 1_555 1_555
H28A C37A 1_555 1_555
C38A N4A 1_555 1_555
C39A C38A 1_555 1_555
H29A C39A 1_555 1_555
H30A C39A 1_555 1_555
H31A C39A 1_555 1_555
N5A Cu1B 1_555 1_555
C40A N5A 1_555 1_555
C41A C40A 1_555 1_555
H32A C41A 1_555 1_555
C42A C41A 1_555 1_555
H33A C42A 1_555 1_555
C43A C42A 1_555 1_555
H34A C43A 1_555 1_555
C44A N5A 1_555 1_555
C45A C44A 1_555 1_555
H35A C45A 1_555 1_555
H36A C45A 1_555 1_555
H37A C45A 1_555 1_555
N6A Cu2A 1_555 1_555
N7A Cu1A 1_555 1_555
C46A C40A 1_555 1_555
H38A C46A 1_555 1_555
N8A Cu1B 1_555 1_555
C1 N6 1_555 1_555
C5 C6 1_555 1_555
C11 C12 1_555 1_555
C17 C18 1_555 1_555
C17 N7 1_555 1_555
C19 N6 1_555 1_555
C23 C24 1_555 1_555
C26 N7 1_555 1_555
C30 C31 1_555 1_555
N4 Cu2B 1_555 1_555
C37 C38 1_555 1_555
C43 C44 1_555 1_555
C46 N8 1_555 1_555
N8 Cu1C 1_555 1_555
C1B N6B 1_555 1_555
C5B C6B 1_555 1_555
C11B C12B 1_555 1_555
C15B N8B 1_555 1_555
C17B C18B 1_555 1_555
C17B N7B 1_555 1_555
C19B N6B 1_555 1_555
N1B C20B 1_555 1_555
C23B C24B 1_555 1_555
C26B N7B 1_555 1_555
C30B C31B 1_555 1_555
N4B Cu2A 1_555 1_555
C37B C38B 1_555 1_555
C43B C44B 1_555 1_555
C46B N8B 1_555 1_555
C1C N6C 1_555 1_555
C3C N3C 1_555 1_555
C5C C6C 1_555 1_555
C11C C12C 1_555 1_555
C17C C18C 1_555 1_555
C17C N7C 1_555 1_555
C19C N6C 1_555 1_555
C23C C24C 1_555 1_555
C26C N7C 1_555 1_555
N2C C27C 1_555 1_555
C30C C31C 1_555 1_555
C33C C34C 1_555 1_555
C37C C38C 1_555 1_555
C43C C44C 1_555 1_555
C46C N8C 1_555 1_555
N8C Cu1A 1_555 1_555
C1A N6A 1_555 1_555
C3A N3A 1_555 1_555
C5A C6A 1_555 1_555
C11A C12A 1_555 1_555
C15A N8A 1_555 1_555
C17A C18A 1_555 1_555
C17A N7A 1_555 1_555
C19A N6A 1_555 1_555
N1A C20A 1_555 1_555
C23A C24A 1_555 1_555
C26A N7A 1_555 1_555
N2A C27A 1_555 1_555
C30A C31A 1_555 1_555
C33A C34A 1_555 1_555
C37A C38A 1_555 1_555
C43A C44A 1_555 1_555
C46A N8A 1_555 1_555

#END
