
#######################################################################
#
#                 Cambridge Crystallographic Data Centre
#                                CCDC 
#
#######################################################################
#
# If this CIF has been generated from an entry in the Cambridge 
# Structural Database, then it will include bibliographic, chemical, 
# crystal, experimental, refinement or atomic coordinate data resulting 
# from the CCDC's data processing and validation procedures.
#
#######################################################################

data_TODHEB
_chemical_formula_moiety         
'C168 H104 Br16 Cu8 N32 8+,8(B1 F4 1-),5(C2 H3 N1),0.5(C4 H10 O1)'
_chemical_name_systematic        
"tetrakis(\m~4~-N,N',N'',N'''-1,1':4',1''-Terphenyl-3,3'',5,5''-tetrayltetrakis(1-(6-bromopyridin-2-yl)methanimine))-octa-copper octakis(tetrafluoroborate) acetonitrile diethyl ether unknown solvate"
_symmetry_cell_setting           monoclinic
_symmetry_space_group_name_H-M   'C 2/c'
_symmetry_Int_Tables_number      15
_space_group_name_Hall           '-C 2yn'
loop_
_symmetry_equiv_pos_site_id
_symmetry_equiv_pos_as_xyz
1 x,y,z
2 -x,y,1/2-z
3 1/2+x,1/2+y,z
4 1/2-x,1/2+y,1/2-z
5 -x,-y,-z
6 x,-y,1/2+z
7 1/2-x,1/2-y,-z
8 1/2+x,1/2-y,1/2+z
_cell_length_a                   47.2607(10)
_cell_length_b                   25.8641(5)
_cell_length_c                   38.3681(9)
_cell_angle_alpha                90
_cell_angle_beta                 109.894(2)
_cell_angle_gamma                90
_cell_volume                     44100.7
_exptl_crystal_colour            brown
_exptl_crystal_description       plate
_cell_formula_units_Z            8
_chemical_properties_physical    air-sensitive
loop_
_atom_site_label
_atom_site_type_symbol
_atom_site_fract_x
_atom_site_fract_y
_atom_site_fract_z
Cu1 Cu 0.43688(2) 0.53103(4) 0.52650(3)
Cu2 Cu 0.35249(3) 0.64318(5) 0.55880(3)
Cu3 Cu 0.51498(4) 0.81907(7) 0.51918(5)
Cu4 Cu 0.43094(4) 0.93112(6) 0.54354(4)
Cu5 Cu 0.38884(3) 0.76954(5) 0.18092(3)
Cu6 Cu 0.25535(3) 0.93526(5) 0.23308(4)
Cu7 Cu 0.19044(3) 0.75596(5) 0.23806(4)
Cu8 Cu 0.33232(3) 0.60449(5) 0.18760(3)
N1 N 0.44186(14) 0.5103(3) 0.57924(17)
N2 N 0.45253(14) 0.5987(2) 0.55182(17)
N3 N 0.49601(18) 0.7721(3) 0.5465(2)
N4 N 0.36672(15) 0.5929(3) 0.23410(18)
N5 N 0.32690(16) 0.5235(3) 0.19495(19)
N6 N 0.41588(18) 0.7538(3) 0.2334(2)
N7 N 0.4189(2) 0.8287(3) 0.1879(2)
N8 N 0.45612(14) 0.4761(2) 0.50306(17)
N9 N 0.40408(13) 0.5250(2) 0.47692(17)
N10 N 0.32847(16) 0.6187(3) 0.50798(18)
N11 N 0.31038(19) 0.6559(3) 0.5614(2)
N12 N 0.29531(16) 0.6500(3) 0.17568(19)
N13 N 0.32537(17) 0.6187(3) 0.13264(19)
N14 N 0.21774(16) 0.7469(3) 0.2077(2)
N15 N 0.16644(16) 0.7977(3) 0.1935(2)
N16 N 0.37701(17) 0.6058(3) 0.6059(2)
N17 N 0.38893(17) 0.6895(3) 0.5743(2)
N18 N 0.43288(18) 0.8627(3) 0.5692(2)
N19 N 0.4658(3) 0.9449(4) 0.5903(3)
N20 N 0.16834(17) 0.7014(3) 0.2568(2)
N21 N 0.21074(15) 0.7673(3) 0.2926(2)
N22 N 0.26113(15) 0.9279(3) 0.2869(2)
N23 N 0.27439(17) 1.0067(3) 0.2512(3)
N24 N 0.4194(2) 0.9447(4) 0.4895(2)
N25 N 0.4978(2) 0.8468(3) 0.4683(3)
N26 N 0.26592(17) 0.8860(3) 0.1982(2)
N27 N 0.21827(16) 0.9461(3) 0.1873(2)
N28 N 0.34357(18) 0.7838(3) 0.1682(2)
N29 N 0.3734(2) 0.7373(3) 0.1304(2)
C1 C 0.43895(19) 0.4638(3) 0.5927(2)
C2 C 0.4495(2) 0.4513(3) 0.6306(2)
H1 H 0.4472 0.4176 0.6390
C3 C 0.4632(2) 0.4892(4) 0.6545(2)
H2 H 0.4704 0.4825 0.6804
C4 C 0.4669(2) 0.5388(4) 0.6412(2)
H3 H 0.4764 0.5656 0.6580
C5 C 0.45663(18) 0.5479(3) 0.6043(2)
C6 C 0.45991(18) 0.5960(3) 0.5874(2)
H4 H 0.4675 0.6257 0.6022
Br1 Br 0.54465(11) 0.94707(15) 0.54623(10)
N30 N 0.5245(2) 0.8608(3) 0.57199(18)
C7 C 0.5413(2) 0.9057(3) 0.5829(2)
C8 C 0.5535(3) 0.9183(3) 0.6203(3)
H5 H 0.5650 0.9490 0.6278
C9 C 0.5488(3) 0.8860(4) 0.64674(18)
H6 H 0.5571 0.8946 0.6723
C10 C 0.5319(3) 0.8411(4) 0.6358(2)
H7 H 0.5287 0.8190 0.6539
C11 C 0.5198(2) 0.8285(3) 0.5984(3)
C12 C 0.5019(5) 0.7851(9) 0.5810(3)
H8 H 0.4938 0.7642 0.5956
C13 C 0.45577(17) 0.6453(3) 0.5338(2)
C14 C 0.47342(18) 0.6868(3) 0.5515(2)
H9 H 0.4833 0.6864 0.5776
C15 C 0.4765(2) 0.7292(3) 0.5304(2)
C16 C 0.46284(19) 0.7294(3) 0.4922(2)
H10 H 0.4656 0.7582 0.4783
C17 C 0.44505(17) 0.6878(3) 0.4737(2)
C18 C 0.44171(17) 0.6463(3) 0.4955(2)
H11 H 0.4294 0.6179 0.4837
C19 C 0.43377(17) 0.6854(3) 0.4325(2)
C20 C 0.42409(18) 0.7287(3) 0.4104(2)
H12 H 0.4225 0.7609 0.4215
C21 C 0.41665(19) 0.7259(3) 0.3722(2)
H13 H 0.4100 0.7561 0.3577
C22 C 0.41870(17) 0.6793(3) 0.3549(2)
C23 C 0.42738(17) 0.6353(3) 0.3770(2)
H14 H 0.4283 0.6028 0.3660
C24 C 0.43448(17) 0.6389(3) 0.4146(2)
H15 H 0.4401 0.6083 0.4291
C25 C 0.41059(18) 0.6764(3) 0.3140(2)
C26 C 0.41856(18) 0.7154(3) 0.2942(2)
H16 H 0.4300 0.7440 0.3072
C27 C 0.40998(18) 0.7135(3) 0.2553(2)
C28 C 0.39276(19) 0.6727(3) 0.2365(2)
H17 H 0.3859 0.6721 0.2102
C29 C 0.38544(17) 0.6328(3) 0.2556(2)
C30 C 0.39438(17) 0.6336(3) 0.2945(2)
H18 H 0.3895 0.6057 0.3075
C31 C 0.37028(19) 0.5462(4) 0.2454(2)
H19 H 0.3859 0.5378 0.2679
C32 C 0.3506(2) 0.5056(4) 0.2240(2)
C33 C 0.3550(2) 0.4537(4) 0.2321(2)
H20 H 0.3715 0.4424 0.2529
C34 C 0.3350(2) 0.4180(4) 0.2094(3)
H21 H 0.3379 0.3819 0.2137
C35 C 0.3113(2) 0.4364(5) 0.1809(3)
H22 H 0.2970 0.4131 0.1653
C36 C 0.3080(2) 0.4883(4) 0.1747(2)
C37 C 0.4364(2) 0.7868(4) 0.2463(3)
H23 H 0.4497 0.7840 0.2712
C38 C 0.4398(2) 0.8296(4) 0.2227(3)
C39 C 0.4614(3) 0.8680(5) 0.2345(4)
H24 H 0.4752 0.8683 0.2592
C40 C 0.4622(3) 0.9056(6) 0.2097(4)
H25 H 0.4769 0.9322 0.2170
C41 C 0.4424(3) 0.9047(5) 0.1753(4)
H26 H 0.4428 0.9307 0.1581
C42 C 0.4215(3) 0.8662(5) 0.1651(3)
C43 C 0.48066(19) 0.4489(3) 0.5182(2)
C44 C 0.4874(2) 0.4035(3) 0.5027(3)
H27 H 0.5052 0.3846 0.5150
C45 C 0.4676(2) 0.3873(4) 0.4694(3)
H28 H 0.4715 0.3568 0.4580
C46 C 0.4417(2) 0.4161(4) 0.4526(3)
H29 H 0.4277 0.4059 0.4293
C47 C 0.43659(17) 0.4597(3) 0.4702(2)
C48 C 0.40925(17) 0.4906(3) 0.4559(2)
H30 H 0.3956 0.4854 0.4315
C49 C 0.2999(2) 0.6221(4) 0.5005(3)
H31 H 0.2864 0.6141 0.4764
C50 C 0.2888(2) 0.6384(5) 0.5299(3)
C51 C 0.2594(3) 0.6334(7) 0.5268(4)
H32 H 0.2446 0.6217 0.5046
C52 C 0.2520(4) 0.6465(8) 0.5587(5)
H33 H 0.2320 0.6419 0.5584
C53 C 0.2726(4) 0.6650(9) 0.5886(5)
H34 H 0.2673 0.6747 0.6094
C54 C 0.3017(3) 0.6700(5) 0.5894(3)
C55 C 0.33977(18) 0.6027(3) 0.4795(2)
C56 C 0.36570(17) 0.5725(3) 0.4904(2)
H35 H 0.3749 0.5629 0.5157
C57 C 0.37785(16) 0.5566(3) 0.4643(2)
C58 C 0.36553(16) 0.5738(3) 0.4274(2)
H36 H 0.3748 0.5644 0.4099
C59 C 0.33986(16) 0.6045(3) 0.4166(2)
C60 C 0.32701(18) 0.6182(3) 0.4432(2)
H37 H 0.3092 0.6386 0.4361
C61 C 0.32636(16) 0.6240(3) 0.3782(2)
C62 C 0.34386(18) 0.6404(3) 0.3576(2)
H38 H 0.3652 0.6392 0.3684
C63 C 0.33102(18) 0.6585(3) 0.3218(2)
H39 H 0.3435 0.6700 0.3085
C64 C 0.30005(19) 0.6600(3) 0.3051(2)
C65 C 0.28231(18) 0.6447(3) 0.3260(2)
H40 H 0.2610 0.6470 0.3153
C66 C 0.29491(18) 0.6265(3) 0.3613(2)
H41 H 0.2823 0.6154 0.3746
C67 C 0.28552(18) 0.6759(3) 0.2653(2)
C68 C 0.2969(2) 0.6590(3) 0.2385(2)
H42 H 0.3147 0.6388 0.2455
C69 C 0.2825(2) 0.6713(4) 0.2014(2)
C70 C 0.25668(19) 0.7018(4) 0.1905(2)
H43 H 0.2469 0.7103 0.1652
C71 C 0.24563(19) 0.7191(3) 0.2170(2)
C72 C 0.25945(18) 0.7059(3) 0.2541(2)
H44 H 0.2510 0.7174 0.2719
C73 C 0.2816(2) 0.6553(5) 0.1402(3)
C74 C 0.2970(2) 0.6361(4) 0.1153(3)
C75 C 0.2834(3) 0.6354(5) 0.0772(3)
H45 H 0.2633 0.6468 0.0657
C76 C 0.3006(3) 0.6171(5) 0.0565(3)
H46 H 0.2921 0.6161 0.0303
C77 C 0.3292(3) 0.6010(5) 0.0734(3)
H47 H 0.3410 0.5884 0.0595
C78 C 0.3407(2) 0.6034(4) 0.1117(3)
C79 C 0.2074(2) 0.7704(4) 0.1762(3)
H48 H 0.2186 0.7704 0.1597
C80 C 0.1788(2) 0.7965(4) 0.1661(3)
C81 C 0.1648(2) 0.8179(4) 0.1319(3)
H49 H 0.1743 0.8170 0.1136
C82 C 0.1373(3) 0.8407(5) 0.1240(4)
H50 H 0.1272 0.8552 0.1002
C83 C 0.1242(2) 0.8423(4) 0.1514(3)
H51 H 0.1052 0.8583 0.1470
C84 C 0.1395(2) 0.8203(4) 0.1850(3)
C85 C 0.3696(2) 0.5661(4) 0.6231(2)
C86 C 0.3862(2) 0.5505(4) 0.6588(3)
H52 H 0.3799 0.5219 0.6700
C87 C 0.4117(3) 0.5774(4) 0.6775(3)
H53 H 0.4234 0.5679 0.7021
C88 C 0.4203(3) 0.6184(4) 0.6604(3)
H54 H 0.4383 0.6370 0.6727
C89 C 0.4023(2) 0.6318(3) 0.6250(3)
C90 C 0.4084(2) 0.6760(3) 0.6058(3)
H55 H 0.4265 0.6950 0.6162
C91 C 0.4509(3) 0.8627(5) 0.6028(3)
H56 H 0.4531 0.8331 0.6182
C92 C 0.4679(3) 0.9097(5) 0.6164(3)
C93 C 0.4854(4) 0.9166(6) 0.6537(4)
H57 H 0.4875 0.8898 0.6714
C94 C 0.4998(4) 0.9644(7) 0.6640(4)
H58 H 0.5118 0.9704 0.6892
C95 C 0.4144(2) 0.8180(4) 0.5531(3)
C96 C 0.4131(2) 0.7737(3) 0.5727(2)
H59 H 0.4256 0.7701 0.5979
C97 C 0.3935(2) 0.7348(3) 0.5552(2)
C98 C 0.3750(2) 0.7391(3) 0.5179(2)
C99 C 0.3761(2) 0.7849(3) 0.4982(2)
C100 C 0.3958(2) 0.8226(4) 0.5164(2)
H60 H 0.3969 0.8533 0.5033
C101 C 0.3538(2) 0.7938(3) 0.4612(2)
C102 C 0.3431(2) 0.7543(3) 0.4352(2)
H61 H 0.3517 0.7208 0.4405
C103 C 0.3200(2) 0.7632(3) 0.4016(2)
H62 H 0.3131 0.7357 0.3844
C104 C 0.30712(19) 0.8117(3) 0.3932(2)
C105 C 0.3184(2) 0.8511(3) 0.4187(2)
H63 H 0.3101 0.8848 0.4132
C106 C 0.3413(2) 0.8426(3) 0.4520(2)
H64 H 0.3485 0.8704 0.4688
C107 C 0.2821(2) 0.8230(3) 0.3578(2)
C108 C 0.2586(2) 0.7887(3) 0.3424(2)
H65 H 0.2584 0.7566 0.3544
C109 C 0.23536(18) 0.8007(3) 0.3098(2)
C110 C 0.23673(19) 0.8474(3) 0.2909(2)
H66 H 0.2219 0.8547 0.2676
C111 C 0.25944(19) 0.8816(3) 0.3067(2)
C112 C 0.28199(19) 0.8699(3) 0.3395(2)
H67 H 0.2977 0.8941 0.3499
C113 C 0.20175(19) 0.7356(3) 0.3128(3)
H68 H 0.2108 0.7357 0.3390
C114 C 0.1778(2) 0.7005(4) 0.2947(3)
C115 C 0.1659(3) 0.6673(5) 0.3150(4)
H69 H 0.1734 0.6666 0.3413
C116 C 0.1422(4) 0.6349(6) 0.2941(5)
H70 H 0.1332 0.6119 0.3066
C117 C 0.1321(3) 0.6361(5) 0.2567(5)
H71 H 0.1160 0.6143 0.2429
C118 C 0.1454(3) 0.6697(4) 0.2388(4)
C119 C 0.2707(2) 0.9689(4) 0.3058(3)
H72 H 0.2740 0.9696 0.3316
C120 C 0.3283(3) 0.7702(4) 0.1353(3)
H73 H 0.3071 0.7750 0.1260
C121 C 0.2767(2) 1.0152(4) 0.2869(3)
C122 C 0.3437(3) 0.7473(4) 0.1126(3)
C123 C 0.3300(3) 0.7385(5) 0.0746(3)
H74 H 0.3094 0.7468 0.0623
C124 C 0.2851(2) 1.0616(4) 0.3053(4)
H75 H 0.2870 1.0655 0.3307
C125 C 0.3473(4) 0.7172(5) 0.0553(3)
H76 H 0.3383 0.7091 0.0297
C126 C 0.2906(3) 1.1023(5) 0.2848(6)
H77 H 0.2963 1.1352 0.2960
C127 C 0.3775(3) 0.7079(4) 0.0735(4)
H78 H 0.3897 0.6941 0.0605
C128 C 0.2876(3) 1.0945(5) 0.2483(6)
H79 H 0.2913 1.1222 0.2342
C129 C 0.2792(2) 1.0461(4) 0.2320(4)
C130 C 0.3897(3) 0.7189(4) 0.1105(3)
N31 N 0.39713(18) 0.9847(3) 0.5379(2)
C131 C 0.3872(2) 1.0050(3) 0.50221(19)
C132 C 0.3655(2) 1.0437(4) 0.4928(2)
H80 H 0.3587 1.0576 0.4684
C133 C 0.35366(19) 1.0619(3) 0.5190(3)
H81 H 0.3388 1.0884 0.5125
C134 C 0.3635(2) 1.0416(4) 0.5546(3)
H82 H 0.3554 1.0541 0.5726
C135 C 0.3853(2) 1.0029(4) 0.56408(18)
C136 C 0.3998(3) 0.9793(5) 0.4773(3)
H83 H 0.3932 0.9885 0.4518
C137 C 0.5151(3) 0.8408(5) 0.4493(4)
H84 H 0.5079 0.8511 0.4240
N32 N 0.5501(2) 0.7982(4) 0.4992(3)
C138 C 0.54507(18) 0.8192(4) 0.4643(2)
C139 C 0.5684(3) 0.8215(4) 0.4499(2)
H85 H 0.5649 0.8358 0.4260
C140 C 0.5967(2) 0.8028(5) 0.4705(4)
H86 H 0.6127 0.8044 0.4607
C141 C 0.60176(18) 0.7818(5) 0.5055(4)
H87 H 0.6211 0.7691 0.5196
C142 C 0.5784(2) 0.7795(4) 0.5198(3)
C143 C 0.4688(2) 0.8686(4) 0.4527(3)
C144 C 0.4583(3) 0.8964(4) 0.4766(3)
H88 H 0.4709 0.9015 0.5016
C145 C 0.4300(3) 0.9166(4) 0.4644(3)
C146 C 0.4107(2) 0.9065(4) 0.4277(2)
H89 H 0.3907 0.9195 0.4191
C147 C 0.4217(2) 0.8766(4) 0.4040(2)
C148 C 0.4505(2) 0.8590(4) 0.4163(2)
H90 H 0.4582 0.8404 0.4001
C149 C 0.4003(2) 0.8645(4) 0.3663(2)
C150 C 0.3706(2) 0.8509(4) 0.3601(3)
H91 H 0.3636 0.8495 0.3805
C151 C 0.3509(2) 0.8393(4) 0.3249(3)
H92 H 0.3307 0.8297 0.3215
C152 C 0.3606(2) 0.8419(4) 0.2944(2)
C153 C 0.3904(2) 0.8539(4) 0.3004(3)
H93 H 0.3976 0.8545 0.2801
C154 C 0.4100(2) 0.8650(4) 0.3361(3)
H94 H 0.4304 0.8731 0.3396
C155 C 0.3394(2) 0.8344(4) 0.2557(3)
C156 C 0.3113(2) 0.8575(4) 0.2440(2)
H95 H 0.3045 0.8745 0.2616
C157 C 0.2932(2) 0.8559(3) 0.2073(2)
C158 C 0.3025(2) 0.8319(4) 0.1813(3)
H96 H 0.2900 0.8319 0.1559
C159 C 0.3303(2) 0.8075(4) 0.1924(3)
C160 C 0.3484(2) 0.8099(4) 0.2296(3)
H97 H 0.3677 0.7940 0.2371
C161 C 0.2460(2) 0.8854(4) 0.1654(3)
H98 H 0.2480 0.8632 0.1467
C162 C 0.2201(2) 0.9203(4) 0.1581(3)
C163 C 0.1993(2) 0.9259(4) 0.1227(3)
H99 H 0.2010 0.9068 0.1024
C164 C 0.1759(3) 0.9605(5) 0.1182(4)
H100 H 0.1610 0.9652 0.0945
C165 C 0.1744(2) 0.9881(4) 0.1481(3)
H101 H 0.1587 1.0124 0.1453
C166 C 0.1957(2) 0.9799(4) 0.1815(3)
Br2 Br 0.41842(3) 0.41414(4) 0.55753(3)
Br3 Br 0.39275(4) 0.86418(5) 0.11682(4)
Br4 Br 0.27378(2) 0.51372(5) 0.13632(3)
Br5 Br 0.508691(19) 0.47317(4) 0.56372(2)
Br6 Br 0.33165(3) 0.69139(5) 0.63269(3)
Br7 Br 0.12237(2) 0.81790(5) 0.22257(4)
Br8 Br 0.38094(3) 0.58478(4) 0.13762(3)
Br9 Br 0.19508(3) 1.01837(5) 0.22325(3)
Br10 Br 0.43059(3) 0.70699(5) 0.13628(4)
Br11 Br 0.39493(15) 0.97786(17) 0.60932(11)
Br12 Br 0.58082(6) 0.74291(12) 0.56063(9)
C167 C 0.4969(4) 1.0018(7) 0.6388(5)
H102 H 0.5063 1.0345 0.6458
C168 C 0.4791(4) 0.9910(6) 0.6011(5)
Br13 Br 0.4740(3) 1.0435(3) 0.56351(17)
Br14 Br 0.33368(3) 0.53212(5) 0.59547(3)
Br15 Br 0.27573(3) 1.03466(6) 0.18223(5)
Br16 Br 0.13286(3) 0.67124(5) 0.18659(4)
B1 B 0.3562(3) 0.3680(6) 0.4739(4)
F1 F 0.36530(19) 0.4051(4) 0.4565(2)
F2 F 0.3418(3) 0.3842(4) 0.4970(3)
F3 F 0.3445(3) 0.3223(5) 0.4528(4)
F4 F 0.3840(4) 0.3426(7) 0.4944(5)
B2 B 0.4068(2) 0.4887(4) 0.3507(3)
F5 F 0.39940(18) 0.4528(2) 0.37202(18)
F6 F 0.40216(17) 0.4681(3) 0.31630(16)
F7 F 0.43642(15) 0.5025(3) 0.3667(2)
F8 F 0.38846(13) 0.5311(2) 0.3474(2)
B3 B 0.5056(4) 0.1699(7) 0.6587(5)
F9 F 0.4771(3) 0.1710(6) 0.6287(4)
F10 F 0.49855(17) 0.1940(3) 0.68712(19)
F11 F 0.52402(18) 0.2001(3) 0.6467(2)
F12 F 0.5197(2) 0.1237(3) 0.6724(3)
B4 B 0.5143(2) 0.2687(3) 0.3322(2)
F13 F 0.4831(2) 0.2602(5) 0.3206(4)
F14 F 0.5253(3) 0.2211(4) 0.3414(4)
F15 F 0.5197(4) 0.2928(6) 0.3047(4)
F16 F 0.5212(2) 0.2926(4) 0.3658(3)
N33 N 0.4551(3) 0.3311(5) 0.3840(4)
C169 C 0.4576(3) 0.3582(5) 0.3633(4)
C170 C 0.4591(4) 0.3868(6) 0.3348(4)
N34 N 0.25750(19) 0.2720(3) 0.3943(3)
C171 C 0.2647(4) 0.2811(6) 0.4199(5)
C172 C 0.2778(5) 0.2951(8) 0.4626(6)
F17 F 0.2601(3) 0.6982(5) 0.4092(4)
F18 F 0.2159(4) 0.7036(7) 0.4027(5)
F19 F 0.2308(5) 0.6506(8) 0.3695(6)
F20 F 0.2486(4) 0.6119(7) 0.4144(6)
B5 B 0.2369(5) 0.6633(7) 0.4061(6)
F21 F 0.3325(3) -0.0329(5) 0.3656(4)
F22 F 0.3380(3) -0.0328(5) 0.4262(4)
F23 F 0.3555(4) 0.0342(6) 0.3984(4)
F24 F 0.3059(4) 0.0218(7) 0.3876(5)
B6 B 0.3324(7) -0.0099(12) 0.3942(9)
N35 N 0.4275(4) 0.5366(6) 0.2214(4)
C173 C 0.4431(4) 0.5495(7) 0.2492(5)
C174 C 0.4605(4) 0.5510(7) 0.2908(5)
C175 C 0.3856(6) 0.0093(10) 0.3161(7)
O1 O 0.3772(6) -0.0192(10) 0.2573(7)
C176 C 0.3574(7) -0.0084(12) 0.2846(9)
C177 C 0.3536(13) -0.0573(19) 0.1832(11)
C178 C 0.3574(8) -0.0310(14) 0.2158(10)
N36 N 0.5008(6) 0.3417(11) 0.6617(8)
C179 C 0.5002(4) 0.3312(7) 0.6264(6)
C180 C 0.4944(4) 0.3047(7) 0.5919(5)
N37 N 0.2770(5) 0.5034(9) 0.5169(7)
C181 C 0.2940(5) 0.4839(9) 0.4563(6)
C182 C 0.2861(6) 0.4940(10) 0.4885(8)
loop_
_geom_bond_atom_site_label_1
_geom_bond_atom_site_label_2
_geom_bond_site_symmetry_1
_geom_bond_site_symmetry_2
Cu1 N1 1_555 1_555
Cu2 N10 1_555 1_555
Cu3 N3 1_555 1_555
Cu4 N18 1_555 1_555
Cu5 N6 1_555 1_555
Cu6 N22 1_555 1_555
Cu7 N14 1_555 1_555
Cu8 N4 1_555 1_555
N1 C1 1_555 1_555
N2 Cu1 1_555 1_555
N3 C12 1_555 1_555
N4 C29 1_555 1_555
N5 Cu8 1_555 1_555
N6 C27 1_555 1_555
N7 Cu5 1_555 1_555
N8 Cu1 1_555 1_555
N9 Cu1 1_555 1_555
N10 C49 1_555 1_555
N11 Cu2 1_555 1_555
N12 Cu8 1_555 1_555
N13 Cu8 1_555 1_555
N14 C71 1_555 1_555
N15 Cu7 1_555 1_555
N16 Cu2 1_555 1_555
N17 Cu2 1_555 1_555
N18 C91 1_555 1_555
N19 Cu4 1_555 1_555
N20 Cu7 1_555 1_555
N21 Cu7 1_555 1_555
N22 C111 1_555 1_555
N23 Cu6 1_555 1_555
N24 Cu4 1_555 1_555
N25 Cu3 1_555 1_555
N26 Cu6 1_555 1_555
N27 Cu6 1_555 1_555
N28 Cu5 1_555 1_555
N29 Cu5 1_555 1_555
C1 C2 1_555 1_555
C2 H1 1_555 1_555
C3 C2 1_555 1_555
H2 C3 1_555 1_555
C4 C3 1_555 1_555
H3 C4 1_555 1_555
C5 N1 1_555 1_555
C6 N2 1_555 1_555
H4 C6 1_555 1_555
Br1 C7 1_555 1_555
N30 Cu3 1_555 1_555
C7 N30 1_555 1_555
C8 C7 1_555 1_555
H5 C8 1_555 1_555
C9 C8 1_555 1_555
H6 C9 1_555 1_555
C10 C9 1_555 1_555
H7 C10 1_555 1_555
C11 N30 1_555 1_555
C12 C11 1_555 1_555
H8 C12 1_555 1_555
C13 N2 1_555 1_555
C14 C13 1_555 1_555
H9 C14 1_555 1_555
C15 N3 1_555 1_555
C16 C15 1_555 1_555
H10 C16 1_555 1_555
C17 C16 1_555 1_555
C18 C13 1_555 1_555
H11 C18 1_555 1_555
C19 C17 1_555 1_555
C20 C19 1_555 1_555
H12 C20 1_555 1_555
C21 C20 1_555 1_555
H13 C21 1_555 1_555
C22 C21 1_555 1_555
C23 C22 1_555 1_555
H14 C23 1_555 1_555
C24 C19 1_555 1_555
H15 C24 1_555 1_555
C25 C22 1_555 1_555
C26 C25 1_555 1_555
H16 C26 1_555 1_555
C27 C26 1_555 1_555
C28 C27 1_555 1_555
H17 C28 1_555 1_555
C29 C28 1_555 1_555
C30 C25 1_555 1_555
H18 C30 1_555 1_555
C31 N4 1_555 1_555
H19 C31 1_555 1_555
C32 N5 1_555 1_555
C33 C32 1_555 1_555
H20 C33 1_555 1_555
C34 C33 1_555 1_555
H21 C34 1_555 1_555
C35 C34 1_555 1_555
H22 C35 1_555 1_555
C36 N5 1_555 1_555
C37 N6 1_555 1_555
H23 C37 1_555 1_555
C38 N7 1_555 1_555
C39 C38 1_555 1_555
H24 C39 1_555 1_555
C40 C39 1_555 1_555
H25 C40 1_555 1_555
C41 C40 1_555 1_555
H26 C41 1_555 1_555
C42 N7 1_555 1_555
C43 N8 1_555 1_555
C44 C43 1_555 1_555
H27 C44 1_555 1_555
C45 C44 1_555 1_555
H28 C45 1_555 1_555
C46 C45 1_555 1_555
H29 C46 1_555 1_555
C47 N8 1_555 1_555
C48 N9 1_555 1_555
H30 C48 1_555 1_555
C49 H31 1_555 1_555
C50 N11 1_555 1_555
C51 C50 1_555 1_555
H32 C51 1_555 1_555
C52 C51 1_555 1_555
H33 C52 1_555 1_555
C53 C52 1_555 1_555
H34 C53 1_555 1_555
C54 N11 1_555 1_555
C55 N10 1_555 1_555
C56 C55 1_555 1_555
H35 C56 1_555 1_555
C57 N9 1_555 1_555
C58 C57 1_555 1_555
H36 C58 1_555 1_555
C59 C58 1_555 1_555
C60 C55 1_555 1_555
H37 C60 1_555 1_555
C61 C59 1_555 1_555
C62 C61 1_555 1_555
H38 C62 1_555 1_555
C63 C62 1_555 1_555
H39 C63 1_555 1_555
C64 C63 1_555 1_555
C65 C64 1_555 1_555
H40 C65 1_555 1_555
C66 C61 1_555 1_555
H41 C66 1_555 1_555
C67 C64 1_555 1_555
C68 C67 1_555 1_555
H42 C68 1_555 1_555
C69 N12 1_555 1_555
C70 C69 1_555 1_555
H43 C70 1_555 1_555
C71 C70 1_555 1_555
C72 C67 1_555 1_555
H44 C72 1_555 1_555
C73 N12 1_555 1_555
C74 N13 1_555 1_555
C75 C74 1_555 1_555
H45 C75 1_555 1_555
C76 C75 1_555 1_555
H46 C76 1_555 1_555
C77 C76 1_555 1_555
H47 C77 1_555 1_555
C78 N13 1_555 1_555
C79 N14 1_555 1_555
H48 C79 1_555 1_555
C80 N15 1_555 1_555
C81 C80 1_555 1_555
H49 C81 1_555 1_555
C82 C81 1_555 1_555
H50 C82 1_555 1_555
C83 C82 1_555 1_555
H51 C83 1_555 1_555
C84 N15 1_555 1_555
C85 N16 1_555 1_555
C86 C85 1_555 1_555
H52 C86 1_555 1_555
C87 C86 1_555 1_555
H53 C87 1_555 1_555
C88 C87 1_555 1_555
H54 C88 1_555 1_555
C89 N16 1_555 1_555
C90 N17 1_555 1_555
H55 C90 1_555 1_555
C91 H56 1_555 1_555
C92 N19 1_555 1_555
C93 C92 1_555 1_555
H57 C93 1_555 1_555
C94 C93 1_555 1_555
H58 C94 1_555 1_555
C95 N18 1_555 1_555
C96 C95 1_555 1_555
H59 C96 1_555 1_555
C97 N17 1_555 1_555
C98 C97 1_555 1_555
C99 C98 1_555 1_555
C100 C95 1_555 1_555
H60 C100 1_555 1_555
C101 C99 1_555 1_555
C102 C101 1_555 1_555
H61 C102 1_555 1_555
C103 C102 1_555 1_555
H62 C103 1_555 1_555
C104 C103 1_555 1_555
C105 C104 1_555 1_555
H63 C105 1_555 1_555
C106 C101 1_555 1_555
H64 C106 1_555 1_555
C107 C104 1_555 1_555
C108 C107 1_555 1_555
H65 C108 1_555 1_555
C109 N21 1_555 1_555
C110 C109 1_555 1_555
H66 C110 1_555 1_555
C111 C110 1_555 1_555
C112 C107 1_555 1_555
H67 C112 1_555 1_555
C113 N21 1_555 1_555
H68 C113 1_555 1_555
C114 N20 1_555 1_555
C115 C114 1_555 1_555
H69 C115 1_555 1_555
C116 C115 1_555 1_555
H70 C116 1_555 1_555
C117 C116 1_555 1_555
H71 C117 1_555 1_555
C118 N20 1_555 1_555
C119 N22 1_555 1_555
H72 C119 1_555 1_555
C120 N28 1_555 1_555
H73 C120 1_555 1_555
C121 N23 1_555 1_555
C122 N29 1_555 1_555
C123 C122 1_555 1_555
H74 C123 1_555 1_555
C124 C121 1_555 1_555
H75 C124 1_555 1_555
C125 C123 1_555 1_555
H76 C125 1_555 1_555
C126 C124 1_555 1_555
H77 C126 1_555 1_555
C127 C125 1_555 1_555
H78 C127 1_555 1_555
C128 C126 1_555 1_555
H79 C128 1_555 1_555
C129 N23 1_555 1_555
C130 N29 1_555 1_555
N31 Cu4 1_555 1_555
C131 N31 1_555 1_555
C132 C131 1_555 1_555
H80 C132 1_555 1_555
C133 C132 1_555 1_555
H81 C133 1_555 1_555
C134 C133 1_555 1_555
H82 C134 1_555 1_555
C135 N31 1_555 1_555
C136 N24 1_555 1_555
H83 C136 1_555 1_555
C137 N25 1_555 1_555
H84 C137 1_555 1_555
N32 Cu3 1_555 1_555
C138 C137 1_555 1_555
C139 C138 1_555 1_555
H85 C139 1_555 1_555
C140 C139 1_555 1_555
H86 C140 1_555 1_555
C141 C140 1_555 1_555
H87 C141 1_555 1_555
C142 N32 1_555 1_555
C143 N25 1_555 1_555
C144 C143 1_555 1_555
H88 C144 1_555 1_555
C145 N24 1_555 1_555
C146 C145 1_555 1_555
H89 C146 1_555 1_555
C147 C146 1_555 1_555
C148 C143 1_555 1_555
H90 C148 1_555 1_555
C149 C147 1_555 1_555
C150 C149 1_555 1_555
H91 C150 1_555 1_555
C151 C150 1_555 1_555
H92 C151 1_555 1_555
C152 C151 1_555 1_555
C153 C152 1_555 1_555
H93 C153 1_555 1_555
C154 C149 1_555 1_555
H94 C154 1_555 1_555
C155 C152 1_555 1_555
C156 C155 1_555 1_555
H95 C156 1_555 1_555
C157 N26 1_555 1_555
C158 C157 1_555 1_555
H96 C158 1_555 1_555
C159 N28 1_555 1_555
C160 C155 1_555 1_555
H97 C160 1_555 1_555
C161 N26 1_555 1_555
H98 C161 1_555 1_555
C162 N27 1_555 1_555
C163 C162 1_555 1_555
H99 C163 1_555 1_555
C164 C163 1_555 1_555
H100 C164 1_555 1_555
C165 C164 1_555 1_555
H101 C165 1_555 1_555
C166 N27 1_555 1_555
Br2 C1 1_555 1_555
Br3 C42 1_555 1_555
Br4 C36 1_555 1_555
Br5 C43 1_555 1_555
Br6 C54 1_555 1_555
Br7 C84 1_555 1_555
Br8 C78 1_555 1_555
Br9 C166 1_555 1_555
Br10 C130 1_555 1_555
Br11 C135 1_555 1_555
Br12 C142 1_555 1_555
C167 C94 1_555 1_555
H102 C167 1_555 1_555
C168 N19 1_555 1_555
Br13 C168 1_555 1_555
Br14 C85 1_555 1_555
Br15 C129 1_555 1_555
Br16 C118 1_555 1_555
B1 F1 1_555 1_555
F2 B1 1_555 1_555
F3 B1 1_555 1_555
F4 B1 1_555 1_555
B2 F5 1_555 1_555
F6 B2 1_555 1_555
F7 B2 1_555 1_555
F8 B2 1_555 1_555
B3 F9 1_555 1_555
F10 B3 1_555 1_555
F11 B3 1_555 1_555
F12 B3 1_555 1_555
B4 F13 1_555 1_555
F14 B4 1_555 1_555
F15 B4 1_555 1_555
F16 B4 1_555 1_555
N33 C169 1_555 1_555
C169 C170 1_555 1_555
N34 C171 1_555 1_555
C171 C172 1_555 1_555
F17 B5 1_555 1_555
F18 B5 1_555 1_555
F19 B5 1_555 1_555
F20 B5 1_555 1_555
F21 B6 1_555 1_555
F22 B6 1_555 1_555
F23 B6 1_555 1_555
F24 B6 1_555 1_555
N35 C173 1_555 1_555
C173 C174 1_555 1_555
C175 C176 1_555 1_555
O1 C176 1_555 1_555
C177 C178 1_555 1_555
C178 O1 1_555 1_555
N36 C179 1_555 1_555
C179 C180 1_555 1_555
N37 C182 1_555 1_555
C181 C182 1_555 1_555
C4 C5 1_555 1_555
C5 C6 1_555 1_555
C10 C11 1_555 1_555
C14 C15 1_555 1_555
C17 C18 1_555 1_555
C23 C24 1_555 1_555
C29 C30 1_555 1_555
C31 C32 1_555 1_555
C35 C36 1_555 1_555
C37 C38 1_555 1_555
C41 C42 1_555 1_555
C46 C47 1_555 1_555
C47 C48 1_555 1_555
C49 C50 1_555 1_555
C53 C54 1_555 1_555
C56 C57 1_555 1_555
C59 C60 1_555 1_555
C65 C66 1_555 1_555
C68 C69 1_555 1_555
C71 C72 1_555 1_555
C73 C74 1_555 1_555
C77 C78 1_555 1_555
C79 C80 1_555 1_555
C83 C84 1_555 1_555
C88 C89 1_555 1_555
C89 C90 1_555 1_555
C91 C92 1_555 1_555
C96 C97 1_555 1_555
C99 C100 1_555 1_555
C105 C106 1_555 1_555
C108 C109 1_555 1_555
C111 C112 1_555 1_555
C113 C114 1_555 1_555
C117 C118 1_555 1_555
C119 C121 1_555 1_555
C120 C122 1_555 1_555
C127 C130 1_555 1_555
C128 C129 1_555 1_555
C131 C136 1_555 1_555
C134 C135 1_555 1_555
N32 C138 1_555 1_555
C141 C142 1_555 1_555
C144 C145 1_555 1_555
C147 C148 1_555 1_555
C153 C154 1_555 1_555
C156 C157 1_555 1_555
C158 C159 1_555 1_555
C159 C160 1_555 1_555
C161 C162 1_555 1_555
C165 C166 1_555 1_555
C167 C168 1_555 1_555

#END
