# generated using pymatgen
data_Cu16B13H212C378Br40N76O2F69
_symmetry_space_group_name_H-M   'P 1'
_cell_length_a   25.86410000
_cell_length_b   26.93754551
_cell_length_c   38.36810000
_cell_angle_alpha   107.36776306
_cell_angle_beta   90.00000000
_cell_angle_gamma   118.69031950
_symmetry_Int_Tables_number   1
_chemical_formula_structural   Cu16B13H212C378Br40N76O2F69
_chemical_formula_sum   'Cu32 B26 H424 C756 Br80 N152 O4 F138'
_cell_volume   22050.33699493
_cell_formula_units_Z   2
loop_
 _symmetry_equiv_pos_site_id
 _symmetry_equiv_pos_as_xyz
  1  'x, y, z'
loop_
 _atom_site_type_symbol
 _atom_site_label
 _atom_site_symmetry_multiplicity
 _atom_site_fract_x
 _atom_site_fract_y
 _atom_site_fract_z
 _atom_site_occupancy
  B  B1  1  0.275800  0.287600  0.526100  1
  B  B2  1  0.988200  0.712400  0.973900  1
  B  B3  1  0.724200  0.712400  0.473900  1
  B  B4  1  0.011800  0.287600  0.026100  1
  B  B5  1  0.104500  0.186400  0.649300  1
  B  B6  1  0.918100  0.813600  0.850700  1
  B  B7  1  0.895500  0.813600  0.350700  1
  B  B8  1  0.081900  0.186400  0.149300  1
  B  B9  1  0.324500  0.988800  0.341300  1
  B  B10  1  0.335700  0.011200  0.158700  1
  B  B11  1  0.675500  0.011200  0.658700  1
  B  B12  1  0.664300  0.988800  0.841300  1
  B  B13  1  0.217000  0.971400  0.667800  1
  B  B14  1  0.245600  0.028600  0.832200  1
  B  B15  1  0.783000  0.028600  0.332200  1
  B  B16  1  0.754400  0.971400  0.167800  1
  B  B17  1  0.099800  0.526200  0.593900  1
  B  B18  1  0.573600  0.473800  0.906100  1
  B  B19  1  0.900200  0.473800  0.406100  1
  B  B20  1  0.426400  0.526200  0.093900  1
  B  B21  1  0.677500  0.335200  0.605800  1
  B  B22  1  0.342300  0.664800  0.894200  1
  B  B23  1  0.322500  0.664800  0.394200  1
  B  B24  1  0.657700  0.335200  0.105800  1
  B  B25  1  0.065600  0.000000  0.750000  1
  B  B26  1  0.934400  1.000000  0.250000  1
  Br  Br27  1  0.508280  0.910700  0.453770  1
  Br  Br28  1  0.597580  0.089300  0.046230  1
  Br  Br29  1  0.491720  0.089300  0.546230  1
  Br  Br30  1  0.402420  0.910700  0.953770  1
  Br  Br31  1  0.167440  0.163160  0.442470  1
  Br  Br32  1  0.004280  0.836840  0.057530  1
  Br  Br33  1  0.832560  0.836840  0.557530  1
  Br  Br34  1  0.995720  0.163160  0.942470  1
  Br  Br35  1  0.743070  0.214500  0.883180  1
  Br  Br36  1  0.528570  0.785500  0.616820  1
  Br  Br37  1  0.256930  0.785500  0.116820  1
  Br  Br38  1  0.471430  0.214500  0.383180  1
  Br  Br39  1  0.212500  0.452440  0.863680  1
  Br  Br40  1  0.760060  0.547560  0.636320  1
  Br  Br41  1  0.787500  0.547560  0.136320  1
  Br  Br42  1  0.239940  0.452440  0.363680  1
  Br  Br43  1  0.018139  0.982618  0.436280  1
  Br  Br44  1  0.035521  0.017382  0.063720  1
  Br  Br45  1  0.981861  0.017382  0.563720  1
  Br  Br46  1  0.964479  0.982618  0.936280  1
  Br  Br47  1  0.976960  0.336700  0.367310  1
  Br  Br48  1  0.640260  0.663300  0.132690  1
  Br  Br49  1  0.023040  0.663300  0.632690  1
  Br  Br50  1  0.359740  0.336700  0.867310  1
  Br  Br51  1  0.059730  0.755260  0.777430  1
  Br  Br52  1  0.304470  0.244740  0.722570  1
  Br  Br53  1  0.940270  0.244740  0.222570  1
  Br  Br54  1  0.695530  0.755260  0.277430  1
  Br  Br55  1  0.034280  0.238120  0.862380  1
  Br  Br56  1  0.796160  0.761880  0.637620  1
  Br  Br57  1  0.965720  0.761880  0.137620  1
  Br  Br58  1  0.203840  0.238120  0.362380  1
  Br  Br59  1  0.786550  0.609840  0.776750  1
  Br  Br60  1  0.176710  0.390160  0.723250  1
  Br  Br61  1  0.213450  0.390160  0.223250  1
  Br  Br62  1  0.823290  0.609840  0.276750  1
  Br  Br63  1  0.862420  0.138820  0.863720  1
  Br  Br64  1  0.723600  0.861180  0.636280  1
  Br  Br65  1  0.137580  0.861180  0.136280  1
  Br  Br66  1  0.276400  0.138820  0.363720  1
  Br  Br67  1  0.627210  0.210140  0.390680  1
  Br  Br68  1  0.417070  0.789860  0.109320  1
  Br  Br69  1  0.372790  0.789860  0.609320  1
  Br  Br70  1  0.582930  0.210140  0.890680  1
  Br  Br71  1  0.676270  0.838360  0.439370  1
  Br  Br72  1  0.837910  0.161640  0.060630  1
  Br  Br73  1  0.323730  0.161640  0.560630  1
  Br  Br74  1  0.162090  0.838360  0.939370  1
  Br  Br75  1  0.482500  0.052000  0.436490  1
  Br  Br76  1  0.430500  0.948000  0.063510  1
  Br  Br77  1  0.517500  0.948000  0.563510  1
  Br  Br78  1  0.569500  0.052000  0.936490  1
  Br  Br79  1  0.134200  0.332640  0.404530  1
  Br  Br80  1  0.801560  0.667360  0.095470  1
  Br  Br81  1  0.865800  0.667360  0.595470  1
  Br  Br82  1  0.198440  0.332640  0.904530  1
  Br  Br83  1  0.689610  0.448540  0.817770  1
  Br  Br84  1  0.241070  0.551460  0.682230  1
  Br  Br85  1  0.310390  0.551460  0.182230  1
  Br  Br86  1  0.758930  0.448540  0.317770  1
  Br  Br87  1  0.195900  0.734280  0.813410  1
  Br  Br88  1  0.461620  0.265720  0.686590  1
  Br  Br89  1  0.804100  0.265720  0.186590  1
  Br  Br90  1  0.538380  0.734280  0.313410  1
  Br  Br91  1  0.515430  0.875500  0.463580  1
  Br  Br92  1  0.639930  0.124500  0.036420  1
  Br  Br93  1  0.484570  0.124500  0.536420  1
  Br  Br94  1  0.360070  0.875500  0.963580  1
  Br  Br95  1  0.616100  0.176800  0.386300  1
  Br  Br96  1  0.439300  0.823200  0.113700  1
  Br  Br97  1  0.383900  0.823200  0.613700  1
  Br  Br98  1  0.560700  0.176800  0.886300  1
  Br  Br99  1  0.636910  0.827220  0.421000  1
  Br  Br100  1  0.809690  0.172780  0.079000  1
  Br  Br101  1  0.363090  0.172780  0.579000  1
  Br  Br102  1  0.190310  0.827220  0.921000  1
  Br  Br103  1  0.489200  0.017400  0.436900  1
  Br  Br104  1  0.471800  0.982600  0.063100  1
  Br  Br105  1  0.510800  0.982600  0.563100  1
  Br  Br106  1  0.528200  0.017400  0.936900  1
  C  C107  1  0.097250  0.122100  0.407300  1
  C  C108  1  0.975150  0.877900  0.092700  1
  C  C109  1  0.902750  0.877900  0.592700  1
  C  C110  1  0.024850  0.122100  0.907300  1
  C  C111  1  0.099200  0.101000  0.369400  1
  C  C112  1  0.998200  0.899000  0.130600  1
  C  C113  1  0.900800  0.899000  0.630600  1
  C  C114  1  0.001800  0.101000  0.869400  1
  C  C115  1  0.047600  0.073600  0.345500  1
  C  C116  1  0.974000  0.926400  0.154500  1
  C  C117  1  0.952400  0.926400  0.654500  1
  C  C118  1  0.026000  0.073600  0.845500  1
  C  C119  1  0.994300  0.066200  0.358800  1
  C  C120  1  0.928100  0.933800  0.141200  1
  C  C121  1  0.005700  0.933800  0.641200  1
  C  C122  1  0.071900  0.066200  0.858800  1
  C  C123  1  0.995470  0.086740  0.395700  1
  C  C124  1  0.908730  0.913260  0.104300  1
  C  C125  1  0.004530  0.913260  0.604300  1
  C  C126  1  0.091270  0.086740  0.895700  1
  C  C127  1  0.944090  0.080180  0.412600  1
  C  C128  1  0.863910  0.919820  0.087400  1
  C  C129  1  0.055910  0.919820  0.587400  1
  C  C130  1  0.136090  0.080180  0.912600  1
  C  C131  1  0.553000  0.917400  0.417100  1
  C  C132  1  0.635600  0.082600  0.082900  1
  C  C133  1  0.447000  0.082600  0.582900  1
  C  C134  1  0.364400  0.917400  0.917100  1
  C  C135  1  0.528200  0.893000  0.379700  1
  C  C136  1  0.635200  0.107000  0.120300  1
  C  C137  1  0.471800  0.107000  0.620300  1
  C  C138  1  0.364800  0.893000  0.879700  1
  C  C139  1  0.565200  0.902400  0.353260  1
  C  C140  1  0.662800  0.097600  0.146740  1
  C  C141  1  0.434800  0.097600  0.646740  1
  C  C142  1  0.337200  0.902400  0.853260  1
  C  C143  1  0.627000  0.936200  0.364200  1
  C  C144  1  0.690800  0.063800  0.135800  1
  C  C145  1  0.373000  0.063800  0.635800  1
  C  C146  1  0.309200  0.936200  0.864200  1
  C  C147  1  0.651700  0.960400  0.401600  1
  C  C148  1  0.691300  0.039600  0.098400  1
  C  C149  1  0.348300  0.039600  0.598400  1
  C  C150  1  0.308700  0.960400  0.901600  1
  C  C151  1  0.713000  0.996200  0.419000  1
  C  C152  1  0.716800  0.003800  0.081000  1
  C  C153  1  0.287000  0.003800  0.581000  1
  C  C154  1  0.283200  0.996200  0.919000  1
  C  C155  1  0.898930  0.088460  0.466200  1
  C  C156  1  0.810470  0.911540  0.033800  1
  C  C157  1  0.101070  0.911540  0.533800  1
  C  C158  1  0.189530  0.088460  0.966200  1
  C  C159  1  0.839780  0.053160  0.448500  1
  C  C160  1  0.786620  0.946840  0.051500  1
  C  C161  1  0.160220  0.946840  0.551500  1
  C  C162  1  0.213380  0.053160  0.948500  1
  C  C163  1  0.794300  0.047000  0.469600  1
  C  C164  1  0.747300  0.953000  0.030400  1
  C  C165  1  0.205700  0.953000  0.530400  1
  C  C166  1  0.252700  0.047000  0.969600  1
  C  C167  1  0.807760  0.074320  0.507800  1
  C  C168  1  0.733440  0.925680  0.992200  1
  C  C169  1  0.192240  0.925680  0.492200  1
  C  C170  1  0.266560  0.074320  0.007800  1
  C  C171  1  0.867150  0.109900  0.526300  1
  C  C172  1  0.757250  0.890100  0.973700  1
  C  C173  1  0.132850  0.890100  0.473700  1
  C  C174  1  0.242750  0.109900  0.026300  1
  C  C175  1  0.911990  0.116580  0.504500  1
  C  C176  1  0.795410  0.883420  0.995500  1
  C  C177  1  0.088010  0.883420  0.495500  1
  C  C178  1  0.204590  0.116580  0.004500  1
  C  C179  1  0.880830  0.132460  0.567500  1
  C  C180  1  0.748370  0.867540  0.932500  1
  C  C181  1  0.119170  0.867540  0.432500  1
  C  C182  1  0.251630  0.132460  0.067500  1
  C  C183  1  0.847210  0.151820  0.589600  1
  C  C184  1  0.695390  0.848180  0.910400  1
  C  C185  1  0.152790  0.848180  0.410400  1
  C  C186  1  0.304610  0.151820  0.089600  1
  C  C187  1  0.857450  0.166700  0.627800  1
  C  C188  1  0.690750  0.833300  0.872200  1
  C  C189  1  0.142550  0.833300  0.372200  1
  C  C190  1  0.309250  0.166700  0.127800  1
  C  C191  1  0.902000  0.162600  0.645100  1
  C  C192  1  0.739400  0.837400  0.854900  1
  C  C193  1  0.098000  0.837400  0.354900  1
  C  C194  1  0.260600  0.162600  0.145100  1
  C  C195  1  0.937320  0.145240  0.623000  1
  C  C196  1  0.792080  0.854760  0.877000  1
  C  C197  1  0.062680  0.854760  0.377000  1
  C  C198  1  0.207920  0.145240  0.123000  1
  C  C199  1  0.926620  0.131040  0.585400  1
  C  C200  1  0.795580  0.868960  0.914600  1
  C  C201  1  0.073380  0.868960  0.414600  1
  C  C202  1  0.204420  0.131040  0.085400  1
  C  C203  1  0.913010  0.178820  0.686000  1
  C  C204  1  0.734190  0.821180  0.814000  1
  C  C205  1  0.086990  0.821180  0.314000  1
  C  C206  1  0.265810  0.178820  0.186000  1
  C  C207  1  0.866040  0.162880  0.705800  1
  C  C208  1  0.703160  0.837120  0.794200  1
  C  C209  1  0.133960  0.837120  0.294200  1
  C  C210  1  0.296840  0.162880  0.205800  1
  C  C211  1  0.876520  0.180040  0.744700  1
  C  C212  1  0.696480  0.819960  0.755300  1
  C  C213  1  0.123480  0.819960  0.255300  1
  C  C214  1  0.303520  0.180040  0.244700  1
  C  C215  1  0.934540  0.214480  0.763500  1
  C  C216  1  0.720060  0.785520  0.736500  1
  C  C217  1  0.065460  0.785520  0.236500  1
  C  C218  1  0.279940  0.214480  0.263500  1
  C  C219  1  0.981760  0.229120  0.744400  1
  C  C220  1  0.752640  0.770880  0.755600  1
  C  C221  1  0.018240  0.770880  0.255600  1
  C  C222  1  0.247360  0.229120  0.244400  1
  C  C223  1  0.972020  0.211240  0.705500  1
  C  C224  1  0.760780  0.788760  0.794500  1
  C  C225  1  0.027980  0.788760  0.294500  1
  C  C226  1  0.239220  0.211240  0.205500  1
  C  C227  1  0.083520  0.259440  0.754600  1
  C  C228  1  0.824080  0.740560  0.745400  1
  C  C229  1  0.916480  0.740560  0.245400  1
  C  C230  1  0.175920  0.259440  0.254600  1
  C  C231  1  0.143800  0.298800  0.776000  1
  C  C232  1  0.845000  0.701200  0.724000  1
  C  C233  1  0.856200  0.701200  0.224000  1
  C  C234  1  0.155000  0.298800  0.276000  1
  C  C235  1  0.191300  0.290000  0.767900  1
  C  C236  1  0.901300  0.710000  0.732100  1
  C  C237  1  0.808700  0.710000  0.232100  1
  C  C238  1  0.098700  0.290000  0.267900  1
  C  C239  1  0.247000  0.330000  0.790600  1
  C  C240  1  0.917000  0.670000  0.709400  1
  C  C241  1  0.753000  0.670000  0.209400  1
  C  C242  1  0.083000  0.330000  0.290600  1
  C  C243  1  0.252300  0.377400  0.819100  1
  C  C244  1  0.874900  0.622600  0.680900  1
  C  C245  1  0.747700  0.622600  0.180900  1
  C  C246  1  0.125100  0.377400  0.319100  1
  C  C247  1  0.203700  0.384000  0.825300  1
  C  C248  1  0.819700  0.616000  0.674700  1
  C  C249  1  0.796300  0.616000  0.174700  1
  C  C250  1  0.180300  0.384000  0.325300  1
  C  C251  1  0.776800  0.127200  0.753700  1
  C  C252  1  0.649600  0.872800  0.746300  1
  C  C253  1  0.223200  0.872800  0.246300  1
  C  C254  1  0.350400  0.127200  0.253700  1
  C  C255  1  0.730600  0.120400  0.777300  1
  C  C256  1  0.610200  0.879600  0.722700  1
  C  C257  1  0.269400  0.879600  0.222700  1
  C  C258  1  0.389800  0.120400  0.277300  1
  C  C259  1  0.670600  0.077200  0.765500  1
  C  C260  1  0.593400  0.922800  0.734500  1
  C  C261  1  0.329400  0.922800  0.234500  1
  C  C262  1  0.406600  0.077200  0.265500  1
  C  C263  1  0.632200  0.075600  0.790300  1
  C  C264  1  0.556600  0.924400  0.709700  1
  C  C265  1  0.367800  0.924400  0.209700  1
  C  C266  1  0.443400  0.075600  0.290300  1
  C  C267  1  0.652900  0.115200  0.824700  1
  C  C268  1  0.537700  0.884800  0.675300  1
  C  C269  1  0.347100  0.884800  0.175300  1
  C  C270  1  0.462300  0.115200  0.324700  1
  C  C271  1  0.712300  0.157000  0.834900  1
  C  C272  1  0.555300  0.843000  0.665100  1
  C  C273  1  0.287700  0.843000  0.165100  1
  C  C274  1  0.444700  0.157000  0.334900  1
  C  C275  1  0.070440  0.038680  0.481800  1
  C  C276  1  0.031760  0.961320  0.018200  1
  C  C277  1  0.929560  0.961320  0.518200  1
  C  C278  1  0.968240  0.038680  0.981800  1
  C  C279  1  0.109100  0.025200  0.497300  1
  C  C280  1  0.083900  0.974800  0.002700  1
  C  C281  1  0.890900  0.974800  0.502700  1
  C  C282  1  0.916100  0.025200  0.997300  1
  C  C283  1  0.145100  0.064800  0.530600  1
  C  C284  1  0.080300  0.935200  0.969400  1
  C  C285  1  0.854900  0.935200  0.469400  1
  C  C286  1  0.919700  0.064800  0.030600  1
  C  C287  1  0.142200  0.116600  0.547400  1
  C  C288  1  0.025600  0.883400  0.952600  1
  C  C289  1  0.857800  0.883400  0.452600  1
  C  C290  1  0.974400  0.116600  0.047400  1
  C  C291  1  0.103710  0.126820  0.529800  1
  C  C292  1  0.976890  0.873180  0.970200  1
  C  C293  1  0.896290  0.873180  0.470200  1
  C  C294  1  0.023110  0.126820  0.029800  1
  C  C295  1  0.100150  0.181500  0.544100  1
  C  C296  1  0.918650  0.818500  0.955900  1
  C  C297  1  0.899850  0.818500  0.455900  1
  C  C298  1  0.081350  0.181500  0.044100  1
  C  C299  1  0.078000  0.400200  0.499500  1
  C  C300  1  0.677800  0.599800  0.000500  1
  C  C301  1  0.922000  0.599800  0.500500  1
  C  C302  1  0.322200  0.400200  0.999500  1
  C  C303  1  0.072800  0.422400  0.470100  1
  C  C304  1  0.650400  0.577600  0.029900  1
  C  C305  1  0.927200  0.577600  0.529900  1
  C  C306  1  0.349600  0.422400  0.970100  1
  C  C307  1  0.107200  0.481200  0.473200  1
  C  C308  1  0.626000  0.518800  0.026800  1
  C  C309  1  0.892800  0.518800  0.526800  1
  C  C310  1  0.374000  0.481200  0.973200  1
  C  C311  1  0.101500  0.496000  0.441300  1
  C  C312  1  0.605500  0.504000  0.058700  1
  C  C313  1  0.898500  0.504000  0.558700  1
  C  C314  1  0.394500  0.496000  0.941300  1
  C  C315  1  0.062400  0.454800  0.411400  1
  C  C316  1  0.607600  0.545200  0.088600  1
  C  C317  1  0.937600  0.545200  0.588600  1
  C  C318  1  0.392400  0.454800  0.911400  1
  C  C319  1  0.028300  0.396600  0.410600  1
  C  C320  1  0.631700  0.603400  0.089400  1
  C  C321  1  0.971700  0.603400  0.589400  1
  C  C322  1  0.368300  0.396600  0.910600  1
  C  C323  1  0.057530  0.320460  0.520500  1
  C  C324  1  0.737070  0.679540  0.979500  1
  C  C325  1  0.942470  0.679540  0.479500  1
  C  C326  1  0.262930  0.320460  0.020500  1
  C  C327  1  0.061800  0.268600  0.509600  1
  C  C328  1  0.793200  0.731400  0.990400  1
  C  C329  1  0.938200  0.731400  0.490400  1
  C  C330  1  0.206800  0.268600  0.009600  1
  C  C331  1  0.065550  0.244300  0.535700  1
  C  C332  1  0.821250  0.755700  0.964300  1
  C  C333  1  0.934450  0.755700  0.464300  1
  C  C334  1  0.178750  0.244300  0.035700  1
  C  C335  1  0.060670  0.268940  0.572600  1
  C  C336  1  0.791730  0.731060  0.927400  1
  C  C337  1  0.939330  0.731060  0.427400  1
  C  C338  1  0.208270  0.268940  0.072600  1
  C  C339  1  0.055640  0.320280  0.583400  1
  C  C340  1  0.735360  0.679720  0.916600  1
  C  C341  1  0.944360  0.679720  0.416600  1
  C  C342  1  0.264640  0.320280  0.083400  1
  C  C343  1  0.054790  0.345980  0.556800  1
  C  C344  1  0.708810  0.654020  0.943200  1
  C  C345  1  0.945210  0.654020  0.443200  1
  C  C346  1  0.291190  0.345980  0.056800  1
  C  C347  1  0.049640  0.347280  0.621800  1
  C  C348  1  0.702360  0.652720  0.878200  1
  C  C349  1  0.950360  0.652720  0.378200  1
  C  C350  1  0.297640  0.347280  0.121800  1
  C  C351  1  0.015740  0.312280  0.642400  1
  C  C352  1  0.703460  0.687720  0.857600  1
  C  C353  1  0.984260  0.687720  0.357600  1
  C  C354  1  0.296540  0.312280  0.142400  1
  C  C355  1  0.010480  0.337960  0.678200  1
  C  C356  1  0.672520  0.662040  0.821800  1
  C  C357  1  0.989520  0.662040  0.321800  1
  C  C358  1  0.327480  0.337960  0.178200  1
  C  C359  1  0.039950  0.399900  0.694900  1
  C  C360  1  0.640050  0.600100  0.805100  1
  C  C361  1  0.960050  0.600100  0.305100  1
  C  C362  1  0.359950  0.399900  0.194900  1
  C  C363  1  0.072990  0.435380  0.674000  1
  C  C364  1  0.637610  0.564620  0.826000  1
  C  C365  1  0.927010  0.564620  0.326000  1
  C  C366  1  0.362390  0.435380  0.174000  1
  C  C367  1  0.078590  0.410180  0.638700  1
  C  C368  1  0.668410  0.589820  0.861300  1
  C  C369  1  0.921410  0.589820  0.361300  1
  C  C370  1  0.331590  0.410180  0.138700  1
  C  C371  1  0.038580  0.428960  0.734700  1
  C  C372  1  0.609620  0.571040  0.765300  1
  C  C373  1  0.961420  0.571040  0.265300  1
  C  C374  1  0.390380  0.428960  0.234700  1
  C  C375  1  0.044100  0.406200  0.761500  1
  C  C376  1  0.637900  0.593800  0.738500  1
  C  C377  1  0.955900  0.593800  0.238500  1
  C  C378  1  0.362100  0.406200  0.261500  1
  C  C379  1  0.046200  0.435000  0.798600  1
  C  C380  1  0.611200  0.565000  0.701400  1
  C  C381  1  0.953800  0.565000  0.201400  1
  C  C382  1  0.388800  0.435000  0.298600  1
  C  C383  1  0.041520  0.486640  0.809500  1
  C  C384  1  0.554880  0.513360  0.690500  1
  C  C385  1  0.958480  0.513360  0.190500  1
  C  C386  1  0.445120  0.486640  0.309500  1
  C  C387  1  0.035270  0.508740  0.783000  1
  C  C388  1  0.526530  0.491260  0.717000  1
  C  C389  1  0.964730  0.491260  0.217000  1
  C  C390  1  0.473470  0.508740  0.283000  1
  C  C391  1  0.034650  0.481100  0.745900  1
  C  C392  1  0.553550  0.518900  0.754100  1
  C  C393  1  0.965350  0.518900  0.254100  1
  C  C394  1  0.446450  0.481100  0.245900  1
  C  C395  1  0.063100  0.436800  0.859800  1
  C  C396  1  0.626300  0.563200  0.640200  1
  C  C397  1  0.936900  0.563200  0.140200  1
  C  C398  1  0.373700  0.436800  0.359800  1
  C  C399  1  0.066900  0.406000  0.884700  1
  C  C400  1  0.660900  0.594000  0.615300  1
  C  C401  1  0.933100  0.594000  0.115300  1
  C  C402  1  0.339100  0.406000  0.384700  1
  C  C403  1  0.081200  0.433200  0.922800  1
  C  C404  1  0.648000  0.566800  0.577200  1
  C  C405  1  0.918800  0.566800  0.077200  1
  C  C406  1  0.352000  0.433200  0.422800  1
  C  C407  1  0.082300  0.398800  0.943500  1
  C  C408  1  0.683500  0.601200  0.556500  1
  C  C409  1  0.917700  0.601200  0.056500  1
  C  C410  1  0.316500  0.398800  0.443500  1
  C  C411  1  0.069800  0.341600  0.926600  1
  C  C412  1  0.728200  0.658400  0.573400  1
  C  C413  1  0.930200  0.658400  0.073400  1
  C  C414  1  0.271800  0.341600  0.426600  1
  C  C415  1  0.055900  0.318600  0.888300  1
  C  C416  1  0.737300  0.681400  0.611700  1
  C  C417  1  0.944100  0.681400  0.111700  1
  C  C418  1  0.262700  0.318600  0.388300  1
  C  C419  1  0.022200  0.585200  0.823800  1
  C  C420  1  0.437000  0.414800  0.676200  1
  C  C421  1  0.977800  0.414800  0.176200  1
  C  C422  1  0.563000  0.585200  0.323800  1
  C  C423  1  0.024700  0.642400  0.833900  1
  C  C424  1  0.382300  0.357600  0.666100  1
  C  C425  1  0.975300  0.357600  0.166100  1
  C  C426  1  0.617700  0.642400  0.333900  1
  C  C427  1  0.017300  0.670400  0.868100  1
  C  C428  1  0.346900  0.329600  0.631900  1
  C  C429  1  0.982700  0.329600  0.131900  1
  C  C430  1  0.653100  0.670400  0.368100  1
  C  C431  1  0.022000  0.725400  0.876000  1
  C  C432  1  0.296600  0.274600  0.624000  1
  C  C433  1  0.978000  0.274600  0.124000  1
  C  C434  1  0.703400  0.725400  0.376000  1
  C  C435  1  0.033500  0.751600  0.848600  1
  C  C436  1  0.281900  0.248400  0.651400  1
  C  C437  1  0.966500  0.248400  0.151400  1
  C  C438  1  0.718100  0.751600  0.348600  1
  C  C439  1  0.040200  0.721000  0.815000  1
  C  C440  1  0.319200  0.279000  0.685000  1
  C  C441  1  0.959800  0.279000  0.185000  1
  C  C442  1  0.680800  0.721000  0.315000  1
  C  C443  1  0.064300  0.260800  0.376900  1
  C  C444  1  0.803500  0.739200  0.123100  1
  C  C445  1  0.935700  0.739200  0.623100  1
  C  C446  1  0.196500  0.260800  0.876900  1
  C  C447  1  0.063300  0.227600  0.341200  1
  C  C448  1  0.835700  0.772400  0.158800  1
  C  C449  1  0.936700  0.772400  0.658800  1
  C  C450  1  0.164300  0.227600  0.841200  1
  C  C451  1  0.010900  0.176600  0.322500  1
  C  C452  1  0.834300  0.823400  0.177500  1
  C  C453  1  0.989100  0.823400  0.677500  1
  C  C454  1  0.165700  0.176600  0.822500  1
  C  C455  1  0.961300  0.159400  0.339600  1
  C  C456  1  0.801900  0.840600  0.160400  1
  C  C457  1  0.038700  0.840600  0.660400  1
  C  C458  1  0.198100  0.159400  0.839600  1
  C  C459  1  0.965900  0.195400  0.375000  1
  C  C460  1  0.770500  0.804600  0.125000  1
  C  C461  1  0.034100  0.804600  0.625000  1
  C  C462  1  0.229500  0.195400  0.875000  1
  C  C463  1  0.915600  0.183200  0.394200  1
  C  C464  1  0.732400  0.816800  0.105800  1
  C  C465  1  0.084400  0.816800  0.605800  1
  C  C466  1  0.267600  0.183200  0.894200  1
  C  C467  1  0.686400  0.098200  0.397200  1
  C  C468  1  0.588200  0.901800  0.102800  1
  C  C469  1  0.313600  0.901800  0.602800  1
  C  C470  1  0.411800  0.098200  0.897200  1
  C  C471  1  0.622400  0.064200  0.383600  1
  C  C472  1  0.558200  0.935800  0.116400  1
  C  C473  1  0.377600  0.935800  0.616400  1
  C  C474  1  0.441800  0.064200  0.883600  1
  C  C475  1  0.598000  0.029200  0.346300  1
  C  C476  1  0.568800  0.970800  0.153700  1
  C  C477  1  0.402000  0.970800  0.653700  1
  C  C478  1  0.431200  0.029200  0.846300  1
  C  C479  1  0.535800  0.000400  0.336000  1
  C  C480  1  0.535400  0.999600  0.164000  1
  C  C481  1  0.464200  0.999600  0.664000  1
  C  C482  1  0.464600  0.000400  0.836000  1
  C  C483  1  0.767600  0.171200  0.446900  1
  C  C484  1  0.596400  0.828800  0.053100  1
  C  C485  1  0.232400  0.828800  0.553100  1
  C  C486  1  0.403600  0.171200  0.946900  1
  C  C487  1  0.813200  0.173800  0.427300  1
  C  C488  1  0.639400  0.826200  0.072700  1
  C  C489  1  0.186800  0.826200  0.572700  1
  C  C490  1  0.360600  0.173800  0.927300  1
  C  C491  1  0.871700  0.213000  0.444800  1
  C  C492  1  0.658700  0.787000  0.055200  1
  C  C493  1  0.128300  0.787000  0.555200  1
  C  C494  1  0.341300  0.213000  0.944800  1
  C  C495  1  0.885900  0.250000  0.482100  1
  C  C496  1  0.635900  0.750000  0.017900  1
  C  C497  1  0.114100  0.750000  0.517900  1
  C  C498  1  0.364100  0.250000  0.982100  1
  C  C499  1  0.839000  0.247800  0.501800  1
  C  C500  1  0.591200  0.752200  0.998200  1
  C  C501  1  0.161000  0.752200  0.498200  1
  C  C502  1  0.408800  0.247800  0.001800  1
  C  C503  1  0.781600  0.208400  0.483600  1
  C  C504  1  0.573200  0.791600  0.016400  1
  C  C505  1  0.218400  0.791600  0.516400  1
  C  C506  1  0.426800  0.208400  0.983600  1
  C  C507  1  0.852400  0.292400  0.538800  1
  C  C508  1  0.560000  0.707600  0.961200  1
  C  C509  1  0.147600  0.707600  0.461200  1
  C  C510  1  0.440000  0.292400  0.038800  1
  C  C511  1  0.902600  0.313800  0.564800  1
  C  C512  1  0.588800  0.686200  0.935200  1
  C  C513  1  0.097400  0.686200  0.435200  1
  C  C514  1  0.411200  0.313800  0.064800  1
  C  C515  1  0.916800  0.360000  0.598400  1
  C  C516  1  0.556800  0.640000  0.901600  1
  C  C517  1  0.083200  0.640000  0.401600  1
  C  C518  1  0.443200  0.360000  0.098400  1
  C  C519  1  0.881180  0.385760  0.606800  1
  C  C520  1  0.495420  0.614240  0.893200  1
  C  C521  1  0.118820  0.614240  0.393200  1
  C  C522  1  0.504580  0.385760  0.106800  1
  C  C523  1  0.830500  0.363200  0.581300  1
  C  C524  1  0.467300  0.636800  0.918700  1
  C  C525  1  0.169500  0.636800  0.418700  1
  C  C526  1  0.532700  0.363200  0.081300  1
  C  C527  1  0.816100  0.317400  0.548000  1
  C  C528  1  0.498700  0.682600  0.952000  1
  C  C529  1  0.183900  0.682600  0.452000  1
  C  C530  1  0.501300  0.317400  0.048000  1
  C  C531  1  0.894900  0.435800  0.642200  1
  C  C532  1  0.459100  0.564200  0.857800  1
  C  C533  1  0.105100  0.564200  0.357800  1
  C  C534  1  0.540900  0.435800  0.142200  1
  C  C535  1  0.952700  0.482800  0.657600  1
  C  C536  1  0.469900  0.517200  0.842400  1
  C  C537  1  0.047300  0.517200  0.342400  1
  C  C538  1  0.530100  0.482800  0.157600  1
  C  C539  1  0.963940  0.529280  0.690200  1
  C  C540  1  0.434660  0.470720  0.809800  1
  C  C541  1  0.036060  0.470720  0.309800  1
  C  C542  1  0.565340  0.529280  0.190200  1
  C  C543  1  0.915870  0.526540  0.709100  1
  C  C544  1  0.389330  0.473460  0.790900  1
  C  C545  1  0.084130  0.473460  0.290900  1
  C  C546  1  0.610670  0.526540  0.209100  1
  C  C547  1  0.858960  0.481120  0.693300  1
  C  C548  1  0.377840  0.518880  0.806700  1
  C  C549  1  0.141040  0.518880  0.306700  1
  C  C550  1  0.622160  0.481120  0.193300  1
  C  C551  1  0.848110  0.436020  0.660500  1
  C  C552  1  0.412090  0.563980  0.839500  1
  C  C553  1  0.151890  0.563980  0.339500  1
  C  C554  1  0.587910  0.436020  0.160500  1
  C  C555  1  0.062650  0.596500  0.687200  1
  C  C556  1  0.466150  0.403500  0.812800  1
  C  C557  1  0.937350  0.403500  0.312800  1
  C  C558  1  0.533850  0.596500  0.187200  1
  C  C559  1  0.121700  0.644400  0.705300  1
  C  C560  1  0.477300  0.355600  0.794700  1
  C  C561  1  0.878300  0.355600  0.294700  1
  C  C562  1  0.522700  0.644400  0.205300  1
  C  C563  1  0.166800  0.668200  0.685000  1
  C  C564  1  0.498600  0.331800  0.815000  1
  C  C565  1  0.833200  0.331800  0.315000  1
  C  C566  1  0.501400  0.668200  0.185000  1
  C  C567  1  0.222900  0.715600  0.705900  1
  C  C568  1  0.507300  0.284400  0.794100  1
  C  C569  1  0.777100  0.284400  0.294100  1
  C  C570  1  0.492700  0.715600  0.205900  1
  C  C571  1  0.231800  0.735800  0.743300  1
  C  C572  1  0.496000  0.264200  0.756700  1
  C  C573  1  0.768200  0.264200  0.256700  1
  C  C574  1  0.504000  0.735800  0.243300  1
  C  C575  1  0.184900  0.709200  0.761200  1
  C  C576  1  0.475700  0.290800  0.738800  1
  C  C577  1  0.815100  0.290800  0.238800  1
  C  C578  1  0.524300  0.709200  0.261200  1
  C  C579  1  0.760400  0.458600  0.694200  1
  C  C580  1  0.301800  0.541400  0.805800  1
  C  C581  1  0.239600  0.541400  0.305800  1
  C  C582  1  0.698200  0.458600  0.194200  1
  C  C583  1  0.901500  0.343400  0.864700  1
  C  C584  1  0.558100  0.656600  0.635300  1
  C  C585  1  0.098500  0.656600  0.135300  1
  C  C586  1  0.441900  0.343400  0.364700  1
  C  C587  1  0.708100  0.446600  0.713100  1
  C  C588  1  0.261500  0.553400  0.786900  1
  C  C589  1  0.291900  0.553400  0.286900  1
  C  C590  1  0.738500  0.446600  0.213100  1
  C  C591  1  0.909000  0.312600  0.887400  1
  C  C592  1  0.596400  0.687400  0.612600  1
  C  C593  1  0.091000  0.687400  0.112600  1
  C  C594  1  0.403600  0.312600  0.387400  1
  C  C595  1  0.931500  0.340000  0.925400  1
  C  C596  1  0.591500  0.660000  0.574600  1
  C  C597  1  0.068500  0.660000  0.074600  1
  C  C598  1  0.408500  0.340000  0.425400  1
  C  C599  1  0.653300  0.429800  0.694700  1
  C  C600  1  0.223500  0.570200  0.805300  1
  C  C601  1  0.346700  0.570200  0.305300  1
  C  C602  1  0.776500  0.429800  0.194700  1
  C  C603  1  0.935500  0.305400  0.944700  1
  C  C604  1  0.630100  0.694600  0.555300  1
  C  C605  1  0.064500  0.694600  0.055300  1
  C  C606  1  0.369900  0.305400  0.444700  1
  C  C607  1  0.607100  0.418800  0.715200  1
  C  C608  1  0.188300  0.581200  0.784800  1
  C  C609  1  0.392900  0.581200  0.284800  1
  C  C610  1  0.811700  0.418800  0.215200  1
  C  C611  1  0.914600  0.245000  0.926500  1
  C  C612  1  0.669600  0.755000  0.573500  1
  C  C613  1  0.085400  0.755000  0.073500  1
  C  C614  1  0.330400  0.245000  0.426500  1
  C  C615  1  0.617900  0.424800  0.751700  1
  C  C616  1  0.193100  0.575200  0.748300  1
  C  C617  1  0.382100  0.575200  0.248300  1
  C  C618  1  0.806900  0.424800  0.251700  1
  C  C619  1  0.674700  0.441600  0.768000  1
  C  C620  1  0.233100  0.558400  0.732000  1
  C  C621  1  0.325300  0.558400  0.232000  1
  C  C622  1  0.766900  0.441600  0.268000  1
  C  C623  1  0.891400  0.220600  0.889500  1
  C  C624  1  0.670800  0.779400  0.610500  1
  C  C625  1  0.108600  0.779400  0.110500  1
  C  C626  1  0.329200  0.220600  0.389500  1
  C  C627  1  0.607800  0.225600  0.497790  1
  C  C628  1  0.382200  0.774400  0.002210  1
  C  C629  1  0.392200  0.774400  0.502210  1
  C  C630  1  0.617800  0.225600  0.997790  1
  C  C631  1  0.590800  0.269000  0.507200  1
  C  C632  1  0.321800  0.731000  0.992800  1
  C  C633  1  0.409200  0.731000  0.492800  1
  C  C634  1  0.678200  0.269000  0.007200  1
  C  C635  1  0.584440  0.292680  0.481000  1
  C  C636  1  0.291760  0.707320  0.019000  1
  C  C637  1  0.415560  0.707320  0.519000  1
  C  C638  1  0.708240  0.292680  0.981000  1
  C  C639  1  0.594900  0.273000  0.445400  1
  C  C640  1  0.321900  0.727000  0.054600  1
  C  C641  1  0.405100  0.727000  0.554600  1
  C  C642  1  0.678100  0.273000  0.945400  1
  C  C643  1  0.611800  0.229400  0.435920  1
  C  C644  1  0.382400  0.770600  0.064080  1
  C  C645  1  0.388200  0.770600  0.564080  1
  C  C646  1  0.617600  0.229400  0.935920  1
  C  C647  1  0.620900  0.200400  0.522700  1
  C  C648  1  0.420500  0.799600  0.977300  1
  C  C649  1  0.379100  0.799600  0.477300  1
  C  C650  1  0.579500  0.200400  0.022700  1
  C  C651  1  0.644100  0.969800  0.550700  1
  C  C652  1  0.674300  0.030200  0.949300  1
  C  C653  1  0.355900  0.030200  0.449300  1
  C  C654  1  0.325700  0.969800  0.050700  1
  C  C655  1  0.635730  0.909860  0.535700  1
  C  C656  1  0.725870  0.090140  0.964300  1
  C  C657  1  0.364270  0.090140  0.464300  1
  C  C658  1  0.274130  0.909860  0.035700  1
  C  C659  1  0.610100  0.863200  0.550100  1
  C  C660  1  0.746900  0.136800  0.949900  1
  C  C661  1  0.389900  0.136800  0.449900  1
  C  C662  1  0.253100  0.863200  0.050100  1
  C  C663  1  0.600500  0.806600  0.529500  1
  C  C664  1  0.793900  0.193400  0.970500  1
  C  C665  1  0.399500  0.193400  0.470500  1
  C  C666  1  0.206100  0.806600  0.029500  1
  C  C667  1  0.616440  0.796480  0.494500  1
  C  C668  1  0.819960  0.203520  0.005500  1
  C  C669  1  0.383560  0.203520  0.505500  1
  C  C670  1  0.180040  0.796480  0.994500  1
  C  C671  1  0.642100  0.843200  0.480200  1
  C  C672  1  0.798900  0.156800  0.019800  1
  C  C673  1  0.357900  0.156800  0.519800  1
  C  C674  1  0.201100  0.843200  0.980200  1
  C  C675  1  0.662600  0.062400  0.547300  1
  C  C676  1  0.600200  0.937600  0.952700  1
  C  C677  1  0.337400  0.937600  0.452700  1
  C  C678  1  0.399800  0.062400  0.047300  1
  C  C679  1  0.645300  0.083400  0.523400  1
  C  C680  1  0.561900  0.916600  0.976600  1
  C  C681  1  0.354700  0.916600  0.476600  1
  C  C682  1  0.438100  0.083400  0.023400  1
  C  C683  1  0.653400  0.140000  0.535600  1
  C  C684  1  0.513400  0.860000  0.964400  1
  C  C685  1  0.346600  0.860000  0.464400  1
  C  C686  1  0.486600  0.140000  0.035600  1
  C  C687  1  0.682800  0.178600  0.572300  1
  C  C688  1  0.504200  0.821400  0.927700  1
  C  C689  1  0.317200  0.821400  0.427700  1
  C  C690  1  0.495800  0.178600  0.072300  1
  C  C691  1  0.701700  0.156600  0.596000  1
  C  C692  1  0.545100  0.843400  0.904000  1
  C  C693  1  0.298300  0.843400  0.404000  1
  C  C694  1  0.454900  0.156600  0.096000  1
  C  C695  1  0.690500  0.099000  0.583700  1
  C  C696  1  0.591500  0.901000  0.916300  1
  C  C697  1  0.309500  0.901000  0.416300  1
  C  C698  1  0.408500  0.099000  0.083700  1
  C  C699  1  0.735200  0.199400  0.633700  1
  C  C700  1  0.535800  0.800600  0.866300  1
  C  C701  1  0.264800  0.800600  0.366300  1
  C  C702  1  0.464200  0.199400  0.133700  1
  C  C703  1  0.778500  0.258800  0.639900  1
  C  C704  1  0.519700  0.741200  0.860100  1
  C  C705  1  0.221500  0.741200  0.360100  1
  C  C706  1  0.480300  0.258800  0.139900  1
  C  C707  1  0.809800  0.298200  0.675100  1
  C  C708  1  0.511600  0.701800  0.824900  1
  C  C709  1  0.190200  0.701800  0.324900  1
  C  C710  1  0.488400  0.298200  0.175100  1
  C  C711  1  0.797500  0.278800  0.705600  1
  C  C712  1  0.518700  0.721200  0.794400  1
  C  C713  1  0.202500  0.721200  0.294400  1
  C  C714  1  0.481300  0.278800  0.205600  1
  C  C715  1  0.755700  0.219200  0.699600  1
  C  C716  1  0.536500  0.780800  0.800400  1
  C  C717  1  0.244300  0.780800  0.300400  1
  C  C718  1  0.463500  0.219200  0.199600  1
  C  C719  1  0.725000  0.180000  0.663900  1
  C  C720  1  0.545000  0.820000  0.836100  1
  C  C721  1  0.275000  0.820000  0.336100  1
  C  C722  1  0.455000  0.180000  0.163900  1
  C  C723  1  0.826200  0.321200  0.744300  1
  C  C724  1  0.505000  0.678800  0.755700  1
  C  C725  1  0.173800  0.678800  0.255700  1
  C  C726  1  0.495000  0.321200  0.244300  1
  C  C727  1  0.831200  0.377400  0.756000  1
  C  C728  1  0.453800  0.622600  0.744000  1
  C  C729  1  0.168800  0.622600  0.244000  1
  C  C730  1  0.546200  0.377400  0.256000  1
  C  C731  1  0.850900  0.413600  0.792700  1
  C  C732  1  0.437300  0.586400  0.707300  1
  C  C733  1  0.149100  0.586400  0.207300  1
  C  C734  1  0.562700  0.413600  0.292700  1
  C  C735  1  0.865600  0.395000  0.818700  1
  C  C736  1  0.470600  0.605000  0.681300  1
  C  C737  1  0.134400  0.605000  0.181300  1
  C  C738  1  0.529400  0.395000  0.318700  1
  C  C739  1  0.862200  0.339400  0.807600  1
  C  C740  1  0.522800  0.660600  0.692400  1
  C  C741  1  0.137800  0.660600  0.192400  1
  C  C742  1  0.477200  0.339400  0.307600  1
  C  C743  1  0.841700  0.303200  0.770400  1
  C  C744  1  0.538500  0.696800  0.729600  1
  C  C745  1  0.158300  0.696800  0.229600  1
  C  C746  1  0.461500  0.303200  0.270400  1
  C  C747  1  0.868600  0.508000  0.834600  1
  C  C748  1  0.360600  0.492000  0.665400  1
  C  C749  1  0.131400  0.492000  0.165400  1
  C  C750  1  0.639400  0.508000  0.334600  1
  C  C751  1  0.859600  0.559800  0.841900  1
  C  C752  1  0.299800  0.440200  0.658100  1
  C  C753  1  0.140400  0.440200  0.158100  1
  C  C754  1  0.700200  0.559800  0.341900  1
  C  C755  1  0.874800  0.601400  0.877300  1
  C  C756  1  0.273400  0.398600  0.622700  1
  C  C757  1  0.125200  0.398600  0.122700  1
  C  C758  1  0.726600  0.601400  0.377300  1
  C  C759  1  0.863600  0.648200  0.881800  1
  C  C760  1  0.215400  0.351800  0.618200  1
  C  C761  1  0.136400  0.351800  0.118200  1
  C  C762  1  0.784600  0.648200  0.381800  1
  C  C763  1  0.837500  0.651200  0.851900  1
  C  C764  1  0.186300  0.348800  0.648100  1
  C  C765  1  0.162500  0.348800  0.148100  1
  C  C766  1  0.813700  0.651200  0.351900  1
  C  C767  1  0.824400  0.608600  0.818500  1
  C  C768  1  0.215800  0.391400  0.681500  1
  C  C769  1  0.175600  0.391400  0.181500  1
  C  C770  1  0.784200  0.608600  0.318500  1
  C  C771  1  0.501300  0.006200  0.361200  1
  C  C772  1  0.495100  0.993800  0.138800  1
  C  C773  1  0.498700  0.993800  0.638800  1
  C  C774  1  0.504900  0.006200  0.861200  1
  C  C775  1  0.529900  0.041800  0.398900  1
  C  C776  1  0.488100  0.958200  0.101100  1
  C  C777  1  0.470100  0.958200  0.601100  1
  C  C778  1  0.511900  0.041800  0.898900  1
  C  C779  1  0.184200  0.084800  0.636700  1
  C  C780  1  0.099400  0.915200  0.863300  1
  C  C781  1  0.815800  0.915200  0.363300  1
  C  C782  1  0.900600  0.084800  0.136700  1
  C  C783  1  0.154100  0.081800  0.665200  1
  C  C784  1  0.072300  0.918200  0.834800  1
  C  C785  1  0.845900  0.918200  0.334800  1
  C  C786  1  0.927700  0.081800  0.165200  1
  C  C787  1  0.454200  0.470600  0.580100  1
  C  C788  1  0.983600  0.529400  0.919900  1
  C  C789  1  0.545800  0.529400  0.419900  1
  C  C790  1  0.016400  0.470600  0.080100  1
  C  C791  1  0.427100  0.444400  0.537400  1
  C  C792  1  0.982700  0.555600  0.962600  1
  C  C793  1  0.572900  0.555600  0.462600  1
  C  C794  1  0.017300  0.444400  0.037400  1
  C  C795  1  0.007400  0.113800  0.750800  1
  C  C796  1  0.893600  0.886200  0.749200  1
  C  C797  1  0.992600  0.886200  0.249200  1
  C  C798  1  0.106400  0.113800  0.250800  1
  C  C799  1  0.988500  0.079000  0.709200  1
  C  C800  1  0.909500  0.921000  0.790800  1
  C  C801  1  0.011500  0.921000  0.290800  1
  C  C802  1  0.090500  0.079000  0.209200  1
  C  C803  1  0.605100  0.228800  0.683900  1
  C  C804  1  0.376300  0.771200  0.816100  1
  C  C805  1  0.394900  0.771200  0.316100  1
  C  C806  1  0.623700  0.228800  0.183900  1
  C  C807  1  0.651000  0.285200  0.715400  1
  C  C808  1  0.365800  0.714800  0.784600  1
  C  C809  1  0.349000  0.714800  0.284600  1
  C  C810  1  0.634200  0.285200  0.215400  1
  C  C811  1  0.703700  0.292800  0.816800  1
  C  C812  1  0.410900  0.707200  0.683200  1
  C  C813  1  0.296300  0.707200  0.183200  1
  C  C814  1  0.589100  0.292800  0.316800  1
  C  C815  1  0.673600  0.285200  0.784200  1
  C  C816  1  0.388400  0.714800  0.715800  1
  C  C817  1  0.326400  0.714800  0.215800  1
  C  C818  1  0.611600  0.285200  0.284200  1
  C  C819  1  0.168600  0.999600  0.373600  1
  C  C820  1  0.169000  0.000400  0.126400  1
  C  C821  1  0.831400  0.000400  0.626400  1
  C  C822  1  0.831000  0.999600  0.873600  1
  C  C823  1  0.200900  0.011200  0.408100  1
  C  C824  1  0.189700  0.988800  0.091900  1
  C  C825  1  0.799100  0.988800  0.591900  1
  C  C826  1  0.810300  0.011200  0.908100  1
  C  C827  1  0.222100  0.412000  0.543700  1
  C  C828  1  0.810100  0.588000  0.956300  1
  C  C829  1  0.777900  0.588000  0.456300  1
  C  C830  1  0.189900  0.412000  0.043700  1
  C  C831  1  0.219900  0.427800  0.511500  1
  C  C832  1  0.792100  0.572200  0.988500  1
  C  C833  1  0.780100  0.572200  0.488500  1
  C  C834  1  0.207900  0.427800  0.011500  1
  C  C835  1  0.556600  0.891600  0.426300  1
  C  C836  1  0.665000  0.108400  0.073700  1
  C  C837  1  0.443400  0.108400  0.573700  1
  C  C838  1  0.335000  0.891600  0.926300  1
  C  C839  1  0.529200  0.864800  0.389300  1
  C  C840  1  0.664400  0.135200  0.110700  1
  C  C841  1  0.470800  0.135200  0.610700  1
  C  C842  1  0.335600  0.864800  0.889300  1
  C  C843  1  0.563200  0.878000  0.361800  1
  C  C844  1  0.685200  0.122000  0.138200  1
  C  C845  1  0.436800  0.122000  0.638200  1
  C  C846  1  0.314800  0.878000  0.861800  1
  C  C847  1  0.624500  0.917800  0.371300  1
  C  C848  1  0.706700  0.082200  0.128700  1
  C  C849  1  0.375500  0.082200  0.628700  1
  C  C850  1  0.293300  0.917800  0.871300  1
  C  C851  1  0.651900  0.944600  0.408300  1
  C  C852  1  0.707300  0.055400  0.091700  1
  C  C853  1  0.348100  0.055400  0.591700  1
  C  C854  1  0.292700  0.944600  0.908300  1
  C  C855  1  0.714900  0.986200  0.417800  1
  C  C856  1  0.728700  0.013800  0.082200  1
  C  C857  1  0.285100  0.013800  0.582200  1
  C  C858  1  0.271300  0.986200  0.917800  1
  C  C859  1  0.682700  0.252200  0.802300  1
  C  C860  1  0.430500  0.747800  0.697700  1
  C  C861  1  0.317300  0.747800  0.197700  1
  C  C862  1  0.569500  0.252200  0.302300  1
  Cu  Cu863  1  0.032090  0.126240  0.473500  1
  Cu  Cu864  1  0.905850  0.873760  0.026500  1
  Cu  Cu865  1  0.967910  0.873760  0.526500  1
  Cu  Cu866  1  0.094150  0.126240  0.973500  1
  Cu  Cu867  1  0.004330  0.295020  0.441200  1
  Cu  Cu868  1  0.709310  0.704980  0.058800  1
  Cu  Cu869  1  0.995670  0.704980  0.558800  1
  Cu  Cu870  1  0.290690  0.295020  0.941200  1
  Cu  Cu871  1  0.665950  0.970040  0.480820  1
  Cu  Cu872  1  0.695910  0.029960  0.019180  1
  Cu  Cu873  1  0.334050  0.029960  0.519180  1
  Cu  Cu874  1  0.304090  0.970040  0.980820  1
  Cu  Cu875  1  0.637940  0.138120  0.456460  1
  Cu  Cu876  1  0.499820  0.861880  0.043540  1
  Cu  Cu877  1  0.362060  0.861880  0.543540  1
  Cu  Cu878  1  0.500180  0.138120  0.956460  1
  Cu  Cu879  1  0.841620  0.222320  0.819080  1
  Cu  Cu880  1  0.619300  0.777680  0.680920  1
  Cu  Cu881  1  0.158380  0.777680  0.180920  1
  Cu  Cu882  1  0.380700  0.222320  0.319080  1
  Cu  Cu883  1  0.809390  0.489300  0.766920  1
  Cu  Cu884  1  0.320090  0.510700  0.733080  1
  Cu  Cu885  1  0.190610  0.510700  0.233080  1
  Cu  Cu886  1  0.679910  0.489300  0.266920  1
  Cu  Cu887  1  0.053600  0.619120  0.761940  1
  Cu  Cu888  1  0.434480  0.380880  0.738060  1
  Cu  Cu889  1  0.946400  0.380880  0.238060  1
  Cu  Cu890  1  0.565520  0.619120  0.261940  1
  Cu  Cu891  1  0.063190  0.335360  0.812400  1
  Cu  Cu892  1  0.727830  0.664640  0.687600  1
  Cu  Cu893  1  0.936810  0.664640  0.187600  1
  Cu  Cu894  1  0.272170  0.335360  0.312400  1
  F  F895  1  0.229600  0.269400  0.543500  1
  F  F896  1  0.960200  0.730600  0.956500  1
  F  F897  1  0.770400  0.730600  0.456500  1
  F  F898  1  0.039800  0.269400  0.043500  1
  F  F899  1  0.274000  0.316400  0.503000  1
  F  F900  1  0.957600  0.683600  0.997000  1
  F  F901  1  0.726000  0.683600  0.497000  1
  F  F902  1  0.042400  0.316400  0.003000  1
  F  F903  1  0.333200  0.311000  0.547200  1
  F  F904  1  0.022200  0.689000  0.952800  1
  F  F905  1  0.666800  0.689000  0.452800  1
  F  F906  1  0.977800  0.311000  0.047200  1
  F  F907  1  0.273400  0.232000  0.505600  1
  F  F908  1  0.041400  0.768000  0.994400  1
  F  F909  1  0.726600  0.768000  0.494400  1
  F  F910  1  0.958600  0.232000  0.005600  1
  F  F911  1  0.147800  0.201200  0.627980  1
  F  F912  1  0.946600  0.798800  0.872020  1
  F  F913  1  0.852200  0.798800  0.372020  1
  F  F914  1  0.053400  0.201200  0.127980  1
  F  F915  1  0.129740  0.195680  0.683700  1
  F  F916  1  0.934060  0.804320  0.816300  1
  F  F917  1  0.870260  0.804320  0.316300  1
  F  F918  1  0.065940  0.195680  0.183700  1
  F  F919  1  0.061080  0.127160  0.633300  1
  F  F920  1  0.933920  0.872840  0.866700  1
  F  F921  1  0.938920  0.872840  0.366700  1
  F  F922  1  0.066080  0.127160  0.133300  1
  F  F923  1  0.080440  0.223080  0.652600  1
  F  F924  1  0.857360  0.776920  0.847400  1
  F  F925  1  0.919560  0.776920  0.347400  1
  F  F926  1  0.142640  0.223080  0.152600  1
  F  F927  1  0.351900  0.045800  0.371300  1
  F  F928  1  0.306100  0.954200  0.128700  1
  F  F929  1  0.648100  0.954200  0.628700  1
  F  F930  1  0.693900  0.045800  0.871300  1
  F  F931  1  0.307450  0.002900  0.312880  1
  F  F932  1  0.304550  0.997100  0.187120  1
  F  F933  1  0.692550  0.997100  0.687120  1
  F  F934  1  0.695450  0.002900  0.812880  1
  F  F935  1  0.275880  0.951960  0.353300  1
  F  F936  1  0.323920  0.048040  0.146700  1
  F  F937  1  0.724120  0.048040  0.646700  1
  F  F938  1  0.676080  0.951960  0.853300  1
  F  F939  1  0.356600  0.960600  0.327600  1
  F  F940  1  0.396000  0.039400  0.172400  1
  F  F941  1  0.643400  0.039400  0.672400  1
  F  F942  1  0.604000  0.960600  0.827600  1
  F  F943  1  0.256700  0.033800  0.679400  1
  F  F944  1  0.222900  0.966200  0.820600  1
  F  F945  1  0.743300  0.966200  0.320600  1
  F  F946  1  0.777100  0.033800  0.179400  1
  F  F947  1  0.253600  0.949400  0.658600  1
  F  F948  1  0.304200  0.050600  0.841400  1
  F  F949  1  0.746400  0.050600  0.341400  1
  F  F950  1  0.695800  0.949400  0.158600  1
  F  F951  1  0.187500  0.960600  0.695300  1
  F  F952  1  0.226900  0.039400  0.804700  1
  F  F953  1  0.812500  0.039400  0.304700  1
  F  F954  1  0.773100  0.960600  0.195300  1
  F  F955  1  0.186200  0.957600  0.634200  1
  F  F956  1  0.228600  0.042400  0.865800  1
  F  F957  1  0.813800  0.042400  0.365800  1
  F  F958  1  0.771400  0.957600  0.134200  1
  F  F959  1  0.041700  0.479800  0.590800  1
  F  F960  1  0.561900  0.520200  0.909200  1
  F  F961  1  0.958300  0.520200  0.409200  1
  F  F962  1  0.438100  0.479800  0.090800  1
  F  F963  1  0.080500  0.568200  0.597300  1
  F  F964  1  0.512300  0.431800  0.902700  1
  F  F965  1  0.919500  0.431800  0.402700  1
  F  F966  1  0.487700  0.568200  0.097300  1
  F  F967  1  0.118600  0.538400  0.630500  1
  F  F968  1  0.580200  0.461600  0.869500  1
  F  F969  1  0.881400  0.461600  0.369500  1
  F  F970  1  0.419800  0.538400  0.130500  1
  F  F971  1  0.139500  0.502800  0.585600  1
  F  F972  1  0.636700  0.497200  0.914400  1
  F  F973  1  0.860500  0.497200  0.414400  1
  F  F974  1  0.363300  0.502800  0.085600  1
  F  F975  1  0.700400  0.335000  0.634400  1
  F  F976  1  0.365400  0.665000  0.865600  1
  F  F977  1  0.299600  0.665000  0.365600  1
  F  F978  1  0.634600  0.335000  0.134400  1
  F  F979  1  0.694800  0.324000  0.573800  1
  F  F980  1  0.370800  0.676000  0.926200  1
  F  F981  1  0.305200  0.676000  0.426200  1
  F  F982  1  0.629200  0.324000  0.073800  1
  F  F983  1  0.610300  0.289000  0.601600  1
  F  F984  1  0.321300  0.711000  0.898400  1
  F  F985  1  0.389700  0.711000  0.398400  1
  F  F986  1  0.678700  0.289000  0.101600  1
  F  F987  1  0.672300  0.388200  0.612400  1
  F  F988  1  0.284100  0.611800  0.887600  1
  F  F989  1  0.327700  0.611800  0.387600  1
  F  F990  1  0.715900  0.388200  0.112400  1
  F  F991  1  0.320500  0.336400  0.553100  1
  F  F992  1  0.984100  0.663600  0.946900  1
  F  F993  1  0.679500  0.663600  0.446900  1
  F  F994  1  0.015900  0.336400  0.053100  1
  F  F995  1  0.279600  0.248200  0.498100  1
  F  F996  1  0.031400  0.751800  0.001900  1
  F  F997  1  0.720400  0.751800  0.501900  1
  F  F998  1  0.968600  0.248200  0.998100  1
  F  F999  1  0.377800  0.036400  0.366900  1
  F  F1000  1  0.341400  0.963600  0.133100  1
  F  F1001  1  0.622200  0.963600  0.633100  1
  F  F1002  1  0.658600  0.036400  0.866900  1
  F  F1003  1  0.274400  0.999600  0.664700  1
  F  F1004  1  0.274800  0.000400  0.835300  1
  F  F1005  1  0.725600  0.000400  0.335300  1
  F  F1006  1  0.725200  0.999600  0.164700  1
  F  F1007  1  0.205900  0.913600  0.665000  1
  F  F1008  1  0.292300  0.086400  0.835000  1
  F  F1009  1  0.794100  0.086400  0.335000  1
  F  F1010  1  0.707700  0.913600  0.165000  1
  F  F1011  1  0.212900  0.993800  0.704200  1
  F  F1012  1  0.219100  0.006200  0.795800  1
  F  F1013  1  0.787100  0.006200  0.295800  1
  F  F1014  1  0.780900  0.993800  0.204200  1
  F  F1015  1  0.172800  0.966600  0.646700  1
  F  F1016  1  0.206200  0.033400  0.853300  1
  F  F1017  1  0.827200  0.033400  0.353300  1
  F  F1018  1  0.793800  0.966600  0.146700  1
  F  F1019  1  0.122600  0.523600  0.561900  1
  F  F1020  1  0.599000  0.476400  0.938100  1
  F  F1021  1  0.877400  0.476400  0.438100  1
  F  F1022  1  0.401000  0.523600  0.061900  1
  F  F1023  1  0.088600  0.047000  0.729500  1
  F  F1024  1  0.041600  0.953000  0.770500  1
  F  F1025  1  0.911400  0.953000  0.270500  1
  F  F1026  1  0.958400  0.047000  0.229500  1
  F  F1027  1  0.010300  0.000000  0.750000  1
  F  F1028  1  0.989700  0.000000  0.250000  1
  F  F1029  1  0.071900  0.966800  0.720800  1
  F  F1030  1  0.105100  0.033200  0.779200  1
  F  F1031  1  0.928100  0.033200  0.279200  1
  F  F1032  1  0.894900  0.966800  0.220800  1
  H  H1033  1  0.135200  0.105600  0.361000  1
  H  H1034  1  0.029600  0.894400  0.139000  1
  H  H1035  1  0.864800  0.894400  0.639000  1
  H  H1036  1  0.970400  0.105600  0.861000  1
  H  H1037  1  0.047100  0.059200  0.319600  1
  H  H1038  1  0.987900  0.940800  0.180400  1
  H  H1039  1  0.952900  0.940800  0.680400  1
  H  H1040  1  0.012100  0.059200  0.819600  1
  H  H1041  1  0.958000  0.047200  0.342000  1
  H  H1042  1  0.910800  0.952800  0.158000  1
  H  H1043  1  0.042000  0.952800  0.658000  1
  H  H1044  1  0.089200  0.047200  0.842000  1
  H  H1045  1  0.906800  0.065000  0.397800  1
  H  H1046  1  0.841800  0.935000  0.102200  1
  H  H1047  1  0.093200  0.935000  0.602200  1
  H  H1048  1  0.158200  0.065000  0.897800  1
  H  H1049  1  0.486000  0.870000  0.372200  1
  H  H1050  1  0.616000  0.130000  0.127800  1
  H  H1051  1  0.514000  0.130000  0.627800  1
  H  H1052  1  0.384000  0.870000  0.872200  1
  H  H1053  1  0.548300  0.885800  0.327700  1
  H  H1054  1  0.662500  0.114200  0.172300  1
  H  H1055  1  0.451700  0.114200  0.672300  1
  H  H1056  1  0.337500  0.885800  0.827700  1
  H  H1057  1  0.652300  0.942600  0.346100  1
  H  H1058  1  0.709700  0.057400  0.153900  1
  H  H1059  1  0.347700  0.057400  0.653900  1
  H  H1060  1  0.290300  0.942600  0.846100  1
  H  H1061  1  0.742000  0.012400  0.404400  1
  H  H1062  1  0.729600  0.987600  0.095600  1
  H  H1063  1  0.258000  0.987600  0.595600  1
  H  H1064  1  0.270400  0.012400  0.904400  1
  H  H1065  1  0.830300  0.033400  0.422400  1
  H  H1066  1  0.796900  0.966600  0.077600  1
  H  H1067  1  0.169700  0.966600  0.577600  1
  H  H1068  1  0.203100  0.033400  0.922400  1
  H  H1069  1  0.776200  0.068800  0.521700  1
  H  H1070  1  0.707400  0.931200  0.978300  1
  H  H1071  1  0.223800  0.931200  0.478300  1
  H  H1072  1  0.292600  0.068800  0.021700  1
  H  H1073  1  0.952700  0.141200  0.516300  1
  H  H1074  1  0.811500  0.858800  0.983700  1
  H  H1075  1  0.047300  0.858800  0.483700  1
  H  H1076  1  0.188500  0.141200  0.016300  1
  H  H1077  1  0.816600  0.155000  0.578500  1
  H  H1078  1  0.661600  0.845000  0.921500  1
  H  H1079  1  0.183400  0.845000  0.421500  1
  H  H1080  1  0.338400  0.155000  0.078500  1
  H  H1081  1  0.833900  0.180000  0.642300  1
  H  H1082  1  0.653900  0.820000  0.857700  1
  H  H1083  1  0.166100  0.820000  0.357700  1
  H  H1084  1  0.346100  0.180000  0.142300  1
  H  H1085  1  0.968900  0.143400  0.634000  1
  H  H1086  1  0.825500  0.856600  0.866000  1
  H  H1087  1  0.031100  0.856600  0.366000  1
  H  H1088  1  0.174500  0.143400  0.134000  1
  H  H1089  1  0.951600  0.119800  0.570900  1
  H  H1090  1  0.831800  0.880200  0.929100  1
  H  H1091  1  0.048400  0.880200  0.429100  1
  H  H1092  1  0.168200  0.119800  0.070900  1
  H  H1093  1  0.826000  0.140000  0.692800  1
  H  H1094  1  0.686000  0.860000  0.807200  1
  H  H1095  1  0.174000  0.860000  0.307200  1
  H  H1096  1  0.314000  0.140000  0.192800  1
  H  H1097  1  0.942000  0.228200  0.789800  1
  H  H1098  1  0.713800  0.771800  0.710200  1
  H  H1099  1  0.058000  0.771800  0.210200  1
  H  H1100  1  0.286200  0.228200  0.289800  1
  H  H1101  1  0.004800  0.221000  0.692500  1
  H  H1102  1  0.783800  0.779000  0.807500  1
  H  H1103  1  0.995200  0.779000  0.307500  1
  H  H1104  1  0.216200  0.221000  0.192500  1
  H  H1105  1  0.076300  0.228200  0.732100  1
  H  H1106  1  0.848100  0.771800  0.767900  1
  H  H1107  1  0.923700  0.771800  0.267900  1
  H  H1108  1  0.151900  0.228200  0.232100  1
  H  H1109  1  0.186100  0.257000  0.747100  1
  H  H1110  1  0.929100  0.743000  0.752900  1
  H  H1111  1  0.813900  0.743000  0.252900  1
  H  H1112  1  0.070900  0.257000  0.247100  1
  H  H1113  1  0.280200  0.324200  0.786300  1
  H  H1114  1  0.956000  0.675800  0.713700  1
  H  H1115  1  0.719800  0.675800  0.213700  1
  H  H1116  1  0.044000  0.324200  0.286300  1
  H  H1117  1  0.289900  0.406000  0.834700  1
  H  H1118  1  0.883900  0.594000  0.665300  1
  H  H1119  1  0.710100  0.594000  0.165300  1
  H  H1120  1  0.116100  0.406000  0.334700  1
  H  H1121  1  0.766300  0.100600  0.728800  1
  H  H1122  1  0.665700  0.899400  0.771200  1
  H  H1123  1  0.233700  0.899400  0.271200  1
  H  H1124  1  0.334300  0.100600  0.228800  1
  H  H1125  1  0.656500  0.049600  0.740800  1
  H  H1126  1  0.606900  0.950400  0.759200  1
  H  H1127  1  0.343500  0.950400  0.259200  1
  H  H1128  1  0.393100  0.049600  0.240800  1
  H  H1129  1  0.590900  0.046200  0.783000  1
  H  H1130  1  0.544700  0.953800  0.717000  1
  H  H1131  1  0.409100  0.953800  0.217000  1
  H  H1132  1  0.455300  0.046200  0.283000  1
  H  H1133  1  0.626500  0.114400  0.841900  1
  H  H1134  1  0.512100  0.885600  0.658100  1
  H  H1135  1  0.373500  0.885600  0.158100  1
  H  H1136  1  0.487900  0.114400  0.341900  1
  H  H1137  1  0.110200  0.989600  0.485000  1
  H  H1138  1  0.120600  0.010400  0.015000  1
  H  H1139  1  0.889800  0.010400  0.515000  1
  H  H1140  1  0.879400  0.989600  0.985000  1
  H  H1141  1  0.171700  0.057000  0.542000  1
  H  H1142  1  0.114700  0.943000  0.958000  1
  H  H1143  1  0.828300  0.943000  0.458000  1
  H  H1144  1  0.885300  0.057000  0.042000  1
  H  H1145  1  0.166400  0.144600  0.570700  1
  H  H1146  1  0.021800  0.855400  0.929300  1
  H  H1147  1  0.833600  0.855400  0.429300  1
  H  H1148  1  0.978200  0.144600  0.070700  1
  H  H1149  1  0.119000  0.208800  0.568500  1
  H  H1150  1  0.910200  0.791200  0.931500  1
  H  H1151  1  0.881000  0.791200  0.431500  1
  H  H1152  1  0.089800  0.208800  0.068500  1
  H  H1153  1  0.099500  0.427200  0.523600  1
  H  H1154  1  0.672300  0.572800  0.976400  1
  H  H1155  1  0.900500  0.572800  0.476400  1
  H  H1156  1  0.327700  0.427200  0.023600  1
  H  H1157  1  0.133700  0.510800  0.495400  1
  H  H1158  1  0.622900  0.489200  0.004600  1
  H  H1159  1  0.866300  0.489200  0.504600  1
  H  H1160  1  0.377100  0.510800  0.995400  1
  H  H1161  1  0.126100  0.536000  0.441600  1
  H  H1162  1  0.590100  0.464000  0.058400  1
  H  H1163  1  0.873900  0.464000  0.558400  1
  H  H1164  1  0.409900  0.536000  0.941600  1
  H  H1165  1  0.058000  0.465400  0.390600  1
  H  H1166  1  0.592600  0.534600  0.109400  1
  H  H1167  1  0.942000  0.534600  0.609400  1
  H  H1168  1  0.407400  0.465400  0.890600  1
  H  H1169  1  0.062200  0.250200  0.484300  1
  H  H1170  1  0.812000  0.749800  0.015700  1
  H  H1171  1  0.937800  0.749800  0.515700  1
  H  H1172  1  0.188000  0.250200  0.984300  1
  H  H1173  1  0.060800  0.250400  0.590100  1
  H  H1174  1  0.810400  0.749600  0.909900  1
  H  H1175  1  0.939200  0.749600  0.409900  1
  H  H1176  1  0.189600  0.250400  0.090100  1
  H  H1177  1  0.052200  0.381600  0.563900  1
  H  H1178  1  0.670600  0.618400  0.936100  1
  H  H1179  1  0.947800  0.618400  0.436100  1
  H  H1180  1  0.329400  0.381600  0.063900  1
  H  H1181  1  0.995600  0.269600  0.631600  1
  H  H1182  1  0.726000  0.730400  0.868400  1
  H  H1183  1  0.004400  0.730400  0.368400  1
  H  H1184  1  0.274000  0.269600  0.131600  1
  H  H1185  1  0.986500  0.313000  0.691500  1
  H  H1186  1  0.673500  0.687000  0.808500  1
  H  H1187  1  0.013500  0.687000  0.308500  1
  H  H1188  1  0.326500  0.313000  0.191500  1
  H  H1189  1  0.092000  0.478000  0.684700  1
  H  H1190  1  0.614000  0.522000  0.815300  1
  H  H1191  1  0.908000  0.522000  0.315300  1
  H  H1192  1  0.386000  0.478000  0.184700  1
  H  H1193  1  0.102300  0.435400  0.625400  1
  H  H1194  1  0.666900  0.564600  0.874600  1
  H  H1195  1  0.897700  0.564600  0.374600  1
  H  H1196  1  0.333100  0.435400  0.125400  1
  H  H1197  1  0.046500  0.370600  0.754500  1
  H  H1198  1  0.675900  0.629400  0.745500  1
  H  H1199  1  0.953500  0.629400  0.245500  1
  H  H1200  1  0.324100  0.370600  0.254500  1
  H  H1201  1  0.042800  0.506200  0.834800  1
  H  H1202  1  0.536600  0.493800  0.665200  1
  H  H1203  1  0.957200  0.493800  0.165200  1
  H  H1204  1  0.463400  0.506200  0.334800  1
  H  H1205  1  0.031600  0.498000  0.728100  1
  H  H1206  1  0.533600  0.502000  0.771900  1
  H  H1207  1  0.968400  0.502000  0.271900  1
  H  H1208  1  0.466400  0.498000  0.228100  1
  H  H1209  1  0.089900  0.473400  0.934300  1
  H  H1210  1  0.616500  0.526600  0.565700  1
  H  H1211  1  0.910100  0.526600  0.065700  1
  H  H1212  1  0.383500  0.473400  0.434300  1
  H  H1213  1  0.091800  0.415800  0.969700  1
  H  H1214  1  0.676000  0.584200  0.530300  1
  H  H1215  1  0.908200  0.584200  0.030300  1
  H  H1216  1  0.324000  0.415800  0.469700  1
  H  H1217  1  0.070600  0.318000  0.940500  1
  H  H1218  1  0.752600  0.682000  0.559500  1
  H  H1219  1  0.929400  0.682000  0.059500  1
  H  H1220  1  0.247400  0.318000  0.440500  1
  H  H1221  1  0.011000  0.562800  0.840300  1
  H  H1222  1  0.448200  0.437200  0.659700  1
  H  H1223  1  0.989000  0.437200  0.159700  1
  H  H1224  1  0.551800  0.562800  0.340300  1
  H  H1225  1  0.008700  0.651400  0.886400  1
  H  H1226  1  0.357300  0.348600  0.613600  1
  H  H1227  1  0.991300  0.348600  0.113600  1
  H  H1228  1  0.642700  0.651400  0.386400  1
  H  H1229  1  0.017600  0.745600  0.899800  1
  H  H1230  1  0.272000  0.254400  0.600200  1
  H  H1231  1  0.982400  0.254400  0.100200  1
  H  H1232  1  0.728000  0.745600  0.399800  1
  H  H1233  1  0.036500  0.789600  0.853000  1
  H  H1234  1  0.246900  0.210400  0.647000  1
  H  H1235  1  0.963500  0.210400  0.147000  1
  H  H1236  1  0.753100  0.789600  0.353000  1
  H  H1237  1  0.098200  0.240200  0.330000  1
  H  H1238  1  0.858000  0.759800  0.170000  1
  H  H1239  1  0.901800  0.759800  0.670000  1
  H  H1240  1  0.142000  0.240200  0.830000  1
  H  H1241  1  0.008700  0.153200  0.297900  1
  H  H1242  1  0.855500  0.846800  0.202100  1
  H  H1243  1  0.991300  0.846800  0.702100  1
  H  H1244  1  0.144500  0.153200  0.797900  1
  H  H1245  1  0.924700  0.123400  0.327300  1
  H  H1246  1  0.801300  0.876600  0.172700  1
  H  H1247  1  0.075300  0.876600  0.672700  1
  H  H1248  1  0.198700  0.123400  0.827300  1
  H  H1249  1  0.878500  0.147000  0.383800  1
  H  H1250  1  0.731500  0.853000  0.116200  1
  H  H1251  1  0.121500  0.853000  0.616200  1
  H  H1252  1  0.268500  0.147000  0.883800  1
  H  H1253  1  0.713800  0.093800  0.381800  1
  H  H1254  1  0.620000  0.906200  0.118200  1
  H  H1255  1  0.286200  0.906200  0.618200  1
  H  H1256  1  0.380000  0.093800  0.881800  1
  H  H1257  1  0.622700  0.025000  0.328600  1
  H  H1258  1  0.597700  0.975000  0.171400  1
  H  H1259  1  0.377300  0.975000  0.671400  1
  H  H1260  1  0.402300  0.025000  0.828600  1
  H  H1261  1  0.517800  0.976400  0.310800  1
  H  H1262  1  0.541400  0.023600  0.189200  1
  H  H1263  1  0.482200  0.023600  0.689200  1
  H  H1264  1  0.458600  0.976400  0.810800  1
  H  H1265  1  0.804300  0.148800  0.402100  1
  H  H1266  1  0.655500  0.851200  0.097900  1
  H  H1267  1  0.195700  0.851200  0.597900  1
  H  H1268  1  0.344500  0.148800  0.902100  1
  H  H1269  1  0.749800  0.206200  0.496700  1
  H  H1270  1  0.543600  0.793800  0.003300  1
  H  H1271  1  0.250200  0.793800  0.503300  1
  H  H1272  1  0.456400  0.206200  0.996700  1
  H  H1273  1  0.927500  0.296600  0.559500  1
  H  H1274  1  0.630900  0.703400  0.940500  1
  H  H1275  1  0.072500  0.703400  0.440500  1
  H  H1276  1  0.369100  0.296600  0.059500  1
  H  H1277  1  0.951200  0.373800  0.615600  1
  H  H1278  1  0.577400  0.626200  0.884400  1
  H  H1279  1  0.048800  0.626200  0.384400  1
  H  H1280  1  0.422600  0.373800  0.115600  1
  H  H1281  1  0.805100  0.379800  0.586800  1
  H  H1282  1  0.425300  0.620200  0.913200  1
  H  H1283  1  0.194900  0.620200  0.413200  1
  H  H1284  1  0.574700  0.379800  0.086800  1
  H  H1285  1  0.781100  0.303000  0.531200  1
  H  H1286  1  0.478100  0.697000  0.968800  1
  H  H1287  1  0.218900  0.697000  0.468800  1
  H  H1288  1  0.521900  0.303000  0.031200  1
  H  H1289  1  0.985000  0.483200  0.645600  1
  H  H1290  1  0.501800  0.516800  0.854400  1
  H  H1291  1  0.015000  0.516800  0.354400  1
  H  H1292  1  0.498200  0.483200  0.145600  1
  H  H1293  1  0.923400  0.556200  0.732400  1
  H  H1294  1  0.367200  0.443800  0.767600  1
  H  H1295  1  0.076600  0.443800  0.267600  1
  H  H1296  1  0.632800  0.556200  0.232400  1
  H  H1297  1  0.808200  0.404600  0.650100  1
  H  H1298  1  0.403600  0.595400  0.849900  1
  H  H1299  1  0.191800  0.595400  0.349900  1
  H  H1300  1  0.596400  0.404600  0.150100  1
  H  H1301  1  0.053500  0.578400  0.661000  1
  H  H1302  1  0.475100  0.421600  0.839000  1
  H  H1303  1  0.946500  0.421600  0.339000  1
  H  H1304  1  0.524900  0.578400  0.161000  1
  H  H1305  1  0.159933  0.653200  0.658700  1
  H  H1306  1  0.506733  0.346800  0.841300  1
  H  H1307  1  0.840067  0.346800  0.341300  1
  H  H1308  1  0.493267  0.653200  0.158700  1
  H  H1309  1  0.254900  0.733600  0.693400  1
  H  H1310  1  0.521300  0.266400  0.806600  1
  H  H1311  1  0.745100  0.266400  0.306600  1
  H  H1312  1  0.478700  0.733600  0.193400  1
  H  H1313  1  0.269700  0.768000  0.757100  1
  H  H1314  1  0.501700  0.232000  0.742900  1
  H  H1315  1  0.730300  0.232000  0.242900  1
  H  H1316  1  0.498300  0.768000  0.257100  1
  H  H1317  1  0.756400  0.452000  0.668400  1
  H  H1318  1  0.304400  0.548000  0.831600  1
  H  H1319  1  0.243600  0.548000  0.331600  1
  H  H1320  1  0.695600  0.452000  0.168400  1
  H  H1321  1  0.917900  0.385800  0.874000  1
  H  H1322  1  0.532100  0.614200  0.626000  1
  H  H1323  1  0.082100  0.614200  0.126000  1
  H  H1324  1  0.467900  0.385800  0.374000  1
  H  H1325  1  0.943800  0.381200  0.937700  1
  H  H1326  1  0.562600  0.618800  0.562300  1
  H  H1327  1  0.056200  0.618800  0.062300  1
  H  H1328  1  0.437400  0.381200  0.437700  1
  H  H1329  1  0.647500  0.426000  0.669300  1
  H  H1330  1  0.221500  0.574000  0.830700  1
  H  H1331  1  0.352500  0.574000  0.330700  1
  H  H1332  1  0.778500  0.426000  0.169300  1
  H  H1333  1  0.952600  0.323400  0.970300  1
  H  H1334  1  0.629200  0.676600  0.529700  1
  H  H1335  1  0.047400  0.676600  0.029700  1
  H  H1336  1  0.370800  0.323400  0.470300  1
  H  H1337  1  0.568500  0.407400  0.704000  1
  H  H1338  1  0.161100  0.592600  0.796000  1
  H  H1339  1  0.431500  0.592600  0.296000  1
  H  H1340  1  0.838900  0.407400  0.204000  1
  H  H1341  1  0.916200  0.220600  0.939500  1
  H  H1342  1  0.695600  0.779400  0.560500  1
  H  H1343  1  0.083800  0.779400  0.060500  1
  H  H1344  1  0.304400  0.220600  0.439500  1
  H  H1345  1  0.586500  0.417400  0.765800  1
  H  H1346  1  0.169100  0.582600  0.734200  1
  H  H1347  1  0.413500  0.582600  0.234200  1
  H  H1348  1  0.830900  0.417400  0.265800  1
  H  H1349  1  0.583700  0.282600  0.531600  1
  H  H1350  1  0.301100  0.717400  0.968400  1
  H  H1351  1  0.416300  0.717400  0.468400  1
  H  H1352  1  0.698900  0.282600  0.031600  1
  H  H1353  1  0.572800  0.322400  0.487500  1
  H  H1354  1  0.250400  0.677600  0.012500  1
  H  H1355  1  0.427200  0.677600  0.512500  1
  H  H1356  1  0.749600  0.322400  0.987500  1
  H  H1357  1  0.590500  0.289200  0.427400  1
  H  H1358  1  0.301300  0.710800  0.072600  1
  H  H1359  1  0.409500  0.710800  0.572600  1
  H  H1360  1  0.698700  0.289200  0.927400  1
  H  H1361  1  0.618300  0.213600  0.548200  1
  H  H1362  1  0.404700  0.786400  0.951800  1
  H  H1363  1  0.381700  0.786400  0.451800  1
  H  H1364  1  0.595300  0.213600  0.048200  1
  H  H1365  1  0.641000  0.984200  0.576000  1
  H  H1366  1  0.656800  0.015800  0.924000  1
  H  H1367  1  0.359000  0.015800  0.424000  1
  H  H1368  1  0.343200  0.984200  0.076000  1
  H  H1369  1  0.599300  0.870200  0.574000  1
  H  H1370  1  0.729100  0.129800  0.926000  1
  H  H1371  1  0.400700  0.129800  0.426000  1
  H  H1372  1  0.270900  0.870200  0.074000  1
  H  H1373  1  0.582900  0.774600  0.539300  1
  H  H1374  1  0.808300  0.225400  0.960700  1
  H  H1375  1  0.417100  0.225400  0.460700  1
  H  H1376  1  0.191700  0.774600  0.039300  1
  H  H1377  1  0.609800  0.757800  0.480400  1
  H  H1378  1  0.852000  0.242200  0.019600  1
  H  H1379  1  0.390200  0.242200  0.519600  1
  H  H1380  1  0.148000  0.757800  0.980400  1
  H  H1381  1  0.627600  0.058200  0.498400  1
  H  H1382  1  0.569400  0.941800  0.001600  1
  H  H1383  1  0.372400  0.941800  0.501600  1
  H  H1384  1  0.430600  0.058200  0.998400  1
  H  H1385  1  0.689800  0.218600  0.580900  1
  H  H1386  1  0.471200  0.781400  0.919100  1
  H  H1387  1  0.310200  0.781400  0.419100  1
  H  H1388  1  0.528800  0.218600  0.080900  1
  H  H1389  1  0.701400  0.083600  0.599900  1
  H  H1390  1  0.617800  0.916400  0.900100  1
  H  H1391  1  0.298600  0.916400  0.400100  1
  H  H1392  1  0.382200  0.083600  0.099900  1
  H  H1393  1  0.786900  0.272800  0.619500  1
  H  H1394  1  0.514100  0.727200  0.880500  1
  H  H1395  1  0.213100  0.727200  0.380500  1
  H  H1396  1  0.485900  0.272800  0.119500  1
  H  H1397  1  0.839600  0.338600  0.678500  1
  H  H1398  1  0.501000  0.661400  0.821500  1
  H  H1399  1  0.160400  0.661400  0.321500  1
  H  H1400  1  0.499000  0.338600  0.178500  1
  H  H1401  1  0.747900  0.204800  0.719900  1
  H  H1402  1  0.543100  0.795200  0.780100  1
  H  H1403  1  0.252100  0.795200  0.280100  1
  H  H1404  1  0.456900  0.204800  0.219900  1
  H  H1405  1  0.696500  0.139200  0.660400  1
  H  H1406  1  0.557300  0.860800  0.839600  1
  H  H1407  1  0.303500  0.860800  0.339600  1
  H  H1408  1  0.442700  0.139200  0.160400  1
  H  H1409  1  0.821000  0.391000  0.738400  1
  H  H1410  1  0.430000  0.609000  0.761600  1
  H  H1411  1  0.179000  0.609000  0.261600  1
  H  H1412  1  0.570000  0.391000  0.238400  1
  H  H1413  1  0.878100  0.420000  0.844100  1
  H  H1414  1  0.458100  0.580000  0.655900  1
  H  H1415  1  0.121900  0.580000  0.155900  1
  H  H1416  1  0.541900  0.420000  0.344100  1
  H  H1417  1  0.838300  0.264600  0.762900  1
  H  H1418  1  0.573700  0.735400  0.737100  1
  H  H1419  1  0.161700  0.735400  0.237100  1
  H  H1420  1  0.426300  0.264600  0.262900  1
  H  H1421  1  0.888800  0.504000  0.853300  1
  H  H1422  1  0.384800  0.496000  0.646700  1
  H  H1423  1  0.111200  0.496000  0.146700  1
  H  H1424  1  0.615200  0.504000  0.353300  1
  H  H1425  1  0.892200  0.598000  0.897600  1
  H  H1426  1  0.294200  0.402000  0.602400  1
  H  H1427  1  0.107800  0.402000  0.102400  1
  H  H1428  1  0.705800  0.598000  0.397600  1
  H  H1429  1  0.873800  0.678000  0.905500  1
  H  H1430  1  0.195800  0.322000  0.594500  1
  H  H1431  1  0.126200  0.322000  0.094500  1
  H  H1432  1  0.804200  0.678000  0.405500  1
  H  H1433  1  0.828900  0.682600  0.854700  1
  H  H1434  1  0.146300  0.317400  0.645300  1
  H  H1435  1  0.171100  0.317400  0.145300  1
  H  H1436  1  0.853700  0.682600  0.354700  1
  H  H1437  1  0.459200  0.987400  0.354200  1
  H  H1438  1  0.471800  0.012600  0.145800  1
  H  H1439  1  0.540800  0.012600  0.645800  1
  H  H1440  1  0.528200  0.987400  0.854200  1
  H  H1441  1  0.487400  0.837600  0.382800  1
  H  H1442  1  0.649800  0.162400  0.117200  1
  H  H1443  1  0.512600  0.162400  0.617200  1
  H  H1444  1  0.350200  0.837600  0.882800  1
  H  H1445  1  0.544600  0.859800  0.336600  1
  H  H1446  1  0.684800  0.140200  0.163400  1
  H  H1447  1  0.455400  0.140200  0.663400  1
  H  H1448  1  0.315200  0.859800  0.836600  1
  H  H1449  1  0.647700  0.926800  0.352600  1
  H  H1450  1  0.720900  0.073200  0.147400  1
  H  H1451  1  0.352300  0.073200  0.647400  1
  H  H1452  1  0.279100  0.926800  0.852600  1
  H  H1453  1  0.740600  0.996400  0.400400  1
  H  H1454  1  0.744200  0.003600  0.099600  1
  H  H1455  1  0.259400  0.003600  0.599600  1
  H  H1456  1  0.255800  0.996400  0.900400  1
  N  N1457  1  0.047840  0.116280  0.420760  1
  N  N1458  1  0.931560  0.883720  0.079240  1
  N  N1459  1  0.952160  0.883720  0.579240  1
  N  N1460  1  0.068440  0.116280  0.920760  1
  N  N1461  1  0.948770  0.094940  0.448180  1
  N  N1462  1  0.853830  0.905060  0.051820  1
  N  N1463  1  0.051230  0.905060  0.551820  1
  N  N1464  1  0.146170  0.094940  0.948180  1
  N  N1465  1  0.731890  0.007980  0.453500  1
  N  N1466  1  0.723910  0.992020  0.046500  1
  N  N1467  1  0.268110  0.992020  0.546500  1
  N  N1468  1  0.276090  0.007980  0.953500  1
  N  N1469  1  0.040380  0.266560  0.765900  1
  N  N1470  1  0.773820  0.733440  0.734100  1
  N  N1471  1  0.959620  0.733440  0.234100  1
  N  N1472  1  0.226180  0.266560  0.265900  1
  N  N1473  1  0.149600  0.346200  0.805050  1
  N  N1474  1  0.803400  0.653800  0.694950  1
  N  N1475  1  0.850400  0.653800  0.194950  1
  N  N1476  1  0.196600  0.346200  0.305050  1
  N  N1477  1  0.830320  0.168240  0.766600  1
  N  N1478  1  0.662080  0.831760  0.733400  1
  N  N1479  1  0.169680  0.831760  0.233400  1
  N  N1480  1  0.337920  0.168240  0.266600  1
  N  N1481  1  0.752400  0.162200  0.812100  1
  N  N1482  1  0.590200  0.837800  0.687900  1
  N  N1483  1  0.247600  0.837800  0.187900  1
  N  N1484  1  0.409800  0.162200  0.312100  1
  N  N1485  1  0.067780  0.087760  0.496940  1
  N  N1486  1  0.980020  0.912240  0.003060  1
  N  N1487  1  0.932220  0.912240  0.503060  1
  N  N1488  1  0.019980  0.087760  0.996940  1
  N  N1489  1  0.070920  0.191840  0.523080  1
  N  N1490  1  0.879080  0.808160  0.976920  1
  N  N1491  1  0.929080  0.808160  0.476920  1
  N  N1492  1  0.120920  0.191840  0.023080  1
  N  N1493  1  0.052830  0.343060  0.492020  1
  N  N1494  1  0.709770  0.656940  0.007980  1
  N  N1495  1  0.947170  0.656940  0.507980  1
  N  N1496  1  0.290230  0.343060  0.992020  1
  N  N1497  1  0.033720  0.379240  0.438600  1
  N  N1498  1  0.654480  0.620760  0.061400  1
  N  N1499  1  0.966280  0.620760  0.561400  1
  N  N1500  1  0.345520  0.379240  0.938600  1
  N  N1501  1  0.054690  0.409380  0.824320  1
  N  N1502  1  0.645310  0.590620  0.675680  1
  N  N1503  1  0.945310  0.590620  0.175680  1
  N  N1504  1  0.354690  0.409380  0.324320  1
  N  N1505  1  0.055930  0.349260  0.867360  1
  N  N1506  1  0.706670  0.650740  0.632640  1
  N  N1507  1  0.944070  0.650740  0.132640  1
  N  N1508  1  0.293330  0.349260  0.367360  1
  N  N1509  1  0.035360  0.564520  0.792300  1
  N  N1510  1  0.470840  0.435480  0.707700  1
  N  N1511  1  0.964640  0.435480  0.207700  1
  N  N1512  1  0.529160  0.564520  0.292300  1
  N  N1513  1  0.035860  0.667120  0.806500  1
  N  N1514  1  0.368740  0.332880  0.693500  1
  N  N1515  1  0.964140  0.332880  0.193500  1
  N  N1516  1  0.631260  0.667120  0.306500  1
  N  N1517  1  0.017190  0.245980  0.394100  1
  N  N1518  1  0.771210  0.754020  0.105900  1
  N  N1519  1  0.982810  0.754020  0.605900  1
  N  N1520  1  0.228790  0.245980  0.894100  1
  N  N1521  1  0.921570  0.222140  0.425700  1
  N  N1522  1  0.699430  0.777860  0.074300  1
  N  N1523  1  0.078430  0.777860  0.574300  1
  N  N1524  1  0.300570  0.222140  0.925700  1
  N  N1525  1  0.704420  0.134240  0.430800  1
  N  N1526  1  0.570180  0.865760  0.069200  1
  N  N1527  1  0.295580  0.865760  0.569200  1
  N  N1528  1  0.429820  0.134240  0.930800  1
  N  N1529  1  0.589300  0.068400  0.409700  1
  N  N1530  1  0.520900  0.931600  0.090300  1
  N  N1531  1  0.410700  0.931600  0.590300  1
  N  N1532  1  0.479100  0.068400  0.909700  1
  N  N1533  1  0.130260  0.663320  0.743200  1
  N  N1534  1  0.466940  0.336680  0.756800  1
  N  N1535  1  0.869740  0.336680  0.256800  1
  N  N1536  1  0.533060  0.663320  0.243200  1
  N  N1537  1  0.021960  0.578520  0.707400  1
  N  N1538  1  0.443440  0.421480  0.792600  1
  N  N1539  1  0.978040  0.421480  0.292600  1
  N  N1540  1  0.556560  0.578520  0.207400  1
  N  N1541  1  0.810970  0.477740  0.713100  1
  N  N1542  1  0.333230  0.522260  0.786900  1
  N  N1543  1  0.189030  0.522260  0.286900  1
  N  N1544  1  0.666770  0.477740  0.213100  1
  N  N1545  1  0.718910  0.451220  0.748800  1
  N  N1546  1  0.267690  0.548780  0.751200  1
  N  N1547  1  0.281090  0.548780  0.251200  1
  N  N1548  1  0.732310  0.451220  0.248800  1
  N  N1549  1  0.635900  0.161200  0.510500  1
  N  N1550  1  0.474700  0.838800  0.989500  1
  N  N1551  1  0.364100  0.838800  0.489500  1
  N  N1552  1  0.525300  0.161200  0.010500  1
  N  N1553  1  0.655400  0.004400  0.531700  1
  N  N1554  1  0.651000  0.995600  0.968300  1
  N  N1555  1  0.344600  0.995600  0.468300  1
  N  N1556  1  0.349000  0.004400  0.031700  1
  N  N1557  1  0.848080  0.468160  0.801800  1
  N  N1558  1  0.379920  0.531840  0.698200  1
  N  N1559  1  0.151920  0.531840  0.198200  1
  N  N1560  1  0.620080  0.468160  0.301800  1
  N  N1561  1  0.835630  0.563460  0.812700  1
  N  N1562  1  0.272170  0.436540  0.687300  1
  N  N1563  1  0.164370  0.436540  0.187300  1
  N  N1564  1  0.727830  0.563460  0.312700  1
  N  N1565  1  0.872630  0.312860  0.831800  1
  N  N1566  1  0.559770  0.687140  0.668200  1
  N  N1567  1  0.127370  0.687140  0.168200  1
  N  N1568  1  0.440230  0.312860  0.331800  1
  N  N1569  1  0.889300  0.253200  0.869600  1
  N  N1570  1  0.636100  0.746800  0.630400  1
  N  N1571  1  0.110700  0.746800  0.130400  1
  N  N1572  1  0.363900  0.253200  0.369600  1
  N  N1573  1  0.614700  0.951000  0.428010  1
  N  N1574  1  0.663700  0.049000  0.071990  1
  N  N1575  1  0.385300  0.049000  0.571990  1
  N  N1576  1  0.336300  0.951000  0.928010  1
  N  N1577  1  0.618170  0.205740  0.462100  1
  N  N1578  1  0.412430  0.794260  0.037900  1
  N  N1579  1  0.381830  0.794260  0.537900  1
  N  N1580  1  0.587570  0.205740  0.962100  1
  N  N1581  1  0.651700  0.899800  0.500800  1
  N  N1582  1  0.751900  0.100200  0.999200  1
  N  N1583  1  0.348300  0.100200  0.499200  1
  N  N1584  1  0.248100  0.899800  0.000800  1
  N  N1585  1  0.213800  0.089800  0.616000  1
  N  N1586  1  0.124000  0.910200  0.884000  1
  N  N1587  1  0.786200  0.910200  0.384000  1
  N  N1588  1  0.876000  0.089800  0.116000  1
  N  N1589  1  0.470500  0.485000  0.605700  1
  N  N1590  1  0.985500  0.515000  0.894300  1
  N  N1591  1  0.529500  0.515000  0.394300  1
  N  N1592  1  0.014500  0.485000  0.105700  1
  N  N1593  1  0.035900  0.145000  0.778600  1
  N  N1594  1  0.890900  0.855000  0.721400  1
  N  N1595  1  0.964100  0.855000  0.221400  1
  N  N1596  1  0.109100  0.145000  0.278600  1
  N  N1597  1  0.157500  0.998400  0.338300  1
  N  N1598  1  0.159100  0.001600  0.161700  1
  N  N1599  1  0.842500  0.001600  0.661700  1
  N  N1600  1  0.840900  0.998400  0.838300  1
  N  N1601  1  0.219600  0.446000  0.483100  1
  N  N1602  1  0.773600  0.554000  0.016900  1
  N  N1603  1  0.780400  0.554000  0.516900  1
  N  N1604  1  0.226400  0.446000  0.983100  1
  N  N1605  1  0.617900  0.931400  0.435800  1
  N  N1606  1  0.686500  0.068600  0.064200  1
  N  N1607  1  0.382100  0.068600  0.564200  1
  N  N1608  1  0.313500  0.931400  0.935800  1
  O  O1609  1  0.642000  0.245600  0.742700  1
  O  O1610  1  0.396400  0.754400  0.757300  1
  O  O1611  1  0.358000  0.754400  0.257300  1
  O  O1612  1  0.603600  0.245600  0.242700  1
