# generated using pymatgen
data_V8H105C63N10(ClO43)2
_symmetry_space_group_name_H-M   'P 1'
_cell_length_a   21.29580000
_cell_length_b   21.33000000
_cell_length_c   21.95810000
_cell_angle_alpha   90.00000000
_cell_angle_beta   105.86780000
_cell_angle_gamma   90.00000000
_symmetry_Int_Tables_number   1
_chemical_formula_structural   V8H105C63N10(ClO43)2
_chemical_formula_sum   'V32 H420 C252 N40 Cl8 O344'
_cell_volume   9594.16748522
_cell_formula_units_Z   4
loop_
 _symmetry_equiv_pos_site_id
 _symmetry_equiv_pos_as_xyz
  1  'x, y, z'
loop_
 _atom_site_type_symbol
 _atom_site_label
 _atom_site_symmetry_multiplicity
 _atom_site_fract_x
 _atom_site_fract_y
 _atom_site_fract_z
 _atom_site_occupancy
  V  V1  1  0.314410  0.923950  0.621840  1.0
  V  V2  1  0.185590  0.423950  0.378160  1.0
  V  V3  1  0.685590  0.076050  0.378160  1.0
  V  V4  1  0.814410  0.576050  0.621840  1.0
  V  V5  1  0.468530  0.922260  0.624550  1.0
  V  V6  1  0.031470  0.422260  0.375450  1.0
  V  V7  1  0.531470  0.077740  0.375450  1.0
  V  V8  1  0.968530  0.577740  0.624550  1.0
  V  V9  1  0.175670  0.178550  0.000480  1.0
  V  V10  1  0.324330  0.678550  0.999520  1.0
  V  V11  1  0.824330  0.821450  0.999520  1.0
  V  V12  1  0.675670  0.321450  0.000480  1.0
  V  V13  1  0.470720  0.075690  0.621600  1.0
  V  V14  1  0.029280  0.575690  0.378400  1.0
  V  V15  1  0.529280  0.924310  0.378400  1.0
  V  V16  1  0.970720  0.424310  0.621600  1.0
  V  V17  1  0.681940  0.922380  0.375710  1.0
  V  V18  1  0.818060  0.422380  0.624290  1.0
  V  V19  1  0.318060  0.077620  0.624290  1.0
  V  V20  1  0.181940  0.577620  0.375710  1.0
  V  V21  1  0.668080  0.669870  0.999720  1.0
  V  V22  1  0.831920  0.169870  0.000280  1.0
  V  V23  1  0.331920  0.330130  0.000280  1.0
  V  V24  1  0.168080  0.830130  0.999720  1.0
  V  V25  1  0.777690  0.744760  0.108410  1.0
  V  V26  1  0.722310  0.244760  0.891590  1.0
  V  V27  1  0.222310  0.255240  0.891590  1.0
  V  V28  1  0.277690  0.755240  0.108410  1.0
  V  V29  1  0.284300  0.255130  0.109310  1.0
  V  V30  1  0.215700  0.755130  0.890690  1.0
  V  V31  1  0.715700  0.744870  0.890690  1.0
  V  V32  1  0.784300  0.244870  0.109310  1.0
  H  H33  1  0.369600  0.996900  0.516300  1
  H  H34  1  0.130400  0.496900  0.483700  1
  H  H35  1  0.630400  0.003100  0.483700  1
  H  H36  1  0.869600  0.503100  0.516300  1
  H  H37  1  0.312000  0.021500  0.469900  1
  H  H38  1  0.188000  0.521500  0.530100  1
  H  H39  1  0.688000  0.978500  0.530100  1
  H  H40  1  0.812000  0.478500  0.469900  1
  H  H41  1  0.399400  0.083700  0.469900  1
  H  H42  1  0.100600  0.583700  0.530100  1
  H  H43  1  0.600600  0.916300  0.530100  1
  H  H44  1  0.899400  0.416300  0.469900  1
  H  H45  1  0.436400  0.023600  0.453100  1
  H  H46  1  0.063600  0.523600  0.546900  1
  H  H47  1  0.563600  0.976400  0.546900  1
  H  H48  1  0.936400  0.476400  0.453100  1
  H  H49  1  0.373300  0.050600  0.402300  1
  H  H50  1  0.126700  0.550600  0.597700  1
  H  H51  1  0.626700  0.949400  0.597700  1
  H  H52  1  0.873300  0.449400  0.402300  1
  H  H53  1  0.306600  0.916800  0.470200  1
  H  H54  1  0.193400  0.416800  0.529800  1
  H  H55  1  0.693400  0.083200  0.529800  1
  H  H56  1  0.806600  0.583200  0.470200  1
  H  H57  1  0.312000  0.940800  0.402900  1
  H  H58  1  0.188000  0.440800  0.597100  1
  H  H59  1  0.688000  0.059200  0.597100  1
  H  H60  1  0.812000  0.559200  0.402900  1
  H  H61  1  0.375100  0.913900  0.453600  1
  H  H62  1  0.124900  0.413900  0.546400  1
  H  H63  1  0.624900  0.086100  0.546400  1
  H  H64  1  0.875100  0.586100  0.453600  1
  H  H65  1  0.169700  0.023700  0.225400  1
  H  H66  1  0.330300  0.523700  0.774600  1
  H  H67  1  0.830300  0.976300  0.774600  1
  H  H68  1  0.669700  0.476300  0.225400  1
  H  H69  1  0.096600  0.899800  0.172100  1
  H  H70  1  0.403400  0.399800  0.827900  1
  H  H71  1  0.903400  0.100200  0.827900  1
  H  H72  1  0.596600  0.600200  0.172100  1
  H  H73  1  0.151600  0.905400  0.135200  1
  H  H74  1  0.348400  0.405400  0.864800  1
  H  H75  1  0.848400  0.094600  0.864800  1
  H  H76  1  0.651600  0.594600  0.135200  1
  H  H77  1  0.113100  0.966600  0.147100  1
  H  H78  1  0.386900  0.466600  0.852900  1
  H  H79  1  0.886900  0.033400  0.852900  1
  H  H80  1  0.613100  0.533400  0.147100  1
  H  H81  1  0.172300  0.848600  0.252800  1
  H  H82  1  0.327700  0.348600  0.747200  1
  H  H83  1  0.827700  0.151400  0.747200  1
  H  H84  1  0.672300  0.651400  0.252800  1
  H  H85  1  0.241800  0.879300  0.285700  1
  H  H86  1  0.258200  0.379300  0.714300  1
  H  H87  1  0.758200  0.120700  0.714300  1
  H  H88  1  0.741800  0.620700  0.285700  1
  H  H89  1  0.225400  0.855900  0.213900  1
  H  H90  1  0.274600  0.355900  0.786100  1
  H  H91  1  0.774600  0.144100  0.786100  1
  H  H92  1  0.725400  0.644100  0.213900  1
  H  H93  1  0.382500  0.978700  0.827500  1
  H  H94  1  0.117500  0.478700  0.172500  1
  H  H95  1  0.617500  0.021300  0.172500  1
  H  H96  1  0.882500  0.521300  0.827500  1
  H  H97  1  0.374700  0.083400  0.820500  1
  H  H98  1  0.125300  0.583400  0.179500  1
  H  H99  1  0.625300  0.916600  0.179500  1
  H  H100  1  0.874700  0.416600  0.820500  1
  H  H101  1  0.428100  0.112500  0.879700  1
  H  H102  1  0.071900  0.612500  0.120300  1
  H  H103  1  0.571900  0.887500  0.120300  1
  H  H104  1  0.928100  0.387500  0.879700  1
  H  H105  1  0.352100  0.119300  0.874900  1
  H  H106  1  0.147900  0.619300  0.125100  1
  H  H107  1  0.647900  0.880700  0.125100  1
  H  H108  1  0.852100  0.380700  0.874900  1
  H  H109  1  0.354800  0.021900  0.976900  1
  H  H110  1  0.145200  0.521900  0.023100  1
  H  H111  1  0.645200  0.978100  0.023100  1
  H  H112  1  0.854800  0.478100  0.976900  1
  H  H113  1  0.394700  0.085700  0.978200  1
  H  H114  1  0.105300  0.585700  0.021800  1
  H  H115  1  0.605300  0.914300  0.021800  1
  H  H116  1  0.894700  0.414300  0.978200  1
  H  H117  1  0.432700  0.020200  0.992200  1
  H  H118  1  0.067300  0.520200  0.007800  1
  H  H119  1  0.567300  0.979800  0.007800  1
  H  H120  1  0.932700  0.479800  0.992200  1
  H  H121  1  0.048900  0.823800  0.741800  1
  H  H122  1  0.451100  0.323800  0.258200  1
  H  H123  1  0.951100  0.176200  0.258200  1
  H  H124  1  0.548900  0.676200  0.741800  1
  H  H125  1  0.105200  0.861100  0.792100  1
  H  H126  1  0.394800  0.361100  0.207900  1
  H  H127  1  0.894800  0.138900  0.207900  1
  H  H128  1  0.605200  0.638900  0.792100  1
  H  H129  1  0.074900  0.889400  0.722700  1
  H  H130  1  0.425100  0.389400  0.277300  1
  H  H131  1  0.925100  0.110600  0.277300  1
  H  H132  1  0.574900  0.610600  0.722700  1
  H  H133  1  0.078300  0.923200  0.857300  1
  H  H134  1  0.421700  0.423200  0.142700  1
  H  H135  1  0.921700  0.076800  0.142700  1
  H  H136  1  0.578300  0.576800  0.857300  1
  H  H137  1  0.942900  0.916300  0.700200  1
  H  H138  1  0.557100  0.416300  0.299800  1
  H  H139  1  0.057100  0.083700  0.299800  1
  H  H140  1  0.442900  0.583700  0.700200  1
  H  H141  1  0.918100  0.905300  0.761900  1
  H  H142  1  0.581900  0.405300  0.238100  1
  H  H143  1  0.081900  0.094700  0.238100  1
  H  H144  1  0.418100  0.594700  0.761900  1
  H  H145  1  0.940300  0.846900  0.727000  1
  H  H146  1  0.559700  0.346900  0.273000  1
  H  H147  1  0.059700  0.153100  0.273000  1
  H  H148  1  0.440300  0.653100  0.727000  1
  H  H149  1  0.331300  0.679700  0.304700  1
  H  H150  1  0.168700  0.179700  0.695300  1
  H  H151  1  0.668700  0.320300  0.695300  1
  H  H152  1  0.831300  0.820300  0.304700  1
  H  H153  1  0.273300  0.711700  0.251700  1
  H  H154  1  0.226700  0.211700  0.748300  1
  H  H155  1  0.726700  0.288300  0.748300  1
  H  H156  1  0.773300  0.788300  0.251700  1
  H  H157  1  0.258800  0.680100  0.312600  1
  H  H158  1  0.241200  0.180100  0.687400  1
  H  H159  1  0.741200  0.319900  0.687400  1
  H  H160  1  0.758800  0.819900  0.312600  1
  H  H161  1  0.393100  0.779800  0.321700  1
  H  H162  1  0.106900  0.279800  0.678300  1
  H  H163  1  0.606900  0.220200  0.678300  1
  H  H164  1  0.893100  0.720200  0.321700  1
  H  H165  1  0.371500  0.824900  0.370700  1
  H  H166  1  0.128500  0.324900  0.629300  1
  H  H167  1  0.628500  0.175100  0.629300  1
  H  H168  1  0.871500  0.675100  0.370700  1
  H  H169  1  0.341900  0.835200  0.296200  1
  H  H170  1  0.158100  0.335200  0.703800  1
  H  H171  1  0.658100  0.164800  0.703800  1
  H  H172  1  0.841900  0.664800  0.296200  1
  H  H173  1  0.224600  0.746900  0.351000  1
  H  H174  1  0.275400  0.246900  0.649000  1
  H  H175  1  0.775400  0.253100  0.649000  1
  H  H176  1  0.724600  0.753100  0.351000  1
  H  H177  1  0.117400  0.828800  0.632700  1
  H  H178  1  0.382600  0.328800  0.367300  1
  H  H179  1  0.882600  0.171200  0.367300  1
  H  H180  1  0.617400  0.671200  0.632700  1
  H  H181  1  0.194500  0.822800  0.642600  1
  H  H182  1  0.305500  0.322800  0.357400  1
  H  H183  1  0.805500  0.177200  0.357400  1
  H  H184  1  0.694500  0.677200  0.642600  1
  H  H185  1  0.166500  0.836300  0.701900  1
  H  H186  1  0.333500  0.336300  0.298100  1
  H  H187  1  0.833500  0.163700  0.298100  1
  H  H188  1  0.666500  0.663700  0.701900  1
  H  H189  1  0.065900  0.762100  0.684000  1
  H  H190  1  0.434100  0.262100  0.316000  1
  H  H191  1  0.934100  0.237900  0.316000  1
  H  H192  1  0.565900  0.737900  0.684000  1
  H  H193  1  0.112100  0.720400  0.738800  1
  H  H194  1  0.387900  0.220400  0.261200  1
  H  H195  1  0.887900  0.279600  0.261200  1
  H  H196  1  0.612100  0.779600  0.738800  1
  H  H197  1  0.079000  0.690100  0.670900  1
  H  H198  1  0.421000  0.190100  0.329100  1
  H  H199  1  0.921000  0.309900  0.329100  1
  H  H200  1  0.579000  0.809900  0.670900  1
  H  H201  1  0.240600  0.735900  0.665500  1
  H  H202  1  0.259400  0.235900  0.334500  1
  H  H203  1  0.759400  0.264100  0.334500  1
  H  H204  1  0.740600  0.764100  0.665500  1
  H  H205  1  0.471000  0.683100  0.605600  1
  H  H206  1  0.029000  0.183100  0.394400  1
  H  H207  1  0.529000  0.316900  0.394400  1
  H  H208  1  0.971000  0.816900  0.605600  1
  H  H209  1  0.426300  0.727000  0.635600  1
  H  H210  1  0.073700  0.227000  0.364400  1
  H  H211  1  0.573700  0.273000  0.364400  1
  H  H212  1  0.926300  0.773000  0.635600  1
  H  H213  1  0.479400  0.757600  0.605300  1
  H  H214  1  0.020600  0.257600  0.394700  1
  H  H215  1  0.520600  0.242400  0.394700  1
  H  H216  1  0.979400  0.742400  0.605300  1
  H  H217  1  0.322000  0.681400  0.489100  1
  H  H218  1  0.178000  0.181400  0.510900  1
  H  H219  1  0.678000  0.318600  0.510900  1
  H  H220  1  0.822000  0.818600  0.489100  1
  H  H221  1  0.361000  0.644600  0.551600  1
  H  H222  1  0.139000  0.144600  0.448400  1
  H  H223  1  0.639000  0.355400  0.448400  1
  H  H224  1  0.861000  0.855400  0.551600  1
  H  H225  1  0.389000  0.646300  0.491000  1
  H  H226  1  0.111000  0.146300  0.509000  1
  H  H227  1  0.611000  0.353700  0.509000  1
  H  H228  1  0.889000  0.853700  0.491000  1
  H  H229  1  0.405400  0.817800  0.530200  1
  H  H230  1  0.094600  0.317800  0.469800  1
  H  H231  1  0.594600  0.182200  0.469800  1
  H  H232  1  0.905400  0.682200  0.530200  1
  H  H233  1  0.374000  0.006200  0.515100  1
  H  H234  1  0.126000  0.506200  0.484900  1
  H  H235  1  0.626000  0.993800  0.484900  1
  H  H236  1  0.874000  0.493800  0.515100  1
  H  H237  1  0.309600  0.988600  0.474500  1
  H  H238  1  0.190400  0.488600  0.525500  1
  H  H239  1  0.690400  0.011400  0.525500  1
  H  H240  1  0.809600  0.511400  0.474500  1
  H  H241  1  0.366000  0.007000  0.516600  1
  H  H242  1  0.134000  0.507000  0.483400  1
  H  H243  1  0.634000  0.993000  0.483400  1
  H  H244  1  0.866000  0.493000  0.516600  1
  H  H245  1  0.334600  0.961100  0.469100  1
  H  H246  1  0.165400  0.461100  0.530900  1
  H  H247  1  0.665400  0.038900  0.530900  1
  H  H248  1  0.834600  0.538900  0.469100  1
  H  H249  1  0.381700  0.911100  0.471400  1
  H  H250  1  0.118300  0.411100  0.528600  1
  H  H251  1  0.618300  0.088900  0.528600  1
  H  H252  1  0.881700  0.588900  0.471400  1
  H  H253  1  0.355000  0.941900  0.402700  1
  H  H254  1  0.145000  0.441900  0.597300  1
  H  H255  1  0.645000  0.058100  0.597300  1
  H  H256  1  0.855000  0.558100  0.402700  1
  H  H257  1  0.425400  0.961200  0.447000  1
  H  H258  1  0.074600  0.461200  0.553000  1
  H  H259  1  0.574600  0.038800  0.553000  1
  H  H260  1  0.925400  0.538800  0.447000  1
  H  H261  1  0.255900  0.035300  0.476900  1
  H  H262  1  0.244100  0.535300  0.523100  1
  H  H263  1  0.744100  0.964700  0.523100  1
  H  H264  1  0.755900  0.464700  0.476900  1
  H  H265  1  0.299800  0.089700  0.459500  1
  H  H266  1  0.200200  0.589700  0.540500  1
  H  H267  1  0.700200  0.910300  0.540500  1
  H  H268  1  0.799800  0.410300  0.459500  1
  H  H269  1  0.265300  0.039200  0.407100  1
  H  H270  1  0.234700  0.539200  0.592900  1
  H  H271  1  0.734700  0.960800  0.592900  1
  H  H272  1  0.765300  0.460800  0.407100  1
  H  H273  1  0.433500  0.968000  0.474700  1
  H  H274  1  0.066500  0.468000  0.525300  1
  H  H275  1  0.566500  0.032000  0.525300  1
  H  H276  1  0.933500  0.532000  0.474700  1
  H  H277  1  0.389900  0.990800  0.406900  1
  H  H278  1  0.110100  0.490800  0.593100  1
  H  H279  1  0.610100  0.009200  0.593100  1
  H  H280  1  0.889900  0.509200  0.406900  1
  H  H281  1  0.424500  0.041300  0.459200  1
  H  H282  1  0.075500  0.541300  0.540800  1
  H  H283  1  0.575500  0.958700  0.540800  1
  H  H284  1  0.924500  0.458700  0.459200  1
  H  H285  1  0.323900  0.095200  0.463600  1
  H  H286  1  0.176100  0.595200  0.536400  1
  H  H287  1  0.676100  0.904800  0.536400  1
  H  H288  1  0.823900  0.404800  0.463600  1
  H  H289  1  0.388100  0.080500  0.441600  1
  H  H290  1  0.111900  0.580500  0.558400  1
  H  H291  1  0.611900  0.919500  0.558400  1
  H  H292  1  0.888100  0.419500  0.441600  1
  H  H293  1  0.317800  0.061200  0.397200  1
  H  H294  1  0.182200  0.561200  0.602800  1
  H  H295  1  0.682200  0.938800  0.602800  1
  H  H296  1  0.817800  0.438800  0.397200  1
  H  H297  1  0.477900  0.894200  0.132000  1
  H  H298  1  0.022100  0.394200  0.868000  1
  H  H299  1  0.522100  0.105800  0.868000  1
  H  H300  1  0.977900  0.605800  0.132000  1
  H  H301  1  0.461500  0.913200  0.058800  1
  H  H302  1  0.038500  0.413200  0.941200  1
  H  H303  1  0.538500  0.086800  0.941200  1
  H  H304  1  0.961500  0.586800  0.058800  1
  H  H305  1  0.409000  0.925400  0.097500  1
  H  H306  1  0.091000  0.425400  0.902500  1
  H  H307  1  0.591000  0.074600  0.902500  1
  H  H308  1  0.909000  0.574600  0.097500  1
  H  H309  1  0.404800  0.034000  0.084900  1
  H  H310  1  0.095200  0.534000  0.915100  1
  H  H311  1  0.595200  0.966000  0.915100  1
  H  H312  1  0.904800  0.466000  0.084900  1
  H  H313  1  0.569000  0.953200  0.167100  1
  H  H314  1  0.931000  0.453200  0.832900  1
  H  H315  1  0.431000  0.046800  0.832900  1
  H  H316  1  0.069000  0.546800  0.167100  1
  H  H317  1  0.566900  0.026900  0.153000  1
  H  H318  1  0.933100  0.526900  0.847000  1
  H  H319  1  0.433100  0.973100  0.847000  1
  H  H320  1  0.066900  0.473100  0.153000  1
  H  H321  1  0.567900  0.978000  0.098000  1
  H  H322  1  0.932100  0.478000  0.902000  1
  H  H323  1  0.432100  0.022000  0.902000  1
  H  H324  1  0.067900  0.522000  0.098000  1
  H  H325  1  0.307100  0.726200  0.292800  1
  H  H326  1  0.192900  0.226200  0.707200  1
  H  H327  1  0.692900  0.273800  0.707200  1
  H  H328  1  0.807100  0.773800  0.292800  1
  H  H329  1  0.317000  0.731900  0.361500  1
  H  H330  1  0.183000  0.231900  0.638500  1
  H  H331  1  0.683000  0.268100  0.638500  1
  H  H332  1  0.817000  0.768100  0.361500  1
  H  H333  1  0.342600  0.631800  0.339200  1
  H  H334  1  0.157400  0.131800  0.660800  1
  H  H335  1  0.657400  0.368200  0.660800  1
  H  H336  1  0.842600  0.868200  0.339200  1
  H  H337  1  0.395400  0.660200  0.307200  1
  H  H338  1  0.104600  0.160200  0.692800  1
  H  H339  1  0.604600  0.339800  0.692800  1
  H  H340  1  0.895400  0.839800  0.307200  1
  H  H341  1  0.406100  0.666400  0.382000  1
  H  H342  1  0.093900  0.166400  0.618000  1
  H  H343  1  0.593900  0.333600  0.618000  1
  H  H344  1  0.906100  0.833600  0.382000  1
  H  H345  1  0.357500  0.819600  0.325900  1
  H  H346  1  0.142500  0.319600  0.674100  1
  H  H347  1  0.642500  0.180400  0.674100  1
  H  H348  1  0.857500  0.680400  0.325900  1
  H  H349  1  0.415200  0.781800  0.373800  1
  H  H350  1  0.084800  0.281800  0.626200  1
  H  H351  1  0.584800  0.218200  0.626200  1
  H  H352  1  0.915200  0.718200  0.373800  1
  H  H353  1  0.404500  0.775600  0.299000  1
  H  H354  1  0.095500  0.275600  0.701000  1
  H  H355  1  0.595500  0.224400  0.701000  1
  H  H356  1  0.904500  0.724400  0.299000  1
  H  H357  1  0.164300  0.709500  0.628500  1
  H  H358  1  0.335700  0.209500  0.371500  1
  H  H359  1  0.835700  0.290500  0.371500  1
  H  H360  1  0.664300  0.790500  0.628500  1
  H  H361  1  0.208900  0.703000  0.692200  1
  H  H362  1  0.291100  0.203000  0.307800  1
  H  H363  1  0.791100  0.297000  0.307800  1
  H  H364  1  0.708900  0.797000  0.692200  1
  H  H365  1  0.226100  0.796300  0.651900  1
  H  H366  1  0.273900  0.296300  0.348100  1
  H  H367  1  0.773900  0.203700  0.348100  1
  H  H368  1  0.726100  0.703700  0.651900  1
  H  H369  1  0.151000  0.813400  0.643300  1
  H  H370  1  0.349000  0.313400  0.356700  1
  H  H371  1  0.849000  0.186600  0.356700  1
  H  H372  1  0.651000  0.686600  0.643300  1
  H  H373  1  0.199600  0.806300  0.712800  1
  H  H374  1  0.300400  0.306300  0.287200  1
  H  H375  1  0.800400  0.193700  0.287200  1
  H  H376  1  0.699600  0.693700  0.712800  1
  H  H377  1  0.112800  0.661100  0.690700  1
  H  H378  1  0.387200  0.161100  0.309300  1
  H  H379  1  0.887200  0.338900  0.309300  1
  H  H380  1  0.612800  0.838900  0.690700  1
  H  H381  1  0.127600  0.720200  0.737300  1
  H  H382  1  0.372400  0.220200  0.262700  1
  H  H383  1  0.872400  0.279800  0.262700  1
  H  H384  1  0.627600  0.779800  0.737300  1
  H  H385  1  0.079000  0.727300  0.667800  1
  H  H386  1  0.421000  0.227300  0.332200  1
  H  H387  1  0.921000  0.272700  0.332200  1
  H  H388  1  0.579000  0.772700  0.667800  1
  H  H389  1  0.362100  0.094800  0.218300  1.0
  H  H390  1  0.137900  0.594800  0.781700  1.0
  H  H391  1  0.637900  0.905200  0.781700  1.0
  H  H392  1  0.862100  0.405200  0.218300  1.0
  H  H393  1  0.240500  0.094400  0.784000  1.0
  H  H394  1  0.259500  0.594400  0.216000  1.0
  H  H395  1  0.759500  0.905600  0.216000  1.0
  H  H396  1  0.740500  0.405600  0.784000  1.0
  H  H397  1  0.526500  0.799200  0.784200  1.0
  H  H398  1  0.973500  0.299200  0.215800  1.0
  H  H399  1  0.473500  0.200800  0.215800  1.0
  H  H400  1  0.026500  0.700800  0.784200  1.0
  H  H401  1  0.461900  0.693500  0.908000  1.0
  H  H402  1  0.038100  0.193500  0.092000  1.0
  H  H403  1  0.538100  0.306500  0.092000  1.0
  H  H404  1  0.961900  0.806500  0.908000  1.0
  H  H405  1  0.512900  0.696500  0.090300  1.0
  H  H406  1  0.987100  0.196500  0.909700  1.0
  H  H407  1  0.487100  0.303500  0.909700  1.0
  H  H408  1  0.012900  0.803500  0.090300  1.0
  H  H409  1  0.649500  0.797700  0.216600  1.0
  H  H410  1  0.850500  0.297700  0.783400  1.0
  H  H411  1  0.350500  0.202300  0.783400  1.0
  H  H412  1  0.149500  0.702300  0.216600  1.0
  H  H413  1  0.233400  0.905800  0.777500  1.0
  H  H414  1  0.266600  0.405800  0.222500  1.0
  H  H415  1  0.766600  0.094200  0.222500  1.0
  H  H416  1  0.733400  0.594200  0.777500  1.0
  H  H417  1  0.332800  0.787700  0.768700  1.0
  H  H418  1  0.167200  0.287700  0.231300  1.0
  H  H419  1  0.667200  0.212300  0.231300  1.0
  H  H420  1  0.832800  0.712300  0.768700  1.0
  H  H421  1  0.355400  0.720600  0.857300  1.0
  H  H422  1  0.144600  0.220600  0.142700  1.0
  H  H423  1  0.644600  0.279400  0.142700  1.0
  H  H424  1  0.855400  0.779400  0.857300  1.0
  H  H425  1  0.185300  0.997500  0.918900  1.0
  H  H426  1  0.314700  0.497500  0.081100  1.0
  H  H427  1  0.814700  0.002500  0.081100  1.0
  H  H428  1  0.685300  0.502500  0.918900  1.0
  H  H429  1  0.435400  0.726600  0.139800  1.0
  H  H430  1  0.064600  0.226600  0.860200  1.0
  H  H431  1  0.564600  0.273400  0.860200  1.0
  H  H432  1  0.935400  0.773400  0.139800  1.0
  H  H433  1  0.463300  0.791100  0.229300  1.0
  H  H434  1  0.036700  0.291100  0.770700  1.0
  H  H435  1  0.536700  0.208900  0.770700  1.0
  H  H436  1  0.963300  0.708900  0.229300  1.0
  H  H437  1  0.362300  0.905100  0.220100  1.0
  H  H438  1  0.137700  0.405100  0.779900  1.0
  H  H439  1  0.637700  0.094900  0.779900  1.0
  H  H440  1  0.862300  0.594900  0.220100  1.0
  H  H441  1  0.237200  0.997900  0.077000  1.0
  H  H442  1  0.262800  0.497900  0.923000  1.0
  H  H443  1  0.762800  0.002100  0.923000  1.0
  H  H444  1  0.737200  0.502100  0.077000  1.0
  H  H445  1  0.277500  0.904400  0.126800  1.0
  H  H446  1  0.222500  0.404400  0.873200  1.0
  H  H447  1  0.722500  0.095600  0.873200  1.0
  H  H448  1  0.777500  0.595600  0.126800  1.0
  H  H449  1  0.198100  0.903700  0.868600  1.0
  H  H450  1  0.301900  0.403700  0.131400  1.0
  H  H451  1  0.801900  0.096300  0.131400  1.0
  H  H452  1  0.698100  0.596300  0.868600  1.0
  C  C453  1  0.393700  0.043500  0.447500  1
  C  C454  1  0.106300  0.543500  0.552500  1
  C  C455  1  0.606300  0.956500  0.552500  1
  C  C456  1  0.893700  0.456500  0.447500  1
  C  C457  1  0.334700  0.937900  0.448100  1
  C  C458  1  0.165300  0.437900  0.551900  1
  C  C459  1  0.665300  0.062100  0.551900  1
  C  C460  1  0.834700  0.562100  0.448100  1
  C  C461  1  0.195600  0.991600  0.250000  1
  C  C462  1  0.304400  0.491600  0.750000  1
  C  C463  1  0.804400  0.008400  0.750000  1
  C  C464  1  0.695600  0.508400  0.250000  1
  C  C465  1  0.131500  0.926300  0.164900  1
  C  C466  1  0.368500  0.426300  0.835100  1
  C  C467  1  0.868500  0.073700  0.835100  1
  C  C468  1  0.631500  0.573700  0.164900  1
  C  C469  1  0.207300  0.875100  0.246000  1
  C  C470  1  0.292700  0.375100  0.754000  1
  C  C471  1  0.792700  0.124900  0.754000  1
  C  C472  1  0.707300  0.624900  0.246000  1
  C  C473  1  0.387200  0.978700  0.871800  1
  C  C474  1  0.112800  0.478700  0.128200  1
  C  C475  1  0.612800  0.021300  0.128200  1
  C  C476  1  0.887200  0.521300  0.871800  1
  C  C477  1  0.385500  0.091900  0.866100  1
  C  C478  1  0.114500  0.591900  0.133900  1
  C  C479  1  0.614500  0.908100  0.133900  1
  C  C480  1  0.885500  0.408100  0.866100  1
  C  C481  1  0.393000  0.041000  0.967400  1
  C  C482  1  0.107000  0.541000  0.032600  1
  C  C483  1  0.607000  0.959000  0.032600  1
  C  C484  1  0.893000  0.459000  0.967400  1
  C  C485  1  0.065300  0.865500  0.757200  1
  C  C486  1  0.434700  0.365500  0.242800  1
  C  C487  1  0.934700  0.134500  0.242800  1
  C  C488  1  0.565300  0.634500  0.757200  1
  C  C489  1  0.033100  0.924200  0.835500  1
  C  C490  1  0.466900  0.424200  0.164500  1
  C  C491  1  0.966900  0.075800  0.164500  1
  C  C492  1  0.533100  0.575800  0.835500  1
  C  C493  1  0.948700  0.891000  0.738600  1
  C  C494  1  0.551300  0.391000  0.261400  1
  C  C495  1  0.051300  0.109000  0.261400  1
  C  C496  1  0.448700  0.609000  0.738600  1
  C  C497  1  0.290800  0.703800  0.297200  1
  C  C498  1  0.209200  0.203800  0.702800  1
  C  C499  1  0.709200  0.296200  0.702800  1
  C  C500  1  0.790800  0.796200  0.297200  1
  C  C501  1  0.356800  0.803800  0.329600  1
  C  C502  1  0.143200  0.303800  0.670400  1
  C  C503  1  0.643200  0.196200  0.670400  1
  C  C504  1  0.856800  0.696200  0.329600  1
  C  C505  1  0.258400  0.777200  0.357700  1
  C  C506  1  0.241600  0.277200  0.642300  1
  C  C507  1  0.741600  0.222800  0.642300  1
  C  C508  1  0.758400  0.722800  0.357700  1
  C  C509  1  0.158600  0.814200  0.661400  1
  C  C510  1  0.341400  0.314200  0.338600  1
  C  C511  1  0.841400  0.185800  0.338600  1
  C  C512  1  0.658600  0.685800  0.661400  1
  C  C513  1  0.098300  0.728300  0.693100  1
  C  C514  1  0.401700  0.228300  0.306900  1
  C  C515  1  0.901700  0.271700  0.306900  1
  C  C516  1  0.598300  0.771700  0.693100  1
  C  C517  1  0.206800  0.713700  0.676800  1
  C  C518  1  0.293200  0.213700  0.323200  1
  C  C519  1  0.793200  0.286300  0.323200  1
  C  C520  1  0.706800  0.786300  0.676800  1
  C  C521  1  0.448000  0.723000  0.601800  1
  C  C522  1  0.052000  0.223000  0.398200  1
  C  C523  1  0.552000  0.277000  0.398200  1
  C  C524  1  0.948000  0.777000  0.601800  1
  C  C525  1  0.365000  0.670200  0.516000  1
  C  C526  1  0.135000  0.170200  0.484000  1
  C  C527  1  0.635000  0.329800  0.484000  1
  C  C528  1  0.865000  0.829800  0.516000  1
  C  C529  1  0.383000  0.780900  0.512300  1
  C  C530  1  0.117000  0.280900  0.487700  1
  C  C531  1  0.617000  0.219100  0.487700  1
  C  C532  1  0.883000  0.719100  0.512300  1
  C  C533  1  0.380700  0.949400  0.446400  1
  C  C534  1  0.119300  0.449400  0.553600  1
  C  C535  1  0.619300  0.050600  0.553600  1
  C  C536  1  0.880700  0.550600  0.446400  1
  C  C537  1  0.287000  0.046000  0.452000  1
  C  C538  1  0.213000  0.546000  0.548000  1
  C  C539  1  0.713000  0.954000  0.548000  1
  C  C540  1  0.787000  0.454000  0.452000  1
  C  C541  1  0.403100  0.000200  0.452300  1
  C  C542  1  0.096900  0.500200  0.547700  1
  C  C543  1  0.596900  0.999800  0.547700  1
  C  C544  1  0.903100  0.499800  0.452300  1
  C  C545  1  0.344000  0.065000  0.441000  1
  C  C546  1  0.156000  0.565000  0.559000  1
  C  C547  1  0.656000  0.935000  0.559000  1
  C  C548  1  0.844000  0.435000  0.441000  1
  C  C549  1  0.455700  0.924800  0.100100  1
  C  C550  1  0.044300  0.424800  0.899900  1
  C  C551  1  0.544300  0.075200  0.899900  1
  C  C552  1  0.955700  0.575200  0.100100  1
  C  C553  1  0.449000  0.035700  0.109400  1
  C  C554  1  0.051000  0.535700  0.890600  1
  C  C555  1  0.551000  0.964300  0.890600  1
  C  C556  1  0.949000  0.464300  0.109400  1
  C  C557  1  0.552000  0.986000  0.135000  1
  C  C558  1  0.948000  0.486000  0.865000  1
  C  C559  1  0.448000  0.014000  0.865000  1
  C  C560  1  0.052000  0.514000  0.135000  1
  C  C561  1  0.374000  0.666100  0.341000  1
  C  C562  1  0.126000  0.166100  0.659000  1
  C  C563  1  0.626000  0.333900  0.659000  1
  C  C564  1  0.874000  0.833900  0.341000  1
  C  C565  1  0.382600  0.780500  0.332500  1
  C  C566  1  0.117400  0.280500  0.667500  1
  C  C567  1  0.617400  0.219500  0.667500  1
  C  C568  1  0.882600  0.719500  0.332500  1
  C  C569  1  0.188700  0.790400  0.669300  1
  C  C570  1  0.311300  0.290400  0.330700  1
  C  C571  1  0.811300  0.209600  0.330700  1
  C  C572  1  0.688700  0.709600  0.669300  1
  C  C573  1  0.118800  0.706700  0.693100  1
  C  C574  1  0.381200  0.206700  0.306900  1
  C  C575  1  0.881200  0.293300  0.306900  1
  C  C576  1  0.618800  0.793300  0.693100  1
  C  C577  1  0.638400  0.731200  0.112600  1.0
  C  C578  1  0.861600  0.231200  0.887400  1.0
  C  C579  1  0.361600  0.268800  0.887400  1.0
  C  C580  1  0.138400  0.768800  0.112600  1.0
  C  C581  1  0.573400  0.730700  0.887000  1.0
  C  C582  1  0.926600  0.230700  0.113000  1.0
  C  C583  1  0.426600  0.269300  0.113000  1.0
  C  C584  1  0.073400  0.769300  0.887000  1.0
  C  C585  1  0.205100  0.114800  0.889500  1.0
  C  C586  1  0.294900  0.614800  0.110500  1.0
  C  C587  1  0.794900  0.885200  0.110500  1.0
  C  C588  1  0.705100  0.385200  0.889500  1.0
  C  C589  1  0.263900  0.000700  0.713400  1.0
  C  C590  1  0.236100  0.500700  0.286600  1.0
  C  C591  1  0.736100  0.999300  0.286600  1.0
  C  C592  1  0.763900  0.499300  0.713400  1.0
  C  C593  1  0.269300  0.114500  0.111400  1.0
  C  C594  1  0.230700  0.614500  0.888600  1.0
  C  C595  1  0.730700  0.885500  0.888600  1.0
  C  C596  1  0.769300  0.385500  0.111400  1.0
  C  C597  1  0.427500  0.001300  0.286300  1.0
  C  C598  1  0.072500  0.501300  0.713700  1.0
  C  C599  1  0.572500  0.998700  0.713700  1.0
  C  C600  1  0.927500  0.498700  0.286300  1.0
  C  C601  1  0.560000  0.801200  0.231500  1.0
  C  C602  1  0.940000  0.301200  0.768500  1.0
  C  C603  1  0.440000  0.198800  0.768500  1.0
  C  C604  1  0.060000  0.698800  0.231500  1.0
  C  C605  1  0.413600  0.844800  0.712900  1.0
  C  C606  1  0.086400  0.344800  0.287100  1.0
  C  C607  1  0.586400  0.155200  0.287100  1.0
  C  C608  1  0.913600  0.655200  0.712900  1.0
  C  C609  1  0.345300  0.056000  0.199600  1.0
  C  C610  1  0.154700  0.556000  0.800400  1.0
  C  C611  1  0.654700  0.944000  0.800400  1.0
  C  C612  1  0.845300  0.444000  0.199600  1.0
  C  C613  1  0.578000  0.844900  0.287000  1.0
  C  C614  1  0.922000  0.344900  0.713000  1.0
  C  C615  1  0.422000  0.155100  0.713000  1.0
  C  C616  1  0.078000  0.655100  0.287000  1.0
  C  C617  1  0.427300  0.800200  0.767900  1.0
  C  C618  1  0.072700  0.300200  0.232100  1.0
  C  C619  1  0.572700  0.199800  0.232100  1.0
  C  C620  1  0.927300  0.699800  0.767900  1.0
  C  C621  1  0.231500  0.055600  0.801200  1.0
  C  C622  1  0.268500  0.555600  0.198800  1.0
  C  C623  1  0.768500  0.944400  0.198800  1.0
  C  C624  1  0.731500  0.444400  0.801200  1.0
  C  C625  1  0.491600  0.783800  0.799200  1.0
  C  C626  1  0.008400  0.283800  0.200800  1.0
  C  C627  1  0.508400  0.216200  0.200800  1.0
  C  C628  1  0.991600  0.716200  0.799200  1.0
  C  C629  1  0.505100  0.744800  0.852900  1.0
  C  C630  1  0.994900  0.244800  0.147100  1.0
  C  C631  1  0.494900  0.255200  0.147100  1.0
  C  C632  1  0.005100  0.755200  0.852900  1.0
  C  C633  1  0.370000  0.000400  0.227700  1.0
  C  C634  1  0.130000  0.500400  0.772300  1.0
  C  C635  1  0.630000  0.999600  0.772300  1.0
  C  C636  1  0.870000  0.499600  0.227700  1.0
  C  C637  1  0.453400  0.721100  0.872800  1.0
  C  C638  1  0.046600  0.221100  0.127200  1.0
  C  C639  1  0.546600  0.278900  0.127200  1.0
  C  C640  1  0.953400  0.778900  0.872800  1.0
  C  C641  1  0.524700  0.723900  0.125600  1.0
  C  C642  1  0.975300  0.223900  0.874400  1.0
  C  C643  1  0.475300  0.276100  0.874400  1.0
  C  C644  1  0.024700  0.776100  0.125600  1.0
  C  C645  1  0.588300  0.746000  0.146400  1.0
  C  C646  1  0.911700  0.246000  0.853600  1.0
  C  C647  1  0.411700  0.254000  0.853600  1.0
  C  C648  1  0.088300  0.754000  0.146400  1.0
  C  C649  1  0.605700  0.783900  0.200800  1.0
  C  C650  1  0.894300  0.283900  0.799200  1.0
  C  C651  1  0.394300  0.216100  0.799200  1.0
  C  C652  1  0.105700  0.716100  0.200800  1.0
  C  C653  1  0.227200  0.944100  0.797200  1.0
  C  C654  1  0.272800  0.444100  0.202800  1.0
  C  C655  1  0.772800  0.055900  0.202800  1.0
  C  C656  1  0.727200  0.555900  0.797200  1.0
  C  C657  1  0.211500  0.054600  0.856300  1.0
  C  C658  1  0.288500  0.554600  0.143700  1.0
  C  C659  1  0.788500  0.945400  0.143700  1.0
  C  C660  1  0.711500  0.445400  0.856300  1.0
  C  C661  1  0.295400  0.054900  0.143400  1.0
  C  C662  1  0.204600  0.554900  0.856600  1.0
  C  C663  1  0.704600  0.945100  0.856600  1.0
  C  C664  1  0.795400  0.445100  0.143400  1.0
  C  C665  1  0.376600  0.776700  0.789600  1.0
  C  C666  1  0.123400  0.276700  0.210400  1.0
  C  C667  1  0.623400  0.223300  0.210400  1.0
  C  C668  1  0.876600  0.723300  0.789600  1.0
  C  C669  1  0.390200  0.736700  0.842500  1.0
  C  C670  1  0.109800  0.236700  0.157500  1.0
  C  C671  1  0.609800  0.263300  0.157500  1.0
  C  C672  1  0.890200  0.763300  0.842500  1.0
  C  C673  1  0.199100  0.998300  0.881200  1.0
  C  C674  1  0.300900  0.498300  0.118800  1.0
  C  C675  1  0.800900  0.001700  0.118800  1.0
  C  C676  1  0.699100  0.501700  0.881200  1.0
  C  C677  1  0.479000  0.741100  0.155600  1.0
  C  C678  1  0.021000  0.241100  0.844400  1.0
  C  C679  1  0.521000  0.258900  0.844400  1.0
  C  C680  1  0.979000  0.758900  0.155600  1.0
  C  C681  1  0.495300  0.779600  0.208600  1.0
  C  C682  1  0.004700  0.279600  0.791400  1.0
  C  C683  1  0.504700  0.220400  0.791400  1.0
  C  C684  1  0.995300  0.720400  0.208600  1.0
  C  C685  1  0.345100  0.943500  0.200600  1.0
  C  C686  1  0.154900  0.443500  0.799400  1.0
  C  C687  1  0.654900  0.056500  0.799400  1.0
  C  C688  1  0.845100  0.556500  0.200600  1.0
  C  C689  1  0.270700  0.998400  0.115800  1.0
  C  C690  1  0.229300  0.498400  0.884200  1.0
  C  C691  1  0.729300  0.001600  0.884200  1.0
  C  C692  1  0.770700  0.501600  0.115800  1.0
  C  C693  1  0.238500  0.999600  0.771200  1.0
  C  C694  1  0.261500  0.499600  0.228800  1.0
  C  C695  1  0.761500  0.000400  0.228800  1.0
  C  C696  1  0.738500  0.500400  0.771200  1.0
  C  C697  1  0.295100  0.943200  0.144900  1.0
  C  C698  1  0.204900  0.443200  0.855100  1.0
  C  C699  1  0.704900  0.056800  0.855100  1.0
  C  C700  1  0.795100  0.556800  0.144900  1.0
  C  C701  1  0.206800  0.942700  0.851600  1.0
  C  C702  1  0.293200  0.442700  0.148400  1.0
  C  C703  1  0.793200  0.057300  0.148400  1.0
  C  C704  1  0.706800  0.557300  0.851600  1.0
  N  N705  1  0.350400  0.001000  0.474100  1
  N  N706  1  0.149600  0.501000  0.525900  1
  N  N707  1  0.649600  0.999000  0.525900  1
  N  N708  1  0.850400  0.499000  0.474100  1
  N  N709  1  0.180900  0.937000  0.224500  1
  N  N710  1  0.319100  0.437000  0.775500  1
  N  N711  1  0.819100  0.063000  0.775500  1
  N  N712  1  0.680900  0.563000  0.224500  1
  N  N713  1  0.387600  0.033900  0.899800  1
  N  N714  1  0.112400  0.533900  0.100200  1
  N  N715  1  0.612400  0.966100  0.100200  1
  N  N716  1  0.887600  0.466100  0.899800  1
  N  N717  1  0.016400  0.898100  0.779300  1
  N  N718  1  0.483600  0.398100  0.220700  1
  N  N719  1  0.983600  0.101900  0.220700  1
  N  N720  1  0.516400  0.601900  0.779300  1
  N  N721  1  0.303700  0.761800  0.329900  1
  N  N722  1  0.196300  0.261800  0.670100  1
  N  N723  1  0.696300  0.238200  0.670100  1
  N  N724  1  0.803700  0.738200  0.329900  1
  N  N725  1  0.154700  0.746600  0.671800  1
  N  N726  1  0.345300  0.246600  0.328200  1
  N  N727  1  0.845300  0.253400  0.328200  1
  N  N728  1  0.654700  0.753400  0.671800  1
  N  N729  1  0.400900  0.726900  0.540800  1
  N  N730  1  0.099100  0.226900  0.459200  1
  N  N731  1  0.599100  0.273100  0.459200  1
  N  N732  1  0.900900  0.773100  0.540800  1
  N  N733  1  0.482000  0.983800  0.117000  1
  N  N734  1  0.018000  0.483800  0.883000  1
  N  N735  1  0.518000  0.016200  0.883000  1
  N  N736  1  0.982000  0.516200  0.117000  1
  N  N737  1  0.337900  0.726800  0.330800  1
  N  N738  1  0.162100  0.226800  0.669200  1
  N  N739  1  0.662100  0.273200  0.669200  1
  N  N740  1  0.837900  0.773200  0.330800  1
  N  N741  1  0.172800  0.723600  0.669000  1
  N  N742  1  0.327200  0.223600  0.331000  1
  N  N743  1  0.827200  0.276400  0.331000  1
  N  N744  1  0.672800  0.776400  0.669000  1
  Cl  Cl745  1  0.690430  0.801950  0.999940  1
  Cl  Cl746  1  0.809570  0.301950  0.000060  1
  Cl  Cl747  1  0.309570  0.198050  0.000060  1
  Cl  Cl748  1  0.190430  0.698050  0.999940  1
  Cl  Cl749  1  0.414540  0.000040  0.701890  1
  Cl  Cl750  1  0.085460  0.500040  0.298110  1
  Cl  Cl751  1  0.585460  0.999960  0.298110  1
  Cl  Cl752  1  0.914540  0.499960  0.701890  1
  O  O753  1  0.233900  0.012600  0.297100  1
  O  O754  1  0.266100  0.512600  0.702900  1
  O  O755  1  0.766100  0.987400  0.702900  1
  O  O756  1  0.733900  0.487400  0.297100  1
  O  O757  1  0.392600  0.926500  0.899100  1
  O  O758  1  0.107400  0.426500  0.100900  1
  O  O759  1  0.607400  0.073500  0.100900  1
  O  O760  1  0.892600  0.573500  0.899100  1
  O  O761  1  0.996700  0.950200  0.864000  1
  O  O762  1  0.503300  0.450200  0.136000  1
  O  O763  1  0.003300  0.049800  0.136000  1
  O  O764  1  0.496700  0.549800  0.864000  1
  O  O765  1  0.006000  0.082000  0.717000  1
  O  O766  1  0.494000  0.582000  0.283000  1
  O  O767  1  0.994000  0.918000  0.283000  1
  O  O768  1  0.506000  0.418000  0.717000  1
  O  O769  1  0.249000  0.822000  0.390000  1
  O  O770  1  0.251000  0.322000  0.610000  1
  O  O771  1  0.751000  0.178000  0.610000  1
  O  O772  1  0.749000  0.678000  0.390000  1
  O  O773  1  0.221000  0.660400  0.693000  1
  O  O774  1  0.279000  0.160400  0.307000  1
  O  O775  1  0.779000  0.339600  0.307000  1
  O  O776  1  0.721000  0.839600  0.693000  1
  O  O777  1  0.026300  0.991600  0.001700  1
  O  O778  1  0.473700  0.491600  0.998300  1
  O  O779  1  0.973700  0.008400  0.998300  1
  O  O780  1  0.526300  0.508400  0.001700  1
  O  O781  1  0.006000  0.949000  0.007000  1
  O  O782  1  0.494000  0.449000  0.993000  1
  O  O783  1  0.994000  0.051000  0.993000  1
  O  O784  1  0.506000  0.551000  0.007000  1
  O  O785  1  0.338000  0.786000  0.463000  1
  O  O786  1  0.162000  0.286000  0.537000  1
  O  O787  1  0.662000  0.214000  0.537000  1
  O  O788  1  0.838000  0.714000  0.463000  1
  O  O789  1  0.862000  0.999000  0.467000  1
  O  O790  1  0.638000  0.499000  0.533000  1
  O  O791  1  0.138000  0.001000  0.533000  1
  O  O792  1  0.362000  0.501000  0.467000  1
  O  O793  1  0.237200  0.075400  0.419400  1
  O  O794  1  0.262800  0.575400  0.580600  1
  O  O795  1  0.762800  0.924600  0.580600  1
  O  O796  1  0.737200  0.424600  0.419400  1
  O  O797  1  0.065000  0.945000  0.130000  1
  O  O798  1  0.435000  0.445000  0.870000  1
  O  O799  1  0.935000  0.055000  0.870000  1
  O  O800  1  0.565000  0.555000  0.130000  1
  O  O801  1  0.132000  0.060000  0.177000  1
  O  O802  1  0.368000  0.560000  0.823000  1
  O  O803  1  0.868000  0.940000  0.823000  1
  O  O804  1  0.632000  0.440000  0.177000  1
  O  O805  1  0.181000  0.084000  0.238000  1
  O  O806  1  0.319000  0.584000  0.762000  1
  O  O807  1  0.819000  0.916000  0.762000  1
  O  O808  1  0.681000  0.416000  0.238000  1
  O  O809  1  0.470400  0.087300  0.131200  1
  O  O810  1  0.029600  0.587300  0.868800  1
  O  O811  1  0.529600  0.912700  0.868800  1
  O  O812  1  0.970400  0.412700  0.131200  1
  O  O813  1  0.537000  0.044000  0.124000  1
  O  O814  1  0.963000  0.544000  0.876000  1
  O  O815  1  0.463000  0.956000  0.876000  1
  O  O816  1  0.037000  0.456000  0.124000  1
  O  O817  1  0.428000  0.049000  0.030000  1
  O  O818  1  0.072000  0.549000  0.970000  1
  O  O819  1  0.572000  0.951000  0.970000  1
  O  O820  1  0.928000  0.451000  0.030000  1
  O  O821  1  0.401000  0.056000  0.859000  1
  O  O822  1  0.099000  0.556000  0.141000  1
  O  O823  1  0.599000  0.944000  0.141000  1
  O  O824  1  0.901000  0.444000  0.859000  1
  O  O825  1  0.389000  0.932000  0.846000  1
  O  O826  1  0.111000  0.432000  0.154000  1
  O  O827  1  0.611000  0.068000  0.154000  1
  O  O828  1  0.889000  0.568000  0.846000  1
  O  O829  1  0.335000  0.883000  0.969000  1
  O  O830  1  0.165000  0.383000  0.031000  1
  O  O831  1  0.665000  0.117000  0.031000  1
  O  O832  1  0.835000  0.617000  0.969000  1
  O  O833  1  0.376300  0.844500  0.978400  1
  O  O834  1  0.123700  0.344500  0.021600  1
  O  O835  1  0.623700  0.155500  0.021600  1
  O  O836  1  0.876300  0.655500  0.978400  1
  O  O837  1  0.355900  0.872000  0.018300  1
  O  O838  1  0.144100  0.372000  0.981700  1
  O  O839  1  0.644100  0.128000  0.981700  1
  O  O840  1  0.855900  0.628000  0.018300  1
  O  O841  1  0.443300  0.818900  0.000400  1
  O  O842  1  0.056700  0.318900  0.999600  1
  O  O843  1  0.556700  0.181100  0.999600  1
  O  O844  1  0.943300  0.681100  0.000400  1
  O  O845  1  0.320000  0.936000  0.998000  1
  O  O846  1  0.180000  0.436000  0.002000  1
  O  O847  1  0.680000  0.064000  0.002000  1
  O  O848  1  0.820000  0.564000  0.998000  1
  O  O849  1  0.392000  0.841800  0.026300  1
  O  O850  1  0.108000  0.341800  0.973700  1
  O  O851  1  0.608000  0.158200  0.973700  1
  O  O852  1  0.892000  0.658200  0.026300  1
  O  O853  1  0.032000  0.081000  0.809000  1
  O  O854  1  0.468000  0.581000  0.191000  1
  O  O855  1  0.968000  0.919000  0.191000  1
  O  O856  1  0.532000  0.419000  0.809000  1
  O  O857  1  0.070000  0.140000  0.750000  1
  O  O858  1  0.430000  0.640000  0.250000  1
  O  O859  1  0.930000  0.860000  0.250000  1
  O  O860  1  0.570000  0.360000  0.750000  1
  O  O861  1  0.053000  0.031000  0.707000  1
  O  O862  1  0.447000  0.531000  0.293000  1
  O  O863  1  0.947000  0.969000  0.293000  1
  O  O864  1  0.553000  0.469000  0.707000  1
  O  O865  1  0.006000  0.026000  0.834000  1
  O  O866  1  0.494000  0.526000  0.166000  1
  O  O867  1  0.994000  0.974000  0.166000  1
  O  O868  1  0.506000  0.474000  0.834000  1
  O  O869  1  0.044000  0.090000  0.757000  1
  O  O870  1  0.456000  0.590000  0.243000  1
  O  O871  1  0.956000  0.910000  0.243000  1
  O  O872  1  0.544000  0.410000  0.757000  1
  O  O873  1  0.052000  0.004000  0.758000  1
  O  O874  1  0.448000  0.504000  0.242000  1
  O  O875  1  0.948000  0.996000  0.242000  1
  O  O876  1  0.552000  0.496000  0.758000  1
  O  O877  1  0.452000  0.651000  0.426000  1
  O  O878  1  0.048000  0.151000  0.574000  1
  O  O879  1  0.548000  0.349000  0.574000  1
  O  O880  1  0.952000  0.849000  0.426000  1
  O  O881  1  0.069000  0.027000  0.001000  1
  O  O882  1  0.431000  0.527000  0.999000  1
  O  O883  1  0.931000  0.973000  0.999000  1
  O  O884  1  0.569000  0.473000  0.001000  1
  O  O885  1  0.022000  0.936000  0.042000  1
  O  O886  1  0.478000  0.436000  0.958000  1
  O  O887  1  0.978000  0.064000  0.958000  1
  O  O888  1  0.522000  0.564000  0.042000  1
  O  O889  1  0.007000  0.940000  0.962000  1
  O  O890  1  0.493000  0.440000  0.038000  1
  O  O891  1  0.993000  0.060000  0.038000  1
  O  O892  1  0.507000  0.560000  0.962000  1
  O  O893  1  0.045000  0.015000  0.946000  1
  O  O894  1  0.455000  0.515000  0.054000  1
  O  O895  1  0.955000  0.985000  0.054000  1
  O  O896  1  0.545000  0.485000  0.946000  1
  O  O897  1  0.080000  0.025000  0.045000  1
  O  O898  1  0.420000  0.525000  0.955000  1
  O  O899  1  0.920000  0.975000  0.955000  1
  O  O900  1  0.580000  0.475000  0.045000  1
  O  O901  1  0.400000  0.742000  0.594000  1
  O  O902  1  0.100000  0.242000  0.406000  1
  O  O903  1  0.600000  0.258000  0.406000  1
  O  O904  1  0.900000  0.758000  0.594000  1
  O  O905  1  0.331000  0.724000  0.578000  1
  O  O906  1  0.169000  0.224000  0.422000  1
  O  O907  1  0.669000  0.276000  0.422000  1
  O  O908  1  0.831000  0.776000  0.578000  1
  O  O909  1  0.355000  0.762000  0.538000  1
  O  O910  1  0.145000  0.262000  0.462000  1
  O  O911  1  0.645000  0.238000  0.462000  1
  O  O912  1  0.855000  0.738000  0.538000  1
  O  O913  1  0.369000  0.723000  0.550000  1
  O  O914  1  0.131000  0.223000  0.450000  1
  O  O915  1  0.631000  0.277000  0.450000  1
  O  O916  1  0.869000  0.777000  0.550000  1
  O  O917  1  0.435000  0.264000  0.594000  1
  O  O918  1  0.065000  0.764000  0.406000  1
  O  O919  1  0.565000  0.736000  0.406000  1
  O  O920  1  0.935000  0.236000  0.594000  1
  O  O921  1  0.371000  0.222000  0.525000  1
  O  O922  1  0.129000  0.722000  0.475000  1
  O  O923  1  0.629000  0.778000  0.475000  1
  O  O924  1  0.871000  0.278000  0.525000  1
  O  O925  1  0.400000  0.264000  0.539000  1
  O  O926  1  0.100000  0.764000  0.461000  1
  O  O927  1  0.600000  0.736000  0.461000  1
  O  O928  1  0.900000  0.236000  0.539000  1
  O  O929  1  0.417000  0.219000  0.488000  1
  O  O930  1  0.083000  0.719000  0.512000  1
  O  O931  1  0.583000  0.781000  0.512000  1
  O  O932  1  0.917000  0.281000  0.488000  1
  O  O933  1  0.391000  0.256000  0.587000  1
  O  O934  1  0.109000  0.756000  0.413000  1
  O  O935  1  0.609000  0.744000  0.413000  1
  O  O936  1  0.891000  0.244000  0.587000  1
  O  O937  1  0.338000  0.202000  0.465000  1
  O  O938  1  0.162000  0.702000  0.535000  1
  O  O939  1  0.662000  0.798000  0.535000  1
  O  O940  1  0.838000  0.298000  0.465000  1
  O  O941  1  0.343000  0.275000  0.550000  1
  O  O942  1  0.157000  0.775000  0.450000  1
  O  O943  1  0.657000  0.725000  0.450000  1
  O  O944  1  0.843000  0.225000  0.550000  1
  O  O945  1  0.844000  0.998000  0.492000  1
  O  O946  1  0.656000  0.498000  0.508000  1
  O  O947  1  0.156000  0.002000  0.508000  1
  O  O948  1  0.344000  0.502000  0.492000  1
  O  O949  1  0.874000  0.001300  0.425000  1
  O  O950  1  0.626000  0.501300  0.575000  1
  O  O951  1  0.126000  0.998700  0.575000  1
  O  O952  1  0.374000  0.498700  0.425000  1
  O  O953  1  0.573000  0.615000  0.277000  1
  O  O954  1  0.927000  0.115000  0.723000  1
  O  O955  1  0.427000  0.385000  0.723000  1
  O  O956  1  0.073000  0.885000  0.277000  1
  O  O957  1  0.531000  0.652000  0.584000  1
  O  O958  1  0.969000  0.152000  0.416000  1
  O  O959  1  0.469000  0.348000  0.416000  1
  O  O960  1  0.031000  0.848000  0.584000  1
  O  O961  1  0.515000  0.622000  0.589000  1
  O  O962  1  0.985000  0.122000  0.411000  1
  O  O963  1  0.485000  0.378000  0.411000  1
  O  O964  1  0.015000  0.878000  0.589000  1
  O  O965  1  0.241000  0.931000  0.429000  1
  O  O966  1  0.259000  0.431000  0.571000  1
  O  O967  1  0.759000  0.069000  0.571000  1
  O  O968  1  0.741000  0.569000  0.429000  1
  O  O969  1  0.619300  0.699000  0.062100  1.0
  O  O970  1  0.880700  0.199000  0.937900  1.0
  O  O971  1  0.380700  0.301000  0.937900  1.0
  O  O972  1  0.119300  0.801000  0.062100  1.0
  O  O973  1  0.219300  0.164300  0.864200  1.0
  O  O974  1  0.280700  0.664300  0.135800  1.0
  O  O975  1  0.780700  0.835700  0.135800  1.0
  O  O976  1  0.719300  0.335700  0.864200  1.0
  O  O977  1  0.187400  0.110700  0.939100  1.0
  O  O978  1  0.312600  0.610700  0.060900  1.0
  O  O979  1  0.812600  0.889300  0.060900  1.0
  O  O980  1  0.687400  0.389300  0.939100  1.0
  O  O981  1  0.271900  0.947700  0.690800  1.0
  O  O982  1  0.228100  0.447700  0.309200  1.0
  O  O983  1  0.728100  0.052300  0.309200  1.0
  O  O984  1  0.771900  0.552300  0.690800  1.0
  O  O985  1  0.165200  0.234200  0.936600  1.0
  O  O986  1  0.334800  0.734200  0.063400  1.0
  O  O987  1  0.834800  0.765800  0.063400  1.0
  O  O988  1  0.665200  0.265800  0.936600  1.0
  O  O989  1  0.296500  0.164100  0.136900  1.0
  O  O990  1  0.203500  0.664100  0.863100  1.0
  O  O991  1  0.703500  0.835900  0.863100  1.0
  O  O992  1  0.796500  0.335900  0.136900  1.0
  O  O993  1  0.448200  0.948400  0.309400  1.0
  O  O994  1  0.051800  0.448400  0.690600  1.0
  O  O995  1  0.551800  0.051600  0.690600  1.0
  O  O996  1  0.948200  0.551600  0.309400  1.0
  O  O997  1  0.583700  0.699100  0.938100  1.0
  O  O998  1  0.916300  0.199100  0.061900  1.0
  O  O999  1  0.416300  0.300900  0.061900  1.0
  O  O1000  1  0.083700  0.800900  0.938100  1.0
  O  O1001  1  0.636400  0.861300  0.305700  1.0
  O  O1002  1  0.863600  0.361300  0.694300  1.0
  O  O1003  1  0.363600  0.138700  0.694300  1.0
  O  O1004  1  0.136400  0.638700  0.305700  1.0
  O  O1005  1  0.222100  0.111100  0.061500  1.0
  O  O1006  1  0.277900  0.611100  0.938500  1.0
  O  O1007  1  0.777900  0.888900  0.938500  1.0
  O  O1008  1  0.722100  0.388900  0.061500  1.0
  O  O1009  1  0.462500  0.861900  0.695200  1.0
  O  O1010  1  0.037500  0.361900  0.304800  1.0
  O  O1011  1  0.537500  0.138100  0.304800  1.0
  O  O1012  1  0.962500  0.638100  0.695200  1.0
  O  O1013  1  0.293900  0.323000  0.065000  1.0
  O  O1014  1  0.206100  0.823000  0.935000  1.0
  O  O1015  1  0.706100  0.677000  0.935000  1.0
  O  O1016  1  0.793900  0.177000  0.065000  1.0
  O  O1017  1  0.531600  0.861700  0.309100  1.0
  O  O1018  1  0.968400  0.361700  0.690900  1.0
  O  O1019  1  0.468400  0.138300  0.690900  1.0
  O  O1020  1  0.031600  0.638300  0.309100  1.0
  O  O1021  1  0.355700  0.861300  0.690600  1.0
  O  O1022  1  0.144300  0.361300  0.309400  1.0
  O  O1023  1  0.644300  0.138700  0.309400  1.0
  O  O1024  1  0.855700  0.638700  0.690600  1.0
  O  O1025  1  0.616900  0.751600  0.862800  1.0
  O  O1026  1  0.883100  0.251600  0.137200  1.0
  O  O1027  1  0.383100  0.248400  0.137200  1.0
  O  O1028  1  0.116900  0.748400  0.862800  1.0
  O  O1029  1  0.742300  0.676900  0.063500  1.0
  O  O1030  1  0.757700  0.176900  0.936500  1.0
  O  O1031  1  0.257700  0.323100  0.936500  1.0
  O  O1032  1  0.242300  0.823100  0.063500  1.0
  O  O1033  1  0.694900  0.751100  0.136700  1.0
  O  O1034  1  0.805100  0.251100  0.863300  1.0
  O  O1035  1  0.305100  0.248900  0.863300  1.0
  O  O1036  1  0.194900  0.748900  0.136700  1.0
  O  O1037  1  0.276100  0.054100  0.694300  1.0
  O  O1038  1  0.223900  0.554100  0.305700  1.0
  O  O1039  1  0.723900  0.945900  0.305700  1.0
  O  O1040  1  0.776100  0.445900  0.694300  1.0
  O  O1041  1  0.473500  0.997900  0.588800  1.0
  O  O1042  1  0.026500  0.497900  0.411200  1.0
  O  O1043  1  0.526500  0.002100  0.411200  1.0
  O  O1044  1  0.973500  0.502100  0.588800  1.0
  O  O1045  1  0.202100  0.233900  0.064800  1.0
  O  O1046  1  0.297900  0.733900  0.935200  1.0
  O  O1047  1  0.797900  0.766100  0.935200  1.0
  O  O1048  1  0.702100  0.266100  0.064800  1.0
  O  O1049  1  0.450200  0.053800  0.306200  1.0
  O  O1050  1  0.049800  0.553800  0.693800  1.0
  O  O1051  1  0.549800  0.946200  0.693800  1.0
  O  O1052  1  0.950200  0.446200  0.306200  1.0
  O  O1053  1  0.273200  0.284800  0.173000  1.0
  O  O1054  1  0.226800  0.784800  0.827000  1.0
  O  O1055  1  0.726800  0.715200  0.827000  1.0
  O  O1056  1  0.773200  0.215200  0.173000  1.0
  O  O1057  1  0.382200  0.908900  0.588700  1.0
  O  O1058  1  0.117800  0.408900  0.411300  1.0
  O  O1059  1  0.617800  0.091100  0.411300  1.0
  O  O1060  1  0.882200  0.591100  0.588700  1.0
  O  O1061  1  0.615800  0.908900  0.411800  1.0
  O  O1062  1  0.884200  0.408900  0.588200  1.0
  O  O1063  1  0.384200  0.091100  0.588200  1.0
  O  O1064  1  0.115800  0.591100  0.411800  1.0
  O  O1065  1  0.707100  0.998600  0.411800  1.0
  O  O1066  1  0.792900  0.498600  0.588200  1.0
  O  O1067  1  0.292900  0.001400  0.588200  1.0
  O  O1068  1  0.207100  0.501400  0.411800  1.0
  O  O1069  1  0.502600  0.876000  0.585900  1.0
  O  O1070  1  0.997400  0.376000  0.414100  1.0
  O  O1071  1  0.497400  0.124000  0.414100  1.0
  O  O1072  1  0.002600  0.624000  0.585900  1.0
  O  O1073  1  0.101900  0.164000  0.000700  1.0
  O  O1074  1  0.398100  0.664000  0.999300  1.0
  O  O1075  1  0.898100  0.836000  0.999300  1.0
  O  O1076  1  0.601900  0.336000  0.000700  1.0
  O  O1077  1  0.257000  0.880400  0.579500  1.0
  O  O1078  1  0.243000  0.380400  0.420500  1.0
  O  O1079  1  0.743000  0.119600  0.420500  1.0
  O  O1080  1  0.757000  0.619600  0.579500  1.0
  O  O1081  1  0.652300  0.596100  0.999500  1.0
  O  O1082  1  0.847700  0.096100  0.000500  1.0
  O  O1083  1  0.347700  0.403900  0.000500  1.0
  O  O1084  1  0.152300  0.903900  0.999500  1.0
  O  O1085  1  0.738000  0.876600  0.414700  1.0
  O  O1086  1  0.762000  0.376600  0.585300  1.0
  O  O1087  1  0.262000  0.123400  0.585300  1.0
  O  O1088  1  0.238000  0.623400  0.414700  1.0
  O  O1089  1  0.824400  0.715100  0.171600  1.0
  O  O1090  1  0.675600  0.215100  0.828400  1.0
  O  O1091  1  0.175600  0.284900  0.828400  1.0
  O  O1092  1  0.324400  0.784900  0.171600  1.0
  O  O1093  1  0.504400  0.119200  0.579800  1.0
  O  O1094  1  0.995600  0.619200  0.420200  1.0
  O  O1095  1  0.495600  0.880800  0.420200  1.0
  O  O1096  1  0.004400  0.380800  0.579800  1.0
