
#######################################################################
#
#                 Cambridge Crystallographic Data Centre
#                                CCDC 
#
#######################################################################
#
# If this CIF has been generated from an entry in the Cambridge 
# Structural Database, then it will include bibliographic, chemical, 
# crystal, experimental, refinement or atomic coordinate data resulting 
# from the CCDC's data processing and validation procedures.
#
#######################################################################

data_TUCROA
_chemical_formula_moiety         
'C64 H24 Br8 O64 V16,10.5(C3 H7 N1 O1),4(C2 H8 N1 1+),4(Cl1 1-),9.75(H2 O1)'
_chemical_name_systematic        
'tetrakis(dimethylammonium) tetrachloride octakis(\m-5-bromoisophthalato)-hexadecakis(\m-oxo)-hexadecaoxo-hexadeca-vanadium N,N-dimethylformamide solvate hydrate'
_symmetry_cell_setting           triclinic
_symmetry_space_group_name_H-M   'P -1'
_symmetry_Int_Tables_number      2
_space_group_name_Hall           '-P 1'
loop_
_symmetry_equiv_pos_site_id
_symmetry_equiv_pos_as_xyz
1 x,y,z
2 -x,-y,-z
_cell_length_a                   15.1975(5)
_cell_length_b                   19.1532(6)
_cell_length_c                   19.3115(6)
_cell_angle_alpha                103.8173(18)
_cell_angle_beta                 95.3294(16)
_cell_angle_gamma                98.3478(17)
_cell_volume                     5352.9
_exptl_crystal_colour            'dark green'
_exptl_crystal_description       block
_cell_formula_units_Z            1
loop_
_atom_site_label
_atom_site_type_symbol
_atom_site_fract_x
_atom_site_fract_y
_atom_site_fract_z
Br1 Br 0.92800(9) 0.38089(7) 0.49445(7)
V1 V 0.91616(12) 0.71527(10) 0.38298(9)
V2 V 0.20988(12) 0.35418(11) 0.77161(9)
V3 V 0.20558(13) 0.15739(10) 0.57795(10)
V4 V 0.33721(13) 0.23144(10) 0.72931(9)
V5 V 0.58126(14) 0.23410(11) 0.10969(9)
V6 V 0.40438(15) 0.08563(10) 0.21640(10)
Br2 Br 0.76359(11) 0.25774(12) 0.59069(8)
V7 V 0.36595(15) 0.18507(11) 0.10547(9)
V8 V 0.61957(15) 0.13156(10) 0.21736(10)
Br3 Br 0.96380(15) 0.62892(13) 0.72745(10)
Br4 Br 0.76584(12) 0.46791(11) 0.80431(17)
O1 O 0.3377(5) 0.4119(4) 0.7940(3)
O2 O 0.8030(5) 0.5586(4) 0.2690(3)
O3 O 0.4670(5) 0.6696(4) 0.8721(3)
O4 O 0.8881(5) 0.6054(4) 0.3764(3)
O5 O 1.0225(5) 0.7248(4) 0.3964(4)
O6 O 0.4267(5) 0.3271(4) 0.7644(3)
O7 O 0.8928(5) 0.7179(4) 0.4862(4)
O8 O 0.8098(5) 0.8073(4) 0.5133(3)
C1 C 0.8446(7) 0.5547(6) 0.3274(5)
O9 O 0.4235(5) 0.2165(4) 0.6546(3)
O10 O 0.6164(5) 0.7042(4) 0.8757(3)
O11 O 0.4542(5) 0.1164(4) 0.3232(4)
O12 O 0.6745(5) 0.3013(4) 0.1908(3)
O13 O 0.3320(5) 0.1644(4) 0.5497(4)
O14 O 0.7154(5) 0.7867(4) 0.8176(4)
C2 C 0.8800(7) 0.4673(6) 0.4003(5)
H1 H 0.9185 0.5065 0.4342
O15 O 0.7023(5) 0.2280(4) 0.2641(4)
O16 O 0.6867(5) 0.8544(4) 0.7397(4)
C3 C 0.4127(7) 0.3919(6) 0.7872(5)
O17 O 0.5146(6) 0.0679(4) 0.1968(4)
O18 O 0.1770(5) 0.3833(5) 0.8479(4)
O19 O 0.4689(6) 0.1885(4) 0.0666(4)
O20 O 0.6043(6) 0.1468(4) 0.3228(4)
O21 O 0.3645(6) 0.0999(4) 0.1301(4)
C4 C 0.4077(7) 0.1905(5) 0.5873(6)
O22 O 0.3815(6) 0.1889(4) 0.7814(4)
C5 C 0.8509(7) 0.7574(6) 0.5269(6)
C6 C 0.8348(7) 0.4790(6) 0.3395(5)
O23 O 0.2584(5) 0.2756(4) 0.7815(3)
O24 O 0.1040(5) 0.1917(4) 0.6003(4)
O25 O 0.2557(5) 0.1593(4) 0.6674(4)
C7 C 0.5728(9) 0.2177(6) 0.5824(6)
H2 H 0.5826 0.2355 0.6333
C8 C 0.4922(7) 0.4503(6) 0.8065(5)
C9 C 0.7721(7) 0.3509(6) 0.2995(5)
C10 C 0.8163(7) 0.3399(6) 0.3620(6)
H3 H 0.8102 0.2926 0.3702
O26 O 0.1072(5) 0.3081(4) 0.7150(4)
C11 C 0.8682(7) 0.3980(6) 0.4108(5)
C12 C 0.5482(8) 0.1660(5) 0.4350(6)
O27 O 0.6336(6) 0.2439(4) 0.0431(4)
C13 C 0.7866(8) 0.7716(6) 0.7141(6)
C14 C 0.5777(8) 0.4343(7) 0.8000(7)
H4 H 0.5862 0.3850 0.7849
O28 O 0.6937(6) 0.0799(4) 0.2143(4)
O29 O 0.6191(6) 0.1563(4) 0.1329(4)
C15 C 0.4865(7) 0.1900(5) 0.5478(5)
C16 C 0.4820(8) 0.5236(6) 0.8300(5)
H5 H 0.4240 0.5354 0.8357
C17 C 0.5342(9) 0.1409(5) 0.3527(6)
C18 C 0.6415(8) 0.5625(7) 0.8376(7)
H6 H 0.6924 0.6003 0.8475
C19 C 0.5559(8) 0.5783(6) 0.8447(5)
O30 O 0.1704(6) 0.0721(4) 0.5422(4)
C20 C 0.9012(9) 0.7028(7) 0.6261(7)
H7 H 0.9412 0.6802 0.5967
C21 C 0.7115(7) 0.2878(6) 0.2462(5)
C22 C 0.7816(7) 0.4202(6) 0.2885(5)
H8 H 0.7518 0.4278 0.2462
C23 C 0.6340(8) 0.1947(6) 0.4692(6)
H9 H 0.6836 0.1972 0.4428
C24 C 0.4728(8) 0.1636(5) 0.4719(5)
H10 H 0.4143 0.1447 0.4467
O31 O 0.3508(6) 0.0061(4) 0.2143(4)
C25 C 0.8388(9) 0.7253(8) 0.7381(7)
H11 H 0.8356 0.7169 0.7844
C26 C 0.8475(8) 0.7476(6) 0.6014(6)
C27 C 0.5461(9) 0.6578(7) 0.8661(5)
C28 C 0.7256(7) 0.8072(6) 0.7615(6)
C29 C 0.7934(7) 0.7827(6) 0.6461(5)
H12 H 0.7598 0.8153 0.6301
C30 C 0.6452(8) 0.2198(7) 0.5438(6)
C31 C 0.8953(10) 0.6919(8) 0.6933(7)
C32 C 0.6501(8) 0.4904(7) 0.8158(8)
O32 O 0.2901(6) 0.1644(5) 0.0368(4)
Br1A Br 0.07200(9) 0.61911(7) 0.50555(7)
V1A V 0.08384(12) 0.28473(10) 0.61702(9)
V2A V 0.79012(12) 0.64582(11) 0.22839(9)
V3A V 0.79442(13) 0.84261(10) 0.42205(10)
V4A V 0.66279(13) 0.76856(10) 0.27069(9)
V5A V 0.41874(14) 0.76590(11) 0.89031(9)
V6A V 0.59562(15) 0.91437(10) 0.78360(10)
Br2A Br 0.23641(11) 0.74226(12) 0.40931(8)
V7A V 0.63405(15) 0.81493(11) 0.89453(9)
V8A V 0.38043(15) 0.86844(10) 0.78264(10)
Br3A Br 0.03620(15) 0.37108(13) 0.27255(10)
Br4A Br 0.23416(12) 0.53209(11) 0.19569(17)
O1A O 0.6623(5) 0.5881(4) 0.2060(3)
O2A O 0.1970(5) 0.4414(4) 0.7310(3)
O3A O 0.5330(5) 0.3304(4) 0.1279(3)
O4A O 0.1119(5) 0.3946(4) 0.6236(3)
O5A O -0.0225(5) 0.2752(4) 0.6036(4)
O6A O 0.5733(5) 0.6729(4) 0.2356(3)
O7A O 0.1072(5) 0.2821(4) 0.5138(4)
O8A O 0.1902(5) 0.1927(4) 0.4867(3)
C1A C 0.1554(7) 0.4453(6) 0.6726(5)
O9A O 0.5765(5) 0.7835(4) 0.3454(3)
O10A O 0.3836(5) 0.2958(4) 0.1243(3)
O11A O 0.5458(5) 0.8836(4) 0.6768(4)
O12A O 0.3255(5) 0.6987(4) 0.8092(3)
O13A O 0.6680(5) 0.8356(4) 0.4503(4)
O14A O 0.2846(5) 0.2133(4) 0.1824(4)
C2A C 0.1200(7) 0.5327(6) 0.5997(5)
H1A H 0.0815 0.4935 0.5658
O15A O 0.2977(5) 0.7720(4) 0.7359(4)
O16A O 0.3133(5) 0.1456(4) 0.2603(4)
C3A C 0.5873(7) 0.6081(6) 0.2128(5)
O17A O 0.4854(6) 0.9321(4) 0.8032(4)
O18A O 0.8230(5) 0.6167(5) 0.1521(4)
O19A O 0.5311(6) 0.8115(4) 0.9334(4)
O20A O 0.3957(6) 0.8532(4) 0.6772(4)
O21A O 0.6355(6) 0.9001(4) 0.8699(4)
C4A C 0.5923(7) 0.8095(5) 0.4127(6)
O22A O 0.6185(6) 0.8111(4) 0.2186(4)
C5A C 0.1491(7) 0.2426(6) 0.4731(6)
C6A C 0.1652(7) 0.5210(6) 0.6605(5)
O23A O 0.7416(5) 0.7244(4) 0.2185(3)
O24A O 0.8960(5) 0.8083(4) 0.3997(4)
O25A O 0.7443(5) 0.8407(4) 0.3326(4)
C7A C 0.4272(9) 0.7823(6) 0.4176(6)
H2A H 0.4174 0.7645 0.3667
C8A C 0.5078(7) 0.5497(6) 0.1935(5)
C9A C 0.2279(7) 0.6491(6) 0.7005(5)
C10A C 0.1837(7) 0.6601(6) 0.6380(6)
H3A H 0.1898 0.7074 0.6298
O26A O 0.8928(5) 0.6919(4) 0.2850(4)
C11A C 0.1318(7) 0.6020(6) 0.5892(5)
C12A C 0.4518(8) 0.8340(5) 0.5650(6)
O27A O 0.3664(6) 0.7561(4) 0.9569(4)
C13A C 0.2134(8) 0.2284(6) 0.2859(6)
C14A C 0.4223(8) 0.5657(7) 0.2000(7)
H4A H 0.4138 0.6150 0.2151
O28A O 0.3063(6) 0.9201(4) 0.7857(4)
O29A O 0.3809(6) 0.8437(4) 0.8671(4)
C15A C 0.5135(7) 0.8100(5) 0.4522(5)
C16A C 0.5180(8) 0.4764(6) 0.1700(5)
H5A H 0.5760 0.4646 0.1643
C17A C 0.4658(9) 0.8591(5) 0.6473(6)
C18A C 0.3585(8) 0.4375(7) 0.1624(7)
H6A H 0.3076 0.3997 0.1525
C19A C 0.4441(8) 0.4217(6) 0.1553(5)
O30A O 0.8296(6) 0.9279(4) 0.4578(4)
C20A C 0.0988(9) 0.2972(7) 0.3739(7)
H7A H 0.0588 0.3198 0.4033
C21A C 0.2885(7) 0.7122(6) 0.7538(5)
C22A C 0.2184(7) 0.5798(6) 0.7115(5)
H8A H 0.2482 0.5722 0.7538
C23A C 0.3660(8) 0.8053(6) 0.5308(6)
H9A H 0.3164 0.8028 0.5572
C24A C 0.5272(8) 0.8364(5) 0.5281(5)
H10A H 0.5857 0.8553 0.5533
O31A O 0.6492(6) 0.9939(4) 0.7857(4)
C25A C 0.1612(9) 0.2747(8) 0.2619(7)
H11A H 0.1644 0.2831 0.2156
C26A C 0.1525(8) 0.2524(6) 0.3986(6)
C27A C 0.4539(9) 0.3422(7) 0.1339(5)
C28A C 0.2744(7) 0.1928(6) 0.2385(6)
C29A C 0.2066(7) 0.2173(6) 0.3539(5)
H12A H 0.2402 0.1847 0.3699
C30A C 0.3548(8) 0.7802(7) 0.4562(6)
C31A C 0.1047(10) 0.3081(8) 0.3067(7)
C32A C 0.3499(8) 0.5096(7) 0.1842(8)
O32A O 0.7099(6) 0.8356(5) 0.9632(4)
Cl1 Cl 0.27397(17) 0.31108(13) 0.63483(12)
Cl2 Cl 0.49367(19) 0.23011(14) 0.23228(12)
N1 N 0.5922(15) 0.6458(10) 1.0395(7)
C33 C 0.6100(19) 0.5718(12) 1.0258(9)
H13 H 0.6704 0.5709 1.0120
H14 H 0.5658 0.5401 0.9867
H15 H 0.6061 0.5545 1.0694
C34 C 0.657(2) 0.7116(15) 1.0507(11)
H16 H 0.6677 0.7368 1.1021
H17 H 0.6335 0.7436 1.0234
H18 H 0.7130 0.6993 1.0344
C35 C 0.516(3) 0.671(2) 1.0479(15)
H19 H 0.5098 0.7204 1.0633
O33 O 0.444(2) 0.606(2) 1.0285(15)
N2 N 0.3994(12) 0.0152(7) 0.6232(8)
C36 C 0.4788(16) 0.0489(9) 0.6723(13)
H20 H 0.4851 0.1021 0.6810
H21 H 0.5322 0.0329 0.6534
H22 H 0.4723 0.0352 0.7175
C37 C 0.3154(16) -0.0021(13) 0.6509(15)
H23 H 0.3142 -0.0475 0.6659
H24 H 0.2651 -0.0080 0.6131
H25 H 0.3103 0.0377 0.6922
O34 O 0.3665(19) -0.0232(10) 0.4994(10)
C38 C 0.4085(17) 0.0027(8) 0.5566(9)
H26 H 0.4688 0.0198 0.5514
C39 C 0.2592(13) 0.5722(10) 0.9061(10)
H27 H 0.2740 0.5240 0.8858
H28 H 0.3115 0.6099 0.9092
H29 H 0.2089 0.5802 0.8750
C40 C 0.174(3) 0.514(2) 0.989(2)
H30 H 0.1831 0.5113 1.0387
H31 H 0.1830 0.4685 0.9566
H32 H 0.1133 0.5228 0.9768
N3 N 0.234(2) 0.5757(17) 0.9770(14)
H33 H 0.2083 0.6160 0.9900
H34 H 0.2857 0.5832 1.0079
N4 N 1.0600(12) 0.8820(9) 0.6064(11)
C41 C 1.1010(17) 0.8396(13) 0.5530(14)
H35 H 1.0712 0.7886 0.5416
H36 H 1.1645 0.8432 0.5706
H37 H 1.0959 0.8577 0.5096
C42 C 1.0046(18) 0.9245(13) 0.5910(16)
H38 H 0.9933 0.9296 0.5434
O35 O 0.966(2) 0.9588(18) 0.642(2)
C43 C 1.083(3) 0.8752(19) 0.6796(14)
H39 H 1.0844 0.8240 0.6786
H40 H 1.0377 0.8927 0.7092
H41 H 1.1420 0.9048 0.7000
C44 C 0.7523(13) 0.9689(10) 0.6250(11)
H42 H 0.7639 0.9367 0.5804
H43 H 0.6880 0.9602 0.6288
H44 H 0.7859 0.9588 0.6663
N5 N 0.7808(19) 1.0454(13) 0.6243(16)
H45 H 0.8409 1.0587 0.6389
H46 H 0.7697 1.0502 0.5787
C45 C 0.732(3) 1.093(2) 0.672(3)
H47 H 0.6881 1.0637 0.6920
H48 H 0.7019 1.1222 0.6452
H49 H 0.7752 1.1263 0.7118
N6 N 0.9520(16) 0.4070(15) 0.7777(16)
C46 C 0.9177(19) 0.3336(15) 0.7791(15)
H50 H 0.8537 0.3216 0.7602
H51 H 0.9257 0.3291 0.8287
H52 H 0.9503 0.2999 0.7493
C47 C 0.9378(19) 0.4273(16) 0.7101(17)
H53 H 0.9055 0.3849 0.6727
H54 H 0.9959 0.4440 0.6960
H55 H 0.9023 0.4667 0.7160
C48 C 0.995(2) 0.4581(18) 0.8325(18)
H56 H 1.0004 0.4515 0.8798
O36 O 1.028(2) 0.5176(17) 0.8190(17)
O37 O 0.338(2) -0.2720(16) 0.2314(16)
N7 N 0.3589(16) -0.1965(14) 0.1651(15)
C49 C 0.2623(18) -0.201(3) 0.148(3)
H57 H 0.2474 -0.1519 0.1647
H58 H 0.2446 -0.2189 0.0963
H59 H 0.2302 -0.2338 0.1729
C50 C 0.423(2) -0.1526(18) 0.1367(19)
H60 H 0.4138 -0.1684 0.0840
H61 H 0.4165 -0.1013 0.1524
H62 H 0.4838 -0.1580 0.1545
C51 C 0.3824(19) -0.2362(15) 0.2068(14)
H63 H 0.4451 -0.2345 0.2177
C52 C 0.374(2) 0.078(2) -0.102(2)
H64 H 0.3902 0.0524 -0.0664
H65 H 0.3970 0.1306 -0.0836
H66 H 0.3998 0.0595 -0.1463
N8 N 0.276(2) 0.0666(18) -0.1190(18)
O38 O 0.158(4) 0.096(3) -0.181(3)
C53 C 0.226(3) 0.015(3) -0.085(4)
H67 H 0.2073 -0.0323 -0.1197
H68 H 0.1736 0.0341 -0.0678
H69 H 0.2653 0.0094 -0.0438
C54 C 0.233(4) 0.088(4) -0.170(4)
H70 H 0.2689 0.1000 -0.2041
O39 O 0.430(3) 0.320(2) 0.422(2)
O40 O 0.445(5) 0.385(3) 0.399(4)
O41 O 0.516(5) 0.477(4) 0.358(4)
O42 O 0.082(3) 0.306(2) 1.018(2)
O43 O 0.855(4) 0.213(3) 0.111(3)
N9 N 0.103(2) 0.0081(15) 0.1257(16)
O44 O 0.116(3) -0.045(2) 0.217(2)
C55 C 0.139(3) 0.055(2) 0.084(2)
H71 H 0.1936 0.0872 0.1110
H72 H 0.0951 0.0837 0.0716
H73 H 0.1548 0.0247 0.0391
C56 C 0.144(3) -0.001(3) 0.183(2)
H74 H 0.2008 0.0288 0.2013
C57 C 0.008(3) -0.025(4) 0.104(4)
H75 H -0.0145 -0.0135 0.0596
H76 H -0.0272 -0.0066 0.1422
H77 H 0.0016 -0.0786 0.0954
H78? H 0.2707 0.5516 0.9991
H79? H 0.1773 0.5507 0.9717
C58? C 0.238(8) 0.648(3) 1.025(3)
H80? H 0.2849 0.6841 1.0168
H81? H 0.2464 0.6458 1.0755
H82? H 0.1789 0.6610 1.0143
H83? H 0.7838 1.0730 0.6702
H84? H 0.7362 1.0579 0.5974
C59? C 0.866(3) 1.068(3) 0.598(3)
H85? H 0.9157 1.0617 0.6305
H86? H 0.8715 1.1191 0.5967
H87? H 0.8662 1.0372 0.5495
O45? O 0.097(2) 0.1505(17) 0.7506(16)
O46? O 0.045(5) 0.171(4) 0.757(4)
O47? O 0.739(2) 0.567(2) 0.4989(19)
O48? O 0.734(4) 0.515(3) 0.526(4)
O49? O 0.773(4) 0.507(3) 0.579(4)
O50? O 0.584(3) 0.438(3) 0.337(3)
O51? O 0.595(4) 0.354(3) 0.413(3)
O52? O 0.527(5) 0.399(3) 0.406(4)
O53? O 0.412(4) 0.395(3) 0.336(3)
O54? O 0.629(4) 0.433(3) 0.430(3)
O55? O 0.530(11) 0.410(9) 0.360(9)
O56? O 0.624(3) 0.470(2) 0.551(2)
O57? O 0.609(6) 0.410(4) 0.608(4)
O58? O 0.510(6) 0.414(4) 0.595(4)
O59? O 0.130(5) 0.282(4) 1.059(4)
O60? O 0.5000 0.0000 0.0000
O61? O 0.883(5) 0.181(4) 0.156(4)
loop_
_geom_bond_atom_site_label_1
_geom_bond_atom_site_label_2
_geom_bond_site_symmetry_1
_geom_bond_site_symmetry_2
Br1 C11 1_555 1_555
V1 O4 1_555 1_555
V2 O1 1_555 1_555
V3 O13 1_555 1_555
V4 O6 1_555 1_555
V5 O12 1_555 1_555
V6 O11 1_555 1_555
Br2 C30 1_555 1_555
V7 O19 1_555 1_555
V8 O15 1_555 1_555
Br3 C31 1_555 1_555
Br4 C32 1_555 1_555
O1 C3 1_555 1_555
O2 C1 1_555 1_555
O3 C27 1_555 1_555
O4 C1 1_555 1_555
O5 V1 1_555 1_555
O6 C3 1_555 1_555
O7 V1 1_555 1_555
O8 C5 1_555 1_555
C1 C6 1_555 1_555
O9 V4 1_555 1_555
O10 C27 1_555 1_555
O11 C17 1_555 1_555
O12 C21 1_555 1_555
O13 C4 1_555 1_555
O14 C28 1_555 1_555
C2 H1 1_555 1_555
O15 C21 1_555 1_555
O16 C28 1_555 1_555
C3 C8 1_555 1_555
O17 V6 1_555 1_555
O18 V2 1_555 1_555
O19 V5 1_555 1_555
O20 V8 1_555 1_555
O21 V6 1_555 1_555
C4 O9 1_555 1_555
O22 V4 1_555 1_555
C5 O7 1_555 1_555
C6 C2 1_555 1_555
O23 V2 1_555 1_555
O24 V3 1_555 1_555
O25 V3 1_555 1_555
C7 H2 1_555 1_555
C8 C14 1_555 1_555
C9 C10 1_555 1_555
C10 H3 1_555 1_555
O26 V2 1_555 1_555
C11 C2 1_555 1_555
C12 C17 1_555 1_555
O27 V5 1_555 1_555
C13 C25 1_555 1_555
C14 H4 1_555 1_555
O28 V8 1_555 1_555
O29 V5 1_555 1_555
C15 C4 1_555 1_555
C16 C8 1_555 1_555
H5 C16 1_555 1_555
C17 O20 1_555 1_555
C18 H6 1_555 1_555
C19 C16 1_555 1_555
O30 V3 1_555 1_555
C20 H7 1_555 1_555
C21 C9 1_555 1_555
C22 C6 1_555 1_555
H8 C22 1_555 1_555
C23 C12 1_555 1_555
H9 C23 1_555 1_555
C24 C12 1_555 1_555
H10 C24 1_555 1_555
O31 V6 1_555 1_555
C25 H11 1_555 1_555
C26 C5 1_555 1_555
C27 C19 1_555 1_555
C28 C13 1_555 1_555
C29 C13 1_555 1_555
H12 C29 1_555 1_555
C30 C7 1_555 1_555
C31 C20 1_555 1_555
C32 C14 1_555 1_555
O32 V7 1_555 1_555
N1 C33 1_555 1_555
C33 H13 1_555 1_555
H14 C33 1_555 1_555
H15 C33 1_555 1_555
C34 N1 1_555 1_555
H16 C34 1_555 1_555
H17 C34 1_555 1_555
H18 C34 1_555 1_555
C35 N1 1_555 1_555
H19 C35 1_555 1_555
O33 C35 1_555 1_555
N2 C36 1_555 1_555
C36 H20 1_555 1_555
H21 C36 1_555 1_555
H22 C36 1_555 1_555
C37 N2 1_555 1_555
H23 C37 1_555 1_555
H24 C37 1_555 1_555
H25 C37 1_555 1_555
O34 C38 1_555 1_555
C38 N2 1_555 1_555
H26 C38 1_555 1_555
C39 H27 1_555 1_555
H28 C39 1_555 1_555
H29 C39 1_555 1_555
C40 H30 1_555 1_555
H31 C40 1_555 1_555
H32 C40 1_555 1_555
N3 C39 1_555 1_555
H33 N3 1_555 1_555
H34 N3 1_555 1_555
N4 C41 1_555 1_555
C41 H35 1_555 1_555
H36 C41 1_555 1_555
H37 C41 1_555 1_555
C42 N4 1_555 1_555
H38 C42 1_555 1_555
O35 C42 1_555 1_555
C43 N4 1_555 1_555
H39 C43 1_555 1_555
H40 C43 1_555 1_555
H41 C43 1_555 1_555
C44 H42 1_555 1_555
H43 C44 1_555 1_555
H44 C44 1_555 1_555
N5 C44 1_555 1_555
H45 N5 1_555 1_555
H46 N5 1_555 1_555
C45 N5 1_555 1_555
H47 C45 1_555 1_555
H48 C45 1_555 1_555
H49 C45 1_555 1_555
N6 C46 1_555 1_555
C46 H50 1_555 1_555
H51 C46 1_555 1_555
H52 C46 1_555 1_555
C47 N6 1_555 1_555
H53 C47 1_555 1_555
H54 C47 1_555 1_555
H55 C47 1_555 1_555
C48 N6 1_555 1_555
H56 C48 1_555 1_555
O36 C48 1_555 1_555
O37 C51 1_555 1_555
N7 C49 1_555 1_555
C49 H57 1_555 1_555
H58 C49 1_555 1_555
H59 C49 1_555 1_555
C50 N7 1_555 1_555
H60 C50 1_555 1_555
H61 C50 1_555 1_555
H62 C50 1_555 1_555
C51 N7 1_555 1_555
H63 C51 1_555 1_555
C52 H64 1_555 1_555
H65 C52 1_555 1_555
H66 C52 1_555 1_555
N8 C52 1_555 1_555
O38 C54 1_555 1_555
C53 N8 1_555 1_555
H67 C53 1_555 1_555
H68 C53 1_555 1_555
H69 C53 1_555 1_555
C54 N8 1_555 1_555
H70 C54 1_555 1_555
N9 C55 1_555 1_555
O44 C56 1_555 1_555
C55 H71 1_555 1_555
H72 C55 1_555 1_555
H73 C55 1_555 1_555
C56 N9 1_555 1_555
H74 C56 1_555 1_555
C57 N9 1_555 1_555
H75 C57 1_555 1_555
H76 C57 1_555 1_555
H77 C57 1_555 1_555
Br1A C11A 1_555 1_555
V1A O24 1_555 1_555
V2A O2 1_555 1_555
V3A O8 1_555 1_555
V4A O6A 1_555 1_555
V5A O3 1_555 1_555
V6A O16 1_555 1_555
Br2A C30A 1_555 1_555
V7A O10 1_555 1_555
V8A O15A 1_555 1_555
Br3A C31A 1_555 1_555
Br4A C32A 1_555 1_555
O1A V2A 1_555 1_555
O2A V2 1_555 1_555
O3A V5 1_555 1_555
O4A V1A 1_555 1_555
O5A V1A 1_555 1_555
O6A C3A 1_555 1_555
O7A V1A 1_555 1_555
O8A V3 1_555 1_555
C1A O2A 1_555 1_555
O9A V4A 1_555 1_555
O10A V7 1_555 1_555
O11A V6A 1_555 1_555
O12A V5A 1_555 1_555
O13A V3A 1_555 1_555
O14A V7 1_555 1_555
C2A H1A 1_555 1_555
O15A C21A 1_555 1_555
O16A V6 1_555 1_555
C3A O1A 1_555 1_555
O17A V6A 1_555 1_555
O18A V2A 1_555 1_555
O19A V5A 1_555 1_555
O20A V8A 1_555 1_555
O21A V6A 1_555 1_555
C4A O9A 1_555 1_555
O22A V4A 1_555 1_555
C5A O7A 1_555 1_555
C6A C1A 1_555 1_555
O23A V2A 1_555 1_555
O24A V1 1_555 1_555
O25A V3A 1_555 1_555
C7A H2A 1_555 1_555
C8A C3A 1_555 1_555
C9A C10A 1_555 1_555
C10A H3A 1_555 1_555
O26A V1 1_555 1_555
C11A C2A 1_555 1_555
C12A C17A 1_555 1_555
O27A V5A 1_555 1_555
C13A C25A 1_555 1_555
C14A C8A 1_555 1_555
H4A C14A 1_555 1_555
O28A V8A 1_555 1_555
O29A V5A 1_555 1_555
C15A C4A 1_555 1_555
C16A C8A 1_555 1_555
H5A C16A 1_555 1_555
C17A O11A 1_555 1_555
C18A H6A 1_555 1_555
C19A C16A 1_555 1_555
O30A V3A 1_555 1_555
C20A H7A 1_555 1_555
C21A O12A 1_555 1_555
C22A C6A 1_555 1_555
H8A C22A 1_555 1_555
C23A C12A 1_555 1_555
H9A C23A 1_555 1_555
C24A C12A 1_555 1_555
H10A C24A 1_555 1_555
O31A V6A 1_555 1_555
C25A H11A 1_555 1_555
C26A C5A 1_555 1_555
C27A O3A 1_555 1_555
C28A O14A 1_555 1_555
C29A C13A 1_555 1_555
H12A C29A 1_555 1_555
C30A C7A 1_555 1_555
C31A C20A 1_555 1_555
C32A C14A 1_555 1_555
O32A V7A 1_555 1_555
V4 O23 1_555 1_555
V4 O25 1_555 1_555
V7 O21 1_555 1_555
V8 O17 1_555 1_555
V8 O29 1_555 1_555
O14 V7A 1_555 1_555
C7 C15 1_555 1_555
C9 C22 1_555 1_555
C10 C11 1_555 1_555
O26 V1A 1_555 1_555
C15 C24 1_555 1_555
C18 C19 1_555 1_555
C18 C32 1_555 1_555
C20 C26 1_555 1_555
C23 C30 1_555 1_555
C25 C31 1_555 1_555
C26 C29 1_555 1_555
C40 N3 1_555 1_555
V2A O26A 1_555 1_555
V3A O24A 1_555 1_555
V4A O23A 1_555 1_555
V4A O25A 1_555 1_555
V7A O19A 1_555 1_555
V7A O21A 1_555 1_555
V8A O17A 1_555 1_555
V8A O29A 1_555 1_555
O4A C1A 1_555 1_555
O8A C5A 1_555 1_555
O10A C27A 1_555 1_555
O13A C4A 1_555 1_555
C2A C6A 1_555 1_555
O16A C28A 1_555 1_555
O20A C17A 1_555 1_555
C7A C15A 1_555 1_555
C9A C21A 1_555 1_555
C9A C22A 1_555 1_555
C10A C11A 1_555 1_555
C13A C28A 1_555 1_555
C15A C24A 1_555 1_555
C18A C19A 1_555 1_555
C18A C32A 1_555 1_555
C19A C27A 1_555 1_555
C20A C26A 1_555 1_555
C23A C30A 1_555 1_555
C25A C31A 1_555 1_555
C26A C29A 1_555 1_555

#END
