
#######################################################################
#
#                 Cambridge Crystallographic Data Centre
#                                CCDC 
#
#######################################################################
#
# If this CIF has been generated from an entry in the Cambridge 
# Structural Database, then it will include bibliographic, chemical, 
# crystal, experimental, refinement or atomic coordinate data resulting 
# from the CCDC's data processing and validation procedures.
#
#######################################################################

data_TUCREQ
_chemical_formula_moiety         
'C64 H32 O64 V16,6(C3 H7 N1 O1),4(C2 H8 N1 1+),4(Cl1 1-),20.2(H2 O1)'
_chemical_name_systematic        
'tetrakis(dimethylammonium) tetrachloride octakis(\m-isophthalato)-hexadecakis(\m-oxo)-hexadecaoxo-hexadeca-vanadium N,N-dimethylformamide solvate hydrate'
_symmetry_cell_setting           monoclinic
_symmetry_space_group_name_H-M   'P 21/a'
_symmetry_Int_Tables_number      14
_space_group_name_Hall           '-P 2yab'
loop_
_symmetry_equiv_pos_site_id
_symmetry_equiv_pos_as_xyz
1 x,y,z
2 1/2-x,1/2+y,-z
3 -x,-y,-z
4 1/2+x,1/2-y,z
_cell_length_a                   21.2958(6)
_cell_length_b                   21.3300(6)
_cell_length_c                   21.9581(6)
_cell_angle_alpha                90
_cell_angle_beta                 105.8678(13)
_cell_angle_gamma                90
_cell_volume                     9594.17
_exptl_crystal_colour            'dark green'
_exptl_crystal_description       plate
_cell_formula_units_Z            2
loop_
_atom_site_label
_atom_site_type_symbol
_atom_site_fract_x
_atom_site_fract_y
_atom_site_fract_z
V1 V 0.31441(6) 0.92395(6) -0.37816(6)
V2 V 0.46853(6) 0.92226(6) -0.37545(6)
V3 V 0.17567(6) 1.17855(6) 0.00048(6)
V4 V 0.47072(6) 1.07569(6) -0.37840(6)
V5 V 0.68194(6) 0.92238(6) 0.37571(6)
V6 V 0.66808(7) 0.66987(6) -0.00028(6)
V7 V 0.77769(6) 0.74476(6) 0.10841(6)
V8 V 0.28430(7) 1.25513(6) 0.10931(6)
O1 O 0.6193(3) 0.6990(2) 0.0621(2)
O2 O 0.2193(2) 1.1643(2) -0.1358(2)
O3 O 0.1874(2) 1.1107(2) -0.0609(2)
O4 O 0.2719(2) 0.9477(2) -0.3092(2)
O5 O 0.1652(2) 1.2342(2) -0.0634(2)
O6 O 0.2965(2) 1.1641(2) 0.1369(2)
O7 O 0.4482(2) 0.9484(2) 0.3094(2)
O8 O 0.5837(3) 0.6991(2) -0.0619(2)
O9 O 0.6364(2) 0.8613(2) 0.3057(2)
O10 O 0.2221(3) 1.1111(2) 0.0615(2)
O11 O 0.4625(2) 0.8619(2) -0.3048(2)
O12 O 0.2939(3) 1.3230(2) 0.0650(2)
O13 O 0.5316(2) 0.8617(2) 0.3091(2)
O14 O 0.3557(2) 0.8613(2) -0.3094(2)
O15 O 0.6169(3) 0.7516(2) -0.1372(2)
O16 O 0.7423(3) 0.6769(2) 0.0635(2)
C1 C 0.6384(4) 0.7312(3) 0.1126(3)
O17 O 0.6949(3) 0.7511(2) 0.1367(2)
O18 O 0.2761(2) 1.0541(2) -0.3057(2)
C2 C 0.5734(4) 0.7307(4) -0.1130(3)
C3 C 0.2051(4) 1.1148(3) -0.1105(3)
O19 O 0.4735(3) 0.9979(2) -0.4112(2)
O20 O 0.2021(3) 1.2339(2) 0.0648(2)
O21 O 0.4502(2) 1.0538(2) 0.3062(2)
O22 O 0.2732(3) 1.2848(2) 0.1730(3)
O23 O 0.3822(3) 0.9089(2) -0.4113(2)
C4 C 0.2639(3) 1.0007(3) -0.2866(3)
C5 C 0.2693(4) 1.1145(3) 0.1114(3)
O24 O 0.6158(3) 0.9089(2) 0.4118(2)
C6 C 0.4275(4) 1.0013(3) 0.2863(3)
O25 O 0.7071(3) 0.9986(2) 0.4118(2)
O26 O 0.5026(3) 0.8760(2) -0.4141(2)
O27 O 0.1019(3) 1.1640(3) 0.0007(3)
C7 C 0.5600(4) 0.8012(4) 0.2315(4)
O28 O 0.2570(3) 0.8804(3) -0.4205(2)
O29 O 0.6523(3) 0.5961(2) -0.0005(3)
C8 C 0.4136(4) 0.8448(3) -0.2871(3)
O30 O 0.7380(3) 0.8766(3) 0.4147(3)
C9 C 0.3453(4) 1.0560(3) 0.1996(3)
H1 H 0.3621 1.0948 0.2183
O31 O 0.8244(3) 0.7151(3) 0.1716(3)
O32 O 0.5044(3) 1.1192(3) -0.4202(2)
C10 C 0.5780(3) 0.8449(3) 0.2870(3)
C11 C 0.4273(4) 0.8002(4) -0.2321(4)
C12 C 0.2315(4) 1.0556(3) -0.1988(3)
H2 H 0.2405 1.0944 -0.2160
C13 C 0.4916(4) 0.7838(3) -0.2008(3)
H3 H 0.5265 0.7992 -0.2158
C14 C 0.5051(4) 0.7448(4) -0.1471(4)
C15 C 0.3700(4) 1.0004(3) 0.2277(3)
C16 C 0.4534(5) 0.7211(5) -0.1272(4)
H4 H 0.4619 0.6935 -0.0920
C17 C 0.5247(4) 0.7239(5) 0.1256(4)
H5 H 0.5129 0.6965 0.0903
C18 C 0.5883(4) 0.7460(4) 0.1464(4)
C19 C 0.6057(4) 0.7839(3) 0.2008(4)
H6 H 0.6495 0.7977 0.2166
C20 C 0.2272(6) 0.9441(4) -0.2028(5)
H7 H 0.2334 0.9058 -0.2225
C21 C 0.2115(4) 1.0546(3) -0.1437(3)
C22 C 0.2954(4) 1.0549(3) 0.1434(4)
C23 C 0.3766(4) 0.7767(5) -0.2104(4)
H8 H 0.3328 0.7877 -0.2313
C24 C 0.3902(4) 0.7367(6) -0.1575(5)
H9 H 0.3554 0.7206 -0.1427
C25 C 0.1991(6) 0.9983(4) -0.1188(5)
H10 H 0.1853 0.9975 -0.0811
C26 C 0.4790(4) 0.7411(6) 0.1556(5)
H11 H 0.4354 0.7266 0.1398
C27 C 0.4953(4) 0.7796(5) 0.2086(5)
H12 H 0.4633 0.7911 0.2293
C28 C 0.3451(5) 0.9435(4) 0.2006(5)
H13 H 0.3623 0.9051 0.2201
C29 C 0.2707(6) 0.9984(4) 0.1158(5)
H14 H 0.2372 0.9979 0.0770
C30 C 0.2385(4) 0.9996(3) -0.2288(4)
C31 C 0.2951(6) 0.9432(4) 0.1449(5)
H15 H 0.2775 0.9044 0.1268
C32 C 0.2068(7) 0.9427(4) -0.1484(5)
H16 H 0.1981 0.9037 -0.1314
V1B V 0.68559(6) 1.07605(6) 0.37816(6)
V2B V 0.53147(6) 1.07774(6) 0.37545(6)
V3B V 0.82433(6) 0.82145(6) -0.00048(6)
V4B V 0.52928(6) 0.92431(6) 0.37840(6)
V5B V 0.31806(6) 1.07762(6) -0.37571(6)
V6B V 0.33192(7) 1.33013(6) 0.00028(6)
V7B V 0.22231(6) 1.25524(6) -0.10841(6)
V8B V 0.71570(7) 0.74487(6) -0.10931(6)
O1B O 0.3807(3) 1.3010(2) -0.0621(2)
O2B O 0.7807(2) 0.8357(2) 0.1358(2)
O3B O 0.8126(2) 0.8893(2) 0.0609(2)
O4B O 0.7281(2) 1.0523(2) 0.3092(2)
O5B O 0.8348(2) 0.7658(2) 0.0634(2)
O6B O 0.7035(2) 0.8359(2) -0.1369(2)
O7B O 0.5518(2) 1.0516(2) -0.3094(2)
O8B O 0.4163(3) 1.3009(2) 0.0619(2)
O9B O 0.3636(2) 1.1387(2) -0.3057(2)
O10B O 0.7779(3) 0.8889(2) -0.0615(2)
O11B O 0.5375(2) 1.1381(2) 0.3048(2)
O12B O 0.7061(3) 0.6770(2) -0.0650(2)
O13B O 0.4684(2) 1.1383(2) -0.3091(2)
O14B O 0.6443(2) 1.1387(2) 0.3094(2)
O15B O 0.3831(3) 1.2484(2) 0.1372(2)
O16B O 0.2577(3) 1.3231(2) -0.0635(2)
C1B C 0.3616(4) 1.2688(3) -0.1126(3)
O17B O 0.3051(3) 1.2489(2) -0.1367(2)
O18B O 0.7239(2) 0.9459(2) 0.3057(2)
C2B C 0.4266(4) 1.2693(4) 0.1130(3)
C3B C 0.7949(4) 0.8852(3) 0.1105(3)
O19B O 0.5265(3) 1.0021(2) 0.4112(2)
O20B O 0.7979(3) 0.7661(2) -0.0648(2)
O21B O 0.5498(2) 0.9462(2) -0.3062(2)
O22B O 0.7268(3) 0.7152(2) -0.1730(3)
O23B O 0.6178(3) 1.0911(2) 0.4113(2)
C4B C 0.7361(3) 0.9993(3) 0.2866(3)
C5B C 0.7307(4) 0.8855(3) -0.1114(3)
O24B O 0.3842(3) 1.0911(2) -0.4118(2)
C6B C 0.5725(4) 0.9987(3) -0.2863(3)
O25B O 0.2929(3) 1.0014(2) -0.4118(2)
O26B O 0.4974(3) 1.1240(2) 0.4141(2)
O27B O 0.8981(3) 0.8360(3) -0.0007(3)
C7B C 0.4400(4) 1.1988(4) -0.2315(4)
O28B O 0.7430(3) 1.1196(3) 0.4205(2)
O29B O 0.3477(3) 1.4039(2) 0.0005(3)
C8B C 0.5864(4) 1.1552(3) 0.2871(3)
O30B O 0.2620(3) 1.1234(3) -0.4147(3)
C9B C 0.6547(4) 0.9440(3) -0.1996(3)
H1B H 0.6379 0.9052 -0.2183
O31B O 0.1756(3) 1.2849(3) -0.1716(3)
O32B O 0.4956(3) 0.8808(3) 0.4202(2)
C10B C 0.4220(3) 1.1551(3) -0.2870(3)
C11B C 0.5727(4) 1.1998(4) 0.2321(4)
C12B C 0.7685(4) 0.9444(3) 0.1988(3)
H2B H 0.7595 0.9056 0.2160
C13B C 0.5084(4) 1.2162(3) 0.2008(3)
H3B H 0.4735 1.2008 0.2158
C14B C 0.4949(4) 1.2552(4) 0.1471(4)
C15B C 0.6300(4) 0.9996(3) -0.2277(3)
C16B C 0.5466(5) 1.2789(5) 0.1272(4)
H4B H 0.5381 1.3065 0.0920
C17B C 0.4753(4) 1.2761(5) -0.1256(4)
H5B H 0.4871 1.3035 -0.0903
C18B C 0.4117(4) 1.2540(4) -0.1464(4)
C19B C 0.3943(4) 1.2161(3) -0.2008(4)
H6B H 0.3505 1.2023 -0.2166
C20B C 0.7728(6) 1.0559(4) 0.2028(5)
H7B H 0.7666 1.0942 0.2225
C21B C 0.7885(4) 0.9454(3) 0.1437(3)
C22B C 0.7046(4) 0.9451(3) -0.1434(4)
C23B C 0.6234(4) 1.2233(5) 0.2104(4)
H8B H 0.6672 1.2123 0.2313
C24B C 0.6098(4) 1.2633(6) 0.1575(5)
H9B H 0.6446 1.2794 0.1427
C25B C 0.8009(6) 1.0017(4) 0.1188(5)
H10B H 0.8147 1.0025 0.0811
C26B C 0.5210(4) 1.2589(6) -0.1556(5)
H11B H 0.5646 1.2734 -0.1398
C27B C 0.5047(4) 1.2204(5) -0.2086(5)
H12B H 0.5367 1.2089 -0.2293
C28B C 0.6549(5) 1.0565(4) -0.2006(5)
H13B H 0.6377 1.0949 -0.2201
C29B C 0.7293(6) 1.0016(4) -0.1158(5)
H14B H 0.7628 1.0021 -0.0770
C30B C 0.7615(4) 1.0004(3) 0.2288(4)
C31B C 0.7049(6) 1.0568(4) -0.1449(5)
H15B H 0.7225 1.0956 -0.1268
C32B C 0.7932(7) 1.0573(4) 0.1484(5)
H16B H 0.8019 1.0963 0.1314
Cl1 Cl 0.69043(9) 0.80195(8) -0.00006(8)
Cl2 Cl 0.41454(8) 1.00004(8) -0.29811(8)
N1 N 0.3504(5) 1.0010(4) 0.4741(4)
H17 H 0.3696 0.9969 0.5163
H18 H 0.3120 1.0215 0.4699
C33 C 0.3937(11) 1.0435(11) 0.4475(11)
H19 H 0.3994 1.0837 0.4699
H20 H 0.4364 1.0236 0.4531
H21 H 0.3733 1.0506 0.4023
C34 C 0.3347(14) 0.9379(12) 0.4481(13)
H22 H 0.3066 0.9168 0.4702
H23 H 0.3120 0.9408 0.4029
H24 H 0.3751 0.9139 0.4536
C35 C 0.1956(17) 0.9916(15) 0.2500(16)
H25 H 0.1697 1.0237 0.2254
C36 C 0.1315(15) 0.9263(15) 0.1649(14)
H26 H 0.0966 0.8998 0.1721
H27 H 0.1516 0.9054 0.1352
H28 H 0.1131 0.9666 0.1471
O33 O 0.2339(16) 1.0126(14) 0.2971(16)
C37 C 0.2073(17) 0.8751(15) 0.2460(16)
H29 H 0.1723 0.8486 0.2528
H30 H 0.2418 0.8793 0.2857
H31 H 0.2254 0.8559 0.2139
N2 N 0.1809(13) 0.9370(14) 0.2245(13)
O34 O 0.3926(11) 0.9265(10) -0.1009(11)
N3 N 0.3876(10) 1.0339(9) -0.1002(11)
C38 C 0.3872(14) 0.9787(11) -0.1282(14)
H32 H 0.3825 0.9787 -0.1725
C39 C 0.3855(16) 1.0919(12) -0.1339(15)
H33 H 0.3747 1.0834 -0.1795
H34 H 0.4281 1.1125 -0.1203
H35 H 0.3521 1.1193 -0.1251
C40 C 0.393(2) 1.041(2) -0.0326(13)
H36 H 0.3548 1.0219 -0.0231
H37 H 0.3947 1.0857 -0.0218
H38 H 0.4327 1.0202 -0.0078
C41 C 0.0653(11) 0.8655(11) -0.2428(11)
H39 H 0.0489 0.8238 -0.2582
H40 H 0.1052 0.8611 -0.2079
H41 H 0.0749 0.8894 -0.2773
O35 O -0.0033(17) 0.9502(15) -0.1360(16)
N4 N 0.0164(13) 0.8981(11) -0.2207(12)
C42 C 0.0331(16) 0.9242(12) -0.1645(13)
H42 H 0.0783 0.9232 -0.1427
C43 C -0.0513(14) 0.891(2) -0.2614(18)
H43 H -0.0571 0.9163 -0.2998
H44 H -0.0819 0.9053 -0.2381
H45 H -0.0597 0.8469 -0.2730
O36 O 0.006(4) 1.082(4) -0.283(4)
C44 C 0.2908(11) 0.7038(9) 0.2972(10)
H46 H 0.3313 0.6797 0.3047
H47 H 0.2733 0.7117 0.2517
H48 H 0.2588 0.6801 0.3126
N5 N 0.3037(10) 0.7618(9) 0.3299(9)
C45 C 0.3568(11) 0.8038(10) 0.3296(13)
H49 H 0.3931 0.7798 0.3217
H50 H 0.3715 0.8249 0.3707
H51 H 0.3419 0.8352 0.2962
O37 O 0.249(2) 0.822(2) 0.390(2)
C46 C 0.2584(15) 0.7772(17) 0.3577(14)
H52 H 0.2246 0.7469 0.3510
O38 O 0.221(2) 0.6604(18) -0.307(2)
N6 N 0.1547(12) 0.7466(12) -0.3282(14)
C47 C 0.1586(19) 0.8142(12) -0.3386(19)
H53 H 0.1174 0.8288 -0.3673
H54 H 0.1945 0.8228 -0.3574
H55 H 0.1665 0.8363 -0.2981
C48 C 0.0983(13) 0.7283(15) -0.3069(15)
H56 H 0.0659 0.7621 -0.3160
H57 H 0.1121 0.7204 -0.2612
H58 H 0.0790 0.6901 -0.3291
C49 C 0.2068(17) 0.7137(19) -0.3232(19)
H59 H 0.2406 0.7359 -0.3345
O39 O 0.0263(13) 0.9916(15) 0.0017(15)
O40 O 0.006(3) 0.949(3) 0.007(3)
C50 C 0.448(2) 0.723(2) -0.3982(19)
H60 H 0.4710 0.6831 -0.3944
H61 H 0.4263 0.7270 -0.3644
H62 H 0.4794 0.7576 -0.3947
N7 N 0.4009(17) 0.7269(15) -0.4592(15)
C51 C 0.365(4) 0.6702(19) -0.484(3)
H63 H 0.3220 0.6814 -0.5109
H64 H 0.3610 0.6446 -0.4484
H65 H 0.3890 0.6463 -0.5090
O41 O 0.338(3) 0.786(3) -0.537(2)
C52 C 0.383(2) 0.7809(16) -0.4877(19)
H66 H 0.4054 0.8178 -0.4698
O42 O 0.862(4) 0.999(4) 0.467(5)
loop_
_geom_bond_atom_site_label_1
_geom_bond_atom_site_label_2
_geom_bond_site_symmetry_1
_geom_bond_site_symmetry_2
V1 O4 1_555 1_555
V2 O11 1_555 1_555
V3 O3 1_555 1_555
V4 O19 1_555 1_555
V5 O9 1_555 1_555
V6 O1 1_555 1_555
V7 O16 1_555 1_555
V8 O6 1_555 1_555
O1 C1 1_555 1_555
O2 C3 1_555 1_555
O3 C3 1_555 1_555
O4 C4 1_555 1_555
O5 V3 1_555 1_555
O6 C5 1_555 1_555
O7 C6 1_555 1_555
O8 V6 1_555 1_555
O9 C10 1_555 1_555
O10 V3 1_555 1_555
O11 C8 1_555 1_555
O12 V8 1_555 1_555
O13 C10 1_555 1_555
O14 V1 1_555 1_555
O15 C2 1_555 1_555
O16 V6 1_555 1_555
C1 O17 1_555 1_555
O17 V7 1_555 1_555
O18 C4 1_555 1_555
C2 O8 1_555 1_555
C3 C21 1_555 1_555
O19 V2 1_555 1_555
O20 V3 1_555 1_555
O21 C6 1_555 1_555
O22 V8 1_555 1_555
O23 V1 1_555 1_555
C4 C30 1_555 1_555
C5 O10 1_555 1_555
O24 V5 1_555 1_555
C6 C15 1_555 1_555
O25 V5 1_555 1_555
O26 V2 1_555 1_555
O27 V3 1_555 1_555
C7 C10 1_555 1_555
O28 V1 1_555 1_555
O29 V6 1_555 1_555
C8 O14 1_555 1_555
O30 V5 1_555 1_555
C9 H1 1_555 1_555
O31 V7 1_555 1_555
O32 V4 1_555 1_555
C11 C8 1_555 1_555
C12 H2 1_555 1_555
C13 C11 1_555 1_555
H3 C13 1_555 1_555
C14 C2 1_555 1_555
C15 C9 1_555 1_555
C16 C14 1_555 1_555
H4 C16 1_555 1_555
C17 H5 1_555 1_555
C18 C1 1_555 1_555
C19 C7 1_555 1_555
H6 C19 1_555 1_555
C20 H7 1_555 1_555
C21 C12 1_555 1_555
C22 C5 1_555 1_555
C23 C11 1_555 1_555
H8 C23 1_555 1_555
C24 C16 1_555 1_555
H9 C24 1_555 1_555
C25 C21 1_555 1_555
H10 C25 1_555 1_555
C26 C17 1_555 1_555
H11 C26 1_555 1_555
C27 C7 1_555 1_555
H12 C27 1_555 1_555
C28 C15 1_555 1_555
H13 C28 1_555 1_555
C29 C22 1_555 1_555
H14 C29 1_555 1_555
C30 C12 1_555 1_555
C31 C28 1_555 1_555
H15 C31 1_555 1_555
C32 C20 1_555 1_555
H16 C32 1_555 1_555
N1 H17 1_555 1_555
H18 N1 1_555 1_555
C33 N1 1_555 1_555
H19 C33 1_555 1_555
H20 C33 1_555 1_555
H21 C33 1_555 1_555
C34 N1 1_555 1_555
H22 C34 1_555 1_555
H23 C34 1_555 1_555
H24 C34 1_555 1_555
C35 H25 1_555 1_555
C36 H26 1_555 1_555
H27 C36 1_555 1_555
H28 C36 1_555 1_555
O33 C35 1_555 1_555
C37 H29 1_555 1_555
H30 C37 1_555 1_555
H31 C37 1_555 1_555
N2 C35 1_555 1_555
O34 C38 1_555 1_555
N3 C38 1_555 1_555
C38 H32 1_555 1_555
C39 N3 1_555 1_555
H33 C39 1_555 1_555
H34 C39 1_555 1_555
H35 C39 1_555 1_555
C40 N3 1_555 1_555
H36 C40 1_555 1_555
H37 C40 1_555 1_555
H38 C40 1_555 1_555
C41 H39 1_555 1_555
H40 C41 1_555 1_555
H41 C41 1_555 1_555
O35 C42 1_555 1_555
N4 C41 1_555 1_555
C42 N4 1_555 1_555
H42 C42 1_555 1_555
C43 N4 1_555 1_555
H43 C43 1_555 1_555
H44 C43 1_555 1_555
H45 C43 1_555 1_555
C44 H46 1_555 1_555
H47 C44 1_555 1_555
H48 C44 1_555 1_555
N5 C44 1_555 1_555
C45 N5 1_555 1_555
H49 C45 1_555 1_555
H50 C45 1_555 1_555
H51 C45 1_555 1_555
O37 C46 1_555 1_555
C46 N5 1_555 1_555
H52 C46 1_555 1_555
O38 C49 1_555 1_555
N6 C47 1_555 1_555
C47 H53 1_555 1_555
H54 C47 1_555 1_555
H55 C47 1_555 1_555
C48 N6 1_555 1_555
H56 C48 1_555 1_555
H57 C48 1_555 1_555
H58 C48 1_555 1_555
C49 N6 1_555 1_555
H59 C49 1_555 1_555
C50 H60 1_555 1_555
H61 C50 1_555 1_555
H62 C50 1_555 1_555
N7 C50 1_555 1_555
C51 N7 1_555 1_555
H63 C51 1_555 1_555
H64 C51 1_555 1_555
H65 C51 1_555 1_555
O41 C52 1_555 1_555
C52 N7 1_555 1_555
H66 C52 1_555 1_555
V1B O25 1_555 1_555
V2B O21 1_555 1_555
V3B O3B 1_555 1_555
V4B O7 1_555 1_555
V5B O18 1_555 1_555
V6B O12 1_555 1_555
V7B O2 1_555 1_555
V8B O15 1_555 1_555
O1B V6B 1_555 1_555
O2B V7 1_555 1_555
O3B C3B 1_555 1_555
O4B V1B 1_555 1_555
O5B V7 1_555 1_555
O6B V8B 1_555 1_555
O7B V4 1_555 1_555
O8B V6B 1_555 1_555
O9B V5B 1_555 1_555
O10B V3B 1_555 1_555
O11B V2B 1_555 1_555
O12B V6 1_555 1_555
O13B V4 1_555 1_555
O14B V1B 1_555 1_555
O15B V8 1_555 1_555
O16B V6B 1_555 1_555
C1B O1B 1_555 1_555
O17B V7B 1_555 1_555
O18B V5 1_555 1_555
C2B O8B 1_555 1_555
C3B O2B 1_555 1_555
O19B V2B 1_555 1_555
O20B V3B 1_555 1_555
O21B V2 1_555 1_555
O22B V8B 1_555 1_555
O23B V1B 1_555 1_555
C4B O4B 1_555 1_555
C5B O6B 1_555 1_555
O24B V4 1_555 1_555
C6B O7B 1_555 1_555
O25B V1 1_555 1_555
O26B V2B 1_555 1_555
O27B V3B 1_555 1_555
C7B C10B 1_555 1_555
O28B V1B 1_555 1_555
O29B V6B 1_555 1_555
C8B O11B 1_555 1_555
O30B V5B 1_555 1_555
C9B H1B 1_555 1_555
O31B V7B 1_555 1_555
O32B V4B 1_555 1_555
C10B O9B 1_555 1_555
C11B C8B 1_555 1_555
C12B H2B 1_555 1_555
C13B C11B 1_555 1_555
H3B C13B 1_555 1_555
C14B C2B 1_555 1_555
C15B C6B 1_555 1_555
C16B C14B 1_555 1_555
H4B C16B 1_555 1_555
C17B H5B 1_555 1_555
C18B C1B 1_555 1_555
C19B C7B 1_555 1_555
H6B C19B 1_555 1_555
C20B H7B 1_555 1_555
C21B C3B 1_555 1_555
C22B C5B 1_555 1_555
C23B C11B 1_555 1_555
H8B C23B 1_555 1_555
C24B C16B 1_555 1_555
H9B C24B 1_555 1_555
C25B C21B 1_555 1_555
H10B C25B 1_555 1_555
C26B C17B 1_555 1_555
H11B C26B 1_555 1_555
C27B C7B 1_555 1_555
H12B C27B 1_555 1_555
C28B C15B 1_555 1_555
H13B C28B 1_555 1_555
C29B C22B 1_555 1_555
H14B C29B 1_555 1_555
C30B C4B 1_555 1_555
C31B C28B 1_555 1_555
H15B C31B 1_555 1_555
C32B C20B 1_555 1_555
H16B C32B 1_555 1_555
V2 O23 1_555 1_555
V8 O20 1_555 1_555
O5 V7B 1_555 1_555
O13 V4B 1_555 1_555
O24 V4B 1_555 1_555
C9 C22 1_555 1_555
C13 C14 1_555 1_555
C17 C18 1_555 1_555
C18 C19 1_555 1_555
C20 C30 1_555 1_555
C23 C24 1_555 1_555
C25 C32 1_555 1_555
C26 C27 1_555 1_555
C29 C31 1_555 1_555
C36 N2 1_555 1_555
C37 N2 1_555 1_555
V2B O23B 1_555 1_555
V3B O5B 1_555 1_555
V4B O19B 1_555 1_555
V5B O24B 1_555 1_555
V5B O25B 1_555 1_555
V7B O16B 1_555 1_555
V8B O12B 1_555 1_555
V8B O20B 1_555 1_555
O10B C5B 1_555 1_555
O13B C10B 1_555 1_555
O14B C8B 1_555 1_555
O15B C2B 1_555 1_555
C1B O17B 1_555 1_555
O18B C4B 1_555 1_555
O21B C6B 1_555 1_555
C9B C15B 1_555 1_555
C9B C22B 1_555 1_555
C12B C21B 1_555 1_555
C12B C30B 1_555 1_555
C13B C14B 1_555 1_555
C17B C18B 1_555 1_555
C18B C19B 1_555 1_555
C20B C30B 1_555 1_555
C23B C24B 1_555 1_555
C25B C32B 1_555 1_555
C26B C27B 1_555 1_555
C29B C31B 1_555 1_555

#END
