
#######################################################################
#
#                 Cambridge Crystallographic Data Centre
#                                CCDC 
#
#######################################################################
#
# If this CIF has been generated from an entry in the Cambridge 
# Structural Database, then it will include bibliographic, chemical, 
# crystal, experimental, refinement or atomic coordinate data resulting 
# from the CCDC's data processing and validation procedures.
#
#######################################################################

data_TUCSAN
_chemical_formula_moiety         
'C72 H48 O72 V16,2(C3 H7 N1 O1),7(C2 H8 N1 1+),7(Cl1 1-),7.6(H2 O1)'
_chemical_name_systematic        
'heptakis(dimethylammonium) heptachloride octakis(\m-5-methoxyisophthalato)-hexadeca(\m-oxo)-hexadecaoxo-hexadeca-vanadium N,N-dimethylformamide solvate hydrate'
_symmetry_cell_setting           triclinic
_symmetry_space_group_name_H-M   'P -1'
_symmetry_Int_Tables_number      2
_space_group_name_Hall           '-P 1'
loop_
_symmetry_equiv_pos_site_id
_symmetry_equiv_pos_as_xyz
1 x,y,z
2 -x,-y,-z
_cell_length_a                   14.9214(6)
_cell_length_b                   16.0334(7)
_cell_length_c                   16.7794(7)
_cell_angle_alpha                79.476(2)
_cell_angle_beta                 82.828(3)
_cell_angle_gamma                81.284(2)
_cell_volume                     3881.66
_exptl_crystal_colour            'dark green'
_exptl_crystal_description       block
_cell_formula_units_Z            1
loop_
_atom_site_label
_atom_site_type_symbol
_atom_site_fract_x
_atom_site_fract_y
_atom_site_fract_z
V1 V -0.37564(9) 0.78174(8) 0.45469(7)
V2 V -0.01825(8) 0.73813(8) -0.15374(8)
V3 V -0.38155(8) 0.61670(8) 0.36777(7)
V4 V -0.39618(8) 1.35609(8) -0.39719(7)
V5 V -0.75018(8) 1.40155(8) 0.21104(7)
V6 V -0.86408(8) 1.41393(8) 0.05516(7)
V7 V -0.59625(9) 0.81056(8) 0.48309(7)
V8 V -0.86480(8) 1.24795(9) 0.30808(7)
O1 O -0.0594(3) 0.7737(3) -0.0433(3)
O2 O -0.3057(3) 1.2636(3) -0.3423(3)
O3 O -0.6528(3) 1.4023(3) 0.1145(3)
O4 O -0.3568(3) 0.6674(3) 0.4468(3)
O5 O -0.0586(3) 0.8665(3) -0.1851(3)
O6 O -0.2968(3) 0.6877(3) 0.2885(3)
O7 O -0.1379(3) 0.8756(3) -0.2929(3)
O8 O -0.6551(3) 1.3064(3) 0.2541(3)
O9 O -0.1408(3) 0.6695(3) 0.0234(3)
O10 O -0.4843(3) 0.7820(3) 0.5170(3)
O11 O -0.7321(3) 1.1992(3) 0.3196(3)
O12 O -0.8313(3) 1.3541(3) 0.2911(3)
O13 O -0.5633(3) 0.9283(3) 0.4338(3)
O14 O -0.4233(3) 1.3722(3) -0.2780(3)
O15 O -0.5771(3) 1.3918(3) -0.2587(3)
O16 O -0.0318(3) 0.6285(3) -0.1060(3)
C1 C -0.2720(5) 0.7588(5) 0.2920(4)
O17 O -0.2910(3) 0.8015(3) 0.3494(3)
O18 O -0.8320(3) 1.4529(3) 0.1402(3)
O19 O -0.4101(3) 0.9085(3) 0.4152(3)
O20 O -0.3824(3) 1.2990(3) -0.4813(3)
O21 O -0.7320(3) 1.4081(3) 0.0072(3)
O22 O -0.5081(3) 1.4166(3) -0.4137(3)
O23 O -0.3091(3) 1.1484(3) -0.4010(3)
C2 C -0.6600(4) 1.4047(4) 0.0395(4)
O24 O -0.6592(3) 0.8334(3) 0.5621(3)
O25 O -0.9023(3) 1.4993(3) -0.0016(3)
C3 C -0.4871(5) 0.9528(4) 0.4069(4)
O26 O -0.7248(3) 1.4787(3) 0.2474(3)
O27 O -0.9693(3) 1.2733(3) 0.2573(3)
C4 C -0.6597(5) 1.2314(5) 0.2924(4)
C5 C -0.4985(5) 1.3851(4) -0.2356(4)
O28 O -0.9030(4) 1.2352(4) 0.4026(3)
O29 O -0.3302(3) 1.3843(4) -0.0007(3)
C6 C -0.1098(5) 0.7404(5) 0.0165(4)
C7 C -0.2834(5) 1.1861(5) -0.3500(4)
O30 O -0.3151(3) 0.5283(3) 0.3787(3)
O31 O 0.0880(3) 0.7394(3) -0.1555(3)
C8 C -0.4887(5) 1.0416(4) 0.3598(4)
O32 O -0.3046(4) 0.7861(3) 0.5166(3)
C9 C -0.5753(5) 1.3982(4) -0.0973(4)
H1 H -0.6321 1.4023 -0.1187
O33 O -0.3307(3) 1.4276(3) -0.4266(3)
C10 C -0.1888(5) 0.7523(5) 0.1540(4)
H2 H -0.2077 0.6978 0.1564
C11 C -0.2142(5) 0.7975(5) 0.2184(4)
C12 C -0.4902(4) 1.3947(4) 0.0160(4)
H3 H -0.4889 1.3960 0.0722
O34 O -0.3284(4) 1.1725(4) 0.2330(4)
C13 C -0.5724(4) 1.3994(4) -0.0154(4)
C14 C -0.1085(5) 0.9068(5) -0.2399(4)
C15 C -0.4088(5) 1.3880(4) -0.0352(4)
C16 C -0.5706(5) 1.0940(4) 0.3516(4)
H4 H -0.6256 1.0752 0.3786
C17 C -0.4104(5) 1.1480(5) 0.2711(5)
C18 C -0.1354(5) 0.7879(5) 0.0858(4)
C19 C -0.4920(5) 1.2023(5) 0.2618(5)
H5 H -0.4934 1.2568 0.2280
C20 C -0.4111(5) 1.3864(4) -0.1177(4)
H6 H -0.3560 1.3822 -0.1528
C21 C -0.1894(4) 1.0491(4) -0.2946(4)
H7 H -0.2047 1.0241 -0.3375
C22 C -0.4939(5) 1.3910(4) -0.1482(4)
O35 O -0.1072(5) 0.9907(4) 0.1389(4)
C23 C -0.1352(6) 0.9117(6) 0.1462(5)
C24 C -0.4082(5) 1.0680(5) 0.3200(4)
H8 H -0.3521 1.0317 0.3260
C25 C -0.1879(5) 0.8779(5) 0.2148(5)
H9 H -0.2059 0.9089 0.2585
C26 C -0.5721(5) 1.1740(5) 0.3040(4)
C27 C -0.1366(5) 1.0005(5) -0.2377(5)
C28 C -0.2205(5) 1.1334(5) -0.2908(4)
C29 C -0.1095(6) 0.8675(5) 0.0818(5)
H10 H -0.0741 0.8920 0.0348
C30 C -0.2450(6) 1.3668(6) -0.0436(6)
H11 H -0.1970 1.3669 -0.0087
H12 H -0.2397 1.3106 -0.0600
H13 H -0.2384 1.4107 -0.0922
C31 C -0.3259(8) 1.2395(8) 0.1668(7)
H14 H -0.2624 1.2475 0.1481
H15 H -0.3549 1.2257 0.1224
H16 H -0.3586 1.2923 0.1835
C32 C -0.1261(10) 1.0384(8) 0.2014(9)
H17 H -0.1006 1.0925 0.1844
H18 H -0.1922 1.0504 0.2140
H19 H -0.0988 1.0063 0.2499
C33 C -0.1295(12) 1.0316(9) -0.1657(8)
H20 H -0.1006 0.9956 -0.1222
C34 C -0.1650(12) 1.1153(9) -0.1592(9)
C35 C -0.2098(12) 1.1679(8) -0.2221(9)
H21 H -0.2325 1.2258 -0.2184
O36 O -0.1596(10) 1.1538(7) -0.0926(7)
C36 C -0.1381(11) 1.1016(10) -0.0190(8)
H22 H -0.1368 1.1376 0.0221
H23 H -0.1843 1.0630 -0.0003
H24 H -0.0782 1.0679 -0.0273
V1A V -0.62436(9) 1.21826(8) -0.45469(7)
V2A V -0.98175(8) 1.26187(8) 0.15374(8)
V3A V -0.61845(8) 1.38330(8) -0.36777(7)
V4A V -0.60382(8) 0.64391(8) 0.39719(7)
V5A V -0.24982(8) 0.59845(8) -0.21104(7)
V6A V -0.13592(8) 0.58607(8) -0.05516(7)
V7A V -0.40375(9) 1.18944(8) -0.48309(7)
V8A V -0.13520(8) 0.75205(9) -0.30808(7)
O1A O -0.9406(3) 1.2263(3) 0.0433(3)
O2A O -0.6943(3) 0.7364(3) 0.3423(3)
O3A O -0.3472(3) 0.5977(3) -0.1145(3)
O4A O -0.6432(3) 1.3326(3) -0.4468(3)
O5A O -0.9414(3) 1.1335(3) 0.1851(3)
O6A O -0.7032(3) 1.3123(3) -0.2885(3)
O7A O -0.8621(3) 1.1244(3) 0.2929(3)
O8A O -0.3449(3) 0.6936(3) -0.2541(3)
O9A O -0.8592(3) 1.3305(3) -0.0234(3)
O10A O -0.5157(3) 1.2180(3) -0.5170(3)
O11A O -0.2679(3) 0.8008(3) -0.3196(3)
O12A O -0.1687(3) 0.6459(3) -0.2911(3)
O13A O -0.4367(3) 1.0717(3) -0.4338(3)
O14A O -0.5767(3) 0.6278(3) 0.2780(3)
O15A O -0.4229(3) 0.6082(3) 0.2587(3)
O16A O -0.9682(3) 1.3715(3) 0.1060(3)
C1A C -0.7280(5) 1.2412(5) -0.2920(4)
O17A O -0.7090(3) 1.1985(3) -0.3494(3)
O18A O -0.1680(3) 0.5471(3) -0.1402(3)
O19A O -0.5899(3) 1.0915(3) -0.4152(3)
O20A O -0.6176(3) 0.7010(3) 0.4813(3)
O21A O -0.2680(3) 0.5919(3) -0.0072(3)
O22A O -0.4919(3) 0.5834(3) 0.4137(3)
O23A O -0.6909(3) 0.8516(3) 0.4010(3)
C2A C -0.3400(4) 0.5953(4) -0.0395(4)
O24A O -0.3408(3) 1.1666(3) -0.5621(3)
O25A O -0.0977(3) 0.5007(3) 0.0016(3)
C3A C -0.5129(5) 1.0472(4) -0.4069(4)
O26A O -0.2752(3) 0.5213(3) -0.2474(3)
O27A O -0.0307(3) 0.7267(3) -0.2573(3)
C4A C -0.3403(5) 0.7686(5) -0.2924(4)
C5A C -0.5015(5) 0.6149(4) 0.2356(4)
O28A O -0.0970(4) 0.7648(4) -0.4026(3)
O29A O -0.6698(3) 0.6157(4) 0.0007(3)
C6A C -0.8902(5) 1.2596(5) -0.0165(4)
C7A C -0.7166(5) 0.8139(5) 0.3500(4)
O30A O -0.6849(3) 1.4717(3) -0.3787(3)
O31A O -1.0880(3) 1.2606(3) 0.1555(3)
C8A C -0.5113(5) 0.9584(4) -0.3598(4)
O32A O -0.6954(4) 1.2139(3) -0.5166(3)
C9A C -0.4247(5) 0.6018(4) 0.0973(4)
H1A H -0.3679 0.5977 0.1187
O33A O -0.6693(3) 0.5724(3) 0.4266(3)
C10A C -0.8112(5) 1.2477(5) -0.1540(4)
H2A H -0.7923 1.3022 -0.1564
C11A C -0.7858(5) 1.2025(5) -0.2184(4)
C12A C -0.5098(4) 0.6053(4) -0.0160(4)
H3A H -0.5111 0.6040 -0.0722
O34A O -0.6716(4) 0.8275(4) -0.2330(4)
C13A C -0.4276(4) 0.6006(4) 0.0154(4)
C14A C -0.8915(5) 1.0932(5) 0.2399(4)
C15A C -0.5912(5) 0.6120(4) 0.0352(4)
C16A C -0.4294(5) 0.9060(4) -0.3516(4)
H4A H -0.3744 0.9248 -0.3786
C17A C -0.5896(5) 0.8520(5) -0.2711(5)
C18A C -0.8646(5) 1.2121(5) -0.0858(4)
C19A C -0.5080(5) 0.7977(5) -0.2618(5)
H5A H -0.5066 0.7432 -0.2280
C20A C -0.5889(5) 0.6136(4) 0.1177(4)
H6A H -0.6440 0.6178 0.1528
C21A C -0.8106(4) 0.9509(4) 0.2946(4)
H7A H -0.7953 0.9759 0.3375
C22A C -0.5061(5) 0.6090(4) 0.1482(4)
O35A O -0.8928(5) 1.0093(4) -0.1389(4)
C23A C -0.8648(6) 1.0883(6) -0.1462(5)
C24A C -0.5918(5) 0.9320(5) -0.3200(4)
H8A H -0.6479 0.9683 -0.3260
C25A C -0.8121(5) 1.1221(5) -0.2148(5)
H9A H -0.7941 1.0911 -0.2585
C26A C -0.4279(5) 0.8260(5) -0.3040(4)
C27A C -0.8634(5) 0.9995(5) 0.2377(5)
C28A C -0.7795(5) 0.8666(5) 0.2908(4)
C29A C -0.8905(6) 1.1325(5) -0.0818(5)
H10A H -0.9259 1.1080 -0.0348
C30A C -0.7550(6) 0.6332(6) 0.0436(6)
H11A H -0.8030 0.6331 0.0087
H12A H -0.7603 0.6894 0.0600
H13A H -0.7616 0.5893 0.0922
C31A C -0.6741(8) 0.7605(8) -0.1668(7)
H14A H -0.7376 0.7525 -0.1481
H15A H -0.6451 0.7743 -0.1224
H16A H -0.6414 0.7077 -0.1835
C32A C -0.8739(10) 0.9616(8) -0.2014(9)
H17A H -0.8994 0.9075 -0.1844
H18A H -0.8078 0.9496 -0.2140
H19A H -0.9012 0.9937 -0.2499
C33A C -0.8705(12) 0.9684(9) 0.1657(8)
H20A H -0.8994 1.0044 0.1222
C34A C -0.8350(12) 0.8847(9) 0.1592(9)
C35A C -0.7902(12) 0.8321(8) 0.2221(9)
H21A H -0.7675 0.7742 0.2184
O36A O -0.8404(10) 0.8462(7) 0.0926(7)
C36A C -0.8619(11) 0.8984(10) 0.0190(8)
H22A H -0.8632 0.8624 -0.0221
H23A H -0.8157 0.9370 0.0003
H24A H -0.9218 0.9321 0.0273
Cl1 Cl -0.78912(11) 1.25671(11) 0.14597(10)
Cl2 Cl -0.50693(11) 1.22389(11) -0.33479(10)
N1 N -0.5152(5) 1.5903(4) -0.3978(4)
H25 H -0.5165 1.5358 -0.4055
H26 H -0.5201 1.6255 -0.4466
C37 C -0.4297(6) 1.5958(6) -0.3684(5)
H27 H -0.3793 1.5792 -0.4082
H28 H -0.4279 1.6546 -0.3609
H29 H -0.4239 1.5572 -0.3163
C38 C -0.5932(6) 1.6151(6) -0.3388(7)
H30 H -0.6504 1.6109 -0.3600
H31 H -0.5884 1.5766 -0.2865
H32 H -0.5923 1.6741 -0.3311
N2 N -0.1630(8) 0.9182(9) -0.5008(7)
H33 H -0.1819 0.8740 -0.4636
H34 H -0.1199 0.9394 -0.4793
C39 C -0.2334(8) 0.9791(9) -0.5131(7)
H35 H -0.2578 0.9979 -0.4613
H36 H -0.2134 1.0278 -0.5520
H37 H -0.2810 0.9565 -0.5350
C40 C -0.1212(10) 0.8855(12) -0.5748(9)
H38 H -0.0700 0.8411 -0.5612
H39 H -0.1666 0.8611 -0.5977
H40 H -0.0990 0.9324 -0.6148
Cl3 Cl 0.0439(3) 1.5597(2) -0.3876(2)
N3 N 0.0709(8) 1.5206(6) -0.2018(6)
H41 H 0.0425 1.5550 -0.1661
H42 H 0.0590 1.5476 -0.2527
C41 C 0.0298(9) 1.4399(7) -0.1844(8)
H43 H -0.0358 1.4527 -0.1893
H44 H 0.0581 1.4027 -0.2235
H45 H 0.0400 1.4108 -0.1290
C42 C 0.1704(11) 1.5128(9) -0.1971(7)
H46 H 0.1900 1.5698 -0.2096
H47 H 0.1846 1.4858 -0.1420
H48 H 0.2026 1.4776 -0.2365
O37 O -0.0714(10) 1.2445(9) -0.4405(9)
N4 N -0.0924(11) 1.3083(11) -0.3257(9)
C43 C -0.1103(13) 1.3003(13) -0.3989(9)
H49 H -0.1572 1.3406 -0.4226
C44 C -0.0223(14) 1.2493(15) -0.2821(14)
H50 H -0.0194 1.2659 -0.2292
H51 H -0.0376 1.1908 -0.2738
H52 H 0.0370 1.2519 -0.3144
C45 C -0.1435(15) 1.3751(13) -0.2846(12)
H53 H -0.1213 1.3715 -0.2314
H54 H -0.1356 1.4310 -0.3176
H55 H -0.2082 1.3679 -0.2771
O38 O -0.0981(6) 1.2543(6) -0.5991(5)
O39 O -0.171(2) 1.250(2) -0.658(2)
N5 N -0.1521(11) 1.6212(9) -0.4704(8)
H56 H -0.1088 1.6177 -0.4358
H57 H -0.1974 1.6627 -0.4573
C46 C -0.1891(8) 1.5428(11) -0.4522(9)
H58 H -0.2132 1.5329 -0.3947
H59 H -0.2384 1.5453 -0.4865
H60 H -0.1413 1.4959 -0.4629
C47 C -0.1108(9) 1.6523(9) -0.5532(7)
H61 H -0.0891 1.7072 -0.5540
H62 H -0.0595 1.6104 -0.5684
H63 H -0.1565 1.6598 -0.5920
O40 O -0.4171(18) 1.0235(18) -0.1921(16)
C48? C -0.313(2) 1.371(2) 0.072(2)
H64? H -0.2481 1.3729 0.0738
H65? H -0.3493 1.4146 0.1004
H66? H -0.3282 1.3141 0.0980
C49? C -0.254(3) 1.140(3) 0.241(2)
H67? H -0.2112 1.1734 0.2052
H68? H -0.2421 1.1363 0.2981
H69? H -0.2469 1.0819 0.2280
C50? C -0.105(3) 1.054(3) 0.066(2)
H70? H -0.0827 1.1045 0.0761
H71? H -0.0650 1.0296 0.0223
H72? H -0.1670 1.0694 0.0487
C51? C -0.182(2) 1.1757(17) -0.2418(18)
H73? H -0.1940 1.2362 -0.2464
C52? C -0.1243(15) 1.1280(16) -0.1856(14)
C53? C -0.097(2) 1.0420(17) -0.1886(17)
H74? H -0.0500 1.0114 -0.1569
O41? O -0.0897(17) 1.1623(13) -0.1237(15)
C54? C -0.118(3) 1.2487(18) -0.115(3)
H75? H -0.0890 1.2621 -0.0705
H76? H -0.1012 1.2862 -0.1658
H77? H -0.1847 1.2575 -0.1022
H78? H -0.2506 1.0349 -0.4954
H79? H -0.2739 0.9733 -0.5529
H80? H -0.2389 0.9334 -0.4659
H81? H -0.0589 0.8751 -0.6007
H82? H -0.1296 0.8422 -0.5260
H83? H -0.1646 0.8821 -0.6130
N6? N -0.1373(18) 0.973(2) -0.551(3)
H84? H -0.0983 0.9773 -0.5151
H85? H -0.1307 1.0142 -0.5957
Cl4? Cl -0.0176(5) 1.0529(5) -0.5294(6)
O42? O -0.1849(14) 1.3045(14) -0.6290(12)
O43? O -0.1419(15) 1.2626(14) -0.5095(13)
O44? O -0.0955(18) 1.1625(18) -0.5985(16)
O45? O -0.065(3) 1.104(3) -0.606(2)
O46? O -0.3901(11) 1.0293(11) 0.0361(10)
O47? O -0.3646(18) 0.9848(18) 0.0520(15)
C55? C -0.173(2) 1.5897(18) -0.5297(14)
H86? H -0.1753 1.6520 -0.5441
H87? H -0.1286 1.5623 -0.5685
H88? H -0.2330 1.5734 -0.5316
C56? C -0.133(4) 1.473(3) -0.403(3)
H89? H -0.1136 1.4725 -0.3494
H90? H -0.1905 1.4498 -0.3973
H91? H -0.0860 1.4387 -0.4343
N7? N -0.144(5) 1.562(3) -0.447(2)
H92? H -0.0903 1.5813 -0.4475
H93? H -0.1853 1.5914 -0.4139
O48? O -0.378(3) 0.955(3) -0.161(3)
O49? O -0.443(3) 1.158(3) -0.125(2)
O50? O -0.435(3) 0.832(3) -0.059(3)
O51? O -0.467(3) 1.079(3) -0.130(3)
O52? O -0.426(3) 0.822(3) 0.125(3)
O53? O -0.368(4) 0.828(4) 0.003(3)
O54? O -0.451(4) 0.849(3) 0.041(3)
O55? O -0.369(4) 0.901(4) -0.081(4)
loop_
_geom_bond_atom_site_label_1
_geom_bond_atom_site_label_2
_geom_bond_site_symmetry_1
_geom_bond_site_symmetry_2
V1 O4 1_555 1_555
V2 O1 1_555 1_555
V3 O4 1_555 1_555
V4 O2 1_555 1_555
V5 O3 1_555 1_555
V6 O18 1_555 1_555
V7 O10 1_555 1_555
V8 O11 1_555 1_555
O1 C6 1_555 1_555
O2 C7 1_555 1_555
O3 C2 1_555 1_555
O5 V2 1_555 1_555
O6 V3 1_555 1_555
O7 C14 1_555 1_555
O8 V5 1_555 1_555
O9 C6 1_555 1_555
O10 V1 1_555 1_555
O11 C4 1_555 1_555
O12 V5 1_555 1_555
O13 V7 1_555 1_555
O14 V4 1_555 1_555
O15 C5 1_555 1_555
O16 V2 1_555 1_555
C1 O6 1_555 1_555
O17 V1 1_555 1_555
O18 V5 1_555 1_555
O19 V1 1_555 1_555
O20 V4 1_555 1_555
O21 V6 1_555 1_555
O22 V4 1_555 1_555
O23 C7 1_555 1_555
C2 O21 1_555 1_555
O24 V7 1_555 1_555
O25 V6 1_555 1_555
C3 O13 1_555 1_555
O26 V5 1_555 1_555
O27 V8 1_555 1_555
C4 O8 1_555 1_555
C5 O14 1_555 1_555
O28 V8 1_555 1_555
O29 C15 1_555 1_555
C6 C18 1_555 1_555
C7 C28 1_555 1_555
O30 V3 1_555 1_555
O31 V2 1_555 1_555
C8 C3 1_555 1_555
O32 V1 1_555 1_555
C9 H1 1_555 1_555
O33 V4 1_555 1_555
C10 H2 1_555 1_555
C11 C1 1_555 1_555
C12 H3 1_555 1_555
O34 C17 1_555 1_555
C13 C2 1_555 1_555
C14 O5 1_555 1_555
C15 C12 1_555 1_555
C16 C8 1_555 1_555
H4 C16 1_555 1_555
C17 C19 1_555 1_555
C18 C10 1_555 1_555
C19 H5 1_555 1_555
C20 C15 1_555 1_555
H6 C20 1_555 1_555
C21 H7 1_555 1_555
C22 C5 1_555 1_555
O35 C23 1_555 1_555
C23 C25 1_555 1_555
C24 C8 1_555 1_555
H8 C24 1_555 1_555
C25 C11 1_555 1_555
H9 C25 1_555 1_555
C26 C4 1_555 1_555
C27 C14 1_555 1_555
C28 C21 1_555 1_555
C29 C18 1_555 1_555
H10 C29 1_555 1_555
C30 O29 1_555 1_555
H11 C30 1_555 1_555
H12 C30 1_555 1_555
H13 C30 1_555 1_555
C31 O34 1_555 1_555
H14 C31 1_555 1_555
H15 C31 1_555 1_555
H16 C31 1_555 1_555
C32 O35 1_555 1_555
H17 C32 1_555 1_555
H18 C32 1_555 1_555
H19 C32 1_555 1_555
C33 C27 1_555 1_555
H20 C33 1_555 1_555
C34 C33 1_555 1_555
C35 C28 1_555 1_555
H21 C35 1_555 1_555
O36 C34 1_555 1_555
C36 O36 1_555 1_555
H22 C36 1_555 1_555
H23 C36 1_555 1_555
H24 C36 1_555 1_555
N1 H25 1_555 1_555
H26 N1 1_555 1_555
C37 N1 1_555 1_555
H27 C37 1_555 1_555
H28 C37 1_555 1_555
H29 C37 1_555 1_555
C38 N1 1_555 1_555
H30 C38 1_555 1_555
H31 C38 1_555 1_555
H32 C38 1_555 1_555
N2 H33 1_555 1_555
H34 N2 1_555 1_555
C39 N2 1_555 1_555
H35 C39 1_555 1_555
H36 C39 1_555 1_555
H37 C39 1_555 1_555
C40 N2 1_555 1_555
H38 C40 1_555 1_555
H39 C40 1_555 1_555
H40 C40 1_555 1_555
N3 H41 1_555 1_555
H42 N3 1_555 1_555
C41 N3 1_555 1_555
H43 C41 1_555 1_555
H44 C41 1_555 1_555
H45 C41 1_555 1_555
C42 N3 1_555 1_555
H46 C42 1_555 1_555
H47 C42 1_555 1_555
H48 C42 1_555 1_555
O37 C43 1_555 1_555
N4 C43 1_555 1_555
C43 H49 1_555 1_555
C44 N4 1_555 1_555
H50 C44 1_555 1_555
H51 C44 1_555 1_555
H52 C44 1_555 1_555
C45 N4 1_555 1_555
H53 C45 1_555 1_555
H54 C45 1_555 1_555
H55 C45 1_555 1_555
N5 H56 1_555 1_555
H57 N5 1_555 1_555
C46 N5 1_555 1_555
H58 C46 1_555 1_555
H59 C46 1_555 1_555
H60 C46 1_555 1_555
C47 N5 1_555 1_555
H61 C47 1_555 1_555
H62 C47 1_555 1_555
H63 C47 1_555 1_555
V1A O4A 1_555 1_555
V2A O27 1_555 1_555
V3A O15 1_555 1_555
V4A O2A 1_555 1_555
V5A O3A 1_555 1_555
V6A O9 1_555 1_555
V7A O20 1_555 1_555
V8A O7 1_555 1_555
O1A V2A 1_555 1_555
O2A C7A 1_555 1_555
O3A C2A 1_555 1_555
O4A V3A 1_555 1_555
O5A V2A 1_555 1_555
O6A V3A 1_555 1_555
O7A V8 1_555 1_555
O8A V5A 1_555 1_555
O9A V6 1_555 1_555
O10A V1A 1_555 1_555
O11A V8A 1_555 1_555
O12A V5A 1_555 1_555
O13A V7A 1_555 1_555
O14A V4A 1_555 1_555
O15A V3 1_555 1_555
O16A V6 1_555 1_555
C1A O6A 1_555 1_555
O17A V1A 1_555 1_555
O18A V5A 1_555 1_555
O19A V1A 1_555 1_555
O20A V7 1_555 1_555
O21A V6A 1_555 1_555
O22A V3 1_555 1_555
O23A V7 1_555 1_555
C2A O21A 1_555 1_555
O24A V7A 1_555 1_555
O25A V6A 1_555 1_555
C3A O13A 1_555 1_555
O26A V5A 1_555 1_555
O27A V2 1_555 1_555
C4A O8A 1_555 1_555
C5A O14A 1_555 1_555
O28A V8A 1_555 1_555
O29A C15A 1_555 1_555
C6A O1A 1_555 1_555
C7A O23A 1_555 1_555
O30A V3A 1_555 1_555
O31A V2A 1_555 1_555
C8A C3A 1_555 1_555
O32A V1A 1_555 1_555
C9A H1A 1_555 1_555
O33A V4A 1_555 1_555
C10A H2A 1_555 1_555
C11A C1A 1_555 1_555
C12A H3A 1_555 1_555
O34A C17A 1_555 1_555
C13A C2A 1_555 1_555
C14A O5A 1_555 1_555
C15A C12A 1_555 1_555
C16A C8A 1_555 1_555
H4A C16A 1_555 1_555
C17A C19A 1_555 1_555
C18A C6A 1_555 1_555
C19A H5A 1_555 1_555
C20A C15A 1_555 1_555
H6A C20A 1_555 1_555
C21A H7A 1_555 1_555
C22A C5A 1_555 1_555
O35A C23A 1_555 1_555
C23A C25A 1_555 1_555
C24A C8A 1_555 1_555
H8A C24A 1_555 1_555
C25A C11A 1_555 1_555
H9A C25A 1_555 1_555
C26A C4A 1_555 1_555
C27A C14A 1_555 1_555
C28A C7A 1_555 1_555
C29A C18A 1_555 1_555
H10A C29A 1_555 1_555
C30A O29A 1_555 1_555
H11A C30A 1_555 1_555
H12A C30A 1_555 1_555
H13A C30A 1_555 1_555
C31A O34A 1_555 1_555
H14A C31A 1_555 1_555
H15A C31A 1_555 1_555
H16A C31A 1_555 1_555
C32A O35A 1_555 1_555
H17A C32A 1_555 1_555
H18A C32A 1_555 1_555
H19A C32A 1_555 1_555
C33A C27A 1_555 1_555
H20A C33A 1_555 1_555
C34A C33A 1_555 1_555
C35A C28A 1_555 1_555
H21A C35A 1_555 1_555
O36A C34A 1_555 1_555
C36A O36A 1_555 1_555
H22A C36A 1_555 1_555
H23A C36A 1_555 1_555
H24A C36A 1_555 1_555
V8 O12 1_555 1_555
O16 V6A 1_555 1_555
C1 O17 1_555 1_555
O19 C3 1_555 1_555
O22 V3A 1_555 1_555
O23 V7A 1_555 1_555
C9 C13 1_555 1_555
C9 C22 1_555 1_555
C10 C11 1_555 1_555
C12 C13 1_555 1_555
C16 C26 1_555 1_555
C17 C24 1_555 1_555
C19 C26 1_555 1_555
C20 C22 1_555 1_555
C21 C27 1_555 1_555
C23 C29 1_555 1_555
C34 C35 1_555 1_555
V2A O16A 1_555 1_555
V4A O20A 1_555 1_555
V4A O22A 1_555 1_555
V6A O18A 1_555 1_555
V7A O10A 1_555 1_555
V8A O12A 1_555 1_555
V8A O27A 1_555 1_555
O7A C14A 1_555 1_555
O9A C6A 1_555 1_555
O11A C4A 1_555 1_555
O15A C5A 1_555 1_555
C1A O17A 1_555 1_555
O19A C3A 1_555 1_555
C9A C13A 1_555 1_555
C9A C22A 1_555 1_555
C10A C11A 1_555 1_555
C10A C18A 1_555 1_555
C12A C13A 1_555 1_555
C16A C26A 1_555 1_555
C17A C24A 1_555 1_555
C19A C26A 1_555 1_555
C20A C22A 1_555 1_555
C21A C27A 1_555 1_555
C21A C28A 1_555 1_555
C23A C29A 1_555 1_555
C34A C35A 1_555 1_555

#END
