# generated using pymatgen
data_B4H99Pd2C215N42(O11F23)2
_symmetry_space_group_name_H-M   'P 1'
_cell_length_a   22.43300000
_cell_length_b   22.98300000
_cell_length_c   24.04000000
_cell_angle_alpha   81.46000000
_cell_angle_beta   86.33000000
_cell_angle_gamma   87.06000000
_symmetry_Int_Tables_number   1
_chemical_formula_structural   B4H99Pd2C215N42(O11F23)2
_chemical_formula_sum   'B8 H198 Pd4 C430 N84 O44 F92'
_cell_volume   12220.95693779
_cell_formula_units_Z   2
loop_
 _symmetry_equiv_pos_site_id
 _symmetry_equiv_pos_as_xyz
  1  'x, y, z'
loop_
 _atom_site_type_symbol
 _atom_site_label
 _atom_site_symmetry_multiplicity
 _atom_site_fract_x
 _atom_site_fract_y
 _atom_site_fract_z
 _atom_site_occupancy
  B  B1  1  0.698700  0.500500  0.685200  1
  B  B2  1  0.301300  0.499500  0.314800  1
  B  B3  1  0.655000  0.974600  0.462500  1
  B  B4  1  0.345000  0.025400  0.537500  1
  B  B5  1  0.199500  0.520000  0.831300  1
  B  B6  1  0.800500  0.480000  0.168700  1
  B  B7  1  0.069700  0.822200  0.967800  1
  B  B8  1  0.930300  0.177800  0.032200  1
  H  H9  1  0.396800  0.933600  0.318600  1
  H  H10  1  0.603200  0.066400  0.681400  1
  H  H11  1  0.394100  0.999000  0.384300  1
  H  H12  1  0.605900  0.001000  0.615700  1
  H  H13  1  0.386900  0.955700  0.479900  1
  H  H14  1  0.613100  0.044300  0.520100  1
  H  H15  1  0.575300  0.252400  0.351700  1.0
  H  H16  1  0.424700  0.747600  0.648300  1.0
  H  H17  1  0.698300  0.125100  0.355400  1.0
  H  H18  1  0.301700  0.874900  0.644600  1.0
  H  H19  1  0.720600  0.148600  0.260100  1.0
  H  H20  1  0.279400  0.851400  0.739900  1.0
  H  H21  1  0.665900  0.224800  0.208900  1.0
  H  H22  1  0.334100  0.775200  0.791100  1.0
  H  H23  1  0.543400  0.921200  0.653700  1.0
  H  H24  1  0.456600  0.078800  0.346300  1.0
  H  H25  1  0.613100  0.199400  0.558600  1.0
  H  H26  1  0.386900  0.800600  0.441400  1.0
  H  H27  1  0.462000  0.987800  0.402200  1.0
  H  H28  1  0.538000  0.012200  0.597800  1.0
  H  H29  1  0.688000  0.263200  0.441400  1.0
  H  H30  1  0.312000  0.736800  0.558600  1.0
  H  H31  1  0.727600  0.093000  0.480200  1.0
  H  H32  1  0.272400  0.907000  0.519800  1.0
  H  H33  1  0.825100  0.111500  0.486800  1.0
  H  H34  1  0.174900  0.888500  0.513200  1.0
  H  H35  1  0.858600  0.206000  0.462400  1.0
  H  H36  1  0.141400  0.794000  0.537600  1.0
  H  H37  1  0.626500  0.882500  0.602900  1.0
  H  H38  1  0.373500  0.117500  0.397100  1.0
  H  H39  1  0.551900  0.100100  0.364400  1.0
  H  H40  1  0.448100  0.899900  0.635600  1.0
  H  H41  1  0.491200  0.194000  0.481100  1.0
  H  H42  1  0.508800  0.806000  0.518900  1.0
  H  H43  1  0.409500  0.362400  0.216300  1.0
  H  H44  1  0.590500  0.637600  0.783700  1.0
  H  H45  1  0.588000  0.437300  0.123300  1.0
  H  H46  1  0.412000  0.562700  0.876700  1.0
  H  H47  1  0.294800  0.710400  0.278200  1.0
  H  H48  1  0.705200  0.289600  0.721800  1.0
  H  H49  1  0.472000  0.785600  0.183300  1.0
  H  H50  1  0.528000  0.214400  0.816700  1.0
  H  H51  1  0.784400  0.444100  0.306800  1.0
  H  H52  1  0.215600  0.555900  0.693200  1.0
  H  H53  1  0.919600  0.422000  0.452300  1.0
  H  H54  1  0.080400  0.578000  0.547700  1.0
  H  H55  1  0.683000  0.793600  0.358100  1.0
  H  H56  1  0.317000  0.206400  0.641900  1.0
  H  H57  1  0.799900  0.763800  0.518500  1.0
  H  H58  1  0.200100  0.236200  0.481500  1.0
  H  H59  1  0.354100  0.443700  0.131500  1.0
  H  H60  1  0.645900  0.556300  0.868500  1.0
  H  H61  1  0.427000  0.441100  0.047400  1.0
  H  H62  1  0.573000  0.558900  0.952600  1.0
  H  H63  1  0.398000  0.506200  0.043400  1.0
  H  H64  1  0.602000  0.493800  0.956600  1.0
  H  H65  1  0.508900  0.509400  0.053100  1.0
  H  H66  1  0.491100  0.490600  0.946900  1.0
  H  H67  1  0.398400  0.515700  0.191600  1.0
  H  H68  1  0.601600  0.484300  0.808400  1.0
  H  H69  1  0.486500  0.550700  0.148800  1.0
  H  H70  1  0.513500  0.449300  0.851200  1.0
  H  H71  1  0.370300  0.604700  0.206900  1.0
  H  H72  1  0.629700  0.395300  0.793100  1.0
  H  H73  1  0.456900  0.642400  0.162800  1.0
  H  H74  1  0.543100  0.357600  0.837200  1.0
  H  H75  1  0.278600  0.668900  0.172900  1.0
  H  H76  1  0.721400  0.331100  0.827100  1.0
  H  H77  1  0.319800  0.751500  0.102200  1.0
  H  H78  1  0.680200  0.248500  0.897800  1.0
  H  H79  1  0.332600  0.691800  0.076600  1.0
  H  H80  1  0.667400  0.308200  0.923400  1.0
  H  H81  1  0.432600  0.735100  0.090800  1.0
  H  H82  1  0.567400  0.264900  0.909200  1.0
  H  H83  1  0.857000  0.541300  0.260200  1.0
  H  H84  1  0.143000  0.458700  0.739800  1.0
  H  H85  1  0.954300  0.574400  0.289300  1.0
  H  H86  1  0.045700  0.425600  0.710700  1.0
  H  H87  1  0.958500  0.504900  0.290400  1.0
  H  H88  1  0.041500  0.495100  0.709600  1.0
  H  H89  1  0.969900  0.524700  0.388700  1.0
  H  H90  1  0.030100  0.475300  0.611300  1.0
  H  H91  1  0.802400  0.580600  0.347300  1.0
  H  H92  1  0.197600  0.419400  0.652700  1.0
  H  H93  1  0.865400  0.567400  0.420600  1.0
  H  H94  1  0.134600  0.432600  0.579400  1.0
  H  H95  1  0.776100  0.669500  0.359500  1.0
  H  H96  1  0.223900  0.330500  0.640500  1.0
  H  H97  1  0.833300  0.656900  0.436100  1.0
  H  H98  1  0.166700  0.343100  0.563900  1.0
  H  H99  1  0.793200  0.772100  0.299200  1.0
  H  H100  1  0.206800  0.227900  0.700800  1.0
  H  H101  1  0.900000  0.764700  0.330300  1.0
  H  H102  1  0.100000  0.235300  0.669700  1.0
  H  H103  1  0.865700  0.819800  0.352600  1.0
  H  H104  1  0.134300  0.180200  0.647400  1.0
  H  H105  1  0.895700  0.749400  0.436700  1.0
  H  H106  1  0.104300  0.250600  0.563300  1.0
  H  H107  1  0.458400  0.931600  0.331800  1.0
  H  H108  1  0.541600  0.068400  0.668200  1.0
  H  H109  1  0.553100  0.054900  0.505800  1.0
  H  H110  1  0.446900  0.945100  0.494200  1.0
  H  H111  1  0.102700  0.765500  0.835100  1.0
  H  H112  1  0.897300  0.234500  0.164900  1.0
  H  H113  1  0.230500  0.643800  0.832600  1.0
  H  H114  1  0.769500  0.356200  0.167400  1.0
  H  H115  1  0.254000  0.674400  0.738000  1.0
  H  H116  1  0.746000  0.325600  0.262000  1.0
  H  H117  1  0.197000  0.751400  0.689900  1.0
  H  H118  1  0.803000  0.248600  0.310100  1.0
  H  H119  1  0.931800  0.868800  0.706100  1.0
  H  H120  1  0.068200  0.131200  0.293900  1.0
  H  H121  1  0.102200  0.963000  0.613100  1.0
  H  H122  1  0.897800  0.037000  0.386900  1.0
  H  H123  1  0.790700  0.197800  0.795200  1.0
  H  H124  1  0.209300  0.802200  0.204800  1.0
  H  H125  1  0.954400  0.298600  0.698500  1.0
  H  H126  1  0.045600  0.701400  0.301500  1.0
  H  H127  1  0.896700  0.438800  0.848400  1.0
  H  H128  1  0.103300  0.561200  0.151600  1.0
  H  H129  1  0.892200  0.494400  0.923000  1.0
  H  H130  1  0.107800  0.505600  0.077000  1.0
  H  H131  1  0.123900  0.551300  0.986800  1.0
  H  H132  1  0.876100  0.448700  0.013200  1.0
  H  H133  1  0.127500  0.705000  0.036900  1.0
  H  H134  1  0.872500  0.295000  0.963100  1.0
  H  H135  1  0.218100  0.771700  0.928300  1.0
  H  H136  1  0.781900  0.228300  0.071700  1.0
  H  H137  1  0.257600  0.601200  0.952600  1.0
  H  H138  1  0.742400  0.398800  0.047400  1.0
  H  H139  1  0.356200  0.617700  0.960700  1.0
  H  H140  1  0.643800  0.382300  0.039300  1.0
  H  H141  1  0.388700  0.714100  0.946200  1.0
  H  H142  1  0.611300  0.285900  0.053800  1.0
  H  H143  1  0.313600  0.965200  0.813600  1.0
  H  H144  1  0.686400  0.034800  0.186400  1.0
  H  H145  1  0.431100  0.934400  0.972600  1.0
  H  H146  1  0.568900  0.065600  0.027400  1.0
  H  H147  1  0.169600  0.292700  0.896300  1.0
  H  H148  1  0.830400  0.707300  0.103700  1.0
  H  H149  1  0.272300  0.262300  0.064600  1.0
  H  H150  1  0.727700  0.737700  0.935400  1.0
  H  H151  1  0.090100  0.386000  0.128200  1.0
  H  H152  1  0.909900  0.614000  0.871800  1.0
  H  H153  1  0.004200  0.428100  0.169400  1.0
  H  H154  1  0.995800  0.571900  0.830600  1.0
  H  H155  1  0.088600  0.595300  0.853900  1.0
  H  H156  1  0.911400  0.404700  0.146100  1.0
  H  H157  1  0.017900  0.704200  0.952600  1.0
  H  H158  1  0.982100  0.295800  0.047400  1.0
  H  H159  1  0.868400  0.951400  0.628400  1.0
  H  H160  1  0.131600  0.048600  0.371600  1.0
  H  H161  1  0.941400  0.958200  0.542600  1.0
  H  H162  1  0.058600  0.041800  0.457400  1.0
  H  H163  1  0.906000  0.020200  0.541500  1.0
  H  H164  1  0.094000  0.979800  0.458500  1.0
  H  H165  1  0.015100  0.033500  0.550400  1.0
  H  H166  1  0.984900  0.966500  0.449600  1.0
  H  H167  1  0.908800  0.021200  0.691900  1.0
  H  H168  1  0.091200  0.978800  0.308100  1.0
  H  H169  1  0.991500  0.066000  0.649000  1.0
  H  H170  1  0.008500  0.934000  0.351000  1.0
  H  H171  1  0.872500  0.105800  0.715100  1.0
  H  H172  1  0.127500  0.894200  0.284900  1.0
  H  H173  1  0.954400  0.153900  0.670600  1.0
  H  H174  1  0.045600  0.846100  0.329400  1.0
  H  H175  1  0.775100  0.164500  0.688000  1.0
  H  H176  1  0.224900  0.835500  0.312000  1.0
  H  H177  1  0.823800  0.198400  0.591100  1.0
  H  H178  1  0.176200  0.801600  0.408900  1.0
  H  H179  1  0.806600  0.254300  0.621800  1.0
  H  H180  1  0.193400  0.745700  0.378200  1.0
  H  H181  1  0.918400  0.248600  0.605300  1.0
  H  H182  1  0.081600  0.751400  0.394700  1.0
  H  H183  1  0.380000  0.070100  0.786400  1.0
  H  H184  1  0.620000  0.929900  0.213600  1.0
  H  H185  1  0.468100  0.105800  0.830100  1.0
  H  H186  1  0.531900  0.894200  0.169900  1.0
  H  H187  1  0.479900  0.038200  0.823700  1.0
  H  H188  1  0.520100  0.961800  0.176300  1.0
  H  H189  1  0.476400  0.046200  0.927500  1.0
  H  H190  1  0.523600  0.953800  0.072500  1.0
  H  H191  1  0.312100  0.093100  0.872700  1.0
  H  H192  1  0.687900  0.906900  0.127300  1.0
  H  H193  1  0.365000  0.077000  0.952300  1.0
  H  H194  1  0.635000  0.923000  0.047700  1.0
  H  H195  1  0.274200  0.177300  0.895000  1.0
  H  H196  1  0.725800  0.822700  0.105000  1.0
  H  H197  1  0.325000  0.161900  0.975200  1.0
  H  H198  1  0.675000  0.838100  0.024800  1.0
  H  H199  1  0.286700  0.285000  0.843900  1.0
  H  H200  1  0.713300  0.715000  0.156100  1.0
  H  H201  1  0.388600  0.283800  0.883700  1.0
  H  H202  1  0.611400  0.716200  0.116300  1.0
  H  H203  1  0.346200  0.332700  0.908400  1.0
  H  H204  1  0.653800  0.667300  0.091600  1.0
  H  H205  1  0.375700  0.257700  0.988700  1.0
  H  H206  1  0.624300  0.742300  0.011300  1.0
  Pd  Pd207  1  0.613880  0.160120  0.444440  1.0
  Pd  Pd208  1  0.386120  0.839880  0.555560  1.0
  Pd  Pd209  1  0.144800  0.668710  0.923200  1.0
  Pd  Pd210  1  0.855200  0.331290  0.076800  1.0
  C  C211  1  0.929000  0.307900  0.327500  1
  C  C212  1  0.071000  0.692100  0.672500  1
  C  C213  1  0.941800  0.354100  0.281000  1
  C  C214  1  0.058200  0.645900  0.719000  1
  C  C215  1  0.532900  0.173300  0.169600  1
  C  C216  1  0.467100  0.826700  0.830400  1
  C  C217  1  0.500200  0.116500  0.183500  1
  C  C218  1  0.499800  0.883500  0.816500  1
  C  C219  1  0.700300  0.531300  0.044100  1
  C  C220  1  0.299700  0.468700  0.955900  1
  C  C221  1  0.749000  0.564000  0.027800  1
  C  C222  1  0.251000  0.436000  0.972200  1
  C  C223  1  0.589800  0.412300  0.330400  1
  C  C224  1  0.410200  0.587700  0.669600  1
  C  C225  1  0.640600  0.449200  0.326800  1
  C  C226  1  0.359400  0.550800  0.673200  1
  C  C227  1  0.554300  0.331100  0.471700  1
  C  C228  1  0.445700  0.668900  0.528300  1
  C  C229  1  0.533600  0.391100  0.478800  1
  C  C230  1  0.466400  0.608900  0.521200  1
  C  C231  1  0.491600  0.301200  0.622800  1
  C  C232  1  0.508400  0.698800  0.377200  1
  C  C233  1  0.427000  0.299400  0.629800  1
  C  C234  1  0.573000  0.700600  0.370200  1
  C  C235  1  0.905400  0.517400  0.742600  1
  C  C236  1  0.094600  0.482600  0.257400  1
  C  C237  1  0.898400  0.488600  0.693400  1
  C  C238  1  0.101600  0.511400  0.306600  1
  C  C239  1  0.957900  0.664600  0.598400  1
  C  C240  1  0.042100  0.335400  0.401600  1
  C  C241  1  0.971400  0.710800  0.556200  1
  C  C242  1  0.028600  0.289200  0.443800  1
  C  C243  1  0.796300  0.624600  0.572600  1
  C  C244  1  0.203700  0.375400  0.427400  1
  C  C245  1  0.775700  0.649100  0.622900  1
  C  C246  1  0.224300  0.350900  0.377100  1
  C  C247  1  0.587000  0.988500  0.311600  1
  C  C248  1  0.413000  0.011500  0.688400  1
  C  C249  1  0.590600  0.930300  0.336700  1
  C  C250  1  0.409400  0.069700  0.663300  1
  C  C251  1  0.071900  0.446400  0.933800  1
  C  C252  1  0.928100  0.553600  0.066200  1
  C  C253  1  0.056800  0.438100  0.880000  1
  C  C254  1  0.943200  0.561900  0.120000  1
  C  C255  1  0.604600  0.670400  0.569500  1
  C  C256  1  0.395400  0.329600  0.430500  1
  C  C257  1  0.606500  0.651600  0.634700  1
  C  C258  1  0.393500  0.348400  0.365300  1
  C  C259  1  0.690700  0.382700  0.527700  1
  C  C260  1  0.309300  0.617300  0.472300  1
  C  C261  1  0.681000  0.365700  0.590500  1
  C  C262  1  0.319000  0.634300  0.409500  1
  C  C263  1  0.678500  0.592900  0.270400  1
  C  C264  1  0.321500  0.407100  0.729600  1
  C  C265  1  0.669100  0.584400  0.217200  1
  C  C266  1  0.330900  0.415600  0.782800  1
  C  C267  1  0.494800  0.562900  0.292000  1
  C  C268  1  0.505200  0.437100  0.708000  1
  C  C269  1  0.467800  0.539300  0.345800  1
  C  C270  1  0.532200  0.460700  0.654200  1
  C  C271  1  0.627200  0.547100  0.450600  1
  C  C272  1  0.372800  0.452900  0.549400  1
  C  C273  1  0.682200  0.551500  0.471300  1
  C  C274  1  0.317800  0.448500  0.528700  1
  C  C275  1  0.885600  0.476400  0.546300  1
  C  C276  1  0.114400  0.523600  0.453700  1
  C  C277  1  0.826600  0.453000  0.559100  1
  C  C278  1  0.173400  0.547000  0.440900  1
  C  C279  1  0.409000  0.240500  0.113500  1
  C  C280  1  0.591000  0.759500  0.886500  1
  C  C281  1  0.382800  0.197500  0.133100  1
  C  C282  1  0.617200  0.802500  0.866900  1
  C  C283  1  0.871900  0.759500  0.664000  1
  C  C284  1  0.128100  0.240500  0.336000  1
  C  C285  1  0.885300  0.728600  0.729900  1
  C  C286  1  0.114700  0.271400  0.270100  1
  C  C287  1  0.245200  0.036000  0.719200  1
  C  C288  1  0.754800  0.964000  0.280800  1
  C  C289  1  0.232800  0.999700  0.674800  1
  C  C290  1  0.767200  0.000300  0.325200  1
  C  C291  1  0.836700  0.914800  0.465600  1
  C  C292  1  0.163300  0.085200  0.534400  1
  C  C293  1  0.812300  0.912200  0.513600  1
  C  C294  1  0.187700  0.087800  0.486400  1
  C  C295  1  0.145600  0.931900  0.834500  1
  C  C296  1  0.854400  0.068100  0.165500  1
  C  C297  1  0.167300  0.949000  0.881400  1
  C  C298  1  0.832700  0.051000  0.118600  1
  C  C299  1  0.020000  0.203100  0.825700  1
  C  C300  1  0.980000  0.796900  0.174300  1
  C  C301  1  0.036200  0.238100  0.865200  1
  C  C302  1  0.963800  0.761900  0.134800  1
  C  C303  1  0.349800  0.886900  0.104900  1
  C  C304  1  0.650200  0.113100  0.895100  1
  C  C305  1  0.085300  0.829500  0.955200  1
  C  C306  1  0.914700  0.170500  0.044800  1
  C  C307  1  0.051600  0.879400  0.962200  1
  C  C308  1  0.948400  0.120600  0.037800  1
  C  C309  1  0.831900  0.403400  0.603700  1
  C  C310  1  0.168100  0.596600  0.396300  1
  C  C311  1  0.389200  0.317100  0.084400  1
  C  C312  1  0.610800  0.682900  0.915600  1
  C  C313  1  0.344900  0.348800  0.076400  1
  C  C314  1  0.655100  0.651200  0.923600  1
  C  C315  1  0.394700  0.957500  0.395000  1
  C  C316  1  0.605300  0.042500  0.605000  1
  C  C317  1  0.400100  0.920300  0.357700  1
  C  C318  1  0.599900  0.079700  0.642300  1
  C  C319  1  0.389800  0.931000  0.451400  1
  C  C320  1  0.610200  0.069000  0.548600  1
  C  C321  1  0.604000  0.231000  0.333100  1.0
  C  C322  1  0.396000  0.769000  0.666900  1.0
  C  C323  1  0.676600  0.156200  0.335500  1.0
  C  C324  1  0.323400  0.843800  0.664500  1.0
  C  C325  1  0.690900  0.170500  0.277600  1.0
  C  C326  1  0.309100  0.829500  0.722400  1.0
  C  C327  1  0.657800  0.214600  0.247800  1.0
  C  C328  1  0.342200  0.785400  0.752200  1.0
  C  C329  1  0.614400  0.245600  0.275000  1.0
  C  C330  1  0.385600  0.754400  0.725000  1.0
  C  C331  1  0.517100  0.298800  0.251000  1.0
  C  C332  1  0.482900  0.701200  0.749000  1.0
  C  C333  1  0.604000  0.335700  0.203600  1.0
  C  C334  1  0.396000  0.664300  0.796400  1.0
  C  C335  1  0.499700  0.350800  0.210100  1.0
  C  C336  1  0.500300  0.649200  0.789900  1.0
  C  C337  1  0.553200  0.373200  0.182200  1.0
  C  C338  1  0.446800  0.626800  0.817800  1.0
  C  C339  1  0.444800  0.375900  0.198000  1.0
  C  C340  1  0.555200  0.624100  0.802000  1.0
  C  C341  1  0.553200  0.421400  0.140600  1.0
  C  C342  1  0.446800  0.578600  0.859400  1.0
  C  C343  1  0.443700  0.423500  0.153600  1.0
  C  C344  1  0.556300  0.576500  0.846400  1.0
  C  C345  1  0.497800  0.445700  0.126400  1.0
  C  C346  1  0.502200  0.554300  0.873600  1.0
  C  C347  1  0.393700  0.460700  0.127600  1.0
  C  C348  1  0.606300  0.539300  0.872400  1.0
  C  C349  1  0.420800  0.475400  0.066100  1.0
  C  C350  1  0.579200  0.524600  0.933900  1.0
  C  C351  1  0.479600  0.497700  0.084300  1.0
  C  C352  1  0.520400  0.502300  0.915700  1.0
  C  C353  1  0.396600  0.521700  0.151200  1.0
  C  C354  1  0.603400  0.478300  0.848800  1.0
  C  C355  1  0.457700  0.545800  0.121000  1.0
  C  C356  1  0.542300  0.454200  0.879000  1.0
  C  C357  1  0.353400  0.572200  0.130600  1.0
  C  C358  1  0.646600  0.427800  0.869400  1.0
  C  C359  1  0.290400  0.559300  0.124700  1.0
  C  C360  1  0.709600  0.440700  0.875300  1.0
  C  C361  1  0.436100  0.607400  0.091400  1.0
  C  C362  1  0.563900  0.392600  0.908600  1.0
  C  C363  1  0.473700  0.631000  0.040200  1.0
  C  C364  1  0.526300  0.369000  0.959800  1.0
  C  C365  1  0.363800  0.621800  0.168700  1.0
  C  C366  1  0.636200  0.378200  0.831300  1.0
  C  C367  1  0.424200  0.647200  0.136900  1.0
  C  C368  1  0.575800  0.352800  0.863100  1.0
  C  C369  1  0.321700  0.677000  0.165500  1.0
  C  C370  1  0.678300  0.323000  0.834500  1.0
  C  C371  1  0.339300  0.712400  0.108500  1.0
  C  C372  1  0.660700  0.287600  0.891500  1.0
  C  C373  1  0.406800  0.713200  0.120600  1.0
  C  C374  1  0.593200  0.286800  0.879400  1.0
  C  C375  1  0.346900  0.713700  0.205600  1.0
  C  C376  1  0.653100  0.286300  0.794400  1.0
  C  C377  1  0.400600  0.737400  0.176200  1.0
  C  C378  1  0.599400  0.262600  0.823800  1.0
  C  C379  1  0.328400  0.725300  0.257800  1.0
  C  C380  1  0.671600  0.274700  0.742200  1.0
  C  C381  1  0.436100  0.772900  0.200100  1.0
  C  C382  1  0.563900  0.227100  0.799900  1.0
  C  C383  1  0.363900  0.763700  0.279900  1.0
  C  C384  1  0.636100  0.236300  0.720100  1.0
  C  C385  1  0.414700  0.786900  0.251800  1.0
  C  C386  1  0.585300  0.213100  0.748200  1.0
  C  C387  1  0.355800  0.788500  0.334800  1.0
  C  C388  1  0.644200  0.211500  0.665200  1.0
  C  C389  1  0.440500  0.827100  0.286900  1.0
  C  C390  1  0.559500  0.172900  0.713100  1.0
  C  C391  1  0.449200  0.948600  0.410500  1.0
  C  C392  1  0.550800  0.051400  0.589500  1.0
  C  C393  1  0.442200  0.917500  0.368500  1.0
  C  C394  1  0.557800  0.082500  0.631500  1.0
  C  C395  1  0.410500  0.862200  0.377400  1.0
  C  C396  1  0.589500  0.137800  0.622600  1.0
  C  C397  1  0.601200  0.161000  0.567600  1.0
  C  C398  1  0.398800  0.839000  0.432400  1.0
  C  C399  1  0.562000  0.075900  0.535100  1.0
  C  C400  1  0.438000  0.924100  0.464900  1.0
  C  C401  1  0.717400  0.232300  0.450000  1.0
  C  C402  1  0.282600  0.767700  0.550000  1.0
  C  C403  1  0.739800  0.131500  0.473100  1.0
  C  C404  1  0.260200  0.868500  0.526900  1.0
  C  C405  1  0.798300  0.142300  0.475500  1.0
  C  C406  1  0.201700  0.857700  0.524500  1.0
  C  C407  1  0.818400  0.198500  0.462600  1.0
  C  C408  1  0.181600  0.801500  0.537400  1.0
  C  C409  1  0.775700  0.245600  0.449900  1.0
  C  C410  1  0.224300  0.754400  0.550100  1.0
  C  C411  1  0.772100  0.341400  0.387400  1.0
  C  C412  1  0.227900  0.658600  0.612600  1.0
  C  C413  1  0.838900  0.330100  0.457700  1.0
  C  C414  1  0.161100  0.669900  0.542300  1.0
  C  C415  1  0.809300  0.393100  0.378400  1.0
  C  C416  1  0.190700  0.606900  0.621600  1.0
  C  C417  1  0.849200  0.386600  0.420600  1.0
  C  C418  1  0.150800  0.613400  0.579400  1.0
  C  C419  1  0.811300  0.440500  0.335500  1.0
  C  C420  1  0.188700  0.559500  0.664500  1.0
  C  C421  1  0.892900  0.427000  0.423900  1.0
  C  C422  1  0.107100  0.573000  0.576100  1.0
  C  C423  1  0.854300  0.481300  0.336700  1.0
  C  C424  1  0.145700  0.518700  0.663300  1.0
  C  C425  1  0.893600  0.474100  0.381000  1.0
  C  C426  1  0.106400  0.525900  0.619000  1.0
  C  C427  1  0.869500  0.537400  0.299100  1.0
  C  C428  1  0.130500  0.462600  0.700900  1.0
  C  C429  1  0.936900  0.537300  0.306100  1.0
  C  C430  1  0.063100  0.462700  0.693900  1.0
  C  C431  1  0.931700  0.528600  0.369900  1.0
  C  C432  1  0.068300  0.471400  0.630100  1.0
  C  C433  1  0.843800  0.587500  0.334000  1.0
  C  C434  1  0.156200  0.412500  0.666000  1.0
  C  C435  1  0.886400  0.579400  0.384500  1.0
  C  C436  1  0.113600  0.420600  0.615500  1.0
  C  C437  1  0.852900  0.652500  0.310200  1.0
  C  C438  1  0.147100  0.347500  0.689800  1.0
  C  C439  1  0.846000  0.671000  0.248400  1.0
  C  C440  1  0.154000  0.329000  0.751600  1.0
  C  C441  1  0.908300  0.642400  0.380900  1.0
  C  C442  1  0.091700  0.357600  0.619100  1.0
  C  C443  1  0.967400  0.646100  0.406600  1.0
  C  C444  1  0.032600  0.353900  0.593400  1.0
  C  C445  1  0.814600  0.687900  0.349100  1.0
  C  C446  1  0.185400  0.312100  0.650900  1.0
  C  C447  1  0.855100  0.679100  0.403900  1.0
  C  C448  1  0.144900  0.320900  0.596100  1.0
  C  C449  1  0.806600  0.756000  0.337100  1.0
  C  C450  1  0.193400  0.244000  0.662900  1.0
  C  C451  1  0.866400  0.777600  0.353100  1.0
  C  C452  1  0.133600  0.222400  0.646900  1.0
  C  C453  1  0.862700  0.743100  0.413300  1.0
  C  C454  1  0.137300  0.256900  0.586700  1.0
  C  C455  1  0.765500  0.772200  0.385900  1.0
  C  C456  1  0.234500  0.227800  0.614100  1.0
  C  C457  1  0.801800  0.762600  0.433600  1.0
  C  C458  1  0.198200  0.237400  0.566400  1.0
  C  C459  1  0.706400  0.788700  0.389000  1.0
  C  C460  1  0.293600  0.211300  0.611000  1.0
  C  C461  1  0.777200  0.770700  0.486700  1.0
  C  C462  1  0.222800  0.229300  0.513300  1.0
  C  C463  1  0.681400  0.796800  0.444000  1.0
  C  C464  1  0.318600  0.203200  0.556000  1.0
  C  C465  1  0.716700  0.786800  0.490100  1.0
  C  C466  1  0.283300  0.213200  0.509900  1.0
  C  C467  1  0.621700  0.815600  0.461900  1.0
  C  C468  1  0.378300  0.184400  0.538100  1.0
  C  C469  1  0.677600  0.800900  0.539500  1.0
  C  C470  1  0.322400  0.199100  0.460500  1.0
  C  C471  1  0.575300  0.842000  0.553500  1.0
  C  C472  1  0.424700  0.158000  0.446500  1.0
  C  C473  1  0.587700  0.875200  0.595500  1.0
  C  C474  1  0.412300  0.124800  0.404500  1.0
  C  C475  1  0.537400  0.897400  0.625600  1.0
  C  C476  1  0.462600  0.102600  0.374400  1.0
  C  C477  1  0.519300  0.114500  0.384800  1.0
  C  C478  1  0.480700  0.885500  0.615200  1.0
  C  C479  1  0.483300  0.169500  0.455700  1.0
  C  C480  1  0.516700  0.830500  0.544300  1.0
  C  C481  1  0.132300  0.746300  0.815000  1.0
  C  C482  1  0.867700  0.253700  0.185000  1.0
  C  C483  1  0.209100  0.674800  0.812800  1.0
  C  C484  1  0.790900  0.325200  0.187200  1.0
  C  C485  1  0.222800  0.692900  0.757100  1.0
  C  C486  1  0.777200  0.307100  0.242900  1.0
  C  C487  1  0.189200  0.739500  0.728400  1.0
  C  C488  1  0.810800  0.260500  0.271600  1.0
  C  C489  1  0.143200  0.766400  0.758100  1.0
  C  C490  1  0.856800  0.233600  0.241900  1.0
  C  C491  1  0.043100  0.812800  0.736700  1.0
  C  C492  1  0.956900  0.187200  0.263300  1.0
  C  C493  1  0.126300  0.858600  0.689700  1.0
  C  C494  1  0.873700  0.141400  0.310300  1.0
  C  C495  1  0.023200  0.865500  0.696900  1.0
  C  C496  1  0.976800  0.134500  0.303100  1.0
  C  C497  1  0.073300  0.892700  0.670200  1.0
  C  C498  1  0.926700  0.107300  0.329800  1.0
  C  C499  1  0.964800  0.886800  0.687300  1.0
  C  C500  1  0.035200  0.113200  0.312700  1.0
  C  C501  1  0.068800  0.943500  0.630900  1.0
  C  C502  1  0.931200  0.056500  0.369100  1.0
  C  C503  1  0.960700  0.936100  0.646900  1.0
  C  C504  1  0.039300  0.063900  0.353100  1.0
  C  C505  1  0.009500  0.963400  0.621100  1.0
  C  C506  1  0.990500  0.036600  0.378900  1.0
  C  C507  1  0.905600  0.971600  0.624200  1.0
  C  C508  1  0.094400  0.028400  0.375800  1.0
  C  C509  1  0.931200  0.991900  0.563200  1.0
  C  C510  1  0.068800  0.008100  0.436800  1.0
  C  C511  1  0.986800  0.017600  0.580700  1.0
  C  C512  1  0.013200  0.982400  0.419300  1.0
  C  C513  1  0.905500  0.029900  0.650500  1.0
  C  C514  1  0.094500  0.970100  0.349500  1.0
  C  C515  1  0.962100  0.061500  0.622200  1.0
  C  C516  1  0.037900  0.938500  0.377800  1.0
  C  C517  1  0.856900  0.078900  0.637100  1.0
  C  C518  1  0.143100  0.921100  0.362900  1.0
  C  C519  1  0.793400  0.058200  0.634400  1.0
  C  C520  1  0.206600  0.941800  0.365600  1.0
  C  C521  1  0.934200  0.121700  0.597100  1.0
  C  C522  1  0.065800  0.878300  0.402900  1.0
  C  C523  1  0.967200  0.152300  0.544200  1.0
  C  C524  1  0.032800  0.847700  0.455800  1.0
  C  C525  1  0.863600  0.125500  0.676500  1.0
  C  C526  1  0.136400  0.874500  0.323500  1.0
  C  C527  1  0.920800  0.156800  0.646000  1.0
  C  C528  1  0.079200  0.843200  0.354000  1.0
  C  C529  1  0.816900  0.175700  0.680200  1.0
  C  C530  1  0.183100  0.824300  0.319800  1.0
  C  C531  1  0.829200  0.216400  0.624100  1.0
  C  C532  1  0.170800  0.783600  0.375900  1.0
  C  C533  1  0.896000  0.222600  0.634300  1.0
  C  C534  1  0.104000  0.777400  0.365700  1.0
  C  C535  1  0.840700  0.212400  0.720400  1.0
  C  C536  1  0.159300  0.787600  0.279600  1.0
  C  C537  1  0.889100  0.242200  0.692200  1.0
  C  C538  1  0.110900  0.757800  0.307800  1.0
  C  C539  1  0.822000  0.219000  0.775100  1.0
  C  C540  1  0.178000  0.781000  0.224900  1.0
  C  C541  1  0.920700  0.280200  0.716600  1.0
  C  C542  1  0.079300  0.719800  0.283400  1.0
  C  C543  1  0.852000  0.260700  0.799200  1.0
  C  C544  1  0.148000  0.739300  0.200800  1.0
  C  C545  1  0.899900  0.290000  0.770400  1.0
  C  C546  1  0.100100  0.710000  0.229600  1.0
  C  C547  1  0.840800  0.279900  0.854000  1.0
  C  C548  1  0.159200  0.720100  0.146000  1.0
  C  C549  1  0.920000  0.331700  0.805100  1.0
  C  C550  1  0.080000  0.668300  0.194900  1.0
  C  C551  1  0.883900  0.360500  0.899100  1.0
  C  C552  1  0.116100  0.639500  0.100900  1.0
  C  C553  1  0.890100  0.420400  0.886100  1.0
  C  C554  1  0.109900  0.579600  0.113900  1.0
  C  C555  1  0.887300  0.454100  0.929800  1.0
  C  C556  1  0.112700  0.545900  0.070200  1.0
  C  C557  1  0.121600  0.573600  0.016300  1.0
  C  C558  1  0.878400  0.426400  0.983700  1.0
  C  C559  1  0.124800  0.664700  0.045500  1.0
  C  C560  1  0.875200  0.335300  0.954500  1.0
  C  C561  1  0.246800  0.740700  0.933400  1.0
  C  C562  1  0.753200  0.259300  0.066600  1.0
  C  C563  1  0.269600  0.639600  0.948900  1.0
  C  C564  1  0.730400  0.360400  0.051100  1.0
  C  C565  1  0.329400  0.649600  0.952500  1.0
  C  C566  1  0.670600  0.350400  0.047500  1.0
  C  C567  1  0.347900  0.706200  0.945100  1.0
  C  C568  1  0.652100  0.293800  0.054900  1.0
  C  C569  1  0.306100  0.753000  0.935400  1.0
  C  C570  1  0.693900  0.247000  0.064600  1.0
  C  C571  1  0.303900  0.853600  0.879600  1.0
  C  C572  1  0.696100  0.146400  0.120400  1.0
  C  C573  1  0.365500  0.835700  0.957400  1.0
  C  C574  1  0.634500  0.164300  0.042600  1.0
  C  C575  1  0.337800  0.906900  0.882000  1.0
  C  C576  1  0.662200  0.093100  0.118000  1.0
  C  C577  1  0.373200  0.897200  0.927700  1.0
  C  C578  1  0.626800  0.102800  0.072300  1.0
  C  C579  1  0.337600  0.959100  0.844600  1.0
  C  C580  1  0.662400  0.040900  0.155400  1.0
  C  C581  1  0.408100  0.939800  0.941400  1.0
  C  C582  1  0.591900  0.060200  0.058600  1.0
  C  C583  1  0.374700  0.002300  0.856200  1.0
  C  C584  1  0.625300  0.997700  0.143800  1.0
  C  C585  1  0.409200  0.992700  0.904400  1.0
  C  C586  1  0.590800  0.007300  0.095600  1.0
  C  C587  1  0.388300  0.063000  0.826000  1.0
  C  C588  1  0.611700  0.937000  0.174000  1.0
  C  C589  1  0.453200  0.066400  0.840500  1.0
  C  C590  1  0.546800  0.933600  0.159500  1.0
  C  C591  1  0.441100  0.049500  0.905200  1.0
  C  C592  1  0.558900  0.950500  0.094800  1.0
  C  C593  1  0.353200  0.104800  0.864000  1.0
  C  C594  1  0.646800  0.895200  0.136000  1.0
  C  C595  1  0.389900  0.093500  0.920100  1.0
  C  C596  1  0.610100  0.906500  0.079900  1.0
  C  C597  1  0.356500  0.172300  0.848200  1.0
  C  C598  1  0.643500  0.827700  0.151800  1.0
  C  C599  1  0.351400  0.198400  0.788000  1.0
  C  C600  1  0.648600  0.801600  0.212000  1.0
  C  C601  1  0.405400  0.159200  0.924000  1.0
  C  C602  1  0.594600  0.840800  0.076000  1.0
  C  C603  1  0.460400  0.165900  0.953100  1.0
  C  C604  1  0.539600  0.834100  0.046900  1.0
  C  C605  1  0.310800  0.199000  0.889500  1.0
  C  C606  1  0.689200  0.801000  0.110500  1.0
  C  C607  1  0.346300  0.188400  0.945900  1.0
  C  C608  1  0.653700  0.811600  0.054100  1.0
  C  C609  1  0.296900  0.266400  0.882000  1.0
  C  C610  1  0.703100  0.733600  0.118000  1.0
  C  C611  1  0.351600  0.291000  0.904900  1.0
  C  C612  1  0.648400  0.709000  0.095100  1.0
  C  C613  1  0.345800  0.251800  0.961900  1.0
  C  C614  1  0.654200  0.748200  0.038100  1.0
  C  C615  1  0.250800  0.274400  0.929300  1.0
  C  C616  1  0.749200  0.725600  0.070700  1.0
  C  C617  1  0.282000  0.265500  0.978900  1.0
  C  C618  1  0.718000  0.734500  0.021100  1.0
  C  C619  1  0.190200  0.287700  0.929300  1.0
  C  C620  1  0.809800  0.712300  0.070700  1.0
  C  C621  1  0.252300  0.269600  0.031400  1.0
  C  C622  1  0.747700  0.730400  0.968600  1.0
  C  C623  1  0.161100  0.292400  0.981500  1.0
  C  C624  1  0.838900  0.707600  0.018500  1.0
  C  C625  1  0.192000  0.284200  0.031100  1.0
  C  C626  1  0.808000  0.715800  0.968900  1.0
  C  C627  1  0.097800  0.308700  0.995300  1.0
  C  C628  1  0.902200  0.691300  0.004700  1.0
  C  C629  1  0.150000  0.297200  0.077400  1.0
  C  C630  1  0.850000  0.702800  0.922600  1.0
  C  C631  1  0.044000  0.336700  0.081800  1.0
  C  C632  1  0.956000  0.663300  0.918200  1.0
  C  C633  1  0.052200  0.376600  0.119300  1.0
  C  C634  1  0.947800  0.623400  0.880700  1.0
  C  C635  1  0.001000  0.401600  0.143700  1.0
  C  C636  1  0.999000  0.598400  0.856300  1.0
  C  C637  1  0.054700  0.612700  0.870000  1.0
  C  C638  1  0.945300  0.387300  0.130000  1.0
  C  C639  1  0.012700  0.676900  0.928500  1.0
  C  C640  1  0.987300  0.323100  0.071500  1.0
  N  N641  1  0.918000  0.269200  0.364000  1
  N  N642  1  0.082000  0.730800  0.636000  1
  N  N643  1  0.555900  0.213200  0.148800  1
  N  N644  1  0.444100  0.786800  0.851200  1
  N  N645  1  0.658400  0.503900  0.057000  1
  N  N646  1  0.341600  0.496100  0.943000  1
  N  N647  1  0.550700  0.384200  0.332300  1
  N  N648  1  0.449300  0.615800  0.667700  1
  N  N649  1  0.571600  0.283700  0.465400  1
  N  N650  1  0.428400  0.716300  0.534600  1
  N  N651  1  0.543000  0.302100  0.616100  1
  N  N652  1  0.457000  0.697900  0.383900  1
  N  N653  1  0.907400  0.540300  0.783600  1
  N  N654  1  0.092600  0.459700  0.216400  1
  N  N655  1  0.946600  0.624000  0.631400  1
  N  N656  1  0.053400  0.376000  0.368600  1
  N  N657  1  0.804700  0.604100  0.532200  1
  N  N658  1  0.195300  0.395900  0.467800  1
  N  N659  1  0.590700  0.036200  0.291200  1
  N  N660  1  0.409300  0.963800  0.708800  1
  N  N661  1  0.090800  0.449000  0.979200  1
  N  N662  1  0.909200  0.551000  0.020800  1
  N  N663  1  0.605800  0.679000  0.522800  1
  N  N664  1  0.394200  0.321000  0.477200  1
  N  N665  1  0.694200  0.399100  0.478400  1
  N  N666  1  0.305800  0.600900  0.521600  1
  N  N667  1  0.684500  0.601700  0.324200  1
  N  N668  1  0.315500  0.398300  0.675800  1
  N  N669  1  0.522400  0.583000  0.250100  1
  N  N670  1  0.477600  0.417000  0.749900  1
  N  N671  1  0.579500  0.536000  0.441500  1
  N  N672  1  0.420500  0.464000  0.558500  1
  N  N673  1  0.940300  0.495000  0.534900  1
  N  N674  1  0.059700  0.505000  0.465100  1
  N  N675  1  0.440700  0.287200  0.088000  1
  N  N676  1  0.559300  0.712800  0.912000  1
  N  N677  1  0.867700  0.784200  0.613500  1
  N  N678  1  0.132300  0.215800  0.386500  1
  N  N679  1  0.248100  0.067100  0.759700  1
  N  N680  1  0.751900  0.932900  0.240300  1
  N  N681  1  0.861700  0.920100  0.425200  1
  N  N682  1  0.138300  0.079900  0.574800  1
  N  N683  1  0.122400  0.917600  0.796800  1
  N  N684  1  0.877600  0.082400  0.203200  1
  N  N685  1  0.016100  0.176500  0.774700  1
  N  N686  1  0.983900  0.823500  0.225300  1
  N  N687  1  0.105400  0.789500  0.946200  1
  N  N688  1  0.894600  0.210500  0.053800  1
  N  N689  1  0.816100  0.374600  0.648400  1
  N  N690  1  0.183900  0.625400  0.351600  1
  N  N691  1  0.388900  0.867400  0.468300  1
  N  N692  1  0.611100  0.132600  0.531700  1
  N  N693  1  0.635300  0.185600  0.362300  1.0
  N  N694  1  0.364700  0.814400  0.637700  1.0
  N  N695  1  0.579900  0.292400  0.245800  1.0
  N  N696  1  0.420100  0.707600  0.754200  1.0
  N  N697  1  0.400800  0.827400  0.334500  1.0
  N  N698  1  0.599200  0.172600  0.665500  1.0
  N  N699  1  0.584800  0.127400  0.522300  1.0
  N  N700  1  0.415200  0.872600  0.477700  1.0
  N  N701  1  0.698400  0.176000  0.460300  1.0
  N  N702  1  0.301600  0.824000  0.539700  1.0
  N  N703  1  0.792400  0.303300  0.434600  1.0
  N  N704  1  0.207600  0.696700  0.565400  1.0
  N  N705  1  0.623100  0.819500  0.520100  1.0
  N  N706  1  0.376900  0.180500  0.479900  1.0
  N  N707  1  0.530300  0.146400  0.426300  1.0
  N  N708  1  0.469700  0.853600  0.573700  1.0
  N  N709  1  0.163800  0.701000  0.841700  1.0
  N  N710  1  0.836200  0.299000  0.158300  1.0
  N  N711  1  0.106700  0.811600  0.730500  1.0
  N  N712  1  0.893300  0.188400  0.269500  1.0
  N  N713  1  0.883100  0.324900  0.855600  1.0
  N  N714  1  0.116900  0.675100  0.144400  1.0
  N  N715  1  0.128300  0.632400  0.004400  1.0
  N  N716  1  0.871700  0.367600  0.995600  1.0
  N  N717  1  0.229600  0.684600  0.939300  1.0
  N  N718  1  0.770400  0.315400  0.060700  1.0
  N  N719  1  0.322500  0.812100  0.925900  1.0
  N  N720  1  0.677500  0.187900  0.074100  1.0
  N  N721  1  0.093900  0.311900  0.053600  1.0
  N  N722  1  0.906100  0.688100  0.946400  1.0
  N  N723  1  0.061900  0.651300  0.904900  1.0
  N  N724  1  0.938100  0.348700  0.095100  1.0
  O  O725  1  0.232700  0.391000  0.189500  1
  O  O726  1  0.767300  0.609000  0.810500  1
  O  O727  1  0.752100  0.889500  0.659800  1
  O  O728  1  0.247900  0.110500  0.340200  1
  O  O729  1  0.485000  0.265400  0.282800  1.0
  O  O730  1  0.515000  0.734600  0.717200  1.0
  O  O731  1  0.656000  0.339300  0.190700  1.0
  O  O732  1  0.344000  0.660700  0.809300  1.0
  O  O733  1  0.376900  0.597500  0.075000  1.0
  O  O734  1  0.623100  0.402500  0.925000  1.0
  O  O735  1  0.315800  0.778400  0.371800  1.0
  O  O736  1  0.684200  0.221600  0.628200  1.0
  O  O737  1  0.484100  0.855400  0.276200  1.0
  O  O738  1  0.515900  0.144600  0.723800  1.0
  O  O739  1  0.730800  0.330000  0.360000  1.0
  O  O740  1  0.269200  0.670000  0.640000  1.0
  O  O741  1  0.864600  0.309000  0.499800  1.0
  O  O742  1  0.135400  0.691000  0.500200  1.0
  O  O743  1  0.913800  0.663100  0.321500  1.0
  O  O744  1  0.086200  0.336900  0.678500  1.0
  O  O745  1  0.577300  0.826400  0.435300  1.0
  O  O746  1  0.422700  0.173600  0.564700  1.0
  O  O747  1  0.691800  0.795000  0.589600  1.0
  O  O748  1  0.308200  0.205000  0.410400  1.0
  O  O749  1  0.014400  0.777600  0.766400  1.0
  O  O750  1  0.985600  0.222400  0.233600  1.0
  O  O751  1  0.178800  0.866100  0.675800  1.0
  O  O752  1  0.821200  0.133900  0.324200  1.0
  O  O753  1  0.876000  0.108000  0.581600  1.0
  O  O754  1  0.124000  0.892000  0.418400  1.0
  O  O755  1  0.805000  0.264400  0.892600  1.0
  O  O756  1  0.195000  0.735600  0.107400  1.0
  O  O757  1  0.959600  0.366400  0.796100  1.0
  O  O758  1  0.040400  0.633600  0.203900  1.0
  O  O759  1  0.268500  0.844600  0.847120  1.0
  O  O760  1  0.731500  0.155400  0.152880  1.0
  O  O761  1  0.388500  0.810000  0.997100  1.0
  O  O762  1  0.611500  0.190000  0.002900  1.0
  O  O763  1  0.413300  0.185100  0.866100  1.0
  O  O764  1  0.586700  0.814900  0.133900  1.0
  O  O765  1  0.056200  0.316900  0.964700  1.0
  O  O766  1  0.943800  0.683100  0.035300  1.0
  O  O767  1  0.158300  0.295400  0.126400  1.0
  O  O768  1  0.841700  0.704600  0.873600  1.0
  F  F769  1  0.680600  0.449100  0.705200  1
  F  F770  1  0.319400  0.550900  0.294800  1
  F  F771  1  0.685700  0.514800  0.628400  1
  F  F772  1  0.314300  0.485200  0.371600  1
  F  F773  1  0.664500  0.541300  0.714400  1
  F  F774  1  0.335500  0.458700  0.285600  1
  F  F775  1  0.757300  0.506400  0.686900  1
  F  F776  1  0.242700  0.493600  0.313100  1
  F  F777  1  0.593700  0.966200  0.469700  1
  F  F778  1  0.406300  0.033800  0.530300  1
  F  F779  1  0.671300  0.990400  0.515300  1
  F  F780  1  0.328700  0.009600  0.484700  1
  F  F781  1  0.683100  0.930800  0.447300  1
  F  F782  1  0.316900  0.069200  0.552700  1
  F  F783  1  0.672000  0.019000  0.431400  1
  F  F784  1  0.328000  0.981000  0.568600  1
  F  F785  1  0.195500  0.543600  0.882430  1
  F  F786  1  0.804500  0.456400  0.117570  1
  F  F787  1  0.249600  0.540400  0.798660  1
  F  F788  1  0.750400  0.459600  0.201340  1
  F  F789  1  0.200900  0.459490  0.842350  1
  F  F790  1  0.799100  0.540510  0.157650  1
  F  F791  1  0.148400  0.540100  0.801740  1
  F  F792  1  0.851600  0.459900  0.198260  1
  F  F793  1  0.067600  0.881600  0.973700  1
  F  F794  1  0.932400  0.118400  0.026300  1
  F  F795  1  0.038200  0.783900  0.004400  1
  F  F796  1  0.961800  0.216100  0.995600  1
  F  F797  1  0.130200  0.809700  0.978700  1
  F  F798  1  0.869800  0.190300  0.021300  1
  F  F799  1  0.051100  0.805200  0.916500  1
  F  F800  1  0.948900  0.194800  0.083500  1
  F  F801  1  0.011400  0.800900  0.980400  1
  F  F802  1  0.988600  0.199100  0.019600  1
  F  F803  1  0.080100  0.800400  0.024900  1
  F  F804  1  0.919900  0.199600  0.975100  1
  F  F805  1  0.088900  0.794000  0.925200  1
  F  F806  1  0.911100  0.206000  0.074800  1
  F  F807  1  0.677200  0.949300  0.509700  1
  F  F808  1  0.322800  0.050700  0.490300  1
  F  F809  1  0.682300  0.931900  0.417300  1
  F  F810  1  0.317700  0.068100  0.582700  1
  F  F811  1  0.661900  0.033900  0.430500  1
  F  F812  1  0.338100  0.966100  0.569500  1
  F  F813  1  0.264100  0.536100  0.174400  1.0
  F  F814  1  0.735900  0.463900  0.825600  1.0
  F  F815  1  0.284300  0.520400  0.088900  1.0
  F  F816  1  0.715700  0.479600  0.911100  1.0
  F  F817  1  0.255300  0.607000  0.104900  1.0
  F  F818  1  0.744700  0.393000  0.895100  1.0
  F  F819  1  0.530550  0.632980  0.051740  1.0
  F  F820  1  0.469450  0.367020  0.948260  1.0
  F  F821  1  0.471700  0.597760  0.997910  1.0
  F  F822  1  0.528300  0.402240  0.002090  1.0
  F  F823  1  0.456500  0.685730  0.016940  1.0
  F  F824  1  0.543500  0.314270  0.983060  1.0
  F  F825  1  0.882700  0.641270  0.215340  1.0
  F  F826  1  0.117300  0.358730  0.784660  1.0
  F  F827  1  0.790100  0.663400  0.235080  1.0
  F  F828  1  0.209900  0.336600  0.764920  1.0
  F  F829  1  0.857500  0.728280  0.231020  1.0
  F  F830  1  0.142500  0.271720  0.768980  1.0
  F  F831  1  0.964800  0.625400  0.460800  1.0
  F  F832  1  0.035200  0.374600  0.539200  1.0
  F  F833  1  0.984600  0.703800  0.401300  1.0
  F  F834  1  0.015400  0.296200  0.598700  1.0
  F  F835  1  0.012700  0.618200  0.381300  1.0
  F  F836  1  0.987300  0.381800  0.618700  1.0
  F  F837  1  0.791000  0.022900  0.593900  1.0
  F  F838  1  0.209000  0.977100  0.406100  1.0
  F  F839  1  0.754100  0.103700  0.619300  1.0
  F  F840  1  0.245900  0.896300  0.380700  1.0
  F  F841  1  0.774200  0.029100  0.682800  1.0
  F  F842  1  0.225800  0.970900  0.317200  1.0
  F  F843  1  0.023300  0.161700  0.555950  1.0
  F  F844  1  0.976700  0.838300  0.444050  1.0
  F  F845  1  0.970500  0.121400  0.501510  1.0
  F  F846  1  0.029500  0.878600  0.498490  1.0
  F  F847  1  0.942000  0.204210  0.524790  1.0
  F  F848  1  0.058000  0.795790  0.475210  1.0
  F  F849  1  0.389700  0.172410  0.751850  1.0
  F  F850  1  0.610300  0.827590  0.248150  1.0
  F  F851  1  0.297100  0.193300  0.771340  1.0
  F  F852  1  0.702900  0.806700  0.228660  1.0
  F  F853  1  0.363100  0.255830  0.777950  1.0
  F  F854  1  0.636900  0.744170  0.222050  1.0
  F  F855  1  0.471230  0.222900  0.953900  1.0
  F  F856  1  0.528770  0.777100  0.046100  1.0
  F  F857  1  0.455700  0.140400  0.007410  1.0
  F  F858  1  0.544300  0.859600  0.992590  1.0
  F  F859  1  0.509790  0.143340  0.929450  1.0
  F  F860  1  0.490210  0.856660  0.070550  1.0
