
#######################################################################
#
#                 Cambridge Crystallographic Data Centre
#                                CCDC 
#
#######################################################################
#
# If this CIF has been generated from an entry in the Cambridge 
# Structural Database, then it will include bibliographic, chemical, 
# crystal, experimental, refinement or atomic coordinate data resulting 
# from the CCDC's data processing and validation procedures.
#
#######################################################################

data_TUDNAI
_chemical_formula_moiety         
'C160 H96 F24 N16 O20 Pd2 4+,4(B1 F4 1-),22(C2 H3 N1),2(H2 O1)'
_chemical_name_systematic        
"tetrakis(\m~2~-1,15-bis(Trifluoromethyl)-8,22-bis(pyridin-3-yl)-8,22-diaza-29-oxadecacyclo[13.13.1.1^3,13^.1^17,27^.0^2,14^.0^4,12^.0^6,10^.0^16,28^.0^18,26^.0^20,24^]hentriaconta-4(12),5,10,18(26),19,24-hexaene-7,9,21,23-tetrone-N,N')-di-palladium(ii) tetrakis(tetrafluoroborate) acetonitrile solvate dihydrate"
_symmetry_cell_setting           triclinic
_symmetry_space_group_name_H-M   'P -1'
_symmetry_Int_Tables_number      2
_space_group_name_Hall           '-P 1'
loop_
_symmetry_equiv_pos_site_id
_symmetry_equiv_pos_as_xyz
1 x,y,z
2 -x,-y,-z
_cell_length_a                   22.433(5)
_cell_length_b                   22.983(5)
_cell_length_c                   24.040(5)
_cell_angle_alpha                81.46(3)
_cell_angle_beta                 86.33(3)
_cell_angle_gamma                87.06(3)
_cell_volume                     12221
_exptl_crystal_colour            yellow
_exptl_crystal_description       block
_cell_formula_units_Z            2
loop_
_atom_site_label
_atom_site_type_symbol
_atom_site_fract_x
_atom_site_fract_y
_atom_site_fract_z
Pd1 Pd 0.61388(4) 0.16012(3) 0.44444(3)
F1 F 0.2641(2) 0.5361(2) 0.1744(2)
F2 F 0.2843(2) 0.5204(2) 0.0889(2)
F3 F 0.2553(2) 0.6070(2) 0.1049(2)
F4 F 0.53055(19) 0.63298(19) 0.05174(16)
F5 F 0.4717(2) 0.59776(19) -0.00209(17)
F6 F 0.4565(2) 0.68573(18) 0.01694(17)
F7 F 0.8827(2) 0.64127(19) 0.21534(16)
F8 F 0.7901(2) 0.6634(2) 0.23508(17)
F9 F 0.8575(2) 0.72828(19) 0.23102(17)
F10 F 0.9648(2) 0.6254(2) 0.46080(19)
F11 F 0.9846(2) 0.7038(2) 0.4013(2)
F12 F 1.0127(2) 0.6182(2) 0.3813(2)
O1 O 0.4850(2) 0.2654(2) 0.2828(2)
O3 O 0.6560(2) 0.3393(2) 0.1907(2)
O5 O 0.3769(2) 0.5975(2) 0.0750(2)
O6 O 0.3158(2) 0.7784(2) 0.3718(2)
O7 O 0.4841(3) 0.8554(2) 0.2762(2)
O8 O 0.7308(2) 0.3300(2) 0.3600(2)
O9 O 0.8646(3) 0.3090(2) 0.4998(2)
O10 O 0.9138(2) 0.6631(2) 0.3215(2)
O11 O 0.5773(3) 0.8264(2) 0.4353(2)
O12 O 0.6918(3) 0.7950(3) 0.5896(2)
N1 N 0.6353(3) 0.1856(2) 0.3623(2)
N3 N 0.5799(2) 0.2924(2) 0.2458(2)
N5 N 0.4008(3) 0.8274(3) 0.3345(2)
N8 N 0.5848(9) 0.1274(9) 0.5223(8)
N9 N 0.6984(3) 0.1760(2) 0.4603(2)
N11 N 0.7924(3) 0.3033(2) 0.4346(2)
N13 N 0.6231(4) 0.8195(3) 0.5201(3)
N15 N 0.5303(3) 0.1464(3) 0.4263(3)
C1 C 0.6040(3) 0.2310(3) 0.3331(3)
C4 C 0.6766(3) 0.1562(3) 0.3355(3)
C7 C 0.6909(3) 0.1705(3) 0.2776(2)
C10 C 0.6578(3) 0.2146(3) 0.2478(2)
C13 C 0.6144(3) 0.2456(3) 0.2750(3)
C16 C 0.5171(4) 0.2988(3) 0.2510(3)
C19 C 0.6040(3) 0.3357(3) 0.2036(3)
C22 C 0.4997(3) 0.3508(3) 0.2101(3)
C25 C 0.5532(3) 0.3732(3) 0.1822(3)
C28 C 0.4448(3) 0.3759(3) 0.1980(3)
C31 C 0.5532(3) 0.4214(3) 0.1406(3)
C34 C 0.4437(3) 0.4235(3) 0.1536(3)
C37 C 0.4978(3) 0.4457(3) 0.1264(3)
C40 C 0.3937(4) 0.4607(3) 0.1276(4)
C43 C 0.4208(4) 0.4754(3) 0.0661(3)
C46 C 0.4796(3) 0.4977(3) 0.0843(3)
C49 C 0.3966(3) 0.5217(3) 0.1512(3)
C51 C 0.4577(3) 0.5458(3) 0.1210(3)
C54 C 0.3534(3) 0.5722(3) 0.1306(3)
C57 C 0.2904(4) 0.5593(3) 0.1247(4)
C60 C 0.4361(3) 0.6074(3) 0.0914(2)
C63 C 0.4737(3) 0.6310(3) 0.0402(3)
C66 C 0.3638(3) 0.6218(3) 0.1687(3)
C69 C 0.4242(3) 0.6472(3) 0.1369(3)
C72 C 0.3217(3) 0.6770(3) 0.1655(3)
C75 C 0.3393(3) 0.7124(3) 0.1085(3)
C76 C 0.4068(3) 0.7132(3) 0.1206(3)
C77 C 0.3469(3) 0.7137(3) 0.2056(3)
C78 C 0.4006(3) 0.7374(3) 0.1762(3)
C79 C 0.3284(3) 0.7253(4) 0.2578(3)
C80 C 0.4361(3) 0.7729(3) 0.2001(3)
C81 C 0.3639(3) 0.7637(3) 0.2799(3)
C82 C 0.4147(3) 0.7869(3) 0.2518(3)
C83 C 0.3558(4) 0.7885(3) 0.3348(3)
C84 C 0.4405(4) 0.8271(3) 0.2869(3)
C85 C 0.4492(9) 0.9486(6) 0.4105(5)
C86 C 0.4422(9) 0.9175(8) 0.3685(7)
C87 C 0.4105(5) 0.8622(3) 0.3774(3)
C88 C 0.6012(4) 0.1610(3) 0.5676(3)
C89 C 0.5620(9) 0.0759(5) 0.5351(6)
C90 C 0.7174(5) 0.2323(3) 0.4500(3)
C91 C 0.7398(6) 0.1315(3) 0.4731(3)
C92 C 0.7983(6) 0.1423(3) 0.4755(3)
C93 C 0.8184(4) 0.1985(3) 0.4626(3)
C94 C 0.7757(4) 0.2456(3) 0.4499(2)
C95 C 0.7721(4) 0.3414(3) 0.3874(2)
C96 C 0.8389(4) 0.3301(3) 0.4577(3)
C97 C 0.8093(3) 0.3931(3) 0.3784(2)
C98 C 0.8492(4) 0.3866(3) 0.4206(3)
C99 C 0.8113(3) 0.4405(3) 0.3355(2)
C100 C 0.8929(4) 0.4270(4) 0.4239(3)
C101 C 0.8543(3) 0.4813(3) 0.3367(2)
C102 C 0.8936(3) 0.4741(3) 0.3810(3)
C103 C 0.8695(3) 0.5374(3) 0.2991(2)
C104 C 0.9369(3) 0.5373(3) 0.3061(3)
C105 C 0.9317(4) 0.5286(4) 0.3699(3)
C106 C 0.8438(3) 0.5875(3) 0.3340(2)
C107 C 0.8864(3) 0.5794(3) 0.3845(2)
C108 C 0.8529(3) 0.6525(3) 0.3102(2)
C109 C 0.8460(3) 0.6710(3) 0.2484(3)
C110 C 0.9083(3) 0.6424(3) 0.3809(3)
C111 C 0.9674(4) 0.6461(4) 0.4066(3)
C112 C 0.8146(3) 0.6879(3) 0.3491(3)
C113 C 0.8551(3) 0.6791(3) 0.4039(2)
C114 C 0.8066(4) 0.7560(3) 0.3371(3)
C115 C 0.8664(4) 0.7776(3) 0.3531(3)
C116 C 0.8627(4) 0.7431(3) 0.4133(3)
C117 C 0.7655(4) 0.7722(3) 0.3859(3)
C118 C 0.8018(4) 0.7626(3) 0.4336(3)
C119 C 0.7064(4) 0.7887(3) 0.3890(3)
C120 C 0.7772(4) 0.7707(4) 0.4867(3)
C121 C 0.6814(4) 0.7968(3) 0.4440(3)
C122 C 0.7167(4) 0.7868(3) 0.4901(3)
C123 C 0.6217(5) 0.8156(3) 0.4619(4)
C124 C 0.6776(5) 0.8009(4) 0.5395(4)
C125 C 0.5753(5) 0.8420(3) 0.5535(4)
C126 C 0.5877(5) 0.8752(4) 0.5955(4)
C127 C 0.5374(6) 0.8974(4) 0.6256(5)
C128 C 0.5193(5) 0.1145(4) 0.3848(4)
C129 C 0.4833(5) 0.1695(3) 0.4557(3)
H1 H 0.5753 0.2524 0.3517
H2 H 0.6983 0.1251 0.3554
H3 H 0.7206 0.1486 0.2601
H4 H 0.6659 0.2248 0.2089
H5 H 0.5434 0.9212 0.6537
H6 H 0.6131 0.1994 0.5586
H7 H 0.4620 0.9878 0.4022
H8 H 0.6880 0.2632 0.4414
H9 H 0.7276 0.0930 0.4802
H10 H 0.8251 0.1115 0.4868
H11 H 0.8586 0.2060 0.4624
H12 H 0.6265 0.8825 0.6029
H13 H 0.5519 0.1001 0.3644
H14 H 0.4912 0.1940 0.4811
H15 H 0.4095 0.3624 0.2163
H16 H 0.5880 0.4373 0.1233
H17 H 0.2948 0.7104 0.2782
H18 H 0.4720 0.7856 0.1833
H19 H 0.7844 0.4441 0.3068
H20 H 0.9196 0.4220 0.4523
H21 H 0.6830 0.7936 0.3581
H22 H 0.7999 0.7638 0.5185
H47 H 0.3541 0.4437 0.1315
H48 H 0.4270 0.4411 0.0474
H49 H 0.3980 0.5062 0.0434
H50 H 0.5089 0.5094 0.0531
H51 H 0.3984 0.5157 0.1916
H52 H 0.4865 0.5507 0.1488
H53 H 0.3703 0.6047 0.2069
H54 H 0.4569 0.6424 0.1628
H55 H 0.2786 0.6689 0.1729
H56 H 0.3198 0.7515 0.1022
H57 H 0.3326 0.6918 0.0766
H58 H 0.4326 0.7351 0.0908
H59 H 0.8570 0.5413 0.2602
H60 H 0.9543 0.5744 0.2893
H61 H 0.9585 0.5049 0.2904
H62 H 0.9699 0.5247 0.3887
H63 H 0.8024 0.5806 0.3473
H64 H 0.8654 0.5674 0.4206
H65 H 0.7761 0.6695 0.3595
H66 H 0.8333 0.6569 0.4361
H67 H 0.7932 0.7721 0.2992
H68 H 0.9000 0.7647 0.3303
H69 H 0.8657 0.8198 0.3526
H70 H 0.8957 0.7494 0.4367
H95 H 0.4584 0.9316 0.3318
H96 H 0.5531 0.0549 0.5058
Pd1A Pd 0.38612(4) 0.83988(3) 0.55556(3)
F1A F 0.7359(2) 0.4639(2) 0.8256(2)
F2A F 0.7157(2) 0.4796(2) 0.9111(2)
F3A F 0.7447(2) 0.3930(2) 0.8951(2)
F4A F 0.46945(19) 0.36702(19) 0.94826(16)
F5A F 0.5283(2) 0.40224(19) 1.00209(17)
F6A F 0.5435(2) 0.31427(18) 0.98306(17)
F7A F 0.1173(2) 0.35873(19) 0.78466(16)
F8A F 0.2099(2) 0.3366(2) 0.76492(17)
F9A F 0.1425(2) 0.27172(19) 0.76898(17)
F10A F 0.0352(2) 0.3746(2) 0.53920(19)
F11A F 0.0154(2) 0.2962(2) 0.5987(2)
F12A F -0.0127(2) 0.3818(2) 0.6187(2)
O1A O 0.5150(2) 0.7346(2) 0.7172(2)
O3A O 0.3440(2) 0.6607(2) 0.8093(2)
O5A O 0.6231(2) 0.4025(2) 0.9250(2)
O6A O 0.6842(2) 0.2216(2) 0.6282(2)
O7A O 0.5159(3) 0.1446(2) 0.7238(2)
O8A O 0.2692(2) 0.6700(2) 0.6400(2)
O9A O 0.1354(3) 0.6910(2) 0.5002(2)
O10A O 0.0862(2) 0.3369(2) 0.6785(2)
O11A O 0.4227(3) 0.1736(2) 0.5647(2)
O12A O 0.3082(3) 0.2050(3) 0.4104(2)
N1A N 0.3647(3) 0.8144(2) 0.6377(2)
N3A N 0.4201(2) 0.7076(2) 0.7542(2)
N5A N 0.5992(3) 0.1726(3) 0.6655(2)
N8A N 0.4152(9) 0.8726(9) 0.4777(8)
N9A N 0.3016(3) 0.8240(2) 0.5397(2)
N11A N 0.2076(3) 0.6967(2) 0.5654(2)
N13A N 0.3769(4) 0.1805(3) 0.4799(3)
N15A N 0.4697(3) 0.8536(3) 0.5737(3)
C1A C 0.3960(3) 0.7690(3) 0.6669(3)
C4A C 0.3234(3) 0.8438(3) 0.6645(3)
C7A C 0.3091(3) 0.8295(3) 0.7224(2)
C10A C 0.3422(3) 0.7854(3) 0.7522(2)
C13A C 0.3856(3) 0.7544(3) 0.7250(3)
C16A C 0.4829(4) 0.7012(3) 0.7490(3)
C19A C 0.3960(3) 0.6643(3) 0.7964(3)
C22A C 0.5003(3) 0.6492(3) 0.7899(3)
C25A C 0.4468(3) 0.6268(3) 0.8178(3)
C28A C 0.5552(3) 0.6241(3) 0.8020(3)
C31A C 0.4468(3) 0.5786(3) 0.8594(3)
C34A C 0.5563(3) 0.5765(3) 0.8464(3)
C37A C 0.5022(3) 0.5543(3) 0.8736(3)
C40A C 0.6063(4) 0.5393(3) 0.8724(4)
C43A C 0.5792(4) 0.5246(3) 0.9339(3)
C46A C 0.5204(3) 0.5023(3) 0.9157(3)
C49A C 0.6034(3) 0.4783(3) 0.8488(3)
C51A C 0.5423(3) 0.4542(3) 0.8790(3)
C54A C 0.6466(3) 0.4278(3) 0.8694(3)
C57A C 0.7096(4) 0.4407(3) 0.8753(4)
C60A C 0.5639(3) 0.3926(3) 0.9086(2)
C63A C 0.5263(3) 0.3690(3) 0.9598(3)
C66A C 0.6362(3) 0.3782(3) 0.8313(3)
C69A C 0.5758(3) 0.3528(3) 0.8631(3)
C72A C 0.6783(3) 0.3230(3) 0.8345(3)
C75A C 0.6607(3) 0.2876(3) 0.8915(3)
C76A C 0.5932(3) 0.2868(3) 0.8794(3)
C77A C 0.6531(3) 0.2863(3) 0.7944(3)
C78A C 0.5994(3) 0.2626(3) 0.8238(3)
C79A C 0.6716(3) 0.2747(4) 0.7422(3)
C80A C 0.5639(3) 0.2271(3) 0.7999(3)
C81A C 0.6361(3) 0.2363(3) 0.7201(3)
C82A C 0.5853(3) 0.2131(3) 0.7482(3)
C83A C 0.6442(4) 0.2115(3) 0.6652(3)
C84A C 0.5595(4) 0.1729(3) 0.7131(3)
C85A C 0.5508(9) 0.0514(6) 0.5895(5)
C86A C 0.5578(9) 0.0825(8) 0.6315(7)
C87A C 0.5895(5) 0.1378(3) 0.6226(3)
C88A C 0.3988(4) 0.8390(3) 0.4324(3)
C89A C 0.4380(9) 0.9241(5) 0.4649(6)
C90A C 0.2826(5) 0.7677(3) 0.5500(3)
C91A C 0.2602(6) 0.8685(3) 0.5269(3)
C92A C 0.2017(6) 0.8577(3) 0.5245(3)
C93A C 0.1816(4) 0.8015(3) 0.5374(3)
C94A C 0.2243(4) 0.7544(3) 0.5501(2)
C95A C 0.2279(4) 0.6586(3) 0.6126(2)
C96A C 0.1611(4) 0.6699(3) 0.5423(3)
C97A C 0.1907(3) 0.6069(3) 0.6216(2)
C98A C 0.1508(4) 0.6134(3) 0.5794(3)
C99A C 0.1887(3) 0.5595(3) 0.6645(2)
C100A C 0.1071(4) 0.5730(4) 0.5761(3)
C101A C 0.1457(3) 0.5187(3) 0.6633(2)
C102A C 0.1064(3) 0.5259(3) 0.6190(3)
C103A C 0.1305(3) 0.4626(3) 0.7009(2)
C104A C 0.0631(3) 0.4627(3) 0.6939(3)
C105A C 0.0683(4) 0.4714(4) 0.6301(3)
C106A C 0.1562(3) 0.4125(3) 0.6660(2)
C107A C 0.1136(3) 0.4206(3) 0.6155(2)
C108A C 0.1471(3) 0.3475(3) 0.6898(2)
C109A C 0.1540(3) 0.3290(3) 0.7516(3)
C110A C 0.0917(3) 0.3576(3) 0.6191(3)
C111A C 0.0326(4) 0.3539(4) 0.5934(3)
C112A C 0.1854(3) 0.3121(3) 0.6509(3)
C113A C 0.1449(3) 0.3209(3) 0.5961(2)
C114A C 0.1934(4) 0.2440(3) 0.6629(3)
C115A C 0.1336(4) 0.2224(3) 0.6469(3)
C116A C 0.1373(4) 0.2569(3) 0.5867(3)
C117A C 0.2345(4) 0.2278(3) 0.6141(3)
C118A C 0.1982(4) 0.2374(3) 0.5664(3)
C119A C 0.2936(4) 0.2113(3) 0.6110(3)
C120A C 0.2228(4) 0.2293(4) 0.5133(3)
C121A C 0.3186(4) 0.2032(3) 0.5560(3)
C122A C 0.2833(4) 0.2132(3) 0.5099(3)
C123A C 0.3783(5) 0.1844(3) 0.5381(4)
C124A C 0.3224(5) 0.1991(4) 0.4605(4)
C125A C 0.4247(5) 0.1580(3) 0.4465(4)
C126A C 0.4123(5) 0.1248(4) 0.4045(4)
C127A C 0.4626(6) 0.1026(4) 0.3744(5)
C128A C 0.4807(5) 0.8855(4) 0.6152(4)
C129A C 0.5167(5) 0.8305(3) 0.5443(3)
H1A H 0.4247 0.7476 0.6483
H2A H 0.3017 0.8749 0.6446
H3A H 0.2794 0.8514 0.7399
H4A H 0.3341 0.7752 0.7911
H5A H 0.4566 0.0788 0.3463
H6A H 0.3869 0.8006 0.4414
H7A H 0.5380 0.0122 0.5978
H8A H 0.3120 0.7368 0.5586
H9A H 0.2724 0.9070 0.5198
H10A H 0.1749 0.8885 0.5132
H11A H 0.1414 0.7940 0.5376
H12A H 0.3735 0.1175 0.3971
H13A H 0.4481 0.8999 0.6356
H14A H 0.5088 0.8060 0.5189
H15A H 0.5905 0.6376 0.7837
H16A H 0.4120 0.5627 0.8767
H17A H 0.7052 0.2896 0.7218
H18A H 0.5280 0.2144 0.8167
H19A H 0.2156 0.5559 0.6932
H20A H 0.0804 0.5780 0.5477
H21A H 0.3170 0.2064 0.6419
H22A H 0.2001 0.2362 0.4815
H47A H 0.6459 0.5563 0.8685
H48A H 0.5730 0.5589 0.9526
H49A H 0.6020 0.4938 0.9566
H50A H 0.4911 0.4906 0.9469
H51A H 0.6016 0.4843 0.8084
H52A H 0.5135 0.4493 0.8512
H53A H 0.6297 0.3953 0.7931
H54A H 0.5431 0.3576 0.8372
H55A H 0.7214 0.3311 0.8271
H56A H 0.6802 0.2485 0.8978
H57A H 0.6674 0.3082 0.9234
H58A H 0.5674 0.2649 0.9092
H59A H 0.1430 0.4587 0.7398
H60A H 0.0457 0.4256 0.7107
H61A H 0.0415 0.4951 0.7096
H62A H 0.0301 0.4753 0.6113
H63A H 0.1976 0.4194 0.6527
H64A H 0.1346 0.4326 0.5794
H65A H 0.2239 0.3305 0.6405
H66A H 0.1667 0.3431 0.5639
H67A H 0.2068 0.2279 0.7008
H68A H 0.1000 0.2353 0.6697
H69A H 0.1343 0.1802 0.6474
H70A H 0.1043 0.2506 0.5633
H95A H 0.5416 0.0684 0.6682
H96A H 0.4469 0.9451 0.4942
Pd2 Pd 0.14480(2) 0.66871(2) 0.92320(2)
F13 F -0.2090(2) 1.0229(2) 0.5939(2)
F14 F -0.2459(2) 1.1037(2) 0.6193(2)
F15 F -0.2258(2) 1.0291(2) 0.6828(2)
F16 F 0.0233(2) 1.1617(2) 0.55595(18)
F17 F -0.0295(2) 1.1214(2) 0.50151(17)
F18 F -0.0580(2) 1.20421(19) 0.52479(16)
F19 F 0.3897(2) 1.17241(18) 0.75185(18)
F20 F 0.2971(2) 1.1933(2) 0.77134(17)
F21 F 0.3631(2) 1.25583(18) 0.77795(17)
F22 F 0.47123(19) 1.22290(19) 0.9539(2)
F23 F 0.4557(2) 1.1404(2) 1.00741(19)
F24 F 0.50979(18) 1.14334(19) 0.92945(19)
O13 O 0.0144(2) 0.7776(2) 0.7664(2)
O14 O 0.1788(2) 0.8661(2) 0.6758(2)
O15 O -0.1240(2) 1.1080(2) 0.5816(2)
O16 O -0.1950(2) 1.2644(2) 0.8926(2)
O17 O -0.0404(2) 1.3664(2) 0.7961(2)
O18 O 0.2685(2) 0.8446(2) 0.84712(19)
O19 O 0.3885(2) 0.8100(2) 0.9971(2)
O20 O 0.4133(2) 1.1851(2) 0.8661(2)
O21 O 0.0562(2) 1.3169(2) 0.9647(2)
O22 O 0.1583(2) 1.2954(3) 1.1264(2)
N17 N 0.1638(2) 0.7010(2) 0.8417(2)
N19 N 0.1067(2) 0.8116(2) 0.7305(2)
N21 N -0.1169(2) 1.3249(2) 0.8556(2)
N23 N 0.1283(2) 0.6324(2) 1.0044(2)
N25 N 0.2296(2) 0.6846(2) 0.9393(2)
N27 N 0.3225(2) 0.8121(2) 0.9259(2)
N29 N 0.0939(2) 1.3119(3) 1.0536(2)
N31 N 0.0619(2) 0.6513(2) 0.9049(2)
C130 C 0.1323(3) 0.7463(3) 0.8150(3)
C131 C 0.2091(3) 0.6748(3) 0.8128(2)
C132 C 0.2228(3) 0.6929(3) 0.7571(2)
C133 C 0.1892(3) 0.7395(3) 0.7284(2)
C134 C 0.1432(3) 0.7664(3) 0.7581(2)
C135 C 0.0431(3) 0.8128(3) 0.7367(3)
C136 C 0.1263(3) 0.8586(3) 0.6897(3)
C137 C 0.0232(3) 0.8655(3) 0.6969(3)
C138 C 0.0733(3) 0.8927(3) 0.6702(3)
C139 C -0.0352(3) 0.8868(3) 0.6873(3)
C140 C 0.0688(3) 0.9435(3) 0.6309(3)
C141 C -0.0393(3) 0.9361(3) 0.6469(3)
C142 C 0.0095(4) 0.9634(3) 0.6211(3)
C143 C -0.0944(3) 0.9716(3) 0.6242(3)
C144 C -0.0688(4) 0.9919(3) 0.5632(3)
C145 C -0.0132(4) 1.0176(3) 0.5807(3)
C146 C -0.0945(3) 1.0299(3) 0.6505(3)
C147 C -0.0379(3) 1.0615(3) 0.6222(3)
C148 C -0.1431(3) 1.0789(3) 0.6371(3)
C149 C -0.2066(4) 1.0582(3) 0.6344(4)
C150 C -0.0658(3) 1.1217(3) 0.5971(2)
C151 C -0.0328(4) 1.1523(3) 0.5442(3)
C152 C -0.1364(3) 1.1255(3) 0.6765(3)
C153 C -0.0792(3) 1.1568(3) 0.6460(2)
C154 C -0.1831(3) 1.1757(3) 0.6802(3)
C155 C -0.1708(4) 1.2164(3) 0.6241(3)
C156 C -0.1040(4) 1.2226(3) 0.6343(3)
C157 C -0.1593(3) 1.2124(3) 0.7204(3)
C158 C -0.1109(3) 1.2422(3) 0.6922(3)
C159 C -0.1780(3) 1.2190(3) 0.7751(3)
C160 C -0.0793(3) 1.2802(3) 0.7166(3)
C161 C -0.1480(3) 1.2607(3) 0.7992(3)
C162 C -0.1001(3) 1.2900(3) 0.7704(3)
C163 C -0.1592(3) 1.2799(3) 0.8540(3)
C164 C -0.0800(3) 1.3317(3) 0.8051(3)
C165 C -0.1161(3) 1.3605(3) 0.8991(2)
C166 C -0.1099(3) 1.4204(3) 0.8861(3)
C167 C -0.1127(3) 1.4541(3) 0.9298(3)
C168 C 0.1216(3) 0.5736(3) 1.0163(3)
C169 C 0.1248(3) 0.6647(3) 1.0455(2)
C170 C 0.2468(3) 0.7407(3) 0.9334(2)
C171 C 0.2696(3) 0.6396(3) 0.9489(2)
C172 C 0.3294(3) 0.6496(3) 0.9525(3)
C173 C 0.3479(3) 0.7062(3) 0.9451(3)
C174 C 0.3061(3) 0.7530(3) 0.9354(2)
C175 C 0.3039(3) 0.8536(3) 0.8796(2)
C176 C 0.3655(3) 0.8357(3) 0.9574(3)
C177 C 0.3378(3) 0.9069(3) 0.8820(2)
C178 C 0.3732(3) 0.8972(3) 0.9277(2)
C179 C 0.3376(3) 0.9591(3) 0.8446(2)
C180 C 0.4081(3) 0.9398(3) 0.9414(3)
C181 C 0.3747(3) 1.0023(2) 0.8562(2)
C182 C 0.4092(3) 0.9927(3) 0.9044(3)
C183 C 0.3883(3) 1.0630(3) 0.8260(2)
C184 C 0.4532(3) 1.0664(3) 0.8405(3)
C185 C 0.4411(3) 1.0495(3) 0.9052(3)
C186 C 0.3532(3) 1.1048(3) 0.8640(2)
C187 C 0.3899(3) 1.0935(3) 0.9201(2)
C188 C 0.3565(3) 1.1723(3) 0.8482(2)
C189 C 0.3514(3) 1.1984(3) 0.7880(3)
C190 C 0.4054(3) 1.1592(3) 0.9240(2)
C191 C 0.4604(3) 1.1659(3) 0.9531(3)
C192 C 0.3108(3) 1.1990(3) 0.8895(2)
C193 C 0.3463(3) 1.1884(3) 0.9459(2)
C194 C 0.2969(3) 1.2664(3) 0.8820(2)
C195 C 0.3516(3) 1.2910(3) 0.9049(3)
C196 C 0.3458(3) 1.2518(3) 0.9619(3)
C197 C 0.2508(3) 1.2744(3) 0.9293(2)
C198 C 0.2820(3) 1.2655(3) 0.9789(3)
C199 C 0.1902(3) 1.2877(3) 0.9293(2)
C200 C 0.2523(3) 1.2696(3) 1.0314(3)
C201 C 0.1611(3) 1.2924(3) 0.9815(3)
C202 C 0.1920(3) 1.2842(3) 1.0311(3)
C203 C 0.0978(3) 1.3087(3) 0.9953(3)
C204 C 0.1500(3) 1.2972(3) 1.0774(3)
C205 C 0.0440(3) 1.3367(3) 1.0818(2)
C206 C 0.0522(3) 1.3766(3) 1.1193(3)
C207 C 0.0010(3) 1.4016(3) 1.1437(3)
C208 C 0.0547(3) 0.6127(3) 0.8700(3)
C209 C 0.0127(3) 0.6769(3) 0.9285(3)
H23 H 0.1027 0.7655 0.8351
H24 H 0.2305 0.6438 0.8326
H25 H 0.2540 0.6744 0.7380
H26 H 0.1970 0.7514 0.6899
H27 H -0.0682 0.8688 0.7061
H28 H 0.1022 0.9630 0.6131
H29 H -0.2093 1.1978 0.7952
H30 H -0.0456 1.2986 0.6985
H31 H -0.1033 1.4388 0.8484
H32 H -0.1078 1.4944 0.9230
H33 H 0.1239 0.5513 0.9868
H34 H 0.1275 0.7050 1.0369
H35 H 0.2181 0.7717 0.9283
H36 H 0.2576 0.6012 0.9526
H37 H 0.3562 0.6177 0.9607
H38 H 0.3887 0.7141 0.9462
H39 H 0.3136 0.9652 0.8136
H40 H 0.4311 0.9344 0.9726
H41 H 0.1696 1.2927 0.8963
H42 H 0.2723 1.2623 1.0646
H43 H 0.0901 1.3860 1.1282
H44 H 0.0042 1.4281 1.1694
H45 H 0.0886 0.5953 0.8539
H46 H 0.0179 0.7042 0.9526
H71 H -0.1316 0.9514 0.6284
H72 H -0.0586 0.9582 0.5426
H73 H -0.0940 1.0202 0.5415
H74 H 0.0151 1.0335 0.5504
H75 H -0.0912 1.0212 0.6919
H76 H -0.0085 1.0660 0.6490
H77 H -0.1275 1.1058 0.7151
H78 H -0.0456 1.1539 0.6706
H79 H -0.2249 1.1645 0.6880
H80 H -0.1762 1.1984 0.5911
H81 H -0.1934 1.2543 0.6218
H82 H -0.0816 1.2486 0.6053
H83 H 0.3800 1.0701 0.7864
H84 H 0.4681 1.1058 0.8301
H85 H 0.4799 1.0382 0.8237
H86 H 0.4764 1.0462 0.9275
H87 H 0.3121 1.0931 0.8727
H88 H 0.3650 1.0770 0.9523
H89 H 0.2742 1.1773 0.8950
H90 H 0.3250 1.1619 0.9752
H91 H 0.2867 1.2850 0.8439
H92 H 0.3886 1.2838 0.8837
H93 H 0.3462 1.3327 0.9084
H94 H 0.3757 1.2577 0.9887
Pd2A Pd -0.14480(2) 1.33129(2) 1.07680(2)
F13A F 0.2090(2) 0.9771(2) 1.4061(2)
F14A F 0.2459(2) 0.8963(2) 1.3807(2)
F15A F 0.2258(2) 0.9709(2) 1.3172(2)
F16A F -0.0233(2) 0.8383(2) 1.44405(18)
F17A F 0.0295(2) 0.8786(2) 1.49849(17)
F18A F 0.0580(2) 0.79579(19) 1.47521(16)
F19A F -0.3897(2) 0.82759(18) 1.24815(18)
F20A F -0.2971(2) 0.8067(2) 1.22866(17)
F21A F -0.3631(2) 0.74417(18) 1.22205(17)
F22A F -0.47123(19) 0.77710(19) 1.0461(2)
F23A F -0.4557(2) 0.8596(2) 0.99259(19)
F24A F -0.50979(18) 0.85666(19) 1.07055(19)
O13A O -0.0144(2) 1.2224(2) 1.2336(2)
O14A O -0.1788(2) 1.1339(2) 1.3242(2)
O15A O 0.1240(2) 0.8920(2) 1.4184(2)
O16A O 0.1950(2) 0.7356(2) 1.1074(2)
O17A O 0.0404(2) 0.6336(2) 1.2039(2)
O18A O -0.2685(2) 1.1554(2) 1.15288(19)
O19A O -0.3885(2) 1.1900(2) 1.0029(2)
O20A O -0.4133(2) 0.8149(2) 1.1339(2)
O21A O -0.0562(2) 0.6831(2) 1.0353(2)
O22A O -0.1583(2) 0.7046(3) 0.8736(2)
N17A N -0.1638(2) 1.2990(2) 1.1583(2)
N19A N -0.1067(2) 1.1884(2) 1.2695(2)
N21A N 0.1169(2) 0.6751(2) 1.1444(2)
N23A N -0.1283(2) 1.3676(2) 0.9956(2)
N25A N -0.2296(2) 1.3154(2) 1.0607(2)
N27A N -0.3225(2) 1.1879(2) 1.0741(2)
N29A N -0.0939(2) 0.6881(3) 0.9464(2)
N31A N -0.0619(2) 1.3487(2) 1.0951(2)
C130A C -0.1323(3) 1.2537(3) 1.1850(3)
C131A C -0.2091(3) 1.3252(3) 1.1872(2)
C132A C -0.2228(3) 1.3071(3) 1.2429(2)
C133A C -0.1892(3) 1.2605(3) 1.2716(2)
C134A C -0.1432(3) 1.2336(3) 1.2419(2)
C135A C -0.0431(3) 1.1872(3) 1.2633(3)
C136A C -0.1263(3) 1.1414(3) 1.3103(3)
C137A C -0.0232(3) 1.1345(3) 1.3031(3)
C138A C -0.0733(3) 1.1073(3) 1.3298(3)
C139A C 0.0352(3) 1.1132(3) 1.3127(3)
C140A C -0.0688(3) 1.0565(3) 1.3691(3)
C141A C 0.0393(3) 1.0639(3) 1.3531(3)
C142A C -0.0095(4) 1.0366(3) 1.3789(3)
C143A C 0.0944(3) 1.0284(3) 1.3758(3)
C144A C 0.0688(4) 1.0081(3) 1.4368(3)
C145A C 0.0132(4) 0.9824(3) 1.4193(3)
C146A C 0.0945(3) 0.9701(3) 1.3495(3)
C147A C 0.0379(3) 0.9385(3) 1.3778(3)
C148A C 0.1431(3) 0.9211(3) 1.3629(3)
C149A C 0.2066(4) 0.9418(3) 1.3656(4)
C150A C 0.0658(3) 0.8783(3) 1.4029(2)
C151A C 0.0328(4) 0.8477(3) 1.4558(3)
C152A C 0.1364(3) 0.8745(3) 1.3235(3)
C153A C 0.0792(3) 0.8432(3) 1.3540(2)
C154A C 0.1831(3) 0.8243(3) 1.3198(3)
C155A C 0.1708(4) 0.7836(3) 1.3759(3)
C156A C 0.1040(4) 0.7774(3) 1.3657(3)
C157A C 0.1593(3) 0.7876(3) 1.2796(3)
C158A C 0.1109(3) 0.7578(3) 1.3078(3)
C159A C 0.1780(3) 0.7810(3) 1.2249(3)
C160A C 0.0793(3) 0.7198(3) 1.2834(3)
C161A C 0.1480(3) 0.7393(3) 1.2008(3)
C162A C 0.1001(3) 0.7100(3) 1.2296(3)
C163A C 0.1592(3) 0.7201(3) 1.1460(3)
C164A C 0.0800(3) 0.6683(3) 1.1949(3)
C165A C 0.1161(3) 0.6395(3) 1.1009(2)
C166A C 0.1099(3) 0.5796(3) 1.1139(3)
C167A C 0.1127(3) 0.5459(3) 1.0702(3)
C168A C -0.1216(3) 1.4264(3) 0.9837(3)
C169A C -0.1248(3) 1.3353(3) 0.9545(2)
C170A C -0.2468(3) 1.2593(3) 1.0666(2)
C171A C -0.2696(3) 1.3604(3) 1.0511(2)
C172A C -0.3294(3) 1.3504(3) 1.0475(3)
C173A C -0.3479(3) 1.2938(3) 1.0549(3)
C174A C -0.3061(3) 1.2470(3) 1.0646(2)
C175A C -0.3039(3) 1.1464(3) 1.1204(2)
C176A C -0.3655(3) 1.1643(3) 1.0426(3)
C177A C -0.3378(3) 1.0931(3) 1.1180(2)
C178A C -0.3732(3) 1.1028(3) 1.0723(2)
C179A C -0.3376(3) 1.0409(3) 1.1554(2)
C180A C -0.4081(3) 1.0602(3) 1.0586(3)
C181A C -0.3747(3) 0.9977(2) 1.1438(2)
C182A C -0.4092(3) 1.0073(3) 1.0956(3)
C183A C -0.3883(3) 0.9370(3) 1.1740(2)
C184A C -0.4532(3) 0.9336(3) 1.1595(3)
C185A C -0.4411(3) 0.9505(3) 1.0948(3)
C186A C -0.3532(3) 0.8952(3) 1.1360(2)
C187A C -0.3899(3) 0.9065(3) 1.0799(2)
C188A C -0.3565(3) 0.8277(3) 1.1518(2)
C189A C -0.3514(3) 0.8016(3) 1.2120(3)
C190A C -0.4054(3) 0.8408(3) 1.0760(2)
C191A C -0.4604(3) 0.8341(3) 1.0469(3)
C192A C -0.3108(3) 0.8010(3) 1.1105(2)
C193A C -0.3463(3) 0.8116(3) 1.0541(2)
C194A C -0.2969(3) 0.7336(3) 1.1180(2)
C195A C -0.3516(3) 0.7090(3) 1.0951(3)
C196A C -0.3458(3) 0.7482(3) 1.0381(3)
C197A C -0.2508(3) 0.7256(3) 1.0707(2)
C198A C -0.2820(3) 0.7345(3) 1.0211(3)
C199A C -0.1902(3) 0.7123(3) 1.0707(2)
C200A C -0.2523(3) 0.7304(3) 0.9686(3)
C201A C -0.1611(3) 0.7076(3) 1.0185(3)
C202A C -0.1920(3) 0.7158(3) 0.9689(3)
C203A C -0.0978(3) 0.6913(3) 1.0047(3)
C204A C -0.1500(3) 0.7028(3) 0.9226(3)
C205A C -0.0440(3) 0.6633(3) 0.9182(2)
C206A C -0.0522(3) 0.6234(3) 0.8807(3)
C207A C -0.0010(3) 0.5984(3) 0.8563(3)
C208A C -0.0547(3) 1.3873(3) 1.1300(3)
C209A C -0.0127(3) 1.3231(3) 1.0715(3)
H23A H -0.1027 1.2345 1.1649
H24A H -0.2305 1.3562 1.1674
H25A H -0.2540 1.3256 1.2620
H26A H -0.1970 1.2486 1.3101
H27A H 0.0682 1.1312 1.2939
H28A H -0.1022 1.0370 1.3869
H29A H 0.2093 0.8022 1.2048
H30A H 0.0456 0.7014 1.3015
H31A H 0.1033 0.5612 1.1516
H32A H 0.1078 0.5056 1.0770
H33A H -0.1239 1.4487 1.0132
H34A H -0.1275 1.2950 0.9631
H35A H -0.2181 1.2283 1.0717
H36A H -0.2576 1.3988 1.0474
H37A H -0.3562 1.3823 1.0393
H38A H -0.3887 1.2859 1.0538
H39A H -0.3136 1.0348 1.1864
H40A H -0.4311 1.0656 1.0274
H41A H -0.1696 0.7073 1.1037
H42A H -0.2723 0.7377 0.9354
H43A H -0.0901 0.6140 0.8718
H44A H -0.0042 0.5719 0.8306
H45A H -0.0886 1.4047 1.1461
H46A H -0.0179 1.2958 1.0474
H71A H 0.1316 1.0486 1.3716
H72A H 0.0586 1.0418 1.4574
H73A H 0.0940 0.9798 1.4585
H74A H -0.0151 0.9665 1.4496
H75A H 0.0912 0.9788 1.3081
H76A H 0.0085 0.9340 1.3510
H77A H 0.1275 0.8942 1.2849
H78A H 0.0456 0.8461 1.3294
H79A H 0.2249 0.8355 1.3120
H80A H 0.1762 0.8016 1.4089
H81A H 0.1934 0.7457 1.3782
H82A H 0.0816 0.7514 1.3947
H83A H -0.3800 0.9299 1.2136
H84A H -0.4681 0.8942 1.1699
H85A H -0.4799 0.9618 1.1763
H86A H -0.4764 0.9538 1.0725
H87A H -0.3121 0.9069 1.1273
H88A H -0.3650 0.9230 1.0477
H89A H -0.2742 0.8227 1.1050
H90A H -0.3250 0.8381 1.0248
H91A H -0.2867 0.7150 1.1561
H92A H -0.3886 0.7162 1.1163
H93A H -0.3462 0.6673 1.0916
H94A H -0.3757 0.7423 1.0113
F25 F 0.6806(6) 0.4491(7) 0.7052(4)
F26 F 0.6857(5) 0.5148(5) 0.6284(3)
F27 F 0.6645(5) 0.5413(6) 0.7144(4)
F28 F 0.7573(3) 0.5064(6) 0.6869(5)
B1 B 0.6987(8) 0.5005(10) 0.6852(6)
F29 F 0.5937(3) -0.0338(3) 0.4697(3)
F30 F 0.6713(5) -0.0096(6) 0.5153(4)
F31 F 0.6831(7) -0.0692(7) 0.4473(5)
F32 F 0.672(2) 0.0190(13) 0.4314(19)
B2 B 0.6550(7) -0.0254(6) 0.4625(6)
F33 F 0.1955(2) 0.54360(19) 0.88243(17)
F34 F 0.2496(2) 0.5404(2) 0.79866(19)
F35 F 0.2009(2) 0.45949(19) 0.84235(19)
F36 F 0.1484(2) 0.5401(2) 0.80174(17)
B3 B 0.1995(4) 0.5200(4) 0.8313(3)
F37 F 0.0676(9) 0.8816(7) 0.9737(8)
F38 F 0.0382(10) 0.7839(8) 1.0044(8)
F40 F 0.1302(13) 0.8097(19) 0.9787(18)
F42 F 0.0511(19) 0.8052(15) 0.9165(11)
B4 B 0.0697(10) 0.8222(8) 0.9678(8)
O2 O 0.2327(8) 0.3910(7) 0.1895(7)
O4 O -0.2479(16) 0.8895(16) 0.6598(14)
N2 N 0.9180(4) 0.2692(3) 0.3640(3)
C2 C 0.9290(4) 0.3079(4) 0.3275(3)
C3 C 0.9418(5) 0.3541(4) 0.2810(4)
N4 N 0.5559(4) 0.2132(4) 0.1488(3)
C5 C 0.5329(6) 0.1733(5) 0.1696(5)
C6 C 0.5002(9) 0.1165(8) 0.1835(8)
N6 N 0.6584(5) 0.5039(4) 0.0570(4)
C8 C 0.7003(4) 0.5313(4) 0.0441(4)
C9 C 0.7490(5) 0.5640(4) 0.0278(4)
N7 N 0.5507(5) 0.3842(4) 0.3323(4)
C11 C 0.5898(5) 0.4123(4) 0.3304(4)
C12 C 0.6406(6) 0.4492(5) 0.3268(5)
N10 N 0.5716(4) 0.2837(3) 0.4654(3)
C14 C 0.5543(4) 0.3311(4) 0.4717(3)
C15 C 0.5336(5) 0.3911(4) 0.4788(4)
N12 N 0.5430(5) 0.3021(4) 0.6161(4)
C17 C 0.4916(5) 0.3012(4) 0.6228(4)
C18 C 0.4270(6) 0.2994(6) 0.6298(5)
N14 N 0.9074(4) 0.5403(4) 0.7836(4)
C20 C 0.9054(5) 0.5174(5) 0.7426(4)
C21 C 0.8984(6) 0.4886(5) 0.6934(5)
N16 N 0.9466(8) 0.6240(7) 0.6314(7)
C23 C 0.9579(7) 0.6646(7) 0.5984(6)
C24 C 0.9714(7) 0.7108(6) 0.5562(6)
N18 N 0.8047(9) 0.6041(9) 0.5322(9)
C26 C 0.7963(8) 0.6246(8) 0.5726(8)
C27 C 0.7757(8) 0.6491(7) 0.6229(7)
N20 N 0.5907(6) 0.0362(6) 0.2912(6)
C29 C 0.5870(5) -0.0115(5) 0.3116(4)
C30 C 0.5906(6) -0.0697(5) 0.3367(5)
N22 N 0.0908(5) 0.4490(4) 0.9792(4)
C32 C 0.0719(6) 0.4464(5) 0.9338(5)
C33 C 0.0568(5) 0.4381(4) 0.8800(4)
N24 N 0.6058(6) 0.6790(5) 0.5228(5)
C35 C 0.6046(6) 0.6704(5) 0.5695(5)
C36 C 0.6065(10) 0.6516(9) 0.6347(8)
N26 N 0.6942(5) 0.3991(5) 0.4784(5)
C38 C 0.6907(5) 0.3827(5) 0.5277(5)
C39 C 0.6810(7) 0.3657(7) 0.5905(6)
N28 N 0.6845(8) 0.6017(7) 0.3242(7)
C41 C 0.6785(7) 0.5929(6) 0.2704(6)
C42 C 0.6691(5) 0.5844(5) 0.2172(4)
N30 N 0.5224(13) 0.5830(13) 0.2501(12)
C44 C 0.4948(13) 0.5629(12) 0.2920(10)
C45 C 0.4678(10) 0.5393(10) 0.3458(9)
N32 N 0.5795(11) 0.5360(11) 0.4415(10)
C47 C 0.6272(10) 0.5471(10) 0.4506(9)
C48 C 0.6822(10) 0.5515(9) 0.4713(9)
N33 N 0.9403(7) 0.4950(7) 0.5349(6)
C52 C 0.8856(10) 0.4764(9) 0.5463(8)
C53 C 0.8266(8) 0.4530(7) 0.5591(7)
N34 N 0.4407(6) 0.2872(5) 0.0880(5)
C55 C 0.4090(12) 0.2405(11) 0.1135(10)
C56 C 0.3828(13) 0.1975(13) 0.1331(11)
N35 N 0.8677(11) 0.7842(11) 0.6135(11)
C58 C 0.8719(11) 0.7595(11) 0.6640(11)
C59 C 0.8853(9) 0.7286(8) 0.7299(7)
N36 N 0.2481(8) 0.0671(7) 0.7597(7)
C61 C 0.2452(9) 0.0360(8) 0.7192(8)
C62 C 0.2328(8) -0.0003(7) 0.6748(7)
N37 N 0.8617(11) 0.9201(10) 0.4252(10)
C64 C 0.8367(11) 0.9148(9) 0.4656(10)
C65 C 0.8123(13) 0.9122(11) 0.5136(12)
N38 N 0.1224(11) 0.9176(10) 0.7968(10)
C67 C 0.1456(8) 0.9319(7) 0.8345(7)
C68 C 0.1673(9) 0.9490(8) 0.8814(7)
N39 N 0.0161(15) 0.1765(14) 0.7747(13)
C70 C 0.020(2) 0.2031(19) 0.8257(19)
C71 C 0.0362(9) 0.2381(9) 0.8652(8)
loop_
_geom_bond_atom_site_label_1
_geom_bond_atom_site_label_2
_geom_bond_site_symmetry_1
_geom_bond_site_symmetry_2
Pd1 N1 1_555 1_555
Pd2 N17 1_555 1_555
F1 C57 1_555 1_555
F2 C57 1_555 1_555
F3 C57 1_555 1_555
F4 C63 1_555 1_555
F5 C63 1_555 1_555
F6 C63 1_555 1_555
F7 C109 1_555 1_555
F8 C109 1_555 1_555
F9 C109 1_555 1_555
F10 C111 1_555 1_555
F11 C111 1_555 1_555
F12 C111 1_555 1_555
F13 C149 1_555 1_555
F14 C149 1_555 1_555
F15 C149 1_555 1_555
F16 C151 1_555 1_555
F17 C151 1_555 1_555
F18 C151 1_555 1_555
F19 C189 1_555 1_555
F20 C189 1_555 1_555
F21 C189 1_555 1_555
F22 C191 1_555 1_555
F23 C191 1_555 1_555
F24 C191 1_555 1_555
F25 B1 1_555 1_555
F26 B1 1_555 1_555
F27 B1 1_555 1_555
F28 B1 1_555 1_555
F29 B2 1_555 1_555
F30 B2 1_555 1_555
F31 B2 1_555 1_555
F32 B2 1_555 1_555
F33 B3 1_555 1_555
F34 B3 1_555 1_555
F35 B3 1_555 1_555
F36 B3 1_555 1_555
F37 B4 1_555 1_555
F38 B4 1_555 1_555
F40 B4 1_555 1_555
F42 B4 1_555 1_555
O1 C16 1_555 1_555
O3 C19 1_555 1_555
O5 C54 1_555 1_555
O6 C83 1_555 1_555
O7 C84 1_555 1_555
O8 C95 1_555 1_555
O9 C96 1_555 1_555
O10 C108 1_555 1_555
O11 C123 1_555 1_555
O12 C124 1_555 1_555
O13 C135 1_555 1_555
O14 C136 1_555 1_555
O15 C148 1_555 1_555
O16 C163 1_555 1_555
O17 C164 1_555 1_555
O18 C175 1_555 1_555
O19 C176 1_555 1_555
O20 C188 1_555 1_555
O21 C203 1_555 1_555
O22 C204 1_555 1_555
N1 C1 1_555 1_555
N2 C2 1_555 1_555
N3 C13 1_555 1_555
N4 C5 1_555 1_555
N5 C83 1_555 1_555
N6 C8 1_555 1_555
N7 C11 1_555 1_555
N8 Pd1 1_555 1_555
N9 Pd1 1_555 1_555
N10 C14 1_555 1_555
N11 C94 1_555 1_555
N12 C17 1_555 1_555
N13 C123 1_555 1_555
N14 C20 1_555 1_555
N15 Pd1 1_555 1_555
N16 C23 1_555 1_555
N17 C130 1_555 1_555
N18 C26 1_555 1_555
N19 C134 1_555 1_555
N20 C29 1_555 1_555
N21 C163 1_555 1_555
N22 C32 1_555 1_555
N23 Pd2 1_555 1_555
N24 C35 1_555 1_555
N25 Pd2 1_555 1_555
N26 C38 1_555 1_555
N27 C174 1_555 1_555
N28 C41 1_555 1_555
N29 C203 1_555 1_555
N30 C44 1_555 1_555
N31 Pd2 1_555 1_555
N32 C47 1_555 1_555
N33 C52 1_555 1_555
N34 C55 1_555 1_555
N35 C58 1_555 1_555
N36 C61 1_555 1_555
N37 C64 1_555 1_555
N38 C67 1_555 1_555
N39 C70 1_555 1_555
C1 C13 1_555 1_555
C2 C3 1_555 1_555
C4 N1 1_555 1_555
C5 C6 1_555 1_555
C7 C4 1_555 1_555
C8 C9 1_555 1_555
C10 C7 1_555 1_555
C11 C12 1_555 1_555
C13 C10 1_555 1_555
C14 C15 1_555 1_555
C16 N3 1_555 1_555
C17 C18 1_555 1_555
C19 N3 1_555 1_555
C20 C21 1_555 1_555
C22 C16 1_555 1_555
C23 C24 1_555 1_555
C25 C19 1_555 1_555
C26 C27 1_555 1_555
C28 C22 1_555 1_555
C29 C30 1_555 1_555
C31 C25 1_555 1_555
C32 C33 1_555 1_555
C34 C28 1_555 1_555
C35 C36 1_555 1_555
C37 C31 1_555 1_555
C38 C39 1_555 1_555
C40 C34 1_555 1_555
C41 C42 1_555 1_555
C43 C40 1_555 1_555
C44 C45 1_555 1_555
C46 C37 1_555 1_555
C47 C48 1_555 1_555
C49 C40 1_555 1_555
C51 C46 1_555 1_555
C52 C53 1_555 1_555
C54 C49 1_555 1_555
C55 C56 1_555 1_555
C57 C54 1_555 1_555
C58 C59 1_555 1_555
C60 O5 1_555 1_555
C61 C62 1_555 1_555
C63 C60 1_555 1_555
C64 C65 1_555 1_555
C66 C54 1_555 1_555
C67 C68 1_555 1_555
C69 C60 1_555 1_555
C70 C71 1_555 1_555
C72 C66 1_555 1_555
C75 C72 1_555 1_555
C76 C69 1_555 1_555
C77 C72 1_555 1_555
C78 C76 1_555 1_555
C79 C77 1_555 1_555
C80 C78 1_555 1_555
C81 C79 1_555 1_555
C82 C80 1_555 1_555
C83 C81 1_555 1_555
C84 N5 1_555 1_555
C85 C86 1_555 1_555
C86 C87 1_555 1_555
C87 N5 1_555 1_555
C88 N8 1_555 1_555
C89 N8 1_555 1_555
C90 N9 1_555 1_555
C91 N9 1_555 1_555
C92 C91 1_555 1_555
C93 C92 1_555 1_555
C94 C90 1_555 1_555
C95 N11 1_555 1_555
C96 N11 1_555 1_555
C97 C95 1_555 1_555
C98 C96 1_555 1_555
C99 C97 1_555 1_555
C100 C98 1_555 1_555
C101 C99 1_555 1_555
C102 C100 1_555 1_555
C103 C101 1_555 1_555
C104 C103 1_555 1_555
C105 C102 1_555 1_555
C106 C103 1_555 1_555
C107 C105 1_555 1_555
C108 C106 1_555 1_555
C109 C108 1_555 1_555
C110 O10 1_555 1_555
C111 C110 1_555 1_555
C112 C108 1_555 1_555
C113 C110 1_555 1_555
C114 C112 1_555 1_555
C115 C114 1_555 1_555
C116 C113 1_555 1_555
C117 C114 1_555 1_555
C118 C116 1_555 1_555
C119 C117 1_555 1_555
C120 C118 1_555 1_555
C121 C119 1_555 1_555
C122 C120 1_555 1_555
C123 C121 1_555 1_555
C124 N13 1_555 1_555
C125 N13 1_555 1_555
C126 C125 1_555 1_555
C127 C126 1_555 1_555
C128 N15 1_555 1_555
C129 N15 1_555 1_555
C130 C134 1_555 1_555
C131 N17 1_555 1_555
C132 C131 1_555 1_555
C133 C132 1_555 1_555
C134 C133 1_555 1_555
C135 N19 1_555 1_555
C136 N19 1_555 1_555
C137 C135 1_555 1_555
C138 C136 1_555 1_555
C139 C137 1_555 1_555
C140 C138 1_555 1_555
C141 C139 1_555 1_555
C142 C140 1_555 1_555
C143 C141 1_555 1_555
C144 C143 1_555 1_555
C145 C142 1_555 1_555
C146 C143 1_555 1_555
C147 C145 1_555 1_555
C148 C146 1_555 1_555
C149 C148 1_555 1_555
C150 O15 1_555 1_555
C151 C150 1_555 1_555
C152 C148 1_555 1_555
C153 C150 1_555 1_555
C154 C152 1_555 1_555
C155 C154 1_555 1_555
C156 C153 1_555 1_555
C157 C154 1_555 1_555
C158 C156 1_555 1_555
C159 C157 1_555 1_555
C160 C158 1_555 1_555
C161 C159 1_555 1_555
C162 C160 1_555 1_555
C163 C161 1_555 1_555
C164 N21 1_555 1_555
C165 N21 1_555 1_555
C166 C165 1_555 1_555
C167 C166 1_555 1_555
C168 N23 1_555 1_555
C169 N23 1_555 1_555
C170 N25 1_555 1_555
C171 N25 1_555 1_555
C172 C171 1_555 1_555
C173 C172 1_555 1_555
C174 C170 1_555 1_555
C175 N27 1_555 1_555
C176 N27 1_555 1_555
C177 C175 1_555 1_555
C178 C176 1_555 1_555
C179 C177 1_555 1_555
C180 C178 1_555 1_555
C181 C179 1_555 1_555
C182 C180 1_555 1_555
C183 C181 1_555 1_555
C184 C183 1_555 1_555
C185 C182 1_555 1_555
C186 C183 1_555 1_555
C187 C185 1_555 1_555
C188 C186 1_555 1_555
C189 C188 1_555 1_555
C190 O20 1_555 1_555
C191 C190 1_555 1_555
C192 C188 1_555 1_555
C193 C190 1_555 1_555
C194 C192 1_555 1_555
C195 C194 1_555 1_555
C196 C193 1_555 1_555
C197 C194 1_555 1_555
C198 C196 1_555 1_555
C199 C197 1_555 1_555
C200 C198 1_555 1_555
C201 C199 1_555 1_555
C202 C200 1_555 1_555
C203 C201 1_555 1_555
C204 N29 1_555 1_555
C205 N29 1_555 1_555
C206 C205 1_555 1_555
C207 C206 1_555 1_555
C208 N31 1_555 1_555
C209 N31 1_555 1_555
H1 C1 1_555 1_555
H2 C4 1_555 1_555
H3 C7 1_555 1_555
H4 C10 1_555 1_555
H5 C127 1_555 1_555
H6 C88 1_555 1_555
H7 C85 1_555 1_555
H8 C90 1_555 1_555
H9 C91 1_555 1_555
H10 C92 1_555 1_555
H11 C93 1_555 1_555
H12 C126 1_555 1_555
H13 C128 1_555 1_555
H14 C129 1_555 1_555
H15 C28 1_555 1_555
H16 C31 1_555 1_555
H17 C79 1_555 1_555
H18 C80 1_555 1_555
H19 C99 1_555 1_555
H20 C100 1_555 1_555
H21 C119 1_555 1_555
H22 C120 1_555 1_555
H23 C130 1_555 1_555
H24 C131 1_555 1_555
H25 C132 1_555 1_555
H26 C133 1_555 1_555
H27 C139 1_555 1_555
H28 C140 1_555 1_555
H29 C159 1_555 1_555
H30 C160 1_555 1_555
H31 C166 1_555 1_555
H32 C167 1_555 1_555
H33 C168 1_555 1_555
H34 C169 1_555 1_555
H35 C170 1_555 1_555
H36 C171 1_555 1_555
H37 C172 1_555 1_555
H38 C173 1_555 1_555
H39 C179 1_555 1_555
H40 C180 1_555 1_555
H41 C199 1_555 1_555
H42 C200 1_555 1_555
H43 C206 1_555 1_555
H44 C207 1_555 1_555
H45 C208 1_555 1_555
H46 C209 1_555 1_555
H47 C40 1_555 1_555
H48 C43 1_555 1_555
H49 C43 1_555 1_555
H50 C46 1_555 1_555
H51 C49 1_555 1_555
H52 C51 1_555 1_555
H53 C66 1_555 1_555
H54 C69 1_555 1_555
H55 C72 1_555 1_555
H56 C75 1_555 1_555
H57 C75 1_555 1_555
H58 C76 1_555 1_555
H59 C103 1_555 1_555
H60 C104 1_555 1_555
H61 C104 1_555 1_555
H62 C105 1_555 1_555
H63 C106 1_555 1_555
H64 C107 1_555 1_555
H65 C112 1_555 1_555
H66 C113 1_555 1_555
H67 C114 1_555 1_555
H68 C115 1_555 1_555
H69 C115 1_555 1_555
H70 C116 1_555 1_555
H71 C143 1_555 1_555
H72 C144 1_555 1_555
H73 C144 1_555 1_555
H74 C145 1_555 1_555
H75 C146 1_555 1_555
H76 C147 1_555 1_555
H77 C152 1_555 1_555
H78 C153 1_555 1_555
H79 C154 1_555 1_555
H80 C155 1_555 1_555
H81 C155 1_555 1_555
H82 C156 1_555 1_555
H83 C183 1_555 1_555
H84 C184 1_555 1_555
H85 C184 1_555 1_555
H86 C185 1_555 1_555
H87 C186 1_555 1_555
H88 C187 1_555 1_555
H89 C192 1_555 1_555
H90 C193 1_555 1_555
H91 C194 1_555 1_555
H92 C195 1_555 1_555
H93 C195 1_555 1_555
H94 C196 1_555 1_555
H95 C86 1_555 1_555
H96 C89 1_555 1_555
Pd1A N1A 1_555 1_555
Pd2A N17A 1_555 1_555
F1A C57A 1_555 1_555
F2A C57A 1_555 1_555
F3A C57A 1_555 1_555
F4A C63A 1_555 1_555
F5A C63A 1_555 1_555
F6A C63A 1_555 1_555
F7A C109A 1_555 1_555
F8A C109A 1_555 1_555
F9A C109A 1_555 1_555
F10A C111A 1_555 1_555
F11A C111A 1_555 1_555
F12A C111A 1_555 1_555
F13A C149A 1_555 1_555
F14A C149A 1_555 1_555
F15A C149A 1_555 1_555
F16A C151A 1_555 1_555
F17A C151A 1_555 1_555
F18A C151A 1_555 1_555
F19A C189A 1_555 1_555
F20A C189A 1_555 1_555
F21A C189A 1_555 1_555
F22A C191A 1_555 1_555
F23A C191A 1_555 1_555
F24A C191A 1_555 1_555
O1A C16A 1_555 1_555
O3A C19A 1_555 1_555
O5A C54A 1_555 1_555
O6A C83A 1_555 1_555
O7A C84A 1_555 1_555
O8A C95A 1_555 1_555
O9A C96A 1_555 1_555
O10A C108A 1_555 1_555
O11A C123A 1_555 1_555
O12A C124A 1_555 1_555
O13A C135A 1_555 1_555
O14A C136A 1_555 1_555
O15A C148A 1_555 1_555
O16A C163A 1_555 1_555
O17A C164A 1_555 1_555
O18A C175A 1_555 1_555
O19A C176A 1_555 1_555
O20A C188A 1_555 1_555
O21A C203A 1_555 1_555
O22A C204A 1_555 1_555
N1A C1A 1_555 1_555
N3A C13A 1_555 1_555
N5A C83A 1_555 1_555
N8A Pd1A 1_555 1_555
N9A Pd1A 1_555 1_555
N11A C94A 1_555 1_555
N13A C123A 1_555 1_555
N15A Pd1A 1_555 1_555
N17A C130A 1_555 1_555
N19A C134A 1_555 1_555
N21A C163A 1_555 1_555
N23A Pd2A 1_555 1_555
N25A Pd2A 1_555 1_555
N27A C174A 1_555 1_555
N29A C203A 1_555 1_555
N31A Pd2A 1_555 1_555
C1A C13A 1_555 1_555
C4A N1A 1_555 1_555
C7A C4A 1_555 1_555
C10A C7A 1_555 1_555
C13A C10A 1_555 1_555
C16A N3A 1_555 1_555
C19A N3A 1_555 1_555
C22A C16A 1_555 1_555
C25A C19A 1_555 1_555
C28A C22A 1_555 1_555
C31A C25A 1_555 1_555
C34A C28A 1_555 1_555
C37A C31A 1_555 1_555
C40A C34A 1_555 1_555
C43A C40A 1_555 1_555
C46A C37A 1_555 1_555
C49A C40A 1_555 1_555
C51A C46A 1_555 1_555
C54A C49A 1_555 1_555
C57A C54A 1_555 1_555
C60A O5A 1_555 1_555
C63A C60A 1_555 1_555
C66A C54A 1_555 1_555
C69A C60A 1_555 1_555
C72A C66A 1_555 1_555
C75A C72A 1_555 1_555
C76A C69A 1_555 1_555
C77A C72A 1_555 1_555
C78A C76A 1_555 1_555
C79A C77A 1_555 1_555
C80A C78A 1_555 1_555
C81A C79A 1_555 1_555
C82A C80A 1_555 1_555
C83A C81A 1_555 1_555
C84A N5A 1_555 1_555
C85A C89 1_555 1_555
C86A C85A 1_555 1_555
C87A C88 1_555 1_555
C88A C87 1_555 1_555
C89A C85 1_555 1_555
C90A N9A 1_555 1_555
C91A N9A 1_555 1_555
C92A C91A 1_555 1_555
C93A C92A 1_555 1_555
C94A C90A 1_555 1_555
C95A N11A 1_555 1_555
C96A N11A 1_555 1_555
C97A C95A 1_555 1_555
C98A C96A 1_555 1_555
C99A C97A 1_555 1_555
C100A C98A 1_555 1_555
C101A C99A 1_555 1_555
C102A C100A 1_555 1_555
C103A C101A 1_555 1_555
C104A C103A 1_555 1_555
C105A C102A 1_555 1_555
C106A C103A 1_555 1_555
C107A C105A 1_555 1_555
C108A C106A 1_555 1_555
C109A C108A 1_555 1_555
C110A O10A 1_555 1_555
C111A C110A 1_555 1_555
C112A C108A 1_555 1_555
C113A C110A 1_555 1_555
C114A C112A 1_555 1_555
C115A C114A 1_555 1_555
C116A C113A 1_555 1_555
C117A C114A 1_555 1_555
C118A C116A 1_555 1_555
C119A C117A 1_555 1_555
C120A C118A 1_555 1_555
C121A C119A 1_555 1_555
C122A C120A 1_555 1_555
C123A C121A 1_555 1_555
C124A N13A 1_555 1_555
C125A C129 1_555 1_555
C126A C125A 1_555 1_555
C127A C128 1_555 1_555
C128A C127 1_555 1_555
C129A C125 1_555 1_555
C130A C134A 1_555 1_555
C131A N17A 1_555 1_555
C132A C131A 1_555 1_555
C133A C132A 1_555 1_555
C134A C133A 1_555 1_555
C135A N19A 1_555 1_555
C136A N19A 1_555 1_555
C137A C135A 1_555 1_555
C138A C136A 1_555 1_555
C139A C137A 1_555 1_555
C140A C138A 1_555 1_555
C141A C139A 1_555 1_555
C142A C140A 1_555 1_555
C143A C141A 1_555 1_555
C144A C143A 1_555 1_555
C145A C142A 1_555 1_555
C146A C143A 1_555 1_555
C147A C145A 1_555 1_555
C148A C146A 1_555 1_555
C149A C148A 1_555 1_555
C150A O15A 1_555 1_555
C151A C150A 1_555 1_555
C152A C148A 1_555 1_555
C153A C150A 1_555 1_555
C154A C152A 1_555 1_555
C155A C154A 1_555 1_555
C156A C153A 1_555 1_555
C157A C154A 1_555 1_555
C158A C156A 1_555 1_555
C159A C157A 1_555 1_555
C160A C158A 1_555 1_555
C161A C159A 1_555 1_555
C162A C160A 1_555 1_555
C163A C161A 1_555 1_555
C164A N21A 1_555 1_555
C165A C169 1_555 1_555
C166A C165A 1_555 1_555
C167A C168 1_555 1_555
C168A C167 1_555 1_555
C169A C165 1_555 1_555
C170A N25A 1_555 1_555
C171A N25A 1_555 1_555
C172A C171A 1_555 1_555
C173A C172A 1_555 1_555
C174A C170A 1_555 1_555
C175A N27A 1_555 1_555
C176A N27A 1_555 1_555
C177A C175A 1_555 1_555
C178A C176A 1_555 1_555
C179A C177A 1_555 1_555
C180A C178A 1_555 1_555
C181A C179A 1_555 1_555
C182A C180A 1_555 1_555
C183A C181A 1_555 1_555
C184A C183A 1_555 1_555
C185A C182A 1_555 1_555
C186A C183A 1_555 1_555
C187A C185A 1_555 1_555
C188A C186A 1_555 1_555
C189A C188A 1_555 1_555
C190A O20A 1_555 1_555
C191A C190A 1_555 1_555
C192A C188A 1_555 1_555
C193A C190A 1_555 1_555
C194A C192A 1_555 1_555
C195A C194A 1_555 1_555
C196A C193A 1_555 1_555
C197A C194A 1_555 1_555
C198A C196A 1_555 1_555
C199A C197A 1_555 1_555
C200A C198A 1_555 1_555
C201A C199A 1_555 1_555
C202A C200A 1_555 1_555
C203A C201A 1_555 1_555
C204A N29A 1_555 1_555
C205A C209 1_555 1_555
C206A C205A 1_555 1_555
C207A C208 1_555 1_555
C208A C207 1_555 1_555
C209A C205 1_555 1_555
H1A C1A 1_555 1_555
H2A C4A 1_555 1_555
H3A C7A 1_555 1_555
H4A C10A 1_555 1_555
H5A C127A 1_555 1_555
H6A C88A 1_555 1_555
H7A C85A 1_555 1_555
H8A C90A 1_555 1_555
H9A C91A 1_555 1_555
H10A C92A 1_555 1_555
H11A C93A 1_555 1_555
H12A C126A 1_555 1_555
H13A C128A 1_555 1_555
H14A C129A 1_555 1_555
H15A C28A 1_555 1_555
H16A C31A 1_555 1_555
H17A C79A 1_555 1_555
H18A C80A 1_555 1_555
H19A C99A 1_555 1_555
H20A C100A 1_555 1_555
H21A C119A 1_555 1_555
H22A C120A 1_555 1_555
H23A C130A 1_555 1_555
H24A C131A 1_555 1_555
H25A C132A 1_555 1_555
H26A C133A 1_555 1_555
H27A C139A 1_555 1_555
H28A C140A 1_555 1_555
H29A C159A 1_555 1_555
H30A C160A 1_555 1_555
H31A C166A 1_555 1_555
H32A C167A 1_555 1_555
H33A C168A 1_555 1_555
H34A C169A 1_555 1_555
H35A C170A 1_555 1_555
H36A C171A 1_555 1_555
H37A C172A 1_555 1_555
H38A C173A 1_555 1_555
H39A C179A 1_555 1_555
H40A C180A 1_555 1_555
H41A C199A 1_555 1_555
H42A C200A 1_555 1_555
H43A C206A 1_555 1_555
H44A C207A 1_555 1_555
H45A C208A 1_555 1_555
H46A C209A 1_555 1_555
H47A C40A 1_555 1_555
H48A C43A 1_555 1_555
H49A C43A 1_555 1_555
H50A C46A 1_555 1_555
H51A C49A 1_555 1_555
H52A C51A 1_555 1_555
H53A C66A 1_555 1_555
H54A C69A 1_555 1_555
H55A C72A 1_555 1_555
H56A C75A 1_555 1_555
H57A C75A 1_555 1_555
H58A C76A 1_555 1_555
H59A C103A 1_555 1_555
H60A C104A 1_555 1_555
H61A C104A 1_555 1_555
H62A C105A 1_555 1_555
H63A C106A 1_555 1_555
H64A C107A 1_555 1_555
H65A C112A 1_555 1_555
H66A C113A 1_555 1_555
H67A C114A 1_555 1_555
H68A C115A 1_555 1_555
H69A C115A 1_555 1_555
H70A C116A 1_555 1_555
H71A C143A 1_555 1_555
H72A C144A 1_555 1_555
H73A C144A 1_555 1_555
H74A C145A 1_555 1_555
H75A C146A 1_555 1_555
H76A C147A 1_555 1_555
H77A C152A 1_555 1_555
H78A C153A 1_555 1_555
H79A C154A 1_555 1_555
H80A C155A 1_555 1_555
H81A C155A 1_555 1_555
H82A C156A 1_555 1_555
H83A C183A 1_555 1_555
H84A C184A 1_555 1_555
H85A C184A 1_555 1_555
H86A C185A 1_555 1_555
H87A C186A 1_555 1_555
H88A C187A 1_555 1_555
H89A C192A 1_555 1_555
H90A C193A 1_555 1_555
H91A C194A 1_555 1_555
H92A C195A 1_555 1_555
H93A C195A 1_555 1_555
H94A C196A 1_555 1_555
H95A C86A 1_555 1_555
H96A C89A 1_555 1_555
C22 C25 1_555 1_555
C34 C37 1_555 1_555
C43 C46 1_555 1_555
C49 C51 1_555 1_555
C51 C60 1_555 1_555
C66 C69 1_555 1_555
C75 C76 1_555 1_555
C77 C78 1_555 1_555
C81 C82 1_555 1_555
C82 C84 1_555 1_555
C93 C94 1_555 1_555
C97 C98 1_555 1_555
C101 C102 1_555 1_555
C104 C105 1_555 1_555
C106 C107 1_555 1_555
C107 C110 1_555 1_555
C112 C113 1_555 1_555
C115 C116 1_555 1_555
C117 C118 1_555 1_555
C121 C122 1_555 1_555
C122 C124 1_555 1_555
C137 C138 1_555 1_555
C141 C142 1_555 1_555
C144 C145 1_555 1_555
C146 C147 1_555 1_555
C147 C150 1_555 1_555
C152 C153 1_555 1_555
C155 C156 1_555 1_555
C157 C158 1_555 1_555
C161 C162 1_555 1_555
C162 C164 1_555 1_555
C173 C174 1_555 1_555
C177 C178 1_555 1_555
C181 C182 1_555 1_555
C184 C185 1_555 1_555
C186 C187 1_555 1_555
C187 C190 1_555 1_555
C192 C193 1_555 1_555
C195 C196 1_555 1_555
C197 C198 1_555 1_555
C201 C202 1_555 1_555
C202 C204 1_555 1_555
N5A C87A 1_555 1_555
N8A C88A 1_555 1_555
N8A C89A 1_555 1_555
N13A C125A 1_555 1_555
N15A C128A 1_555 1_555
N15A C129A 1_555 1_555
N21A C165A 1_555 1_555
N23A C168A 1_555 1_555
N23A C169A 1_555 1_555
N29A C205A 1_555 1_555
N31A C208A 1_555 1_555
N31A C209A 1_555 1_555
C22A C25A 1_555 1_555
C34A C37A 1_555 1_555
C43A C46A 1_555 1_555
C49A C51A 1_555 1_555
C51A C60A 1_555 1_555
C66A C69A 1_555 1_555
C75A C76A 1_555 1_555
C77A C78A 1_555 1_555
C81A C82A 1_555 1_555
C82A C84A 1_555 1_555
C86A C87A 1_555 1_555
C93A C94A 1_555 1_555
C97A C98A 1_555 1_555
C101A C102A 1_555 1_555
C104A C105A 1_555 1_555
C106A C107A 1_555 1_555
C107A C110A 1_555 1_555
C112A C113A 1_555 1_555
C115A C116A 1_555 1_555
C117A C118A 1_555 1_555
C121A C122A 1_555 1_555
C122A C124A 1_555 1_555
C126A C127A 1_555 1_555
C137A C138A 1_555 1_555
C141A C142A 1_555 1_555
C144A C145A 1_555 1_555
C146A C147A 1_555 1_555
C147A C150A 1_555 1_555
C152A C153A 1_555 1_555
C155A C156A 1_555 1_555
C157A C158A 1_555 1_555
C161A C162A 1_555 1_555
C162A C164A 1_555 1_555
C166A C167A 1_555 1_555
C173A C174A 1_555 1_555
C177A C178A 1_555 1_555
C181A C182A 1_555 1_555
C184A C185A 1_555 1_555
C186A C187A 1_555 1_555
C187A C190A 1_555 1_555
C192A C193A 1_555 1_555
C195A C196A 1_555 1_555
C197A C198A 1_555 1_555
C201A C202A 1_555 1_555
C202A C204A 1_555 1_555
C206A C207A 1_555 1_555

#END
