
#######################################################################
#
#                 Cambridge Crystallographic Data Centre
#                                CCDC 
#
#######################################################################
#
# If this CIF has been generated from an entry in the Cambridge 
# Structural Database, then it will include bibliographic, chemical, 
# crystal, experimental, refinement or atomic coordinate data resulting 
# from the CCDC's data processing and validation procedures.
#
#######################################################################

data_TUDZAV
_chemical_formula_moiety         
'C386 H288 Cu8 N26 P16 Zn2 8+,8(C2 F6 N1 O4 S2 1-),2(C4 H8 O2),2(C2 H3 N1)'
_chemical_name_systematic        
"bis(\m~5~-5,10,15,20-tetrakis(4-(((pyridin-2-yl)methylidene)amino)phenyl)porphyrin-21,23-diyl)-octakis(\m~2~-1,4-phenylenebis(diphenylphosphine))-(\m~2~-3,3'-bipyridine)-octa-copper-di-zinc octakis(bis((trifluoromethyl)sulfonyl)azanide) acetonitrile ethyl acetate unknown solvate"
_symmetry_cell_setting           triclinic
_symmetry_space_group_name_H-M   'P -1'
_symmetry_Int_Tables_number      2
_space_group_name_Hall           '-P 1'
loop_
_symmetry_equiv_pos_site_id
_symmetry_equiv_pos_as_xyz
1 x,y,z
2 -x,-y,-z
_cell_length_a                   15.5221(10)
_cell_length_b                   28.4858(19)
_cell_length_c                   29.1372(19)
_cell_angle_alpha                109.686(2)
_cell_angle_beta                 100.734(2)
_cell_angle_gamma                104.527(2)
_cell_volume                     11212.4
_exptl_crystal_colour            'red brown'
_cell_formula_units_Z            1
_exptl_crystal_recrystallization_method 'acetonitrile/ ethyl acetate'
loop_
_atom_site_label
_atom_site_type_symbol
_atom_site_fract_x
_atom_site_fract_y
_atom_site_fract_z
Cu1 Cu 0.47773(9) 0.14967(5) 0.68712(5)
Cu2 Cu 0.26702(10) 0.23321(7) 0.19281(5)
Cu3 Cu 0.16412(11) 0.72973(6) 0.45312(7)
Cu4 Cu 0.33605(12) 0.68539(8) 0.94265(7)
Zn1 Zn 0.25661(8) 0.42668(4) 0.56913(4)
N1 N 0.3957(4) 0.1044(3) 0.7163(3)
N2 N 0.3527(5) 0.1664(3) 0.6686(3)
N3 N 0.1821(6) 0.1556(3) 0.1462(3)
N4 N 0.1783(5) 0.2188(3) 0.2375(3)
N5 N 0.0742(5) 0.7700(3) 0.4740(3)
N6 N 0.0947(5) 0.6847(3) 0.4896(3)
N7 N 0.2459(5) 0.3487(3) 0.5277(3)
N8 N 0.1965(5) 0.4298(3) 0.5009(3)
N9 N 0.2246(5) 0.4928(3) 0.6073(3)
N10 N 0.2795(6) 0.4142(3) 0.6348(3)
N11 N 0.3987(5) 0.4584(3) 0.5664(3)
C1 C 0.4130(4) 0.0712(3) 0.7375(3)
H1 H 0.4744 0.0699 0.7448
C2 C 0.3462(6) 0.0387(3) 0.7491(4)
H2 H 0.3616 0.0162 0.7647
C3 C 0.2569(5) 0.0397(4) 0.7377(4)
H3 H 0.2090 0.0169 0.7440
C4 C 0.2374(4) 0.0742(4) 0.7168(4)
H4 H 0.1768 0.0769 0.7105
C5 C 0.3080(5) 0.1050(3) 0.7053(4)
C6 C 0.2919(7) 0.1418(4) 0.6835(4)
H5 H 0.2339 0.1476 0.6802
C7 C 0.3357(4) 0.2029(2) 0.6472(3)
C8 C 0.2467(4) 0.2039(2) 0.6300(3)
H6 H 0.1940 0.1780 0.6296
C9 C 0.2349(3) 0.2428(3) 0.6132(3)
H7 H 0.1741 0.2435 0.6014
C10 C 0.3121(5) 0.2807(2) 0.6138(3)
C11 C 0.4011(4) 0.2797(2) 0.6311(2)
H8 H 0.4538 0.3056 0.6315
C12 C 0.4129(3) 0.2408(3) 0.6478(2)
H9 H 0.4736 0.2401 0.6596
C13 C 0.1788(8) 0.1251(4) 0.0987(3)
H10 H 0.2227 0.1390 0.0838
C14 C 0.1148(10) 0.0747(4) 0.0706(4)
H11 H 0.1189 0.0529 0.0388
C15 C 0.0451(10) 0.0569(4) 0.0899(5)
H12 H -0.0042 0.0242 0.0698
C16 C 0.0473(9) 0.0869(4) 0.1389(4)
H13 H 0.0030 0.0738 0.1540
C17 C 0.1157(8) 0.1366(4) 0.1655(3)
C18 C 0.1174(8) 0.1712(4) 0.2149(4)
H14 H 0.0739 0.1594 0.2310
C19 C 0.1809(4) 0.2514(2) 0.28690(16)
C20 C 0.2672(3) 0.2872(3) 0.3198(2)
H15 H 0.3209 0.2899 0.3083
C21 C 0.2750(3) 0.3191(2) 0.3695(2)
H16 H 0.3340 0.3436 0.3920
C22 C 0.1964(4) 0.3151(2) 0.38637(16)
C23 C 0.1101(3) 0.2793(2) 0.3535(2)
H17 H 0.0564 0.2766 0.3650
C24 C 0.1023(3) 0.2475(2) 0.30374(19)
H18 H 0.0433 0.2230 0.2813
C25 C 0.0661(7) 0.8142(3) 0.4689(4)
H19 H 0.0993 0.8272 0.4490
C26 C 0.0124(7) 0.8415(3) 0.4911(4)
H20 H 0.0106 0.8732 0.4875
C27 C -0.0383(7) 0.8216(3) 0.5184(4)
H21 H -0.0767 0.8393 0.5337
C28 C -0.0331(6) 0.7758(3) 0.5235(4)
H22 H -0.0672 0.7617 0.5425
C29 C 0.0230(6) 0.7507(3) 0.5003(4)
C30 C 0.0366(7) 0.7048(4) 0.5073(4)
H23 H 0.0018 0.6893 0.5253
C31 C 0.1079(4) 0.6400(2) 0.4989(3)
C32 C 0.0478(3) 0.6086(2) 0.5152(3)
H24 H -0.0086 0.6146 0.5189
C33 C 0.0700(4) 0.5684(2) 0.5262(3)
H25 H 0.0288 0.5470 0.5374
C34 C 0.1524(4) 0.5596(2) 0.5208(3)
C35 C 0.2125(3) 0.5910(2) 0.5044(3)
H26 H 0.2689 0.5850 0.5007
C36 C 0.1903(4) 0.6312(2) 0.4935(3)
H27 H 0.2315 0.6526 0.4823
N12 N 0.2464(8) 0.6789(5) 0.9831(4)
N13 N 0.2408(9) 0.6143(5) 0.8904(5)
C37 C 0.2499(8) 0.7112(4) 1.0300(4)
H28 H 0.2976 0.7450 1.0461
C38 C 0.1881(10) 0.6980(5) 1.0557(4)
H29 H 0.1939 0.7217 1.0891
C39 C 0.1180(9) 0.6496(6) 1.0318(5)
H30 H 0.0722 0.6401 1.0477
C40 C 0.1145(9) 0.6148(5) 0.9845(5)
H31 H 0.0675 0.5808 0.9678
C41 C 0.1809(10) 0.6305(5) 0.9616(4)
C42 C 0.1773(12) 0.5964(7) 0.9098(7)
H32 H 0.1303 0.5626 0.8913
C43 C 0.2414(7) 0.5813(4) 0.8396(3)
C44 C 0.3070(7) 0.6059(3) 0.8209(4)
H33 H 0.3476 0.6413 0.8410
C45 C 0.3132(7) 0.5787(4) 0.7728(4)
H34 H 0.3580 0.5955 0.7599
C46 C 0.2538(8) 0.5269(4) 0.7434(3)
C47 C 0.1882(7) 0.5023(3) 0.7621(4)
H35 H 0.1476 0.4669 0.7420
C48 C 0.1820(7) 0.5295(4) 0.8102(4)
H36 H 0.1372 0.5127 0.8231
C49 C 0.2716(7) 0.3162(3) 0.5492(4)
C50 C 0.2759(7) 0.2711(3) 0.5094(4)
H37 H 0.2933 0.2428 0.5136
C51 C 0.2508(6) 0.2763(3) 0.4647(4)
H38 H 0.2462 0.2521 0.4319
C52 C 0.2322(6) 0.3257(3) 0.4767(4)
C53 C 0.2045(6) 0.3471(3) 0.4415(3)
C54 C 0.1874(6) 0.3953(3) 0.4520(4)
C55 C 0.1623(6) 0.4163(3) 0.4164(4)
H39 H 0.1521 0.4001 0.3807
C56 C 0.1550(7) 0.4647(4) 0.4427(4)
H40 H 0.1388 0.4882 0.4289
C57 C 0.1770(6) 0.4721(4) 0.4953(4)
C58 C 0.1783(6) 0.5175(4) 0.5349(4)
C59 C 0.1985(6) 0.5261(4) 0.5866(4)
C60 C 0.1959(7) 0.5716(4) 0.6267(4)
H41 H 0.1817 0.6010 0.6232
C61 C 0.2181(7) 0.5643(4) 0.6709(5)
H42 H 0.2197 0.5875 0.7035
C62 C 0.2383(7) 0.5161(4) 0.6599(4)
C63 C 0.2622(7) 0.4938(4) 0.6931(4)
C64 C 0.2825(8) 0.4482(4) 0.6827(4)
C65 C 0.3071(10) 0.4245(4) 0.7176(4)
H43 H 0.3142 0.4393 0.7531
C66 C 0.3187(10) 0.3785(4) 0.6925(4)
H44 H 0.3368 0.3556 0.7066
C67 C 0.2982(8) 0.3711(4) 0.6400(4)
C68 C 0.2960(7) 0.3259(4) 0.6007(4)
C69 C 0.6782(5) 0.2525(3) 0.7138(3)
C70 C 0.7043(6) 0.3066(2) 0.7257(3)
H45 H 0.6843 0.3286 0.7509
C71 C 0.7596(6) 0.32849(19) 0.7006(3)
H46 H 0.7775 0.3654 0.7087
C72 C 0.7889(5) 0.2963(3) 0.6637(3)
C73 C 0.7628(5) 0.2422(2) 0.6518(3)
H47 H 0.7828 0.2202 0.6265
C74 C 0.7075(5) 0.22034(19) 0.6769(3)
H48 H 0.6896 0.1834 0.6687
C75 C 0.5791(6) 0.2730(3) 0.7898(3)
C76 C 0.4893(5) 0.2750(3) 0.7825(2)
H49 H 0.4400 0.2484 0.7539
C77 C 0.4716(5) 0.3160(3) 0.8172(3)
H50 H 0.4101 0.3174 0.8122
C78 C 0.5437(7) 0.3550(3) 0.8592(3)
H51 H 0.5315 0.3831 0.8828
C79 C 0.6335(6) 0.3530(3) 0.8664(3)
H52 H 0.6828 0.3796 0.8951
C80 C 0.6512(5) 0.3120(4) 0.8318(3)
H53 H 0.7127 0.3106 0.8367
C81 C 0.6794(7) 0.2026(4) 0.7858(4)
C82 C 0.6373(6) 0.1780(4) 0.8137(4)
H54 H 0.5738 0.1734 0.8117
C83 C 0.6882(9) 0.1600(4) 0.8444(4)
H55 H 0.6594 0.1432 0.8634
C84 C 0.7811(9) 0.1668(5) 0.8472(4)
H56 H 0.8159 0.1545 0.8682
C85 C 0.8233(6) 0.1914(5) 0.8194(5)
H57 H 0.8868 0.1960 0.8213
C86 C 0.7724(8) 0.2094(4) 0.7887(4)
H58 H 0.8012 0.2262 0.7696
C87 C 0.8817(6) 0.3873(2) 0.6398(3)
C88 C 0.8067(5) 0.4052(3) 0.6431(4)
H59 H 0.7486 0.3819 0.6407
C89 C 0.8168(6) 0.4573(3) 0.6501(4)
H60 H 0.7656 0.4695 0.6523
C90 C 0.9018(7) 0.4913(3) 0.6537(4)
H61 H 0.9087 0.5269 0.6584
C91 C 0.9768(5) 0.4734(3) 0.6504(4)
H62 H 1.0349 0.4967 0.6528
C92 C 0.9667(5) 0.4213(3) 0.6434(4)
H63 H 1.0180 0.4091 0.6412
C93 C 0.9822(5) 0.3263(4) 0.6764(4)
C94 C 1.0191(7) 0.3682(3) 0.7242(4)
H64 H 0.9911 0.3947 0.7331
C95 C 1.0970(7) 0.3712(4) 0.7591(3)
H65 H 1.1222 0.3998 0.7918
C96 C 1.1379(6) 0.3323(4) 0.7461(4)
H66 H 1.1911 0.3344 0.7700
C97 C 1.1010(7) 0.2905(4) 0.6983(5)
H67 H 1.1290 0.2639 0.6894
C98 C 1.0232(7) 0.2875(3) 0.6634(4)
H68 H 0.9980 0.2589 0.6307
C99 C 0.3913(5) 0.7477(3) 0.5127(3)
C100 C 0.3878(5) 0.7049(3) 0.4706(3)
H69 H 0.3443 0.6948 0.4384
C101 C 0.4478(6) 0.6768(3) 0.4755(3)
H70 H 0.4454 0.6475 0.4467
C102 C 0.5114(5) 0.6916(3) 0.5226(4)
H71 H 0.5525 0.6724 0.5260
C103 C 0.5149(5) 0.7344(4) 0.5648(3)
H72 H 0.5584 0.7445 0.5969
C104 C 0.4549(6) 0.7625(3) 0.5598(3)
H73 H 0.4573 0.7918 0.5886
C105 C 0.3236(5) 0.8330(2) 0.5624(2)
C106 C 0.2528(4) 0.8227(2) 0.5844(3)
H74 H 0.2014 0.7905 0.5675
C107 C 0.2571(5) 0.8596(3) 0.6312(3)
H75 H 0.2087 0.8526 0.6462
C108 C 0.3322(6) 0.9067(3) 0.6560(2)
H76 H 0.3352 0.9319 0.6880
C109 C 0.4031(5) 0.9170(2) 0.6340(3)
H77 H 0.4544 0.9492 0.6510
C110 C 0.3988(5) 0.8801(3) 0.5872(3)
H78 H 0.4472 0.8871 0.5722
C111 C 0.3757(4) 0.8250(2) 0.4729(2)
C112 C 0.3396(4) 0.8616(3) 0.4627(3)
H79 H 0.2873 0.8672 0.4732
C113 C 0.3799(4) 0.8901(2) 0.4371(3)
H80 H 0.3552 0.9151 0.4301
C114 C 0.4564(4) 0.8819(2) 0.4217(2)
C115 C 0.4926(4) 0.8453(3) 0.4319(2)
H81 H 0.5449 0.8397 0.4214
C116 C 0.4523(4) 0.8169(2) 0.4576(3)
H82 H 0.4770 0.7919 0.4646
C117 C 0.6171(3) 0.9629(2) 0.4276(2)
C118 C 0.6725(4) 0.9943(3) 0.40928(19)
H83 H 0.6530 0.9893 0.3746
C119 C 0.7566(4) 1.0331(3) 0.4418(3)
H84 H 0.7946 1.0545 0.4293
C120 C 0.7853(4) 1.0404(2) 0.4926(2)
H85 H 0.8428 1.0669 0.5148
C121 C 0.7298(4) 1.0090(3) 0.51089(19)
H86 H 0.7494 1.0141 0.5456
C122 C 0.6457(4) 0.9703(2) 0.4784(2)
H87 H 0.6078 0.9488 0.4909
C123 C 0.4387(4) 0.9508(2) 0.3689(3)
C124 C 0.4383(5) 0.9961(3) 0.4068(2)
H88 H 0.4764 1.0080 0.4408
C125 C 0.3823(5) 1.0241(2) 0.3948(3)
H89 H 0.3820 1.0550 0.4207
C126 C 0.3266(5) 1.0067(3) 0.3450(3)
H90 H 0.2883 1.0258 0.3369
C127 C 0.3270(5) 0.9613(3) 0.3071(2)
H91 H 0.2889 0.9494 0.2731
C128 C 0.3830(5) 0.9334(2) 0.3191(2)
H92 H 0.3833 0.9024 0.2932
C129 C 0.5679(5) 0.7074(3) 0.9479(3)
C130 C 0.5386(4) 0.6712(3) 0.8973(3)
H93 H 0.4779 0.6454 0.8833
C131 C 0.5983(5) 0.6727(3) 0.8673(2)
H94 H 0.5783 0.6479 0.8328
C132 C 0.6872(5) 0.7104(3) 0.8878(3)
C133 C 0.7164(4) 0.7466(3) 0.9384(3)
H95 H 0.7772 0.7724 0.9524
C134 C 0.6567(5) 0.7451(3) 0.9684(2)
H96 H 0.6767 0.7699 1.0029
C135 C 0.5224(11) 0.7521(5) 1.0382(5)
C136 C 0.5121(11) 0.8001(6) 1.0414(5)
H97 H 0.4856 0.8040 1.0113
C137 C 0.5405(12) 0.8425(5) 1.0886(6)
H98 H 0.5334 0.8753 1.0908
C138 C 0.5792(11) 0.8368(6) 1.1326(5)
H99 H 0.5986 0.8658 1.1649
C139 C 0.5895(11) 0.7889(6) 1.1294(5)
H100 H 0.6160 0.7850 1.1595
C140 C 0.5611(11) 0.7465(5) 1.0822(6)
H101 H 0.5681 0.7137 1.0800
C141 C 0.4806(11) 0.6402(5) 0.9891(6)
C142 C 0.5639(10) 0.6298(6) 0.9956(7)
H102 H 0.6161 0.6510 0.9905
C143 C 0.5706(10) 0.5884(7) 1.0094(7)
H103 H 0.6275 0.5813 1.0138
C144 C 0.4942(12) 0.5574(6) 1.0168(7)
H104 H 0.4988 0.5291 1.0262
C145 C 0.4109(10) 0.5678(6) 1.0103(7)
H105 H 0.3587 0.5466 1.0153
C146 C 0.4042(9) 0.6092(6) 0.9965(6)
H106 H 0.3473 0.6163 0.9920
C147 C 0.8824(7) 0.7478(6) 0.8913(5)
C148 C 0.9529(9) 0.7734(6) 0.8759(4)
H107 H 0.9379 0.7789 0.8454
C149 C 1.0453(8) 0.7910(6) 0.9052(6)
H108 H 1.0935 0.8085 0.8947
C150 C 1.0672(7) 0.7830(6) 0.9498(5)
H109 H 1.1304 0.7950 0.9698
C151 C 0.9967(10) 0.7574(6) 0.9652(5)
H110 H 1.0117 0.7519 0.9957
C152 C 0.9043(8) 0.7398(6) 0.9359(5)
H111 H 0.8561 0.7223 0.9464
C153 C 0.7533(11) 0.6530(4) 0.8049(5)
C154 C 0.7406(13) 0.6393(5) 0.7530(6)
H112 H 0.7367 0.6647 0.7390
C155 C 0.7336(13) 0.5886(6) 0.7216(4)
H113 H 0.7249 0.5792 0.6861
C156 C 0.7394(11) 0.5515(4) 0.7421(5)
H114 H 0.7346 0.5169 0.7207
C157 C 0.7520(11) 0.5652(5) 0.7940(5)
H115 H 0.7560 0.5399 0.8081
C158 C 0.7590(11) 0.6160(5) 0.8254(4)
H116 H 0.7677 0.6253 0.8609
C159 C 0.5231(4) 0.6960(2) 0.7115(2)
C160 C 0.4754(5) 0.6959(2) 0.6661(3)
H117 H 0.4746 0.7284 0.6640
C161 C 0.4290(5) 0.6483(3) 0.6237(2)
H118 H 0.3964 0.6483 0.5927
C162 C 0.4302(5) 0.6008(2) 0.6268(3)
H119 H 0.3984 0.5683 0.5978
C163 C 0.4778(5) 0.6009(2) 0.6722(3)
H120 H 0.4787 0.5685 0.6743
C164 C 0.5243(5) 0.6485(3) 0.7146(2)
H121 H 0.5569 0.6486 0.7456
C165 C 0.5721(6) 0.8092(3) 0.7491(3)
C166 C 0.4963(5) 0.8267(3) 0.7497(4)
H122 H 0.4494 0.8127 0.7629
C167 C 0.4891(5) 0.8648(4) 0.7307(5)
H123 H 0.4372 0.8768 0.7311
C168 C 0.5577(7) 0.8853(3) 0.7113(4)
H124 H 0.5527 0.9113 0.6983
C169 C 0.6335(6) 0.8678(4) 0.7108(4)
H125 H 0.6804 0.8818 0.6975
C170 C 0.6408(5) 0.8297(3) 0.7297(4)
H126 H 0.6926 0.8177 0.7294
P1 P 0.3038(5) 0.7296(3) 0.9080(3)
C171 C 0.1834(7) 0.6997(5) 0.8668(5)
C172 C 0.1177(9) 0.6712(5) 0.8828(4)
H127 H 0.1362 0.6674 0.9139
C173 C 0.0248(8) 0.6483(5) 0.8532(5)
H128 H -0.0201 0.6288 0.8641
C174 C -0.0023(7) 0.6538(6) 0.8076(5)
H129 H -0.0657 0.6382 0.7874
C175 C 0.0634(10) 0.6823(6) 0.7916(4)
H130 H 0.0449 0.6861 0.7605
C176 C 0.1563(9) 0.7053(5) 0.8212(5)
H131 H 0.2012 0.7247 0.8103
C177 C 0.4980(7) 0.7436(5) 0.8084(5)
C178 C 0.4170(8) 0.6999(4) 0.7900(4)
H132 H 0.4028 0.6724 0.7573
C179 C 0.3566(7) 0.6965(4) 0.8194(4)
H133 H 0.3012 0.6667 0.8068
C180 C 0.3774(8) 0.7367(5) 0.8673(4)
C181 C 0.4585(9) 0.7804(4) 0.8857(4)
H134 H 0.4726 0.8079 0.9184
C182 C 0.5188(8) 0.7838(5) 0.8562(5)
H135 H 0.5742 0.8137 0.8688
C183 C 0.3193(10) 0.7972(5) 0.9484(5)
C184 C 0.3438(11) 0.8144(6) 1.0012(5)
H136 H 0.3585 0.7917 1.0167
C185 C 0.3468(12) 0.8647(6) 1.0314(4)
H137 H 0.3635 0.8764 1.0675
C186 C 0.3252(12) 0.8978(5) 1.0088(6)
H138 H 0.3272 0.9322 1.0294
C187 C 0.3007(11) 0.8806(5) 0.9560(6)
H139 H 0.2860 0.9033 0.9405
C188 C 0.2977(10) 0.8303(6) 0.9258(4)
H140 H 0.2810 0.8186 0.8897
C189 C 0.4118(6) 0.4751(3) 0.5296(3)
H141 H 0.3590 0.4760 0.5078
C190 C 0.4965(7) 0.4911(5) 0.5210(4)
C191 C 0.5692(9) 0.4865(6) 0.5518(5)
H142 H 0.6292 0.4966 0.5474
C192 C 0.5582(9) 0.4678(6) 0.5886(5)
H143 H 0.6089 0.4640 0.6091
C193 C 0.4700(7) 0.4546(4) 0.5946(4)
H144 H 0.4613 0.4423 0.6205
P2 P 0.6019(2) 0.21940(11) 0.74322(11)
P3 P 0.8713(2) 0.32017(12) 0.63145(13)
P4 P 0.3129(2) 0.78323(10) 0.50086(11)
P5 P 0.50798(17) 0.91161(10) 0.38227(10)
P6 P 0.4831(2) 0.69878(11) 0.98396(13)
P7 P 0.7602(2) 0.71453(15) 0.84648(11)
P8 P 0.58375(18) 0.75663(12) 0.76952(10)
N11A N 0.6013(5) 0.5416(3) 0.4336(3)
C189A C 0.5882(6) 0.5249(3) 0.4704(3)
H141A H 0.6410 0.5240 0.4922
C190A C 0.5035(7) 0.5089(5) 0.4790(4)
C191A C 0.4308(9) 0.5135(6) 0.4482(5)
H142A H 0.3708 0.5034 0.4526
C192A C 0.4418(9) 0.5322(6) 0.4114(5)
H143A H 0.3911 0.5360 0.3909
C193A C 0.5300(7) 0.5454(4) 0.4054(4)
H144A H 0.5387 0.5577 0.3795
Cu1A Cu 0.52227(9) 0.85033(5) 0.31288(5)
Cu2A Cu 0.73298(10) 0.76679(7) 0.80719(5)
Cu3A Cu 0.83588(11) 0.27027(6) 0.54688(7)
Cu4A Cu 0.66395(12) 0.31461(8) 0.05735(7)
Zn1A Zn 0.74339(8) 0.57332(4) 0.43087(4)
N1A N 0.6043(4) 0.8956(3) 0.2837(3)
N2A N 0.6473(5) 0.8336(3) 0.3314(3)
N3A N 0.8179(6) 0.8444(3) 0.8538(3)
N4A N 0.8217(5) 0.7812(3) 0.7625(3)
N5A N 0.9258(5) 0.2300(3) 0.5260(3)
N6A N 0.9053(5) 0.3153(3) 0.5104(3)
N7A N 0.7541(5) 0.6513(3) 0.4723(3)
N8A N 0.8035(5) 0.5702(3) 0.4991(3)
N9A N 0.7754(5) 0.5072(3) 0.3927(3)
N10A N 0.7205(6) 0.5858(3) 0.3652(3)
C1A C 0.5870(4) 0.9288(3) 0.2625(3)
H1A H 0.5256 0.9301 0.2552
C2A C 0.6538(6) 0.9613(3) 0.2509(4)
H2A H 0.6384 0.9838 0.2353
C3A C 0.7431(5) 0.9603(4) 0.2623(4)
H3A H 0.7910 0.9831 0.2560
C4A C 0.7626(4) 0.9258(4) 0.2832(4)
H4A H 0.8232 0.9231 0.2895
C5A C 0.6920(5) 0.8950(3) 0.2947(4)
C6A C 0.7081(7) 0.8582(4) 0.3165(4)
H5A H 0.7661 0.8524 0.3198
C7A C 0.6643(4) 0.7971(2) 0.3528(3)
C8A C 0.7533(4) 0.7961(2) 0.3700(3)
H6A H 0.8060 0.8220 0.3704
C9A C 0.7651(3) 0.7572(3) 0.3868(3)
H7A H 0.8259 0.7565 0.3986
C10A C 0.6879(5) 0.7193(2) 0.3862(3)
C11A C 0.5989(4) 0.7203(2) 0.3689(2)
H8A H 0.5462 0.6944 0.3685
C12A C 0.5871(3) 0.7592(3) 0.3522(2)
H9A H 0.5264 0.7599 0.3404
C13A C 0.8212(8) 0.8749(4) 0.9013(3)
H10A H 0.7773 0.8610 0.9162
C14A C 0.8852(10) 0.9253(4) 0.9294(4)
H11A H 0.8811 0.9471 0.9612
C15A C 0.9549(10) 0.9431(4) 0.9101(5)
H12A H 1.0042 0.9758 0.9302
C16A C 0.9527(9) 0.9131(4) 0.8611(4)
H13A H 0.9970 0.9262 0.8460
C17A C 0.8843(8) 0.8634(4) 0.8345(3)
C18A C 0.8826(8) 0.8288(4) 0.7851(4)
H14A H 0.9261 0.8406 0.7690
C19A C 0.8191(4) 0.7486(2) 0.71310(16)
C20A C 0.7328(3) 0.7128(3) 0.6802(2)
H15A H 0.6791 0.7101 0.6917
C21A C 0.7250(3) 0.6809(2) 0.6305(2)
H16A H 0.6660 0.6564 0.6080
C22A C 0.8036(4) 0.6849(2) 0.61363(16)
C23A C 0.8899(3) 0.7207(2) 0.6465(2)
H17A H 0.9436 0.7234 0.6350
C24A C 0.8977(3) 0.7525(2) 0.69626(19)
H18A H 0.9567 0.7770 0.7187
C25A C 0.9339(7) 0.1858(3) 0.5311(4)
H19A H 0.9007 0.1728 0.5510
C26A C 0.9876(7) 0.1585(3) 0.5089(4)
H20A H 0.9894 0.1268 0.5125
C27A C 1.0383(7) 0.1784(3) 0.4816(4)
H21A H 1.0767 0.1607 0.4663
C28A C 1.0331(6) 0.2242(3) 0.4765(4)
H22A H 1.0672 0.2383 0.4575
C29A C 0.9770(6) 0.2493(3) 0.4997(4)
C30A C 0.9634(7) 0.2952(4) 0.4927(4)
H23A H 0.9982 0.3107 0.4747
C31A C 0.8921(4) 0.3600(2) 0.5011(3)
C32A C 0.9522(3) 0.3914(2) 0.4848(3)
H24A H 1.0086 0.3854 0.4811
C33A C 0.9300(4) 0.4316(2) 0.4738(3)
H25A H 0.9712 0.4530 0.4626
C34A C 0.8476(4) 0.4404(2) 0.4792(3)
C35A C 0.7875(3) 0.4090(2) 0.4956(3)
H26A H 0.7311 0.4150 0.4993
C36A C 0.8097(4) 0.3688(2) 0.5065(3)
H27A H 0.7685 0.3474 0.5177
N12A N 0.7536(8) 0.3211(5) 0.0169(4)
N13A N 0.7592(9) 0.3857(5) 0.1096(5)
C37A C 0.7501(8) 0.2888(4) -0.0300(4)
H28A H 0.7024 0.2550 -0.0461
C38A C 0.8119(10) 0.3020(5) -0.0557(4)
H29A H 0.8061 0.2783 -0.0891
C39A C 0.8820(9) 0.3504(6) -0.0318(5)
H30A H 0.9278 0.3599 -0.0477
C40A C 0.8855(9) 0.3852(5) 0.0155(5)
H31A H 0.9325 0.4192 0.0322
C41A C 0.8191(10) 0.3695(5) 0.0384(4)
C42A C 0.8227(12) 0.4036(7) 0.0902(7)
H32A H 0.8697 0.4374 0.1087
C43A C 0.7586(7) 0.4187(4) 0.1604(3)
C44A C 0.6930(7) 0.3941(3) 0.1791(4)
H33A H 0.6524 0.3587 0.1590
C45A C 0.6868(7) 0.4213(4) 0.2272(4)
H34A H 0.6420 0.4045 0.2401
C46A C 0.7462(8) 0.4731(4) 0.2566(3)
C47A C 0.8118(7) 0.4977(3) 0.2379(4)
H35A H 0.8524 0.5331 0.2580
C48A C 0.8180(7) 0.4705(4) 0.1898(4)
H36A H 0.8628 0.4873 0.1769
C49A C 0.7284(7) 0.6838(3) 0.4508(4)
C50A C 0.7241(7) 0.7289(3) 0.4906(4)
H37A H 0.7067 0.7572 0.4864
C51A C 0.7492(6) 0.7237(3) 0.5353(4)
H38A H 0.7538 0.7479 0.5681
C52A C 0.7678(6) 0.6743(3) 0.5233(4)
C53A C 0.7955(6) 0.6529(3) 0.5585(3)
C54A C 0.8126(6) 0.6047(3) 0.5480(4)
C55A C 0.8377(6) 0.5837(3) 0.5836(4)
H39A H 0.8479 0.5999 0.6193
C56A C 0.8450(7) 0.5353(4) 0.5573(4)
H40A H 0.8612 0.5118 0.5711
C57A C 0.8230(6) 0.5279(4) 0.5047(4)
C58A C 0.8217(6) 0.4825(4) 0.4651(4)
C59A C 0.8015(6) 0.4739(4) 0.4134(4)
C60A C 0.8041(7) 0.4284(4) 0.3733(4)
H41A H 0.8183 0.3990 0.3768
C61A C 0.7819(7) 0.4357(4) 0.3291(5)
H42A H 0.7803 0.4125 0.2965
C62A C 0.7617(7) 0.4839(4) 0.3401(4)
C63A C 0.7378(7) 0.5062(4) 0.3069(4)
C64A C 0.7175(8) 0.5518(4) 0.3173(4)
C65A C 0.6929(10) 0.5755(4) 0.2824(4)
H43A H 0.6858 0.5607 0.2469
C66A C 0.6813(10) 0.6215(4) 0.3075(4)
H44A H 0.6632 0.6444 0.2934
C67A C 0.7018(8) 0.6289(4) 0.3600(4)
C68A C 0.7040(7) 0.6741(4) 0.3993(4)
C69A C 0.3218(5) 0.7475(3) 0.2862(3)
C70A C 0.2957(6) 0.6934(2) 0.2743(3)
H45A H 0.3157 0.6714 0.2491
C71A C 0.2404(6) 0.67151(19) 0.2994(3)
H46A H 0.2225 0.6346 0.2913
C72A C 0.2111(5) 0.7037(3) 0.3363(3)
C73A C 0.2372(5) 0.7578(2) 0.3482(3)
H47A H 0.2172 0.7798 0.3735
C74A C 0.2925(5) 0.77966(19) 0.3231(3)
H48A H 0.3104 0.8166 0.3313
C75A C 0.4209(6) 0.7270(3) 0.2102(3)
C76A C 0.5107(5) 0.7250(3) 0.2175(2)
H49A H 0.5600 0.7516 0.2461
C77A C 0.5284(5) 0.6840(3) 0.1828(3)
H50A H 0.5899 0.6826 0.1878
C78A C 0.4563(7) 0.6450(3) 0.1408(3)
H51A H 0.4685 0.6169 0.1172
C79A C 0.3665(6) 0.6470(3) 0.1336(3)
H52A H 0.3172 0.6204 0.1049
C80A C 0.3488(5) 0.6880(4) 0.1682(3)
H53A H 0.2873 0.6894 0.1633
C81A C 0.3206(7) 0.7974(4) 0.2142(4)
C82A C 0.3627(6) 0.8220(4) 0.1863(4)
H54A H 0.4262 0.8266 0.1883
C83A C 0.3118(9) 0.8400(4) 0.1556(4)
H55A H 0.3406 0.8568 0.1366
C84A C 0.2189(9) 0.8332(5) 0.1528(4)
H56A H 0.1841 0.8455 0.1318
C85A C 0.1767(6) 0.8086(5) 0.1806(5)
H57A H 0.1132 0.8040 0.1787
C86A C 0.2276(8) 0.7906(4) 0.2113(4)
H58A H 0.1988 0.7738 0.2304
C87A C 0.1183(6) 0.6127(2) 0.3602(3)
C88A C 0.1933(5) 0.5948(3) 0.3569(4)
H59A H 0.2514 0.6181 0.3593
C89A C 0.1832(6) 0.5427(3) 0.3499(4)
H60A H 0.2344 0.5305 0.3477
C90A C 0.0982(7) 0.5087(3) 0.3463(4)
H61A H 0.0913 0.4731 0.3416
C91A C 0.0232(5) 0.5266(3) 0.3496(4)
H62A H -0.0349 0.5033 0.3472
C92A C 0.0333(5) 0.5787(3) 0.3566(4)
H63A H -0.0180 0.5909 0.3588
C93A C 0.0178(5) 0.6737(4) 0.3236(4)
C94A C -0.0191(7) 0.6318(3) 0.2758(4)
H64A H 0.0089 0.6053 0.2669
C95A C -0.0970(7) 0.6288(4) 0.2409(3)
H65A H -0.1222 0.6002 0.2082
C96A C -0.1379(6) 0.6677(4) 0.2539(4)
H66A H -0.1911 0.6656 0.2300
C97A C -0.1010(7) 0.7095(4) 0.3017(5)
H67A H -0.1290 0.7361 0.3106
C98A C -0.0232(7) 0.7125(3) 0.3366(4)
H68A H 0.0020 0.7411 0.3693
C99A C 0.6087(5) 0.2523(3) 0.4873(3)
C100A C 0.6122(5) 0.2951(3) 0.5294(3)
H69A H 0.6557 0.3052 0.5616
C101A C 0.5522(6) 0.3232(3) 0.5245(3)
H70A H 0.5546 0.3525 0.5533
C102A C 0.4886(5) 0.3084(3) 0.4774(4)
H71A H 0.4475 0.3276 0.4740
C103A C 0.4851(5) 0.2656(4) 0.4352(3)
H72A H 0.4416 0.2555 0.4031
C104A C 0.5451(6) 0.2375(3) 0.4402(3)
H73A H 0.5427 0.2082 0.4114
C105A C 0.6764(5) 0.1670(2) 0.4376(2)
C106A C 0.7472(4) 0.1773(2) 0.4156(3)
H74A H 0.7986 0.2095 0.4325
C107A C 0.7429(5) 0.1404(3) 0.3688(3)
H75A H 0.7913 0.1474 0.3538
C108A C 0.6678(6) 0.0933(3) 0.3440(2)
H76A H 0.6648 0.0681 0.3120
C109A C 0.5969(5) 0.0830(2) 0.3660(3)
H77A H 0.5456 0.0508 0.3490
C110A C 0.6012(5) 0.1199(3) 0.4128(3)
H78A H 0.5528 0.1129 0.4278
C111A C 0.6243(4) 0.1750(2) 0.5271(2)
C112A C 0.6604(4) 0.1384(3) 0.5373(3)
H79A H 0.7127 0.1328 0.5268
C113A C 0.6201(4) 0.1099(2) 0.5629(3)
H80A H 0.6448 0.0849 0.5699
C114A C 0.5436(4) 0.1181(2) 0.5783(2)
C115A C 0.5074(4) 0.1547(3) 0.5681(2)
H81A H 0.4551 0.1603 0.5786
C116A C 0.5477(4) 0.1831(2) 0.5424(3)
H82A H 0.5230 0.2081 0.5354
C117A C 0.3829(3) 0.0371(2) 0.5724(2)
C118A C 0.3275(4) 0.0057(3) 0.59072(19)
H83A H 0.3470 0.0107 0.6254
C119A C 0.2434(4) -0.0331(3) 0.5582(3)
H84A H 0.2054 -0.0545 0.5707
C120A C 0.2147(4) -0.0404(2) 0.5074(2)
H85A H 0.1572 -0.0669 0.4852
C121A C 0.2702(4) -0.0090(3) 0.48911(19)
H86A H 0.2506 -0.0141 0.4544
C122A C 0.3543(4) 0.0297(2) 0.5216(2)
H87A H 0.3922 0.0512 0.5091
C123A C 0.5613(4) 0.0492(2) 0.6311(3)
C124A C 0.5617(5) 0.0039(3) 0.5932(2)
H88A H 0.5236 -0.0080 0.5592
C125A C 0.6177(5) -0.0241(2) 0.6052(3)
H89A H 0.6180 -0.0550 0.5793
C126A C 0.6734(5) -0.0067(3) 0.6550(3)
H90A H 0.7117 -0.0258 0.6631
C127A C 0.6730(5) 0.0387(3) 0.6929(2)
H91A H 0.7111 0.0506 0.7269
C128A C 0.6170(5) 0.0666(2) 0.6809(2)
H92A H 0.6167 0.0976 0.7068
C129A C 0.4321(5) 0.2926(3) 0.0521(3)
C130A C 0.4614(4) 0.3288(3) 0.1027(3)
H93A H 0.5221 0.3546 0.1167
C131A C 0.4017(5) 0.3273(3) 0.1327(2)
H94A H 0.4217 0.3521 0.1672
C132A C 0.3128(5) 0.2896(3) 0.1122(3)
C133A C 0.2836(4) 0.2534(3) 0.0616(3)
H95A H 0.2228 0.2276 0.0476
C134A C 0.3433(5) 0.2549(3) 0.0316(2)
H96A H 0.3233 0.2301 -0.0029
C135A C 0.4776(11) 0.2479(5) -0.0382(5)
C136A C 0.4879(11) 0.1999(6) -0.0414(5)
H97A H 0.5144 0.1960 -0.0113
C137A C 0.4595(12) 0.1575(5) -0.0886(6)
H98A H 0.4666 0.1247 -0.0908
C138A C 0.4208(11) 0.1632(6) -0.1326(5)
H99A H 0.4014 0.1342 -0.1649
C139A C 0.4105(11) 0.2111(6) -0.1294(5)
H100A H 0.3840 0.2150 -0.1595
C140A C 0.4389(11) 0.2535(5) -0.0822(6)
H101A H 0.4319 0.2863 -0.0800
C141A C 0.5194(11) 0.3598(5) 0.0109(6)
C142A C 0.4361(10) 0.3702(6) 0.0044(7)
H102A H 0.3839 0.3490 0.0095
C143A C 0.4294(10) 0.4116(7) -0.0094(7)
H103A H 0.3725 0.4187 -0.0138
C144A C 0.5058(12) 0.4426(6) -0.0168(7)
H104A H 0.5012 0.4709 -0.0262
C145A C 0.5891(10) 0.4322(6) -0.0103(7)
H105A H 0.6413 0.4534 -0.0153
C146A C 0.5958(9) 0.3908(6) 0.0035(6)
H106A H 0.6527 0.3837 0.0080
C147A C 0.1176(7) 0.2522(6) 0.1087(5)
C148A C 0.0471(9) 0.2266(6) 0.1241(4)
H107A H 0.0621 0.2211 0.1546
C149A C -0.0453(8) 0.2090(6) 0.0948(6)
H108A H -0.0935 0.1915 0.1053
C150A C -0.0672(7) 0.2170(6) 0.0502(5)
H109A H -0.1304 0.2050 0.0302
C151A C 0.0033(10) 0.2426(6) 0.0348(5)
H110A H -0.0117 0.2481 0.0043
C152A C 0.0957(8) 0.2602(6) 0.0641(5)
H111A H 0.1439 0.2777 0.0536
C153A C 0.2467(11) 0.3470(4) 0.1951(5)
C154A C 0.2594(13) 0.3607(5) 0.2470(6)
H112A H 0.2633 0.3353 0.2610
C155A C 0.2664(13) 0.4114(6) 0.2784(4)
H113A H 0.2751 0.4208 0.3139
C156A C 0.2606(11) 0.4485(4) 0.2579(5)
H114A H 0.2654 0.4831 0.2793
C157A C 0.2480(11) 0.4348(5) 0.2060(5)
H115A H 0.2440 0.4601 0.1919
C158A C 0.2410(11) 0.3840(5) 0.1746(4)
H116A H 0.2323 0.3747 0.1391
C159A C 0.4769(4) 0.3040(2) 0.2885(2)
C160A C 0.5246(5) 0.3041(2) 0.3339(3)
H117A H 0.5254 0.2716 0.3360
C161A C 0.5710(5) 0.3517(3) 0.3763(2)
H118A H 0.6036 0.3517 0.4073
C162A C 0.5698(5) 0.3992(2) 0.3732(3)
H119A H 0.6016 0.4317 0.4022
C163A C 0.5222(5) 0.3991(2) 0.3278(3)
H120A H 0.5213 0.4315 0.3257
C164A C 0.4757(5) 0.3515(3) 0.2854(2)
H121A H 0.4431 0.3514 0.2544
C165A C 0.4279(6) 0.1908(3) 0.2509(3)
C166A C 0.5037(5) 0.1733(3) 0.2503(4)
H122A H 0.5506 0.1873 0.2371
C167A C 0.5109(5) 0.1352(4) 0.2693(5)
H123A H 0.5628 0.1232 0.2689
C168A C 0.4423(7) 0.1147(3) 0.2887(4)
H124A H 0.4473 0.0887 0.3017
C169A C 0.3665(6) 0.1322(4) 0.2892(4)
H125A H 0.3196 0.1182 0.3025
C170A C 0.3592(5) 0.1703(3) 0.2703(4)
H126A H 0.3074 0.1823 0.2706
P1A P 0.6962(5) 0.2704(3) 0.0920(3)
C171A C 0.8166(7) 0.3003(5) 0.1332(5)
C172A C 0.8823(9) 0.3288(5) 0.1172(4)
H127A H 0.8638 0.3326 0.0861
C173A C 0.9752(8) 0.3517(5) 0.1468(5)
H128A H 1.0201 0.3712 0.1359
C174A C 1.0023(7) 0.3462(6) 0.1924(5)
H129A H 1.0657 0.3618 0.2126
C175A C 0.9366(10) 0.3177(6) 0.2084(4)
H130A H 0.9551 0.3139 0.2395
C176A C 0.8437(9) 0.2947(5) 0.1788(5)
H131A H 0.7988 0.2753 0.1897
C177A C 0.5020(7) 0.2564(5) 0.1916(5)
C178A C 0.5830(8) 0.3001(4) 0.2100(4)
H132A H 0.5972 0.3276 0.2427
C179A C 0.6434(7) 0.3035(4) 0.1806(4)
H133A H 0.6988 0.3333 0.1932
C180A C 0.6226(8) 0.2633(5) 0.1327(4)
C181A C 0.5415(9) 0.2196(4) 0.1143(4)
H134A H 0.5274 0.1921 0.0816
C182A C 0.4812(8) 0.2162(5) 0.1438(5)
H135A H 0.4258 0.1863 0.1312
C183A C 0.6807(10) 0.2028(5) 0.0516(5)
C184A C 0.6562(11) 0.1856(6) -0.0012(5)
H136A H 0.6415 0.2083 -0.0167
C185A C 0.6532(12) 0.1353(6) -0.0314(4)
H137A H 0.6365 0.1236 -0.0675
C186A C 0.6748(12) 0.1022(5) -0.0088(6)
H138A H 0.6728 0.0678 -0.0294
C187A C 0.6993(11) 0.1194(5) 0.0440(6)
H139A H 0.7140 0.0967 0.0595
C188A C 0.7023(10) 0.1697(6) 0.0742(4)
H140A H 0.7190 0.1814 0.1103
P2A P 0.3981(2) 0.78060(11) 0.25678(11)
P3A P 0.1287(2) 0.67983(12) 0.36855(13)
P4A P 0.6871(2) 0.21677(10) 0.49914(11)
P5A P 0.49202(17) 0.08839(10) 0.61773(10)
P6A P 0.5169(2) 0.30122(11) 0.01604(13)
P7A P 0.2398(2) 0.28547(15) 0.15352(11)
P8A P 0.41625(18) 0.24337(12) 0.23048(10)
S1 S 0.8994(9) 0.4730(5) 0.8563(4)
S2 S 0.8259(11) 0.5005(6) 0.9312(6)
C194 C 0.9055(18) 0.4852(11) 0.7992(7)
C195 C 0.885(2) 0.5703(7) 0.9726(10)
O1 O 0.864(3) 0.4651(13) 0.9465(14)
O2 O 0.7338(16) 0.4933(13) 0.9393(13)
O3 O 0.8543(19) 0.4163(6) 0.8355(11)
F1 F 0.9545(19) 0.4578(11) 0.7788(10)
O4 O 0.9869(15) 0.5018(12) 0.8925(10)
N14 N 0.8123(16) 0.4913(12) 0.8718(7)
F2 F 0.917(2) 0.5919(12) 0.9434(12)
F3 F 0.8188(17) 0.4659(11) 0.7710(10)
F4 F 0.934(2) 0.5691(14) 1.0137(11)
F5 F 0.943(2) 0.5354(10) 0.8145(11)
F6 F 0.824(2) 0.5939(13) 0.9862(14)
S3 S 0.9764(3) 0.12384(15) 0.64635(16)
S4 S 0.9484(3) 0.01870(17) 0.6324(2)
N15 N 0.9195(8) 0.0625(3) 0.6160(5)
O5 O 1.0690(6) 0.1380(4) 0.6794(4)
O6 O 0.9687(11) 0.1495(5) 0.6123(5)
O7 O 1.0086(7) 0.0343(5) 0.6819(4)
O8 O 0.8643(7) -0.0260(4) 0.6128(6)
C196 C 0.9114(10) 0.1460(6) 0.6902(5)
C197 C 1.0141(12) -0.0043(7) 0.5888(6)
F7 F 0.8263(8) 0.1313(6) 0.6599(6)
F8 F 0.9074(8) 0.1200(4) 0.7187(4)
F9 F 0.9454(8) 0.1967(4) 0.7171(5)
F10 F 1.0382(10) -0.0422(5) 0.5965(6)
F11 F 0.9601(11) -0.0253(6) 0.5417(6)
F12 F 1.0863(9) 0.0359(5) 0.5955(5)
N16 N 0.5955(9) 0.4043(5) 0.6726(6)
C198 C 0.5886(12) 0.4072(7) 0.7119(8)
C199 C 0.5830(13) 0.4065(8) 0.7623(7)
H145 H 0.5365 0.3731 0.7568
H146 H 0.5648 0.4363 0.7809
H147 H 0.6440 0.4095 0.7823
O9 O 0.6839(8) -0.1348(7) 0.5915(6)
O10 O 0.8258(8) -0.1346(4) 0.5902(4)
C200 C 0.7295(13) -0.1330(9) 0.5184(5)
H148 H 0.7868 -0.1327 0.5087
H149 H 0.6777 -0.1644 0.4934
H150 H 0.7157 -0.1010 0.5192
C201 C 0.7422(8) -0.1342(4) 0.5704(4)
C202 C 0.8463(9) -0.1358(6) 0.6394(5)
H151 H 0.8023 -0.1680 0.6389
H152 H 0.8405 -0.1043 0.6648
C203 C 0.9450(10) -0.1360(8) 0.6532(7)
H153 H 0.9611 -0.1368 0.6870
H154 H 0.9499 -0.1674 0.6278
H155 H 0.9879 -0.1040 0.6536
loop_
_geom_bond_atom_site_label_1
_geom_bond_atom_site_label_2
_geom_bond_site_symmetry_1
_geom_bond_site_symmetry_2
Cu1 N1 1_555 1_555
Cu2 N3 1_555 1_555
Cu3 N5 1_555 1_555
Cu4 N12 1_555 1_555
Zn1 N7 1_555 1_555
N1 C1 1_555 1_555
N2 Cu1 1_555 1_555
N3 C13 1_555 1_555
N4 Cu2 1_555 1_555
N5 C25 1_555 1_555
N6 Cu3 1_555 1_555
N7 C49 1_555 1_555
N8 Zn1 1_555 1_555
N9 Zn1 1_555 1_555
N10 Zn1 1_555 1_555
N11 Zn1 1_555 1_555
C1 H1 1_555 1_555
C2 C1 1_555 1_555
H2 C2 1_555 1_555
C3 C2 1_555 1_555
H3 C3 1_555 1_555
C4 C3 1_555 1_555
H4 C4 1_555 1_555
C5 N1 1_555 1_555
C6 N2 1_555 1_555
H5 C6 1_555 1_555
C7 N2 1_555 1_555
C8 C7 1_555 1_555
H6 C8 1_555 1_555
C9 C8 1_555 1_555
H7 C9 1_555 1_555
C10 C9 1_555 1_555
C11 C10 1_555 1_555
H8 C11 1_555 1_555
C12 C7 1_555 1_555
H9 C12 1_555 1_555
C13 H10 1_555 1_555
C14 C13 1_555 1_555
H11 C14 1_555 1_555
C15 C14 1_555 1_555
H12 C15 1_555 1_555
C16 C15 1_555 1_555
H13 C16 1_555 1_555
C17 N3 1_555 1_555
C18 N4 1_555 1_555
H14 C18 1_555 1_555
C19 N4 1_555 1_555
C20 C19 1_555 1_555
H15 C20 1_555 1_555
C21 C20 1_555 1_555
H16 C21 1_555 1_555
C22 C21 1_555 1_555
C23 C22 1_555 1_555
H17 C23 1_555 1_555
C24 C19 1_555 1_555
H18 C24 1_555 1_555
C25 H19 1_555 1_555
C26 C25 1_555 1_555
H20 C26 1_555 1_555
C27 C26 1_555 1_555
H21 C27 1_555 1_555
C28 C27 1_555 1_555
H22 C28 1_555 1_555
C29 N5 1_555 1_555
C30 N6 1_555 1_555
H23 C30 1_555 1_555
C31 N6 1_555 1_555
C32 C31 1_555 1_555
H24 C32 1_555 1_555
C33 C32 1_555 1_555
H25 C33 1_555 1_555
C34 C33 1_555 1_555
C35 C34 1_555 1_555
H26 C35 1_555 1_555
C36 C31 1_555 1_555
H27 C36 1_555 1_555
N12 C37 1_555 1_555
N13 Cu4 1_555 1_555
C37 H28 1_555 1_555
C38 C37 1_555 1_555
H29 C38 1_555 1_555
C39 C38 1_555 1_555
H30 C39 1_555 1_555
C40 C39 1_555 1_555
H31 C40 1_555 1_555
C41 N12 1_555 1_555
C42 N13 1_555 1_555
H32 C42 1_555 1_555
C43 N13 1_555 1_555
C44 C43 1_555 1_555
H33 C44 1_555 1_555
C45 C44 1_555 1_555
H34 C45 1_555 1_555
C46 C45 1_555 1_555
C47 C46 1_555 1_555
H35 C47 1_555 1_555
C48 C43 1_555 1_555
H36 C48 1_555 1_555
C49 C50 1_555 1_555
C50 H37 1_555 1_555
C51 C50 1_555 1_555
H38 C51 1_555 1_555
C52 N7 1_555 1_555
C53 C22 1_555 1_555
C54 N8 1_555 1_555
C55 C54 1_555 1_555
H39 C55 1_555 1_555
C56 C55 1_555 1_555
H40 C56 1_555 1_555
C57 N8 1_555 1_555
C58 C34 1_555 1_555
C59 N9 1_555 1_555
C60 C59 1_555 1_555
H41 C60 1_555 1_555
C61 C60 1_555 1_555
H42 C61 1_555 1_555
C62 N9 1_555 1_555
C63 C46 1_555 1_555
C64 N10 1_555 1_555
C65 C64 1_555 1_555
H43 C65 1_555 1_555
C66 C65 1_555 1_555
H44 C66 1_555 1_555
C67 N10 1_555 1_555
C68 C10 1_555 1_555
C69 C70 1_555 1_555
C70 H45 1_555 1_555
C71 C70 1_555 1_555
H46 C71 1_555 1_555
C72 C71 1_555 1_555
C73 C72 1_555 1_555
H47 C73 1_555 1_555
C74 C69 1_555 1_555
H48 C74 1_555 1_555
C75 C76 1_555 1_555
C76 H49 1_555 1_555
C77 C76 1_555 1_555
H50 C77 1_555 1_555
C78 C77 1_555 1_555
H51 C78 1_555 1_555
C79 C78 1_555 1_555
H52 C79 1_555 1_555
C80 C75 1_555 1_555
H53 C80 1_555 1_555
C81 C82 1_555 1_555
C82 H54 1_555 1_555
C83 C82 1_555 1_555
H55 C83 1_555 1_555
C84 C83 1_555 1_555
H56 C84 1_555 1_555
C85 C84 1_555 1_555
H57 C85 1_555 1_555
C86 C81 1_555 1_555
H58 C86 1_555 1_555
C87 C88 1_555 1_555
C88 H59 1_555 1_555
C89 C88 1_555 1_555
H60 C89 1_555 1_555
C90 C89 1_555 1_555
H61 C90 1_555 1_555
C91 C90 1_555 1_555
H62 C91 1_555 1_555
C92 C87 1_555 1_555
H63 C92 1_555 1_555
C93 C94 1_555 1_555
C94 H64 1_555 1_555
C95 C94 1_555 1_555
H65 C95 1_555 1_555
C96 C95 1_555 1_555
H66 C96 1_555 1_555
C97 C96 1_555 1_555
H67 C97 1_555 1_555
C98 C93 1_555 1_555
H68 C98 1_555 1_555
C99 C100 1_555 1_555
C100 H69 1_555 1_555
C101 C100 1_555 1_555
H70 C101 1_555 1_555
C102 C101 1_555 1_555
H71 C102 1_555 1_555
C103 C102 1_555 1_555
H72 C103 1_555 1_555
C104 C99 1_555 1_555
H73 C104 1_555 1_555
C105 C106 1_555 1_555
C106 H74 1_555 1_555
C107 C106 1_555 1_555
H75 C107 1_555 1_555
C108 C107 1_555 1_555
H76 C108 1_555 1_555
C109 C108 1_555 1_555
H77 C109 1_555 1_555
C110 C105 1_555 1_555
H78 C110 1_555 1_555
C111 C112 1_555 1_555
C112 H79 1_555 1_555
C113 C112 1_555 1_555
H80 C113 1_555 1_555
C114 C113 1_555 1_555
C115 C114 1_555 1_555
H81 C115 1_555 1_555
C116 C111 1_555 1_555
H82 C116 1_555 1_555
C117 C118 1_555 1_555
C118 H83 1_555 1_555
C119 C118 1_555 1_555
H84 C119 1_555 1_555
C120 C119 1_555 1_555
H85 C120 1_555 1_555
C121 C120 1_555 1_555
H86 C121 1_555 1_555
C122 C117 1_555 1_555
H87 C122 1_555 1_555
C123 C124 1_555 1_555
C124 H88 1_555 1_555
C125 C124 1_555 1_555
H89 C125 1_555 1_555
C126 C125 1_555 1_555
H90 C126 1_555 1_555
C127 C126 1_555 1_555
H91 C127 1_555 1_555
C128 C123 1_555 1_555
H92 C128 1_555 1_555
C129 C130 1_555 1_555
C130 H93 1_555 1_555
C131 C130 1_555 1_555
H94 C131 1_555 1_555
C132 C131 1_555 1_555
C133 C132 1_555 1_555
H95 C133 1_555 1_555
C134 C129 1_555 1_555
H96 C134 1_555 1_555
C135 C136 1_555 1_555
C136 H97 1_555 1_555
C137 C136 1_555 1_555
H98 C137 1_555 1_555
C138 C137 1_555 1_555
H99 C138 1_555 1_555
C139 C138 1_555 1_555
H100 C139 1_555 1_555
C140 C135 1_555 1_555
H101 C140 1_555 1_555
C141 C142 1_555 1_555
C142 H102 1_555 1_555
C143 C142 1_555 1_555
H103 C143 1_555 1_555
C144 C143 1_555 1_555
H104 C144 1_555 1_555
C145 C144 1_555 1_555
H105 C145 1_555 1_555
C146 C141 1_555 1_555
H106 C146 1_555 1_555
C147 C148 1_555 1_555
C148 H107 1_555 1_555
C149 C148 1_555 1_555
H108 C149 1_555 1_555
C150 C149 1_555 1_555
H109 C150 1_555 1_555
C151 C150 1_555 1_555
H110 C151 1_555 1_555
C152 C147 1_555 1_555
H111 C152 1_555 1_555
C153 C154 1_555 1_555
C154 H112 1_555 1_555
C155 C154 1_555 1_555
H113 C155 1_555 1_555
C156 C155 1_555 1_555
H114 C156 1_555 1_555
C157 C156 1_555 1_555
H115 C157 1_555 1_555
C158 C153 1_555 1_555
H116 C158 1_555 1_555
C159 C160 1_555 1_555
C160 H117 1_555 1_555
C161 C160 1_555 1_555
H118 C161 1_555 1_555
C162 C161 1_555 1_555
H119 C162 1_555 1_555
C163 C162 1_555 1_555
H120 C163 1_555 1_555
C164 C159 1_555 1_555
H121 C164 1_555 1_555
C165 C166 1_555 1_555
C166 H122 1_555 1_555
C167 C166 1_555 1_555
H123 C167 1_555 1_555
C168 C167 1_555 1_555
H124 C168 1_555 1_555
C169 C168 1_555 1_555
H125 C169 1_555 1_555
C170 C165 1_555 1_555
H126 C170 1_555 1_555
P1 Cu4 1_555 1_555
C171 P1 1_555 1_555
C172 C171 1_555 1_555
H127 C172 1_555 1_555
C173 C172 1_555 1_555
H128 C173 1_555 1_555
C174 C173 1_555 1_555
H129 C174 1_555 1_555
C175 C174 1_555 1_555
H130 C175 1_555 1_555
C176 C171 1_555 1_555
H131 C176 1_555 1_555
C177 C178 1_555 1_555
C178 H132 1_555 1_555
C179 C178 1_555 1_555
H133 C179 1_555 1_555
C180 P1 1_555 1_555
C181 C180 1_555 1_555
H134 C181 1_555 1_555
C182 C177 1_555 1_555
H135 C182 1_555 1_555
C183 P1 1_555 1_555
C184 C183 1_555 1_555
H136 C184 1_555 1_555
C185 C184 1_555 1_555
H137 C185 1_555 1_555
C186 C185 1_555 1_555
H138 C186 1_555 1_555
C187 C186 1_555 1_555
H139 C187 1_555 1_555
C188 C183 1_555 1_555
H140 C188 1_555 1_555
C189 N11 1_555 1_555
H141 C189 1_555 1_555
C190 C189 1_555 1_555
C191 C190 1_555 1_555
H142 C191 1_555 1_555
C192 C191 1_555 1_555
H143 C192 1_555 1_555
C193 N11 1_555 1_555
H144 C193 1_555 1_555
P2 Cu1 1_555 1_555
P3 C72 1_555 1_555
P4 Cu3 1_555 1_555
P5 C114 1_555 1_555
P6 Cu4 1_555 1_555
P7 C132 1_555 1_555
P8 C159 1_555 1_555
S1 C194 1_555 1_555
S2 C195 1_555 1_555
C194 F1 1_555 1_555
C195 F2 1_555 1_555
O1 S2 1_555 1_555
O2 S2 1_555 1_555
O3 S1 1_555 1_555
O4 S1 1_555 1_555
N14 S1 1_555 1_555
F3 C194 1_555 1_555
F4 C195 1_555 1_555
F5 C194 1_555 1_555
F6 C195 1_555 1_555
S3 N15 1_555 1_555
S4 N15 1_555 1_555
O5 S3 1_555 1_555
O6 S3 1_555 1_555
O7 S4 1_555 1_555
O8 S4 1_555 1_555
C196 S3 1_555 1_555
C197 S4 1_555 1_555
F7 C196 1_555 1_555
F8 C196 1_555 1_555
F9 C196 1_555 1_555
F10 C197 1_555 1_555
F11 C197 1_555 1_555
F12 C197 1_555 1_555
N16 C198 1_555 1_555
C198 C199 1_555 1_555
C199 H145 1_555 1_555
H146 C199 1_555 1_555
H147 C199 1_555 1_555
O9 C201 1_555 1_555
O10 C201 1_555 1_555
C200 H148 1_555 1_555
H149 C200 1_555 1_555
H150 C200 1_555 1_555
C201 C200 1_555 1_555
C202 O10 1_555 1_555
H151 C202 1_555 1_555
H152 C202 1_555 1_555
C203 C202 1_555 1_555
H153 C203 1_555 1_555
H154 C203 1_555 1_555
H155 C203 1_555 1_555
N11A C189A 1_555 1_555
C189A H141A 1_555 1_555
C190A C190 1_555 1_555
C191A C190A 1_555 1_555
H142A C191A 1_555 1_555
C192A C191A 1_555 1_555
H143A C192A 1_555 1_555
C193A N11A 1_555 1_555
H144A C193A 1_555 1_555
Cu1A P5 1_555 1_555
Cu2A P7 1_555 1_555
Cu3A P3 1_555 1_555
Cu4A N12A 1_555 1_555
Zn1A N11A 1_555 1_555
N1A Cu1A 1_555 1_555
N2A Cu1A 1_555 1_555
N3A Cu2A 1_555 1_555
N4A Cu2A 1_555 1_555
N5A Cu3A 1_555 1_555
N6A Cu3A 1_555 1_555
N7A Zn1A 1_555 1_555
N8A Zn1A 1_555 1_555
N9A Zn1A 1_555 1_555
N10A Zn1A 1_555 1_555
C1A N1A 1_555 1_555
H1A C1A 1_555 1_555
C2A C1A 1_555 1_555
H2A C2A 1_555 1_555
C3A C2A 1_555 1_555
H3A C3A 1_555 1_555
C4A C3A 1_555 1_555
H4A C4A 1_555 1_555
C5A N1A 1_555 1_555
C6A N2A 1_555 1_555
H5A C6A 1_555 1_555
C7A N2A 1_555 1_555
C8A C7A 1_555 1_555
H6A C8A 1_555 1_555
C9A C8A 1_555 1_555
H7A C9A 1_555 1_555
C10A C9A 1_555 1_555
C11A C10A 1_555 1_555
H8A C11A 1_555 1_555
C12A C7A 1_555 1_555
H9A C12A 1_555 1_555
C13A N3A 1_555 1_555
H10A C13A 1_555 1_555
C14A C13A 1_555 1_555
H11A C14A 1_555 1_555
C15A C14A 1_555 1_555
H12A C15A 1_555 1_555
C16A C15A 1_555 1_555
H13A C16A 1_555 1_555
C17A N3A 1_555 1_555
C18A N4A 1_555 1_555
H14A C18A 1_555 1_555
C19A N4A 1_555 1_555
C20A C19A 1_555 1_555
H15A C20A 1_555 1_555
C21A C20A 1_555 1_555
H16A C21A 1_555 1_555
C22A C21A 1_555 1_555
C23A C22A 1_555 1_555
H17A C23A 1_555 1_555
C24A C19A 1_555 1_555
H18A C24A 1_555 1_555
C25A N5A 1_555 1_555
H19A C25A 1_555 1_555
C26A C25A 1_555 1_555
H20A C26A 1_555 1_555
C27A C26A 1_555 1_555
H21A C27A 1_555 1_555
C28A C27A 1_555 1_555
H22A C28A 1_555 1_555
C29A N5A 1_555 1_555
C30A N6A 1_555 1_555
H23A C30A 1_555 1_555
C31A N6A 1_555 1_555
C32A C31A 1_555 1_555
H24A C32A 1_555 1_555
C33A C32A 1_555 1_555
H25A C33A 1_555 1_555
C34A C33A 1_555 1_555
C35A C34A 1_555 1_555
H26A C35A 1_555 1_555
C36A C31A 1_555 1_555
H27A C36A 1_555 1_555
N12A C37A 1_555 1_555
N13A Cu4A 1_555 1_555
C37A H28A 1_555 1_555
C38A C37A 1_555 1_555
H29A C38A 1_555 1_555
C39A C38A 1_555 1_555
H30A C39A 1_555 1_555
C40A C39A 1_555 1_555
H31A C40A 1_555 1_555
C41A N12A 1_555 1_555
C42A N13A 1_555 1_555
H32A C42A 1_555 1_555
C43A N13A 1_555 1_555
C44A C43A 1_555 1_555
H33A C44A 1_555 1_555
C45A C44A 1_555 1_555
H34A C45A 1_555 1_555
C46A C45A 1_555 1_555
C47A C46A 1_555 1_555
H35A C47A 1_555 1_555
C48A C43A 1_555 1_555
H36A C48A 1_555 1_555
C49A N7A 1_555 1_555
C50A C49A 1_555 1_555
H37A C50A 1_555 1_555
C51A C50A 1_555 1_555
H38A C51A 1_555 1_555
C52A N7A 1_555 1_555
C53A C22A 1_555 1_555
C54A N8A 1_555 1_555
C55A C54A 1_555 1_555
H39A C55A 1_555 1_555
C56A C55A 1_555 1_555
H40A C56A 1_555 1_555
C57A N8A 1_555 1_555
C58A C34A 1_555 1_555
C59A N9A 1_555 1_555
C60A C59A 1_555 1_555
H41A C60A 1_555 1_555
C61A C60A 1_555 1_555
H42A C61A 1_555 1_555
C62A N9A 1_555 1_555
C63A C46A 1_555 1_555
C64A N10A 1_555 1_555
C65A C64A 1_555 1_555
H43A C65A 1_555 1_555
C66A C65A 1_555 1_555
H44A C66A 1_555 1_555
C67A N10A 1_555 1_555
C68A C10A 1_555 1_555
C69A C70A 1_555 1_555
C70A H45A 1_555 1_555
C71A C70A 1_555 1_555
H46A C71A 1_555 1_555
C72A C71A 1_555 1_555
C73A C72A 1_555 1_555
H47A C73A 1_555 1_555
C74A C69A 1_555 1_555
H48A C74A 1_555 1_555
C75A C76A 1_555 1_555
C76A H49A 1_555 1_555
C77A C76A 1_555 1_555
H50A C77A 1_555 1_555
C78A C77A 1_555 1_555
H51A C78A 1_555 1_555
C79A C78A 1_555 1_555
H52A C79A 1_555 1_555
C80A C75A 1_555 1_555
H53A C80A 1_555 1_555
C81A C82A 1_555 1_555
C82A H54A 1_555 1_555
C83A C82A 1_555 1_555
H55A C83A 1_555 1_555
C84A C83A 1_555 1_555
H56A C84A 1_555 1_555
C85A C84A 1_555 1_555
H57A C85A 1_555 1_555
C86A C81A 1_555 1_555
H58A C86A 1_555 1_555
C87A C88A 1_555 1_555
C88A H59A 1_555 1_555
C89A C88A 1_555 1_555
H60A C89A 1_555 1_555
C90A C89A 1_555 1_555
H61A C90A 1_555 1_555
C91A C90A 1_555 1_555
H62A C91A 1_555 1_555
C92A C87A 1_555 1_555
H63A C92A 1_555 1_555
C93A C94A 1_555 1_555
C94A H64A 1_555 1_555
C95A C94A 1_555 1_555
H65A C95A 1_555 1_555
C96A C95A 1_555 1_555
H66A C96A 1_555 1_555
C97A C96A 1_555 1_555
H67A C97A 1_555 1_555
C98A C93A 1_555 1_555
H68A C98A 1_555 1_555
C99A C100A 1_555 1_555
C100A H69A 1_555 1_555
C101A C100A 1_555 1_555
H70A C101A 1_555 1_555
C102A C101A 1_555 1_555
H71A C102A 1_555 1_555
C103A C102A 1_555 1_555
H72A C103A 1_555 1_555
C104A C99A 1_555 1_555
H73A C104A 1_555 1_555
C105A C106A 1_555 1_555
C106A H74A 1_555 1_555
C107A C106A 1_555 1_555
H75A C107A 1_555 1_555
C108A C107A 1_555 1_555
H76A C108A 1_555 1_555
C109A C108A 1_555 1_555
H77A C109A 1_555 1_555
C110A C105A 1_555 1_555
H78A C110A 1_555 1_555
C111A C112A 1_555 1_555
C112A H79A 1_555 1_555
C113A C112A 1_555 1_555
H80A C113A 1_555 1_555
C114A C113A 1_555 1_555
C115A C114A 1_555 1_555
H81A C115A 1_555 1_555
C116A C111A 1_555 1_555
H82A C116A 1_555 1_555
C117A C118A 1_555 1_555
C118A H83A 1_555 1_555
C119A C118A 1_555 1_555
H84A C119A 1_555 1_555
C120A C119A 1_555 1_555
H85A C120A 1_555 1_555
C121A C120A 1_555 1_555
H86A C121A 1_555 1_555
C122A C117A 1_555 1_555
H87A C122A 1_555 1_555
C123A C124A 1_555 1_555
C124A H88A 1_555 1_555
C125A C124A 1_555 1_555
H89A C125A 1_555 1_555
C126A C125A 1_555 1_555
H90A C126A 1_555 1_555
C127A C126A 1_555 1_555
H91A C127A 1_555 1_555
C128A C123A 1_555 1_555
H92A C128A 1_555 1_555
C129A C130A 1_555 1_555
C130A H93A 1_555 1_555
C131A C130A 1_555 1_555
H94A C131A 1_555 1_555
C132A C131A 1_555 1_555
C133A C132A 1_555 1_555
H95A C133A 1_555 1_555
C134A C129A 1_555 1_555
H96A C134A 1_555 1_555
C135A C136A 1_555 1_555
C136A H97A 1_555 1_555
C137A C136A 1_555 1_555
H98A C137A 1_555 1_555
C138A C137A 1_555 1_555
H99A C138A 1_555 1_555
C139A C138A 1_555 1_555
H100A C139A 1_555 1_555
C140A C135A 1_555 1_555
H101A C140A 1_555 1_555
C141A C142A 1_555 1_555
C142A H102A 1_555 1_555
C143A C142A 1_555 1_555
H103A C143A 1_555 1_555
C144A C143A 1_555 1_555
H104A C144A 1_555 1_555
C145A C144A 1_555 1_555
H105A C145A 1_555 1_555
C146A C141A 1_555 1_555
H106A C146A 1_555 1_555
C147A C148A 1_555 1_555
C148A H107A 1_555 1_555
C149A C148A 1_555 1_555
H108A C149A 1_555 1_555
C150A C149A 1_555 1_555
H109A C150A 1_555 1_555
C151A C150A 1_555 1_555
H110A C151A 1_555 1_555
C152A C147A 1_555 1_555
H111A C152A 1_555 1_555
C153A C154A 1_555 1_555
C154A H112A 1_555 1_555
C155A C154A 1_555 1_555
H113A C155A 1_555 1_555
C156A C155A 1_555 1_555
H114A C156A 1_555 1_555
C157A C156A 1_555 1_555
H115A C157A 1_555 1_555
C158A C153A 1_555 1_555
H116A C158A 1_555 1_555
C159A C160A 1_555 1_555
C160A H117A 1_555 1_555
C161A C160A 1_555 1_555
H118A C161A 1_555 1_555
C162A C161A 1_555 1_555
H119A C162A 1_555 1_555
C163A C162A 1_555 1_555
H120A C163A 1_555 1_555
C164A C159A 1_555 1_555
H121A C164A 1_555 1_555
C165A C166A 1_555 1_555
C166A H122A 1_555 1_555
C167A C166A 1_555 1_555
H123A C167A 1_555 1_555
C168A C167A 1_555 1_555
H124A C168A 1_555 1_555
C169A C168A 1_555 1_555
H125A C169A 1_555 1_555
C170A C165A 1_555 1_555
H126A C170A 1_555 1_555
P1A Cu4A 1_555 1_555
C171A P1A 1_555 1_555
C172A C171A 1_555 1_555
H127A C172A 1_555 1_555
C173A C172A 1_555 1_555
H128A C173A 1_555 1_555
C174A C173A 1_555 1_555
H129A C174A 1_555 1_555
C175A C174A 1_555 1_555
H130A C175A 1_555 1_555
C176A C171A 1_555 1_555
H131A C176A 1_555 1_555
C177A C178A 1_555 1_555
C178A H132A 1_555 1_555
C179A C178A 1_555 1_555
H133A C179A 1_555 1_555
C180A P1A 1_555 1_555
C181A C180A 1_555 1_555
H134A C181A 1_555 1_555
C182A C177A 1_555 1_555
H135A C182A 1_555 1_555
C183A P1A 1_555 1_555
C184A C183A 1_555 1_555
H136A C184A 1_555 1_555
C185A C184A 1_555 1_555
H137A C185A 1_555 1_555
C186A C185A 1_555 1_555
H138A C186A 1_555 1_555
C187A C186A 1_555 1_555
H139A C187A 1_555 1_555
C188A C183A 1_555 1_555
H140A C188A 1_555 1_555
P2A Cu1A 1_555 1_555
P3A Cu3 1_555 1_555
P4A Cu3A 1_555 1_555
P5A Cu1 1_555 1_555
P6A Cu4A 1_555 1_555
P7A Cu2 1_555 1_555
P8A Cu2 1_555 1_555
C4 C5 1_555 1_555
C5 C6 1_555 1_555
C11 C12 1_555 1_555
C16 C17 1_555 1_555
C17 C18 1_555 1_555
C23 C24 1_555 1_555
C28 C29 1_555 1_555
C29 C30 1_555 1_555
C35 C36 1_555 1_555
C40 C41 1_555 1_555
C41 C42 1_555 1_555
C47 C48 1_555 1_555
C49 C68 1_555 1_555
C51 C52 1_555 1_555
C52 C53 1_555 1_555
C53 C54 1_555 1_555
C56 C57 1_555 1_555
C57 C58 1_555 1_555
C58 C59 1_555 1_555
C61 C62 1_555 1_555
C62 C63 1_555 1_555
C63 C64 1_555 1_555
C66 C67 1_555 1_555
C67 C68 1_555 1_555
C69 P2 1_555 1_555
C73 C74 1_555 1_555
C75 P2 1_555 1_555
C79 C80 1_555 1_555
C81 P2 1_555 1_555
C85 C86 1_555 1_555
C87 P3 1_555 1_555
C91 C92 1_555 1_555
C93 P3 1_555 1_555
C97 C98 1_555 1_555
C99 P4 1_555 1_555
C103 C104 1_555 1_555
C105 P4 1_555 1_555
C109 C110 1_555 1_555
C111 P4 1_555 1_555
C115 C116 1_555 1_555
C117 P5 1_555 1_555
C121 C122 1_555 1_555
C123 P5 1_555 1_555
C127 C128 1_555 1_555
C129 P6 1_555 1_555
C133 C134 1_555 1_555
C135 P6 1_555 1_555
C139 C140 1_555 1_555
C141 P6 1_555 1_555
C145 C146 1_555 1_555
C147 P7 1_555 1_555
C151 C152 1_555 1_555
C153 P7 1_555 1_555
C157 C158 1_555 1_555
C163 C164 1_555 1_555
C165 P8 1_555 1_555
C169 C170 1_555 1_555
C175 C176 1_555 1_555
C177 P8 1_555 1_555
C179 C180 1_555 1_555
C181 C182 1_555 1_555
C187 C188 1_555 1_555
C192 C193 1_555 1_555
P8 Cu2A 1_555 1_555
S2 N14 1_555 1_555
C189A C190A 1_555 1_555
C192A C193A 1_555 1_555
C4A C5A 1_555 1_555
C5A C6A 1_555 1_555
C11A C12A 1_555 1_555
C16A C17A 1_555 1_555
C17A C18A 1_555 1_555
C23A C24A 1_555 1_555
C28A C29A 1_555 1_555
C29A C30A 1_555 1_555
C35A C36A 1_555 1_555
C40A C41A 1_555 1_555
C41A C42A 1_555 1_555
C47A C48A 1_555 1_555
C49A C68A 1_555 1_555
C51A C52A 1_555 1_555
C52A C53A 1_555 1_555
C53A C54A 1_555 1_555
C56A C57A 1_555 1_555
C57A C58A 1_555 1_555
C58A C59A 1_555 1_555
C61A C62A 1_555 1_555
C62A C63A 1_555 1_555
C63A C64A 1_555 1_555
C66A C67A 1_555 1_555
C67A C68A 1_555 1_555
C69A P2A 1_555 1_555
C72A P3A 1_555 1_555
C73A C74A 1_555 1_555
C75A P2A 1_555 1_555
C79A C80A 1_555 1_555
C81A P2A 1_555 1_555
C85A C86A 1_555 1_555
C87A P3A 1_555 1_555
C91A C92A 1_555 1_555
C93A P3A 1_555 1_555
C97A C98A 1_555 1_555
C99A P4A 1_555 1_555
C103A C104A 1_555 1_555
C105A P4A 1_555 1_555
C109A C110A 1_555 1_555
C111A P4A 1_555 1_555
C114A P5A 1_555 1_555
C115A C116A 1_555 1_555
C117A P5A 1_555 1_555
C121A C122A 1_555 1_555
C123A P5A 1_555 1_555
C127A C128A 1_555 1_555
C129A P6A 1_555 1_555
C132A P7A 1_555 1_555
C133A C134A 1_555 1_555
C135A P6A 1_555 1_555
C139A C140A 1_555 1_555
C141A P6A 1_555 1_555
C145A C146A 1_555 1_555
C147A P7A 1_555 1_555
C151A C152A 1_555 1_555
C153A P7A 1_555 1_555
C157A C158A 1_555 1_555
C159A P8A 1_555 1_555
C163A C164A 1_555 1_555
C165A P8A 1_555 1_555
C169A C170A 1_555 1_555
C175A C176A 1_555 1_555
C177A P8A 1_555 1_555
C179A C180A 1_555 1_555
C181A C182A 1_555 1_555
C187A C188A 1_555 1_555

#END
