# generated using pymatgen
data_ZnCu4P9H198C259S6N19(O7F9)2
_symmetry_space_group_name_H-M   'P 1'
_cell_length_a   15.52210000
_cell_length_b   28.48580000
_cell_length_c   29.13720000
_cell_angle_alpha   109.68600000
_cell_angle_beta   100.73400000
_cell_angle_gamma   104.52700000
_symmetry_Int_Tables_number   1
_chemical_formula_structural   ZnCu4P9H198C259S6N19(O7F9)2
_chemical_formula_sum   'Zn2 Cu8 P18 H396 C518 S12 N38 O28 F36'
_cell_volume   11212.44800786
_cell_formula_units_Z   2
loop_
 _symmetry_equiv_pos_site_id
 _symmetry_equiv_pos_as_xyz
  1  'x, y, z'
loop_
 _atom_site_type_symbol
 _atom_site_label
 _atom_site_symmetry_multiplicity
 _atom_site_fract_x
 _atom_site_fract_y
 _atom_site_fract_z
 _atom_site_occupancy
  Zn  Zn1  1  0.256610  0.426680  0.569130  1.0
  Zn  Zn2  1  0.743390  0.573320  0.430870  1.0
  Cu  Cu3  1  0.477730  0.149670  0.687120  1.0
  Cu  Cu4  1  0.522270  0.850330  0.312880  1.0
  Cu  Cu5  1  0.267020  0.233210  0.192810  1.0
  Cu  Cu6  1  0.732980  0.766790  0.807190  1.0
  Cu  Cu7  1  0.164120  0.729730  0.453120  1.0
  Cu  Cu8  1  0.835880  0.270270  0.546880  1.0
  Cu  Cu9  1  0.336050  0.685390  0.942650  1.0
  Cu  Cu10  1  0.663950  0.314610  0.057350  1.0
  P  P11  1  0.311300  0.754300  0.903600  1
  P  P12  1  0.688700  0.245700  0.096400  1
  P  P13  1  0.303800  0.729600  0.908000  1.0
  P  P14  1  0.696200  0.270400  0.092000  1.0
  P  P15  1  0.601900  0.219400  0.743220  1.0
  P  P16  1  0.398100  0.780600  0.256780  1.0
  P  P17  1  0.871300  0.320170  0.631450  1.0
  P  P18  1  0.128700  0.679830  0.368550  1.0
  P  P19  1  0.312900  0.783230  0.500860  1.0
  P  P20  1  0.687100  0.216770  0.499140  1.0
  P  P21  1  0.507980  0.911610  0.382270  1.0
  P  P22  1  0.492020  0.088390  0.617730  1.0
  P  P23  1  0.483100  0.698780  0.983960  1.0
  P  P24  1  0.516900  0.301220  0.016040  1.0
  P  P25  1  0.760200  0.714530  0.846480  1.0
  P  P26  1  0.239800  0.285470  0.153520  1.0
  P  P27  1  0.583750  0.756630  0.769520  1.0
  P  P28  1  0.416250  0.243370  0.230480  1.0
  H  H29  1  0.536500  0.373100  0.756800  1
  H  H30  1  0.463500  0.626900  0.243200  1
  H  H31  1  0.564800  0.436300  0.780900  1
  H  H32  1  0.435200  0.563700  0.219100  1
  H  H33  1  0.644000  0.409500  0.782300  1
  H  H34  1  0.356000  0.590500  0.217700  1
  H  H35  1  0.786800  0.867300  0.508700  1
  H  H36  1  0.213200  0.132700  0.491300  1
  H  H37  1  0.677700  0.835600  0.493400  1
  H  H38  1  0.322300  0.164400  0.506600  1
  H  H39  1  0.715700  0.899000  0.519200  1
  H  H40  1  0.284300  0.101000  0.480800  1
  H  H41  1  0.802300  0.832000  0.638900  1
  H  H42  1  0.197700  0.168000  0.361100  1
  H  H43  1  0.840500  0.895700  0.664800  1
  H  H44  1  0.159500  0.104300  0.335200  1
  H  H45  1  0.961100  0.863200  0.687000  1
  H  H46  1  0.038900  0.136800  0.313000  1
  H  H47  1  0.949900  0.832600  0.627800  1
  H  H48  1  0.050100  0.167400  0.372200  1
  H  H49  1  0.987900  0.896000  0.653600  1
  H  H50  1  0.012100  0.104000  0.346400  1
  H  H51  1  0.299500  0.725500  0.055300  1
  H  H52  1  0.700500  0.274500  0.944700  1
  H  H53  1  0.196200  0.695900  0.095800  1
  H  H54  1  0.803800  0.304100  0.904200  1
  H  H55  1  0.081300  0.612000  0.051500  1
  H  H56  1  0.918700  0.388000  0.948500  1
  H  H57  1  0.088900  0.555200  0.973700  1
  H  H58  1  0.911100  0.444800  0.026300  1
  H  H59  1  0.158000  0.545000  0.901500  1
  H  H60  1  0.842000  0.455000  0.098500  1
  H  H61  1  0.405600  0.581500  0.872100  1
  H  H62  1  0.594400  0.418500  0.127900  1
  H  H63  1  0.410600  0.537400  0.789300  1
  H  H64  1  0.589400  0.462600  0.210700  1
  H  H65  1  0.133600  0.506900  0.734300  1
  H  H66  1  0.866400  0.493100  0.265700  1
  H  H67  1  0.128700  0.551000  0.817000  1
  H  H68  1  0.871300  0.449000  0.183000  1
  H  H69  1  0.582500  0.807000  0.007400  1
  H  H70  1  0.417500  0.193000  0.992600  1
  H  H71  1  0.627500  0.889700  0.075400  1
  H  H72  1  0.372500  0.110300  0.924600  1
  H  H73  1  0.607400  0.895000  0.154400  1
  H  H74  1  0.392600  0.105000  0.845600  1
  H  H75  1  0.542300  0.817500  0.165400  1
  H  H76  1  0.457700  0.182500  0.834600  1
  H  H77  1  0.497400  0.734800  0.097500  1
  H  H78  1  0.502600  0.265200  0.902500  1
  H  H79  1  0.394400  0.595500  0.979400  1
  H  H80  1  0.605600  0.404500  0.020600  1
  H  H81  1  0.428400  0.533700  0.009400  1
  H  H82  1  0.571600  0.466300  0.990600  1
  H  H83  1  0.574300  0.555700  0.066600  1
  H  H84  1  0.425700  0.444300  0.933400  1
  H  H85  1  0.686200  0.639500  0.093700  1
  H  H86  1  0.313800  0.360500  0.906300  1
  H  H87  1  0.652200  0.701300  0.063700  1
  H  H88  1  0.347800  0.298700  0.936300  1
  H  H89  1  0.094200  0.731600  0.970200  1
  H  H90  1  0.905800  0.268400  0.029800  1
  H  H91  1  0.977400  0.648200  0.933000  1
  H  H92  1  0.022600  0.351800  0.067000  1
  H  H93  1  0.834100  0.635500  0.878800  1
  H  H94  1  0.165900  0.364500  0.121200  1
  H  H95  1  0.924300  0.789500  0.899100  1
  H  H96  1  0.075700  0.210500  0.100900  1
  H  H97  1  0.067700  0.802200  0.953200  1
  H  H98  1  0.932300  0.197800  0.046800  1
  H  H99  1  0.635400  0.599800  0.833500  1
  H  H100  1  0.364600  0.400200  0.166500  1
  H  H101  1  0.590500  0.515400  0.768200  1
  H  H102  1  0.409500  0.484600  0.231800  1
  H  H103  1  0.645700  0.503900  0.697100  1
  H  H104  1  0.354300  0.496100  0.302900  1
  H  H105  1  0.745700  0.576900  0.691300  1
  H  H106  1  0.254300  0.423100  0.308700  1
  H  H107  1  0.790700  0.661400  0.756700  1
  H  H108  1  0.209300  0.338600  0.243300  1
  H  H109  1  0.286900  0.717600  0.796600  1
  H  H110  1  0.713100  0.282400  0.203400  1
  H  H111  1  0.388000  0.717100  0.746200  1
  H  H112  1  0.612000  0.282900  0.253800  1
  H  H113  1  0.607900  0.804900  0.873600  1
  H  H114  1  0.392100  0.195100  0.126400  1
  H  H115  1  0.506900  0.805300  0.924000  1
  H  H116  1  0.493100  0.194700  0.076000  1
  H  H117  1  0.224700  0.815000  0.864400  1
  H  H118  1  0.775300  0.185000  0.135600  1
  H  H119  1  0.075400  0.800200  0.815100  1
  H  H120  1  0.924600  0.199800  0.184900  1
  H  H121  1  0.959300  0.717300  0.784900  1
  H  H122  1  0.040700  0.282700  0.215100  1
  H  H123  1  0.992500  0.649100  0.804000  1
  H  H124  1  0.007500  0.350900  0.196000  1
  H  H125  1  0.141700  0.663800  0.853300  1
  H  H126  1  0.858300  0.336200  0.146700  1
  H  H127  1  0.247900  0.787200  0.988600  1
  H  H128  1  0.752100  0.212800  0.011400  1
  H  H129  1  0.265500  0.868500  0.052200  1
  H  H130  1  0.734500  0.131500  0.947800  1
  H  H131  1  0.358800  0.947600  0.053200  1
  H  H132  1  0.641200  0.052400  0.946800  1
  H  H133  1  0.434500  0.945400  0.990600  1
  H  H134  1  0.565500  0.054600  0.009400  1
  H  H135  1  0.416900  0.864100  0.927000  1
  H  H136  1  0.583100  0.135900  0.073000  1
  H  H137  1  0.474400  0.069900  0.744800  1.0
  H  H138  1  0.525600  0.930100  0.255200  1.0
  H  H139  1  0.361600  0.016200  0.764700  1.0
  H  H140  1  0.638400  0.983800  0.235300  1.0
  H  H141  1  0.209000  0.016900  0.744000  1.0
  H  H142  1  0.791000  0.983100  0.256000  1.0
  H  H143  1  0.176800  0.076900  0.710500  1.0
  H  H144  1  0.823200  0.923100  0.289500  1.0
  H  H145  1  0.233900  0.147600  0.680200  1.0
  H  H146  1  0.766100  0.852400  0.319800  1.0
  H  H147  1  0.194000  0.178000  0.629600  1.0
  H  H148  1  0.806000  0.822000  0.370400  1.0
  H  H149  1  0.174100  0.243500  0.601400  1.0
  H  H150  1  0.825900  0.756500  0.398600  1.0
  H  H151  1  0.453800  0.305600  0.631500  1.0
  H  H152  1  0.546200  0.694400  0.368500  1.0
  H  H153  1  0.473600  0.240100  0.659600  1.0
  H  H154  1  0.526400  0.759900  0.340400  1.0
  H  H155  1  0.222700  0.139000  0.083800  1.0
  H  H156  1  0.777300  0.861000  0.916200  1.0
  H  H157  1  0.118900  0.052900  0.038800  1.0
  H  H158  1  0.881100  0.947100  0.961200  1.0
  H  H159  1  0.995800  0.024200  0.069800  1.0
  H  H160  1  0.004200  0.975800  0.930200  1.0
  H  H161  1  0.003000  0.073800  0.154000  1.0
  H  H162  1  0.997000  0.926200  0.846000  1.0
  H  H163  1  0.073900  0.159400  0.231000  1.0
  H  H164  1  0.926100  0.840600  0.769000  1.0
  H  H165  1  0.320900  0.289900  0.308300  1.0
  H  H166  1  0.679100  0.710100  0.691700  1.0
  H  H167  1  0.334000  0.343600  0.392000  1.0
  H  H168  1  0.666000  0.656400  0.608000  1.0
  H  H169  1  0.056400  0.276600  0.365000  1.0
  H  H170  1  0.943600  0.723400  0.635000  1.0
  H  H171  1  0.043300  0.223000  0.281300  1.0
  H  H172  1  0.956700  0.777000  0.718700  1.0
  H  H173  1  0.099300  0.827200  0.449000  1.0
  H  H174  1  0.900700  0.172800  0.551000  1.0
  H  H175  1  0.010600  0.873200  0.487500  1.0
  H  H176  1  0.989400  0.126800  0.512500  1.0
  H  H177  1  0.923300  0.839300  0.533700  1.0
  H  H178  1  0.076700  0.160700  0.466300  1.0
  H  H179  1  0.932800  0.761700  0.542500  1.0
  H  H180  1  0.067200  0.238300  0.457500  1.0
  H  H181  1  0.001800  0.689300  0.525300  1.0
  H  H182  1  0.998200  0.310700  0.474700  1.0
  H  H183  1  0.991400  0.614600  0.518900  1.0
  H  H184  1  0.008600  0.385400  0.481100  1.0
  H  H185  1  0.028800  0.547000  0.537400  1.0
  H  H186  1  0.971200  0.453000  0.462600  1.0
  H  H187  1  0.268900  0.585000  0.500700  1.0
  H  H188  1  0.731100  0.415000  0.499300  1.0
  H  H189  1  0.231500  0.652600  0.482300  1.0
  H  H190  1  0.768500  0.347400  0.517700  1.0
  H  H191  1  0.297600  0.745000  0.046100  1.0
  H  H192  1  0.702400  0.255000  0.953900  1.0
  H  H193  1  0.193900  0.721700  0.089100  1.0
  H  H194  1  0.806100  0.278300  0.910900  1.0
  H  H195  1  0.072200  0.640100  0.047700  1.0
  H  H196  1  0.927800  0.359900  0.952300  1.0
  H  H197  1  0.067500  0.580800  0.967800  1.0
  H  H198  1  0.932500  0.419200  0.032200  1.0
  H  H199  1  0.130300  0.562600  0.891300  1.0
  H  H200  1  0.869700  0.437400  0.108700  1.0
  H  H201  1  0.347600  0.641300  0.841000  1.0
  H  H202  1  0.652400  0.358700  0.159000  1.0
  H  H203  1  0.358000  0.595500  0.759900  1.0
  H  H204  1  0.642000  0.404500  0.240100  1.0
  H  H205  1  0.147600  0.466900  0.742000  1.0
  H  H206  1  0.852400  0.533100  0.258000  1.0
  H  H207  1  0.137200  0.512700  0.823100  1.0
  H  H208  1  0.862800  0.487300  0.176900  1.0
  H  H209  1  0.293300  0.242800  0.513600  1.0
  H  H210  1  0.706700  0.757200  0.486400  1.0
  H  H211  1  0.246200  0.252100  0.431900  1.0
  H  H212  1  0.753800  0.747900  0.568100  1.0
  H  H213  1  0.152100  0.400100  0.380700  1.0
  H  H214  1  0.847900  0.599900  0.619300  1.0
  H  H215  1  0.138800  0.488200  0.428900  1.0
  H  H216  1  0.861200  0.511800  0.571100  1.0
  H  H217  1  0.181700  0.601000  0.623200  1.0
  H  H218  1  0.818300  0.399000  0.376800  1.0
  H  H219  1  0.219700  0.587500  0.703500  1.0
  H  H220  1  0.780300  0.412500  0.296500  1.0
  H  H221  1  0.314200  0.439300  0.753100  1.0
  H  H222  1  0.685800  0.560700  0.246900  1.0
  H  H223  1  0.336800  0.355600  0.706600  1.0
  H  H224  1  0.663200  0.644400  0.293400  1.0
  H  H225  1  0.684300  0.328600  0.750900  1.0
  H  H226  1  0.315700  0.671400  0.249100  1.0
  H  H227  1  0.777500  0.365400  0.708700  1.0
  H  H228  1  0.222500  0.634600  0.291300  1.0
  H  H229  1  0.782800  0.220200  0.626500  1.0
  H  H230  1  0.217200  0.779800  0.373500  1.0
  H  H231  1  0.689600  0.183400  0.668700  1.0
  H  H232  1  0.310400  0.816600  0.331300  1.0
  H  H233  1  0.440000  0.248400  0.753900  1.0
  H  H234  1  0.560000  0.751600  0.246100  1.0
  H  H235  1  0.410100  0.317400  0.812200  1.0
  H  H236  1  0.589900  0.682600  0.187800  1.0
  H  H237  1  0.531500  0.383100  0.882800  1.0
  H  H238  1  0.468500  0.616900  0.117200  1.0
  H  H239  1  0.682800  0.379600  0.895100  1.0
  H  H240  1  0.317200  0.620400  0.104900  1.0
  H  H241  1  0.712700  0.310600  0.836700  1.0
  H  H242  1  0.287300  0.689400  0.163300  1.0
  H  H243  1  0.573800  0.173400  0.811700  1.0
  H  H244  1  0.426200  0.826600  0.188300  1.0
  H  H245  1  0.659400  0.143200  0.863400  1.0
  H  H246  1  0.340600  0.856800  0.136600  1.0
  H  H247  1  0.815900  0.154500  0.868200  1.0
  H  H248  1  0.184100  0.845500  0.131800  1.0
  H  H249  1  0.886800  0.196000  0.821300  1.0
  H  H250  1  0.113200  0.804000  0.178700  1.0
  H  H251  1  0.801200  0.226200  0.769600  1.0
  H  H252  1  0.198800  0.773800  0.230400  1.0
  H  H253  1  0.748600  0.381900  0.640700  1.0
  H  H254  1  0.251400  0.618100  0.359300  1.0
  H  H255  1  0.765600  0.469500  0.652300  1.0
  H  H256  1  0.234400  0.530500  0.347700  1.0
  H  H257  1  0.908700  0.526900  0.658400  1.0
  H  H258  1  0.091300  0.473100  0.341600  1.0
  H  H259  1  0.034900  0.496700  0.652800  1.0
  H  H260  1  0.965100  0.503300  0.347200  1.0
  H  H261  1  0.018000  0.409100  0.641200  1.0
  H  H262  1  0.982000  0.590900  0.358800  1.0
  H  H263  1  0.991100  0.394700  0.733100  1.0
  H  H264  1  0.008900  0.605300  0.266900  1.0
  H  H265  1  0.122200  0.399800  0.791800  1.0
  H  H266  1  0.877800  0.600200  0.208200  1.0
  H  H267  1  0.191100  0.334400  0.770000  1.0
  H  H268  1  0.808900  0.665600  0.230000  1.0
  H  H269  1  0.129000  0.263900  0.689400  1.0
  H  H270  1  0.871000  0.736100  0.310600  1.0
  H  H271  1  0.998000  0.258900  0.630700  1.0
  H  H272  1  0.002000  0.741100  0.369300  1.0
  H  H273  1  0.344300  0.694800  0.438400  1.0
  H  H274  1  0.655700  0.305200  0.561600  1.0
  H  H275  1  0.445400  0.647500  0.446700  1.0
  H  H276  1  0.554600  0.352500  0.553300  1.0
  H  H277  1  0.552500  0.672400  0.526000  1.0
  H  H278  1  0.447500  0.327600  0.474000  1.0
  H  H279  1  0.558400  0.744500  0.596900  1.0
  H  H280  1  0.441600  0.255500  0.403100  1.0
  H  H281  1  0.457300  0.791800  0.588600  1.0
  H  H282  1  0.542700  0.208200  0.411400  1.0
  H  H283  1  0.201400  0.790500  0.567500  1.0
  H  H284  1  0.798600  0.209500  0.432500  1.0
  H  H285  1  0.208700  0.852600  0.646200  1.0
  H  H286  1  0.791300  0.147400  0.353800  1.0
  H  H287  1  0.335200  0.931900  0.688000  1.0
  H  H288  1  0.664800  0.068100  0.312000  1.0
  H  H289  1  0.454400  0.949200  0.651000  1.0
  H  H290  1  0.545600  0.050800  0.349000  1.0
  H  H291  1  0.447200  0.887100  0.572200  1.0
  H  H292  1  0.552800  0.112900  0.427800  1.0
  H  H293  1  0.287300  0.867200  0.473200  1.0
  H  H294  1  0.712700  0.132800  0.526800  1.0
  H  H295  1  0.355200  0.915100  0.430100  1.0
  H  H296  1  0.644800  0.084900  0.569900  1.0
  H  H297  1  0.544900  0.839700  0.421400  1.0
  H  H298  1  0.455100  0.160300  0.578600  1.0
  H  H299  1  0.477000  0.791900  0.464600  1.0
  H  H300  1  0.523000  0.208100  0.535400  1.0
  H  H301  1  0.653000  0.989300  0.374600  1.0
  H  H302  1  0.347000  0.010700  0.625400  1.0
  H  H303  1  0.794600  0.054500  0.429300  1.0
  H  H304  1  0.205400  0.945500  0.570700  1.0
  H  H305  1  0.842800  0.066900  0.514800  1.0
  H  H306  1  0.157200  0.933100  0.485200  1.0
  H  H307  1  0.749400  0.014100  0.545600  1.0
  H  H308  1  0.250600  0.985900  0.454400  1.0
  H  H309  1  0.607800  0.948800  0.490900  1.0
  H  H310  1  0.392200  0.051200  0.509100  1.0
  H  H311  1  0.476400  0.008000  0.440800  1.0
  H  H312  1  0.523600  0.992000  0.559200  1.0
  H  H313  1  0.382000  0.055000  0.420700  1.0
  H  H314  1  0.618000  0.945000  0.579300  1.0
  H  H315  1  0.288300  0.025800  0.336900  1.0
  H  H316  1  0.711700  0.974200  0.663100  1.0
  H  H317  1  0.288900  0.949400  0.273100  1.0
  H  H318  1  0.711100  0.050600  0.726900  1.0
  H  H319  1  0.383300  0.902400  0.293200  1.0
  H  H320  1  0.616700  0.097600  0.706800  1.0
  H  H321  1  0.477900  0.645400  0.883300  1.0
  H  H322  1  0.522100  0.354600  0.116700  1.0
  H  H323  1  0.578300  0.647900  0.832800  1.0
  H  H324  1  0.421700  0.352100  0.167200  1.0
  H  H325  1  0.777200  0.772400  0.952400  1.0
  H  H326  1  0.222800  0.227600  0.047600  1.0
  H  H327  1  0.676700  0.769900  0.002900  1.0
  H  H328  1  0.323300  0.230100  0.997100  1.0
  H  H329  1  0.485600  0.804000  0.011300  1.0
  H  H330  1  0.514400  0.196000  0.988700  1.0
  H  H331  1  0.533400  0.875300  0.090800  1.0
  H  H332  1  0.466600  0.124700  0.909200  1.0
  H  H333  1  0.598600  0.865800  0.164900  1.0
  H  H334  1  0.401400  0.134200  0.835100  1.0
  H  H335  1  0.616000  0.785000  0.159500  1.0
  H  H336  1  0.384000  0.215000  0.840500  1.0
  H  H337  1  0.568100  0.713700  0.080000  1.0
  H  H338  1  0.431900  0.286300  0.920000  1.0
  H  H339  1  0.616100  0.651000  0.990500  1.0
  H  H340  1  0.383900  0.349000  0.009500  1.0
  H  H341  1  0.627500  0.581300  0.013800  1.0
  H  H342  1  0.372500  0.418700  0.986200  1.0
  H  H343  1  0.498800  0.529100  0.026200  1.0
  H  H344  1  0.501200  0.470900  0.973800  1.0
  H  H345  1  0.358700  0.546600  0.015300  1.0
  H  H346  1  0.641300  0.453400  0.984700  1.0
  H  H347  1  0.347300  0.616300  0.992000  1.0
  H  H348  1  0.652700  0.383700  0.008000  1.0
  H  H349  1  0.937900  0.778900  0.845400  1.0
  H  H350  1  0.062100  0.221100  0.154600  1.0
  H  H351  1  0.093500  0.808500  0.894700  1.0
  H  H352  1  0.906500  0.191500  0.105300  1.0
  H  H353  1  0.130400  0.795000  0.969800  1.0
  H  H354  1  0.869600  0.205000  0.030200  1.0
  H  H355  1  0.011700  0.751900  0.995700  1.0
  H  H356  1  0.988300  0.248100  0.004300  1.0
  H  H357  1  0.856100  0.722300  0.946400  1.0
  H  H358  1  0.143900  0.277700  0.053600  1.0
  H  H359  1  0.736700  0.664700  0.739000  1.0
  H  H360  1  0.263300  0.335300  0.261000  1.0
  H  H361  1  0.724900  0.579200  0.686100  1.0
  H  H362  1  0.275100  0.420800  0.313900  1.0
  H  H363  1  0.734600  0.516900  0.720700  1.0
  H  H364  1  0.265400  0.483100  0.279300  1.0
  H  H365  1  0.756000  0.539900  0.808100  1.0
  H  H366  1  0.244000  0.460100  0.191900  1.0
  H  H367  1  0.767700  0.625300  0.860900  1.0
  H  H368  1  0.232300  0.374700  0.139100  1.0
  H  H369  1  0.474600  0.728400  0.664000  1.0
  H  H370  1  0.525400  0.271600  0.336000  1.0
  H  H371  1  0.396400  0.648300  0.592700  1.0
  H  H372  1  0.603600  0.351700  0.407300  1.0
  H  H373  1  0.398400  0.568300  0.597800  1.0
  H  H374  1  0.601600  0.431700  0.402200  1.0
  H  H375  1  0.478700  0.568500  0.674300  1.0
  H  H376  1  0.521300  0.431500  0.325700  1.0
  H  H377  1  0.556900  0.648600  0.745600  1.0
  H  H378  1  0.443100  0.351400  0.254400  1.0
  H  H379  1  0.449400  0.812700  0.762900  1.0
  H  H380  1  0.550600  0.187300  0.237100  1.0
  H  H381  1  0.437200  0.876800  0.731100  1.0
  H  H382  1  0.562800  0.123200  0.268900  1.0
  H  H383  1  0.552700  0.911300  0.698300  1.0
  H  H384  1  0.447300  0.088700  0.301700  1.0
  H  H385  1  0.680400  0.881800  0.697500  1.0
  H  H386  1  0.319600  0.118200  0.302500  1.0
  H  H387  1  0.692600  0.817700  0.729400  1.0
  H  H388  1  0.307400  0.182300  0.270600  1.0
  H  H389  1  0.136200  0.667400  0.913900  1.0
  H  H390  1  0.863800  0.332600  0.086100  1.0
  H  H391  1  0.979900  0.628800  0.864100  1.0
  H  H392  1  0.020100  0.371200  0.135900  1.0
  H  H393  1  0.934300  0.638200  0.787400  1.0
  H  H394  1  0.065700  0.361800  0.212600  1.0
  H  H395  1  0.044900  0.686100  0.760500  1.0
  H  H396  1  0.955100  0.313900  0.239500  1.0
  H  H397  1  0.201200  0.724700  0.810300  1.0
  H  H398  1  0.798800  0.275300  0.189700  1.0
  H  H399  1  0.402800  0.672400  0.757300  1.0
  H  H400  1  0.597200  0.327600  0.242700  1.0
  H  H401  1  0.301200  0.666667  0.806800  1.0
  H  H402  1  0.698800  0.333333  0.193200  1.0
  H  H403  1  0.472600  0.807900  0.918400  1.0
  H  H404  1  0.527400  0.192100  0.081600  1.0
  H  H405  1  0.574200  0.813700  0.868800  1.0
  H  H406  1  0.425800  0.186300  0.131200  1.0
  H  H407  1  0.358500  0.791700  0.016700  1.0
  H  H408  1  0.641500  0.208300  0.983300  1.0
  H  H409  1  0.363500  0.876400  0.067500  1.0
  H  H410  1  0.636500  0.123600  0.932500  1.0
  H  H411  1  0.327200  0.932200  0.029400  1.0
  H  H412  1  0.672800  0.067800  0.970600  1.0
  H  H413  1  0.286000  0.903300  0.940500  1.0
  H  H414  1  0.714000  0.096700  0.059500  1.0
  H  H415  1  0.281000  0.818600  0.889700  1.0
  H  H416  1  0.719000  0.181400  0.110300  1.0
  H  H417  1  0.359000  0.476000  0.507800  1.0
  H  H418  1  0.641000  0.524000  0.492200  1.0
  H  H419  1  0.629200  0.496600  0.547400  1.0
  H  H420  1  0.370800  0.503400  0.452600  1.0
  H  H421  1  0.608900  0.464000  0.609100  1.0
  H  H422  1  0.391100  0.536000  0.390900  1.0
  H  H423  1  0.461300  0.442300  0.620500  1.0
  H  H424  1  0.538700  0.557700  0.379500  1.0
  C  C425  1  0.905500  0.485200  0.799200  1
  C  C426  1  0.094500  0.514800  0.200800  1
  C  C427  1  0.885000  0.570300  0.972600  1
  C  C428  1  0.115000  0.429700  0.027400  1
  C  C429  1  0.911400  0.146000  0.690200  1
  C  C430  1  0.088600  0.854000  0.309800  1
  C  C431  1  0.014100  0.995700  0.588800  1
  C  C432  1  0.985900  0.004300  0.411200  1
  C  C433  1  0.588600  0.407200  0.711900  1
  C  C434  1  0.411400  0.592800  0.288100  1
  C  C435  1  0.583000  0.406500  0.762300  1
  C  C436  1  0.417000  0.593500  0.237700  1
  C  C437  1  0.729500  0.867000  0.518400  1
  C  C438  1  0.270500  0.133000  0.481600  1
  C  C439  1  0.742200  0.865800  0.570400  1
  C  C440  1  0.257800  0.134200  0.429600  1
  C  C441  1  0.846300  0.864200  0.639400  1
  C  C442  1  0.153700  0.135800  0.360600  1
  C  C443  1  0.945000  0.864000  0.653200  1
  C  C444  1  0.055000  0.136000  0.346800  1
  C  C445  1  0.256300  0.690300  0.038600  1
  C  C446  1  0.743700  0.309700  0.961400  1
  C  C447  1  0.193900  0.673600  0.062700  1
  C  C448  1  0.806100  0.326400  0.937300  1
  C  C449  1  0.128500  0.623600  0.037300  1
  C  C450  1  0.871500  0.376400  0.962700  1
  C  C451  1  0.131700  0.590400  0.990900  1
  C  C452  1  0.868300  0.409600  0.009100  1
  C  C453  1  0.198700  0.609600  0.969900  1
  C  C454  1  0.801300  0.390400  0.030100  1
  C  C455  1  0.202700  0.579400  0.921100  1
  C  C456  1  0.797300  0.420600  0.078900  1
  C  C457  1  0.266700  0.570400  0.852300  1
  C  C458  1  0.733300  0.429600  0.147700  1
  C  C459  1  0.350400  0.566300  0.844100  1
  C  C460  1  0.649600  0.433700  0.155900  1
  C  C461  1  0.353300  0.540100  0.794900  1
  C  C462  1  0.646700  0.459900  0.205100  1
  C  C463  1  0.272600  0.518000  0.754000  1
  C  C464  1  0.727400  0.482000  0.246000  1
  C  C465  1  0.188800  0.522000  0.762200  1
  C  C466  1  0.811200  0.478000  0.237800  1
  C  C467  1  0.185900  0.548200  0.811400  1
  C  C468  1  0.814100  0.451800  0.188600  1
  C  C469  1  0.535700  0.763100  0.046000  1
  C  C470  1  0.464300  0.236900  0.954000  1
  C  C471  1  0.574400  0.809200  0.039500  1
  C  C472  1  0.425600  0.190800  0.960500  1
  C  C473  1  0.601100  0.858300  0.079900  1
  C  C474  1  0.398900  0.141700  0.920100  1
  C  C475  1  0.589200  0.861400  0.126800  1
  C  C476  1  0.410800  0.138600  0.873200  1
  C  C477  1  0.550500  0.815400  0.133300  1
  C  C478  1  0.449500  0.184600  0.866700  1
  C  C479  1  0.523800  0.766200  0.093000  1
  C  C480  1  0.476200  0.233800  0.907000  1
  C  C481  1  0.520100  0.654200  0.018700  1
  C  C482  1  0.479900  0.345800  0.981300  1
  C  C483  1  0.453600  0.604400  0.002600  1
  C  C484  1  0.546400  0.395600  0.997400  1
  C  C485  1  0.473800  0.567700  0.020400  1
  C  C486  1  0.526200  0.432300  0.979600  1
  C  C487  1  0.560500  0.580800  0.054400  1
  C  C488  1  0.439500  0.419200  0.945600  1
  C  C489  1  0.627000  0.630500  0.070500  1
  C  C490  1  0.373000  0.369500  0.929500  1
  C  C491  1  0.606800  0.667300  0.052600  1
  C  C492  1  0.393200  0.332700  0.947400  1
  C  C493  1  0.036000  0.726400  0.948200  1
  C  C494  1  0.964000  0.273600  0.051800  1
  C  C495  1  0.966700  0.676900  0.926100  1
  C  C496  1  0.033300  0.323100  0.073900  1
  C  C497  1  0.881500  0.669300  0.893900  1
  C  C498  1  0.118500  0.330700  0.106100  1
  C  C499  1  0.865700  0.711300  0.883800  1
  C  C500  1  0.134300  0.288700  0.116200  1
  C  C501  1  0.935100  0.760800  0.905900  1
  C  C502  1  0.064900  0.239200  0.094100  1
  C  C503  1  0.020300  0.768400  0.938100  1
  C  C504  1  0.979700  0.231600  0.061900  1
  C  C505  1  0.717300  0.638500  0.801200  1
  C  C506  1  0.282700  0.361500  0.198800  1
  C  C507  1  0.657800  0.595200  0.804600  1
  C  C508  1  0.342200  0.404800  0.195400  1
  C  C509  1  0.631100  0.545000  0.765800  1
  C  C510  1  0.368900  0.455000  0.234200  1
  C  C511  1  0.663900  0.538200  0.723600  1
  C  C512  1  0.336100  0.461800  0.276400  1
  C  C513  1  0.723300  0.581600  0.720200  1
  C  C514  1  0.276700  0.418400  0.279800  1
  C  C515  1  0.750000  0.631700  0.759000  1
  C  C516  1  0.250000  0.368300  0.241000  1
  C  C517  1  0.387400  0.761500  0.865100  1
  C  C518  1  0.612600  0.238500  0.134900  1
  C  C519  1  0.352100  0.735300  0.812300  1
  C  C520  1  0.647900  0.264700  0.187700  1
  C  C521  1  0.412100  0.735000  0.782300  1
  C  C522  1  0.587900  0.265000  0.217700  1
  C  C523  1  0.507500  0.761000  0.805100  1
  C  C524  1  0.492500  0.239000  0.194900  1
  C  C525  1  0.542800  0.787100  0.857900  1
  C  C526  1  0.457200  0.212900  0.142100  1
  C  C527  1  0.482800  0.787400  0.887900  1
  C  C528  1  0.517200  0.212600  0.112100  1
  C  C529  1  0.197300  0.740800  0.863500  1
  C  C530  1  0.802700  0.259200  0.136500  1
  C  C531  1  0.177600  0.781300  0.852100  1
  C  C532  1  0.822400  0.218700  0.147900  1
  C  C533  1  0.088900  0.772600  0.822800  1
  C  C534  1  0.911100  0.227400  0.177200  1
  C  C535  1  0.019900  0.723300  0.804900  1
  C  C536  1  0.980100  0.276700  0.195100  1
  C  C537  1  0.039600  0.682800  0.816300  1
  C  C538  1  0.960400  0.317200  0.183700  1
  C  C539  1  0.128300  0.691500  0.845600  1
  C  C540  1  0.871700  0.308500  0.154400  1
  C  C541  1  0.330700  0.818000  0.951800  1
  C  C542  1  0.669300  0.182000  0.048200  1
  C  C543  1  0.285800  0.819300  0.989000  1
  C  C544  1  0.714200  0.180700  0.011000  1
  C  C545  1  0.296200  0.867600  0.026800  1
  C  C546  1  0.703800  0.132400  0.973200  1
  C  C547  1  0.351600  0.914600  0.027400  1
  C  C548  1  0.648400  0.085400  0.972600  1
  C  C549  1  0.396600  0.913300  0.990200  1
  C  C550  1  0.603400  0.086700  0.009800  1
  C  C551  1  0.386200  0.865000  0.952400  1
  C  C552  1  0.613800  0.135000  0.047600  1
  C  C553  1  0.916000  0.524900  0.809600  1
  C  C554  1  0.084000  0.475100  0.190400  1
  C  C555  1  0.840000  0.521300  0.980000  1
  C  C556  1  0.160000  0.478700  0.020000  1
  C  C557  1  0.413000  0.071200  0.737500  1.0
  C  C558  1  0.587000  0.928800  0.262500  1.0
  C  C559  1  0.346200  0.038700  0.749100  1.0
  C  C560  1  0.653800  0.961300  0.250900  1.0
  C  C561  1  0.256900  0.039700  0.737700  1.0
  C  C562  1  0.743100  0.960300  0.262300  1.0
  C  C563  1  0.237400  0.074200  0.716800  1.0
  C  C564  1  0.762600  0.925800  0.283200  1.0
  C  C565  1  0.308000  0.105000  0.705300  1.0
  C  C566  1  0.692000  0.895000  0.294700  1.0
  C  C567  1  0.291900  0.141800  0.683500  1.0
  C  C568  1  0.708100  0.858200  0.316500  1.0
  C  C569  1  0.335700  0.202900  0.647200  1.0
  C  C570  1  0.664300  0.797100  0.352800  1.0
  C  C571  1  0.246700  0.203900  0.630000  1.0
  C  C572  1  0.753300  0.796100  0.370000  1.0
  C  C573  1  0.234900  0.242800  0.613200  1.0
  C  C574  1  0.765100  0.757200  0.386800  1.0
  C  C575  1  0.312100  0.280700  0.613800  1.0
  C  C576  1  0.687900  0.719300  0.386200  1.0
  C  C577  1  0.401100  0.279700  0.631100  1.0
  C  C578  1  0.598900  0.720300  0.368900  1.0
  C  C579  1  0.412900  0.240800  0.647800  1.0
  C  C580  1  0.587100  0.759200  0.352200  1.0
  C  C581  1  0.178800  0.125100  0.098700  1.0
  C  C582  1  0.821200  0.874900  0.901300  1.0
  C  C583  1  0.114800  0.074700  0.070600  1.0
  C  C584  1  0.885200  0.925300  0.929400  1.0
  C  C585  1  0.045100  0.056900  0.089900  1.0
  C  C586  1  0.954900  0.943100  0.910100  1.0
  C  C587  1  0.047300  0.086900  0.138900  1.0
  C  C588  1  0.952700  0.913100  0.861100  1.0
  C  C589  1  0.115700  0.136600  0.165500  1.0
  C  C590  1  0.884300  0.863400  0.834500  1.0
  C  C591  1  0.117400  0.171200  0.214900  1.0
  C  C592  1  0.882600  0.828800  0.785100  1.0
  C  C593  1  0.180900  0.251400  0.286900  1.0
  C  C594  1  0.819100  0.748600  0.713100  1.0
  C  C595  1  0.267200  0.287200  0.319800  1.0
  C  C596  1  0.732800  0.712800  0.680200  1.0
  C  C597  1  0.275000  0.319100  0.369500  1.0
  C  C598  1  0.725000  0.680900  0.630500  1.0
  C  C599  1  0.196400  0.315100  0.386370  1.0
  C  C600  1  0.803600  0.684900  0.613630  1.0
  C  C601  1  0.110100  0.279300  0.353500  1.0
  C  C602  1  0.889900  0.720700  0.646500  1.0
  C  C603  1  0.102300  0.247500  0.303740  1.0
  C  C604  1  0.897700  0.752500  0.696260  1.0
  C  C605  1  0.066100  0.814200  0.468900  1.0
  C  C606  1  0.933900  0.185800  0.531100  1.0
  C  C607  1  0.012400  0.841500  0.491100  1.0
  C  C608  1  0.987600  0.158500  0.508900  1.0
  C  C609  1  0.961700  0.821600  0.518400  1.0
  C  C610  1  0.038300  0.178400  0.481600  1.0
  C  C611  1  0.966900  0.775800  0.523500  1.0
  C  C612  1  0.033100  0.224200  0.476500  1.0
  C  C613  1  0.023000  0.750700  0.500300  1.0
  C  C614  1  0.977000  0.249300  0.499700  1.0
  C  C615  1  0.036600  0.704800  0.507300  1.0
  C  C616  1  0.963400  0.295200  0.492700  1.0
  C  C617  1  0.107900  0.640000  0.498900  1.0
  C  C618  1  0.892100  0.360000  0.501100  1.0
  C  C619  1  0.047800  0.608600  0.515200  1.0
  C  C620  1  0.952200  0.391400  0.484800  1.0
  C  C621  1  0.070000  0.568400  0.526200  1.0
  C  C622  1  0.930000  0.431600  0.473800  1.0
  C  C623  1  0.152400  0.559600  0.520800  1.0
  C  C624  1  0.847600  0.440400  0.479200  1.0
  C  C625  1  0.212500  0.591000  0.504400  1.0
  C  C626  1  0.787500  0.409000  0.495600  1.0
  C  C627  1  0.190300  0.631200  0.493500  1.0
  C  C628  1  0.809700  0.368800  0.506500  1.0
  C  C629  1  0.249900  0.711200  0.030000  1.0
  C  C630  1  0.750100  0.288800  0.970000  1.0
  C  C631  1  0.188100  0.698000  0.055700  1.0
  C  C632  1  0.811900  0.302000  0.944300  1.0
  C  C633  1  0.118000  0.649600  0.031800  1.0
  C  C634  1  0.882000  0.350400  0.968200  1.0
  C  C635  1  0.114500  0.614800  0.984500  1.0
  C  C636  1  0.885500  0.385200  0.015500  1.0
  C  C637  1  0.180900  0.630500  0.961600  1.0
  C  C638  1  0.819100  0.369500  0.038400  1.0
  C  C639  1  0.177300  0.596400  0.909800  1.0
  C  C640  1  0.822700  0.403600  0.090200  1.0
  C  C641  1  0.241400  0.581300  0.839600  1.0
  C  C642  1  0.758600  0.418700  0.160400  1.0
  C  C643  1  0.307000  0.605900  0.820900  1.0
  C  C644  1  0.693000  0.394100  0.179100  1.0
  C  C645  1  0.313200  0.578700  0.772800  1.0
  C  C646  1  0.686800  0.421300  0.227200  1.0
  C  C647  1  0.253800  0.526900  0.743400  1.0
  C  C648  1  0.746200  0.473100  0.256600  1.0
  C  C649  1  0.188200  0.502300  0.762100  1.0
  C  C650  1  0.811800  0.497700  0.237900  1.0
  C  C651  1  0.182000  0.529500  0.810200  1.0
  C  C652  1  0.818000  0.470500  0.189800  1.0
  C  C653  1  0.271600  0.316200  0.549200  1.0
  C  C654  1  0.728400  0.683800  0.450800  1.0
  C  C655  1  0.275900  0.271100  0.509400  1.0
  C  C656  1  0.724100  0.728900  0.490600  1.0
  C  C657  1  0.250800  0.276300  0.464700  1.0
  C  C658  1  0.749200  0.723700  0.535300  1.0
  C  C659  1  0.232200  0.325700  0.476700  1.0
  C  C660  1  0.767800  0.674300  0.523300  1.0
  C  C661  1  0.204500  0.347100  0.441500  1.0
  C  C662  1  0.795500  0.652900  0.558500  1.0
  C  C663  1  0.187400  0.395300  0.452000  1.0
  C  C664  1  0.812600  0.604700  0.548000  1.0
  C  C665  1  0.162300  0.416300  0.416400  1.0
  C  C666  1  0.837700  0.583700  0.583600  1.0
  C  C667  1  0.155000  0.464700  0.442700  1.0
  C  C668  1  0.845000  0.535300  0.557300  1.0
  C  C669  1  0.177000  0.472100  0.495300  1.0
  C  C670  1  0.823000  0.527900  0.504700  1.0
  C  C671  1  0.178300  0.517500  0.534900  1.0
  C  C672  1  0.821700  0.482500  0.465100  1.0
  C  C673  1  0.198500  0.526100  0.586600  1.0
  C  C674  1  0.801500  0.473900  0.413400  1.0
  C  C675  1  0.195900  0.571600  0.626700  1.0
  C  C676  1  0.804100  0.428400  0.373300  1.0
  C  C677  1  0.218100  0.564300  0.670900  1.0
  C  C678  1  0.781900  0.435700  0.329100  1.0
  C  C679  1  0.238300  0.516100  0.659900  1.0
  C  C680  1  0.761700  0.483900  0.340100  1.0
  C  C681  1  0.262200  0.493800  0.693100  1.0
  C  C682  1  0.737800  0.506200  0.306900  1.0
  C  C683  1  0.282500  0.448200  0.682700  1.0
  C  C684  1  0.717500  0.551800  0.317300  1.0
  C  C685  1  0.307100  0.424500  0.717600  1.0
  C  C686  1  0.692900  0.575500  0.282400  1.0
  C  C687  1  0.318700  0.378500  0.692500  1.0
  C  C688  1  0.681300  0.621500  0.307500  1.0
  C  C689  1  0.298200  0.371100  0.640000  1.0
  C  C690  1  0.701800  0.628900  0.360000  1.0
  C  C691  1  0.296000  0.325900  0.600700  1.0
  C  C692  1  0.704000  0.674100  0.399300  1.0
  C  C693  1  0.678200  0.252500  0.713800  1.0
  C  C694  1  0.321800  0.747500  0.286200  1.0
  C  C695  1  0.704300  0.306600  0.725700  1.0
  C  C696  1  0.295700  0.693400  0.274300  1.0
  C  C697  1  0.759600  0.328490  0.700600  1.0
  C  C698  1  0.240400  0.671510  0.299400  1.0
  C  C699  1  0.788900  0.296300  0.663700  1.0
  C  C700  1  0.211100  0.703700  0.336300  1.0
  C  C701  1  0.762800  0.242200  0.651800  1.0
  C  C702  1  0.237200  0.757800  0.348200  1.0
  C  C703  1  0.707500  0.220340  0.676900  1.0
  C  C704  1  0.292500  0.779660  0.323100  1.0
  C  C705  1  0.579100  0.273000  0.789800  1.0
  C  C706  1  0.420900  0.727000  0.210200  1.0
  C  C707  1  0.489300  0.275000  0.782500  1.0
  C  C708  1  0.510700  0.725000  0.217500  1.0
  C  C709  1  0.471600  0.316000  0.817200  1.0
  C  C710  1  0.528400  0.684000  0.182800  1.0
  C  C711  1  0.543700  0.355000  0.859200  1.0
  C  C712  1  0.456300  0.645000  0.140800  1.0
  C  C713  1  0.633500  0.353000  0.866400  1.0
  C  C714  1  0.366500  0.647000  0.133600  1.0
  C  C715  1  0.651200  0.312000  0.831800  1.0
  C  C716  1  0.348800  0.688000  0.168200  1.0
  C  C717  1  0.679400  0.202600  0.785800  1.0
  C  C718  1  0.320600  0.797400  0.214200  1.0
  C  C719  1  0.637300  0.178000  0.813700  1.0
  C  C720  1  0.362700  0.822000  0.186300  1.0
  C  C721  1  0.688200  0.160000  0.844400  1.0
  C  C722  1  0.311800  0.840000  0.155600  1.0
  C  C723  1  0.781100  0.166800  0.847200  1.0
  C  C724  1  0.218900  0.833200  0.152800  1.0
  C  C725  1  0.823300  0.191400  0.819400  1.0
  C  C726  1  0.176700  0.808600  0.180600  1.0
  C  C727  1  0.772400  0.209400  0.788700  1.0
  C  C728  1  0.227600  0.790600  0.211300  1.0
  C  C729  1  0.881700  0.387300  0.639800  1.0
  C  C730  1  0.118300  0.612700  0.360200  1.0
  C  C731  1  0.806700  0.405200  0.643100  1.0
  C  C732  1  0.193300  0.594800  0.356900  1.0
  C  C733  1  0.816800  0.457300  0.650100  1.0
  C  C734  1  0.183200  0.542700  0.349900  1.0
  C  C735  1  0.901800  0.491300  0.653700  1.0
  C  C736  1  0.098200  0.508700  0.346300  1.0
  C  C737  1  0.976800  0.473400  0.650400  1.0
  C  C738  1  0.023200  0.526600  0.349600  1.0
  C  C739  1  0.966700  0.421300  0.643400  1.0
  C  C740  1  0.033300  0.578700  0.356600  1.0
  C  C741  1  0.982200  0.326300  0.676400  1.0
  C  C742  1  0.017800  0.673700  0.323600  1.0
  C  C743  1  0.019100  0.368200  0.724200  1.0
  C  C744  1  0.980900  0.631800  0.275800  1.0
  C  C745  1  0.097000  0.371200  0.759100  1.0
  C  C746  1  0.903000  0.628800  0.240900  1.0
  C  C747  1  0.137900  0.332300  0.746100  1.0
  C  C748  1  0.862100  0.667700  0.253900  1.0
  C  C749  1  0.101000  0.290500  0.698300  1.0
  C  C750  1  0.899000  0.709500  0.301700  1.0
  C  C751  1  0.023200  0.287500  0.663400  1.0
  C  C752  1  0.976800  0.712500  0.336600  1.0
  C  C753  1  0.391300  0.747700  0.512700  1.0
  C  C754  1  0.608700  0.252300  0.487300  1.0
  C  C755  1  0.387800  0.704900  0.470600  1.0
  C  C756  1  0.612200  0.295100  0.529400  1.0
  C  C757  1  0.447800  0.676800  0.475500  1.0
  C  C758  1  0.552200  0.323200  0.524500  1.0
  C  C759  1  0.511400  0.691600  0.522600  1.0
  C  C760  1  0.488600  0.308400  0.477400  1.0
  C  C761  1  0.514900  0.734400  0.564800  1.0
  C  C762  1  0.485100  0.265600  0.435200  1.0
  C  C763  1  0.454900  0.762500  0.559800  1.0
  C  C764  1  0.545100  0.237500  0.440200  1.0
  C  C765  1  0.323600  0.833000  0.562400  1.0
  C  C766  1  0.676400  0.167000  0.437600  1.0
  C  C767  1  0.252800  0.822700  0.584400  1.0
  C  C768  1  0.747200  0.177300  0.415600  1.0
  C  C769  1  0.257100  0.859600  0.631200  1.0
  C  C770  1  0.742900  0.140400  0.368800  1.0
  C  C771  1  0.332200  0.906700  0.656000  1.0
  C  C772  1  0.667800  0.093300  0.344000  1.0
  C  C773  1  0.403100  0.917000  0.634000  1.0
  C  C774  1  0.596900  0.083000  0.366000  1.0
  C  C775  1  0.398800  0.880100  0.587200  1.0
  C  C776  1  0.601200  0.119900  0.412800  1.0
  C  C777  1  0.375700  0.825000  0.472900  1.0
  C  C778  1  0.624300  0.175000  0.527100  1.0
  C  C779  1  0.339600  0.861600  0.462700  1.0
  C  C780  1  0.660400  0.138400  0.537300  1.0
  C  C781  1  0.379900  0.890100  0.437100  1.0
  C  C782  1  0.620100  0.109900  0.562900  1.0
  C  C783  1  0.456400  0.881900  0.421700  1.0
  C  C784  1  0.543600  0.118100  0.578300  1.0
  C  C785  1  0.492600  0.845300  0.431900  1.0
  C  C786  1  0.507400  0.154700  0.568100  1.0
  C  C787  1  0.452300  0.816900  0.457600  1.0
  C  C788  1  0.547700  0.183100  0.542400  1.0
  C  C789  1  0.617100  0.962900  0.427600  1.0
  C  C790  1  0.382900  0.037100  0.572400  1.0
  C  C791  1  0.672500  0.994300  0.409280  1.0
  C  C792  1  0.327500  0.005700  0.590720  1.0
  C  C793  1  0.756600  0.033100  0.441800  1.0
  C  C794  1  0.243400  0.966900  0.558200  1.0
  C  C795  1  0.785300  0.040400  0.492600  1.0
  C  C796  1  0.214700  0.959600  0.507400  1.0
  C  C797  1  0.729800  0.009000  0.510890  1.0
  C  C798  1  0.270200  0.991000  0.489110  1.0
  C  C799  1  0.645700  0.970300  0.478400  1.0
  C  C800  1  0.354300  0.029700  0.521600  1.0
  C  C801  1  0.438700  0.950800  0.368900  1.0
  C  C802  1  0.561300  0.049200  0.631100  1.0
  C  C803  1  0.438300  0.996100  0.406800  1.0
  C  C804  1  0.561700  0.003900  0.593200  1.0
  C  C805  1  0.382300  0.024100  0.394800  1.0
  C  C806  1  0.617700  0.975900  0.605200  1.0
  C  C807  1  0.326600  0.006700  0.345000  1.0
  C  C808  1  0.673400  0.993300  0.655000  1.0
  C  C809  1  0.327000  0.961300  0.307100  1.0
  C  C810  1  0.673000  0.038700  0.692900  1.0
  C  C811  1  0.383000  0.933400  0.319100  1.0
  C  C812  1  0.617000  0.066600  0.680900  1.0
  C  C813  1  0.567900  0.707400  0.947900  1.0
  C  C814  1  0.432100  0.292600  0.052100  1.0
  C  C815  1  0.538600  0.671200  0.897300  1.0
  C  C816  1  0.461400  0.328800  0.102700  1.0
  C  C817  1  0.598300  0.672700  0.867300  1.0
  C  C818  1  0.401700  0.327300  0.132700  1.0
  C  C819  1  0.687200  0.710400  0.887800  1.0
  C  C820  1  0.312800  0.289600  0.112200  1.0
  C  C821  1  0.716400  0.746600  0.938400  1.0
  C  C822  1  0.283600  0.253400  0.061600  1.0
  C  C823  1  0.656700  0.745100  0.968400  1.0
  C  C824  1  0.343300  0.254900  0.031600  1.0
  C  C825  1  0.522400  0.752100  0.038200  1.0
  C  C826  1  0.477600  0.247900  0.961800  1.0
  C  C827  1  0.512100  0.800100  0.041400  1.0
  C  C828  1  0.487900  0.199900  0.958600  1.0
  C  C829  1  0.540500  0.842500  0.088600  1.0
  C  C830  1  0.459500  0.157500  0.911400  1.0
  C  C831  1  0.579200  0.836800  0.132600  1.0
  C  C832  1  0.420800  0.163200  0.867400  1.0
  C  C833  1  0.589500  0.788900  0.129400  1.0
  C  C834  1  0.410500  0.211100  0.870600  1.0
  C  C835  1  0.561100  0.746500  0.082200  1.0
  C  C836  1  0.438900  0.253500  0.917800  1.0
  C  C837  1  0.480600  0.640200  0.989100  1.0
  C  C838  1  0.519400  0.359800  0.010900  1.0
  C  C839  1  0.563900  0.629800  0.995600  1.0
  C  C840  1  0.436100  0.370200  0.004400  1.0
  C  C841  1  0.570600  0.588400  0.009400  1.0
  C  C842  1  0.429400  0.411600  0.990600  1.0
  C  C843  1  0.494200  0.557400  0.016800  1.0
  C  C844  1  0.505800  0.442600  0.983200  1.0
  C  C845  1  0.410900  0.567800  0.010300  1.0
  C  C846  1  0.589100  0.432200  0.989700  1.0
  C  C847  1  0.404200  0.609200  0.996500  1.0
  C  C848  1  0.595800  0.390800  0.003500  1.0
  C  C849  1  0.882400  0.747800  0.891300  1.0
  C  C850  1  0.117600  0.252200  0.108700  1.0
  C  C851  1  0.952900  0.773400  0.875900  1.0
  C  C852  1  0.047100  0.226600  0.124100  1.0
  C  C853  1  0.045300  0.791000  0.905200  1.0
  C  C854  1  0.954700  0.209000  0.094800  1.0
  C  C855  1  0.067200  0.783000  0.949800  1.0
  C  C856  1  0.932800  0.217000  0.050200  1.0
  C  C857  1  0.996700  0.757400  0.965200  1.0
  C  C858  1  0.003300  0.242600  0.034800  1.0
  C  C859  1  0.904300  0.739800  0.935900  1.0
  C  C860  1  0.095700  0.260200  0.064100  1.0
  C  C861  1  0.753300  0.653000  0.804900  1.0
  C  C862  1  0.246700  0.347000  0.195100  1.0
  C  C863  1  0.740600  0.639300  0.753000  1.0
  C  C864  1  0.259400  0.360700  0.247000  1.0
  C  C865  1  0.733600  0.588600  0.721600  1.0
  C  C866  1  0.266400  0.411400  0.278400  1.0
  C  C867  1  0.739400  0.551500  0.742100  1.0
  C  C868  1  0.260600  0.448500  0.257900  1.0
  C  C869  1  0.752000  0.565200  0.794000  1.0
  C  C870  1  0.248000  0.434800  0.206000  1.0
  C  C871  1  0.759000  0.616000  0.825400  1.0
  C  C872  1  0.241000  0.384000  0.174600  1.0
  C  C873  1  0.523100  0.696000  0.711500  1.0
  C  C874  1  0.476900  0.304000  0.288500  1.0
  C  C875  1  0.475400  0.695900  0.666100  1.0
  C  C876  1  0.524600  0.304100  0.333900  1.0
  C  C877  1  0.429000  0.648300  0.623700  1.0
  C  C878  1  0.571000  0.351700  0.376300  1.0
  C  C879  1  0.430200  0.600800  0.626800  1.0
  C  C880  1  0.569800  0.399200  0.373200  1.0
  C  C881  1  0.477800  0.600900  0.672200  1.0
  C  C882  1  0.522200  0.399100  0.327800  1.0
  C  C883  1  0.524300  0.648500  0.714600  1.0
  C  C884  1  0.475700  0.351500  0.285400  1.0
  C  C885  1  0.572100  0.809200  0.749100  1.0
  C  C886  1  0.427900  0.190800  0.250900  1.0
  C  C887  1  0.496300  0.826700  0.749700  1.0
  C  C888  1  0.503700  0.173300  0.250300  1.0
  C  C889  1  0.489100  0.864800  0.730700  1.0
  C  C890  1  0.510900  0.135200  0.269300  1.0
  C  C891  1  0.557700  0.885300  0.711300  1.0
  C  C892  1  0.442300  0.114700  0.288700  1.0
  C  C893  1  0.633500  0.867800  0.710800  1.0
  C  C894  1  0.366500  0.132200  0.289200  1.0
  C  C895  1  0.640800  0.829700  0.729700  1.0
  C  C896  1  0.359200  0.170300  0.270300  1.0
  C  C897  1  0.183400  0.699700  0.866800  1.0
  C  C898  1  0.816600  0.300300  0.133200  1.0
  C  C899  1  0.117700  0.671200  0.882800  1.0
  C  C900  1  0.882300  0.328800  0.117200  1.0
  C  C901  1  0.024800  0.648300  0.853200  1.0
  C  C902  1  0.975200  0.351700  0.146800  1.0
  C  C903  1  0.997700  0.653800  0.807600  1.0
  C  C904  1  0.002300  0.346200  0.192400  1.0
  C  C905  1  0.063400  0.682300  0.791600  1.0
  C  C906  1  0.936600  0.317700  0.208400  1.0
  C  C907  1  0.156300  0.705300  0.821200  1.0
  C  C908  1  0.843700  0.294700  0.178800  1.0
  C  C909  1  0.498000  0.743600  0.808400  1.0
  C  C910  1  0.502000  0.256400  0.191600  1.0
  C  C911  1  0.417000  0.699900  0.790000  1.0
  C  C912  1  0.583000  0.300100  0.210000  1.0
  C  C913  1  0.356600  0.696500  0.819400  1.0
  C  C914  1  0.643400  0.303500  0.180600  1.0
  C  C915  1  0.377400  0.736700  0.867300  1.0
  C  C916  1  0.622600  0.263300  0.132700  1.0
  C  C917  1  0.458500  0.780400  0.885700  1.0
  C  C918  1  0.541500  0.219600  0.114300  1.0
  C  C919  1  0.518800  0.783800  0.856200  1.0
  C  C920  1  0.481200  0.216200  0.143800  1.0
  C  C921  1  0.319300  0.797200  0.948400  1.0
  C  C922  1  0.680700  0.202800  0.051600  1.0
  C  C923  1  0.343800  0.814400  0.001200  1.0
  C  C924  1  0.656200  0.185600  0.998800  1.0
  C  C925  1  0.346800  0.864700  0.031400  1.0
  C  C926  1  0.653200  0.135300  0.968600  1.0
  C  C927  1  0.325200  0.897800  0.008800  1.0
  C  C928  1  0.674800  0.102200  0.991200  1.0
  C  C929  1  0.300700  0.880600  0.956000  1.0
  C  C930  1  0.699300  0.119400  0.044000  1.0
  C  C931  1  0.297700  0.830300  0.925800  1.0
  C  C932  1  0.702300  0.169700  0.074200  1.0
  C  C933  1  0.411800  0.475100  0.529600  1.0
  C  C934  1  0.588200  0.524900  0.470400  1.0
  C  C935  1  0.496500  0.491100  0.521000  1.0
  C  C936  1  0.503500  0.508900  0.479000  1.0
  C  C937  1  0.569200  0.486500  0.551800  1.0
  C  C938  1  0.430800  0.513500  0.448200  1.0
  C  C939  1  0.558200  0.467800  0.588600  1.0
  C  C940  1  0.441800  0.532200  0.411400  1.0
  C  C941  1  0.470000  0.454600  0.594600  1.0
  C  C942  1  0.530000  0.545400  0.405400  1.0
  S  S943  1  0.899400  0.473000  0.856300  1
  S  S944  1  0.100600  0.527000  0.143700  1
  S  S945  1  0.825900  0.500500  0.931200  1
  S  S946  1  0.174100  0.499500  0.068800  1
  S  S947  1  0.976400  0.123840  0.646350  1
  S  S948  1  0.023600  0.876160  0.353650  1
  S  S949  1  0.948400  0.018700  0.632400  1
  S  S950  1  0.051600  0.981300  0.367600  1
  S  S951  1  0.913200  0.479400  0.841500  1
  S  S952  1  0.086800  0.520600  0.158500  1
  S  S953  1  0.830400  0.529300  0.919500  1
  S  S954  1  0.169600  0.470700  0.080500  1
  N  N955  1  0.812300  0.491300  0.871800  1
  N  N956  1  0.187700  0.508700  0.128200  1
  N  N957  1  0.919500  0.062500  0.616000  1
  N  N958  1  0.080500  0.937500  0.384000  1
  N  N959  1  0.595500  0.404300  0.672600  1
  N  N960  1  0.404500  0.595700  0.327400  1
  N  N961  1  0.259300  0.659500  0.992700  1
  N  N962  1  0.740700  0.340500  0.007300  1
  N  N963  1  0.263600  0.597500  0.904000  1
  N  N964  1  0.736400  0.402500  0.096000  1
  N  N965  1  0.915600  0.513300  0.900400  1
  N  N966  1  0.084400  0.486700  0.099600  1
  N  N967  1  0.395700  0.104400  0.716300  1.0
  N  N968  1  0.604300  0.895600  0.283700  1.0
  N  N969  1  0.352700  0.166400  0.668600  1.0
  N  N970  1  0.647300  0.833600  0.331400  1.0
  N  N971  1  0.182100  0.155600  0.146200  1.0
  N  N972  1  0.817900  0.844400  0.853800  1.0
  N  N973  1  0.178300  0.218800  0.237500  1.0
  N  N974  1  0.821700  0.781200  0.762500  1.0
  N  N975  1  0.074200  0.770000  0.474000  1.0
  N  N976  1  0.925800  0.230000  0.526000  1.0
  N  N977  1  0.094700  0.684700  0.489600  1.0
  N  N978  1  0.905300  0.315300  0.510400  1.0
  N  N979  1  0.245900  0.348700  0.527700  1.0
  N  N980  1  0.754100  0.651300  0.472300  1.0
  N  N981  1  0.196500  0.429800  0.500900  1.0
  N  N982  1  0.803500  0.570200  0.499100  1.0
  N  N983  1  0.224600  0.492800  0.607300  1.0
  N  N984  1  0.775400  0.507200  0.392700  1.0
  N  N985  1  0.279500  0.414200  0.634800  1.0
  N  N986  1  0.720500  0.585800  0.365200  1.0
  N  N987  1  0.398700  0.458400  0.566400  1.0
  N  N988  1  0.601300  0.541600  0.433600  1.0
  N  N989  1  0.246400  0.678900  0.983100  1.0
  N  N990  1  0.753600  0.321100  0.016900  1.0
  N  N991  1  0.240800  0.614300  0.890400  1.0
  N  N992  1  0.759200  0.385700  0.109600  1.0
  O  O993  1  0.864000  0.465100  0.946500  1
  O  O994  1  0.136000  0.534900  0.053500  1
  O  O995  1  0.733800  0.493300  0.939300  1
  O  O996  1  0.266200  0.506700  0.060700  1
  O  O997  1  0.854300  0.416300  0.835500  1
  O  O998  1  0.145700  0.583700  0.164500  1
  O  O999  1  0.986900  0.501800  0.892500  1
  O  O1000  1  0.013100  0.498200  0.107500  1
  O  O1001  1  0.069000  0.138000  0.679400  1
  O  O1002  1  0.931000  0.862000  0.320600  1
  O  O1003  1  0.968700  0.149500  0.612300  1
  O  O1004  1  0.031300  0.850500  0.387700  1
  O  O1005  1  0.008600  0.034300  0.681900  1
  O  O1006  1  0.991400  0.965700  0.318100  1
  O  O1007  1  0.864300  0.974000  0.612800  1
  O  O1008  1  0.135700  0.026000  0.387200  1
  O  O1009  1  0.683900  0.865200  0.591500  1
  O  O1010  1  0.316100  0.134800  0.408500  1
  O  O1011  1  0.825800  0.865400  0.590200  1
  O  O1012  1  0.174200  0.134600  0.409800  1
  O  O1013  1  0.998400  0.468700  0.843500  1
  O  O1014  1  0.001600  0.531300  0.156500  1
  O  O1015  1  0.822700  0.440100  0.812400  1
  O  O1016  1  0.177300  0.559900  0.187600  1
  O  O1017  1  0.835000  0.582400  0.931300  1
  O  O1018  1  0.165000  0.417600  0.068700  1
  O  O1019  1  0.742100  0.487800  0.888900  1
  O  O1020  1  0.257900  0.512200  0.111100  1
  F  F1021  1  0.954500  0.457800  0.778800  1
  F  F1022  1  0.045500  0.542200  0.221200  1
  F  F1023  1  0.917000  0.591900  0.943400  1
  F  F1024  1  0.083000  0.408100  0.056600  1
  F  F1025  1  0.818800  0.465900  0.771000  1
  F  F1026  1  0.181200  0.534100  0.229000  1
  F  F1027  1  0.934000  0.569100  0.013700  1
  F  F1028  1  0.066000  0.430900  0.986300  1
  F  F1029  1  0.943000  0.535400  0.814500  1
  F  F1030  1  0.057000  0.464600  0.185500  1
  F  F1031  1  0.824000  0.593900  0.986200  1
  F  F1032  1  0.176000  0.406100  0.013800  1
  F  F1033  1  0.826300  0.131300  0.659900  1
  F  F1034  1  0.173700  0.868700  0.340100  1
  F  F1035  1  0.907400  0.120000  0.718700  1
  F  F1036  1  0.092600  0.880000  0.281300  1
  F  F1037  1  0.945400  0.196700  0.717100  1
  F  F1038  1  0.054600  0.803300  0.282900  1
  F  F1039  1  0.038200  0.957800  0.596500  1
  F  F1040  1  0.961800  0.042200  0.403500  1
  F  F1041  1  0.960100  0.974700  0.541700  1
  F  F1042  1  0.039900  0.025300  0.458300  1
  F  F1043  1  0.086300  0.035900  0.595500  1
  F  F1044  1  0.913700  0.964100  0.404500  1
  F  F1045  1  0.987000  0.569100  0.838200  1
  F  F1046  1  0.013000  0.430900  0.161800  1
  F  F1047  1  0.836000  0.533900  0.806900  1
  F  F1048  1  0.164000  0.466100  0.193100  1
  F  F1049  1  0.923000  0.501600  0.764500  1
  F  F1050  1  0.077000  0.498400  0.235500  1
  F  F1051  1  0.794000  0.471600  0.973000  1
  F  F1052  1  0.206000  0.528400  0.027000  1
  F  F1053  1  0.927000  0.526700  0.000700  1
  F  F1054  1  0.073000  0.473300  0.999300  1
  F  F1055  1  0.806000  0.551800  0.010300  1
  F  F1056  1  0.194000  0.448200  0.989700  1
