
#######################################################################
#
#                 Cambridge Crystallographic Data Centre
#                                CCDC 
#
#######################################################################
#
# If this CIF has been generated from an entry in the Cambridge 
# Structural Database, then it will include bibliographic, chemical, 
# crystal, experimental, refinement or atomic coordinate data resulting 
# from the CCDC's data processing and validation procedures.
#
#######################################################################

data_TUTNIG
_chemical_formula_moiety         
'C74 H48 Ag2 N4 O8 2+,4(C1 H1 Cl3),2(C1 F3 O3 S1 1-)'
_chemical_name_systematic        
'bis(\m~2~-9H-Fluorene-9,9-diyldi-4,1-phenylene dinicotinate)-di-silver(i) bis(trifluoromethanesulfonate) chloroform solvate'
_symmetry_cell_setting           triclinic
_symmetry_space_group_name_H-M   'P -1'
_symmetry_Int_Tables_number      2
_space_group_name_Hall           '-P 1'
loop_
_symmetry_equiv_pos_site_id
_symmetry_equiv_pos_as_xyz
1 x,y,z
2 -x,-y,-z
_cell_length_a                   11.6808(11)
_cell_length_b                   13.9345(14)
_cell_length_c                   14.7105(14)
_cell_angle_alpha                82.975(2)
_cell_angle_beta                 68.995(2)
_cell_angle_gamma                69.803(2)
_cell_volume                     2097.82
_exptl_crystal_colour            colorless
_exptl_crystal_description       plate
_cell_formula_units_Z            1
loop_
_atom_site_label
_atom_site_type_symbol
_atom_site_fract_x
_atom_site_fract_y
_atom_site_fract_z
Ag1 Ag 0.87249(5) -0.02137(4) 0.55448(4)
O1 O 0.5050(4) 0.4222(4) 0.4256(3)
O2 O 0.7077(4) 0.3306(3) 0.3372(3)
O3 O 0.8690(4) 0.3851(3) -0.3504(3)
O4 O 0.8487(5) 0.5230(4) -0.4481(3)
N1 N 0.7518(5) 0.1376(4) 0.5659(4)
N2 N 0.9593(5) -0.1834(4) 0.5754(4)
C1 C 0.7241(6) 0.1945(5) 0.4916(4)
H1 H 0.7687 0.1668 0.4277
C2 C 0.6339(6) 0.2913(5) 0.5033(4)
C3 C 0.5687(7) 0.3328(5) 0.5963(4)
H2 H 0.5050 0.3988 0.6067
C4 C 0.5989(7) 0.2759(5) 0.6730(5)
H3 H 0.5565 0.3023 0.7375
C5 C 0.6907(7) 0.1809(5) 0.6549(5)
H4 H 0.7126 0.1434 0.7082
C6 C 0.6036(6) 0.3552(5) 0.4203(4)
C7 C 0.7018(6) 0.3972(5) 0.2576(4)
C8 C 0.7393(6) 0.4814(5) 0.2503(4)
H5 H 0.7631 0.4971 0.3007
C9 C 0.7423(6) 0.5440(5) 0.1688(4)
H6 H 0.7680 0.6027 0.1638
C10 C 0.7082(5) 0.5218(5) 0.0944(4)
C11 C 0.6708(6) 0.4360(5) 0.1030(4)
H7 H 0.6481 0.4195 0.0524
C12 C 0.6661(6) 0.3726(5) 0.1863(4)
H8 H 0.6389 0.3145 0.1928
C13 C 0.7000(5) 0.5963(5) 0.0076(4)
C14 C 0.5618(6) 0.6754(5) 0.0394(4)
C15 C 0.4445(6) 0.6597(5) 0.0665(4)
H9 H 0.4407 0.5927 0.0667
C16 C 0.3308(7) 0.7433(6) 0.0939(4)
H10 H 0.2489 0.7335 0.1125
C17 C 0.3377(7) 0.8401(6) 0.0937(5)
H11 H 0.2598 0.8967 0.1103
C18 C 0.4541(7) 0.8569(5) 0.0700(5)
H12 H 0.4573 0.9236 0.0729
C19 C 0.5679(6) 0.7729(5) 0.0416(4)
C20 C 0.7030(6) 0.7679(5) 0.0121(4)
C21 C 0.7578(8) 0.8449(6) 0.0027(5)
H13 H 0.7044 0.9141 0.0164
C22 C 0.8900(8) 0.8185(6) -0.0266(5)
H14 H 0.9281 0.8701 -0.0319
C23 C 0.9689(7) 0.7187(6) -0.0485(5)
H15 H 1.0605 0.7022 -0.0699
C24 C 0.9151(6) 0.6429(5) -0.0393(4)
H16 H 0.9694 0.5741 -0.0541
C25 C 0.7811(6) 0.6671(5) -0.0083(4)
C26 C 0.7381(6) 0.5408(4) -0.0873(4)
C27 C 0.8514(6) 0.4550(5) -0.1143(4)
H17 H 0.8992 0.4301 -0.0711
C28 C 0.8939(6) 0.4067(5) -0.2026(4)
H18 H 0.9708 0.3492 -0.2206
C29 C 0.8229(6) 0.4433(5) -0.2643(4)
C30 C 0.7106(6) 0.5246(5) -0.2399(4)
H19 H 0.6612 0.5465 -0.2822
C31 C 0.6697(6) 0.5747(5) -0.1518(4)
H20 H 0.5938 0.6330 -0.1354
C32 C 0.8813(6) 0.4331(5) -0.4360(4)
C33 C 0.9435(6) 0.3570(5) -0.5174(4)
C34 C 1.0137(6) -0.2524(4) 0.5034(4)
H21 H 1.0235 -0.2280 0.4387
C35 C 0.9444(6) -0.2198(5) 0.6672(4)
H22 H 0.9082 -0.1720 0.7191
C36 C 0.9789(6) -0.3220(5) 0.6892(4)
H23 H 0.9643 -0.3443 0.7548
C37 C 0.9645(6) 0.3924(5) -0.6135(4)
H24 H 0.9402 0.4637 -0.6267
Ag1A Ag 1.12751(5) 0.02137(4) -0.55448(4)
O1A O 1.4950(4) -0.4222(4) -0.4256(3)
O2A O 1.2923(4) -0.3306(3) -0.3372(3)
O3A O 1.1310(4) -0.3851(3) 0.3504(3)
O4A O 1.1513(5) -0.5230(4) 0.4481(3)
N1A N 1.2482(5) -0.1376(4) -0.5659(4)
N2A N 1.0407(5) 0.1834(4) -0.5754(4)
C1A C 1.2759(6) -0.1945(5) -0.4916(4)
H1A H 1.2313 -0.1668 -0.4277
C2A C 1.3661(6) -0.2913(5) -0.5033(4)
C3A C 1.4313(7) -0.3328(5) -0.5963(4)
H2A H 1.4950 -0.3988 -0.6067
C4A C 1.4011(7) -0.2759(5) -0.6730(5)
H3A H 1.4435 -0.3023 -0.7375
C5A C 1.3093(7) -0.1809(5) -0.6549(5)
H4A H 1.2874 -0.1434 -0.7082
C6A C 1.3964(6) -0.3552(5) -0.4203(4)
C7A C 1.2982(6) -0.3972(5) -0.2576(4)
C8A C 1.2607(6) -0.4814(5) -0.2503(4)
H5A H 1.2369 -0.4971 -0.3007
C9A C 1.2577(6) -0.5440(5) -0.1688(4)
H6A H 1.2320 -0.6027 -0.1638
C10A C 1.2918(5) -0.5218(5) -0.0944(4)
C11A C 1.3292(6) -0.4360(5) -0.1030(4)
H7A H 1.3519 -0.4195 -0.0524
C12A C 1.3339(6) -0.3726(5) -0.1863(4)
H8A H 1.3611 -0.3145 -0.1928
C13A C 1.3000(5) -0.5963(5) -0.0076(4)
C14A C 1.4382(6) -0.6754(5) -0.0394(4)
C15A C 1.5555(6) -0.6597(5) -0.0665(4)
H9A H 1.5593 -0.5927 -0.0667
C16A C 1.6692(7) -0.7433(6) -0.0939(4)
H10A H 1.7511 -0.7335 -0.1125
C17A C 1.6623(7) -0.8401(6) -0.0937(5)
H11A H 1.7402 -0.8967 -0.1103
C18A C 1.5459(7) -0.8569(5) -0.0700(5)
H12A H 1.5427 -0.9236 -0.0729
C19A C 1.4321(6) -0.7729(5) -0.0416(4)
C20A C 1.2970(6) -0.7679(5) -0.0121(4)
C21A C 1.2422(8) -0.8449(6) -0.0027(5)
H13A H 1.2956 -0.9141 -0.0164
C22A C 1.1100(8) -0.8185(6) 0.0266(5)
H14A H 1.0719 -0.8701 0.0319
C23A C 1.0311(7) -0.7187(6) 0.0485(5)
H15A H 0.9395 -0.7022 0.0699
C24A C 1.0849(6) -0.6429(5) 0.0393(4)
H16A H 1.0306 -0.5741 0.0541
C25A C 1.2189(6) -0.6671(5) 0.0083(4)
C26A C 1.2619(6) -0.5408(4) 0.0873(4)
C27A C 1.1486(6) -0.4550(5) 0.1143(4)
H17A H 1.1008 -0.4301 0.0711
C28A C 1.1061(6) -0.4067(5) 0.2026(4)
H18A H 1.0292 -0.3492 0.2206
C29A C 1.1771(6) -0.4433(5) 0.2643(4)
C30A C 1.2894(6) -0.5246(5) 0.2399(4)
H19A H 1.3388 -0.5465 0.2822
C31A C 1.3303(6) -0.5747(5) 0.1518(4)
H20A H 1.4062 -0.6330 0.1354
C32A C 1.1187(6) -0.4331(5) 0.4360(4)
C33A C 1.0565(6) -0.3570(5) 0.5174(4)
C34A C 0.9863(6) 0.2524(4) -0.5034(4)
H21A H 0.9765 0.2280 -0.4387
C35A C 1.0556(6) 0.2198(5) -0.6672(4)
H22A H 1.0918 0.1720 -0.7191
C36A C 1.0211(6) 0.3220(5) -0.6892(4)
H23A H 1.0357 0.3443 -0.7548
C37A C 1.0355(6) -0.3924(5) 0.6135(4)
H24A H 1.0598 -0.4637 0.6267
Cl1 Cl 0.6223(3) -0.0488(2) 0.7472(3)
Cl2 Cl 0.6066(4) -0.2159(2) 0.66274(19)
Cl3 Cl 0.4312(2) -0.14128(19) 0.85272(16)
C38 C 0.5153(11) -0.1063(7) 0.7373(7)
H25 H 0.4529 -0.0571 0.7077
Cl4 Cl 0.7565(2) -0.30845(15) 0.41880(15)
Cl5 Cl 0.5705(3) -0.10643(18) 0.42822(17)
Cl6 Cl 0.7172(3) -0.20548(18) 0.24355(16)
C39 C 0.7205(8) -0.1908(5) 0.3587(5)
H26 H 0.7893 -0.1601 0.3506
S1 S 0.97893(19) -0.04744(14) 0.28768(12)
F1 F 0.9876(7) -0.0118(5) 0.1086(3)
F2 F 0.8670(5) 0.1166(4) 0.2067(4)
F3 F 0.8043(7) -0.0132(5) 0.2092(6)
O5 O 0.8728(6) -0.0186(5) 0.3764(4)
O6 O 1.0798(6) -0.0064(4) 0.2705(5)
O7 O 1.0201(5) -0.1537(4) 0.2675(4)
C40 C 0.9038(9) 0.0163(7) 0.1996(7)
loop_
_geom_bond_atom_site_label_1
_geom_bond_atom_site_label_2
_geom_bond_site_symmetry_1
_geom_bond_site_symmetry_2
Ag1 N1 1_555 1_555
Cl1 C38 1_555 1_555
Cl2 C38 1_555 1_555
Cl3 C38 1_555 1_555
Cl4 C39 1_555 1_555
Cl5 C39 1_555 1_555
Cl6 C39 1_555 1_555
S1 O5 1_555 1_555
F1 C40 1_555 1_555
F2 C40 1_555 1_555
F3 C40 1_555 1_555
O1 C6 1_555 1_555
O2 C6 1_555 1_555
O3 C29 1_555 1_555
O4 C32 1_555 1_555
O6 S1 1_555 1_555
O7 S1 1_555 1_555
N1 C1 1_555 1_555
N2 Ag1 1_555 1_555
C1 H1 1_555 1_555
C2 C1 1_555 1_555
C3 C2 1_555 1_555
H2 C3 1_555 1_555
C4 C3 1_555 1_555
H3 C4 1_555 1_555
C5 N1 1_555 1_555
H4 C5 1_555 1_555
C6 C2 1_555 1_555
C7 O2 1_555 1_555
C8 C7 1_555 1_555
H5 C8 1_555 1_555
C9 C8 1_555 1_555
H6 C9 1_555 1_555
C10 C9 1_555 1_555
C11 C10 1_555 1_555
H7 C11 1_555 1_555
C12 C7 1_555 1_555
H8 C12 1_555 1_555
C13 C10 1_555 1_555
C14 C13 1_555 1_555
C15 C14 1_555 1_555
H9 C15 1_555 1_555
C16 C15 1_555 1_555
H10 C16 1_555 1_555
C17 C16 1_555 1_555
H11 C17 1_555 1_555
C18 C17 1_555 1_555
H12 C18 1_555 1_555
C19 C14 1_555 1_555
C20 C19 1_555 1_555
C21 C20 1_555 1_555
H13 C21 1_555 1_555
C22 C21 1_555 1_555
H14 C22 1_555 1_555
C23 C22 1_555 1_555
H15 C23 1_555 1_555
C24 C23 1_555 1_555
H16 C24 1_555 1_555
C25 C13 1_555 1_555
C26 C13 1_555 1_555
C27 C26 1_555 1_555
H17 C27 1_555 1_555
C28 C27 1_555 1_555
H18 C28 1_555 1_555
C29 C28 1_555 1_555
C30 C29 1_555 1_555
H19 C30 1_555 1_555
C31 C26 1_555 1_555
H20 C31 1_555 1_555
C32 O3 1_555 1_555
C33 C32 1_555 1_555
C34 N2 1_555 1_555
H21 C34 1_555 1_555
C35 N2 1_555 1_555
H22 C35 1_555 1_555
C36 C35 1_555 1_555
H23 C36 1_555 1_555
C37 C33 1_555 1_555
H24 C37 1_555 1_555
C38 H25 1_555 1_555
C39 H26 1_555 1_555
C40 S1 1_555 1_555
Ag1A N1A 1_555 1_555
O1A C6A 1_555 1_555
O2A C6A 1_555 1_555
O3A C29A 1_555 1_555
O4A C32A 1_555 1_555
N1A C1A 1_555 1_555
N2A Ag1A 1_555 1_555
C1A H1A 1_555 1_555
C2A C1A 1_555 1_555
C3A C2A 1_555 1_555
H2A C3A 1_555 1_555
C4A C3A 1_555 1_555
H3A C4A 1_555 1_555
C5A N1A 1_555 1_555
H4A C5A 1_555 1_555
C6A C2A 1_555 1_555
C7A O2A 1_555 1_555
C8A C7A 1_555 1_555
H5A C8A 1_555 1_555
C9A C8A 1_555 1_555
H6A C9A 1_555 1_555
C10A C9A 1_555 1_555
C11A C10A 1_555 1_555
H7A C11A 1_555 1_555
C12A C7A 1_555 1_555
H8A C12A 1_555 1_555
C13A C10A 1_555 1_555
C14A C13A 1_555 1_555
C15A C14A 1_555 1_555
H9A C15A 1_555 1_555
C16A C15A 1_555 1_555
H10A C16A 1_555 1_555
C17A C16A 1_555 1_555
H11A C17A 1_555 1_555
C18A C17A 1_555 1_555
H12A C18A 1_555 1_555
C19A C14A 1_555 1_555
C20A C19A 1_555 1_555
C21A C20A 1_555 1_555
H13A C21A 1_555 1_555
C22A C21A 1_555 1_555
H14A C22A 1_555 1_555
C23A C22A 1_555 1_555
H15A C23A 1_555 1_555
C24A C23A 1_555 1_555
H16A C24A 1_555 1_555
C25A C13A 1_555 1_555
C26A C13A 1_555 1_555
C27A C26A 1_555 1_555
H17A C27A 1_555 1_555
C28A C27A 1_555 1_555
H18A C28A 1_555 1_555
C29A C28A 1_555 1_555
C30A C29A 1_555 1_555
H19A C30A 1_555 1_555
C31A C26A 1_555 1_555
H20A C31A 1_555 1_555
C32A O3A 1_555 1_555
C33A C34 1_555 1_555
C34A C33 1_555 1_555
H21A C34A 1_555 1_555
C35A N2A 1_555 1_555
H22A C35A 1_555 1_555
C36A C37 1_555 1_555
H23A C36A 1_555 1_555
C37A C36 1_555 1_555
H24A C37A 1_555 1_555
C4 C5 1_555 1_555
C11 C12 1_555 1_555
C18 C19 1_555 1_555
C20 C25 1_555 1_555
C24 C25 1_555 1_555
C30 C31 1_555 1_555
N2A C34A 1_555 1_555
C4A C5A 1_555 1_555
C11A C12A 1_555 1_555
C18A C19A 1_555 1_555
C20A C25A 1_555 1_555
C24A C25A 1_555 1_555
C30A C31A 1_555 1_555
C32A C33A 1_555 1_555
C33A C37A 1_555 1_555
C35A C36A 1_555 1_555

#END
