
#######################################################################
#
#                 Cambridge Crystallographic Data Centre
#                                CCDC 
#
#######################################################################
#
# If this CIF has been generated from an entry in the Cambridge 
# Structural Database, then it will include bibliographic, chemical, 
# crystal, experimental, refinement or atomic coordinate data resulting 
# from the CCDC's data processing and validation procedures.
#
#######################################################################

data_TUWWUE
_chemical_formula_moiety         
'4(C21 H12 O6 6-),3(H1 O1 1-),5(Na1 1+),10(Cs1 1+),6(Mn1 2+),105(H2 O1)'
_chemical_name_systematic        
'tetrakis(cyclotricatechylene)-trihydroxo-hexa-manganese-deca-cesium-penta-sodium pentahectahydrate'
_symmetry_cell_setting           cubic
_symmetry_space_group_name_H-M   'F m -3 m'
_symmetry_Int_Tables_number      225
_space_group_name_Hall           '-F 4 2 3'
loop_
_symmetry_equiv_pos_site_id
_symmetry_equiv_pos_as_xyz
1 x,y,z
2 -x,-y,z
3 -x,y,-z
4 x,-y,-z
5 z,x,y
6 z,-x,-y
7 -z,-x,y
8 -z,x,-y
9 y,z,x
10 -y,z,-x
11 y,-z,-x
12 -y,-z,x
13 y,x,-z
14 -y,-x,-z
15 y,-x,z
16 -y,x,z
17 x,z,-y
18 -x,z,y
19 -x,-z,-y
20 x,-z,y
21 z,y,-x
22 z,-y,x
23 -z,y,x
24 -z,-y,-x
25 x,1/2+y,1/2+z
26 -x,1/2-y,1/2+z
27 -x,1/2+y,1/2-z
28 x,1/2-y,1/2-z
29 z,1/2+x,1/2+y
30 z,1/2-x,1/2-y
31 -z,1/2-x,1/2+y
32 -z,1/2+x,1/2-y
33 y,1/2+z,1/2+x
34 -y,1/2+z,1/2-x
35 y,1/2-z,1/2-x
36 -y,1/2-z,1/2+x
37 y,1/2+x,1/2-z
38 -y,1/2-x,1/2-z
39 y,1/2-x,1/2+z
40 -y,1/2+x,1/2+z
41 x,1/2+z,1/2-y
42 -x,1/2+z,1/2+y
43 -x,1/2-z,1/2-y
44 x,1/2-z,1/2+y
45 z,1/2+y,1/2-x
46 z,1/2-y,1/2+x
47 -z,1/2+y,1/2+x
48 -z,1/2-y,1/2-x
49 1/2+x,y,1/2+z
50 1/2-x,-y,1/2+z
51 1/2-x,y,1/2-z
52 1/2+x,-y,1/2-z
53 1/2+z,x,1/2+y
54 1/2+z,-x,1/2-y
55 1/2-z,-x,1/2+y
56 1/2-z,x,1/2-y
57 1/2+y,z,1/2+x
58 1/2-y,z,1/2-x
59 1/2+y,-z,1/2-x
60 1/2-y,-z,1/2+x
61 1/2+y,x,1/2-z
62 1/2-y,-x,1/2-z
63 1/2+y,-x,1/2+z
64 1/2-y,x,1/2+z
65 1/2+x,z,1/2-y
66 1/2-x,z,1/2+y
67 1/2-x,-z,1/2-y
68 1/2+x,-z,1/2+y
69 1/2+z,y,1/2-x
70 1/2+z,-y,1/2+x
71 1/2-z,y,1/2+x
72 1/2-z,-y,1/2-x
73 1/2+x,1/2+y,z
74 1/2-x,1/2-y,z
75 1/2-x,1/2+y,-z
76 1/2+x,1/2-y,-z
77 1/2+z,1/2+x,y
78 1/2+z,1/2-x,-y
79 1/2-z,1/2-x,y
80 1/2-z,1/2+x,-y
81 1/2+y,1/2+z,x
82 1/2-y,1/2+z,-x
83 1/2+y,1/2-z,-x
84 1/2-y,1/2-z,x
85 1/2+y,1/2+x,-z
86 1/2-y,1/2-x,-z
87 1/2+y,1/2-x,z
88 1/2-y,1/2+x,z
89 1/2+x,1/2+z,-y
90 1/2-x,1/2+z,y
91 1/2-x,1/2-z,-y
92 1/2+x,1/2-z,y
93 1/2+z,1/2+y,-x
94 1/2+z,1/2-y,x
95 1/2-z,1/2+y,x
96 1/2-z,1/2-y,-x
97 -x,-y,-z
98 x,y,-z
99 x,-y,z
100 -x,y,z
101 -z,-x,-y
102 -z,x,y
103 z,x,-y
104 z,-x,y
105 -y,-z,-x
106 y,-z,x
107 -y,z,x
108 y,z,-x
109 -y,-x,z
110 y,x,z
111 -y,x,-z
112 y,-x,-z
113 -x,-z,y
114 x,-z,-y
115 x,z,y
116 -x,z,-y
117 -z,-y,x
118 -z,y,-x
119 z,-y,-x
120 z,y,x
121 -x,1/2-y,1/2-z
122 x,1/2+y,1/2-z
123 x,1/2-y,1/2+z
124 -x,1/2+y,1/2+z
125 -z,1/2-x,1/2-y
126 -z,1/2+x,1/2+y
127 z,1/2+x,1/2-y
128 z,1/2-x,1/2+y
129 -y,1/2-z,1/2-x
130 y,1/2-z,1/2+x
131 -y,1/2+z,1/2+x
132 y,1/2+z,1/2-x
133 -y,1/2-x,1/2+z
134 y,1/2+x,1/2+z
135 -y,1/2+x,1/2-z
136 y,1/2-x,1/2-z
137 -x,1/2-z,1/2+y
138 x,1/2-z,1/2-y
139 x,1/2+z,1/2+y
140 -x,1/2+z,1/2-y
141 -z,1/2-y,1/2+x
142 -z,1/2+y,1/2-x
143 z,1/2-y,1/2-x
144 z,1/2+y,1/2+x
145 1/2-x,-y,1/2-z
146 1/2+x,y,1/2-z
147 1/2+x,-y,1/2+z
148 1/2-x,y,1/2+z
149 1/2-z,-x,1/2-y
150 1/2-z,x,1/2+y
151 1/2+z,x,1/2-y
152 1/2+z,-x,1/2+y
153 1/2-y,-z,1/2-x
154 1/2+y,-z,1/2+x
155 1/2-y,z,1/2+x
156 1/2+y,z,1/2-x
157 1/2-y,-x,1/2+z
158 1/2+y,x,1/2+z
159 1/2-y,x,1/2-z
160 1/2+y,-x,1/2-z
161 1/2-x,-z,1/2+y
162 1/2+x,-z,1/2-y
163 1/2+x,z,1/2+y
164 1/2-x,z,1/2-y
165 1/2-z,-y,1/2+x
166 1/2-z,y,1/2-x
167 1/2+z,-y,1/2-x
168 1/2+z,y,1/2+x
169 1/2-x,1/2-y,-z
170 1/2+x,1/2+y,-z
171 1/2+x,1/2-y,z
172 1/2-x,1/2+y,z
173 1/2-z,1/2-x,-y
174 1/2-z,1/2+x,y
175 1/2+z,1/2+x,-y
176 1/2+z,1/2-x,y
177 1/2-y,1/2-z,-x
178 1/2+y,1/2-z,x
179 1/2-y,1/2+z,x
180 1/2+y,1/2+z,-x
181 1/2-y,1/2-x,z
182 1/2+y,1/2+x,z
183 1/2-y,1/2+x,-z
184 1/2+y,1/2-x,-z
185 1/2-x,1/2-z,y
186 1/2+x,1/2-z,-y
187 1/2+x,1/2+z,y
188 1/2-x,1/2+z,-y
189 1/2-z,1/2-y,x
190 1/2-z,1/2+y,-x
191 1/2+z,1/2-y,-x
192 1/2+z,1/2+y,x
_cell_length_a                   36.5356(8)
_cell_length_b                   36.5356(8)
_cell_length_c                   36.5356(8)
_cell_angle_alpha                90
_cell_angle_beta                 90
_cell_angle_gamma                90
_cell_volume                     48769.5
_exptl_crystal_colour            colorless
_exptl_crystal_description       cube
_cell_formula_units_Z            8
loop_
_atom_site_label
_atom_site_type_symbol
_atom_site_fract_x
_atom_site_fract_y
_atom_site_fract_z
O2 O 0.2544(5) 0.1586(5) 0.0000
O3 O 0.2404(12) 0.0891(12) 0.0000
O4 O 0.1741(12) 0.0543(11) 0.0000
O5 O 0.2656(5) 0.1851(5) 0.1477(5)
O6 O 0.2886(6) 0.1621(6) 0.1123(6)
O7 O 0.2957(17) 0.1455(17) 0.0577(17)
O8 O 0.2661(9) 0.0571(6) 0.0571(6)
Na2 Na 0.3127(9) 0.0961(7) 0.0961(7)
O5JD O 0.2656(5) 0.1477(5) 0.1851(5)
O6JD O 0.2886(6) 0.1123(6) 0.1621(6)
O7JD O 0.2957(17) 0.0577(17) 0.1455(17)
Cs1 Cs 0.17927(2) 0.17927(2) 0.17927(2)
Cs2 Cs 0.15586(5) 0.15586(5) 0.0000
C1 C 0.1643(2) 0.1377(2) 0.0895(2)
C2 C 0.1568(3) 0.0976(2) 0.0976(2)
H1 H 0.1315 0.0919 0.0919
H2 H 0.1724 0.0824 0.0824
C3 C 0.2109(2) 0.1834(2) 0.0762(2)
C4 C 0.2008(2) 0.1482(2) 0.0819(2)
H3 H 0.2186 0.1301 0.0808
O9 O 0.24602(16) 0.19353(17) 0.0687(2)
Mn1 Mn 0.2500 0.2500 0.05429(6)
C1ED C 0.1377(2) 0.1643(2) 0.0895(2)
C1D C 0.0895(2) 0.1643(2) 0.1377(2)
C1OD C 0.0895(2) 0.1377(2) 0.1643(2)
C1H C 0.1377(2) 0.0895(2) 0.1643(2)
C1JD C 0.1643(2) 0.0895(2) 0.1377(2)
C1XF C 0.3623(2) 0.3357(2) 0.0895(2)
C1UB C 0.3357(2) 0.3623(2) 0.0895(2)
C1ZB C 0.4105(2) 0.3357(2) 0.1377(2)
C1FG C 0.4105(2) 0.3623(2) 0.1643(2)
C1EC C 0.3623(2) 0.4105(2) 0.1643(2)
C1BG C 0.3357(2) 0.4105(2) 0.1377(2)
C1HA C 0.1377(2) 0.4105(2) 0.3357(2)
C1GE C 0.1643(2) 0.4105(2) 0.3623(2)
C1AA C 0.1643(2) 0.3623(2) 0.4105(2)
C1EE C 0.1377(2) 0.3357(2) 0.4105(2)
C1CA C 0.0895(2) 0.3357(2) 0.3623(2)
C1LE C 0.0895(2) 0.3623(2) 0.3357(2)
C1XA C 0.3357(2) 0.1377(2) 0.4105(2)
C1BF C 0.3623(2) 0.1643(2) 0.4105(2)
C1CB C 0.4105(2) 0.1643(2) 0.3623(2)
C1IF C 0.4105(2) 0.1377(2) 0.3357(2)
C1EB C 0.3623(2) 0.0895(2) 0.3357(2)
C1GF C 0.3357(2) 0.0895(2) 0.3623(2)
C2D C 0.0976(2) 0.1568(3) 0.0976(2)
C2H C 0.0976(2) 0.0976(2) 0.1568(3)
C2ZB C 0.4024(2) 0.3432(3) 0.0976(2)
C2EC C 0.4024(2) 0.4024(2) 0.1568(3)
C2UB C 0.3432(3) 0.4024(2) 0.0976(2)
C2AA C 0.1568(3) 0.4024(2) 0.4024(2)
C2CA C 0.0976(2) 0.3432(3) 0.4024(2)
C2HA C 0.0976(2) 0.4024(2) 0.3432(3)
C2CB C 0.4024(2) 0.1568(3) 0.4024(2)
C2EB C 0.4024(2) 0.0976(2) 0.3432(3)
C2XA C 0.3432(3) 0.0976(2) 0.4024(2)
H1UB H 0.3685 0.4081 0.0919
H1HA H 0.0919 0.4081 0.3685
H1CA H 0.0919 0.3685 0.4081
H1XA H 0.3685 0.0919 0.4081
H1EB H 0.4081 0.0919 0.3685
H1CB H 0.4081 0.1315 0.4081
H1AA H 0.1315 0.4081 0.4081
H1EC H 0.4081 0.4081 0.1315
H1ZB H 0.4081 0.3685 0.0919
H1H H 0.0919 0.0919 0.1315
H1D H 0.0919 0.1315 0.0919
H2UB H 0.3276 0.4176 0.0824
H2HA H 0.0824 0.4176 0.3276
H2CA H 0.0824 0.3276 0.4176
H2XA H 0.3276 0.0824 0.4176
H2EB H 0.4176 0.0824 0.3276
H2CB H 0.4176 0.1724 0.4176
H2AA H 0.1724 0.4176 0.4176
H2EC H 0.4176 0.4176 0.1724
H2ZB H 0.4176 0.3276 0.0824
H2H H 0.0824 0.0824 0.1724
H2D H 0.0824 0.1724 0.0824
C3ED C 0.1834(2) 0.2109(2) 0.0762(2)
C3UB C 0.2891(2) 0.3166(2) 0.0762(2)
C3XF C 0.3166(2) 0.2891(2) 0.0762(2)
C3BG C 0.2891(2) 0.4238(2) 0.1834(2)
C3EC C 0.3166(2) 0.4238(2) 0.2109(2)
C3HA C 0.1834(2) 0.4238(2) 0.2891(2)
C3GE C 0.2109(2) 0.4238(2) 0.3166(2)
C3LE C 0.0762(2) 0.3166(2) 0.2891(2)
C3CA C 0.0762(2) 0.2891(2) 0.3166(2)
C3D C 0.0762(2) 0.2109(2) 0.1834(2)
C3OD C 0.0762(2) 0.1834(2) 0.2109(2)
C3EE C 0.1834(2) 0.2891(2) 0.4238(2)
C3AA C 0.2109(2) 0.3166(2) 0.4238(2)
C3XA C 0.2891(2) 0.1834(2) 0.4238(2)
C3BF C 0.3166(2) 0.2109(2) 0.4238(2)
C3GF C 0.2891(2) 0.0762(2) 0.3166(2)
C3EB C 0.3166(2) 0.0762(2) 0.2891(2)
C3H C 0.1834(2) 0.0762(2) 0.2109(2)
C3JD C 0.2109(2) 0.0762(2) 0.1834(2)
C3IF C 0.4238(2) 0.1834(2) 0.2891(2)
C3CB C 0.4238(2) 0.2109(2) 0.3166(2)
C3ZB C 0.4238(2) 0.2891(2) 0.1834(2)
C3FG C 0.4238(2) 0.3166(2) 0.2109(2)
C4ED C 0.1482(2) 0.2008(2) 0.0819(2)
C4XF C 0.3518(2) 0.2992(2) 0.0819(2)
C4UB C 0.2992(2) 0.3518(2) 0.0819(2)
C4BG C 0.2992(2) 0.4181(2) 0.1482(2)
C4EC C 0.3518(2) 0.4181(2) 0.2008(2)
C4HA C 0.1482(2) 0.4181(2) 0.2992(2)
C4LE C 0.0819(2) 0.3518(2) 0.2992(2)
C4CA C 0.0819(2) 0.2992(2) 0.3518(2)
C4D C 0.0819(2) 0.2008(2) 0.1482(2)
C4OD C 0.0819(2) 0.1482(2) 0.2008(2)
C4EE C 0.1482(2) 0.2992(2) 0.4181(2)
C4AA C 0.2008(2) 0.3518(2) 0.4181(2)
C4XA C 0.2992(2) 0.1482(2) 0.4181(2)
C4GF C 0.2992(2) 0.0819(2) 0.3518(2)
C4EB C 0.3518(2) 0.0819(2) 0.2992(2)
C4H C 0.1482(2) 0.0819(2) 0.2008(2)
C4JD C 0.2008(2) 0.0819(2) 0.1482(2)
C4IF C 0.4181(2) 0.1482(2) 0.2992(2)
C4CB C 0.4181(2) 0.2008(2) 0.3518(2)
C4ZB C 0.4181(2) 0.2992(2) 0.1482(2)
C4FG C 0.4181(2) 0.3518(2) 0.2008(2)
C4BF C 0.3518(2) 0.2008(2) 0.4181(2)
C4GE C 0.2008(2) 0.4181(2) 0.3518(2)
H3ED H 0.1301 0.2186 0.0808
H3UB H 0.2814 0.3699 0.0808
H3EC H 0.3699 0.4192 0.2186
H3CA H 0.0808 0.2814 0.3699
H3D H 0.0808 0.2186 0.1301
H3OD H 0.0808 0.1301 0.2186
H3LE H 0.0808 0.3699 0.2814
H3AA H 0.2186 0.3699 0.4192
H3EB H 0.3699 0.0808 0.2814
H3H H 0.1301 0.0808 0.2186
H3JD H 0.2186 0.0808 0.1301
H3GF H 0.2814 0.0808 0.3699
H3CB H 0.4192 0.2186 0.3699
H3ZB H 0.4192 0.2814 0.1301
H3FG H 0.4192 0.3699 0.2186
H3IF H 0.4192 0.1301 0.2814
H3BF H 0.3699 0.2186 0.4192
H3XA H 0.2814 0.1301 0.4192
H3EE H 0.1301 0.2814 0.4192
H3GE H 0.2186 0.4192 0.3699
H3HA H 0.1301 0.4192 0.2814
H3BG H 0.2814 0.4192 0.1301
H3XF H 0.3699 0.2814 0.0808
O9ED O 0.19353(17) 0.24602(16) 0.0687(2)
O9UB O 0.25398(16) 0.30647(17) 0.0687(2)
O9EC O 0.30647(17) 0.4313(2) 0.24602(16)
O9HA O 0.19353(17) 0.4313(2) 0.25398(16)
O9CA O 0.0687(2) 0.25398(16) 0.30647(17)
O9D O 0.0687(2) 0.24602(16) 0.19353(17)
O9LE O 0.0687(2) 0.30647(17) 0.25398(16)
O9OD O 0.0687(2) 0.19353(17) 0.24602(16)
O9AA O 0.24602(16) 0.30647(17) 0.4313(2)
O9XA O 0.25398(16) 0.19353(17) 0.4313(2)
O9EB O 0.30647(17) 0.0687(2) 0.25398(16)
O9H O 0.19353(17) 0.0687(2) 0.24602(16)
O9GF O 0.25398(16) 0.0687(2) 0.30647(17)
O9JD O 0.24602(16) 0.0687(2) 0.19353(17)
O9CB O 0.4313(2) 0.24602(16) 0.30647(17)
O9ZB O 0.4313(2) 0.25398(16) 0.19353(17)
O9IF O 0.4313(2) 0.19353(17) 0.25398(16)
O9FG O 0.4313(2) 0.30647(17) 0.24602(16)
O9BF O 0.30647(17) 0.24602(16) 0.4313(2)
O9EE O 0.19353(17) 0.25398(16) 0.4313(2)
O9GE O 0.24602(16) 0.4313(2) 0.30647(17)
O9BG O 0.25398(16) 0.4313(2) 0.19353(17)
O9XF O 0.30647(17) 0.25398(16) 0.0687(2)
Mn1HA Mn 0.2500 0.44571(6) 0.2500
Mn1D Mn 0.05429(6) 0.2500 0.2500
Mn1AA Mn 0.2500 0.2500 0.44571(6)
Mn1H Mn 0.2500 0.05429(6) 0.2500
Mn1CB Mn 0.44571(6) 0.2500 0.2500
O1 O 0.2500 0.2500 0.1841(6)
Na1 Na 0.2500 0.2500 0.2500
O1H O 0.2500 0.1841(6) 0.2500
O1D O 0.1841(6) 0.2500 0.2500
O1AA O 0.2500 0.2500 0.3159(6)
O1HA O 0.2500 0.3159(6) 0.2500
O1CB O 0.3159(6) 0.2500 0.2500
loop_
_geom_bond_atom_site_label_1
_geom_bond_atom_site_label_2
_geom_bond_site_symmetry_1
_geom_bond_site_symmetry_2
O1 Na1 1_555 1_555
Na1 O1H 1_555 1_555
O5 O6 1_555 1_555
O6 Na2 1_555 1_555
O7 Na2 1_555 1_555
O8 Na2 1_555 1_555
Na2 O6JD 1_555 1_555
C1 C2 1_555 1_555
C2 H1 1_555 1_555
H2 C2 1_555 1_555
C3 C4 1_555 1_555
C4 C1 1_555 1_555
H3 C4 1_555 1_555
O9 C3 1_555 1_555
Mn1 O9 1_555 1_555
O1D Na1 1_555 1_555
O1AA Na1 1_555 1_555
O1HA Na1 1_555 1_555
O1CB Na1 1_555 1_555
O5JD O6JD 1_555 1_555
O7JD Na2 1_555 1_555
C1ED C1 1_555 1_555
C1D C1OD 1_555 1_555
C1OD C2H 1_555 1_555
C1H C1JD 1_555 1_555
C1JD C2 1_555 1_555
C1XF C1UB 1_555 1_555
C1UB C2UB 1_555 1_555
C1ZB C1FG 1_555 1_555
C1FG C2EC 1_555 1_555
C1EC C1BG 1_555 1_555
C1BG C2UB 1_555 1_555
C1HA C1GE 1_555 1_555
C1GE C2AA 1_555 1_555
C1AA C1EE 1_555 1_555
C1EE C2CA 1_555 1_555
C1CA C1LE 1_555 1_555
C1LE C2HA 1_555 1_555
C1XA C1BF 1_555 1_555
C1BF C2CB 1_555 1_555
C1CB C1IF 1_555 1_555
C1IF C2EB 1_555 1_555
C1EB C1GF 1_555 1_555
C1GF C2XA 1_555 1_555
C2D C1ED 1_555 1_555
C2H C1H 1_555 1_555
C2ZB C1XF 1_555 1_555
C2EC C1EC 1_555 1_555
C2UB H1UB 1_555 1_555
C2AA C1AA 1_555 1_555
C2CA C1CA 1_555 1_555
C2HA C1HA 1_555 1_555
C2CB C1CB 1_555 1_555
C2EB C1EB 1_555 1_555
C2XA C1XA 1_555 1_555
H1HA C2HA 1_555 1_555
H1CA C2CA 1_555 1_555
H1XA C2XA 1_555 1_555
H1EB C2EB 1_555 1_555
H1CB C2CB 1_555 1_555
H1AA C2AA 1_555 1_555
H1EC C2EC 1_555 1_555
H1ZB C2ZB 1_555 1_555
H1H C2H 1_555 1_555
H1D C2D 1_555 1_555
H2UB C2UB 1_555 1_555
H2HA C2HA 1_555 1_555
H2CA C2CA 1_555 1_555
H2XA C2XA 1_555 1_555
H2EB C2EB 1_555 1_555
H2CB C2CB 1_555 1_555
H2AA C2AA 1_555 1_555
H2EC C2EC 1_555 1_555
H2ZB C2ZB 1_555 1_555
H2H C2H 1_555 1_555
H2D C2D 1_555 1_555
C3ED C3 1_555 1_555
C3UB C3XF 1_555 1_555
C3XF C4XF 1_555 1_555
C3BG C3EC 1_555 1_555
C3EC C4EC 1_555 1_555
C3HA C3GE 1_555 1_555
C3GE C4GE 1_555 1_555
C3LE C3CA 1_555 1_555
C3CA C4CA 1_555 1_555
C3D C3OD 1_555 1_555
C3OD C4OD 1_555 1_555
C3EE C3AA 1_555 1_555
C3AA C4AA 1_555 1_555
C3XA C3BF 1_555 1_555
C3BF C4BF 1_555 1_555
C3GF C3EB 1_555 1_555
C3EB C4EB 1_555 1_555
C3H C3JD 1_555 1_555
C3JD C4JD 1_555 1_555
C3IF C3CB 1_555 1_555
C3CB C4CB 1_555 1_555
C3ZB C3FG 1_555 1_555
C3FG C4FG 1_555 1_555
C4ED C1ED 1_555 1_555
C4XF C1XF 1_555 1_555
C4UB C1UB 1_555 1_555
C4BG C1BG 1_555 1_555
C4EC C1EC 1_555 1_555
C4HA C1HA 1_555 1_555
C4LE C1LE 1_555 1_555
C4CA C1CA 1_555 1_555
C4D C1D 1_555 1_555
C4OD C1OD 1_555 1_555
C4EE C1EE 1_555 1_555
C4AA C1AA 1_555 1_555
C4XA C1XA 1_555 1_555
C4GF C1GF 1_555 1_555
C4EB C1EB 1_555 1_555
C4H C1H 1_555 1_555
C4JD C1JD 1_555 1_555
C4IF C1IF 1_555 1_555
C4CB C1CB 1_555 1_555
C4ZB C1ZB 1_555 1_555
C4FG C1FG 1_555 1_555
C4BF C1BF 1_555 1_555
C4GE C1GE 1_555 1_555
H3ED C4ED 1_555 1_555
H3UB C4UB 1_555 1_555
H3EC C4EC 1_555 1_555
H3CA C4CA 1_555 1_555
H3D C4D 1_555 1_555
H3OD C4OD 1_555 1_555
H3LE C4LE 1_555 1_555
H3AA C4AA 1_555 1_555
H3EB C4EB 1_555 1_555
H3H C4H 1_555 1_555
H3JD C4JD 1_555 1_555
H3GF C4GF 1_555 1_555
H3CB C4CB 1_555 1_555
H3ZB C4ZB 1_555 1_555
H3FG C4FG 1_555 1_555
H3IF C4IF 1_555 1_555
H3BF C4BF 1_555 1_555
H3XA C4XA 1_555 1_555
H3EE C4EE 1_555 1_555
H3GE C4GE 1_555 1_555
H3HA C4HA 1_555 1_555
H3BG C4BG 1_555 1_555
H3XF C4XF 1_555 1_555
O9ED Mn1 1_555 1_555
O9UB Mn1 1_555 1_555
O9EC C3EC 1_555 1_555
O9HA C3HA 1_555 1_555
O9CA C3CA 1_555 1_555
O9D C3D 1_555 1_555
O9LE C3LE 1_555 1_555
O9OD C3OD 1_555 1_555
O9AA C3AA 1_555 1_555
O9XA C3XA 1_555 1_555
O9EB C3EB 1_555 1_555
O9H C3H 1_555 1_555
O9GF C3GF 1_555 1_555
O9JD C3JD 1_555 1_555
O9CB C3CB 1_555 1_555
O9ZB C3ZB 1_555 1_555
O9IF C3IF 1_555 1_555
O9FG C3FG 1_555 1_555
O9BF C3BF 1_555 1_555
O9EE C3EE 1_555 1_555
O9GE C3GE 1_555 1_555
O9BG C3BG 1_555 1_555
O9XF Mn1 1_555 1_555
Mn1HA O9EC 1_555 1_555
Mn1D O9CA 1_555 1_555
Mn1AA O9AA 1_555 1_555
Mn1H O9EB 1_555 1_555
Mn1CB O9CB 1_555 1_555
C1D C2D 1_555 1_555
C1ZB C2ZB 1_555 1_555
C3ED C4ED 1_555 1_555
C3ED O9ED 1_555 1_555
C3UB C4UB 1_555 1_555
C3UB O9UB 1_555 1_555
C3XF O9XF 1_555 1_555
C3BG C4BG 1_555 1_555
C3HA C4HA 1_555 1_555
C3LE C4LE 1_555 1_555
C3D C4D 1_555 1_555
C3EE C4EE 1_555 1_555
C3XA C4XA 1_555 1_555
C3GF C4GF 1_555 1_555
C3H C4H 1_555 1_555
C3IF C4IF 1_555 1_555
C3ZB C4ZB 1_555 1_555
O9HA Mn1HA 1_555 1_555
O9D Mn1D 1_555 1_555
O9LE Mn1D 1_555 1_555
O9OD Mn1D 1_555 1_555
O9XA Mn1AA 1_555 1_555
O9H Mn1H 1_555 1_555
O9GF Mn1H 1_555 1_555
O9JD Mn1H 1_555 1_555
O9ZB Mn1CB 1_555 1_555
O9IF Mn1CB 1_555 1_555
O9FG Mn1CB 1_555 1_555
O9BF Mn1AA 1_555 1_555
O9EE Mn1AA 1_555 1_555
O9GE Mn1HA 1_555 1_555
O9BG Mn1HA 1_555 1_555

#END
