# generated using pymatgen
data_Mg3V4H32(C28O17)2
_symmetry_space_group_name_H-M   'P 1'
_cell_length_a   31.61820000
_cell_length_b   31.61820000
_cell_length_c   31.61820000
_cell_angle_alpha   90.00000000
_cell_angle_beta   90.00000000
_cell_angle_gamma   90.00000000
_symmetry_Int_Tables_number   1
_chemical_formula_structural   Mg3V4H32(C28O17)2
_chemical_formula_sum   'Mg36 V48 H384 C672 O408'
_cell_volume   31609.04878358
_cell_formula_units_Z   12
loop_
 _symmetry_equiv_pos_site_id
 _symmetry_equiv_pos_as_xyz
  1  'x, y, z'
loop_
 _atom_site_type_symbol
 _atom_site_label
 _atom_site_symmetry_multiplicity
 _atom_site_fract_x
 _atom_site_fract_y
 _atom_site_fract_z
 _atom_site_occupancy
  Mg  Mg1  1  0.500000  0.500000  0.163600  1
  Mg  Mg2  1  0.500000  0.500000  0.836400  1
  Mg  Mg3  1  0.000000  0.000000  0.336400  1
  Mg  Mg4  1  0.000000  0.000000  0.663600  1
  Mg  Mg5  1  0.500000  0.163600  0.500000  1
  Mg  Mg6  1  0.500000  0.836400  0.500000  1
  Mg  Mg7  1  0.663600  0.000000  0.000000  1
  Mg  Mg8  1  0.336400  0.000000  0.000000  1
  Mg  Mg9  1  0.163600  0.500000  0.500000  1
  Mg  Mg10  1  0.836400  0.500000  0.500000  1
  Mg  Mg11  1  0.000000  0.663600  0.000000  1
  Mg  Mg12  1  0.000000  0.336400  0.000000  1
  Mg  Mg13  1  0.705450  0.285540  0.495570  1.0
  Mg  Mg14  1  0.705450  0.714460  0.504430  1.0
  Mg  Mg15  1  0.294550  0.714460  0.495570  1.0
  Mg  Mg16  1  0.294550  0.285540  0.504430  1.0
  Mg  Mg17  1  0.785540  0.794550  0.004430  1.0
  Mg  Mg18  1  0.214460  0.794550  0.995570  1.0
  Mg  Mg19  1  0.214460  0.205450  0.004430  1.0
  Mg  Mg20  1  0.785540  0.205450  0.995570  1.0
  Mg  Mg21  1  0.285540  0.495570  0.705450  1.0
  Mg  Mg22  1  0.714460  0.504430  0.705450  1.0
  Mg  Mg23  1  0.285540  0.504430  0.294550  1.0
  Mg  Mg24  1  0.714460  0.495570  0.294550  1.0
  Mg  Mg25  1  0.995570  0.214460  0.794550  1.0
  Mg  Mg26  1  0.995570  0.785540  0.205450  1.0
  Mg  Mg27  1  0.004430  0.785540  0.794550  1.0
  Mg  Mg28  1  0.004430  0.214460  0.205450  1.0
  Mg  Mg29  1  0.495570  0.705450  0.285540  1.0
  Mg  Mg30  1  0.504430  0.705450  0.714460  1.0
  Mg  Mg31  1  0.504430  0.294550  0.285540  1.0
  Mg  Mg32  1  0.495570  0.294550  0.714460  1.0
  Mg  Mg33  1  0.205450  0.995570  0.785540  1.0
  Mg  Mg34  1  0.205450  0.004430  0.214460  1.0
  Mg  Mg35  1  0.794550  0.995570  0.214460  1.0
  Mg  Mg36  1  0.794550  0.004430  0.785540  1.0
  V  V37  1  0.755190  0.370890  0.510070  1.0
  V  V38  1  0.755190  0.629110  0.489930  1.0
  V  V39  1  0.244810  0.629110  0.510070  1.0
  V  V40  1  0.244810  0.370890  0.489930  1.0
  V  V41  1  0.870890  0.744810  0.989930  1.0
  V  V42  1  0.129110  0.744810  0.010070  1.0
  V  V43  1  0.129110  0.255190  0.989930  1.0
  V  V44  1  0.870890  0.255190  0.010070  1.0
  V  V45  1  0.370890  0.510070  0.755190  1.0
  V  V46  1  0.629110  0.489930  0.755190  1.0
  V  V47  1  0.370890  0.489930  0.244810  1.0
  V  V48  1  0.629110  0.510070  0.244810  1.0
  V  V49  1  0.010070  0.129110  0.744810  1.0
  V  V50  1  0.010070  0.870890  0.255190  1.0
  V  V51  1  0.989930  0.870890  0.744810  1.0
  V  V52  1  0.989930  0.129110  0.255190  1.0
  V  V53  1  0.510070  0.755190  0.370890  1.0
  V  V54  1  0.489930  0.755190  0.629110  1.0
  V  V55  1  0.489930  0.244810  0.370890  1.0
  V  V56  1  0.510070  0.244810  0.629110  1.0
  V  V57  1  0.255190  0.010070  0.870890  1.0
  V  V58  1  0.255190  0.989930  0.129110  1.0
  V  V59  1  0.744810  0.010070  0.129110  1.0
  V  V60  1  0.744810  0.989930  0.870890  1.0
  V  V61  1  0.766250  0.084850  0.348260  1.0
  V  V62  1  0.766250  0.915150  0.651740  1.0
  V  V63  1  0.233750  0.915150  0.348260  1.0
  V  V64  1  0.233750  0.084850  0.651740  1.0
  V  V65  1  0.584850  0.733750  0.151740  1.0
  V  V66  1  0.415150  0.733750  0.848260  1.0
  V  V67  1  0.415150  0.266250  0.151740  1.0
  V  V68  1  0.584850  0.266250  0.848260  1.0
  V  V69  1  0.084850  0.348260  0.766250  1.0
  V  V70  1  0.915150  0.651740  0.766250  1.0
  V  V71  1  0.084850  0.651740  0.233750  1.0
  V  V72  1  0.915150  0.348260  0.233750  1.0
  V  V73  1  0.848260  0.415150  0.733750  1.0
  V  V74  1  0.848260  0.584850  0.266250  1.0
  V  V75  1  0.151740  0.584850  0.733750  1.0
  V  V76  1  0.151740  0.415150  0.266250  1.0
  V  V77  1  0.348260  0.766250  0.084850  1.0
  V  V78  1  0.651740  0.766250  0.915150  1.0
  V  V79  1  0.651740  0.233750  0.084850  1.0
  V  V80  1  0.348260  0.233750  0.915150  1.0
  V  V81  1  0.266250  0.848260  0.584850  1.0
  V  V82  1  0.266250  0.151740  0.415150  1.0
  V  V83  1  0.733750  0.848260  0.415150  1.0
  V  V84  1  0.733750  0.151740  0.584850  1.0
  H  H85  1  0.813000  0.166400  0.456800  1.0
  H  H86  1  0.813000  0.833600  0.543200  1.0
  H  H87  1  0.187000  0.833600  0.456800  1.0
  H  H88  1  0.187000  0.166400  0.543200  1.0
  H  H89  1  0.666400  0.687000  0.043200  1.0
  H  H90  1  0.333600  0.687000  0.956800  1.0
  H  H91  1  0.333600  0.313000  0.043200  1.0
  H  H92  1  0.666400  0.313000  0.956800  1.0
  H  H93  1  0.166400  0.456800  0.813000  1.0
  H  H94  1  0.833600  0.543200  0.813000  1.0
  H  H95  1  0.166400  0.543200  0.187000  1.0
  H  H96  1  0.833600  0.456800  0.187000  1.0
  H  H97  1  0.956800  0.333600  0.687000  1.0
  H  H98  1  0.956800  0.666400  0.313000  1.0
  H  H99  1  0.043200  0.666400  0.687000  1.0
  H  H100  1  0.043200  0.333600  0.313000  1.0
  H  H101  1  0.456800  0.813000  0.166400  1.0
  H  H102  1  0.543200  0.813000  0.833600  1.0
  H  H103  1  0.543200  0.187000  0.166400  1.0
  H  H104  1  0.456800  0.187000  0.833600  1.0
  H  H105  1  0.313000  0.956800  0.666400  1.0
  H  H106  1  0.313000  0.043200  0.333600  1.0
  H  H107  1  0.687000  0.956800  0.333600  1.0
  H  H108  1  0.687000  0.043200  0.666400  1.0
  H  H109  1  0.890700  0.156200  0.332800  1.0
  H  H110  1  0.890700  0.843800  0.667200  1.0
  H  H111  1  0.109300  0.843800  0.332800  1.0
  H  H112  1  0.109300  0.156200  0.667200  1.0
  H  H113  1  0.656200  0.609300  0.167200  1.0
  H  H114  1  0.343800  0.609300  0.832800  1.0
  H  H115  1  0.343800  0.390700  0.167200  1.0
  H  H116  1  0.656200  0.390700  0.832800  1.0
  H  H117  1  0.156200  0.332800  0.890700  1.0
  H  H118  1  0.843800  0.667200  0.890700  1.0
  H  H119  1  0.156200  0.667200  0.109300  1.0
  H  H120  1  0.843800  0.332800  0.109300  1.0
  H  H121  1  0.832800  0.343800  0.609300  1.0
  H  H122  1  0.832800  0.656200  0.390700  1.0
  H  H123  1  0.167200  0.656200  0.609300  1.0
  H  H124  1  0.167200  0.343800  0.390700  1.0
  H  H125  1  0.332800  0.890700  0.156200  1.0
  H  H126  1  0.667200  0.890700  0.843800  1.0
  H  H127  1  0.667200  0.109300  0.156200  1.0
  H  H128  1  0.332800  0.109300  0.843800  1.0
  H  H129  1  0.390700  0.832800  0.656200  1.0
  H  H130  1  0.390700  0.167200  0.343800  1.0
  H  H131  1  0.609300  0.832800  0.343800  1.0
  H  H132  1  0.609300  0.167200  0.656200  1.0
  H  H133  1  0.948800  0.189200  0.366700  1.0
  H  H134  1  0.948800  0.810800  0.633300  1.0
  H  H135  1  0.051200  0.810800  0.366700  1.0
  H  H136  1  0.051200  0.189200  0.633300  1.0
  H  H137  1  0.689200  0.551200  0.133300  1.0
  H  H138  1  0.310800  0.551200  0.866700  1.0
  H  H139  1  0.310800  0.448800  0.133300  1.0
  H  H140  1  0.689200  0.448800  0.866700  1.0
  H  H141  1  0.189200  0.366700  0.948800  1.0
  H  H142  1  0.810800  0.633300  0.948800  1.0
  H  H143  1  0.189200  0.633300  0.051200  1.0
  H  H144  1  0.810800  0.366700  0.051200  1.0
  H  H145  1  0.866700  0.310800  0.551200  1.0
  H  H146  1  0.866700  0.689200  0.448800  1.0
  H  H147  1  0.133300  0.689200  0.551200  1.0
  H  H148  1  0.133300  0.310800  0.448800  1.0
  H  H149  1  0.366700  0.948800  0.189200  1.0
  H  H150  1  0.633300  0.948800  0.810800  1.0
  H  H151  1  0.633300  0.051200  0.189200  1.0
  H  H152  1  0.366700  0.051200  0.810800  1.0
  H  H153  1  0.448800  0.866700  0.689200  1.0
  H  H154  1  0.448800  0.133300  0.310800  1.0
  H  H155  1  0.551200  0.866700  0.310800  1.0
  H  H156  1  0.551200  0.133300  0.689200  1.0
  H  H157  1  0.943600  0.211600  0.410500  1.0
  H  H158  1  0.943600  0.788400  0.589500  1.0
  H  H159  1  0.056400  0.788400  0.410500  1.0
  H  H160  1  0.056400  0.211600  0.589500  1.0
  H  H161  1  0.711600  0.556400  0.089500  1.0
  H  H162  1  0.288400  0.556400  0.910500  1.0
  H  H163  1  0.288400  0.443600  0.089500  1.0
  H  H164  1  0.711600  0.443600  0.910500  1.0
  H  H165  1  0.211600  0.410500  0.943600  1.0
  H  H166  1  0.788400  0.589500  0.943600  1.0
  H  H167  1  0.211600  0.589500  0.056400  1.0
  H  H168  1  0.788400  0.410500  0.056400  1.0
  H  H169  1  0.910500  0.288400  0.556400  1.0
  H  H170  1  0.910500  0.711600  0.443600  1.0
  H  H171  1  0.089500  0.711600  0.556400  1.0
  H  H172  1  0.089500  0.288400  0.443600  1.0
  H  H173  1  0.410500  0.943600  0.211600  1.0
  H  H174  1  0.589500  0.943600  0.788400  1.0
  H  H175  1  0.589500  0.056400  0.211600  1.0
  H  H176  1  0.410500  0.056400  0.788400  1.0
  H  H177  1  0.443600  0.910500  0.711600  1.0
  H  H178  1  0.443600  0.089500  0.288400  1.0
  H  H179  1  0.556400  0.910500  0.288400  1.0
  H  H180  1  0.556400  0.089500  0.711600  1.0
  H  H181  1  0.920000  0.223300  0.302700  1.0
  H  H182  1  0.920000  0.776700  0.697300  1.0
  H  H183  1  0.080000  0.776700  0.302700  1.0
  H  H184  1  0.080000  0.223300  0.697300  1.0
  H  H185  1  0.723300  0.580000  0.197300  1.0
  H  H186  1  0.276700  0.580000  0.802700  1.0
  H  H187  1  0.276700  0.420000  0.197300  1.0
  H  H188  1  0.723300  0.420000  0.802700  1.0
  H  H189  1  0.223300  0.302700  0.920000  1.0
  H  H190  1  0.776700  0.697300  0.920000  1.0
  H  H191  1  0.223300  0.697300  0.080000  1.0
  H  H192  1  0.776700  0.302700  0.080000  1.0
  H  H193  1  0.802700  0.276700  0.580000  1.0
  H  H194  1  0.802700  0.723300  0.420000  1.0
  H  H195  1  0.197300  0.723300  0.580000  1.0
  H  H196  1  0.197300  0.276700  0.420000  1.0
  H  H197  1  0.302700  0.920000  0.223300  1.0
  H  H198  1  0.697300  0.920000  0.776700  1.0
  H  H199  1  0.697300  0.080000  0.223300  1.0
  H  H200  1  0.302700  0.080000  0.776700  1.0
  H  H201  1  0.420000  0.802700  0.723300  1.0
  H  H202  1  0.420000  0.197300  0.276700  1.0
  H  H203  1  0.580000  0.802700  0.276700  1.0
  H  H204  1  0.580000  0.197300  0.723300  1.0
  H  H205  1  0.919500  0.350800  0.375500  1.0
  H  H206  1  0.919500  0.649200  0.624500  1.0
  H  H207  1  0.080500  0.649200  0.375500  1.0
  H  H208  1  0.080500  0.350800  0.624500  1.0
  H  H209  1  0.850800  0.580500  0.124500  1.0
  H  H210  1  0.149200  0.580500  0.875500  1.0
  H  H211  1  0.149200  0.419500  0.124500  1.0
  H  H212  1  0.850800  0.419500  0.875500  1.0
  H  H213  1  0.350800  0.375500  0.919500  1.0
  H  H214  1  0.649200  0.624500  0.919500  1.0
  H  H215  1  0.350800  0.624500  0.080500  1.0
  H  H216  1  0.649200  0.375500  0.080500  1.0
  H  H217  1  0.875500  0.149200  0.580500  1.0
  H  H218  1  0.875500  0.850800  0.419500  1.0
  H  H219  1  0.124500  0.850800  0.580500  1.0
  H  H220  1  0.124500  0.149200  0.419500  1.0
  H  H221  1  0.375500  0.919500  0.350800  1.0
  H  H222  1  0.624500  0.919500  0.649200  1.0
  H  H223  1  0.624500  0.080500  0.350800  1.0
  H  H224  1  0.375500  0.080500  0.649200  1.0
  H  H225  1  0.419500  0.875500  0.850800  1.0
  H  H226  1  0.419500  0.124500  0.149200  1.0
  H  H227  1  0.580500  0.875500  0.149200  1.0
  H  H228  1  0.580500  0.124500  0.850800  1.0
  H  H229  1  0.881700  0.358500  0.445900  1.0
  H  H230  1  0.881700  0.641500  0.554100  1.0
  H  H231  1  0.118300  0.641500  0.445900  1.0
  H  H232  1  0.118300  0.358500  0.554100  1.0
  H  H233  1  0.858500  0.618300  0.054100  1.0
  H  H234  1  0.141500  0.618300  0.945900  1.0
  H  H235  1  0.141500  0.381700  0.054100  1.0
  H  H236  1  0.858500  0.381700  0.945900  1.0
  H  H237  1  0.358500  0.445900  0.881700  1.0
  H  H238  1  0.641500  0.554100  0.881700  1.0
  H  H239  1  0.358500  0.554100  0.118300  1.0
  H  H240  1  0.641500  0.445900  0.118300  1.0
  H  H241  1  0.945900  0.141500  0.618300  1.0
  H  H242  1  0.945900  0.858500  0.381700  1.0
  H  H243  1  0.054100  0.858500  0.618300  1.0
  H  H244  1  0.054100  0.141500  0.381700  1.0
  H  H245  1  0.445900  0.881700  0.358500  1.0
  H  H246  1  0.554100  0.881700  0.641500  1.0
  H  H247  1  0.554100  0.118300  0.358500  1.0
  H  H248  1  0.445900  0.118300  0.641500  1.0
  H  H249  1  0.381700  0.945900  0.858500  1.0
  H  H250  1  0.381700  0.054100  0.141500  1.0
  H  H251  1  0.618300  0.945900  0.141500  1.0
  H  H252  1  0.618300  0.054100  0.858500  1.0
  H  H253  1  0.807800  0.239600  0.490000  1.0
  H  H254  1  0.807800  0.760400  0.510000  1.0
  H  H255  1  0.192200  0.760400  0.490000  1.0
  H  H256  1  0.192200  0.239600  0.510000  1.0
  H  H257  1  0.739600  0.692200  0.010000  1.0
  H  H258  1  0.260400  0.692200  0.990000  1.0
  H  H259  1  0.260400  0.307800  0.010000  1.0
  H  H260  1  0.739600  0.307800  0.990000  1.0
  H  H261  1  0.239600  0.490000  0.807800  1.0
  H  H262  1  0.760400  0.510000  0.807800  1.0
  H  H263  1  0.239600  0.510000  0.192200  1.0
  H  H264  1  0.760400  0.490000  0.192200  1.0
  H  H265  1  0.990000  0.260400  0.692200  1.0
  H  H266  1  0.990000  0.739600  0.307800  1.0
  H  H267  1  0.010000  0.739600  0.692200  1.0
  H  H268  1  0.010000  0.260400  0.307800  1.0
  H  H269  1  0.490000  0.807800  0.239600  1.0
  H  H270  1  0.510000  0.807800  0.760400  1.0
  H  H271  1  0.510000  0.192200  0.239600  1.0
  H  H272  1  0.490000  0.192200  0.760400  1.0
  H  H273  1  0.307800  0.990000  0.739600  1.0
  H  H274  1  0.307800  0.010000  0.260400  1.0
  H  H275  1  0.692200  0.990000  0.260400  1.0
  H  H276  1  0.692200  0.010000  0.739600  1.0
  H  H277  1  0.942600  0.265800  0.441400  1.0
  H  H278  1  0.942600  0.734200  0.558600  1.0
  H  H279  1  0.057400  0.734200  0.441400  1.0
  H  H280  1  0.057400  0.265800  0.558600  1.0
  H  H281  1  0.765800  0.557400  0.058600  1.0
  H  H282  1  0.234200  0.557400  0.941400  1.0
  H  H283  1  0.234200  0.442600  0.058600  1.0
  H  H284  1  0.765800  0.442600  0.941400  1.0
  H  H285  1  0.265800  0.441400  0.942600  1.0
  H  H286  1  0.734200  0.558600  0.942600  1.0
  H  H287  1  0.265800  0.558600  0.057400  1.0
  H  H288  1  0.734200  0.441400  0.057400  1.0
  H  H289  1  0.941400  0.234200  0.557400  1.0
  H  H290  1  0.941400  0.765800  0.442600  1.0
  H  H291  1  0.058600  0.765800  0.557400  1.0
  H  H292  1  0.058600  0.234200  0.442600  1.0
  H  H293  1  0.441400  0.942600  0.265800  1.0
  H  H294  1  0.558600  0.942600  0.734200  1.0
  H  H295  1  0.558600  0.057400  0.265800  1.0
  H  H296  1  0.441400  0.057400  0.734200  1.0
  H  H297  1  0.442600  0.941400  0.765800  1.0
  H  H298  1  0.442600  0.058600  0.234200  1.0
  H  H299  1  0.557400  0.941400  0.234200  1.0
  H  H300  1  0.557400  0.058600  0.765800  1.0
  H  H301  1  0.945500  0.315200  0.437800  1.0
  H  H302  1  0.945500  0.684800  0.562200  1.0
  H  H303  1  0.054500  0.684800  0.437800  1.0
  H  H304  1  0.054500  0.315200  0.562200  1.0
  H  H305  1  0.815200  0.554500  0.062200  1.0
  H  H306  1  0.184800  0.554500  0.937800  1.0
  H  H307  1  0.184800  0.445500  0.062200  1.0
  H  H308  1  0.815200  0.445500  0.937800  1.0
  H  H309  1  0.315200  0.437800  0.945500  1.0
  H  H310  1  0.684800  0.562200  0.945500  1.0
  H  H311  1  0.315200  0.562200  0.054500  1.0
  H  H312  1  0.684800  0.437800  0.054500  1.0
  H  H313  1  0.937800  0.184800  0.554500  1.0
  H  H314  1  0.937800  0.815200  0.445500  1.0
  H  H315  1  0.062200  0.815200  0.554500  1.0
  H  H316  1  0.062200  0.184800  0.445500  1.0
  H  H317  1  0.437800  0.945500  0.315200  1.0
  H  H318  1  0.562200  0.945500  0.684800  1.0
  H  H319  1  0.562200  0.054500  0.315200  1.0
  H  H320  1  0.437800  0.054500  0.684800  1.0
  H  H321  1  0.445500  0.937800  0.815200  1.0
  H  H322  1  0.445500  0.062200  0.184800  1.0
  H  H323  1  0.554500  0.937800  0.184800  1.0
  H  H324  1  0.554500  0.062200  0.815200  1.0
  H  H325  1  0.872000  0.201400  0.491100  1.0
  H  H326  1  0.872000  0.798600  0.508900  1.0
  H  H327  1  0.128000  0.798600  0.491100  1.0
  H  H328  1  0.128000  0.201400  0.508900  1.0
  H  H329  1  0.701400  0.628000  0.008900  1.0
  H  H330  1  0.298600  0.628000  0.991100  1.0
  H  H331  1  0.298600  0.372000  0.008900  1.0
  H  H332  1  0.701400  0.372000  0.991100  1.0
  H  H333  1  0.201400  0.491100  0.872000  1.0
  H  H334  1  0.798600  0.508900  0.872000  1.0
  H  H335  1  0.201400  0.508900  0.128000  1.0
  H  H336  1  0.798600  0.491100  0.128000  1.0
  H  H337  1  0.991100  0.298600  0.628000  1.0
  H  H338  1  0.991100  0.701400  0.372000  1.0
  H  H339  1  0.008900  0.701400  0.628000  1.0
  H  H340  1  0.008900  0.298600  0.372000  1.0
  H  H341  1  0.491100  0.872000  0.201400  1.0
  H  H342  1  0.508900  0.872000  0.798600  1.0
  H  H343  1  0.508900  0.128000  0.201400  1.0
  H  H344  1  0.491100  0.128000  0.798600  1.0
  H  H345  1  0.372000  0.991100  0.701400  1.0
  H  H346  1  0.372000  0.008900  0.298600  1.0
  H  H347  1  0.628000  0.991100  0.298600  1.0
  H  H348  1  0.628000  0.008900  0.701400  1.0
  H  H349  1  0.910900  0.216400  0.464700  1.0
  H  H350  1  0.910900  0.783600  0.535300  1.0
  H  H351  1  0.089100  0.783600  0.464700  1.0
  H  H352  1  0.089100  0.216400  0.535300  1.0
  H  H353  1  0.716400  0.589100  0.035300  1.0
  H  H354  1  0.283600  0.589100  0.964700  1.0
  H  H355  1  0.283600  0.410900  0.035300  1.0
  H  H356  1  0.716400  0.410900  0.964700  1.0
  H  H357  1  0.216400  0.464700  0.910900  1.0
  H  H358  1  0.783600  0.535300  0.910900  1.0
  H  H359  1  0.216400  0.535300  0.089100  1.0
  H  H360  1  0.783600  0.464700  0.089100  1.0
  H  H361  1  0.964700  0.283600  0.589100  1.0
  H  H362  1  0.964700  0.716400  0.410900  1.0
  H  H363  1  0.035300  0.716400  0.589100  1.0
  H  H364  1  0.035300  0.283600  0.410900  1.0
  H  H365  1  0.464700  0.910900  0.216400  1.0
  H  H366  1  0.535300  0.910900  0.783600  1.0
  H  H367  1  0.535300  0.089100  0.216400  1.0
  H  H368  1  0.464700  0.089100  0.783600  1.0
  H  H369  1  0.410900  0.964700  0.716400  1.0
  H  H370  1  0.410900  0.035300  0.283600  1.0
  H  H371  1  0.589100  0.964700  0.283600  1.0
  H  H372  1  0.589100  0.035300  0.716400  1.0
  H  H373  1  0.545300  0.392100  0.512100  1.0
  H  H374  1  0.545300  0.607900  0.487900  1.0
  H  H375  1  0.454700  0.607900  0.512100  1.0
  H  H376  1  0.454700  0.392100  0.487900  1.0
  H  H377  1  0.892100  0.954700  0.987900  1.0
  H  H378  1  0.107900  0.954700  0.012100  1.0
  H  H379  1  0.107900  0.045300  0.987900  1.0
  H  H380  1  0.892100  0.045300  0.012100  1.0
  H  H381  1  0.392100  0.512100  0.545300  1.0
  H  H382  1  0.607900  0.487900  0.545300  1.0
  H  H383  1  0.392100  0.487900  0.454700  1.0
  H  H384  1  0.607900  0.512100  0.454700  1.0
  H  H385  1  0.012100  0.107900  0.954700  1.0
  H  H386  1  0.012100  0.892100  0.045300  1.0
  H  H387  1  0.987900  0.892100  0.954700  1.0
  H  H388  1  0.987900  0.107900  0.045300  1.0
  H  H389  1  0.512100  0.545300  0.392100  1.0
  H  H390  1  0.487900  0.545300  0.607900  1.0
  H  H391  1  0.487900  0.454700  0.392100  1.0
  H  H392  1  0.512100  0.454700  0.607900  1.0
  H  H393  1  0.045300  0.012100  0.892100  1.0
  H  H394  1  0.045300  0.987900  0.107900  1.0
  H  H395  1  0.954700  0.012100  0.107900  1.0
  H  H396  1  0.954700  0.987900  0.892100  1.0
  H  H397  1  0.538500  0.434100  0.486600  1.0
  H  H398  1  0.538500  0.565900  0.513400  1.0
  H  H399  1  0.461500  0.565900  0.486600  1.0
  H  H400  1  0.461500  0.434100  0.513400  1.0
  H  H401  1  0.934100  0.961500  0.013400  1.0
  H  H402  1  0.065900  0.961500  0.986600  1.0
  H  H403  1  0.065900  0.038500  0.013400  1.0
  H  H404  1  0.934100  0.038500  0.986600  1.0
  H  H405  1  0.434100  0.486600  0.538500  1.0
  H  H406  1  0.565900  0.513400  0.538500  1.0
  H  H407  1  0.434100  0.513400  0.461500  1.0
  H  H408  1  0.565900  0.486600  0.461500  1.0
  H  H409  1  0.986600  0.065900  0.961500  1.0
  H  H410  1  0.986600  0.934100  0.038500  1.0
  H  H411  1  0.013400  0.934100  0.961500  1.0
  H  H412  1  0.013400  0.065900  0.038500  1.0
  H  H413  1  0.486600  0.538500  0.434100  1.0
  H  H414  1  0.513400  0.538500  0.565900  1.0
  H  H415  1  0.513400  0.461500  0.434100  1.0
  H  H416  1  0.486600  0.461500  0.565900  1.0
  H  H417  1  0.038500  0.986600  0.934100  1.0
  H  H418  1  0.038500  0.013400  0.065900  1.0
  H  H419  1  0.961500  0.986600  0.065900  1.0
  H  H420  1  0.961500  0.013400  0.934100  1.0
  H  H421  1  0.614300  0.356600  0.509400  1.0
  H  H422  1  0.614300  0.643400  0.490600  1.0
  H  H423  1  0.385700  0.643400  0.509400  1.0
  H  H424  1  0.385700  0.356600  0.490600  1.0
  H  H425  1  0.856600  0.885700  0.990600  1.0
  H  H426  1  0.143400  0.885700  0.009400  1.0
  H  H427  1  0.143400  0.114300  0.990600  1.0
  H  H428  1  0.856600  0.114300  0.009400  1.0
  H  H429  1  0.356600  0.509400  0.614300  1.0
  H  H430  1  0.643400  0.490600  0.614300  1.0
  H  H431  1  0.356600  0.490600  0.385700  1.0
  H  H432  1  0.643400  0.509400  0.385700  1.0
  H  H433  1  0.009400  0.143400  0.885700  1.0
  H  H434  1  0.009400  0.856600  0.114300  1.0
  H  H435  1  0.990600  0.856600  0.885700  1.0
  H  H436  1  0.990600  0.143400  0.114300  1.0
  H  H437  1  0.509400  0.614300  0.356600  1.0
  H  H438  1  0.490600  0.614300  0.643400  1.0
  H  H439  1  0.490600  0.385700  0.356600  1.0
  H  H440  1  0.509400  0.385700  0.643400  1.0
  H  H441  1  0.114300  0.009400  0.856600  1.0
  H  H442  1  0.114300  0.990600  0.143400  1.0
  H  H443  1  0.885700  0.009400  0.143400  1.0
  H  H444  1  0.885700  0.990600  0.856600  1.0
  H  H445  1  0.678500  0.476800  0.458000  1.0
  H  H446  1  0.678500  0.523200  0.542000  1.0
  H  H447  1  0.321500  0.523200  0.458000  1.0
  H  H448  1  0.321500  0.476800  0.542000  1.0
  H  H449  1  0.976800  0.821500  0.042000  1.0
  H  H450  1  0.023200  0.821500  0.958000  1.0
  H  H451  1  0.023200  0.178500  0.042000  1.0
  H  H452  1  0.976800  0.178500  0.958000  1.0
  H  H453  1  0.476800  0.458000  0.678500  1.0
  H  H454  1  0.523200  0.542000  0.678500  1.0
  H  H455  1  0.476800  0.542000  0.321500  1.0
  H  H456  1  0.523200  0.458000  0.321500  1.0
  H  H457  1  0.958000  0.023200  0.821500  1.0
  H  H458  1  0.958000  0.976800  0.178500  1.0
  H  H459  1  0.042000  0.976800  0.821500  1.0
  H  H460  1  0.042000  0.023200  0.178500  1.0
  H  H461  1  0.458000  0.678500  0.476800  1.0
  H  H462  1  0.542000  0.678500  0.523200  1.0
  H  H463  1  0.542000  0.321500  0.476800  1.0
  H  H464  1  0.458000  0.321500  0.523200  1.0
  H  H465  1  0.178500  0.958000  0.976800  1.0
  H  H466  1  0.178500  0.042000  0.023200  1.0
  H  H467  1  0.821500  0.958000  0.023200  1.0
  H  H468  1  0.821500  0.042000  0.976800  1.0
  C  C469  1  0.890200  0.182400  0.391120  1.0
  C  C470  1  0.890200  0.817600  0.608880  1.0
  C  C471  1  0.109800  0.817600  0.391120  1.0
  C  C472  1  0.109800  0.182400  0.608880  1.0
  C  C473  1  0.682400  0.609800  0.108880  1.0
  C  C474  1  0.317600  0.609800  0.891120  1.0
  C  C475  1  0.317600  0.390200  0.108880  1.0
  C  C476  1  0.682400  0.390200  0.891120  1.0
  C  C477  1  0.182400  0.391120  0.890200  1.0
  C  C478  1  0.817600  0.608880  0.890200  1.0
  C  C479  1  0.182400  0.608880  0.109800  1.0
  C  C480  1  0.817600  0.391120  0.109800  1.0
  C  C481  1  0.891120  0.317600  0.609800  1.0
  C  C482  1  0.891120  0.682400  0.390200  1.0
  C  C483  1  0.108880  0.682400  0.609800  1.0
  C  C484  1  0.108880  0.317600  0.390200  1.0
  C  C485  1  0.391120  0.890200  0.182400  1.0
  C  C486  1  0.608880  0.890200  0.817600  1.0
  C  C487  1  0.608880  0.109800  0.182400  1.0
  C  C488  1  0.391120  0.109800  0.817600  1.0
  C  C489  1  0.390200  0.891120  0.682400  1.0
  C  C490  1  0.390200  0.108880  0.317600  1.0
  C  C491  1  0.609800  0.891120  0.317600  1.0
  C  C492  1  0.609800  0.108880  0.682400  1.0
  C  C493  1  0.866910  0.185460  0.428280  1.0
  C  C494  1  0.866910  0.814540  0.571720  1.0
  C  C495  1  0.133090  0.814540  0.428280  1.0
  C  C496  1  0.133090  0.185460  0.571720  1.0
  C  C497  1  0.685460  0.633090  0.071720  1.0
  C  C498  1  0.314540  0.633090  0.928280  1.0
  C  C499  1  0.314540  0.366910  0.071720  1.0
  C  C500  1  0.685460  0.366910  0.928280  1.0
  C  C501  1  0.185460  0.428280  0.866910  1.0
  C  C502  1  0.814540  0.571720  0.866910  1.0
  C  C503  1  0.185460  0.571720  0.133090  1.0
  C  C504  1  0.814540  0.428280  0.133090  1.0
  C  C505  1  0.928280  0.314540  0.633090  1.0
  C  C506  1  0.928280  0.685460  0.366910  1.0
  C  C507  1  0.071720  0.685460  0.633090  1.0
  C  C508  1  0.071720  0.314540  0.366910  1.0
  C  C509  1  0.428280  0.866910  0.185460  1.0
  C  C510  1  0.571720  0.866910  0.814540  1.0
  C  C511  1  0.571720  0.133090  0.185460  1.0
  C  C512  1  0.428280  0.133090  0.814540  1.0
  C  C513  1  0.366910  0.928280  0.685460  1.0
  C  C514  1  0.366910  0.071720  0.314540  1.0
  C  C515  1  0.633090  0.928280  0.314540  1.0
  C  C516  1  0.633090  0.071720  0.685460  1.0
  C  C517  1  0.828540  0.164320  0.431970  1.0
  C  C518  1  0.828540  0.835680  0.568030  1.0
  C  C519  1  0.171460  0.835680  0.431970  1.0
  C  C520  1  0.171460  0.164320  0.568030  1.0
  C  C521  1  0.664320  0.671460  0.068030  1.0
  C  C522  1  0.335680  0.671460  0.931970  1.0
  C  C523  1  0.335680  0.328540  0.068030  1.0
  C  C524  1  0.664320  0.328540  0.931970  1.0
  C  C525  1  0.164320  0.431970  0.828540  1.0
  C  C526  1  0.835680  0.568030  0.828540  1.0
  C  C527  1  0.164320  0.568030  0.171460  1.0
  C  C528  1  0.835680  0.431970  0.171460  1.0
  C  C529  1  0.931970  0.335680  0.671460  1.0
  C  C530  1  0.931970  0.664320  0.328540  1.0
  C  C531  1  0.068030  0.664320  0.671460  1.0
  C  C532  1  0.068030  0.335680  0.328540  1.0
  C  C533  1  0.431970  0.828540  0.164320  1.0
  C  C534  1  0.568030  0.828540  0.835680  1.0
  C  C535  1  0.568030  0.171460  0.164320  1.0
  C  C536  1  0.431970  0.171460  0.835680  1.0
  C  C537  1  0.328540  0.931970  0.664320  1.0
  C  C538  1  0.328540  0.068030  0.335680  1.0
  C  C539  1  0.671460  0.931970  0.335680  1.0
  C  C540  1  0.671460  0.068030  0.664320  1.0
  C  C541  1  0.813460  0.140140  0.398510  1.0
  C  C542  1  0.813460  0.859860  0.601490  1.0
  C  C543  1  0.186540  0.859860  0.398510  1.0
  C  C544  1  0.186540  0.140140  0.601490  1.0
  C  C545  1  0.640140  0.686540  0.101490  1.0
  C  C546  1  0.359860  0.686540  0.898510  1.0
  C  C547  1  0.359860  0.313460  0.101490  1.0
  C  C548  1  0.640140  0.313460  0.898510  1.0
  C  C549  1  0.140140  0.398510  0.813460  1.0
  C  C550  1  0.859860  0.601490  0.813460  1.0
  C  C551  1  0.140140  0.601490  0.186540  1.0
  C  C552  1  0.859860  0.398510  0.186540  1.0
  C  C553  1  0.898510  0.359860  0.686540  1.0
  C  C554  1  0.898510  0.640140  0.313460  1.0
  C  C555  1  0.101490  0.640140  0.686540  1.0
  C  C556  1  0.101490  0.359860  0.313460  1.0
  C  C557  1  0.398510  0.813460  0.140140  1.0
  C  C558  1  0.601490  0.813460  0.859860  1.0
  C  C559  1  0.601490  0.186540  0.140140  1.0
  C  C560  1  0.398510  0.186540  0.859860  1.0
  C  C561  1  0.313460  0.898510  0.640140  1.0
  C  C562  1  0.313460  0.101490  0.359860  1.0
  C  C563  1  0.686540  0.898510  0.359860  1.0
  C  C564  1  0.686540  0.101490  0.640140  1.0
  C  C565  1  0.836750  0.137080  0.361350  1.0
  C  C566  1  0.836750  0.862920  0.638650  1.0
  C  C567  1  0.163250  0.862920  0.361350  1.0
  C  C568  1  0.163250  0.137080  0.638650  1.0
  C  C569  1  0.637080  0.663250  0.138650  1.0
  C  C570  1  0.362920  0.663250  0.861350  1.0
  C  C571  1  0.362920  0.336750  0.138650  1.0
  C  C572  1  0.637080  0.336750  0.861350  1.0
  C  C573  1  0.137080  0.361350  0.836750  1.0
  C  C574  1  0.862920  0.638650  0.836750  1.0
  C  C575  1  0.137080  0.638650  0.163250  1.0
  C  C576  1  0.862920  0.361350  0.163250  1.0
  C  C577  1  0.861350  0.362920  0.663250  1.0
  C  C578  1  0.861350  0.637080  0.336750  1.0
  C  C579  1  0.138650  0.637080  0.663250  1.0
  C  C580  1  0.138650  0.362920  0.336750  1.0
  C  C581  1  0.361350  0.836750  0.137080  1.0
  C  C582  1  0.638650  0.836750  0.862920  1.0
  C  C583  1  0.638650  0.163250  0.137080  1.0
  C  C584  1  0.361350  0.163250  0.862920  1.0
  C  C585  1  0.336750  0.861350  0.637080  1.0
  C  C586  1  0.336750  0.138650  0.362920  1.0
  C  C587  1  0.663250  0.861350  0.362920  1.0
  C  C588  1  0.663250  0.138650  0.637080  1.0
  C  C589  1  0.875120  0.158210  0.357650  1.0
  C  C590  1  0.875120  0.841790  0.642350  1.0
  C  C591  1  0.124880  0.841790  0.357650  1.0
  C  C592  1  0.124880  0.158210  0.642350  1.0
  C  C593  1  0.658210  0.624880  0.142350  1.0
  C  C594  1  0.341790  0.624880  0.857650  1.0
  C  C595  1  0.341790  0.375120  0.142350  1.0
  C  C596  1  0.658210  0.375120  0.857650  1.0
  C  C597  1  0.158210  0.357650  0.875120  1.0
  C  C598  1  0.841790  0.642350  0.875120  1.0
  C  C599  1  0.158210  0.642350  0.124880  1.0
  C  C600  1  0.841790  0.357650  0.124880  1.0
  C  C601  1  0.857650  0.341790  0.624880  1.0
  C  C602  1  0.857650  0.658210  0.375120  1.0
  C  C603  1  0.142350  0.658210  0.624880  1.0
  C  C604  1  0.142350  0.341790  0.375120  1.0
  C  C605  1  0.357650  0.875120  0.158210  1.0
  C  C606  1  0.642350  0.875120  0.841790  1.0
  C  C607  1  0.642350  0.124880  0.158210  1.0
  C  C608  1  0.357650  0.124880  0.841790  1.0
  C  C609  1  0.375120  0.857650  0.658210  1.0
  C  C610  1  0.375120  0.142350  0.341790  1.0
  C  C611  1  0.624880  0.857650  0.341790  1.0
  C  C612  1  0.624880  0.142350  0.658210  1.0
  C  C613  1  0.929900  0.206700  0.383400  1.0
  C  C614  1  0.929900  0.793300  0.616600  1.0
  C  C615  1  0.070100  0.793300  0.383400  1.0
  C  C616  1  0.070100  0.206700  0.616600  1.0
  C  C617  1  0.706700  0.570100  0.116600  1.0
  C  C618  1  0.293300  0.570100  0.883400  1.0
  C  C619  1  0.293300  0.429900  0.116600  1.0
  C  C620  1  0.706700  0.429900  0.883400  1.0
  C  C621  1  0.206700  0.383400  0.929900  1.0
  C  C622  1  0.793300  0.616600  0.929900  1.0
  C  C623  1  0.206700  0.616600  0.070100  1.0
  C  C624  1  0.793300  0.383400  0.070100  1.0
  C  C625  1  0.883400  0.293300  0.570100  1.0
  C  C626  1  0.883400  0.706700  0.429900  1.0
  C  C627  1  0.116600  0.706700  0.570100  1.0
  C  C628  1  0.116600  0.293300  0.429900  1.0
  C  C629  1  0.383400  0.929900  0.206700  1.0
  C  C630  1  0.616600  0.929900  0.793300  1.0
  C  C631  1  0.616600  0.070100  0.206700  1.0
  C  C632  1  0.383400  0.070100  0.793300  1.0
  C  C633  1  0.429900  0.883400  0.706700  1.0
  C  C634  1  0.429900  0.116600  0.293300  1.0
  C  C635  1  0.570100  0.883400  0.293300  1.0
  C  C636  1  0.570100  0.116600  0.706700  1.0
  C  C637  1  0.925050  0.249300  0.360960  1.0
  C  C638  1  0.925050  0.750700  0.639040  1.0
  C  C639  1  0.074950  0.750700  0.360960  1.0
  C  C640  1  0.074950  0.249300  0.639040  1.0
  C  C641  1  0.749300  0.574950  0.139040  1.0
  C  C642  1  0.250700  0.574950  0.860960  1.0
  C  C643  1  0.250700  0.425050  0.139040  1.0
  C  C644  1  0.749300  0.425050  0.860960  1.0
  C  C645  1  0.249300  0.360960  0.925050  1.0
  C  C646  1  0.750700  0.639040  0.925050  1.0
  C  C647  1  0.249300  0.639040  0.074950  1.0
  C  C648  1  0.750700  0.360960  0.074950  1.0
  C  C649  1  0.860960  0.250700  0.574950  1.0
  C  C650  1  0.860960  0.749300  0.425050  1.0
  C  C651  1  0.139040  0.749300  0.574950  1.0
  C  C652  1  0.139040  0.250700  0.425050  1.0
  C  C653  1  0.360960  0.925050  0.249300  1.0
  C  C654  1  0.639040  0.925050  0.750700  1.0
  C  C655  1  0.639040  0.074950  0.249300  1.0
  C  C656  1  0.360960  0.074950  0.750700  1.0
  C  C657  1  0.425050  0.860960  0.749300  1.0
  C  C658  1  0.425050  0.139040  0.250700  1.0
  C  C659  1  0.574950  0.860960  0.250700  1.0
  C  C660  1  0.574950  0.139040  0.749300  1.0
  C  C661  1  0.919900  0.248880  0.317310  1.0
  C  C662  1  0.919900  0.751120  0.682690  1.0
  C  C663  1  0.080100  0.751120  0.317310  1.0
  C  C664  1  0.080100  0.248880  0.682690  1.0
  C  C665  1  0.748880  0.580100  0.182690  1.0
  C  C666  1  0.251120  0.580100  0.817310  1.0
  C  C667  1  0.251120  0.419900  0.182690  1.0
  C  C668  1  0.748880  0.419900  0.817310  1.0
  C  C669  1  0.248880  0.317310  0.919900  1.0
  C  C670  1  0.751120  0.682690  0.919900  1.0
  C  C671  1  0.248880  0.682690  0.080100  1.0
  C  C672  1  0.751120  0.317310  0.080100  1.0
  C  C673  1  0.817310  0.251120  0.580100  1.0
  C  C674  1  0.817310  0.748880  0.419900  1.0
  C  C675  1  0.182690  0.748880  0.580100  1.0
  C  C676  1  0.182690  0.251120  0.419900  1.0
  C  C677  1  0.317310  0.919900  0.248880  1.0
  C  C678  1  0.682690  0.919900  0.751120  1.0
  C  C679  1  0.682690  0.080100  0.248880  1.0
  C  C680  1  0.317310  0.080100  0.751120  1.0
  C  C681  1  0.419900  0.817310  0.748880  1.0
  C  C682  1  0.419900  0.182690  0.251120  1.0
  C  C683  1  0.580100  0.817310  0.251120  1.0
  C  C684  1  0.580100  0.182690  0.748880  1.0
  C  C685  1  0.914630  0.286600  0.295430  1.0
  C  C686  1  0.914630  0.713400  0.704570  1.0
  C  C687  1  0.085370  0.713400  0.295430  1.0
  C  C688  1  0.085370  0.286600  0.704570  1.0
  C  C689  1  0.786600  0.585370  0.204570  1.0
  C  C690  1  0.213400  0.585370  0.795430  1.0
  C  C691  1  0.213400  0.414630  0.204570  1.0
  C  C692  1  0.786600  0.414630  0.795430  1.0
  C  C693  1  0.286600  0.295430  0.914630  1.0
  C  C694  1  0.713400  0.704570  0.914630  1.0
  C  C695  1  0.286600  0.704570  0.085370  1.0
  C  C696  1  0.713400  0.295430  0.085370  1.0
  C  C697  1  0.795430  0.213400  0.585370  1.0
  C  C698  1  0.795430  0.786600  0.414630  1.0
  C  C699  1  0.204570  0.786600  0.585370  1.0
  C  C700  1  0.204570  0.213400  0.414630  1.0
  C  C701  1  0.295430  0.914630  0.286600  1.0
  C  C702  1  0.704570  0.914630  0.713400  1.0
  C  C703  1  0.704570  0.085370  0.286600  1.0
  C  C704  1  0.295430  0.085370  0.713400  1.0
  C  C705  1  0.414630  0.795430  0.786600  1.0
  C  C706  1  0.414630  0.204570  0.213400  1.0
  C  C707  1  0.585370  0.795430  0.213400  1.0
  C  C708  1  0.585370  0.204570  0.786600  1.0
  C  C709  1  0.914490  0.324830  0.317200  1.0
  C  C710  1  0.914490  0.675170  0.682800  1.0
  C  C711  1  0.085510  0.675170  0.317200  1.0
  C  C712  1  0.085510  0.324830  0.682800  1.0
  C  C713  1  0.824830  0.585510  0.182800  1.0
  C  C714  1  0.175170  0.585510  0.817200  1.0
  C  C715  1  0.175170  0.414490  0.182800  1.0
  C  C716  1  0.824830  0.414490  0.817200  1.0
  C  C717  1  0.324830  0.317200  0.914490  1.0
  C  C718  1  0.675170  0.682800  0.914490  1.0
  C  C719  1  0.324830  0.682800  0.085510  1.0
  C  C720  1  0.675170  0.317200  0.085510  1.0
  C  C721  1  0.817200  0.175170  0.585510  1.0
  C  C722  1  0.817200  0.824830  0.414490  1.0
  C  C723  1  0.182800  0.824830  0.585510  1.0
  C  C724  1  0.182800  0.175170  0.414490  1.0
  C  C725  1  0.317200  0.914490  0.324830  1.0
  C  C726  1  0.682800  0.914490  0.675170  1.0
  C  C727  1  0.682800  0.085510  0.324830  1.0
  C  C728  1  0.317200  0.085510  0.675170  1.0
  C  C729  1  0.414490  0.817200  0.824830  1.0
  C  C730  1  0.414490  0.182800  0.175170  1.0
  C  C731  1  0.585510  0.817200  0.175170  1.0
  C  C732  1  0.585510  0.182800  0.824830  1.0
  C  C733  1  0.919630  0.325250  0.360900  1.0
  C  C734  1  0.919630  0.674750  0.639100  1.0
  C  C735  1  0.080370  0.674750  0.360900  1.0
  C  C736  1  0.080370  0.325250  0.639100  1.0
  C  C737  1  0.825250  0.580370  0.139100  1.0
  C  C738  1  0.174750  0.580370  0.860900  1.0
  C  C739  1  0.174750  0.419630  0.139100  1.0
  C  C740  1  0.825250  0.419630  0.860900  1.0
  C  C741  1  0.325250  0.360900  0.919630  1.0
  C  C742  1  0.674750  0.639100  0.919630  1.0
  C  C743  1  0.325250  0.639100  0.080370  1.0
  C  C744  1  0.674750  0.360900  0.080370  1.0
  C  C745  1  0.860900  0.174750  0.580370  1.0
  C  C746  1  0.860900  0.825250  0.419630  1.0
  C  C747  1  0.139100  0.825250  0.580370  1.0
  C  C748  1  0.139100  0.174750  0.419630  1.0
  C  C749  1  0.360900  0.919630  0.325250  1.0
  C  C750  1  0.639100  0.919630  0.674750  1.0
  C  C751  1  0.639100  0.080370  0.325250  1.0
  C  C752  1  0.360900  0.080370  0.674750  1.0
  C  C753  1  0.419630  0.860900  0.825250  1.0
  C  C754  1  0.419630  0.139100  0.174750  1.0
  C  C755  1  0.580370  0.860900  0.174750  1.0
  C  C756  1  0.580370  0.139100  0.825250  1.0
  C  C757  1  0.924910  0.287500  0.382750  1.0
  C  C758  1  0.924910  0.712500  0.617250  1.0
  C  C759  1  0.075090  0.712500  0.382750  1.0
  C  C760  1  0.075090  0.287500  0.617250  1.0
  C  C761  1  0.787500  0.575090  0.117250  1.0
  C  C762  1  0.212500  0.575090  0.882750  1.0
  C  C763  1  0.212500  0.424910  0.117250  1.0
  C  C764  1  0.787500  0.424910  0.882750  1.0
  C  C765  1  0.287500  0.382750  0.924910  1.0
  C  C766  1  0.712500  0.617250  0.924910  1.0
  C  C767  1  0.287500  0.617250  0.075090  1.0
  C  C768  1  0.712500  0.382750  0.075090  1.0
  C  C769  1  0.882750  0.212500  0.575090  1.0
  C  C770  1  0.882750  0.787500  0.424910  1.0
  C  C771  1  0.117250  0.787500  0.575090  1.0
  C  C772  1  0.117250  0.212500  0.424910  1.0
  C  C773  1  0.382750  0.924910  0.287500  1.0
  C  C774  1  0.617250  0.924910  0.712500  1.0
  C  C775  1  0.617250  0.075090  0.287500  1.0
  C  C776  1  0.382750  0.075090  0.712500  1.0
  C  C777  1  0.424910  0.882750  0.787500  1.0
  C  C778  1  0.424910  0.117250  0.212500  1.0
  C  C779  1  0.575090  0.882750  0.212500  1.0
  C  C780  1  0.575090  0.117250  0.787500  1.0
  C  C781  1  0.885530  0.294900  0.451960  1.0
  C  C782  1  0.885530  0.705100  0.548040  1.0
  C  C783  1  0.114470  0.705100  0.451960  1.0
  C  C784  1  0.114470  0.294900  0.548040  1.0
  C  C785  1  0.794900  0.614470  0.048040  1.0
  C  C786  1  0.205100  0.614470  0.951960  1.0
  C  C787  1  0.205100  0.385530  0.048040  1.0
  C  C788  1  0.794900  0.385530  0.951960  1.0
  C  C789  1  0.294900  0.451960  0.885530  1.0
  C  C790  1  0.705100  0.548040  0.885530  1.0
  C  C791  1  0.294900  0.548040  0.114470  1.0
  C  C792  1  0.705100  0.451960  0.114470  1.0
  C  C793  1  0.951960  0.205100  0.614470  1.0
  C  C794  1  0.951960  0.794900  0.385530  1.0
  C  C795  1  0.048040  0.794900  0.614470  1.0
  C  C796  1  0.048040  0.205100  0.385530  1.0
  C  C797  1  0.451960  0.885530  0.294900  1.0
  C  C798  1  0.548040  0.885530  0.705100  1.0
  C  C799  1  0.548040  0.114470  0.294900  1.0
  C  C800  1  0.451960  0.114470  0.705100  1.0
  C  C801  1  0.385530  0.951960  0.794900  1.0
  C  C802  1  0.385530  0.048040  0.205100  1.0
  C  C803  1  0.614470  0.951960  0.205100  1.0
  C  C804  1  0.614470  0.048040  0.794900  1.0
  C  C805  1  0.866910  0.334660  0.454710  1.0
  C  C806  1  0.866910  0.665340  0.545290  1.0
  C  C807  1  0.133090  0.665340  0.454710  1.0
  C  C808  1  0.133090  0.334660  0.545290  1.0
  C  C809  1  0.834660  0.633090  0.045290  1.0
  C  C810  1  0.165340  0.633090  0.954710  1.0
  C  C811  1  0.165340  0.366910  0.045290  1.0
  C  C812  1  0.834660  0.366910  0.954710  1.0
  C  C813  1  0.334660  0.454710  0.866910  1.0
  C  C814  1  0.665340  0.545290  0.866910  1.0
  C  C815  1  0.334660  0.545290  0.133090  1.0
  C  C816  1  0.665340  0.454710  0.133090  1.0
  C  C817  1  0.954710  0.165340  0.633090  1.0
  C  C818  1  0.954710  0.834660  0.366910  1.0
  C  C819  1  0.045290  0.834660  0.633090  1.0
  C  C820  1  0.045290  0.165340  0.366910  1.0
  C  C821  1  0.454710  0.866910  0.334660  1.0
  C  C822  1  0.545290  0.866910  0.665340  1.0
  C  C823  1  0.545290  0.133090  0.334660  1.0
  C  C824  1  0.454710  0.133090  0.665340  1.0
  C  C825  1  0.366910  0.954710  0.834660  1.0
  C  C826  1  0.366910  0.045290  0.165340  1.0
  C  C827  1  0.633090  0.954710  0.165340  1.0
  C  C828  1  0.633090  0.045290  0.834660  1.0
  C  C829  1  0.826160  0.338770  0.470690  1.0
  C  C830  1  0.826160  0.661230  0.529310  1.0
  C  C831  1  0.173840  0.661230  0.470690  1.0
  C  C832  1  0.173840  0.338770  0.529310  1.0
  C  C833  1  0.838770  0.673840  0.029310  1.0
  C  C834  1  0.161230  0.673840  0.970690  1.0
  C  C835  1  0.161230  0.326160  0.029310  1.0
  C  C836  1  0.838770  0.326160  0.970690  1.0
  C  C837  1  0.338770  0.470690  0.826160  1.0
  C  C838  1  0.661230  0.529310  0.826160  1.0
  C  C839  1  0.338770  0.529310  0.173840  1.0
  C  C840  1  0.661230  0.470690  0.173840  1.0
  C  C841  1  0.970690  0.161230  0.673840  1.0
  C  C842  1  0.970690  0.838770  0.326160  1.0
  C  C843  1  0.029310  0.838770  0.673840  1.0
  C  C844  1  0.029310  0.161230  0.326160  1.0
  C  C845  1  0.470690  0.826160  0.338770  1.0
  C  C846  1  0.529310  0.826160  0.661230  1.0
  C  C847  1  0.529310  0.173840  0.338770  1.0
  C  C848  1  0.470690  0.173840  0.661230  1.0
  C  C849  1  0.326160  0.970690  0.838770  1.0
  C  C850  1  0.326160  0.029310  0.161230  1.0
  C  C851  1  0.673840  0.970690  0.161230  1.0
  C  C852  1  0.673840  0.029310  0.838770  1.0
  C  C853  1  0.804030  0.303160  0.483920  1.0
  C  C854  1  0.804030  0.696840  0.516080  1.0
  C  C855  1  0.195970  0.696840  0.483920  1.0
  C  C856  1  0.195970  0.303160  0.516080  1.0
  C  C857  1  0.803160  0.695970  0.016080  1.0
  C  C858  1  0.196840  0.695970  0.983920  1.0
  C  C859  1  0.196840  0.304030  0.016080  1.0
  C  C860  1  0.803160  0.304030  0.983920  1.0
  C  C861  1  0.303160  0.483920  0.804030  1.0
  C  C862  1  0.696840  0.516080  0.804030  1.0
  C  C863  1  0.303160  0.516080  0.195970  1.0
  C  C864  1  0.696840  0.483920  0.195970  1.0
  C  C865  1  0.983920  0.196840  0.695970  1.0
  C  C866  1  0.983920  0.803160  0.304030  1.0
  C  C867  1  0.016080  0.803160  0.695970  1.0
  C  C868  1  0.016080  0.196840  0.304030  1.0
  C  C869  1  0.483920  0.804030  0.303160  1.0
  C  C870  1  0.516080  0.804030  0.696840  1.0
  C  C871  1  0.516080  0.195970  0.303160  1.0
  C  C872  1  0.483920  0.195970  0.696840  1.0
  C  C873  1  0.304030  0.983920  0.803160  1.0
  C  C874  1  0.304030  0.016080  0.196840  1.0
  C  C875  1  0.695970  0.983920  0.196840  1.0
  C  C876  1  0.695970  0.016080  0.803160  1.0
  C  C877  1  0.822650  0.263430  0.481170  1.0
  C  C878  1  0.822650  0.736570  0.518830  1.0
  C  C879  1  0.177350  0.736570  0.481170  1.0
  C  C880  1  0.177350  0.263430  0.518830  1.0
  C  C881  1  0.763430  0.677350  0.018830  1.0
  C  C882  1  0.236570  0.677350  0.981170  1.0
  C  C883  1  0.236570  0.322650  0.018830  1.0
  C  C884  1  0.763430  0.322650  0.981170  1.0
  C  C885  1  0.263430  0.481170  0.822650  1.0
  C  C886  1  0.736570  0.518830  0.822650  1.0
  C  C887  1  0.263430  0.518830  0.177350  1.0
  C  C888  1  0.736570  0.481170  0.177350  1.0
  C  C889  1  0.981170  0.236570  0.677350  1.0
  C  C890  1  0.981170  0.763430  0.322650  1.0
  C  C891  1  0.018830  0.763430  0.677350  1.0
  C  C892  1  0.018830  0.236570  0.322650  1.0
  C  C893  1  0.481170  0.822650  0.263430  1.0
  C  C894  1  0.518830  0.822650  0.736570  1.0
  C  C895  1  0.518830  0.177350  0.263430  1.0
  C  C896  1  0.481170  0.177350  0.736570  1.0
  C  C897  1  0.322650  0.981170  0.763430  1.0
  C  C898  1  0.322650  0.018830  0.236570  1.0
  C  C899  1  0.677350  0.981170  0.236570  1.0
  C  C900  1  0.677350  0.018830  0.763430  1.0
  C  C901  1  0.863400  0.259320  0.465190  1.0
  C  C902  1  0.863400  0.740680  0.534810  1.0
  C  C903  1  0.136600  0.740680  0.465190  1.0
  C  C904  1  0.136600  0.259320  0.534810  1.0
  C  C905  1  0.759320  0.636600  0.034810  1.0
  C  C906  1  0.240680  0.636600  0.965190  1.0
  C  C907  1  0.240680  0.363400  0.034810  1.0
  C  C908  1  0.759320  0.363400  0.965190  1.0
  C  C909  1  0.259320  0.465190  0.863400  1.0
  C  C910  1  0.740680  0.534810  0.863400  1.0
  C  C911  1  0.259320  0.534810  0.136600  1.0
  C  C912  1  0.740680  0.465190  0.136600  1.0
  C  C913  1  0.965190  0.240680  0.636600  1.0
  C  C914  1  0.965190  0.759320  0.363400  1.0
  C  C915  1  0.034810  0.759320  0.636600  1.0
  C  C916  1  0.034810  0.240680  0.363400  1.0
  C  C917  1  0.465190  0.863400  0.259320  1.0
  C  C918  1  0.534810  0.863400  0.740680  1.0
  C  C919  1  0.534810  0.136600  0.259320  1.0
  C  C920  1  0.465190  0.136600  0.740680  1.0
  C  C921  1  0.363400  0.965190  0.759320  1.0
  C  C922  1  0.363400  0.034810  0.240680  1.0
  C  C923  1  0.636600  0.965190  0.240680  1.0
  C  C924  1  0.636600  0.034810  0.759320  1.0
  C  C925  1  0.928400  0.290800  0.430600  1.0
  C  C926  1  0.928400  0.709200  0.569400  1.0
  C  C927  1  0.071600  0.709200  0.430600  1.0
  C  C928  1  0.071600  0.290800  0.569400  1.0
  C  C929  1  0.790800  0.571600  0.069400  1.0
  C  C930  1  0.209200  0.571600  0.930600  1.0
  C  C931  1  0.209200  0.428400  0.069400  1.0
  C  C932  1  0.790800  0.428400  0.930600  1.0
  C  C933  1  0.290800  0.430600  0.928400  1.0
  C  C934  1  0.709200  0.569400  0.928400  1.0
  C  C935  1  0.290800  0.569400  0.071600  1.0
  C  C936  1  0.709200  0.430600  0.071600  1.0
  C  C937  1  0.930600  0.209200  0.571600  1.0
  C  C938  1  0.930600  0.790800  0.428400  1.0
  C  C939  1  0.069400  0.790800  0.571600  1.0
  C  C940  1  0.069400  0.209200  0.428400  1.0
  C  C941  1  0.430600  0.928400  0.290800  1.0
  C  C942  1  0.569400  0.928400  0.709200  1.0
  C  C943  1  0.569400  0.071600  0.290800  1.0
  C  C944  1  0.430600  0.071600  0.709200  1.0
  C  C945  1  0.428400  0.930600  0.790800  1.0
  C  C946  1  0.428400  0.069400  0.209200  1.0
  C  C947  1  0.571600  0.930600  0.209200  1.0
  C  C948  1  0.571600  0.069400  0.790800  1.0
  C  C949  1  0.880300  0.214800  0.464800  1.0
  C  C950  1  0.880300  0.785200  0.535200  1.0
  C  C951  1  0.119700  0.785200  0.464800  1.0
  C  C952  1  0.119700  0.214800  0.535200  1.0
  C  C953  1  0.714800  0.619700  0.035200  1.0
  C  C954  1  0.285200  0.619700  0.964800  1.0
  C  C955  1  0.285200  0.380300  0.035200  1.0
  C  C956  1  0.714800  0.380300  0.964800  1.0
  C  C957  1  0.214800  0.464800  0.880300  1.0
  C  C958  1  0.785200  0.535200  0.880300  1.0
  C  C959  1  0.214800  0.535200  0.119700  1.0
  C  C960  1  0.785200  0.464800  0.119700  1.0
  C  C961  1  0.964800  0.285200  0.619700  1.0
  C  C962  1  0.964800  0.714800  0.380300  1.0
  C  C963  1  0.035200  0.714800  0.619700  1.0
  C  C964  1  0.035200  0.285200  0.380300  1.0
  C  C965  1  0.464800  0.880300  0.214800  1.0
  C  C966  1  0.535200  0.880300  0.785200  1.0
  C  C967  1  0.535200  0.119700  0.214800  1.0
  C  C968  1  0.464800  0.119700  0.785200  1.0
  C  C969  1  0.380300  0.964800  0.714800  1.0
  C  C970  1  0.380300  0.035200  0.285200  1.0
  C  C971  1  0.619700  0.964800  0.285200  1.0
  C  C972  1  0.619700  0.035200  0.714800  1.0
  C  C973  1  0.552000  0.406530  0.485900  1.0
  C  C974  1  0.552000  0.593470  0.514100  1.0
  C  C975  1  0.448000  0.593470  0.485900  1.0
  C  C976  1  0.448000  0.406530  0.514100  1.0
  C  C977  1  0.906530  0.948000  0.014100  1.0
  C  C978  1  0.093470  0.948000  0.985900  1.0
  C  C979  1  0.093470  0.052000  0.014100  1.0
  C  C980  1  0.906530  0.052000  0.985900  1.0
  C  C981  1  0.406530  0.485900  0.552000  1.0
  C  C982  1  0.593470  0.514100  0.552000  1.0
  C  C983  1  0.406530  0.514100  0.448000  1.0
  C  C984  1  0.593470  0.485900  0.448000  1.0
  C  C985  1  0.985900  0.093470  0.948000  1.0
  C  C986  1  0.985900  0.906530  0.052000  1.0
  C  C987  1  0.014100  0.906530  0.948000  1.0
  C  C988  1  0.014100  0.093470  0.052000  1.0
  C  C989  1  0.485900  0.552000  0.406530  1.0
  C  C990  1  0.514100  0.552000  0.593470  1.0
  C  C991  1  0.514100  0.448000  0.406530  1.0
  C  C992  1  0.485900  0.448000  0.593470  1.0
  C  C993  1  0.052000  0.985900  0.906530  1.0
  C  C994  1  0.052000  0.014100  0.093470  1.0
  C  C995  1  0.948000  0.985900  0.093470  1.0
  C  C996  1  0.948000  0.014100  0.906530  1.0
  C  C997  1  0.600600  0.412500  0.482820  1.0
  C  C998  1  0.600600  0.587500  0.517180  1.0
  C  C999  1  0.399400  0.587500  0.482820  1.0
  C  C1000  1  0.399400  0.412500  0.517180  1.0
  C  C1001  1  0.912500  0.899400  0.017180  1.0
  C  C1002  1  0.087500  0.899400  0.982820  1.0
  C  C1003  1  0.087500  0.100600  0.017180  1.0
  C  C1004  1  0.912500  0.100600  0.982820  1.0
  C  C1005  1  0.412500  0.482820  0.600600  1.0
  C  C1006  1  0.587500  0.517180  0.600600  1.0
  C  C1007  1  0.412500  0.517180  0.399400  1.0
  C  C1008  1  0.587500  0.482820  0.399400  1.0
  C  C1009  1  0.982820  0.087500  0.899400  1.0
  C  C1010  1  0.982820  0.912500  0.100600  1.0
  C  C1011  1  0.017180  0.912500  0.899400  1.0
  C  C1012  1  0.017180  0.087500  0.100600  1.0
  C  C1013  1  0.482820  0.600600  0.412500  1.0
  C  C1014  1  0.517180  0.600600  0.587500  1.0
  C  C1015  1  0.517180  0.399400  0.412500  1.0
  C  C1016  1  0.482820  0.399400  0.587500  1.0
  C  C1017  1  0.100600  0.982820  0.912500  1.0
  C  C1018  1  0.100600  0.017180  0.087500  1.0
  C  C1019  1  0.899400  0.982820  0.087500  1.0
  C  C1020  1  0.899400  0.017180  0.912500  1.0
  C  C1021  1  0.626750  0.380600  0.497800  1.0
  C  C1022  1  0.626750  0.619400  0.502200  1.0
  C  C1023  1  0.373250  0.619400  0.497800  1.0
  C  C1024  1  0.373250  0.380600  0.502200  1.0
  C  C1025  1  0.880600  0.873250  0.002200  1.0
  C  C1026  1  0.119400  0.873250  0.997800  1.0
  C  C1027  1  0.119400  0.126750  0.002200  1.0
  C  C1028  1  0.880600  0.126750  0.997800  1.0
  C  C1029  1  0.380600  0.497800  0.626750  1.0
  C  C1030  1  0.619400  0.502200  0.626750  1.0
  C  C1031  1  0.380600  0.502200  0.373250  1.0
  C  C1032  1  0.619400  0.497800  0.373250  1.0
  C  C1033  1  0.997800  0.119400  0.873250  1.0
  C  C1034  1  0.997800  0.880600  0.126750  1.0
  C  C1035  1  0.002200  0.880600  0.873250  1.0
  C  C1036  1  0.002200  0.119400  0.126750  1.0
  C  C1037  1  0.497800  0.626750  0.380600  1.0
  C  C1038  1  0.502200  0.626750  0.619400  1.0
  C  C1039  1  0.502200  0.373250  0.380600  1.0
  C  C1040  1  0.497800  0.373250  0.619400  1.0
  C  C1041  1  0.126750  0.997800  0.880600  1.0
  C  C1042  1  0.126750  0.002200  0.119400  1.0
  C  C1043  1  0.873250  0.997800  0.119400  1.0
  C  C1044  1  0.873250  0.002200  0.880600  1.0
  C  C1045  1  0.668300  0.382800  0.496500  1.0
  C  C1046  1  0.668300  0.617200  0.503500  1.0
  C  C1047  1  0.331700  0.617200  0.496500  1.0
  C  C1048  1  0.331700  0.382800  0.503500  1.0
  C  C1049  1  0.882800  0.831700  0.003500  1.0
  C  C1050  1  0.117200  0.831700  0.996500  1.0
  C  C1051  1  0.117200  0.168300  0.003500  1.0
  C  C1052  1  0.882800  0.168300  0.996500  1.0
  C  C1053  1  0.382800  0.496500  0.668300  1.0
  C  C1054  1  0.617200  0.503500  0.668300  1.0
  C  C1055  1  0.382800  0.503500  0.331700  1.0
  C  C1056  1  0.617200  0.496500  0.331700  1.0
  C  C1057  1  0.996500  0.117200  0.831700  1.0
  C  C1058  1  0.996500  0.882800  0.168300  1.0
  C  C1059  1  0.003500  0.882800  0.831700  1.0
  C  C1060  1  0.003500  0.117200  0.168300  1.0
  C  C1061  1  0.496500  0.668300  0.382800  1.0
  C  C1062  1  0.503500  0.668300  0.617200  1.0
  C  C1063  1  0.503500  0.331700  0.382800  1.0
  C  C1064  1  0.496500  0.331700  0.617200  1.0
  C  C1065  1  0.168300  0.996500  0.882800  1.0
  C  C1066  1  0.168300  0.003500  0.117200  1.0
  C  C1067  1  0.831700  0.996500  0.117200  1.0
  C  C1068  1  0.831700  0.003500  0.882800  1.0
  C  C1069  1  0.687300  0.418300  0.479800  1.0
  C  C1070  1  0.687300  0.581700  0.520200  1.0
  C  C1071  1  0.312700  0.581700  0.479800  1.0
  C  C1072  1  0.312700  0.418300  0.520200  1.0
  C  C1073  1  0.918300  0.812700  0.020200  1.0
  C  C1074  1  0.081700  0.812700  0.979800  1.0
  C  C1075  1  0.081700  0.187300  0.020200  1.0
  C  C1076  1  0.918300  0.187300  0.979800  1.0
  C  C1077  1  0.418300  0.479800  0.687300  1.0
  C  C1078  1  0.581700  0.520200  0.687300  1.0
  C  C1079  1  0.418300  0.520200  0.312700  1.0
  C  C1080  1  0.581700  0.479800  0.312700  1.0
  C  C1081  1  0.979800  0.081700  0.812700  1.0
  C  C1082  1  0.979800  0.918300  0.187300  1.0
  C  C1083  1  0.020200  0.918300  0.812700  1.0
  C  C1084  1  0.020200  0.081700  0.187300  1.0
  C  C1085  1  0.479800  0.687300  0.418300  1.0
  C  C1086  1  0.520200  0.687300  0.581700  1.0
  C  C1087  1  0.520200  0.312700  0.418300  1.0
  C  C1088  1  0.479800  0.312700  0.581700  1.0
  C  C1089  1  0.187300  0.979800  0.918300  1.0
  C  C1090  1  0.187300  0.020200  0.081700  1.0
  C  C1091  1  0.812700  0.979800  0.081700  1.0
  C  C1092  1  0.812700  0.020200  0.918300  1.0
  C  C1093  1  0.664900  0.452100  0.466500  1.0
  C  C1094  1  0.664900  0.547900  0.533500  1.0
  C  C1095  1  0.335100  0.547900  0.466500  1.0
  C  C1096  1  0.335100  0.452100  0.533500  1.0
  C  C1097  1  0.952100  0.835100  0.033500  1.0
  C  C1098  1  0.047900  0.835100  0.966500  1.0
  C  C1099  1  0.047900  0.164900  0.033500  1.0
  C  C1100  1  0.952100  0.164900  0.966500  1.0
  C  C1101  1  0.452100  0.466500  0.664900  1.0
  C  C1102  1  0.547900  0.533500  0.664900  1.0
  C  C1103  1  0.452100  0.533500  0.335100  1.0
  C  C1104  1  0.547900  0.466500  0.335100  1.0
  C  C1105  1  0.966500  0.047900  0.835100  1.0
  C  C1106  1  0.966500  0.952100  0.164900  1.0
  C  C1107  1  0.033500  0.952100  0.835100  1.0
  C  C1108  1  0.033500  0.047900  0.164900  1.0
  C  C1109  1  0.466500  0.664900  0.452100  1.0
  C  C1110  1  0.533500  0.664900  0.547900  1.0
  C  C1111  1  0.533500  0.335100  0.452100  1.0
  C  C1112  1  0.466500  0.335100  0.547900  1.0
  C  C1113  1  0.164900  0.966500  0.952100  1.0
  C  C1114  1  0.164900  0.033500  0.047900  1.0
  C  C1115  1  0.835100  0.966500  0.047900  1.0
  C  C1116  1  0.835100  0.033500  0.952100  1.0
  C  C1117  1  0.618700  0.449000  0.465840  1.0
  C  C1118  1  0.618700  0.551000  0.534160  1.0
  C  C1119  1  0.381300  0.551000  0.465840  1.0
  C  C1120  1  0.381300  0.449000  0.534160  1.0
  C  C1121  1  0.949000  0.881300  0.034160  1.0
  C  C1122  1  0.051000  0.881300  0.965840  1.0
  C  C1123  1  0.051000  0.118700  0.034160  1.0
  C  C1124  1  0.949000  0.118700  0.965840  1.0
  C  C1125  1  0.449000  0.465840  0.618700  1.0
  C  C1126  1  0.551000  0.534160  0.618700  1.0
  C  C1127  1  0.449000  0.534160  0.381300  1.0
  C  C1128  1  0.551000  0.465840  0.381300  1.0
  C  C1129  1  0.965840  0.051000  0.881300  1.0
  C  C1130  1  0.965840  0.949000  0.118700  1.0
  C  C1131  1  0.034160  0.949000  0.881300  1.0
  C  C1132  1  0.034160  0.051000  0.118700  1.0
  C  C1133  1  0.465840  0.618700  0.449000  1.0
  C  C1134  1  0.534160  0.618700  0.551000  1.0
  C  C1135  1  0.534160  0.381300  0.449000  1.0
  C  C1136  1  0.465840  0.381300  0.551000  1.0
  C  C1137  1  0.118700  0.965840  0.949000  1.0
  C  C1138  1  0.118700  0.034160  0.051000  1.0
  C  C1139  1  0.881300  0.965840  0.051000  1.0
  C  C1140  1  0.881300  0.034160  0.949000  1.0
  O  O1141  1  0.500000  0.500000  0.229900  1
  O  O1142  1  0.500000  0.500000  0.770100  1
  O  O1143  1  0.000000  0.000000  0.270100  1
  O  O1144  1  0.000000  0.000000  0.729900  1
  O  O1145  1  0.500000  0.229900  0.500000  1
  O  O1146  1  0.500000  0.770100  0.500000  1
  O  O1147  1  0.729900  0.000000  0.000000  1
  O  O1148  1  0.270100  0.000000  0.000000  1
  O  O1149  1  0.229900  0.500000  0.500000  1
  O  O1150  1  0.770100  0.500000  0.500000  1
  O  O1151  1  0.000000  0.729900  0.000000  1
  O  O1152  1  0.000000  0.270100  0.000000  1
  O  O1153  1  0.500000  0.500000  0.096800  1
  O  O1154  1  0.500000  0.500000  0.903200  1
  O  O1155  1  0.000000  0.000000  0.403200  1
  O  O1156  1  0.000000  0.000000  0.596800  1
  O  O1157  1  0.500000  0.096800  0.500000  1
  O  O1158  1  0.500000  0.903200  0.500000  1
  O  O1159  1  0.596800  0.000000  0.000000  1
  O  O1160  1  0.403200  0.000000  0.000000  1
  O  O1161  1  0.096800  0.500000  0.500000  1
  O  O1162  1  0.903200  0.500000  0.500000  1
  O  O1163  1  0.000000  0.596800  0.000000  1
  O  O1164  1  0.000000  0.403200  0.000000  1
  O  O1165  1  0.546300  0.457300  0.160100  1.0
  O  O1166  1  0.546300  0.542700  0.839900  1.0
  O  O1167  1  0.453700  0.542700  0.160100  1.0
  O  O1168  1  0.453700  0.457300  0.839900  1.0
  O  O1169  1  0.957300  0.953700  0.339900  1.0
  O  O1170  1  0.042700  0.953700  0.660100  1.0
  O  O1171  1  0.042700  0.046300  0.339900  1.0
  O  O1172  1  0.957300  0.046300  0.660100  1.0
  O  O1173  1  0.457300  0.160100  0.546300  1.0
  O  O1174  1  0.542700  0.839900  0.546300  1.0
  O  O1175  1  0.457300  0.839900  0.453700  1.0
  O  O1176  1  0.542700  0.160100  0.453700  1.0
  O  O1177  1  0.660100  0.042700  0.953700  1.0
  O  O1178  1  0.660100  0.957300  0.046300  1.0
  O  O1179  1  0.339900  0.957300  0.953700  1.0
  O  O1180  1  0.339900  0.042700  0.046300  1.0
  O  O1181  1  0.160100  0.546300  0.457300  1.0
  O  O1182  1  0.839900  0.546300  0.542700  1.0
  O  O1183  1  0.839900  0.453700  0.457300  1.0
  O  O1184  1  0.160100  0.453700  0.542700  1.0
  O  O1185  1  0.046300  0.660100  0.957300  1.0
  O  O1186  1  0.046300  0.339900  0.042700  1.0
  O  O1187  1  0.953700  0.660100  0.042700  1.0
  O  O1188  1  0.953700  0.339900  0.957300  1.0
  O  O1189  1  0.549800  0.548000  0.165200  1.0
  O  O1190  1  0.549800  0.452000  0.834800  1.0
  O  O1191  1  0.450200  0.452000  0.165200  1.0
  O  O1192  1  0.450200  0.548000  0.834800  1.0
  O  O1193  1  0.048000  0.950200  0.334800  1.0
  O  O1194  1  0.952000  0.950200  0.665200  1.0
  O  O1195  1  0.952000  0.049800  0.334800  1.0
  O  O1196  1  0.048000  0.049800  0.665200  1.0
  O  O1197  1  0.548000  0.165200  0.549800  1.0
  O  O1198  1  0.452000  0.834800  0.549800  1.0
  O  O1199  1  0.548000  0.834800  0.450200  1.0
  O  O1200  1  0.452000  0.165200  0.450200  1.0
  O  O1201  1  0.665200  0.952000  0.950200  1.0
  O  O1202  1  0.665200  0.048000  0.049800  1.0
  O  O1203  1  0.334800  0.048000  0.950200  1.0
  O  O1204  1  0.334800  0.952000  0.049800  1.0
  O  O1205  1  0.165200  0.549800  0.548000  1.0
  O  O1206  1  0.834800  0.549800  0.452000  1.0
  O  O1207  1  0.834800  0.450200  0.548000  1.0
  O  O1208  1  0.165200  0.450200  0.452000  1.0
  O  O1209  1  0.049800  0.665200  0.048000  1.0
  O  O1210  1  0.049800  0.334800  0.952000  1.0
  O  O1211  1  0.950200  0.665200  0.952000  1.0
  O  O1212  1  0.950200  0.334800  0.048000  1.0
  O  O1213  1  0.818030  0.112280  0.329520  1.0
  O  O1214  1  0.818030  0.887720  0.670480  1.0
  O  O1215  1  0.181970  0.887720  0.329520  1.0
  O  O1216  1  0.181970  0.112280  0.670480  1.0
  O  O1217  1  0.612280  0.681970  0.170480  1.0
  O  O1218  1  0.387720  0.681970  0.829520  1.0
  O  O1219  1  0.387720  0.318030  0.170480  1.0
  O  O1220  1  0.612280  0.318030  0.829520  1.0
  O  O1221  1  0.112280  0.329520  0.818030  1.0
  O  O1222  1  0.887720  0.670480  0.818030  1.0
  O  O1223  1  0.112280  0.670480  0.181970  1.0
  O  O1224  1  0.887720  0.329520  0.181970  1.0
  O  O1225  1  0.829520  0.387720  0.681970  1.0
  O  O1226  1  0.829520  0.612280  0.318030  1.0
  O  O1227  1  0.170480  0.612280  0.681970  1.0
  O  O1228  1  0.170480  0.387720  0.318030  1.0
  O  O1229  1  0.329520  0.818030  0.112280  1.0
  O  O1230  1  0.670480  0.818030  0.887720  1.0
  O  O1231  1  0.670480  0.181970  0.112280  1.0
  O  O1232  1  0.329520  0.181970  0.887720  1.0
  O  O1233  1  0.318030  0.829520  0.612280  1.0
  O  O1234  1  0.318030  0.170480  0.387720  1.0
  O  O1235  1  0.681970  0.829520  0.387720  1.0
  O  O1236  1  0.681970  0.170480  0.612280  1.0
  O  O1237  1  0.775910  0.117630  0.399470  1.0
  O  O1238  1  0.775910  0.882370  0.600530  1.0
  O  O1239  1  0.224090  0.882370  0.399470  1.0
  O  O1240  1  0.224090  0.117630  0.600530  1.0
  O  O1241  1  0.617630  0.724090  0.100530  1.0
  O  O1242  1  0.382370  0.724090  0.899470  1.0
  O  O1243  1  0.382370  0.275910  0.100530  1.0
  O  O1244  1  0.617630  0.275910  0.899470  1.0
  O  O1245  1  0.117630  0.399470  0.775910  1.0
  O  O1246  1  0.882370  0.600530  0.775910  1.0
  O  O1247  1  0.117630  0.600530  0.224090  1.0
  O  O1248  1  0.882370  0.399470  0.224090  1.0
  O  O1249  1  0.899470  0.382370  0.724090  1.0
  O  O1250  1  0.899470  0.617630  0.275910  1.0
  O  O1251  1  0.100530  0.617630  0.724090  1.0
  O  O1252  1  0.100530  0.382370  0.275910  1.0
  O  O1253  1  0.399470  0.775910  0.117630  1.0
  O  O1254  1  0.600530  0.775910  0.882370  1.0
  O  O1255  1  0.600530  0.224090  0.117630  1.0
  O  O1256  1  0.399470  0.224090  0.882370  1.0
  O  O1257  1  0.275910  0.899470  0.617630  1.0
  O  O1258  1  0.275910  0.100530  0.382370  1.0
  O  O1259  1  0.724090  0.899470  0.382370  1.0
  O  O1260  1  0.724090  0.100530  0.617630  1.0
  O  O1261  1  0.778860  0.035710  0.356990  1.0
  O  O1262  1  0.778860  0.964290  0.643010  1.0
  O  O1263  1  0.221140  0.964290  0.356990  1.0
  O  O1264  1  0.221140  0.035710  0.643010  1.0
  O  O1265  1  0.535710  0.721140  0.143010  1.0
  O  O1266  1  0.464290  0.721140  0.856990  1.0
  O  O1267  1  0.464290  0.278860  0.143010  1.0
  O  O1268  1  0.535710  0.278860  0.856990  1.0
  O  O1269  1  0.035710  0.356990  0.778860  1.0
  O  O1270  1  0.964290  0.643010  0.778860  1.0
  O  O1271  1  0.035710  0.643010  0.221140  1.0
  O  O1272  1  0.964290  0.356990  0.221140  1.0
  O  O1273  1  0.856990  0.464290  0.721140  1.0
  O  O1274  1  0.856990  0.535710  0.278860  1.0
  O  O1275  1  0.143010  0.535710  0.721140  1.0
  O  O1276  1  0.143010  0.464290  0.278860  1.0
  O  O1277  1  0.356990  0.778860  0.035710  1.0
  O  O1278  1  0.643010  0.778860  0.964290  1.0
  O  O1279  1  0.643010  0.221140  0.035710  1.0
  O  O1280  1  0.356990  0.221140  0.964290  1.0
  O  O1281  1  0.278860  0.856990  0.535710  1.0
  O  O1282  1  0.278860  0.143010  0.464290  1.0
  O  O1283  1  0.721140  0.856990  0.464290  1.0
  O  O1284  1  0.721140  0.143010  0.535710  1.0
  O  O1285  1  0.702100  0.293400  0.433500  1.0
  O  O1286  1  0.702100  0.706600  0.566500  1.0
  O  O1287  1  0.297900  0.706600  0.433500  1.0
  O  O1288  1  0.297900  0.293400  0.566500  1.0
  O  O1289  1  0.793400  0.797900  0.066500  1.0
  O  O1290  1  0.206600  0.797900  0.933500  1.0
  O  O1291  1  0.206600  0.202100  0.066500  1.0
  O  O1292  1  0.793400  0.202100  0.933500  1.0
  O  O1293  1  0.293400  0.433500  0.702100  1.0
  O  O1294  1  0.706600  0.566500  0.702100  1.0
  O  O1295  1  0.293400  0.566500  0.297900  1.0
  O  O1296  1  0.706600  0.433500  0.297900  1.0
  O  O1297  1  0.933500  0.206600  0.797900  1.0
  O  O1298  1  0.933500  0.793400  0.202100  1.0
  O  O1299  1  0.066500  0.793400  0.797900  1.0
  O  O1300  1  0.066500  0.206600  0.202100  1.0
  O  O1301  1  0.433500  0.702100  0.293400  1.0
  O  O1302  1  0.566500  0.702100  0.706600  1.0
  O  O1303  1  0.566500  0.297900  0.293400  1.0
  O  O1304  1  0.433500  0.297900  0.706600  1.0
  O  O1305  1  0.202100  0.933500  0.793400  1.0
  O  O1306  1  0.202100  0.066500  0.206600  1.0
  O  O1307  1  0.797900  0.933500  0.206600  1.0
  O  O1308  1  0.797900  0.066500  0.793400  1.0
  O  O1309  1  0.725100  0.223000  0.486000  1.0
  O  O1310  1  0.725100  0.777000  0.514000  1.0
  O  O1311  1  0.274900  0.777000  0.486000  1.0
  O  O1312  1  0.274900  0.223000  0.514000  1.0
  O  O1313  1  0.723000  0.774900  0.014000  1.0
  O  O1314  1  0.277000  0.774900  0.986000  1.0
  O  O1315  1  0.277000  0.225100  0.014000  1.0
  O  O1316  1  0.723000  0.225100  0.986000  1.0
  O  O1317  1  0.223000  0.486000  0.725100  1.0
  O  O1318  1  0.777000  0.514000  0.725100  1.0
  O  O1319  1  0.223000  0.514000  0.274900  1.0
  O  O1320  1  0.777000  0.486000  0.274900  1.0
  O  O1321  1  0.986000  0.277000  0.774900  1.0
  O  O1322  1  0.986000  0.723000  0.225100  1.0
  O  O1323  1  0.014000  0.723000  0.774900  1.0
  O  O1324  1  0.014000  0.277000  0.225100  1.0
  O  O1325  1  0.486000  0.725100  0.223000  1.0
  O  O1326  1  0.514000  0.725100  0.777000  1.0
  O  O1327  1  0.514000  0.274900  0.223000  1.0
  O  O1328  1  0.486000  0.274900  0.777000  1.0
  O  O1329  1  0.225100  0.986000  0.723000  1.0
  O  O1330  1  0.225100  0.014000  0.277000  1.0
  O  O1331  1  0.774900  0.986000  0.277000  1.0
  O  O1332  1  0.774900  0.014000  0.723000  1.0
  O  O1333  1  0.644100  0.268800  0.494400  1.0
  O  O1334  1  0.644100  0.731200  0.505600  1.0
  O  O1335  1  0.355900  0.731200  0.494400  1.0
  O  O1336  1  0.355900  0.268800  0.505600  1.0
  O  O1337  1  0.768800  0.855900  0.005600  1.0
  O  O1338  1  0.231200  0.855900  0.994400  1.0
  O  O1339  1  0.231200  0.144100  0.005600  1.0
  O  O1340  1  0.768800  0.144100  0.994400  1.0
  O  O1341  1  0.268800  0.494400  0.644100  1.0
  O  O1342  1  0.731200  0.505600  0.644100  1.0
  O  O1343  1  0.268800  0.505600  0.355900  1.0
  O  O1344  1  0.731200  0.494400  0.355900  1.0
  O  O1345  1  0.994400  0.231200  0.855900  1.0
  O  O1346  1  0.994400  0.768800  0.144100  1.0
  O  O1347  1  0.005600  0.768800  0.855900  1.0
  O  O1348  1  0.005600  0.231200  0.144100  1.0
  O  O1349  1  0.494400  0.644100  0.268800  1.0
  O  O1350  1  0.505600  0.644100  0.731200  1.0
  O  O1351  1  0.505600  0.355900  0.268800  1.0
  O  O1352  1  0.494400  0.355900  0.731200  1.0
  O  O1353  1  0.144100  0.994400  0.768800  1.0
  O  O1354  1  0.144100  0.005600  0.231200  1.0
  O  O1355  1  0.855900  0.994400  0.231200  1.0
  O  O1356  1  0.855900  0.005600  0.768800  1.0
  O  O1357  1  0.909200  0.291850  0.253040  1.0
  O  O1358  1  0.909200  0.708150  0.746960  1.0
  O  O1359  1  0.090800  0.708150  0.253040  1.0
  O  O1360  1  0.090800  0.291850  0.746960  1.0
  O  O1361  1  0.791850  0.590800  0.246960  1.0
  O  O1362  1  0.208150  0.590800  0.753040  1.0
  O  O1363  1  0.208150  0.409200  0.246960  1.0
  O  O1364  1  0.791850  0.409200  0.753040  1.0
  O  O1365  1  0.291850  0.253040  0.909200  1.0
  O  O1366  1  0.708150  0.746960  0.909200  1.0
  O  O1367  1  0.291850  0.746960  0.090800  1.0
  O  O1368  1  0.708150  0.253040  0.090800  1.0
  O  O1369  1  0.753040  0.208150  0.590800  1.0
  O  O1370  1  0.753040  0.791850  0.409200  1.0
  O  O1371  1  0.246960  0.791850  0.590800  1.0
  O  O1372  1  0.246960  0.208150  0.409200  1.0
  O  O1373  1  0.253040  0.909200  0.291850  1.0
  O  O1374  1  0.746960  0.909200  0.708150  1.0
  O  O1375  1  0.746960  0.090800  0.291850  1.0
  O  O1376  1  0.253040  0.090800  0.708150  1.0
  O  O1377  1  0.409200  0.753040  0.791850  1.0
  O  O1378  1  0.409200  0.246960  0.208150  1.0
  O  O1379  1  0.590800  0.753040  0.208150  1.0
  O  O1380  1  0.590800  0.246960  0.791850  1.0
  O  O1381  1  0.910350  0.360320  0.292410  1.0
  O  O1382  1  0.910350  0.639680  0.707590  1.0
  O  O1383  1  0.089650  0.639680  0.292410  1.0
  O  O1384  1  0.089650  0.360320  0.707590  1.0
  O  O1385  1  0.860320  0.589650  0.207590  1.0
  O  O1386  1  0.139680  0.589650  0.792410  1.0
  O  O1387  1  0.139680  0.410350  0.207590  1.0
  O  O1388  1  0.860320  0.410350  0.792410  1.0
  O  O1389  1  0.360320  0.292410  0.910350  1.0
  O  O1390  1  0.639680  0.707590  0.910350  1.0
  O  O1391  1  0.360320  0.707590  0.089650  1.0
  O  O1392  1  0.639680  0.292410  0.089650  1.0
  O  O1393  1  0.792410  0.139680  0.589650  1.0
  O  O1394  1  0.792410  0.860320  0.410350  1.0
  O  O1395  1  0.207590  0.860320  0.589650  1.0
  O  O1396  1  0.207590  0.139680  0.410350  1.0
  O  O1397  1  0.292410  0.910350  0.360320  1.0
  O  O1398  1  0.707590  0.910350  0.639680  1.0
  O  O1399  1  0.707590  0.089650  0.360320  1.0
  O  O1400  1  0.292410  0.089650  0.639680  1.0
  O  O1401  1  0.410350  0.792410  0.860320  1.0
  O  O1402  1  0.410350  0.207590  0.139680  1.0
  O  O1403  1  0.589650  0.792410  0.139680  1.0
  O  O1404  1  0.589650  0.207590  0.860320  1.0
  O  O1405  1  0.763570  0.309940  0.500950  1.0
  O  O1406  1  0.763570  0.690060  0.499050  1.0
  O  O1407  1  0.236430  0.690060  0.500950  1.0
  O  O1408  1  0.236430  0.309940  0.499050  1.0
  O  O1409  1  0.809940  0.736430  0.999050  1.0
  O  O1410  1  0.190060  0.736430  0.000950  1.0
  O  O1411  1  0.190060  0.263570  0.999050  1.0
  O  O1412  1  0.809940  0.263570  0.000950  1.0
  O  O1413  1  0.309940  0.500950  0.763570  1.0
  O  O1414  1  0.690060  0.499050  0.763570  1.0
  O  O1415  1  0.309940  0.499050  0.236430  1.0
  O  O1416  1  0.690060  0.500950  0.236430  1.0
  O  O1417  1  0.000950  0.190060  0.736430  1.0
  O  O1418  1  0.000950  0.809940  0.263570  1.0
  O  O1419  1  0.999050  0.809940  0.736430  1.0
  O  O1420  1  0.999050  0.190060  0.263570  1.0
  O  O1421  1  0.500950  0.763570  0.309940  1.0
  O  O1422  1  0.499050  0.763570  0.690060  1.0
  O  O1423  1  0.499050  0.236430  0.309940  1.0
  O  O1424  1  0.500950  0.236430  0.690060  1.0
  O  O1425  1  0.263570  0.000950  0.809940  1.0
  O  O1426  1  0.263570  0.999050  0.190060  1.0
  O  O1427  1  0.736430  0.000950  0.190060  1.0
  O  O1428  1  0.736430  0.999050  0.809940  1.0
  O  O1429  1  0.805760  0.376840  0.475660  1.0
  O  O1430  1  0.805760  0.623160  0.524340  1.0
  O  O1431  1  0.194240  0.623160  0.475660  1.0
  O  O1432  1  0.194240  0.376840  0.524340  1.0
  O  O1433  1  0.876840  0.694240  0.024340  1.0
  O  O1434  1  0.123160  0.694240  0.975660  1.0
  O  O1435  1  0.123160  0.305760  0.024340  1.0
  O  O1436  1  0.876840  0.305760  0.975660  1.0
  O  O1437  1  0.376840  0.475660  0.805760  1.0
  O  O1438  1  0.623160  0.524340  0.805760  1.0
  O  O1439  1  0.376840  0.524340  0.194240  1.0
  O  O1440  1  0.623160  0.475660  0.194240  1.0
  O  O1441  1  0.975660  0.123160  0.694240  1.0
  O  O1442  1  0.975660  0.876840  0.305760  1.0
  O  O1443  1  0.024340  0.876840  0.694240  1.0
  O  O1444  1  0.024340  0.123160  0.305760  1.0
  O  O1445  1  0.475660  0.805760  0.376840  1.0
  O  O1446  1  0.524340  0.805760  0.623160  1.0
  O  O1447  1  0.524340  0.194240  0.376840  1.0
  O  O1448  1  0.475660  0.194240  0.623160  1.0
  O  O1449  1  0.305760  0.975660  0.876840  1.0
  O  O1450  1  0.305760  0.024340  0.123160  1.0
  O  O1451  1  0.694240  0.975660  0.123160  1.0
  O  O1452  1  0.694240  0.024340  0.876840  1.0
  O  O1453  1  0.731400  0.419500  0.481140  1.0
  O  O1454  1  0.731400  0.580500  0.518860  1.0
  O  O1455  1  0.268600  0.580500  0.481140  1.0
  O  O1456  1  0.268600  0.419500  0.518860  1.0
  O  O1457  1  0.919500  0.768600  0.018860  1.0
  O  O1458  1  0.080500  0.768600  0.981140  1.0
  O  O1459  1  0.080500  0.231400  0.018860  1.0
  O  O1460  1  0.919500  0.231400  0.981140  1.0
  O  O1461  1  0.419500  0.481140  0.731400  1.0
  O  O1462  1  0.580500  0.518860  0.731400  1.0
  O  O1463  1  0.419500  0.518860  0.268600  1.0
  O  O1464  1  0.580500  0.481140  0.268600  1.0
  O  O1465  1  0.981140  0.080500  0.768600  1.0
  O  O1466  1  0.981140  0.919500  0.231400  1.0
  O  O1467  1  0.018860  0.919500  0.768600  1.0
  O  O1468  1  0.018860  0.080500  0.231400  1.0
  O  O1469  1  0.481140  0.731400  0.419500  1.0
  O  O1470  1  0.518860  0.731400  0.580500  1.0
  O  O1471  1  0.518860  0.268600  0.419500  1.0
  O  O1472  1  0.481140  0.268600  0.580500  1.0
  O  O1473  1  0.231400  0.981140  0.919500  1.0
  O  O1474  1  0.231400  0.018860  0.080500  1.0
  O  O1475  1  0.768600  0.981140  0.080500  1.0
  O  O1476  1  0.768600  0.018860  0.919500  1.0
  O  O1477  1  0.695850  0.353560  0.510140  1.0
  O  O1478  1  0.695850  0.646440  0.489860  1.0
  O  O1479  1  0.304150  0.646440  0.510140  1.0
  O  O1480  1  0.304150  0.353560  0.489860  1.0
  O  O1481  1  0.853560  0.804150  0.989860  1.0
  O  O1482  1  0.146440  0.804150  0.010140  1.0
  O  O1483  1  0.146440  0.195850  0.989860  1.0
  O  O1484  1  0.853560  0.195850  0.010140  1.0
  O  O1485  1  0.353560  0.510140  0.695850  1.0
  O  O1486  1  0.646440  0.489860  0.695850  1.0
  O  O1487  1  0.353560  0.489860  0.304150  1.0
  O  O1488  1  0.646440  0.510140  0.304150  1.0
  O  O1489  1  0.010140  0.146440  0.804150  1.0
  O  O1490  1  0.010140  0.853560  0.195850  1.0
  O  O1491  1  0.989860  0.853560  0.804150  1.0
  O  O1492  1  0.989860  0.146440  0.195850  1.0
  O  O1493  1  0.510140  0.695850  0.353560  1.0
  O  O1494  1  0.489860  0.695850  0.646440  1.0
  O  O1495  1  0.489860  0.304150  0.353560  1.0
  O  O1496  1  0.510140  0.304150  0.646440  1.0
  O  O1497  1  0.195850  0.010140  0.853560  1.0
  O  O1498  1  0.195850  0.989860  0.146440  1.0
  O  O1499  1  0.804150  0.010140  0.146440  1.0
  O  O1500  1  0.804150  0.989860  0.853560  1.0
  O  O1501  1  0.769120  0.384230  0.557830  1.0
  O  O1502  1  0.769120  0.615770  0.442170  1.0
  O  O1503  1  0.230880  0.615770  0.557830  1.0
  O  O1504  1  0.230880  0.384230  0.442170  1.0
  O  O1505  1  0.884230  0.730880  0.942170  1.0
  O  O1506  1  0.115770  0.730880  0.057830  1.0
  O  O1507  1  0.115770  0.269120  0.942170  1.0
  O  O1508  1  0.884230  0.269120  0.057830  1.0
  O  O1509  1  0.384230  0.557830  0.769120  1.0
  O  O1510  1  0.615770  0.442170  0.769120  1.0
  O  O1511  1  0.384230  0.442170  0.230880  1.0
  O  O1512  1  0.615770  0.557830  0.230880  1.0
  O  O1513  1  0.057830  0.115770  0.730880  1.0
  O  O1514  1  0.057830  0.884230  0.269120  1.0
  O  O1515  1  0.942170  0.884230  0.730880  1.0
  O  O1516  1  0.942170  0.115770  0.269120  1.0
  O  O1517  1  0.557830  0.769120  0.384230  1.0
  O  O1518  1  0.442170  0.769120  0.615770  1.0
  O  O1519  1  0.442170  0.230880  0.384230  1.0
  O  O1520  1  0.557830  0.230880  0.615770  1.0
  O  O1521  1  0.269120  0.057830  0.884230  1.0
  O  O1522  1  0.269120  0.942170  0.115770  1.0
  O  O1523  1  0.730880  0.057830  0.115770  1.0
  O  O1524  1  0.730880  0.942170  0.884230  1.0
  O  O1525  1  0.705700  0.270500  0.557170  1.0
  O  O1526  1  0.705700  0.729500  0.442830  1.0
  O  O1527  1  0.294300  0.729500  0.557170  1.0
  O  O1528  1  0.294300  0.270500  0.442830  1.0
  O  O1529  1  0.770500  0.794300  0.942830  1.0
  O  O1530  1  0.229500  0.794300  0.057170  1.0
  O  O1531  1  0.229500  0.205700  0.942830  1.0
  O  O1532  1  0.770500  0.205700  0.057170  1.0
  O  O1533  1  0.270500  0.557170  0.705700  1.0
  O  O1534  1  0.729500  0.442830  0.705700  1.0
  O  O1535  1  0.270500  0.442830  0.294300  1.0
  O  O1536  1  0.729500  0.557170  0.294300  1.0
  O  O1537  1  0.057170  0.229500  0.794300  1.0
  O  O1538  1  0.057170  0.770500  0.205700  1.0
  O  O1539  1  0.942830  0.770500  0.794300  1.0
  O  O1540  1  0.942830  0.229500  0.205700  1.0
  O  O1541  1  0.557170  0.705700  0.270500  1.0
  O  O1542  1  0.442830  0.705700  0.729500  1.0
  O  O1543  1  0.442830  0.294300  0.270500  1.0
  O  O1544  1  0.557170  0.294300  0.729500  1.0
  O  O1545  1  0.205700  0.057170  0.770500  1.0
  O  O1546  1  0.205700  0.942830  0.229500  1.0
  O  O1547  1  0.794300  0.057170  0.229500  1.0
  O  O1548  1  0.794300  0.942830  0.770500  1.0
