
#######################################################################
#
#                 Cambridge Crystallographic Data Centre
#                                CCDC 
#
#######################################################################
#
# If this CIF has been generated from an entry in the Cambridge 
# Structural Database, then it will include bibliographic, chemical, 
# crystal, experimental, refinement or atomic coordinate data resulting 
# from the CCDC's data processing and validation procedures.
#
#######################################################################

data_TUWXEP
_chemical_formula_moiety         
'C84 H48 O30 V6 12-,8(Cs1 1+),4(Na1 1+),75(H2 O1)'
_chemical_name_systematic        
'tetrakis(\m~3~-cyclotricatechylene)-hexaoxo-hexa-vanadium tetra-sodium octa-cesium pentaheptacontahydrate'
_symmetry_cell_setting           cubic
_symmetry_space_group_name_H-M   'I -4 3 d'
_symmetry_Int_Tables_number      220
_space_group_name_Hall           'I -4bd 2c 3'
loop_
_symmetry_equiv_pos_site_id
_symmetry_equiv_pos_as_xyz
1 x,y,z
2 x,-y,1/2-z
3 -x,1/2-y,z
4 -x,1/2+y,1/2-z
5 1/4+y,3/4-x,1/4-z
6 1/4-y,3/4-x,3/4+z
7 3/4-y,3/4+x,1/4-z
8 3/4+y,3/4+x,3/4+z
9 y,z,x
10 -y,1/2-z,x
11 y,-z,1/2-x
12 -y,1/2+z,1/2-x
13 1/4+z,3/4-y,1/4-x
14 1/4+z,1/4+y,1/4+x
15 3/4-z,3/4+y,1/4-x
16 3/4-z,1/4-y,1/4+x
17 z,x,y
18 1/2-z,x,-y
19 -z,1/2-x,y
20 1/2+z,1/2-x,-y
21 3/4+x,3/4+z,3/4+y
22 3/4+x,1/4-z,3/4-y
23 3/4-x,3/4+z,1/4-y
24 1/4-x,3/4-z,3/4+y
25 1/2+x,1/2+y,1/2+z
26 1/2+x,1/2-y,-z
27 1/2-x,-y,1/2+z
28 1/2-x,y,-z
29 3/4+y,1/4-x,3/4-z
30 3/4-y,1/4-x,1/4+z
31 1/4-y,1/4+x,3/4-z
32 1/4+y,1/4+x,1/4+z
33 1/2+y,1/2+z,1/2+x
34 1/2-y,-z,1/2+x
35 1/2+y,1/2-z,-x
36 1/2-y,z,-x
37 3/4+z,1/4-y,3/4-x
38 3/4+z,3/4+y,3/4+x
39 1/4-z,1/4+y,3/4-x
40 1/4-z,3/4-y,3/4+x
41 1/2+z,1/2+x,1/2+y
42 -z,1/2+x,1/2-y
43 1/2-z,-x,1/2+y
44 z,-x,1/2-y
45 1/4+x,1/4+z,1/4+y
46 1/4+x,3/4-z,1/4-y
47 1/4-x,1/4+z,3/4-y
48 3/4-x,1/4-z,1/4+y
_cell_length_a                   37.9956(4)
_cell_length_b                   37.9956(4)
_cell_length_c                   37.9956(4)
_cell_angle_alpha                90
_cell_angle_beta                 90
_cell_angle_gamma                90
_cell_volume                     54852.9
_exptl_crystal_colour            green
_exptl_crystal_description       block
_cell_formula_units_Z            12
loop_
_atom_site_label
_atom_site_type_symbol
_atom_site_fract_x
_atom_site_fract_y
_atom_site_fract_z
C1 C 0.5501(5) 0.5389(5) 0.0269(5)
H1 H 0.5293 0.5534 0.0293
H2 H 0.5426 0.5145 0.0279
O1 O 0.7500 0.3953(7) 0.0000
O2 O 0.6124(4) 0.6241(4) 0.1800(4)
C2 C 0.6246(4) 0.4734(4) 0.0347(4)
C3 C 0.6201(4) 0.4728(4) -0.0010(4)
C4 C 0.6486(5) 0.4649(4) -0.0236(5)
H3 H 0.6451 0.4627 -0.0477
C5 C 0.6814(5) 0.4607(5) -0.0097(5)
C6 C 0.6873(4) 0.4614(4) 0.0270(4)
C7 C 0.6589(5) 0.4683(5) 0.0493(5)
H4 H 0.6623 0.4695 0.0735
C8 C 0.5953(4) 0.5211(4) 0.0719(4)
C9 C 0.6204(4) 0.5308(4) 0.0982(4)
H5 H 0.6343 0.5136 0.1086
C10 C 0.6240(4) 0.5639(4) 0.1078(5)
C11 C 0.6029(4) 0.5905(5) 0.0929(5)
C12 C 0.5774(5) 0.5809(5) 0.0676(5)
H6 H 0.5629 0.5980 0.0579
C13 C 0.5740(4) 0.5459(4) 0.0570(5)
C14 C 0.5664(4) 0.5457(4) -0.0087(5)
C15 C 0.5677(5) 0.5806(5) -0.0193(5)
H7 H 0.5566 0.5975 -0.0055
C16 C 0.5851(4) 0.5912(5) -0.0500(4)
C17 C 0.6011(5) 0.5649(5) -0.0699(5)
C18 C 0.5998(5) 0.5307(5) -0.0601(5)
H8 H 0.6101 0.5137 -0.0744
C19 C 0.5831(5) 0.5205(5) -0.0288(5)
C20 C 0.5863(5) 0.4821(4) -0.0190(5)
H9 H 0.5669 0.4759 -0.0036
H10 H 0.5842 0.4680 -0.0402
C21 C 0.5962(4) 0.4827(4) 0.0611(4)
H11 H 0.5995 0.4684 0.0821
H12 H 0.5735 0.4765 0.0512
O3 O 0.7193(3) 0.4549(3) 0.0381(3)
O4 O 0.7100(4) 0.4522(3) -0.0293(3)
O5 O 0.6476(3) 0.5763(3) 0.1333(3)
O6 O 0.6077(3) 0.6242(3) 0.1047(3)
O7 O 0.5873(3) 0.6241(3) -0.0627(3)
O8 O 0.6174(3) 0.5761(3) -0.1005(3)
V1 V 0.7500 0.43746(12) 0.0000
V2 V 0.63833(9) 0.62473(8) 0.14579(9)
C1JA C 0.7769(5) 0.7111(5) 0.1999(5)
C1AA C 0.9499(5) 0.5389(5) -0.0269(5)
C1O C 0.7231(5) 0.7111(5) -0.1999(5)
H1JA H 0.7793 0.6966 0.2207
H1AA H 0.9707 0.5534 -0.0293
H1O H 0.7207 0.6966 -0.2207
H2JA H 0.7779 0.7355 0.2074
H2AA H 0.9574 0.5145 -0.0279
H2O H 0.7221 0.7355 -0.2074
O1O O 0.7500 0.8547(7) 0.0000
O2JA O 0.9300(4) 0.6259(4) 0.1376(4)
O2AA O 0.8876(4) 0.6241(4) -0.1800(4)
O2O O 0.5700(4) 0.6259(4) -0.1376(4)
C2AA C 0.8754(4) 0.4734(4) -0.0347(4)
C2O C 0.7153(4) 0.7766(4) -0.1254(4)
C2JA C 0.7847(4) 0.7766(4) 0.1254(4)
C3AA C 0.8799(4) 0.4728(4) 0.0010(4)
C3O C 0.7510(4) 0.7772(4) -0.1299(4)
C3JA C 0.7490(4) 0.7772(4) 0.1299(4)
C4AA C 0.8514(5) 0.4649(4) 0.0236(5)
C4O C 0.7736(5) 0.7851(4) -0.1014(5)
C4JA C 0.7264(5) 0.7851(4) 0.1014(5)
H3AA H 0.8549 0.4627 0.0477
H3O H 0.7977 0.7873 -0.1049
H3JA H 0.7023 0.7873 0.1049
C5AA C 0.8186(5) 0.4607(5) 0.0097(5)
C5O C 0.7597(5) 0.7893(5) -0.0686(5)
C5JA C 0.7403(5) 0.7893(5) 0.0686(5)
C6AA C 0.8127(4) 0.4614(4) -0.0270(4)
C6O C 0.7230(4) 0.7886(4) -0.0627(4)
C6JA C 0.7770(4) 0.7886(4) 0.0627(4)
C7AA C 0.8411(5) 0.4683(5) -0.0493(5)
C7O C 0.7007(5) 0.7817(5) -0.0911(5)
C7JA C 0.7993(5) 0.7817(5) 0.0911(5)
H4AA H 0.8377 0.4695 -0.0735
H4O H 0.6765 0.7805 -0.0877
H4JA H 0.8235 0.7805 0.0877
C8JA C 0.8219(4) 0.7289(4) 0.1547(4)
C8AA C 0.9047(4) 0.5211(4) -0.0719(4)
C8O C 0.6781(4) 0.7289(4) -0.1547(4)
C9JA C 0.8482(4) 0.7192(4) 0.1296(4)
C9AA C 0.8796(4) 0.5308(4) -0.0982(4)
C9O C 0.6518(4) 0.7192(4) -0.1296(4)
H5JA H 0.8586 0.7364 0.1157
H5AA H 0.8657 0.5136 -0.1086
H5O H 0.6414 0.7364 -0.1157
C10JA C 0.8578(5) 0.6861(4) 0.1260(4)
C10AA C 0.8760(4) 0.5639(4) -0.1078(5)
C10O C 0.6422(5) 0.6861(4) -0.1260(4)
C11JA C 0.8429(5) 0.6595(5) 0.1471(4)
C11AA C 0.8971(4) 0.5905(5) -0.0929(5)
C11O C 0.6571(5) 0.6595(5) -0.1471(4)
C12JA C 0.8176(5) 0.6691(5) 0.1726(5)
C12AA C 0.9226(5) 0.5809(5) -0.0676(5)
C12O C 0.6824(5) 0.6691(5) -0.1726(5)
H6JA H 0.8079 0.6520 0.1871
H6AA H 0.9371 0.5980 -0.0579
H6O H 0.6921 0.6520 -0.1871
C13JA C 0.8070(5) 0.7041(4) 0.1760(4)
C13AA C 0.9260(4) 0.5459(4) -0.0570(5)
C13O C 0.6930(5) 0.7041(4) -0.1760(4)
C14JA C 0.7413(5) 0.7043(4) 0.1836(4)
C14AA C 0.9336(4) 0.5457(4) 0.0087(5)
C14O C 0.7587(5) 0.7043(4) -0.1836(4)
C15JA C 0.7307(5) 0.6694(5) 0.1823(5)
C15AA C 0.9323(5) 0.5806(5) 0.0193(5)
C15O C 0.7693(5) 0.6694(5) -0.1823(5)
H7O H 0.7555 0.6525 -0.1934
H7AA H 0.9434 0.5975 0.0055
H7JA H 0.7445 0.6525 0.1934
C16JA C 0.7000(4) 0.6588(5) 0.1649(4)
C16AA C 0.9149(4) 0.5912(5) 0.0500(4)
C16O C 0.8000(4) 0.6588(5) -0.1649(4)
C17AA C 0.8989(5) 0.5649(5) 0.0699(5)
C17JA C 0.6801(5) 0.6851(5) 0.1489(5)
C17O C 0.8199(5) 0.6851(5) -0.1489(5)
C18AA C 0.9002(5) 0.5307(5) 0.0601(5)
C18JA C 0.6899(5) 0.7193(5) 0.1502(5)
C18O C 0.8101(5) 0.7193(5) -0.1502(5)
H8AA H 0.8899 0.5137 0.0744
H8JA H 0.6756 0.7363 0.1399
H8O H 0.8244 0.7363 -0.1399
C19AA C 0.9169(5) 0.5205(5) 0.0288(5)
C19JA C 0.7212(5) 0.7295(5) 0.1669(5)
C19O C 0.7788(5) 0.7295(5) -0.1669(5)
C20AA C 0.9137(5) 0.4821(4) 0.0190(5)
C20JA C 0.7310(5) 0.7679(4) 0.1637(5)
C20O C 0.7690(5) 0.7679(4) -0.1637(5)
H9AA H 0.9331 0.4759 0.0036
H9JA H 0.7464 0.7741 0.1831
H9O H 0.7536 0.7741 -0.1831
H10AA H 0.9158 0.4680 0.0402
H10JA H 0.7098 0.7820 0.1658
H10O H 0.7902 0.7820 -0.1658
C21AA C 0.9038(4) 0.4827(4) -0.0611(4)
C21O C 0.6889(4) 0.7673(4) -0.1538(4)
C21JA C 0.8111(4) 0.7673(4) 0.1538(4)
H11AA H 0.9005 0.4684 -0.0821
H11JA H 0.8321 0.7816 0.1505
H11O H 0.6679 0.7816 -0.1505
H12AA H 0.9265 0.4765 -0.0512
H12JA H 0.8012 0.7735 0.1765
H12O H 0.6988 0.7735 -0.1765
O3AA O 0.7807(3) 0.4549(3) -0.0381(3)
O3O O 0.7119(3) 0.7951(3) -0.0307(3)
O3JA O 0.7881(3) 0.7951(3) 0.0307(3)
O4AA O 0.7900(4) 0.4522(3) 0.0293(3)
O4JA O 0.7207(3) 0.7978(3) 0.0400(4)
O4O O 0.7793(3) 0.7978(3) -0.0400(4)
O5JA O 0.8833(3) 0.6737(3) 0.1024(3)
O5AA O 0.8524(3) 0.5763(3) -0.1333(3)
O5O O 0.6167(3) 0.6737(3) -0.1024(3)
O6JA O 0.8547(3) 0.6258(3) 0.1423(3)
O6AA O 0.8923(3) 0.6242(3) -0.1047(3)
O6O O 0.6453(3) 0.6258(3) -0.1423(3)
O7JA O 0.6873(3) 0.6259(3) 0.1627(3)
O7AA O 0.9127(3) 0.6241(3) 0.0627(3)
O7O O 0.8127(3) 0.6259(3) -0.1627(3)
O8AA O 0.8826(3) 0.5761(3) 0.1005(3)
O8JA O 0.6495(3) 0.6739(3) 0.1326(3)
O8O O 0.8505(3) 0.6739(3) -0.1326(3)
V1O V 0.7500 0.81254(12) 0.0000
V2JA V 0.89579(9) 0.62527(8) 0.11167(9)
V2AA V 0.86167(9) 0.62473(8) -0.14579(9)
V2O V 0.60421(9) 0.62527(8) -0.11167(9)
O9 O 0.6385(6) 0.6423(6) -0.0104(6)
O10 O 0.5669(9) 0.3130(9) 0.0602(9)
O11 O 0.7078(4) 0.6196(4) 0.0475(4)
O12 O 0.7500 0.5621(9) 0.0000
O13 O 0.6391(17) 0.2866(17) 0.0112(18)
O14 O 0.6243(7) 0.3631(7) -0.0435(7)
O15 O 0.686(2) 0.316(2) 0.077(2)
O16 O 0.7077(11) 0.4160(11) 0.2834(11)
O17 O 0.789(2) 0.330(2) 0.015(2)
O18 O 0.6254(10) 0.4461(9) 0.2191(9)
O19 O 0.7075(7) 0.5337(7) 0.1252(7)
O20 O 0.5660(10) 0.5941(10) 0.2227(10)
O21 O 0.8052(13) 0.3861(13) 0.0714(13)
O22 O 0.7993(14) 0.4539(15) 0.1005(14)
O23 O 0.797(3) 0.279(2) 0.022(3)
O24 O 0.739(3) 0.426(3) 0.169(3)
O25 O 0.772(2) 0.516(2) 0.062(2)
O26 O 0.5893(6) 0.4107(6) -0.0893(6)
Cs1 Cs 0.6597(2) 0.3783(2) 0.0235(2)
Na1 Na 0.7500 0.6250 0.0000
Na2 Na 0.7076(7) 0.3960(7) 0.2096(7)
Cs2 Cs 0.65823(3) 0.55955(3) 0.01307(3)
loop_
_geom_bond_atom_site_label_1
_geom_bond_atom_site_label_2
_geom_bond_site_symmetry_1
_geom_bond_site_symmetry_2
C1 H1 1_555 1_555
H2 C1 1_555 1_555
O1 V1 1_555 1_555
O2 V2 1_555 1_555
C2 C3 1_555 1_555
C3 C4 1_555 1_555
C4 H3 1_555 1_555
C5 C4 1_555 1_555
C6 C5 1_555 1_555
C7 C2 1_555 1_555
H4 C7 1_555 1_555
C8 C9 1_555 1_555
C9 H5 1_555 1_555
C10 C9 1_555 1_555
C11 C10 1_555 1_555
C12 C11 1_555 1_555
H6 C12 1_555 1_555
C13 C1 1_555 1_555
C14 C1 1_555 1_555
C15 C14 1_555 1_555
H7 C15 1_555 1_555
C16 C15 1_555 1_555
C17 C16 1_555 1_555
C18 C17 1_555 1_555
H8 C18 1_555 1_555
C19 C14 1_555 1_555
C20 C3 1_555 1_555
H9 C20 1_555 1_555
H10 C20 1_555 1_555
C21 C2 1_555 1_555
H11 C21 1_555 1_555
H12 C21 1_555 1_555
O3 C6 1_555 1_555
O4 C5 1_555 1_555
O5 C10 1_555 1_555
O6 C11 1_555 1_555
O7 C16 1_555 1_555
O8 C17 1_555 1_555
V1 O3 1_555 1_555
V2 O5 1_555 1_555
C1JA H1JA 1_555 1_555
C1AA H1AA 1_555 1_555
C1O H1O 1_555 1_555
H2JA C1JA 1_555 1_555
H2AA C1AA 1_555 1_555
H2O C1O 1_555 1_555
O1O V1O 1_555 1_555
O2JA V2JA 1_555 1_555
O2AA V2AA 1_555 1_555
O2O V2O 1_555 1_555
C2AA C3AA 1_555 1_555
C2O C3O 1_555 1_555
C2JA C3JA 1_555 1_555
C3AA C4AA 1_555 1_555
C3O C4O 1_555 1_555
C3JA C4JA 1_555 1_555
C4AA H3AA 1_555 1_555
C4O H3O 1_555 1_555
C4JA H3JA 1_555 1_555
C5AA C4AA 1_555 1_555
C5O C4O 1_555 1_555
C5JA C4JA 1_555 1_555
C6AA C5AA 1_555 1_555
C6O C5O 1_555 1_555
C6JA C5JA 1_555 1_555
C7AA C2AA 1_555 1_555
C7O C2O 1_555 1_555
C7JA C2JA 1_555 1_555
H4AA C7AA 1_555 1_555
H4O C7O 1_555 1_555
H4JA C7JA 1_555 1_555
C8JA C9JA 1_555 1_555
C8AA C9AA 1_555 1_555
C8O C9O 1_555 1_555
C9JA H5JA 1_555 1_555
C9AA H5AA 1_555 1_555
C9O H5O 1_555 1_555
C10JA C9JA 1_555 1_555
C10AA C9AA 1_555 1_555
C10O C9O 1_555 1_555
C11JA C10JA 1_555 1_555
C11AA C10AA 1_555 1_555
C11O C10O 1_555 1_555
C12JA C11JA 1_555 1_555
C12AA C11AA 1_555 1_555
C12O C11O 1_555 1_555
H6JA C12JA 1_555 1_555
H6AA C12AA 1_555 1_555
H6O C12O 1_555 1_555
C13JA C1JA 1_555 1_555
C13AA C1AA 1_555 1_555
C13O C1O 1_555 1_555
C14JA C1JA 1_555 1_555
C14AA C1AA 1_555 1_555
C14O C1O 1_555 1_555
C15JA C14JA 1_555 1_555
C15AA C14AA 1_555 1_555
C15O C14O 1_555 1_555
H7O C15O 1_555 1_555
H7AA C15AA 1_555 1_555
H7JA C15JA 1_555 1_555
C16JA C15JA 1_555 1_555
C16AA C15AA 1_555 1_555
C16O C15O 1_555 1_555
C17AA C16AA 1_555 1_555
C17JA C16JA 1_555 1_555
C17O C16O 1_555 1_555
C18AA C17AA 1_555 1_555
C18JA C17JA 1_555 1_555
C18O C17O 1_555 1_555
H8AA C18AA 1_555 1_555
H8JA C18JA 1_555 1_555
H8O C18O 1_555 1_555
C19AA C14AA 1_555 1_555
C19JA C14JA 1_555 1_555
C19O C14O 1_555 1_555
C20AA C3AA 1_555 1_555
C20JA C3JA 1_555 1_555
C20O C3O 1_555 1_555
H9AA C20AA 1_555 1_555
H9JA C20JA 1_555 1_555
H9O C20O 1_555 1_555
H10AA C20AA 1_555 1_555
H10JA C20JA 1_555 1_555
H10O C20O 1_555 1_555
C21AA C2AA 1_555 1_555
C21O C2O 1_555 1_555
C21JA C2JA 1_555 1_555
H11AA C21AA 1_555 1_555
H11JA C21JA 1_555 1_555
H11O C21O 1_555 1_555
H12AA C21AA 1_555 1_555
H12JA C21JA 1_555 1_555
H12O C21O 1_555 1_555
O3AA V1 1_555 1_555
O3O C6O 1_555 1_555
O3JA C6JA 1_555 1_555
O4AA V1 1_555 1_555
O4JA C5JA 1_555 1_555
O4O C5O 1_555 1_555
O5JA C10JA 1_555 1_555
O5AA C10AA 1_555 1_555
O5O C10O 1_555 1_555
O6JA C11JA 1_555 1_555
O6AA C11AA 1_555 1_555
O6O C11O 1_555 1_555
O7JA V2 1_555 1_555
O7AA C16AA 1_555 1_555
O7O C16O 1_555 1_555
O8AA C17AA 1_555 1_555
O8JA V2 1_555 1_555
O8O C17O 1_555 1_555
V1O O3O 1_555 1_555
V2JA O5JA 1_555 1_555
V2AA O5AA 1_555 1_555
V2O O7 1_555 1_555
C6 C7 1_555 1_555
C8 C13 1_555 1_555
C8 C21 1_555 1_555
C12 C13 1_555 1_555
C18 C19 1_555 1_555
C19 C20 1_555 1_555
O4 V1 1_555 1_555
O6 V2 1_555 1_555
O8 V2O 1_555 1_555
C5AA O4AA 1_555 1_555
C6AA C7AA 1_555 1_555
C6AA O3AA 1_555 1_555
C6O C7O 1_555 1_555
C6JA C7JA 1_555 1_555
C8JA C13JA 1_555 1_555
C8JA C21JA 1_555 1_555
C8AA C13AA 1_555 1_555
C8AA C21AA 1_555 1_555
C8O C13O 1_555 1_555
C8O C21O 1_555 1_555
C12JA C13JA 1_555 1_555
C12AA C13AA 1_555 1_555
C12O C13O 1_555 1_555
C16JA O7JA 1_555 1_555
C17JA O8JA 1_555 1_555
C18AA C19AA 1_555 1_555
C18JA C19JA 1_555 1_555
C18O C19O 1_555 1_555
C19AA C20AA 1_555 1_555
C19JA C20JA 1_555 1_555
C19O C20O 1_555 1_555
O3JA V1O 1_555 1_555
O4JA V1O 1_555 1_555
O4O V1O 1_555 1_555
O5O V2O 1_555 1_555
O6JA V2JA 1_555 1_555
O6AA V2AA 1_555 1_555
O6O V2O 1_555 1_555
O7AA V2JA 1_555 1_555
O7O V2AA 1_555 1_555
O8AA V2JA 1_555 1_555
O8O V2AA 1_555 1_555

#END
