
#######################################################################
#
#                 Cambridge Crystallographic Data Centre
#                                CCDC 
#
#######################################################################
#
# If this CIF has been generated from an entry in the Cambridge 
# Structural Database, then it will include bibliographic, chemical, 
# crystal, experimental, refinement or atomic coordinate data resulting 
# from the CCDC's data processing and validation procedures.
#
#######################################################################

data_TUWXIT
_chemical_formula_moiety         
'C84 H72 Mg3 O42 V6 6-,3(H12 Mg1 O6 2+),46(H2 O1)'
_chemical_name_systematic        
'(\m~6~-cyclotricatechylene)-tris(\m~4~-cyclotricatechylene)-dodecaaqua-hexaoxo-tri-magnesium-hexa-vanadium tris(hexaaqua-magnesium) hexatetracontahydrate'
_symmetry_cell_setting           cubic
_symmetry_space_group_name_H-M   'P -4 3 n'
_symmetry_Int_Tables_number      218
_space_group_name_Hall           'P -4n 2 3'
loop_
_symmetry_equiv_pos_site_id
_symmetry_equiv_pos_as_xyz
1 x,y,z
2 x,-y,-z
3 -x,-y,z
4 -x,y,-z
5 1/2+y,1/2-x,1/2-z
6 1/2-y,1/2-x,1/2+z
7 1/2-y,1/2+x,1/2-z
8 1/2+y,1/2+x,1/2+z
9 y,z,x
10 -y,-z,x
11 y,-z,-x
12 -y,z,-x
13 1/2+z,1/2-y,1/2-x
14 1/2+z,1/2+y,1/2+x
15 1/2-z,1/2+y,1/2-x
16 1/2-z,1/2-y,1/2+x
17 z,x,y
18 -z,x,-y
19 -z,-x,y
20 z,-x,-y
21 1/2+x,1/2+z,1/2+y
22 1/2+x,1/2-z,1/2-y
23 1/2-x,1/2+z,1/2-y
24 1/2-x,1/2-z,1/2+y
_cell_length_a                   31.6182(2)
_cell_length_b                   31.6182(2)
_cell_length_c                   31.6182(2)
_cell_angle_alpha                90
_cell_angle_beta                 90
_cell_angle_gamma                90
_cell_volume                     31609
_exptl_crystal_colour            green
_exptl_crystal_description       cube
_cell_formula_units_Z            8
loop_
_atom_site_label
_atom_site_type_symbol
_atom_site_fract_x
_atom_site_fract_y
_atom_site_fract_z
C1 C 0.89020(13) 0.18240(15) 0.39112(16)
C2 C 0.86691(16) 0.18546(14) 0.42828(13)
C3 C 0.82854(15) 0.16432(16) 0.43197(13)
H1 H 0.8130 0.1664 0.4568
C4 C 0.81346(13) 0.14014(16) 0.39851(17)
C5 C 0.83675(17) 0.13708(16) 0.36135(15)
C6 C 0.87512(16) 0.15821(17) 0.35765(13)
H2 H 0.8907 0.1562 0.3328
C7 C 0.9299(2) 0.2067(2) 0.3834(2)
H3 H 0.9488 0.1892 0.3667
H4 H 0.9436 0.2116 0.4105
O5 O 0.81803(15) 0.11228(19) 0.32952(16)
O6 O 0.77591(16) 0.11763(17) 0.39947(15)
O7 O 0.77886(19) 0.03571(19) 0.35699(18)
O8 O 0.7021(3) 0.2934(3) 0.4335(2)
O9 O 0.7251(2) 0.2230(2) 0.4860(2)
O10 O 0.6441(3) 0.2688(3) 0.4944(3)
C8 C 0.92505(13) 0.24930(18) 0.36096(17)
C9 C 0.91990(14) 0.24888(18) 0.31731(17)
H5 H 0.9200 0.2233 0.3027
C10 C 0.91463(15) 0.2866(2) 0.29543(13)
C11 C 0.91449(16) 0.32483(19) 0.3172(2)
C12 C 0.91963(15) 0.32525(18) 0.3609(2)
H6 H 0.9195 0.3508 0.3755
C13 C 0.92491(13) 0.2875(2) 0.38275(13)
C14 C 0.88553(11) 0.2949(2) 0.45196(15)
C15 C 0.86691(16) 0.33466(16) 0.45471(15)
H7 H 0.8817 0.3585 0.4459
C16 C 0.82616(16) 0.33877(14) 0.47069(15)
C17 C 0.80403(12) 0.30316(19) 0.48392(13)
C18 C 0.82265(16) 0.26343(15) 0.48117(14)
H8 H 0.8078 0.2396 0.4900
C19 C 0.86340(16) 0.25932(15) 0.46519(15)
C20 C 0.9284(2) 0.2908(3) 0.4306(2)
H9 H 0.9426 0.2658 0.4414
H10 H 0.9455 0.3152 0.4378
C21 C 0.8803(3) 0.2148(3) 0.4648(2)
H11 H 0.8720 0.2014 0.4911
H12 H 0.9109 0.2164 0.4647
C22 C 0.55200(19) 0.40653(19) 0.4859(2)
H13 H 0.5453 0.3921 0.5121
H14 H 0.5385 0.4341 0.4866
C23 C 0.60060(19) 0.4125(2) 0.48282(19)
C24 C 0.62675(19) 0.3806(2) 0.4978(2)
H15 H 0.6143 0.3566 0.5094
C25 C 0.6683(2) 0.3828(2) 0.4965(2)
C26 C 0.6873(2) 0.4183(2) 0.4798(2)
C27 C 0.6649(2) 0.4521(2) 0.46650(17)
H16 H 0.6785 0.4768 0.4580
C28 C 0.6187(2) 0.4490(2) 0.46584(18)
Mg2 Mg 0.70545(10) 0.28554(10) 0.49557(11)
O11 O 0.90920(16) 0.29185(18) 0.25304(14)
O12 O 0.91035(17) 0.36032(17) 0.29241(17)
O13 O 0.76357(12) 0.30994(15) 0.50095(15)
O14 O 0.80576(14) 0.37684(15) 0.47566(14)
O15 O 0.73140(15) 0.41950(15) 0.48114(14)
O16 O 0.69585(14) 0.35356(17) 0.51014(14)
O17 O 0.76912(16) 0.38423(17) 0.55783(14)
O18 O 0.7057(2) 0.2705(2) 0.55717(19)
V1 V 0.75519(4) 0.37089(4) 0.51007(4)
V2 V 0.76625(5) 0.08485(5) 0.34826(5)
C1K C 0.81760(15) 0.39112(16) 0.10980(13)
C1R C 0.60888(16) 0.10980(13) 0.18240(15)
C2K C 0.81454(14) 0.42828(13) 0.13309(16)
C2R C 0.57172(13) 0.13309(16) 0.18546(14)
C3K C 0.83568(16) 0.43197(13) 0.17146(15)
C3R C 0.56803(13) 0.17146(15) 0.16432(16)
H1K H 0.8336 0.4568 0.1870
H1R H 0.5432 0.1870 0.1664
C4K C 0.85986(16) 0.39851(17) 0.18654(13)
C4R C 0.60149(17) 0.18654(13) 0.14014(16)
C5K C 0.86292(16) 0.36135(15) 0.16325(17)
C5R C 0.63865(15) 0.16325(17) 0.13708(16)
C6K C 0.84179(17) 0.35765(13) 0.12488(16)
C6R C 0.64235(13) 0.12488(16) 0.15821(17)
H2K H 0.8438 0.3328 0.1093
H2R H 0.6672 0.1093 0.1562
C7K C 0.7933(2) 0.3834(2) 0.0701(2)
C7R C 0.6166(2) 0.0701(2) 0.2067(2)
H3K H 0.8108 0.3667 0.0512
H3R H 0.6333 0.0512 0.1892
H4K H 0.7884 0.4105 0.0564
H4R H 0.5895 0.0564 0.2116
O5K O 0.88772(19) 0.32952(16) 0.18197(15)
O5R O 0.67048(16) 0.18197(15) 0.11228(19)
O6K O 0.88237(17) 0.39947(15) 0.22409(16)
O6R O 0.60053(15) 0.22409(16) 0.11763(17)
O7K O 0.96429(19) 0.35699(18) 0.22114(19)
O7R O 0.64301(18) 0.22114(19) 0.03571(19)
O8R O 0.5665(2) 0.2979(3) 0.2934(3)
O8K O 0.7066(3) 0.4335(2) 0.2979(3)
O9R O 0.5140(2) 0.2749(2) 0.2230(2)
O9K O 0.7770(2) 0.4860(2) 0.2749(2)
O10R O 0.5056(3) 0.3559(3) 0.2688(3)
O10K O 0.7312(3) 0.4944(3) 0.3559(3)
C8K C 0.75070(18) 0.36096(17) 0.07495(13)
C8R C 0.63904(17) 0.07495(13) 0.24930(18)
C9K C 0.75112(18) 0.31731(17) 0.08010(14)
C9R C 0.68269(17) 0.08010(14) 0.24888(18)
H5K H 0.7767 0.3027 0.0800
H5R H 0.6973 0.0800 0.2233
C10K C 0.7134(2) 0.29543(13) 0.08537(15)
C10R C 0.70457(13) 0.08537(15) 0.2866(2)
C11K C 0.67517(19) 0.3172(2) 0.08551(16)
C11R C 0.6828(2) 0.08551(16) 0.32483(19)
C12K C 0.67475(18) 0.3609(2) 0.08037(15)
C12R C 0.6391(2) 0.08037(15) 0.32525(18)
H6K H 0.6492 0.3755 0.0805
H6R H 0.6245 0.0805 0.3508
C13K C 0.7125(2) 0.38275(13) 0.07509(13)
C13R C 0.61725(13) 0.07509(13) 0.2875(2)
C14K C 0.7051(2) 0.45196(15) 0.11447(11)
C14R C 0.54804(15) 0.11447(11) 0.2949(2)
C15K C 0.66534(16) 0.45471(15) 0.13309(16)
C15R C 0.54529(15) 0.13309(16) 0.33466(16)
H7R H 0.5541 0.1183 0.3585
H7K H 0.6415 0.4459 0.1183
C16K C 0.66123(14) 0.47069(15) 0.17384(16)
C16R C 0.52931(15) 0.17384(16) 0.33877(14)
C17K C 0.69684(19) 0.48392(13) 0.19597(12)
C17R C 0.51608(13) 0.19597(12) 0.30316(19)
C18K C 0.73657(15) 0.48117(14) 0.17735(16)
C18R C 0.51883(14) 0.17735(16) 0.26343(15)
H8K H 0.7604 0.4900 0.1922
H8R H 0.5100 0.1922 0.2396
C19K C 0.74068(15) 0.46519(15) 0.13660(16)
C19R C 0.53481(15) 0.13660(16) 0.25932(15)
C20K C 0.7092(3) 0.4306(2) 0.0716(2)
C20R C 0.5694(2) 0.0716(2) 0.2908(3)
H9K H 0.7342 0.4414 0.0574
H9R H 0.5586 0.0574 0.2658
H10K H 0.6848 0.4378 0.0545
H10R H 0.5622 0.0545 0.3152
C21K C 0.7852(3) 0.4648(2) 0.1197(3)
C21R C 0.5352(2) 0.1197(3) 0.2148(3)
H11R H 0.5089 0.1280 0.2014
H11K H 0.7986 0.4911 0.1280
H12R H 0.5353 0.0891 0.2164
H12K H 0.7836 0.4647 0.0891
C22R C 0.5141(2) 0.44800(19) 0.40653(19)
C22K C 0.59347(19) 0.4859(2) 0.44800(19)
H13R H 0.4879 0.4547 0.3921
H13K H 0.6079 0.5121 0.4547
H14R H 0.5134 0.4615 0.4341
H14K H 0.5659 0.4866 0.4615
C23R C 0.51718(19) 0.39940(19) 0.4125(2)
C23K C 0.5875(2) 0.48282(19) 0.39940(19)
C24K C 0.6194(2) 0.4978(2) 0.37325(19)
C24R C 0.5022(2) 0.37325(19) 0.3806(2)
H15K H 0.6434 0.5094 0.3857
H15R H 0.4906 0.3857 0.3566
C25K C 0.6172(2) 0.4965(2) 0.3317(2)
C25R C 0.5035(2) 0.3317(2) 0.3828(2)
C26K C 0.5817(2) 0.4798(2) 0.3127(2)
C26R C 0.5202(2) 0.3127(2) 0.4183(2)
C27K C 0.5479(2) 0.46650(17) 0.3351(2)
C27R C 0.53350(17) 0.3351(2) 0.4521(2)
H16K H 0.5232 0.4580 0.3215
H16R H 0.5420 0.3215 0.4768
C28R C 0.53416(18) 0.3813(2) 0.4490(2)
C28K C 0.5510(2) 0.46584(18) 0.3813(2)
Mg2R Mg 0.50443(11) 0.29455(10) 0.28554(10)
Mg2K Mg 0.71446(10) 0.49557(11) 0.29455(10)
O11R O 0.74696(14) 0.09080(16) 0.29185(18)
O11K O 0.70815(18) 0.25304(14) 0.09080(16)
O12K O 0.63968(17) 0.29241(17) 0.08965(17)
O12R O 0.70759(17) 0.08965(17) 0.36032(17)
O13K O 0.69006(15) 0.50095(15) 0.23643(12)
O13R O 0.49905(15) 0.23643(12) 0.30994(15)
O14R O 0.52434(14) 0.19424(14) 0.37684(15)
O14K O 0.62316(15) 0.47566(14) 0.19424(14)
O15K O 0.58050(15) 0.48114(14) 0.26860(15)
O15R O 0.51886(14) 0.26860(15) 0.41950(15)
O16R O 0.48986(14) 0.30415(14) 0.35356(17)
O16K O 0.64644(17) 0.51014(14) 0.30415(14)
O17R O 0.44217(14) 0.23088(16) 0.38423(17)
O17K O 0.61577(17) 0.55783(14) 0.23088(16)
O18R O 0.44283(19) 0.2943(2) 0.2705(2)
O18K O 0.7295(2) 0.55717(19) 0.2943(2)
V1K V 0.62911(4) 0.51007(4) 0.24481(4)
V1R V 0.48993(4) 0.24481(4) 0.37089(4)
V2K V 0.91515(5) 0.34826(5) 0.23375(5)
V2R V 0.65174(5) 0.23375(5) 0.08485(5)
Mg1 Mg 0.5000 0.5000 0.1636(3)
O1 O 0.5463(4) 0.4573(4) 0.1601(4)
O2 O 0.5498(5) 0.5480(5) 0.1652(4)
O3 O 0.5000 0.5000 0.2299(4)
O4 O 0.5000 0.5000 0.0968(4)
O1B O 0.4537(4) 0.5427(4) 0.1601(4)
O2B O 0.4502(5) 0.4520(5) 0.1652(4)
loop_
_geom_bond_atom_site_label_1
_geom_bond_atom_site_label_2
_geom_bond_site_symmetry_1
_geom_bond_site_symmetry_2
Mg1 O1 1_555 1_555
O2 Mg1 1_555 1_555
O3 Mg1 1_555 1_555
O4 Mg1 1_555 1_555
C1 C2 1_555 1_555
C2 C3 1_555 1_555
C3 H1 1_555 1_555
C4 C3 1_555 1_555
C5 C4 1_555 1_555
C6 C1 1_555 1_555
H2 C6 1_555 1_555
C7 C1 1_555 1_555
H3 C7 1_555 1_555
H4 C7 1_555 1_555
O5 C5 1_555 1_555
O6 C4 1_555 1_555
O7 V2 1_555 1_555
O8 Mg2 1_555 1_555
O9 Mg2 1_555 1_555
O10 Mg2 1_555 1_555
C8 C7 1_555 1_555
C9 C8 1_555 1_555
H5 C9 1_555 1_555
C10 C9 1_555 1_555
C11 C10 1_555 1_555
C12 C11 1_555 1_555
H6 C12 1_555 1_555
C13 C8 1_555 1_555
C14 C15 1_555 1_555
C15 H7 1_555 1_555
C16 C15 1_555 1_555
C17 C16 1_555 1_555
C18 C17 1_555 1_555
H8 C18 1_555 1_555
C19 C14 1_555 1_555
C20 C13 1_555 1_555
H9 C20 1_555 1_555
H10 C20 1_555 1_555
C21 C2 1_555 1_555
H11 C21 1_555 1_555
H12 C21 1_555 1_555
C22 H13 1_555 1_555
H14 C22 1_555 1_555
C23 C22 1_555 1_555
C24 C23 1_555 1_555
H15 C24 1_555 1_555
C25 C24 1_555 1_555
C26 C25 1_555 1_555
C27 C26 1_555 1_555
H16 C27 1_555 1_555
C28 C23 1_555 1_555
Mg2 O13 1_555 1_555
O11 C10 1_555 1_555
O12 C11 1_555 1_555
O13 C17 1_555 1_555
O14 C16 1_555 1_555
O15 C26 1_555 1_555
O16 C25 1_555 1_555
O17 V1 1_555 1_555
O18 Mg2 1_555 1_555
V1 O13 1_555 1_555
V2 O5 1_555 1_555
O1B Mg1 1_555 1_555
O2B Mg1 1_555 1_555
C1K C2K 1_555 1_555
C1R C2R 1_555 1_555
C2K C3K 1_555 1_555
C2R C3R 1_555 1_555
C3K H1K 1_555 1_555
C3R H1R 1_555 1_555
C4K C3K 1_555 1_555
C4R C3R 1_555 1_555
C5K C4K 1_555 1_555
C5R C4R 1_555 1_555
C6K C1K 1_555 1_555
C6R C1R 1_555 1_555
H2K C6K 1_555 1_555
H2R C6R 1_555 1_555
C7K C1K 1_555 1_555
C7R C1R 1_555 1_555
H3K C7K 1_555 1_555
H3R C7R 1_555 1_555
H4K C7K 1_555 1_555
H4R C7R 1_555 1_555
O5K C5K 1_555 1_555
O5R C5R 1_555 1_555
O6K C4K 1_555 1_555
O6R C4R 1_555 1_555
O7K V2K 1_555 1_555
O7R V2R 1_555 1_555
O8R Mg2R 1_555 1_555
O8K Mg2K 1_555 1_555
O9R Mg2R 1_555 1_555
O9K Mg2K 1_555 1_555
O10R Mg2R 1_555 1_555
O10K Mg2K 1_555 1_555
C8K C7K 1_555 1_555
C8R C7R 1_555 1_555
C9K C8K 1_555 1_555
C9R C8R 1_555 1_555
H5K C9K 1_555 1_555
H5R C9R 1_555 1_555
C10K C9K 1_555 1_555
C10R C9R 1_555 1_555
C11K C10K 1_555 1_555
C11R C10R 1_555 1_555
C12K C11K 1_555 1_555
C12R C11R 1_555 1_555
H6K C12K 1_555 1_555
H6R C12R 1_555 1_555
C13K C8K 1_555 1_555
C13R C8R 1_555 1_555
C14K C15K 1_555 1_555
C14R C15R 1_555 1_555
C15K H7K 1_555 1_555
C15R H7R 1_555 1_555
C16K C15K 1_555 1_555
C16R C15R 1_555 1_555
C17K C16K 1_555 1_555
C17R C16R 1_555 1_555
C18K C17K 1_555 1_555
C18R C17R 1_555 1_555
H8K C18K 1_555 1_555
H8R C18R 1_555 1_555
C19K C14K 1_555 1_555
C19R C14R 1_555 1_555
C20K C13K 1_555 1_555
C20R C13R 1_555 1_555
H9K C20K 1_555 1_555
H9R C20R 1_555 1_555
H10K C20K 1_555 1_555
H10R C20R 1_555 1_555
C21K C2K 1_555 1_555
C21R C2R 1_555 1_555
H11R C21R 1_555 1_555
H11K C21K 1_555 1_555
H12R C21R 1_555 1_555
H12K C21K 1_555 1_555
C22R H13R 1_555 1_555
C22K C28 1_555 1_555
H13K C22K 1_555 1_555
H14R C22R 1_555 1_555
H14K C22K 1_555 1_555
C23R C22R 1_555 1_555
C23K C22K 1_555 1_555
C24K C23K 1_555 1_555
C24R C23R 1_555 1_555
H15K C24K 1_555 1_555
H15R C24R 1_555 1_555
C25K C24K 1_555 1_555
C25R C24R 1_555 1_555
C26K C25K 1_555 1_555
C26R C25R 1_555 1_555
C27K C26K 1_555 1_555
C27R C26R 1_555 1_555
H16K C27K 1_555 1_555
H16R C27R 1_555 1_555
C28R C22 1_555 1_555
C28K C22R 1_555 1_555
Mg2R O13R 1_555 1_555
Mg2K O13K 1_555 1_555
O11R V2 1_555 1_555
O11K C10K 1_555 1_555
O12K C11K 1_555 1_555
O12R V2 1_555 1_555
O13K C17K 1_555 1_555
O13R C17R 1_555 1_555
O14R C16R 1_555 1_555
O14K C16K 1_555 1_555
O15K C26K 1_555 1_555
O15R C26R 1_555 1_555
O16R C25R 1_555 1_555
O16K C25K 1_555 1_555
O17R V1R 1_555 1_555
O17K V1K 1_555 1_555
O18R Mg2R 1_555 1_555
O18K Mg2K 1_555 1_555
V1K O13K 1_555 1_555
V1R O13R 1_555 1_555
V2K O11 1_555 1_555
V2R O5R 1_555 1_555
C5 C6 1_555 1_555
O6 V2 1_555 1_555
C12 C13 1_555 1_555
C14 C20 1_555 1_555
C18 C19 1_555 1_555
C19 C21 1_555 1_555
C27 C28 1_555 1_555
Mg2 O16 1_555 1_555
O12 V2K 1_555 1_555
O14 V1 1_555 1_555
O15 V1 1_555 1_555
O16 V1 1_555 1_555
C5K C6K 1_555 1_555
C5R C6R 1_555 1_555
O5K V2K 1_555 1_555
O6K V2K 1_555 1_555
O6R V2R 1_555 1_555
C10R O11R 1_555 1_555
C11R O12R 1_555 1_555
C12K C13K 1_555 1_555
C12R C13R 1_555 1_555
C14K C20K 1_555 1_555
C14R C20R 1_555 1_555
C18K C19K 1_555 1_555
C18R C19R 1_555 1_555
C19K C21K 1_555 1_555
C19R C21R 1_555 1_555
C23R C28R 1_555 1_555
C23K C28K 1_555 1_555
C27K C28K 1_555 1_555
C27R C28R 1_555 1_555
Mg2R O16R 1_555 1_555
Mg2K O16K 1_555 1_555
O11K V2R 1_555 1_555
O12K V2R 1_555 1_555
O14R V1R 1_555 1_555
O14K V1K 1_555 1_555
O15K V1K 1_555 1_555
O15R V1R 1_555 1_555
O16R V1R 1_555 1_555
O16K V1K 1_555 1_555

#END
