# generated using pymatgen
data_Cs36Na15V18H144(C9O16)28
_symmetry_space_group_name_H-M   'P 1'
_cell_length_a   32.90515483
_cell_length_b   32.90515483
_cell_length_c   32.90515483
_cell_angle_alpha   109.47122063
_cell_angle_beta   109.47122063
_cell_angle_gamma   109.47122063
_symmetry_Int_Tables_number   1
_chemical_formula_structural   Cs36Na15V18H144(C9O16)28
_chemical_formula_sum   'Cs72 Na30 V36 H288 C504 O896'
_cell_volume   27426.47070348
_cell_formula_units_Z   2
loop_
 _symmetry_equiv_pos_site_id
 _symmetry_equiv_pos_as_xyz
  1  'x, y, z'
loop_
 _atom_site_type_symbol
 _atom_site_label
 _atom_site_symmetry_multiplicity
 _atom_site_fract_x
 _atom_site_fract_y
 _atom_site_fract_z
 _atom_site_occupancy
  C  C1  1  0.911000  0.423000  0.434200  1.0
  C  C2  1  0.988800  0.976800  0.065800  1.0
  C  C3  1  0.589000  0.523200  0.012000  1.0
  C  C4  1  0.511200  0.077000  0.488000  1.0
  C  C5  1  0.011200  0.988000  0.577000  1.0
  C  C6  1  0.089000  0.512000  0.023200  1.0
  C  C7  1  0.488800  0.565800  0.476800  1.0
  C  C8  1  0.411000  0.934200  0.923000  1.0
  C  C9  1  0.434200  0.911000  0.423000  1.0
  C  C10  1  0.065800  0.988800  0.976800  1.0
  C  C11  1  0.488000  0.511200  0.077000  1.0
  C  C12  1  0.012000  0.589000  0.523200  1.0
  C  C13  1  0.512000  0.023200  0.089000  1.0
  C  C14  1  0.934200  0.923000  0.411000  1.0
  C  C15  1  0.988000  0.577000  0.011200  1.0
  C  C16  1  0.565800  0.476800  0.488800  1.0
  C  C17  1  0.423000  0.434200  0.911000  1.0
  C  C18  1  0.976800  0.065800  0.988800  1.0
  C  C19  1  0.077000  0.488000  0.511200  1.0
  C  C20  1  0.523200  0.012000  0.589000  1.0
  C  C21  1  0.923000  0.411000  0.934200  1.0
  C  C22  1  0.476800  0.488800  0.565800  1.0
  C  C23  1  0.023200  0.089000  0.512000  1.0
  C  C24  1  0.577000  0.011200  0.988000  1.0
  C  C25  1  0.902000  0.340700  0.491900  1.0
  C  C26  1  0.848800  0.910100  0.008100  1.0
  C  C27  1  0.598000  0.589900  0.938700  1.0
  C  C28  1  0.651200  0.159300  0.561300  1.0
  C  C29  1  0.151200  0.061300  0.659300  1.0
  C  C30  1  0.098000  0.438700  0.089900  1.0
  C  C31  1  0.348800  0.508100  0.410100  1.0
  C  C32  1  0.402000  0.991900  0.840700  1.0
  C  C33  1  0.491900  0.902000  0.340700  1.0
  C  C34  1  0.008100  0.848800  0.910100  1.0
  C  C35  1  0.561300  0.651200  0.159300  1.0
  C  C36  1  0.938700  0.598000  0.589900  1.0
  C  C37  1  0.438700  0.089900  0.098000  1.0
  C  C38  1  0.991900  0.840700  0.402000  1.0
  C  C39  1  0.061300  0.659300  0.151200  1.0
  C  C40  1  0.508100  0.410100  0.348800  1.0
  C  C41  1  0.340700  0.491900  0.902000  1.0
  C  C42  1  0.910100  0.008100  0.848800  1.0
  C  C43  1  0.159300  0.561300  0.651200  1.0
  C  C44  1  0.589900  0.938700  0.598000  1.0
  C  C45  1  0.840700  0.402000  0.991900  1.0
  C  C46  1  0.410100  0.348800  0.508100  1.0
  C  C47  1  0.089900  0.098000  0.438700  1.0
  C  C48  1  0.659300  0.151200  0.061300  1.0
  C  C49  1  0.907100  0.380900  0.528200  1.0
  C  C50  1  0.852700  0.878900  0.971800  1.0
  C  C51  1  0.592900  0.621100  0.973800  1.0
  C  C52  1  0.647300  0.119100  0.526200  1.0
  C  C53  1  0.147300  0.026200  0.619100  1.0
  C  C54  1  0.092900  0.473800  0.121100  1.0
  C  C55  1  0.352700  0.471800  0.378900  1.0
  C  C56  1  0.407100  0.028200  0.880900  1.0
  C  C57  1  0.528200  0.907100  0.380900  1.0
  C  C58  1  0.971800  0.852700  0.878900  1.0
  C  C59  1  0.526200  0.647300  0.119100  1.0
  C  C60  1  0.973800  0.592900  0.621100  1.0
  C  C61  1  0.473800  0.121100  0.092900  1.0
  C  C62  1  0.028200  0.880900  0.407100  1.0
  C  C63  1  0.026200  0.619100  0.147300  1.0
  C  C64  1  0.471800  0.378900  0.352700  1.0
  C  C65  1  0.380900  0.528200  0.907100  1.0
  C  C66  1  0.878900  0.971800  0.852700  1.0
  C  C67  1  0.119100  0.526200  0.647300  1.0
  C  C68  1  0.621100  0.973800  0.592900  1.0
  C  C69  1  0.880900  0.407100  0.028200  1.0
  C  C70  1  0.378900  0.352700  0.471800  1.0
  C  C71  1  0.121100  0.092900  0.473800  1.0
  C  C72  1  0.619100  0.147300  0.026200  1.0
  C  C73  1  0.886500  0.375000  0.558700  1.0
  C  C74  1  0.816300  0.827800  0.941300  1.0
  C  C75  1  0.613500  0.672200  0.988500  1.0
  C  C76  1  0.683700  0.125000  0.511500  1.0
  C  C77  1  0.183700  0.011500  0.625000  1.0
  C  C78  1  0.113500  0.488500  0.172200  1.0
  C  C79  1  0.316300  0.441300  0.327800  1.0
  C  C80  1  0.386500  0.058700  0.875000  1.0
  C  C81  1  0.558700  0.886500  0.375000  1.0
  C  C82  1  0.941300  0.816300  0.827800  1.0
  C  C83  1  0.511500  0.683700  0.125000  1.0
  C  C84  1  0.988500  0.613500  0.672200  1.0
  C  C85  1  0.488500  0.172200  0.113500  1.0
  C  C86  1  0.058700  0.875000  0.386500  1.0
  C  C87  1  0.011500  0.625000  0.183700  1.0
  C  C88  1  0.441300  0.327800  0.316300  1.0
  C  C89  1  0.375000  0.558700  0.886500  1.0
  C  C90  1  0.827800  0.941300  0.816300  1.0
  C  C91  1  0.125000  0.511500  0.683700  1.0
  C  C92  1  0.672200  0.988500  0.613500  1.0
  C  C93  1  0.875000  0.386500  0.058700  1.0
  C  C94  1  0.327800  0.316300  0.441300  1.0
  C  C95  1  0.172200  0.113500  0.488500  1.0
  C  C96  1  0.625000  0.183700  0.011500  1.0
  C  C97  1  0.857900  0.328300  0.549000  1.0
  C  C98  1  0.779300  0.808900  0.951000  1.0
  C  C99  1  0.642100  0.691100  0.970400  1.0
  C  C100  1  0.720700  0.171700  0.529600  1.0
  C  C101  1  0.220700  0.029600  0.671700  1.0
  C  C102  1  0.142100  0.470400  0.191100  1.0
  C  C103  1  0.279300  0.451000  0.308900  1.0
  C  C104  1  0.357900  0.049000  0.828300  1.0
  C  C105  1  0.549000  0.857900  0.328300  1.0
  C  C106  1  0.951000  0.779300  0.808900  1.0
  C  C107  1  0.529600  0.720700  0.171700  1.0
  C  C108  1  0.970400  0.642100  0.691100  1.0
  C  C109  1  0.470400  0.191100  0.142100  1.0
  C  C110  1  0.049000  0.828300  0.357900  1.0
  C  C111  1  0.029600  0.671700  0.220700  1.0
  C  C112  1  0.451000  0.308900  0.279300  1.0
  C  C113  1  0.328300  0.549000  0.857900  1.0
  C  C114  1  0.808900  0.951000  0.779300  1.0
  C  C115  1  0.171700  0.529600  0.720700  1.0
  C  C116  1  0.691100  0.970400  0.642100  1.0
  C  C117  1  0.828300  0.357900  0.049000  1.0
  C  C118  1  0.308900  0.279300  0.451000  1.0
  C  C119  1  0.191100  0.142100  0.470400  1.0
  C  C120  1  0.671700  0.220700  0.029600  1.0
  C  C121  1  0.851300  0.285700  0.511600  1.0
  C  C122  1  0.774100  0.839700  0.988400  1.0
  C  C123  1  0.648700  0.660300  0.934400  1.0
  C  C124  1  0.725900  0.214300  0.565600  1.0
  C  C125  1  0.225900  0.065600  0.714300  1.0
  C  C126  1  0.148700  0.434400  0.160300  1.0
  C  C127  1  0.274100  0.488400  0.339700  1.0
  C  C128  1  0.351300  0.011600  0.785700  1.0
  C  C129  1  0.511600  0.851300  0.285700  1.0
  C  C130  1  0.988400  0.774100  0.839700  1.0
  C  C131  1  0.565600  0.725900  0.214300  1.0
  C  C132  1  0.934400  0.648700  0.660300  1.0
  C  C133  1  0.434400  0.160300  0.148700  1.0
  C  C134  1  0.011600  0.785700  0.351300  1.0
  C  C135  1  0.065600  0.714300  0.225900  1.0
  C  C136  1  0.488400  0.339700  0.274100  1.0
  C  C137  1  0.285700  0.511600  0.851300  1.0
  C  C138  1  0.839700  0.988400  0.774100  1.0
  C  C139  1  0.214300  0.565600  0.725900  1.0
  C  C140  1  0.660300  0.934400  0.648700  1.0
  C  C141  1  0.785700  0.351300  0.011600  1.0
  C  C142  1  0.339700  0.274100  0.488400  1.0
  C  C143  1  0.160300  0.148700  0.434400  1.0
  C  C144  1  0.714300  0.225900  0.065600  1.0
  C  C145  1  0.872800  0.291800  0.482400  1.0
  C  C146  1  0.809400  0.890400  0.017600  1.0
  C  C147  1  0.627200  0.609600  0.919000  1.0
  C  C148  1  0.690600  0.208200  0.581000  1.0
  C  C149  1  0.190600  0.081000  0.708200  1.0
  C  C150  1  0.127200  0.419000  0.109600  1.0
  C  C151  1  0.309400  0.517600  0.390400  1.0
  C  C152  1  0.372800  0.982400  0.791800  1.0
  C  C153  1  0.482400  0.872800  0.291800  1.0
  C  C154  1  0.017600  0.809400  0.890400  1.0
  C  C155  1  0.581000  0.690600  0.208200  1.0
  C  C156  1  0.919000  0.627200  0.609600  1.0
  C  C157  1  0.419000  0.109600  0.127200  1.0
  C  C158  1  0.982400  0.791800  0.372800  1.0
  C  C159  1  0.081000  0.708200  0.190600  1.0
  C  C160  1  0.517600  0.390400  0.309400  1.0
  C  C161  1  0.291800  0.482400  0.872800  1.0
  C  C162  1  0.890400  0.017600  0.809400  1.0
  C  C163  1  0.208200  0.581000  0.690600  1.0
  C  C164  1  0.609600  0.919000  0.627200  1.0
  C  C165  1  0.791800  0.372800  0.982400  1.0
  C  C166  1  0.390400  0.309400  0.517600  1.0
  C  C167  1  0.109600  0.127200  0.419000  1.0
  C  C168  1  0.708200  0.190600  0.081000  1.0
  C  C169  1  0.883600  0.332800  0.407000  1.0
  C  C170  1  0.925800  0.976600  0.093000  1.0
  C  C171  1  0.616400  0.523400  0.949200  1.0
  C  C172  1  0.574200  0.167200  0.550800  1.0
  C  C173  1  0.074200  0.050800  0.667200  1.0
  C  C174  1  0.116400  0.449200  0.023400  1.0
  C  C175  1  0.425800  0.593000  0.476600  1.0
  C  C176  1  0.383600  0.907000  0.832800  1.0
  C  C177  1  0.407000  0.883600  0.332800  1.0
  C  C178  1  0.093000  0.925800  0.976600  1.0
  C  C179  1  0.550800  0.574200  0.167200  1.0
  C  C180  1  0.949200  0.616400  0.523400  1.0
  C  C181  1  0.449200  0.023400  0.116400  1.0
  C  C182  1  0.907000  0.832800  0.383600  1.0
  C  C183  1  0.050800  0.667200  0.074200  1.0
  C  C184  1  0.593000  0.476600  0.425800  1.0
  C  C185  1  0.332800  0.407000  0.883600  1.0
  C  C186  1  0.976600  0.093000  0.925800  1.0
  C  C187  1  0.167200  0.550800  0.574200  1.0
  C  C188  1  0.523400  0.949200  0.616400  1.0
  C  C189  1  0.832800  0.383600  0.907000  1.0
  C  C190  1  0.476600  0.425800  0.593000  1.0
  C  C191  1  0.023400  0.116400  0.449200  1.0
  C  C192  1  0.667200  0.074200  0.050800  1.0
  C  C193  1  0.848800  0.281400  0.371000  1.0
  C  C194  1  0.910400  0.977800  0.129000  1.0
  C  C195  1  0.651200  0.522200  0.932600  1.0
  C  C196  1  0.589600  0.218600  0.567400  1.0
  C  C197  1  0.089600  0.067400  0.718600  1.0
  C  C198  1  0.151200  0.432600  0.022200  1.0
  C  C199  1  0.410400  0.629000  0.477800  1.0
  C  C200  1  0.348800  0.871000  0.781400  1.0
  C  C201  1  0.371000  0.848800  0.281400  1.0
  C  C202  1  0.129000  0.910400  0.977800  1.0
  C  C203  1  0.567400  0.589600  0.218600  1.0
  C  C204  1  0.932600  0.651200  0.522200  1.0
  C  C205  1  0.432600  0.022200  0.151200  1.0
  C  C206  1  0.871000  0.781400  0.348800  1.0
  C  C207  1  0.067400  0.718600  0.089600  1.0
  C  C208  1  0.629000  0.477800  0.410400  1.0
  C  C209  1  0.281400  0.371000  0.848800  1.0
  C  C210  1  0.977800  0.129000  0.910400  1.0
  C  C211  1  0.218600  0.567400  0.589600  1.0
  C  C212  1  0.522200  0.932600  0.651200  1.0
  C  C213  1  0.781400  0.348800  0.871000  1.0
  C  C214  1  0.477800  0.410400  0.629000  1.0
  C  C215  1  0.022200  0.151200  0.432600  1.0
  C  C216  1  0.718600  0.089600  0.067400  1.0
  C  C217  1  0.812100  0.268200  0.328300  1.0
  C  C218  1  0.939900  0.983800  0.171700  1.0
  C  C219  1  0.687900  0.516200  0.956100  1.0
  C  C220  1  0.560100  0.231800  0.543900  1.0
  C  C221  1  0.060100  0.043900  0.731800  1.0
  C  C222  1  0.187900  0.456100  0.016200  1.0
  C  C223  1  0.439900  0.671700  0.483800  1.0
  C  C224  1  0.312100  0.828300  0.768200  1.0
  C  C225  1  0.328300  0.812100  0.268200  1.0
  C  C226  1  0.171700  0.939900  0.983800  1.0
  C  C227  1  0.543900  0.560100  0.231800  1.0
  C  C228  1  0.956100  0.687900  0.516200  1.0
  C  C229  1  0.456100  0.016200  0.187900  1.0
  C  C230  1  0.828300  0.768200  0.312100  1.0
  C  C231  1  0.043900  0.731800  0.060100  1.0
  C  C232  1  0.671700  0.483800  0.439900  1.0
  C  C233  1  0.268200  0.328300  0.812100  1.0
  C  C234  1  0.983800  0.171700  0.939900  1.0
  C  C235  1  0.231800  0.543900  0.560100  1.0
  C  C236  1  0.516200  0.956100  0.687900  1.0
  C  C237  1  0.768200  0.312100  0.828300  1.0
  C  C238  1  0.483800  0.439900  0.671700  1.0
  C  C239  1  0.016200  0.187900  0.456100  1.0
  C  C240  1  0.731800  0.060100  0.043900  1.0
  C  C241  1  0.806600  0.304200  0.316600  1.0
  C  C242  1  0.987600  0.990000  0.183400  1.0
  C  C243  1  0.693400  0.510000  0.997600  1.0
  C  C244  1  0.512400  0.195800  0.502400  1.0
  C  C245  1  0.012400  0.002400  0.695800  1.0
  C  C246  1  0.193400  0.497600  0.010000  1.0
  C  C247  1  0.487600  0.683400  0.490000  1.0
  C  C248  1  0.306600  0.816600  0.804200  1.0
  C  C249  1  0.316600  0.806600  0.304200  1.0
  C  C250  1  0.183400  0.987600  0.990000  1.0
  C  C251  1  0.502400  0.512400  0.195800  1.0
  C  C252  1  0.997600  0.693400  0.510000  1.0
  C  C253  1  0.497600  0.010000  0.193400  1.0
  C  C254  1  0.816600  0.804200  0.306600  1.0
  C  C255  1  0.002400  0.695800  0.012400  1.0
  C  C256  1  0.683400  0.490000  0.487600  1.0
  C  C257  1  0.304200  0.316600  0.806600  1.0
  C  C258  1  0.990000  0.183400  0.987600  1.0
  C  C259  1  0.195800  0.502400  0.512400  1.0
  C  C260  1  0.510000  0.997600  0.693400  1.0
  C  C261  1  0.804200  0.306600  0.816600  1.0
  C  C262  1  0.490000  0.487600  0.683400  1.0
  C  C263  1  0.010000  0.193400  0.497600  1.0
  C  C264  1  0.695800  0.012400  0.002400  1.0
  C  C265  1  0.841700  0.355000  0.351500  1.0
  C  C266  1  0.003500  0.990200  0.148500  1.0
  C  C267  1  0.658300  0.509800  0.013300  1.0
  C  C268  1  0.496500  0.145000  0.486700  1.0
  C  C269  1  0.996500  0.986700  0.645000  1.0
  C  C270  1  0.158300  0.513300  0.009800  1.0
  C  C271  1  0.503500  0.648500  0.490200  1.0
  C  C272  1  0.341700  0.851500  0.855000  1.0
  C  C273  1  0.351500  0.841700  0.355000  1.0
  C  C274  1  0.148500  0.003500  0.990200  1.0
  C  C275  1  0.486700  0.496500  0.145000  1.0
  C  C276  1  0.013300  0.658300  0.509800  1.0
  C  C277  1  0.513300  0.009800  0.158300  1.0
  C  C278  1  0.851500  0.855000  0.341700  1.0
  C  C279  1  0.986700  0.645000  0.996500  1.0
  C  C280  1  0.648500  0.490200  0.503500  1.0
  C  C281  1  0.355000  0.351500  0.841700  1.0
  C  C282  1  0.990200  0.148500  0.003500  1.0
  C  C283  1  0.145000  0.486700  0.496500  1.0
  C  C284  1  0.509800  0.013300  0.658300  1.0
  C  C285  1  0.855000  0.341700  0.851500  1.0
  C  C286  1  0.490200  0.503500  0.648500  1.0
  C  C287  1  0.009800  0.158300  0.513300  1.0
  C  C288  1  0.645000  0.996500  0.986700  1.0
  C  C289  1  0.880100  0.369000  0.397100  1.0
  C  C290  1  0.971900  0.983000  0.102900  1.0
  C  C291  1  0.619900  0.517000  0.988900  1.0
  C  C292  1  0.528100  0.131000  0.511100  1.0
  C  C293  1  0.028100  0.011100  0.631000  1.0
  C  C294  1  0.119900  0.488900  0.017000  1.0
  C  C295  1  0.471900  0.602900  0.483000  1.0
  C  C296  1  0.380100  0.897100  0.869000  1.0
  C  C297  1  0.397100  0.880100  0.369000  1.0
  C  C298  1  0.102900  0.971900  0.983000  1.0
  C  C299  1  0.511100  0.528100  0.131000  1.0
  C  C300  1  0.988900  0.619900  0.517000  1.0
  C  C301  1  0.488900  0.017000  0.119900  1.0
  C  C302  1  0.897100  0.869000  0.380100  1.0
  C  C303  1  0.011100  0.631000  0.028100  1.0
  C  C304  1  0.602900  0.483000  0.471900  1.0
  C  C305  1  0.369000  0.397100  0.880100  1.0
  C  C306  1  0.983000  0.102900  0.971900  1.0
  C  C307  1  0.131000  0.511100  0.528100  1.0
  C  C308  1  0.517000  0.988900  0.619900  1.0
  C  C309  1  0.869000  0.380100  0.897100  1.0
  C  C310  1  0.483000  0.471900  0.602900  1.0
  C  C311  1  0.017000  0.119900  0.488900  1.0
  C  C312  1  0.631000  0.028100  0.011100  1.0
  C  C313  1  0.887900  0.442300  0.463000  1.0
  C  C314  1  0.979300  0.924900  0.037000  1.0
  C  C315  1  0.612100  0.575100  0.054400  1.0
  C  C316  1  0.520700  0.057700  0.445600  1.0
  C  C317  1  0.020700  0.945600  0.557700  1.0
  C  C318  1  0.112100  0.554400  0.075100  1.0
  C  C319  1  0.479300  0.537000  0.424900  1.0
  C  C320  1  0.387900  0.963000  0.942300  1.0
  C  C321  1  0.463000  0.887900  0.442300  1.0
  C  C322  1  0.037000  0.979300  0.924900  1.0
  C  C323  1  0.445600  0.520700  0.057700  1.0
  C  C324  1  0.054400  0.612100  0.575100  1.0
  C  C325  1  0.554400  0.075100  0.112100  1.0
  C  C326  1  0.963000  0.942300  0.387900  1.0
  C  C327  1  0.945600  0.557700  0.020700  1.0
  C  C328  1  0.537000  0.424900  0.479300  1.0
  C  C329  1  0.442300  0.463000  0.887900  1.0
  C  C330  1  0.924900  0.037000  0.979300  1.0
  C  C331  1  0.057700  0.445600  0.520700  1.0
  C  C332  1  0.575100  0.054400  0.612100  1.0
  C  C333  1  0.942300  0.387900  0.963000  1.0
  C  C334  1  0.424900  0.479300  0.537000  1.0
  C  C335  1  0.075100  0.112100  0.554400  1.0
  C  C336  1  0.557700  0.020700  0.945600  1.0
  C  C337  1  0.851700  0.451600  0.438700  1.0
  C  C338  1  0.012900  0.913000  0.061300  1.0
  C  C339  1  0.648300  0.587000  0.099900  1.0
  C  C340  1  0.487100  0.048400  0.400100  1.0
  C  C341  1  0.987100  0.900100  0.548400  1.0
  C  C342  1  0.148300  0.599900  0.087000  1.0
  C  C343  1  0.512900  0.561300  0.413000  1.0
  C  C344  1  0.351700  0.938700  0.951600  1.0
  C  C345  1  0.438700  0.851700  0.451600  1.0
  C  C346  1  0.061300  0.012900  0.913000  1.0
  C  C347  1  0.400100  0.487100  0.048400  1.0
  C  C348  1  0.099900  0.648300  0.587000  1.0
  C  C349  1  0.599900  0.087000  0.148300  1.0
  C  C350  1  0.938700  0.951600  0.351700  1.0
  C  C351  1  0.900100  0.548400  0.987100  1.0
  C  C352  1  0.561300  0.413000  0.512900  1.0
  C  C353  1  0.451600  0.438700  0.851700  1.0
  C  C354  1  0.913000  0.061300  0.012900  1.0
  C  C355  1  0.048400  0.400100  0.487100  1.0
  C  C356  1  0.587000  0.099900  0.648300  1.0
  C  C357  1  0.951600  0.351700  0.938700  1.0
  C  C358  1  0.413000  0.512900  0.561300  1.0
  C  C359  1  0.087000  0.148300  0.599900  1.0
  C  C360  1  0.548400  0.987100  0.900100  1.0
  C  C361  1  0.823700  0.464900  0.458800  1.0
  C  C362  1  0.006100  0.864900  0.041200  1.0
  C  C363  1  0.676300  0.635100  0.141200  1.0
  C  C364  1  0.493900  0.035100  0.358800  1.0
  C  C365  1  0.993900  0.858800  0.535100  1.0
  C  C366  1  0.176300  0.641200  0.135100  1.0
  C  C367  1  0.506100  0.541200  0.364900  1.0
  C  C368  1  0.323700  0.958800  0.964900  1.0
  C  C369  1  0.458800  0.823700  0.464900  1.0
  C  C370  1  0.041200  0.006100  0.864900  1.0
  C  C371  1  0.358800  0.493900  0.035100  1.0
  C  C372  1  0.141200  0.676300  0.635100  1.0
  C  C373  1  0.641200  0.135100  0.176300  1.0
  C  C374  1  0.958800  0.964900  0.323700  1.0
  C  C375  1  0.858800  0.535100  0.993900  1.0
  C  C376  1  0.541200  0.364900  0.506100  1.0
  C  C377  1  0.464900  0.458800  0.823700  1.0
  C  C378  1  0.864900  0.041200  0.006100  1.0
  C  C379  1  0.035100  0.358800  0.493900  1.0
  C  C380  1  0.635100  0.141200  0.676300  1.0
  C  C381  1  0.964900  0.323700  0.958800  1.0
  C  C382  1  0.364900  0.506100  0.541200  1.0
  C  C383  1  0.135100  0.176300  0.641200  1.0
  C  C384  1  0.535100  0.993900  0.858800  1.0
  C  C385  1  0.834000  0.468800  0.505000  1.0
  C  C386  1  0.963800  0.829000  0.995000  1.0
  C  C387  1  0.666000  0.671000  0.134800  1.0
  C  C388  1  0.536200  0.031200  0.365200  1.0
  C  C389  1  0.036200  0.865200  0.531200  1.0
  C  C390  1  0.166000  0.634800  0.171000  1.0
  C  C391  1  0.463800  0.495000  0.329000  1.0
  C  C392  1  0.334000  0.005000  0.968800  1.0
  C  C393  1  0.505000  0.834000  0.468800  1.0
  C  C394  1  0.995000  0.963800  0.829000  1.0
  C  C395  1  0.365200  0.536200  0.031200  1.0
  C  C396  1  0.134800  0.666000  0.671000  1.0
  C  C397  1  0.634800  0.171000  0.166000  1.0
  C  C398  1  0.005000  0.968800  0.334000  1.0
  C  C399  1  0.865200  0.531200  0.036200  1.0
  C  C400  1  0.495000  0.329000  0.463800  1.0
  C  C401  1  0.468800  0.505000  0.834000  1.0
  C  C402  1  0.829000  0.995000  0.963800  1.0
  C  C403  1  0.031200  0.365200  0.536200  1.0
  C  C404  1  0.671000  0.134800  0.666000  1.0
  C  C405  1  0.968800  0.334000  0.005000  1.0
  C  C406  1  0.329000  0.463800  0.495000  1.0
  C  C407  1  0.171000  0.166000  0.634800  1.0
  C  C408  1  0.531200  0.036200  0.865200  1.0
  C  C409  1  0.869500  0.460300  0.529400  1.0
  C  C410  1  0.930900  0.840100  0.970600  1.0
  C  C411  1  0.630500  0.659900  0.090800  1.0
  C  C412  1  0.569100  0.039700  0.409200  1.0
  C  C413  1  0.069100  0.909200  0.539700  1.0
  C  C414  1  0.130500  0.590800  0.159900  1.0
  C  C415  1  0.430900  0.470600  0.340100  1.0
  C  C416  1  0.369500  0.029400  0.960300  1.0
  C  C417  1  0.529400  0.869500  0.460300  1.0
  C  C418  1  0.970600  0.930900  0.840100  1.0
  C  C419  1  0.409200  0.569100  0.039700  1.0
  C  C420  1  0.090800  0.630500  0.659900  1.0
  C  C421  1  0.590800  0.159900  0.130500  1.0
  C  C422  1  0.029400  0.960300  0.369500  1.0
  C  C423  1  0.909200  0.539700  0.069100  1.0
  C  C424  1  0.470600  0.340100  0.430900  1.0
  C  C425  1  0.460300  0.529400  0.869500  1.0
  C  C426  1  0.840100  0.970600  0.930900  1.0
  C  C427  1  0.039700  0.409200  0.569100  1.0
  C  C428  1  0.659900  0.090800  0.630500  1.0
  C  C429  1  0.960300  0.369500  0.029400  1.0
  C  C430  1  0.340100  0.430900  0.470600  1.0
  C  C431  1  0.159900  0.130500  0.590800  1.0
  C  C432  1  0.539700  0.069100  0.909200  1.0
  C  C433  1  0.896400  0.445700  0.508300  1.0
  C  C434  1  0.937400  0.888100  0.991700  1.0
  C  C435  1  0.603600  0.611900  0.049300  1.0
  C  C436  1  0.562600  0.054300  0.450700  1.0
  C  C437  1  0.062600  0.950700  0.554300  1.0
  C  C438  1  0.103600  0.549300  0.111900  1.0
  C  C439  1  0.437400  0.491700  0.388100  1.0
  C  C440  1  0.396400  0.008300  0.945700  1.0
  C  C441  1  0.508300  0.896400  0.445700  1.0
  C  C442  1  0.991700  0.937400  0.888100  1.0
  C  C443  1  0.450700  0.562600  0.054300  1.0
  C  C444  1  0.049300  0.603600  0.611900  1.0
  C  C445  1  0.549300  0.111900  0.103600  1.0
  C  C446  1  0.008300  0.945700  0.396400  1.0
  C  C447  1  0.950700  0.554300  0.062600  1.0
  C  C448  1  0.491700  0.388100  0.437400  1.0
  C  C449  1  0.445700  0.508300  0.896400  1.0
  C  C450  1  0.888100  0.991700  0.937400  1.0
  C  C451  1  0.054300  0.450700  0.562600  1.0
  C  C452  1  0.611900  0.049300  0.603600  1.0
  C  C453  1  0.945700  0.396400  0.008300  1.0
  C  C454  1  0.388100  0.437400  0.491700  1.0
  C  C455  1  0.111900  0.103600  0.549300  1.0
  C  C456  1  0.554300  0.062600  0.950700  1.0
  C  C457  1  0.931600  0.432700  0.536900  1.0
  C  C458  1  0.895800  0.894700  0.963100  1.0
  C  C459  1  0.568400  0.605300  0.001100  1.0
  C  C460  1  0.604200  0.067300  0.498900  1.0
  C  C461  1  0.104200  0.998900  0.567300  1.0
  C  C462  1  0.068400  0.501100  0.105300  1.0
  C  C463  1  0.395800  0.463100  0.394700  1.0
  C  C464  1  0.431600  0.036900  0.932700  1.0
  C  C465  1  0.536900  0.931600  0.432700  1.0
  C  C466  1  0.963100  0.895800  0.894700  1.0
  C  C467  1  0.498900  0.604200  0.067300  1.0
  C  C468  1  0.001100  0.568400  0.605300  1.0
  C  C469  1  0.501100  0.105300  0.068400  1.0
  C  C470  1  0.036900  0.932700  0.431600  1.0
  C  C471  1  0.998900  0.567300  0.104200  1.0
  C  C472  1  0.463100  0.394700  0.395800  1.0
  C  C473  1  0.432700  0.536900  0.931600  1.0
  C  C474  1  0.894700  0.963100  0.895800  1.0
  C  C475  1  0.067300  0.498900  0.604200  1.0
  C  C476  1  0.605300  0.001100  0.568400  1.0
  C  C477  1  0.932700  0.431600  0.036900  1.0
  C  C478  1  0.394700  0.395800  0.463100  1.0
  C  C479  1  0.105300  0.068400  0.501100  1.0
  C  C480  1  0.567300  0.104200  0.998900  1.0
  C  C481  1  0.921100  0.342700  0.456200  1.0
  C  C482  1  0.886500  0.964900  0.043800  1.0
  C  C483  1  0.578900  0.535100  0.921600  1.0
  C  C484  1  0.613500  0.157300  0.578400  1.0
  C  C485  1  0.113500  0.078400  0.657300  1.0
  C  C486  1  0.078900  0.421600  0.035100  1.0
  C  C487  1  0.386500  0.543800  0.464900  1.0
  C  C488  1  0.421100  0.956200  0.842700  1.0
  C  C489  1  0.456200  0.921100  0.342700  1.0
  C  C490  1  0.043800  0.886500  0.964900  1.0
  C  C491  1  0.578400  0.613500  0.157300  1.0
  C  C492  1  0.921600  0.578900  0.535100  1.0
  C  C493  1  0.421600  0.035100  0.078900  1.0
  C  C494  1  0.956200  0.842700  0.421100  1.0
  C  C495  1  0.078400  0.657300  0.113500  1.0
  C  C496  1  0.543800  0.464900  0.386500  1.0
  C  C497  1  0.342700  0.456200  0.921100  1.0
  C  C498  1  0.964900  0.043800  0.886500  1.0
  C  C499  1  0.157300  0.578400  0.613500  1.0
  C  C500  1  0.535100  0.921600  0.578900  1.0
  C  C501  1  0.842700  0.421100  0.956200  1.0
  C  C502  1  0.464900  0.386500  0.543800  1.0
  C  C503  1  0.035100  0.078900  0.421600  1.0
  C  C504  1  0.657300  0.113500  0.078400  1.0
  Cs  Cs505  1  0.962000  0.316800  0.598200  1
  Cs  Cs506  1  0.718600  0.863800  0.901800  1
  Cs  Cs507  1  0.538000  0.636200  0.854800  1
  Cs  Cs508  1  0.781400  0.183200  0.645200  1
  Cs  Cs509  1  0.281400  0.145200  0.683200  1
  Cs  Cs510  1  0.038000  0.354800  0.136200  1
  Cs  Cs511  1  0.218600  0.401800  0.363800  1
  Cs  Cs512  1  0.462000  0.098200  0.816800  1
  Cs  Cs513  1  0.598200  0.962000  0.316800  1
  Cs  Cs514  1  0.901800  0.718600  0.863800  1
  Cs  Cs515  1  0.645200  0.781400  0.183200  1
  Cs  Cs516  1  0.854800  0.538000  0.636200  1
  Cs  Cs517  1  0.354800  0.136200  0.038000  1
  Cs  Cs518  1  0.098200  0.816800  0.462000  1
  Cs  Cs519  1  0.145200  0.683200  0.281400  1
  Cs  Cs520  1  0.401800  0.363800  0.218600  1
  Cs  Cs521  1  0.316800  0.598200  0.962000  1
  Cs  Cs522  1  0.863800  0.901800  0.718600  1
  Cs  Cs523  1  0.183200  0.645200  0.781400  1
  Cs  Cs524  1  0.636200  0.854800  0.538000  1
  Cs  Cs525  1  0.816800  0.462000  0.098200  1
  Cs  Cs526  1  0.363800  0.218600  0.401800  1
  Cs  Cs527  1  0.136200  0.038000  0.354800  1
  Cs  Cs528  1  0.683200  0.281400  0.145200  1
  Cs  Cs529  1  0.782220  0.328700  0.427380  1
  Cs  Cs530  1  0.901320  0.854840  0.072620  1
  Cs  Cs531  1  0.717780  0.645160  0.046480  1
  Cs  Cs532  1  0.598680  0.171300  0.453520  1
  Cs  Cs533  1  0.098680  0.953520  0.671300  1
  Cs  Cs534  1  0.217780  0.546480  0.145160  1
  Cs  Cs535  1  0.401320  0.572620  0.354840  1
  Cs  Cs536  1  0.282220  0.927380  0.828700  1
  Cs  Cs537  1  0.427380  0.782220  0.328700  1
  Cs  Cs538  1  0.072620  0.901320  0.854840  1
  Cs  Cs539  1  0.453520  0.598680  0.171300  1
  Cs  Cs540  1  0.046480  0.717780  0.645160  1
  Cs  Cs541  1  0.546480  0.145160  0.217780  1
  Cs  Cs542  1  0.927380  0.828700  0.282220  1
  Cs  Cs543  1  0.953520  0.671300  0.098680  1
  Cs  Cs544  1  0.572620  0.354840  0.401320  1
  Cs  Cs545  1  0.328700  0.427380  0.782220  1
  Cs  Cs546  1  0.854840  0.072620  0.901320  1
  Cs  Cs547  1  0.171300  0.453520  0.598680  1
  Cs  Cs548  1  0.645160  0.046480  0.717780  1
  Cs  Cs549  1  0.828700  0.282220  0.927380  1
  Cs  Cs550  1  0.354840  0.401320  0.572620  1
  Cs  Cs551  1  0.145160  0.217780  0.546480  1
  Cs  Cs552  1  0.671300  0.098680  0.953520  1
  Cs  Cs553  1  0.898320  0.198800  0.517120  1
  Cs  Cs554  1  0.681680  0.881200  0.982880  1
  Cs  Cs555  1  0.601680  0.618800  0.800480  1
  Cs  Cs556  1  0.818320  0.301200  0.699520  1
  Cs  Cs557  1  0.318320  0.199520  0.801200  1
  Cs  Cs558  1  0.101680  0.300480  0.118800  1
  Cs  Cs559  1  0.181680  0.482880  0.381200  1
  Cs  Cs560  1  0.398320  0.017120  0.698800  1
  Cs  Cs561  1  0.517120  0.898320  0.198800  1
  Cs  Cs562  1  0.982880  0.681680  0.881200  1
  Cs  Cs563  1  0.699520  0.818320  0.301200  1
  Cs  Cs564  1  0.800480  0.601680  0.618800  1
  Cs  Cs565  1  0.300480  0.118800  0.101680  1
  Cs  Cs566  1  0.017120  0.698800  0.398320  1
  Cs  Cs567  1  0.199520  0.801200  0.318320  1
  Cs  Cs568  1  0.482880  0.381200  0.181680  1
  Cs  Cs569  1  0.198800  0.517120  0.898320  1
  Cs  Cs570  1  0.881200  0.982880  0.681680  1
  Cs  Cs571  1  0.301200  0.699520  0.818320  1
  Cs  Cs572  1  0.618800  0.800480  0.601680  1
  Cs  Cs573  1  0.698800  0.398320  0.017120  1
  Cs  Cs574  1  0.381200  0.181680  0.482880  1
  Cs  Cs575  1  0.118800  0.101680  0.300480  1
  Cs  Cs576  1  0.801200  0.318320  0.199520  1
  H  H577  1  0.917300  0.441400  0.417300  1.0
  H  H578  1  0.024100  0.000000  0.082700  1.0
  H  H579  1  0.582700  0.500000  0.024100  1.0
  H  H580  1  0.475900  0.058600  0.475900  1.0
  H  H581  1  0.975900  0.975900  0.558600  1.0
  H  H582  1  0.082700  0.524100  0.000000  1.0
  H  H583  1  0.524100  0.582700  0.500000  1.0
  H  H584  1  0.417300  0.917300  0.941400  1.0
  H  H585  1  0.417300  0.917300  0.441400  1.0
  H  H586  1  0.082700  0.024100  0.000000  1.0
  H  H587  1  0.475900  0.475900  0.058600  1.0
  H  H588  1  0.024100  0.582700  0.500000  1.0
  H  H589  1  0.524100  0.000000  0.082700  1.0
  H  H590  1  0.917300  0.941400  0.417300  1.0
  H  H591  1  0.975900  0.558600  0.975900  1.0
  H  H592  1  0.582700  0.500000  0.524100  1.0
  H  H593  1  0.441400  0.417300  0.917300  1.0
  H  H594  1  0.000000  0.082700  0.024100  1.0
  H  H595  1  0.058600  0.475900  0.475900  1.0
  H  H596  1  0.500000  0.024100  0.582700  1.0
  H  H597  1  0.941400  0.417300  0.917300  1.0
  H  H598  1  0.500000  0.524100  0.582700  1.0
  H  H599  1  0.000000  0.082700  0.524100  1.0
  H  H600  1  0.558600  0.975900  0.975900  1.0
  H  H601  1  0.942900  0.429500  0.457600  1.0
  H  H602  1  0.971900  0.985300  0.042400  1.0
  H  H603  1  0.557100  0.514700  0.986600  1.0
  H  H604  1  0.528100  0.070500  0.513400  1.0
  H  H605  1  0.028100  0.013400  0.570500  1.0
  H  H606  1  0.057100  0.486600  0.014700  1.0
  H  H607  1  0.471900  0.542400  0.485300  1.0
  H  H608  1  0.442900  0.957600  0.929500  1.0
  H  H609  1  0.457600  0.942900  0.429500  1.0
  H  H610  1  0.042400  0.971900  0.985300  1.0
  H  H611  1  0.513400  0.528100  0.070500  1.0
  H  H612  1  0.986600  0.557100  0.514700  1.0
  H  H613  1  0.486600  0.014700  0.057100  1.0
  H  H614  1  0.957600  0.929500  0.442900  1.0
  H  H615  1  0.013400  0.570500  0.028100  1.0
  H  H616  1  0.542400  0.485300  0.471900  1.0
  H  H617  1  0.429500  0.457600  0.942900  1.0
  H  H618  1  0.985300  0.042400  0.971900  1.0
  H  H619  1  0.070500  0.513400  0.528100  1.0
  H  H620  1  0.514700  0.986600  0.557100  1.0
  H  H621  1  0.929500  0.442900  0.957600  1.0
  H  H622  1  0.485300  0.471900  0.542400  1.0
  H  H623  1  0.014700  0.057100  0.486600  1.0
  H  H624  1  0.570500  0.028100  0.013400  1.0
  H  H625  1  0.892200  0.402600  0.585000  1.0
  H  H626  1  0.817600  0.807200  0.915000  1.0
  H  H627  1  0.607800  0.692800  0.010400  1.0
  H  H628  1  0.682400  0.097400  0.489600  1.0
  H  H629  1  0.182400  0.989600  0.597400  1.0
  H  H630  1  0.107800  0.510400  0.192800  1.0
  H  H631  1  0.317600  0.415000  0.307200  1.0
  H  H632  1  0.392200  0.085000  0.902600  1.0
  H  H633  1  0.585000  0.892200  0.402600  1.0
  H  H634  1  0.915000  0.817600  0.807200  1.0
  H  H635  1  0.489600  0.682400  0.097400  1.0
  H  H636  1  0.010400  0.607800  0.692800  1.0
  H  H637  1  0.510400  0.192800  0.107800  1.0
  H  H638  1  0.085000  0.902600  0.392200  1.0
  H  H639  1  0.989600  0.597400  0.182400  1.0
  H  H640  1  0.415000  0.307200  0.317600  1.0
  H  H641  1  0.402600  0.585000  0.892200  1.0
  H  H642  1  0.807200  0.915000  0.817600  1.0
  H  H643  1  0.097400  0.489600  0.682400  1.0
  H  H644  1  0.692800  0.010400  0.607800  1.0
  H  H645  1  0.902600  0.392200  0.085000  1.0
  H  H646  1  0.307200  0.317600  0.415000  1.0
  H  H647  1  0.192800  0.107800  0.510400  1.0
  H  H648  1  0.597400  0.182400  0.989600  1.0
  H  H649  1  0.868200  0.264200  0.457000  1.0
  H  H650  1  0.807200  0.911200  0.043000  1.0
  H  H651  1  0.631800  0.588800  0.896000  1.0
  H  H652  1  0.692800  0.235800  0.604000  1.0
  H  H653  1  0.192800  0.104000  0.735800  1.0
  H  H654  1  0.131800  0.396000  0.088800  1.0
  H  H655  1  0.307200  0.543000  0.411200  1.0
  H  H656  1  0.368200  0.957000  0.764200  1.0
  H  H657  1  0.457000  0.868200  0.264200  1.0
  H  H658  1  0.043000  0.807200  0.911200  1.0
  H  H659  1  0.604000  0.692800  0.235800  1.0
  H  H660  1  0.896000  0.631800  0.588800  1.0
  H  H661  1  0.396000  0.088800  0.131800  1.0
  H  H662  1  0.957000  0.764200  0.368200  1.0
  H  H663  1  0.104000  0.735800  0.192800  1.0
  H  H664  1  0.543000  0.411200  0.307200  1.0
  H  H665  1  0.264200  0.457000  0.868200  1.0
  H  H666  1  0.911200  0.043000  0.807200  1.0
  H  H667  1  0.235800  0.604000  0.692800  1.0
  H  H668  1  0.588800  0.896000  0.631800  1.0
  H  H669  1  0.764200  0.368200  0.957000  1.0
  H  H670  1  0.411200  0.307200  0.543000  1.0
  H  H671  1  0.088800  0.131800  0.396000  1.0
  H  H672  1  0.735800  0.192800  0.104000  1.0
  H  H673  1  0.852100  0.257100  0.377800  1.0
  H  H674  1  0.879300  0.974300  0.122200  1.0
  H  H675  1  0.647900  0.525700  0.905000  1.0
  H  H676  1  0.620700  0.242900  0.595000  1.0
  H  H677  1  0.120700  0.095000  0.742900  1.0
  H  H678  1  0.147900  0.405000  0.025700  1.0
  H  H679  1  0.379300  0.622200  0.474300  1.0
  H  H680  1  0.352100  0.877800  0.757100  1.0
  H  H681  1  0.377800  0.852100  0.257100  1.0
  H  H682  1  0.122200  0.879300  0.974300  1.0
  H  H683  1  0.595000  0.620700  0.242900  1.0
  H  H684  1  0.905000  0.647900  0.525700  1.0
  H  H685  1  0.405000  0.025700  0.147900  1.0
  H  H686  1  0.877800  0.757100  0.352100  1.0
  H  H687  1  0.095000  0.742900  0.120700  1.0
  H  H688  1  0.622200  0.474300  0.379300  1.0
  H  H689  1  0.257100  0.377800  0.852100  1.0
  H  H690  1  0.974300  0.122200  0.879300  1.0
  H  H691  1  0.242900  0.595000  0.620700  1.0
  H  H692  1  0.525700  0.905000  0.647900  1.0
  H  H693  1  0.757100  0.352100  0.877800  1.0
  H  H694  1  0.474300  0.379300  0.622200  1.0
  H  H695  1  0.025700  0.147900  0.405000  1.0
  H  H696  1  0.742900  0.120700  0.095000  1.0
  H  H697  1  0.839100  0.379200  0.344100  1.0
  H  H698  1  0.035100  0.995000  0.155900  1.0
  H  H699  1  0.660900  0.505000  0.040100  1.0
  H  H700  1  0.464900  0.120800  0.459900  1.0
  H  H701  1  0.964900  0.959900  0.620800  1.0
  H  H702  1  0.160900  0.540100  0.005000  1.0
  H  H703  1  0.535100  0.655900  0.495000  1.0
  H  H704  1  0.339100  0.844100  0.879200  1.0
  H  H705  1  0.344100  0.839100  0.379200  1.0
  H  H706  1  0.155900  0.035100  0.995000  1.0
  H  H707  1  0.459900  0.464900  0.120800  1.0
  H  H708  1  0.040100  0.660900  0.505000  1.0
  H  H709  1  0.540100  0.005000  0.160900  1.0
  H  H710  1  0.844100  0.879200  0.339100  1.0
  H  H711  1  0.959900  0.620800  0.964900  1.0
  H  H712  1  0.655900  0.495000  0.535100  1.0
  H  H713  1  0.379200  0.344100  0.839100  1.0
  H  H714  1  0.995000  0.155900  0.035100  1.0
  H  H715  1  0.120800  0.459900  0.464900  1.0
  H  H716  1  0.505000  0.040100  0.660900  1.0
  H  H717  1  0.879200  0.339100  0.844100  1.0
  H  H718  1  0.495000  0.535100  0.655900  1.0
  H  H719  1  0.005000  0.160900  0.540100  1.0
  H  H720  1  0.620800  0.964900  0.959900  1.0
  H  H721  1  0.845900  0.448900  0.408000  1.0
  H  H722  1  0.040900  0.937900  0.092000  1.0
  H  H723  1  0.654100  0.562100  0.103000  1.0
  H  H724  1  0.459100  0.051100  0.397000  1.0
  H  H725  1  0.959100  0.897000  0.551100  1.0
  H  H726  1  0.154100  0.603000  0.062100  1.0
  H  H727  1  0.540900  0.592000  0.437900  1.0
  H  H728  1  0.345900  0.908000  0.948900  1.0
  H  H729  1  0.408000  0.845900  0.448900  1.0
  H  H730  1  0.092000  0.040900  0.937900  1.0
  H  H731  1  0.397000  0.459100  0.051100  1.0
  H  H732  1  0.103000  0.654100  0.562100  1.0
  H  H733  1  0.603000  0.062100  0.154100  1.0
  H  H734  1  0.908000  0.948900  0.345900  1.0
  H  H735  1  0.897000  0.551100  0.959100  1.0
  H  H736  1  0.592000  0.437900  0.540900  1.0
  H  H737  1  0.448900  0.408000  0.845900  1.0
  H  H738  1  0.937900  0.092000  0.040900  1.0
  H  H739  1  0.051100  0.397000  0.459100  1.0
  H  H740  1  0.562100  0.103000  0.654100  1.0
  H  H741  1  0.948900  0.345900  0.908000  1.0
  H  H742  1  0.437900  0.540900  0.592000  1.0
  H  H743  1  0.062100  0.154100  0.603000  1.0
  H  H744  1  0.551100  0.959100  0.897000  1.0
  H  H745  1  0.876200  0.464300  0.560700  1.0
  H  H746  1  0.903600  0.815500  0.939300  1.0
  H  H747  1  0.623800  0.684500  0.088100  1.0
  H  H748  1  0.596400  0.035700  0.411900  1.0
  H  H749  1  0.096400  0.911900  0.535700  1.0
  H  H750  1  0.123800  0.588100  0.184500  1.0
  H  H751  1  0.403600  0.439300  0.315500  1.0
  H  H752  1  0.376200  0.060700  0.964300  1.0
  H  H753  1  0.560700  0.876200  0.464300  1.0
  H  H754  1  0.939300  0.903600  0.815500  1.0
  H  H755  1  0.411900  0.596400  0.035700  1.0
  H  H756  1  0.088100  0.623800  0.684500  1.0
  H  H757  1  0.588100  0.184500  0.123800  1.0
  H  H758  1  0.060700  0.964300  0.376200  1.0
  H  H759  1  0.911900  0.535700  0.096400  1.0
  H  H760  1  0.439300  0.315500  0.403600  1.0
  H  H761  1  0.464300  0.560700  0.876200  1.0
  H  H762  1  0.815500  0.939300  0.903600  1.0
  H  H763  1  0.035700  0.411900  0.596400  1.0
  H  H764  1  0.684500  0.088100  0.623800  1.0
  H  H765  1  0.964300  0.376200  0.060700  1.0
  H  H766  1  0.315500  0.403600  0.439300  1.0
  H  H767  1  0.184500  0.123800  0.588100  1.0
  H  H768  1  0.535700  0.096400  0.911900  1.0
  H  H769  1  0.957200  0.436700  0.527700  1.0
  H  H770  1  0.909000  0.929500  0.972300  1.0
  H  H771  1  0.542800  0.570500  0.979500  1.0
  H  H772  1  0.591000  0.063300  0.520500  1.0
  H  H773  1  0.091000  0.020500  0.563300  1.0
  H  H774  1  0.042800  0.479500  0.070500  1.0
  H  H775  1  0.409000  0.472300  0.429500  1.0
  H  H776  1  0.457200  0.027700  0.936700  1.0
  H  H777  1  0.527700  0.957200  0.436700  1.0
  H  H778  1  0.972300  0.909000  0.929500  1.0
  H  H779  1  0.520500  0.591000  0.063300  1.0
  H  H780  1  0.979500  0.542800  0.570500  1.0
  H  H781  1  0.479500  0.070500  0.042800  1.0
  H  H782  1  0.027700  0.936700  0.457200  1.0
  H  H783  1  0.020500  0.563300  0.091000  1.0
  H  H784  1  0.472300  0.429500  0.409000  1.0
  H  H785  1  0.436700  0.527700  0.957200  1.0
  H  H786  1  0.929500  0.972300  0.909000  1.0
  H  H787  1  0.063300  0.520500  0.591000  1.0
  H  H788  1  0.570500  0.979500  0.542800  1.0
  H  H789  1  0.936700  0.457200  0.027700  1.0
  H  H790  1  0.429500  0.409000  0.472300  1.0
  H  H791  1  0.070500  0.042800  0.479500  1.0
  H  H792  1  0.563300  0.091000  0.020500  1.0
  H  H793  1  0.947800  0.456000  0.572200  1.0
  H  H794  1  0.883800  0.875600  0.927800  1.0
  H  H795  1  0.552200  0.624400  0.008200  1.0
  H  H796  1  0.616200  0.044000  0.491800  1.0
  H  H797  1  0.116200  0.991800  0.544000  1.0
  H  H798  1  0.052200  0.508200  0.124400  1.0
  H  H799  1  0.383800  0.427800  0.375600  1.0
  H  H800  1  0.447800  0.072200  0.956000  1.0
  H  H801  1  0.572200  0.947800  0.456000  1.0
  H  H802  1  0.927800  0.883800  0.875600  1.0
  H  H803  1  0.491800  0.616200  0.044000  1.0
  H  H804  1  0.008200  0.552200  0.624400  1.0
  H  H805  1  0.508200  0.124400  0.052200  1.0
  H  H806  1  0.072200  0.956000  0.447800  1.0
  H  H807  1  0.991800  0.544000  0.116200  1.0
  H  H808  1  0.427800  0.375600  0.383800  1.0
  H  H809  1  0.456000  0.572200  0.947800  1.0
  H  H810  1  0.875600  0.927800  0.883800  1.0
  H  H811  1  0.044000  0.491800  0.616200  1.0
  H  H812  1  0.624400  0.008200  0.552200  1.0
  H  H813  1  0.956000  0.447800  0.072200  1.0
  H  H814  1  0.375600  0.383800  0.427800  1.0
  H  H815  1  0.124400  0.052200  0.508200  1.0
  H  H816  1  0.544000  0.116200  0.991800  1.0
  H  H817  1  0.932100  0.318400  0.449500  1.0
  H  H818  1  0.868900  0.982600  0.050500  1.0
  H  H819  1  0.567900  0.517400  0.886300  1.0
  H  H820  1  0.631100  0.181600  0.613700  1.0
  H  H821  1  0.131100  0.113700  0.681600  1.0
  H  H822  1  0.067900  0.386300  0.017400  1.0
  H  H823  1  0.368900  0.550500  0.482600  1.0
  H  H824  1  0.432100  0.949500  0.818400  1.0
  H  H825  1  0.449500  0.932100  0.318400  1.0
  H  H826  1  0.050500  0.868900  0.982600  1.0
  H  H827  1  0.613700  0.631100  0.181600  1.0
  H  H828  1  0.886300  0.567900  0.517400  1.0
  H  H829  1  0.386300  0.017400  0.067900  1.0
  H  H830  1  0.949500  0.818400  0.432100  1.0
  H  H831  1  0.113700  0.681600  0.131100  1.0
  H  H832  1  0.550500  0.482600  0.368900  1.0
  H  H833  1  0.318400  0.449500  0.932100  1.0
  H  H834  1  0.982600  0.050500  0.868900  1.0
  H  H835  1  0.181600  0.613700  0.631100  1.0
  H  H836  1  0.517400  0.886300  0.567900  1.0
  H  H837  1  0.818400  0.432100  0.949500  1.0
  H  H838  1  0.482600  0.368900  0.550500  1.0
  H  H839  1  0.017400  0.067900  0.386300  1.0
  H  H840  1  0.681600  0.131100  0.113700  1.0
  H  H841  1  0.950000  0.375300  0.472300  1.0
  H  H842  1  0.903000  0.977700  0.027700  1.0
  H  H843  1  0.550000  0.522300  0.925300  1.0
  H  H844  1  0.597000  0.124700  0.574700  1.0
  H  H845  1  0.097000  0.074700  0.624700  1.0
  H  H846  1  0.050000  0.425300  0.022300  1.0
  H  H847  1  0.403000  0.527700  0.477700  1.0
  H  H848  1  0.450000  0.972300  0.875300  1.0
  H  H849  1  0.472300  0.950000  0.375300  1.0
  H  H850  1  0.027700  0.903000  0.977700  1.0
  H  H851  1  0.574700  0.597000  0.124700  1.0
  H  H852  1  0.925300  0.550000  0.522300  1.0
  H  H853  1  0.425300  0.022300  0.050000  1.0
  H  H854  1  0.972300  0.875300  0.450000  1.0
  H  H855  1  0.074700  0.624700  0.097000  1.0
  H  H856  1  0.527700  0.477700  0.403000  1.0
  H  H857  1  0.375300  0.472300  0.950000  1.0
  H  H858  1  0.977700  0.027700  0.903000  1.0
  H  H859  1  0.124700  0.574700  0.597000  1.0
  H  H860  1  0.522300  0.925300  0.550000  1.0
  H  H861  1  0.875300  0.450000  0.972300  1.0
  H  H862  1  0.477700  0.403000  0.527700  1.0
  H  H863  1  0.022300  0.050000  0.425300  1.0
  H  H864  1  0.624700  0.097000  0.074700  1.0
  Na  Na865  1  0.625000  0.250000  0.375000  1
  Na  Na866  1  0.875000  0.750000  0.125000  1
  Na  Na867  1  0.125000  0.875000  0.750000  1
  Na  Na868  1  0.375000  0.625000  0.250000  1
  Na  Na869  1  0.250000  0.375000  0.625000  1
  Na  Na870  1  0.750000  0.125000  0.875000  1
  Na  Na871  1  0.896400  0.082800  0.394400  1
  Na  Na872  1  0.688400  0.002000  0.105600  1
  Na  Na873  1  0.603600  0.498000  0.686400  1
  Na  Na874  1  0.811600  0.417200  0.813600  1
  Na  Na875  1  0.311600  0.313600  0.917200  1
  Na  Na876  1  0.103600  0.186400  0.998000  1
  Na  Na877  1  0.188400  0.605600  0.502000  1
  Na  Na878  1  0.396400  0.894400  0.582800  1
  Na  Na879  1  0.394400  0.896400  0.082800  1
  Na  Na880  1  0.105600  0.688400  0.002000  1
  Na  Na881  1  0.813600  0.811600  0.417200  1
  Na  Na882  1  0.686400  0.603600  0.498000  1
  Na  Na883  1  0.186400  0.998000  0.103600  1
  Na  Na884  1  0.894400  0.582800  0.396400  1
  Na  Na885  1  0.313600  0.917200  0.311600  1
  Na  Na886  1  0.605600  0.502000  0.188400  1
  Na  Na887  1  0.082800  0.394400  0.896400  1
  Na  Na888  1  0.002000  0.105600  0.688400  1
  Na  Na889  1  0.417200  0.813600  0.811600  1
  Na  Na890  1  0.498000  0.686400  0.603600  1
  Na  Na891  1  0.582800  0.396400  0.894400  1
  Na  Na892  1  0.502000  0.188400  0.605600  1
  Na  Na893  1  0.998000  0.103600  0.186400  1
  Na  Na894  1  0.917200  0.311600  0.313600  1
  O  O895  1  0.719200  0.371900  0.368100  1
  O  O896  1  0.003800  0.851100  0.131900  1
  O  O897  1  0.780800  0.648900  0.152700  1
  O  O898  1  0.496200  0.128100  0.347300  1
  O  O899  1  0.996200  0.847300  0.628100  1
  O  O900  1  0.280800  0.652700  0.148900  1
  O  O901  1  0.503800  0.631900  0.351100  1
  O  O902  1  0.219200  0.868100  0.871900  1
  O  O903  1  0.368100  0.719200  0.371900  1
  O  O904  1  0.131900  0.003800  0.851100  1
  O  O905  1  0.347300  0.496200  0.128100  1
  O  O906  1  0.152700  0.780800  0.648900  1
  O  O907  1  0.652700  0.148900  0.280800  1
  O  O908  1  0.868100  0.871900  0.219200  1
  O  O909  1  0.847300  0.628100  0.996200  1
  O  O910  1  0.631900  0.351100  0.503800  1
  O  O911  1  0.371900  0.368100  0.719200  1
  O  O912  1  0.851100  0.131900  0.003800  1
  O  O913  1  0.128100  0.347300  0.496200  1
  O  O914  1  0.648900  0.152700  0.780800  1
  O  O915  1  0.871900  0.219200  0.868100  1
  O  O916  1  0.351100  0.503800  0.631900  1
  O  O917  1  0.148900  0.280800  0.652700  1
  O  O918  1  0.628100  0.996200  0.847300  1
  O  O919  1  0.120100  0.372900  0.626800  1
  O  O920  1  0.746100  0.993300  0.873200  1
  O  O921  1  0.379900  0.506700  0.752800  1
  O  O922  1  0.753900  0.127100  0.747200  1
  O  O923  1  0.253900  0.247200  0.627100  1
  O  O924  1  0.879900  0.252800  0.006700  1
  O  O925  1  0.246100  0.373200  0.493300  1
  O  O926  1  0.620100  0.126800  0.872900  1
  O  O927  1  0.626800  0.120100  0.372900  1
  O  O928  1  0.873200  0.746100  0.993300  1
  O  O929  1  0.747200  0.753900  0.127100  1
  O  O930  1  0.752800  0.379900  0.506700  1
  O  O931  1  0.252800  0.006700  0.879900  1
  O  O932  1  0.126800  0.872900  0.620100  1
  O  O933  1  0.247200  0.627100  0.253900  1
  O  O934  1  0.373200  0.493300  0.246100  1
  O  O935  1  0.372900  0.626800  0.120100  1
  O  O936  1  0.993300  0.873200  0.746100  1
  O  O937  1  0.127100  0.747200  0.753900  1
  O  O938  1  0.506700  0.752800  0.379900  1
  O  O939  1  0.872900  0.620100  0.126800  1
  O  O940  1  0.493300  0.246100  0.373200  1
  O  O941  1  0.006700  0.879900  0.252800  1
  O  O942  1  0.627100  0.253900  0.247200  1
  O  O943  1  0.672600  0.244700  0.332900  1
  O  O944  1  0.911800  0.839700  0.167100  1
  O  O945  1  0.827400  0.660300  0.072100  1
  O  O946  1  0.588200  0.255300  0.427900  1
  O  O947  1  0.088200  0.927900  0.755300  1
  O  O948  1  0.327400  0.572100  0.160300  1
  O  O949  1  0.411800  0.667100  0.339700  1
  O  O950  1  0.172600  0.832900  0.744700  1
  O  O951  1  0.332900  0.672600  0.244700  1
  O  O952  1  0.167100  0.911800  0.839700  1
  O  O953  1  0.427900  0.588200  0.255300  1
  O  O954  1  0.072100  0.827400  0.660300  1
  O  O955  1  0.572100  0.160300  0.327400  1
  O  O956  1  0.832900  0.744700  0.172600  1
  O  O957  1  0.927900  0.755300  0.088200  1
  O  O958  1  0.667100  0.339700  0.411800  1
  O  O959  1  0.244700  0.332900  0.672600  1
  O  O960  1  0.839700  0.167100  0.911800  1
  O  O961  1  0.255300  0.427900  0.588200  1
  O  O962  1  0.660300  0.072100  0.827400  1
  O  O963  1  0.744700  0.172600  0.832900  1
  O  O964  1  0.339700  0.411800  0.667100  1
  O  O965  1  0.160300  0.327400  0.572100  1
  O  O966  1  0.755300  0.088200  0.927900  1
  O  O967  1  0.687900  0.250000  0.437900  1
  O  O968  1  0.812100  0.750000  0.062100  1
  O  O969  1  0.187900  0.937900  0.750000  1
  O  O970  1  0.312100  0.562100  0.250000  1
  O  O971  1  0.437900  0.687900  0.250000  1
  O  O972  1  0.062100  0.812100  0.750000  1
  O  O973  1  0.562100  0.250000  0.312100  1
  O  O974  1  0.937900  0.750000  0.187900  1
  O  O975  1  0.250000  0.437900  0.687900  1
  O  O976  1  0.750000  0.062100  0.812100  1
  O  O977  1  0.750000  0.187900  0.937900  1
  O  O978  1  0.250000  0.312100  0.562100  1
  O  O979  1  0.074300  0.349700  0.702200  1
  O  O980  1  0.647500  0.872100  0.797800  1
  O  O981  1  0.425700  0.627900  0.775400  1
  O  O982  1  0.852500  0.150300  0.724600  1
  O  O983  1  0.352500  0.224600  0.650300  1
  O  O984  1  0.925700  0.275400  0.127900  1
  O  O985  1  0.147500  0.297800  0.372100  1
  O  O986  1  0.574300  0.202200  0.849700  1
  O  O987  1  0.702200  0.074300  0.349700  1
  O  O988  1  0.797800  0.647500  0.872100  1
  O  O989  1  0.724600  0.852500  0.150300  1
  O  O990  1  0.775400  0.425700  0.627900  1
  O  O991  1  0.275400  0.127900  0.925700  1
  O  O992  1  0.202200  0.849700  0.574300  1
  O  O993  1  0.224600  0.650300  0.352500  1
  O  O994  1  0.297800  0.372100  0.147500  1
  O  O995  1  0.349700  0.702200  0.074300  1
  O  O996  1  0.872100  0.797800  0.647500  1
  O  O997  1  0.150300  0.724600  0.852500  1
  O  O998  1  0.627900  0.775400  0.425700  1
  O  O999  1  0.849700  0.574300  0.202200  1
  O  O1000  1  0.372100  0.147500  0.297800  1
  O  O1001  1  0.127900  0.925700  0.275400  1
  O  O1002  1  0.650300  0.352500  0.224600  1
  O  O1003  1  0.012600  0.419200  0.680400  1
  O  O1004  1  0.738800  0.832200  0.819600  1
  O  O1005  1  0.487400  0.667800  0.906600  1
  O  O1006  1  0.761200  0.080800  0.593400  1
  O  O1007  1  0.261200  0.093400  0.580800  1
  O  O1008  1  0.987400  0.406600  0.167800  1
  O  O1009  1  0.238800  0.319600  0.332200  1
  O  O1010  1  0.512600  0.180400  0.919200  1
  O  O1011  1  0.680400  0.012600  0.419200  1
  O  O1012  1  0.819600  0.738800  0.832200  1
  O  O1013  1  0.593400  0.761200  0.080800  1
  O  O1014  1  0.906600  0.487400  0.667800  1
  O  O1015  1  0.406600  0.167800  0.987400  1
  O  O1016  1  0.180400  0.919200  0.512600  1
  O  O1017  1  0.093400  0.580800  0.261200  1
  O  O1018  1  0.319600  0.332200  0.238800  1
  O  O1019  1  0.419200  0.680400  0.012600  1
  O  O1020  1  0.832200  0.819600  0.738800  1
  O  O1021  1  0.080800  0.593400  0.761200  1
  O  O1022  1  0.667800  0.906600  0.487400  1
  O  O1023  1  0.919200  0.512600  0.180400  1
  O  O1024  1  0.332200  0.238800  0.319600  1
  O  O1025  1  0.167800  0.987400  0.406600  1
  O  O1026  1  0.580800  0.261200  0.093400  1
  O  O1027  1  0.998000  0.237000  0.607000  1
  O  O1028  1  0.630000  0.891000  0.893000  1
  O  O1029  1  0.502000  0.609000  0.739000  1
  O  O1030  1  0.870000  0.263000  0.761000  1
  O  O1031  1  0.370000  0.261000  0.763000  1
  O  O1032  1  0.002000  0.239000  0.109000  1
  O  O1033  1  0.130000  0.393000  0.391000  1
  O  O1034  1  0.498000  0.107000  0.737000  1
  O  O1035  1  0.607000  0.998000  0.237000  1
  O  O1036  1  0.893000  0.630000  0.891000  1
  O  O1037  1  0.761000  0.870000  0.263000  1
  O  O1038  1  0.739000  0.502000  0.609000  1
  O  O1039  1  0.239000  0.109000  0.002000  1
  O  O1040  1  0.107000  0.737000  0.498000  1
  O  O1041  1  0.261000  0.763000  0.370000  1
  O  O1042  1  0.393000  0.391000  0.130000  1
  O  O1043  1  0.237000  0.607000  0.998000  1
  O  O1044  1  0.891000  0.893000  0.630000  1
  O  O1045  1  0.263000  0.761000  0.870000  1
  O  O1046  1  0.609000  0.739000  0.502000  1
  O  O1047  1  0.737000  0.498000  0.107000  1
  O  O1048  1  0.391000  0.130000  0.393000  1
  O  O1049  1  0.109000  0.002000  0.239000  1
  O  O1050  1  0.763000  0.370000  0.261000  1
  O  O1051  1  0.876300  0.008900  0.300600  1
  O  O1052  1  0.708300  0.075700  0.199400  1
  O  O1053  1  0.623700  0.424300  0.632600  1
  O  O1054  1  0.791700  0.491100  0.867400  1
  O  O1055  1  0.291700  0.367400  0.991100  1
  O  O1056  1  0.123700  0.132600  0.924300  1
  O  O1057  1  0.208300  0.699400  0.575700  1
  O  O1058  1  0.376300  0.800600  0.508900  1
  O  O1059  1  0.300600  0.876300  0.008900  1
  O  O1060  1  0.199400  0.708300  0.075700  1
  O  O1061  1  0.867400  0.791700  0.491100  1
  O  O1062  1  0.632600  0.623700  0.424300  1
  O  O1063  1  0.132600  0.924300  0.123700  1
  O  O1064  1  0.800600  0.508900  0.376300  1
  O  O1065  1  0.367400  0.991100  0.291700  1
  O  O1066  1  0.699400  0.575700  0.208300  1
  O  O1067  1  0.008900  0.300600  0.876300  1
  O  O1068  1  0.075700  0.199400  0.708300  1
  O  O1069  1  0.491100  0.867400  0.791700  1
  O  O1070  1  0.424300  0.632600  0.623700  1
  O  O1071  1  0.508900  0.376300  0.800600  1
  O  O1072  1  0.575700  0.208300  0.699400  1
  O  O1073  1  0.924300  0.123700  0.132600  1
  O  O1074  1  0.991100  0.291700  0.367400  1
  O  O1075  1  0.881000  0.196000  0.655000  1
  O  O1076  1  0.541000  0.726000  0.845000  1
  O  O1077  1  0.619000  0.774000  0.815000  1
  O  O1078  1  0.959000  0.304000  0.685000  1
  O  O1079  1  0.459000  0.185000  0.804000  1
  O  O1080  1  0.119000  0.315000  0.274000  1
  O  O1081  1  0.041000  0.345000  0.226000  1
  O  O1082  1  0.381000  0.155000  0.696000  1
  O  O1083  1  0.655000  0.881000  0.196000  1
  O  O1084  1  0.845000  0.541000  0.726000  1
  O  O1085  1  0.685000  0.959000  0.304000  1
  O  O1086  1  0.815000  0.619000  0.774000  1
  O  O1087  1  0.315000  0.274000  0.119000  1
  O  O1088  1  0.155000  0.696000  0.381000  1
  O  O1089  1  0.185000  0.804000  0.459000  1
  O  O1090  1  0.345000  0.226000  0.041000  1
  O  O1091  1  0.196000  0.655000  0.881000  1
  O  O1092  1  0.726000  0.845000  0.541000  1
  O  O1093  1  0.304000  0.685000  0.959000  1
  O  O1094  1  0.774000  0.815000  0.619000  1
  O  O1095  1  0.696000  0.381000  0.155000  1
  O  O1096  1  0.226000  0.041000  0.345000  1
  O  O1097  1  0.274000  0.119000  0.315000  1
  O  O1098  1  0.804000  0.459000  0.185000  1
  O  O1099  1  0.928500  0.155500  0.334800  1
  O  O1100  1  0.820700  0.093700  0.165200  1
  O  O1101  1  0.571500  0.406300  0.727000  1
  O  O1102  1  0.679300  0.344500  0.773000  1
  O  O1103  1  0.179300  0.273000  0.844500  1
  O  O1104  1  0.071500  0.227000  0.906300  1
  O  O1105  1  0.320700  0.665200  0.593700  1
  O  O1106  1  0.428500  0.834800  0.655500  1
  O  O1107  1  0.334800  0.928500  0.155500  1
  O  O1108  1  0.165200  0.820700  0.093700  1
  O  O1109  1  0.773000  0.679300  0.344500  1
  O  O1110  1  0.727000  0.571500  0.406300  1
  O  O1111  1  0.227000  0.906300  0.071500  1
  O  O1112  1  0.834800  0.655500  0.428500  1
  O  O1113  1  0.273000  0.844500  0.179300  1
  O  O1114  1  0.665200  0.593700  0.320700  1
  O  O1115  1  0.155500  0.334800  0.928500  1
  O  O1116  1  0.093700  0.165200  0.820700  1
  O  O1117  1  0.344500  0.773000  0.679300  1
  O  O1118  1  0.406300  0.727000  0.571500  1
  O  O1119  1  0.655500  0.428500  0.834800  1
  O  O1120  1  0.593700  0.320700  0.665200  1
  O  O1121  1  0.906300  0.071500  0.227000  1
  O  O1122  1  0.844500  0.179300  0.273000  1
  O  O1123  1  0.758800  0.167300  0.341100  1
  O  O1124  1  0.826200  0.917700  0.158900  1
  O  O1125  1  0.741200  0.582300  0.908500  1
  O  O1126  1  0.673800  0.332700  0.591500  1
  O  O1127  1  0.173800  0.091500  0.832700  1
  O  O1128  1  0.241200  0.408500  0.082300  1
  O  O1129  1  0.326200  0.658900  0.417700  1
  O  O1130  1  0.258800  0.841100  0.667300  1
  O  O1131  1  0.341100  0.758800  0.167300  1
  O  O1132  1  0.158900  0.826200  0.917700  1
  O  O1133  1  0.591500  0.673800  0.332700  1
  O  O1134  1  0.908500  0.741200  0.582300  1
  O  O1135  1  0.408500  0.082300  0.241200  1
  O  O1136  1  0.841100  0.667300  0.258800  1
  O  O1137  1  0.091500  0.832700  0.173800  1
  O  O1138  1  0.658900  0.417700  0.326200  1
  O  O1139  1  0.167300  0.341100  0.758800  1
  O  O1140  1  0.917700  0.158900  0.826200  1
  O  O1141  1  0.332700  0.591500  0.673800  1
  O  O1142  1  0.582300  0.908500  0.741200  1
  O  O1143  1  0.667300  0.258800  0.841100  1
  O  O1144  1  0.417700  0.326200  0.658900  1
  O  O1145  1  0.082300  0.241200  0.408500  1
  O  O1146  1  0.832700  0.173800  0.091500  1
  O  O1147  1  0.839900  0.211300  0.183200  1
  O  O1148  1  0.028100  0.156700  0.316800  1
  O  O1149  1  0.660100  0.343300  0.871400  1
  O  O1150  1  0.471900  0.288700  0.628600  1
  O  O1151  1  0.971900  0.128600  0.788700  1
  O  O1152  1  0.160100  0.371400  0.843300  1
  O  O1153  1  0.528100  0.816800  0.656700  1
  O  O1154  1  0.339900  0.683200  0.711300  1
  O  O1155  1  0.183200  0.839900  0.211300  1
  O  O1156  1  0.316800  0.028100  0.156700  1
  O  O1157  1  0.628600  0.471900  0.288700  1
  O  O1158  1  0.871400  0.660100  0.343300  1
  O  O1159  1  0.371400  0.843300  0.160100  1
  O  O1160  1  0.683200  0.711300  0.339900  1
  O  O1161  1  0.128600  0.788700  0.971900  1
  O  O1162  1  0.816800  0.656700  0.528100  1
  O  O1163  1  0.211300  0.183200  0.839900  1
  O  O1164  1  0.156700  0.316800  0.028100  1
  O  O1165  1  0.288700  0.628600  0.471900  1
  O  O1166  1  0.343300  0.871400  0.660100  1
  O  O1167  1  0.711300  0.339900  0.683200  1
  O  O1168  1  0.656700  0.528100  0.816800  1
  O  O1169  1  0.843300  0.160100  0.371400  1
  O  O1170  1  0.788700  0.971900  0.128600  1
  O  O1171  1  0.808700  0.123400  0.542500  1
  O  O1172  1  0.580900  0.766200  0.957500  1
  O  O1173  1  0.691300  0.733800  0.814700  1
  O  O1174  1  0.919100  0.376600  0.685300  1
  O  O1175  1  0.419100  0.185300  0.876600  1
  O  O1176  1  0.191300  0.314700  0.233800  1
  O  O1177  1  0.080900  0.457500  0.266200  1
  O  O1178  1  0.308700  0.042500  0.623400  1
  O  O1179  1  0.542500  0.808700  0.123400  1
  O  O1180  1  0.957500  0.580900  0.766200  1
  O  O1181  1  0.685300  0.919100  0.376600  1
  O  O1182  1  0.814700  0.691300  0.733800  1
  O  O1183  1  0.314700  0.233800  0.191300  1
  O  O1184  1  0.042500  0.623400  0.308700  1
  O  O1185  1  0.185300  0.876600  0.419100  1
  O  O1186  1  0.457500  0.266200  0.080900  1
  O  O1187  1  0.123400  0.542500  0.808700  1
  O  O1188  1  0.766200  0.957500  0.580900  1
  O  O1189  1  0.376600  0.685300  0.919100  1
  O  O1190  1  0.733800  0.814700  0.691300  1
  O  O1191  1  0.623400  0.308700  0.042500  1
  O  O1192  1  0.266200  0.080900  0.457500  1
  O  O1193  1  0.233800  0.191300  0.314700  1
  O  O1194  1  0.876600  0.419100  0.185300  1
  O  O1195  1  0.746800  0.100200  0.445600  1
  O  O1196  1  0.654600  0.801200  0.054400  1
  O  O1197  1  0.753200  0.698800  0.853400  1
  O  O1198  1  0.845400  0.399800  0.646600  1
  O  O1199  1  0.345400  0.146600  0.899800  1
  O  O1200  1  0.253200  0.353400  0.198800  1
  O  O1201  1  0.154600  0.554400  0.301200  1
  O  O1202  1  0.246800  0.945600  0.600200  1
  O  O1203  1  0.445600  0.746800  0.100200  1
  O  O1204  1  0.054400  0.654600  0.801200  1
  O  O1205  1  0.646600  0.845400  0.399800  1
  O  O1206  1  0.853400  0.753200  0.698800  1
  O  O1207  1  0.353400  0.198800  0.253200  1
  O  O1208  1  0.945600  0.600200  0.246800  1
  O  O1209  1  0.146600  0.899800  0.345400  1
  O  O1210  1  0.554400  0.301200  0.154600  1
  O  O1211  1  0.100200  0.445600  0.746800  1
  O  O1212  1  0.801200  0.054400  0.654600  1
  O  O1213  1  0.399800  0.646600  0.845400  1
  O  O1214  1  0.698800  0.853400  0.753200  1
  O  O1215  1  0.600200  0.246800  0.945600  1
  O  O1216  1  0.301200  0.154600  0.554400  1
  O  O1217  1  0.198800  0.253200  0.353400  1
  O  O1218  1  0.899800  0.345400  0.146600  1
  O  O1219  1  0.924000  0.181000  0.699000  1
  O  O1220  1  0.482000  0.725000  0.801000  1
  O  O1221  1  0.576000  0.775000  0.757000  1
  O  O1222  1  0.018000  0.319000  0.743000  1
  O  O1223  1  0.518000  0.243000  0.819000  1
  O  O1224  1  0.076000  0.257000  0.275000  1
  O  O1225  1  0.982000  0.301000  0.225000  1
  O  O1226  1  0.424000  0.199000  0.681000  1
  O  O1227  1  0.699000  0.924000  0.181000  1
  O  O1228  1  0.801000  0.482000  0.725000  1
  O  O1229  1  0.743000  0.018000  0.319000  1
  O  O1230  1  0.757000  0.576000  0.775000  1
  O  O1231  1  0.257000  0.275000  0.076000  1
  O  O1232  1  0.199000  0.681000  0.424000  1
  O  O1233  1  0.243000  0.819000  0.518000  1
  O  O1234  1  0.301000  0.225000  0.982000  1
  O  O1235  1  0.181000  0.699000  0.924000  1
  O  O1236  1  0.725000  0.801000  0.482000  1
  O  O1237  1  0.319000  0.743000  0.018000  1
  O  O1238  1  0.775000  0.757000  0.576000  1
  O  O1239  1  0.681000  0.424000  0.199000  1
  O  O1240  1  0.225000  0.982000  0.301000  1
  O  O1241  1  0.275000  0.076000  0.257000  1
  O  O1242  1  0.819000  0.518000  0.243000  1
  O  O1243  1  0.835000  0.092000  0.405000  1
  O  O1244  1  0.687000  0.930000  0.095000  1
  O  O1245  1  0.665000  0.570000  0.757000  1
  O  O1246  1  0.813000  0.408000  0.743000  1
  O  O1247  1  0.313000  0.243000  0.908000  1
  O  O1248  1  0.165000  0.257000  0.070000  1
  O  O1249  1  0.187000  0.595000  0.430000  1
  O  O1250  1  0.335000  0.905000  0.592000  1
  O  O1251  1  0.405000  0.835000  0.092000  1
  O  O1252  1  0.095000  0.687000  0.930000  1
  O  O1253  1  0.743000  0.813000  0.408000  1
  O  O1254  1  0.757000  0.665000  0.570000  1
  O  O1255  1  0.257000  0.070000  0.165000  1
  O  O1256  1  0.905000  0.592000  0.335000  1
  O  O1257  1  0.243000  0.908000  0.313000  1
  O  O1258  1  0.595000  0.430000  0.187000  1
  O  O1259  1  0.092000  0.405000  0.835000  1
  O  O1260  1  0.930000  0.095000  0.687000  1
  O  O1261  1  0.408000  0.743000  0.813000  1
  O  O1262  1  0.570000  0.757000  0.665000  1
  O  O1263  1  0.592000  0.335000  0.905000  1
  O  O1264  1  0.430000  0.187000  0.595000  1
  O  O1265  1  0.070000  0.165000  0.257000  1
  O  O1266  1  0.908000  0.313000  0.243000  1
  O  O1267  1  0.712000  0.166000  0.422000  1
  O  O1268  1  0.744000  0.790000  0.078000  1
  O  O1269  1  0.788000  0.710000  0.954000  1
  O  O1270  1  0.756000  0.334000  0.546000  1
  O  O1271  1  0.256000  0.046000  0.834000  1
  O  O1272  1  0.288000  0.454000  0.210000  1
  O  O1273  1  0.244000  0.578000  0.290000  1
  O  O1274  1  0.212000  0.922000  0.666000  1
  O  O1275  1  0.422000  0.712000  0.166000  1
  O  O1276  1  0.078000  0.744000  0.790000  1
  O  O1277  1  0.546000  0.756000  0.334000  1
  O  O1278  1  0.954000  0.788000  0.710000  1
  O  O1279  1  0.454000  0.210000  0.288000  1
  O  O1280  1  0.922000  0.666000  0.212000  1
  O  O1281  1  0.046000  0.834000  0.256000  1
  O  O1282  1  0.578000  0.290000  0.244000  1
  O  O1283  1  0.166000  0.422000  0.712000  1
  O  O1284  1  0.790000  0.078000  0.744000  1
  O  O1285  1  0.334000  0.546000  0.756000  1
  O  O1286  1  0.710000  0.954000  0.788000  1
  O  O1287  1  0.666000  0.212000  0.922000  1
  O  O1288  1  0.290000  0.244000  0.578000  1
  O  O1289  1  0.210000  0.288000  0.454000  1
  O  O1290  1  0.834000  0.256000  0.046000  1
  O  O1291  1  0.000000  0.500000  0.678600  1
  O  O1292  1  0.821400  0.821400  0.821400  1
  O  O1293  1  0.500000  0.678600  0.000000  1
  O  O1294  1  0.678600  0.000000  0.500000  1
  O  O1295  1  0.178600  0.000000  0.500000  1
  O  O1296  1  1.000000  0.500000  0.178600  1
  O  O1297  1  0.321400  0.321400  0.321400  1
  O  O1298  1  0.500000  0.178600  1.000000  1
  O  O1299  1  0.939000  0.254600  0.619000  1
  O  O1300  1  0.635600  0.820000  0.881000  1
  O  O1301  1  0.561000  0.680000  0.815600  1
  O  O1302  1  0.864400  0.245400  0.684400  1
  O  O1303  1  0.364400  0.184400  0.745400  1
  O  O1304  1  0.061000  0.315600  0.180000  1
  O  O1305  1  0.135600  0.381000  0.320000  1
  O  O1306  1  0.439000  0.119000  0.754600  1
  O  O1307  1  0.619000  0.939000  0.254600  1
  O  O1308  1  0.881000  0.635600  0.820000  1
  O  O1309  1  0.684400  0.864400  0.245400  1
  O  O1310  1  0.815600  0.561000  0.680000  1
  O  O1311  1  0.315600  0.180000  0.061000  1
  O  O1312  1  0.119000  0.754600  0.439000  1
  O  O1313  1  0.184400  0.745400  0.364400  1
  O  O1314  1  0.381000  0.320000  0.135600  1
  O  O1315  1  0.254600  0.619000  0.939000  1
  O  O1316  1  0.820000  0.881000  0.635600  1
  O  O1317  1  0.245400  0.684400  0.864400  1
  O  O1318  1  0.680000  0.815600  0.561000  1
  O  O1319  1  0.754600  0.439000  0.119000  1
  O  O1320  1  0.320000  0.135600  0.381000  1
  O  O1321  1  0.180000  0.061000  0.315600  1
  O  O1322  1  0.745400  0.364400  0.184400  1
  O  O1323  1  0.999600  0.198800  0.635600  1
  O  O1324  1  0.563200  0.864000  0.864400  1
  O  O1325  1  0.500400  0.636000  0.699200  1
  O  O1326  1  0.936800  0.301200  0.800800  1
  O  O1327  1  0.436800  0.300800  0.801200  1
  O  O1328  1  0.000400  0.199200  0.136000  1
  O  O1329  1  0.063200  0.364400  0.364000  1
  O  O1330  1  0.499600  0.135600  0.698800  1
  O  O1331  1  0.635600  0.999600  0.198800  1
  O  O1332  1  0.864400  0.563200  0.864000  1
  O  O1333  1  0.800800  0.936800  0.301200  1
  O  O1334  1  0.699200  0.500400  0.636000  1
  O  O1335  1  0.199200  0.136000  0.000400  1
  O  O1336  1  0.135600  0.698800  0.499600  1
  O  O1337  1  0.300800  0.801200  0.436800  1
  O  O1338  1  0.364400  0.364000  0.063200  1
  O  O1339  1  0.198800  0.635600  0.999600  1
  O  O1340  1  0.864000  0.864400  0.563200  1
  O  O1341  1  0.301200  0.800800  0.936800  1
  O  O1342  1  0.636000  0.699200  0.500400  1
  O  O1343  1  0.698800  0.499600  0.135600  1
  O  O1344  1  0.364000  0.063200  0.364400  1
  O  O1345  1  0.136000  0.000400  0.199200  1
  O  O1346  1  0.801200  0.436800  0.300800  1
  O  O1347  1  0.053600  0.269100  0.619100  1
  O  O1348  1  0.650000  0.934500  0.880900  1
  O  O1349  1  0.446400  0.565500  0.715500  1
  O  O1350  1  0.850000  0.230900  0.784500  1
  O  O1351  1  0.350000  0.284500  0.730900  1
  O  O1352  1  0.946400  0.215500  0.065500  1
  O  O1353  1  0.150000  0.380900  0.434500  1
  O  O1354  1  0.553600  0.119100  0.769100  1
  O  O1355  1  0.619100  0.053600  0.269100  1
  O  O1356  1  0.880900  0.650000  0.934500  1
  O  O1357  1  0.784500  0.850000  0.230900  1
  O  O1358  1  0.715500  0.446400  0.565500  1
  O  O1359  1  0.215500  0.065500  0.946400  1
  O  O1360  1  0.119100  0.769100  0.553600  1
  O  O1361  1  0.284500  0.730900  0.350000  1
  O  O1362  1  0.380900  0.434500  0.150000  1
  O  O1363  1  0.269100  0.619100  0.053600  1
  O  O1364  1  0.934500  0.880900  0.650000  1
  O  O1365  1  0.230900  0.784500  0.850000  1
  O  O1366  1  0.565500  0.715500  0.446400  1
  O  O1367  1  0.769100  0.553600  0.119100  1
  O  O1368  1  0.434500  0.150000  0.380900  1
  O  O1369  1  0.065500  0.946400  0.215500  1
  O  O1370  1  0.730900  0.350000  0.284500  1
  O  O1371  1  0.091000  0.318000  0.615000  1
  O  O1372  1  0.703000  0.976000  0.885000  1
  O  O1373  1  0.409000  0.524000  0.727000  1
  O  O1374  1  0.797000  0.182000  0.773000  1
  O  O1375  1  0.297000  0.273000  0.682000  1
  O  O1376  1  0.909000  0.227000  0.024000  1
  O  O1377  1  0.203000  0.385000  0.476000  1
  O  O1378  1  0.591000  0.115000  0.818000  1
  O  O1379  1  0.615000  0.091000  0.318000  1
  O  O1380  1  0.885000  0.703000  0.976000  1
  O  O1381  1  0.773000  0.797000  0.182000  1
  O  O1382  1  0.727000  0.409000  0.524000  1
  O  O1383  1  0.227000  0.024000  0.909000  1
  O  O1384  1  0.115000  0.818000  0.591000  1
  O  O1385  1  0.273000  0.682000  0.297000  1
  O  O1386  1  0.385000  0.476000  0.203000  1
  O  O1387  1  0.318000  0.615000  0.091000  1
  O  O1388  1  0.976000  0.885000  0.703000  1
  O  O1389  1  0.182000  0.773000  0.797000  1
  O  O1390  1  0.524000  0.727000  0.409000  1
  O  O1391  1  0.818000  0.591000  0.115000  1
  O  O1392  1  0.476000  0.203000  0.385000  1
  O  O1393  1  0.024000  0.909000  0.227000  1
  O  O1394  1  0.682000  0.297000  0.273000  1
  O  O1395  1  0.902800  0.045700  0.325900  1
  O  O1396  1  0.719800  0.076900  0.174100  1
  O  O1397  1  0.597200  0.423100  0.642900  1
  O  O1398  1  0.780200  0.454300  0.857100  1
  O  O1399  1  0.280200  0.357100  0.954300  1
  O  O1400  1  0.097200  0.142900  0.923100  1
  O  O1401  1  0.219800  0.674100  0.576900  1
  O  O1402  1  0.402800  0.825900  0.545700  1
  O  O1403  1  0.325900  0.902800  0.045700  1
  O  O1404  1  0.174100  0.719800  0.076900  1
  O  O1405  1  0.857100  0.780200  0.454300  1
  O  O1406  1  0.642900  0.597200  0.423100  1
  O  O1407  1  0.142900  0.923100  0.097200  1
  O  O1408  1  0.825900  0.545700  0.402800  1
  O  O1409  1  0.357100  0.954300  0.280200  1
  O  O1410  1  0.674100  0.576900  0.219800  1
  O  O1411  1  0.045700  0.325900  0.902800  1
  O  O1412  1  0.076900  0.174100  0.719800  1
  O  O1413  1  0.454300  0.857100  0.780200  1
  O  O1414  1  0.423100  0.642900  0.597200  1
  O  O1415  1  0.545700  0.402800  0.825900  1
  O  O1416  1  0.576900  0.219800  0.674100  1
  O  O1417  1  0.923100  0.097200  0.142900  1
  O  O1418  1  0.954300  0.280200  0.357100  1
  O  O1419  1  0.897000  0.178000  0.611000  1
  O  O1420  1  0.567000  0.786000  0.889000  1
  O  O1421  1  0.603000  0.714000  0.781000  1
  O  O1422  1  0.933000  0.322000  0.719000  1
  O  O1423  1  0.433000  0.219000  0.822000  1
  O  O1424  1  0.103000  0.281000  0.214000  1
  O  O1425  1  0.067000  0.389000  0.286000  1
  O  O1426  1  0.397000  0.111000  0.678000  1
  O  O1427  1  0.611000  0.897000  0.178000  1
  O  O1428  1  0.889000  0.567000  0.786000  1
  O  O1429  1  0.719000  0.933000  0.322000  1
  O  O1430  1  0.781000  0.603000  0.714000  1
  O  O1431  1  0.281000  0.214000  0.103000  1
  O  O1432  1  0.111000  0.678000  0.397000  1
  O  O1433  1  0.219000  0.822000  0.433000  1
  O  O1434  1  0.389000  0.286000  0.067000  1
  O  O1435  1  0.178000  0.611000  0.897000  1
  O  O1436  1  0.786000  0.889000  0.567000  1
  O  O1437  1  0.322000  0.719000  0.933000  1
  O  O1438  1  0.714000  0.781000  0.603000  1
  O  O1439  1  0.678000  0.397000  0.111000  1
  O  O1440  1  0.286000  0.067000  0.389000  1
  O  O1441  1  0.214000  0.103000  0.281000  1
  O  O1442  1  0.822000  0.433000  0.219000  1
  O  O1443  1  0.911800  0.142500  0.341700  1
  O  O1444  1  0.800800  0.070100  0.158300  1
  O  O1445  1  0.588200  0.429900  0.730700  1
  O  O1446  1  0.699200  0.357500  0.769300  1
  O  O1447  1  0.199200  0.269300  0.857500  1
  O  O1448  1  0.088200  0.230700  0.929900  1
  O  O1449  1  0.300800  0.658300  0.570100  1
  O  O1450  1  0.411800  0.841700  0.642500  1
  O  O1451  1  0.341700  0.911800  0.142500  1
  O  O1452  1  0.158300  0.800800  0.070100  1
  O  O1453  1  0.769300  0.699200  0.357500  1
  O  O1454  1  0.730700  0.588200  0.429900  1
  O  O1455  1  0.230700  0.929900  0.088200  1
  O  O1456  1  0.841700  0.642500  0.411800  1
  O  O1457  1  0.269300  0.857500  0.199200  1
  O  O1458  1  0.658300  0.570100  0.300800  1
  O  O1459  1  0.142500  0.341700  0.911800  1
  O  O1460  1  0.070100  0.158300  0.800800  1
  O  O1461  1  0.357500  0.769300  0.699200  1
  O  O1462  1  0.429900  0.730700  0.588200  1
  O  O1463  1  0.642500  0.411800  0.841700  1
  O  O1464  1  0.570100  0.300800  0.658300  1
  O  O1465  1  0.929900  0.088200  0.230700  1
  O  O1466  1  0.857500  0.199200  0.269300  1
  O  O1467  1  0.828100  0.135700  0.566200  1
  O  O1468  1  0.569500  0.761900  0.933800  1
  O  O1469  1  0.671900  0.738100  0.807600  1
  O  O1470  1  0.930500  0.364300  0.692400  1
  O  O1471  1  0.430500  0.192400  0.864300  1
  O  O1472  1  0.171900  0.307600  0.238100  1
  O  O1473  1  0.069500  0.433800  0.261900  1
  O  O1474  1  0.328100  0.066200  0.635700  1
  O  O1475  1  0.566200  0.828100  0.135700  1
  O  O1476  1  0.933800  0.569500  0.761900  1
  O  O1477  1  0.692400  0.930500  0.364300  1
  O  O1478  1  0.807600  0.671900  0.738100  1
  O  O1479  1  0.307600  0.238100  0.171900  1
  O  O1480  1  0.066200  0.635700  0.328100  1
  O  O1481  1  0.192400  0.864300  0.430500  1
  O  O1482  1  0.433800  0.261900  0.069500  1
  O  O1483  1  0.135700  0.566200  0.828100  1
  O  O1484  1  0.761900  0.933800  0.569500  1
  O  O1485  1  0.364300  0.692400  0.930500  1
  O  O1486  1  0.738100  0.807600  0.671900  1
  O  O1487  1  0.635700  0.328100  0.066200  1
  O  O1488  1  0.261900  0.069500  0.433800  1
  O  O1489  1  0.238100  0.171900  0.307600  1
  O  O1490  1  0.864300  0.430500  0.192400  1
  O  O1491  1  0.774600  0.106400  0.479200  1
  O  O1492  1  0.627200  0.795400  0.020800  1
  O  O1493  1  0.725400  0.704600  0.831800  1
  O  O1494  1  0.872800  0.393600  0.668200  1
  O  O1495  1  0.372800  0.168200  0.893600  1
  O  O1496  1  0.225400  0.331800  0.204600  1
  O  O1497  1  0.127200  0.520800  0.295400  1
  O  O1498  1  0.274600  0.979200  0.606400  1
  O  O1499  1  0.479200  0.774600  0.106400  1
  O  O1500  1  0.020800  0.627200  0.795400  1
  O  O1501  1  0.668200  0.872800  0.393600  1
  O  O1502  1  0.831800  0.725400  0.704600  1
  O  O1503  1  0.331800  0.204600  0.225400  1
  O  O1504  1  0.979200  0.606400  0.274600  1
  O  O1505  1  0.168200  0.893600  0.372800  1
  O  O1506  1  0.520800  0.295400  0.127200  1
  O  O1507  1  0.106400  0.479200  0.774600  1
  O  O1508  1  0.795400  0.020800  0.627200  1
  O  O1509  1  0.393600  0.668200  0.872800  1
  O  O1510  1  0.704600  0.831800  0.725400  1
  O  O1511  1  0.606400  0.274600  0.979200  1
  O  O1512  1  0.295400  0.127200  0.520800  1
  O  O1513  1  0.204600  0.225400  0.331800  1
  O  O1514  1  0.893600  0.372800  0.168200  1
  O  O1515  1  0.711000  0.107000  0.414000  1
  O  O1516  1  0.693000  0.797000  0.086000  1
  O  O1517  1  0.789000  0.703000  0.896000  1
  O  O1518  1  0.807000  0.393000  0.604000  1
  O  O1519  1  0.307000  0.104000  0.893000  1
  O  O1520  1  0.289000  0.396000  0.203000  1
  O  O1521  1  0.193000  0.586000  0.297000  1
  O  O1522  1  0.211000  0.914000  0.607000  1
  O  O1523  1  0.414000  0.711000  0.107000  1
  O  O1524  1  0.086000  0.693000  0.797000  1
  O  O1525  1  0.604000  0.807000  0.393000  1
  O  O1526  1  0.896000  0.789000  0.703000  1
  O  O1527  1  0.396000  0.203000  0.289000  1
  O  O1528  1  0.914000  0.607000  0.211000  1
  O  O1529  1  0.104000  0.893000  0.307000  1
  O  O1530  1  0.586000  0.297000  0.193000  1
  O  O1531  1  0.107000  0.414000  0.711000  1
  O  O1532  1  0.797000  0.086000  0.693000  1
  O  O1533  1  0.393000  0.604000  0.807000  1
  O  O1534  1  0.703000  0.896000  0.789000  1
  O  O1535  1  0.607000  0.211000  0.914000  1
  O  O1536  1  0.297000  0.193000  0.586000  1
  O  O1537  1  0.203000  0.289000  0.396000  1
  O  O1538  1  0.893000  0.307000  0.104000  1
  O  O1539  1  0.902900  0.054300  0.403000  1
  O  O1540  1  0.651300  0.999900  0.097000  1
  O  O1541  1  0.597100  0.500100  0.651400  1
  O  O1542  1  0.848700  0.445700  0.848600  1
  O  O1543  1  0.348700  0.348600  0.945700  1
  O  O1544  1  0.097100  0.151400  0.000100  1
  O  O1545  1  0.151300  0.597000  0.499900  1
  O  O1546  1  0.402900  0.903000  0.554300  1
  O  O1547  1  0.403000  0.902900  0.054300  1
  O  O1548  1  0.097000  0.651300  0.999900  1
  O  O1549  1  0.848600  0.848700  0.445700  1
  O  O1550  1  0.651400  0.597100  0.500100  1
  O  O1551  1  0.151400  0.000100  0.097100  1
  O  O1552  1  0.903000  0.554300  0.402900  1
  O  O1553  1  0.348600  0.945700  0.348700  1
  O  O1554  1  0.597000  0.499900  0.151300  1
  O  O1555  1  0.054300  0.403000  0.902900  1
  O  O1556  1  0.999900  0.097000  0.651300  1
  O  O1557  1  0.445700  0.848600  0.848700  1
  O  O1558  1  0.500100  0.651400  0.597100  1
  O  O1559  1  0.554300  0.402900  0.903000  1
  O  O1560  1  0.499900  0.151300  0.597000  1
  O  O1561  1  0.000100  0.097100  0.151400  1
  O  O1562  1  0.945700  0.348700  0.348600  1
  O  O1563  1  0.736400  0.198600  0.419000  1
  O  O1564  1  0.779600  0.817400  0.081000  1
  O  O1565  1  0.763600  0.682600  0.962200  1
  O  O1566  1  0.720400  0.301400  0.537800  1
  O  O1567  1  0.220400  0.037800  0.801400  1
  O  O1568  1  0.263600  0.462200  0.182600  1
  O  O1569  1  0.279600  0.581000  0.317400  1
  O  O1570  1  0.236400  0.919000  0.698600  1
  O  O1571  1  0.419000  0.736400  0.198600  1
  O  O1572  1  0.081000  0.779600  0.817400  1
  O  O1573  1  0.537800  0.720400  0.301400  1
  O  O1574  1  0.962200  0.763600  0.682600  1
  O  O1575  1  0.462200  0.182600  0.263600  1
  O  O1576  1  0.919000  0.698600  0.236400  1
  O  O1577  1  0.037800  0.801400  0.220400  1
  O  O1578  1  0.581000  0.317400  0.279600  1
  O  O1579  1  0.198600  0.419000  0.736400  1
  O  O1580  1  0.817400  0.081000  0.779600  1
  O  O1581  1  0.301400  0.537800  0.720400  1
  O  O1582  1  0.682600  0.962200  0.763600  1
  O  O1583  1  0.698600  0.236400  0.919000  1
  O  O1584  1  0.317400  0.279600  0.581000  1
  O  O1585  1  0.182600  0.263600  0.462200  1
  O  O1586  1  0.801400  0.220400  0.037800  1
  O  O1587  1  0.753000  0.216000  0.411000  1
  O  O1588  1  0.805000  0.842000  0.089000  1
  O  O1589  1  0.747000  0.658000  0.963000  1
  O  O1590  1  0.695000  0.284000  0.537000  1
  O  O1591  1  0.195000  0.037000  0.784000  1
  O  O1592  1  0.247000  0.463000  0.158000  1
  O  O1593  1  0.305000  0.589000  0.342000  1
  O  O1594  1  0.253000  0.911000  0.716000  1
  O  O1595  1  0.411000  0.753000  0.216000  1
  O  O1596  1  0.089000  0.805000  0.842000  1
  O  O1597  1  0.537000  0.695000  0.284000  1
  O  O1598  1  0.963000  0.747000  0.658000  1
  O  O1599  1  0.463000  0.158000  0.247000  1
  O  O1600  1  0.911000  0.716000  0.253000  1
  O  O1601  1  0.037000  0.784000  0.195000  1
  O  O1602  1  0.589000  0.342000  0.305000  1
  O  O1603  1  0.216000  0.411000  0.753000  1
  O  O1604  1  0.842000  0.089000  0.805000  1
  O  O1605  1  0.284000  0.537000  0.695000  1
  O  O1606  1  0.658000  0.963000  0.747000  1
  O  O1607  1  0.716000  0.253000  0.911000  1
  O  O1608  1  0.342000  0.305000  0.589000  1
  O  O1609  1  0.158000  0.247000  0.463000  1
  O  O1610  1  0.784000  0.195000  0.037000  1
  O  O1611  1  0.854700  0.250000  0.604700  1.0
  O  O1612  1  0.645300  0.750000  0.895300  1.0
  O  O1613  1  0.354700  0.104700  0.750000  1.0
  O  O1614  1  0.145300  0.395300  0.250000  1.0
  O  O1615  1  0.604700  0.854700  0.250000  1.0
  O  O1616  1  0.895300  0.645300  0.750000  1.0
  O  O1617  1  0.395300  0.250000  0.145300  1.0
  O  O1618  1  0.104700  0.750000  0.354700  1.0
  O  O1619  1  0.250000  0.604700  0.854700  1.0
  O  O1620  1  0.750000  0.895300  0.645300  1.0
  O  O1621  1  0.750000  0.354700  0.104700  1.0
  O  O1622  1  0.250000  0.145300  0.395300  1.0
  O  O1623  1  0.763500  0.207600  0.195900  1.0
  O  O1624  1  0.011700  0.067600  0.304100  1.0
  O  O1625  1  0.736500  0.432400  0.944100  1.0
  O  O1626  1  0.488300  0.292400  0.555900  1.0
  O  O1627  1  0.988300  0.055900  0.792400  1.0
  O  O1628  1  0.236500  0.444100  0.932400  1.0
  O  O1629  1  0.511700  0.804100  0.567600  1.0
  O  O1630  1  0.263500  0.695900  0.707600  1.0
  O  O1631  1  0.195900  0.763500  0.207600  1.0
  O  O1632  1  0.304100  0.011700  0.067600  1.0
  O  O1633  1  0.555900  0.488300  0.292400  1.0
  O  O1634  1  0.944100  0.736500  0.432400  1.0
  O  O1635  1  0.444100  0.932400  0.236500  1.0
  O  O1636  1  0.695900  0.707600  0.263500  1.0
  O  O1637  1  0.055900  0.792400  0.988300  1.0
  O  O1638  1  0.804100  0.567600  0.511700  1.0
  O  O1639  1  0.207600  0.195900  0.763500  1.0
  O  O1640  1  0.067600  0.304100  0.011700  1.0
  O  O1641  1  0.292400  0.555900  0.488300  1.0
  O  O1642  1  0.432400  0.944100  0.736500  1.0
  O  O1643  1  0.707600  0.263500  0.695900  1.0
  O  O1644  1  0.567600  0.511700  0.804100  1.0
  O  O1645  1  0.932400  0.236500  0.444100  1.0
  O  O1646  1  0.792400  0.988300  0.055900  1.0
  O  O1647  1  0.825800  0.242600  0.507000  1.0
  O  O1648  1  0.735600  0.818800  0.993000  1.0
  O  O1649  1  0.674200  0.681200  0.916800  1.0
  O  O1650  1  0.764400  0.257400  0.583200  1.0
  O  O1651  1  0.264400  0.083200  0.757400  1.0
  O  O1652  1  0.174200  0.416800  0.181200  1.0
  O  O1653  1  0.235600  0.493000  0.318800  1.0
  O  O1654  1  0.325800  0.007000  0.742600  1.0
  O  O1655  1  0.507000  0.825800  0.242600  1.0
  O  O1656  1  0.993000  0.735600  0.818800  1.0
  O  O1657  1  0.583200  0.764400  0.257400  1.0
  O  O1658  1  0.916800  0.674200  0.681200  1.0
  O  O1659  1  0.416800  0.181200  0.174200  1.0
  O  O1660  1  0.007000  0.742600  0.325800  1.0
  O  O1661  1  0.083200  0.757400  0.264400  1.0
  O  O1662  1  0.493000  0.318800  0.235600  1.0
  O  O1663  1  0.242600  0.507000  0.825800  1.0
  O  O1664  1  0.818800  0.993000  0.735600  1.0
  O  O1665  1  0.257400  0.583200  0.764400  1.0
  O  O1666  1  0.681200  0.916800  0.674200  1.0
  O  O1667  1  0.742600  0.325800  0.007000  1.0
  O  O1668  1  0.318800  0.235600  0.493000  1.0
  O  O1669  1  0.181200  0.174200  0.416800  1.0
  O  O1670  1  0.757400  0.264400  0.083200  1.0
  O  O1671  1  0.837800  0.319300  0.577100  1.0
  O  O1672  1  0.742200  0.760700  0.922900  1.0
  O  O1673  1  0.662200  0.739300  0.981500  1.0
  O  O1674  1  0.757800  0.180700  0.518500  1.0
  O  O1675  1  0.257800  0.018500  0.680700  1.0
  O  O1676  1  0.162200  0.481500  0.239300  1.0
  O  O1677  1  0.242200  0.422900  0.260700  1.0
  O  O1678  1  0.337800  0.077100  0.819300  1.0
  O  O1679  1  0.577100  0.837800  0.319300  1.0
  O  O1680  1  0.922900  0.742200  0.760700  1.0
  O  O1681  1  0.518500  0.757800  0.180700  1.0
  O  O1682  1  0.981500  0.662200  0.739300  1.0
  O  O1683  1  0.481500  0.239300  0.162200  1.0
  O  O1684  1  0.077100  0.819300  0.337800  1.0
  O  O1685  1  0.018500  0.680700  0.257800  1.0
  O  O1686  1  0.422900  0.260700  0.242200  1.0
  O  O1687  1  0.319300  0.577100  0.837800  1.0
  O  O1688  1  0.760700  0.922900  0.742200  1.0
  O  O1689  1  0.180700  0.518500  0.757800  1.0
  O  O1690  1  0.739300  0.981500  0.662200  1.0
  O  O1691  1  0.819300  0.337800  0.077100  1.0
  O  O1692  1  0.260700  0.242200  0.422900  1.0
  O  O1693  1  0.239300  0.162200  0.481500  1.0
  O  O1694  1  0.680700  0.257800  0.018500  1.0
  O  O1695  1  0.776100  0.219100  0.290400  1.0
  O  O1696  1  0.928700  0.985700  0.209600  1.0
  O  O1697  1  0.723900  0.514300  0.943000  1.0
  O  O1698  1  0.571300  0.280900  0.557000  1.0
  O  O1699  1  0.071300  0.057000  0.780900  1.0
  O  O1700  1  0.223900  0.443000  0.014300  1.0
  O  O1701  1  0.428700  0.709600  0.485700  1.0
  O  O1702  1  0.276100  0.790400  0.719100  1.0
  O  O1703  1  0.290400  0.776100  0.219100  1.0
  O  O1704  1  0.209600  0.928700  0.985700  1.0
  O  O1705  1  0.557000  0.571300  0.280900  1.0
  O  O1706  1  0.943000  0.723900  0.514300  1.0
  O  O1707  1  0.443000  0.014300  0.223900  1.0
  O  O1708  1  0.790400  0.719100  0.276100  1.0
  O  O1709  1  0.057000  0.780900  0.071300  1.0
  O  O1710  1  0.709600  0.485700  0.428700  1.0
  O  O1711  1  0.219100  0.290400  0.776100  1.0
  O  O1712  1  0.985700  0.209600  0.928700  1.0
  O  O1713  1  0.280900  0.557000  0.571300  1.0
  O  O1714  1  0.514300  0.943000  0.723900  1.0
  O  O1715  1  0.719100  0.276100  0.790400  1.0
  O  O1716  1  0.485700  0.428700  0.709600  1.0
  O  O1717  1  0.014300  0.223900  0.443000  1.0
  O  O1718  1  0.780900  0.071300  0.057000  1.0
  O  O1719  1  0.768100  0.287600  0.271100  1.0
  O  O1720  1  0.016500  0.997000  0.228900  1.0
  O  O1721  1  0.731900  0.503000  0.019500  1.0
  O  O1722  1  0.483500  0.212400  0.480500  1.0
  O  O1723  1  0.983500  0.980500  0.712400  1.0
  O  O1724  1  0.231900  0.519500  0.003000  1.0
  O  O1725  1  0.516500  0.728900  0.497000  1.0
  O  O1726  1  0.268100  0.771100  0.787600  1.0
  O  O1727  1  0.271100  0.768100  0.287600  1.0
  O  O1728  1  0.228900  0.016500  0.997000  1.0
  O  O1729  1  0.480500  0.483500  0.212400  1.0
  O  O1730  1  0.019500  0.731900  0.503000  1.0
  O  O1731  1  0.519500  0.003000  0.231900  1.0
  O  O1732  1  0.771100  0.787600  0.268100  1.0
  O  O1733  1  0.980500  0.712400  0.983500  1.0
  O  O1734  1  0.728900  0.497000  0.516500  1.0
  O  O1735  1  0.287600  0.271100  0.768100  1.0
  O  O1736  1  0.997000  0.228900  0.016500  1.0
  O  O1737  1  0.212400  0.480500  0.483500  1.0
  O  O1738  1  0.503000  0.019500  0.731900  1.0
  O  O1739  1  0.787600  0.268100  0.771100  1.0
  O  O1740  1  0.497000  0.516500  0.728900  1.0
  O  O1741  1  0.003000  0.231900  0.519500  1.0
  O  O1742  1  0.712400  0.983500  0.980500  1.0
  O  O1743  1  0.788600  0.475400  0.438600  1.0
  O  O1744  1  0.036800  0.850000  0.061400  1.0
  O  O1745  1  0.711400  0.650000  0.186800  1.0
  O  O1746  1  0.463200  0.024600  0.313200  1.0
  O  O1747  1  0.963200  0.813200  0.524600  1.0
  O  O1748  1  0.211400  0.686800  0.150000  1.0
  O  O1749  1  0.536800  0.561400  0.350000  1.0
  O  O1750  1  0.288600  0.938600  0.975400  1.0
  O  O1751  1  0.438600  0.788600  0.475400  1.0
  O  O1752  1  0.061400  0.036800  0.850000  1.0
  O  O1753  1  0.313200  0.463200  0.024600  1.0
  O  O1754  1  0.186800  0.711400  0.650000  1.0
  O  O1755  1  0.686800  0.150000  0.211400  1.0
  O  O1756  1  0.938600  0.975400  0.288600  1.0
  O  O1757  1  0.813200  0.524600  0.963200  1.0
  O  O1758  1  0.561400  0.350000  0.536800  1.0
  O  O1759  1  0.475400  0.438600  0.788600  1.0
  O  O1760  1  0.850000  0.061400  0.036800  1.0
  O  O1761  1  0.024600  0.313200  0.463200  1.0
  O  O1762  1  0.650000  0.186800  0.711400  1.0
  O  O1763  1  0.975400  0.288600  0.938600  1.0
  O  O1764  1  0.350000  0.536800  0.561400  1.0
  O  O1765  1  0.150000  0.211400  0.686800  1.0
  O  O1766  1  0.524600  0.963200  0.813200  1.0
  O  O1767  1  0.806500  0.483100  0.524400  1.0
  O  O1768  1  0.958700  0.782100  0.975600  1.0
  O  O1769  1  0.693500  0.717900  0.176600  1.0
  O  O1770  1  0.541300  0.016900  0.323400  1.0
  O  O1771  1  0.041300  0.823400  0.516900  1.0
  O  O1772  1  0.193500  0.676600  0.217900  1.0
  O  O1773  1  0.458700  0.475600  0.282100  1.0
  O  O1774  1  0.306500  0.024400  0.983100  1.0
  O  O1775  1  0.524400  0.806500  0.483100  1.0
  O  O1776  1  0.975600  0.958700  0.782100  1.0
  O  O1777  1  0.323400  0.541300  0.016900  1.0
  O  O1778  1  0.176600  0.693500  0.717900  1.0
  O  O1779  1  0.676600  0.217900  0.193500  1.0
  O  O1780  1  0.024400  0.983100  0.306500  1.0
  O  O1781  1  0.823400  0.516900  0.041300  1.0
  O  O1782  1  0.475600  0.282100  0.458700  1.0
  O  O1783  1  0.483100  0.524400  0.806500  1.0
  O  O1784  1  0.782100  0.975600  0.958700  1.0
  O  O1785  1  0.016900  0.323400  0.541300  1.0
  O  O1786  1  0.717900  0.176600  0.693500  1.0
  O  O1787  1  0.983100  0.306500  0.024400  1.0
  O  O1788  1  0.282100  0.458700  0.475600  1.0
  O  O1789  1  0.217900  0.193500  0.676600  1.0
  O  O1790  1  0.516900  0.041300  0.823400  1.0
  V  V1791  1  0.812540  0.250000  0.562540  1.0
  V  V1792  1  0.687460  0.750000  0.937460  1.0
  V  V1793  1  0.312540  0.062540  0.750000  1.0
  V  V1794  1  0.187460  0.437460  0.250000  1.0
  V  V1795  1  0.562540  0.812540  0.250000  1.0
  V  V1796  1  0.937460  0.687460  0.750000  1.0
  V  V1797  1  0.437460  0.250000  0.187460  1.0
  V  V1798  1  0.062540  0.750000  0.312540  1.0
  V  V1799  1  0.250000  0.562540  0.812540  1.0
  V  V1800  1  0.750000  0.937460  0.687460  1.0
  V  V1801  1  0.750000  0.312540  0.062540  1.0
  V  V1802  1  0.250000  0.187460  0.437460  1.0
  V  V1803  1  0.736940  0.215880  0.229480  1.0
  V  V1804  1  0.986400  0.007460  0.270520  1.0
  V  V1805  1  0.763060  0.492540  0.978940  1.0
  V  V1806  1  0.513600  0.284120  0.521060  1.0
  V  V1807  1  0.013600  0.021060  0.784120  1.0
  V  V1808  1  0.263060  0.478940  0.992540  1.0
  V  V1809  1  0.486400  0.770520  0.507460  1.0
  V  V1810  1  0.236940  0.729480  0.715880  1.0
  V  V1811  1  0.229480  0.736940  0.215880  1.0
  V  V1812  1  0.270520  0.986400  0.007460  1.0
  V  V1813  1  0.521060  0.513600  0.284120  1.0
  V  V1814  1  0.978940  0.763060  0.492540  1.0
  V  V1815  1  0.478940  0.992540  0.263060  1.0
  V  V1816  1  0.729480  0.715880  0.236940  1.0
  V  V1817  1  0.021060  0.784120  0.013600  1.0
  V  V1818  1  0.770520  0.507460  0.486400  1.0
  V  V1819  1  0.215880  0.229480  0.736940  1.0
  V  V1820  1  0.007460  0.270520  0.986400  1.0
  V  V1821  1  0.284120  0.521060  0.513600  1.0
  V  V1822  1  0.492540  0.978940  0.763060  1.0
  V  V1823  1  0.715880  0.236940  0.729480  1.0
  V  V1824  1  0.507460  0.486400  0.770520  1.0
  V  V1825  1  0.992540  0.263060  0.478940  1.0
  V  V1826  1  0.784120  0.013600  0.021060  1.0
