
#######################################################################
#
#                 Cambridge Crystallographic Data Centre
#                                CCDC 
#
#######################################################################
#
# If this CIF has been generated from an entry in the Cambridge 
# Structural Database, then it will include bibliographic, chemical, 
# crystal, experimental, refinement or atomic coordinate data resulting 
# from the CCDC's data processing and validation procedures.
#
#######################################################################

data_TUWXAL
_chemical_formula_moiety         
'C84 H48 O30 V6 12-,6(Ca1 2+),4(C4 H8 O2),110(H2 O1)'
_chemical_name_systematic        
'tetrakis(\m~3~-cyclotricatechylene)-hexaoxo-hexa-vanadium tetrakis(dioxane) hexacalcium decahectahydrate'
_symmetry_cell_setting           tetragonal
_symmetry_space_group_name_H-M   'I 41/a'
_symmetry_Int_Tables_number      88
_space_group_name_Hall           '-I 4ad'
loop_
_symmetry_equiv_pos_site_id
_symmetry_equiv_pos_as_xyz
1 x,y,z
2 1/2-x,-y,1/2+z
3 3/4-y,1/4+x,1/4+z
4 3/4+y,3/4-x,3/4+z
5 1/2+x,1/2+y,1/2+z
6 -x,1/2-y,z
7 1/4-y,3/4+x,3/4+z
8 1/4+y,1/4-x,1/4+z
9 -x,-y,-z
10 1/2+x,y,1/2-z
11 1/4+y,3/4-x,3/4-z
12 1/4-y,1/4+x,1/4-z
13 1/2-x,1/2-y,1/2-z
14 x,1/2+y,-z
15 3/4+y,1/4-x,1/4-z
16 3/4-y,3/4+x,3/4-z
_cell_length_a                   21.1696(7)
_cell_length_b                   21.1696(7)
_cell_length_c                   47.577(2)
_cell_angle_alpha                90
_cell_angle_beta                 90
_cell_angle_gamma                90
_cell_volume                     21321.7
_exptl_crystal_colour            green
_exptl_crystal_description       'elongated octahedron'
_cell_formula_units_Z            4
loop_
_atom_site_label
_atom_site_type_symbol
_atom_site_fract_x
_atom_site_fract_y
_atom_site_fract_z
Ca1 Ca 0.4581(3) 0.1307(3) 0.97277(14)
O1 O 0.4204(4) 0.0138(3) 0.99109(14)
O2 O 0.6186(3) 0.4221(4) 0.92864(16)
V1 V 0.5000 0.2500 1.03262(3)
V2 V 0.31804(5) 0.52709(5) 0.87195(2)
O3 O 0.42488(17) 0.20569(16) 1.01967(8)
O4 O 0.40749(18) 0.54782(18) 0.87184(8)
O5 O 0.5000 0.2500 1.06640(13)
O6 O 0.33747(18) 0.50379(18) 0.91061(8)
O7 O 0.26035(19) 0.4564(2) 0.87418(8)
O8 O 0.45285(16) 0.32353(16) 1.01994(9)
O9 O 0.3359(2) 0.50360(18) 0.83281(9)
O10 O 0.2781(2) 0.5915(2) 0.87213(10)
C1 C 0.3766(2) 0.2453(2) 1.01310(12)
C2 C 0.3171(2) 0.2266(2) 1.00597(11)
H1 H 0.3074 0.1838 1.0061
C3 C 0.4315(2) 0.5502(3) 0.84532(11)
C4 C 0.5115(3) 0.5741(3) 0.81027(12)
C5 C 0.1998(2) 0.3775(3) 0.93791(13)
C6 C 0.2382(3) 0.3858(3) 0.98914(12)
H2 H 0.1958 0.3719 0.9938
H3 H 0.2468 0.4237 1.0000
C7 C 0.4136(3) 0.5266(3) 0.79650(12)
H4 H 0.3871 0.5113 0.7824
C8 C 0.2881(3) 0.4452(2) 0.94915(12)
H5 H 0.3155 0.4627 0.9623
C9 C 0.3918(3) 0.3096(2) 1.01285(12)
C10 C 0.4897(2) 0.5744(3) 0.83875(12)
H6 H 0.5152 0.5911 0.8528
C11 C 0.2525(3) 0.4374(3) 0.90088(12)
C12 C 0.4739(2) 0.5494(3) 0.78929(12)
C13 C 0.3472(3) 0.3527(2) 1.00541(12)
H7 H 0.3573 0.3954 1.0054
C14 C 0.2411(3) 0.4018(3) 0.95802(12)
C15 C 0.2700(3) 0.2700(3) 0.99842(11)
C16 C 0.2935(2) 0.4618(3) 0.92123(13)
C17 C 0.2861(3) 0.3334(3) 0.99782(11)
C18 C 0.3928(3) 0.5265(2) 0.82411(13)
C19 C 0.2055(3) 0.2447(3) 0.99087(12)
H8 H 0.1958 0.2091 1.0030
H9 H 0.1741 0.2772 0.9944
C20 C 0.2056(3) 0.3962(3) 0.90990(13)
H10 H 0.1770 0.3805 0.8968
C21 C 0.1504(3) 0.3276(3) 0.94441(13)
H11 H 0.1370 0.3319 0.9638
H12 H 0.1139 0.3342 0.9325
V1J V 0.5000 0.2500 0.71738(3)
V2O V 0.22291(5) 0.06804(5) 0.87805(2)
V2E V 0.68196(5) -0.02709(5) 0.87195(2)
V2J V 0.77709(5) 0.43196(5) 0.87805(2)
O3J O 0.45569(16) 0.32512(17) 0.73033(8)
O3O O 0.54431(16) 0.17488(17) 0.73033(8)
O3E O 0.57512(17) 0.29431(16) 1.01967(8)
O4O O 0.20218(18) 0.15749(18) 0.87816(8)
O4E O 0.59251(18) -0.04782(18) 0.87184(8)
O4J O 0.79782(18) 0.34251(18) 0.87816(8)
O5J O 0.5000 0.2500 0.68360(13)
O6O O 0.24621(18) 0.08747(18) 0.83939(8)
O6E O 0.66253(18) -0.00379(18) 0.91061(8)
O6J O 0.75379(18) 0.41253(18) 0.83939(8)
O7O O 0.2936(2) 0.01035(19) 0.87582(8)
O7E O 0.73965(19) 0.0436(2) 0.87418(8)
O7J O 0.7064(2) 0.48965(19) 0.87582(8)
O8E O 0.54715(16) 0.17647(16) 1.01994(9)
O8J O 0.57353(16) 0.29715(16) 0.73006(9)
O8O O 0.42647(16) 0.20285(16) 0.73006(9)
O9O O 0.24640(18) 0.0859(2) 0.91719(9)
O9E O 0.6641(2) -0.00360(18) 0.83281(9)
O9J O 0.75360(18) 0.4141(2) 0.91719(9)
O10O O 0.1585(2) 0.0281(2) 0.87787(10)
O10E O 0.7219(2) -0.0915(2) 0.87213(10)
O10J O 0.8415(2) 0.4719(2) 0.87787(10)
C1J C 0.4953(2) 0.3734(2) 0.73690(12)
C1O C 0.5047(2) 0.1266(2) 0.73690(12)
C1E C 0.6234(2) 0.2547(2) 1.01310(12)
C2J C 0.4766(2) 0.4329(2) 0.74403(11)
C2O C 0.5234(2) 0.0671(2) 0.74403(11)
C2E C 0.6829(2) 0.2734(2) 1.00597(11)
H1O H 0.5662 0.0574 0.7439
H1E H 0.6926 0.3162 1.0061
H1J H 0.4338 0.4426 0.7439
C3O C 0.1998(3) 0.1815(2) 0.90468(11)
C3E C 0.5685(2) -0.0502(3) 0.84532(11)
C3J C 0.8002(3) 0.3185(2) 0.90468(11)
C4O C 0.1759(3) 0.2615(3) 0.93973(12)
C4E C 0.4885(3) -0.0741(3) 0.81027(12)
C4J C 0.8241(3) 0.2385(3) 0.93973(12)
C5O C 0.3725(3) -0.0502(2) 0.81209(13)
C5E C 0.8002(2) 0.1225(3) 0.93791(13)
C5J C 0.6275(3) 0.5502(2) 0.81209(13)
C6O C 0.3642(3) -0.0118(3) 0.76086(12)
C6E C 0.7618(3) 0.1142(3) 0.98914(12)
C6J C 0.6358(3) 0.5118(3) 0.76086(12)
H2O H 0.3781 -0.0542 0.7562
H2E H 0.8042 0.1281 0.9938
H2J H 0.6219 0.5542 0.7562
H3O H 0.3263 -0.0032 0.7500
H3E H 0.7532 0.0763 1.0000
H3J H 0.6737 0.5032 0.7500
C7O C 0.2234(3) 0.1636(3) 0.95350(12)
C7E C 0.5864(3) -0.0266(3) 0.79650(12)
C7J C 0.7766(3) 0.3364(3) 0.95350(12)
H4O H 0.2387 0.1371 0.9676
H4E H 0.6129 -0.0113 0.7824
H4J H 0.7613 0.3629 0.9676
C8O C 0.3048(2) 0.0381(3) 0.80085(12)
C8E C 0.7119(3) 0.0548(2) 0.94915(12)
C8J C 0.6952(2) 0.4619(3) 0.80085(12)
H5O H 0.2873 0.0655 0.7877
H5E H 0.6845 0.0373 0.9623
H5J H 0.7127 0.4345 0.7877
C9E C 0.6082(3) 0.1904(2) 1.01285(12)
C9J C 0.5596(2) 0.3582(3) 0.73715(12)
C9O C 0.4404(2) 0.1418(3) 0.73715(12)
C10O C 0.1756(3) 0.2397(2) 0.91125(12)
C10E C 0.5103(2) -0.0744(3) 0.83875(12)
C10J C 0.8244(3) 0.2603(2) 0.91125(12)
H6O H 0.1589 0.2652 0.8972
H6J H 0.8411 0.2348 0.8972
H6E H 0.4848 -0.0911 0.8528
C11O C 0.3126(3) 0.0025(3) 0.84912(12)
C11E C 0.7475(3) 0.0626(3) 0.90088(12)
C11J C 0.6874(3) 0.4975(3) 0.84912(12)
C12O C 0.2006(3) 0.2239(2) 0.96071(12)
C12E C 0.5261(2) -0.0494(3) 0.78929(12)
C12J C 0.7994(3) 0.2761(2) 0.96071(12)
C13E C 0.6528(3) 0.1473(2) 1.00541(12)
C13J C 0.6027(2) 0.4028(3) 0.74459(12)
C13O C 0.3973(2) 0.0972(3) 0.74459(12)
H7E H 0.6427 0.1046 1.0054
H7O H 0.3546 0.1073 0.7446
H7J H 0.6454 0.3927 0.7446
C14O C 0.3482(3) -0.0089(3) 0.79198(12)
C14E C 0.7589(3) 0.0982(3) 0.95802(12)
C14J C 0.6518(3) 0.5089(3) 0.79198(12)
C15J C 0.5200(3) 0.4800(3) 0.75158(11)
C15O C 0.4800(3) 0.0200(3) 0.75158(11)
C15E C 0.7300(3) 0.2300(3) 0.99842(11)
C16O C 0.2882(3) 0.0435(2) 0.82877(13)
C16E C 0.7065(2) 0.0382(3) 0.92123(13)
C16J C 0.7118(3) 0.4565(2) 0.82877(13)
C17O C 0.4166(3) 0.0361(3) 0.75218(11)
C17E C 0.7139(3) 0.1666(3) 0.99782(11)
C17J C 0.5834(3) 0.4639(3) 0.75218(11)
C18O C 0.2235(2) 0.1428(3) 0.92589(13)
C18E C 0.6072(3) -0.0265(2) 0.82411(13)
C18J C 0.7765(2) 0.3572(3) 0.92589(13)
C19J C 0.4947(3) 0.5445(3) 0.75913(12)
C19O C 0.5053(3) -0.0445(3) 0.75913(12)
C19E C 0.7945(3) 0.2553(3) 0.99087(12)
H8O H 0.5409 -0.0542 0.7470
H8E H 0.8042 0.2909 1.0030
H8J H 0.4591 0.5542 0.7470
H9O H 0.4728 -0.0759 0.7556
H9E H 0.8259 0.2228 0.9944
H9J H 0.5272 0.5759 0.7556
C20O C 0.3538(3) -0.0444(3) 0.84010(13)
C20E C 0.7944(3) 0.1038(3) 0.90990(13)
C20J C 0.6462(3) 0.5444(3) 0.84010(13)
H10O H 0.3695 -0.0730 0.8532
H10E H 0.8230 0.1195 0.8968
H10J H 0.6305 0.5730 0.8532
C21O C 0.4224(3) -0.0996(3) 0.80559(13)
C21E C 0.8496(3) 0.1724(3) 0.94441(13)
C21J C 0.5776(3) 0.5996(3) 0.80559(13)
H11J H 0.5819 0.6130 0.7862
H11E H 0.8630 0.1681 0.9638
H11O H 0.4181 -0.1130 0.7862
H12J H 0.5842 0.6361 0.8175
H12E H 0.8861 0.1658 0.9325
H12O H 0.4158 -0.1361 0.8175
Ca2 Ca 0.44263(5) 0.54388(5) 0.91952(2)
O11 O 0.5316(2) 0.5698(2) 0.94993(11)
O12 O 0.5279(2) 0.48681(19) 0.89877(9)
C22 C 0.3415(3) 0.2788(3) 0.92274(13)
O13 O 0.3586(6) 0.2860(5) 0.8947(3)
C23 C 0.4006(3) 0.2741(3) 0.93933(16)
O14 O 0.4391(3) 0.3320(3) 0.93657(14)
C24 C 0.3954(4) 0.3424(4) 0.88959(19)
C25 C 0.4540(4) 0.3385(4) 0.9073(2)
O15 O 0.3815(2) 0.6028(2) 0.95263(12)
O16 O 0.4713(3) 0.6459(3) 0.90254(13)
O17 O 0.4424(2) 0.4608(2) 0.95328(12)
loop_
_geom_bond_atom_site_label_1
_geom_bond_atom_site_label_2
_geom_bond_site_symmetry_1
_geom_bond_site_symmetry_2
V1 O3 1_555 1_555
V2 O4 1_555 1_555
O3 C1 1_555 1_555
O4 C3 1_555 1_555
O5 V1 1_555 1_555
O6 V2 1_555 1_555
O7 V2 1_555 1_555
O8 V1 1_555 1_555
O9 V2 1_555 1_555
O10 V2 1_555 1_555
C1 C2 1_555 1_555
C2 H1 1_555 1_555
C3 C10 1_555 1_555
C4 C10 1_555 1_555
C5 C14 1_555 1_555
C6 H2 1_555 1_555
H3 C6 1_555 1_555
C7 H4 1_555 1_555
C8 H5 1_555 1_555
C9 O8 1_555 1_555
C10 H6 1_555 1_555
C11 O7 1_555 1_555
C12 C4 1_555 1_555
C13 C9 1_555 1_555
H7 C13 1_555 1_555
C14 C6 1_555 1_555
C15 C2 1_555 1_555
C16 O6 1_555 1_555
C17 C6 1_555 1_555
C18 O9 1_555 1_555
C19 C15 1_555 1_555
H8 C19 1_555 1_555
H9 C19 1_555 1_555
C20 C5 1_555 1_555
H10 C20 1_555 1_555
C21 C5 1_555 1_555
H11 C21 1_555 1_555
H12 C21 1_555 1_555
C22 O13 1_555 1_555
O13 C24 1_555 1_555
C23 C22 1_555 1_555
O14 C23 1_555 1_555
C24 C25 1_555 1_555
C25 O14 1_555 1_555
V1J O3J 1_555 1_555
V2O O4O 1_555 1_555
V2E O4E 1_555 1_555
V2J O4J 1_555 1_555
O3J C1J 1_555 1_555
O3O V1J 1_555 1_555
O3E V1 1_555 1_555
O4O C3O 1_555 1_555
O4E C3E 1_555 1_555
O4J C3J 1_555 1_555
O5J V1J 1_555 1_555
O6O V2O 1_555 1_555
O6E V2E 1_555 1_555
O6J V2J 1_555 1_555
O7O V2O 1_555 1_555
O7E V2E 1_555 1_555
O7J V2J 1_555 1_555
O8E V1 1_555 1_555
O8J V1J 1_555 1_555
O8O V1J 1_555 1_555
O9O V2O 1_555 1_555
O9E V2E 1_555 1_555
O9J V2J 1_555 1_555
O10O V2O 1_555 1_555
O10E V2E 1_555 1_555
O10J V2J 1_555 1_555
C1J C2J 1_555 1_555
C1O O3O 1_555 1_555
C1E O3E 1_555 1_555
C2J H1J 1_555 1_555
C2O C1O 1_555 1_555
C2E C1E 1_555 1_555
H1O C2O 1_555 1_555
H1E C2E 1_555 1_555
C3O C10O 1_555 1_555
C3E C10E 1_555 1_555
C3J C10J 1_555 1_555
C4O C21 1_555 1_555
C4E C10E 1_555 1_555
C4J C10J 1_555 1_555
C5O C14O 1_555 1_555
C5E C14E 1_555 1_555
C5J C14J 1_555 1_555
C6O H2O 1_555 1_555
C6E H2E 1_555 1_555
C6J H2J 1_555 1_555
H3O C6O 1_555 1_555
H3E C6E 1_555 1_555
H3J C6J 1_555 1_555
C7O H4O 1_555 1_555
C7E H4E 1_555 1_555
C7J H4J 1_555 1_555
C8O H5O 1_555 1_555
C8E H5E 1_555 1_555
C8J H5J 1_555 1_555
C9E O8E 1_555 1_555
C9J O8J 1_555 1_555
C9O O8O 1_555 1_555
C10O C4O 1_555 1_555
C10E H6E 1_555 1_555
C10J H6J 1_555 1_555
H6O C10O 1_555 1_555
C11O O7O 1_555 1_555
C11E O7E 1_555 1_555
C11J O7J 1_555 1_555
C12O C19 1_555 1_555
C12E C4E 1_555 1_555
C12J C4J 1_555 1_555
C13E C9E 1_555 1_555
C13J C9J 1_555 1_555
C13O C9O 1_555 1_555
H7E C13E 1_555 1_555
H7O C13O 1_555 1_555
H7J C13J 1_555 1_555
C14O C6O 1_555 1_555
C14E C6E 1_555 1_555
C14J C6J 1_555 1_555
C15J C2J 1_555 1_555
C15O C2O 1_555 1_555
C15E C2E 1_555 1_555
C16O O6O 1_555 1_555
C16E O6E 1_555 1_555
C16J O6J 1_555 1_555
C17O C6O 1_555 1_555
C17E C6E 1_555 1_555
C17J C6J 1_555 1_555
C18O O9O 1_555 1_555
C18E O9E 1_555 1_555
C18J O9J 1_555 1_555
C19J C12 1_555 1_555
C19O C12E 1_555 1_555
C19E C12J 1_555 1_555
H8O C19O 1_555 1_555
H8E C19E 1_555 1_555
H8J C19J 1_555 1_555
H9O C19O 1_555 1_555
H9E C19E 1_555 1_555
H9J C19J 1_555 1_555
C20O C5O 1_555 1_555
C20E C5E 1_555 1_555
C20J C5J 1_555 1_555
H10O C20O 1_555 1_555
H10E C20E 1_555 1_555
H10J C20J 1_555 1_555
C21O C4E 1_555 1_555
C21E C4J 1_555 1_555
C21J C4 1_555 1_555
H11J C21J 1_555 1_555
H11E C21E 1_555 1_555
H11O C21O 1_555 1_555
H12J C21J 1_555 1_555
H12E C21E 1_555 1_555
H12O C21O 1_555 1_555
C1 C9 1_555 1_555
C3 C18 1_555 1_555
C7 C12 1_555 1_555
C7 C18 1_555 1_555
C8 C14 1_555 1_555
C8 C16 1_555 1_555
C11 C16 1_555 1_555
C11 C20 1_555 1_555
C13 C17 1_555 1_555
C15 C17 1_555 1_555
C1J C9J 1_555 1_555
C1O C9O 1_555 1_555
C1E C9E 1_555 1_555
C3O C18O 1_555 1_555
C3E C18E 1_555 1_555
C3J C18J 1_555 1_555
C4O C12O 1_555 1_555
C5O C21O 1_555 1_555
C5E C21E 1_555 1_555
C5J C21J 1_555 1_555
C7O C12O 1_555 1_555
C7O C18O 1_555 1_555
C7E C12E 1_555 1_555
C7E C18E 1_555 1_555
C7J C12J 1_555 1_555
C7J C18J 1_555 1_555
C8O C14O 1_555 1_555
C8O C16O 1_555 1_555
C8E C14E 1_555 1_555
C8E C16E 1_555 1_555
C8J C14J 1_555 1_555
C8J C16J 1_555 1_555
C11O C16O 1_555 1_555
C11O C20O 1_555 1_555
C11E C16E 1_555 1_555
C11E C20E 1_555 1_555
C11J C16J 1_555 1_555
C11J C20J 1_555 1_555
C13E C17E 1_555 1_555
C13J C17J 1_555 1_555
C13O C17O 1_555 1_555
C15J C17J 1_555 1_555
C15J C19J 1_555 1_555
C15O C17O 1_555 1_555
C15O C19O 1_555 1_555
C15E C17E 1_555 1_555
C15E C19E 1_555 1_555

#END
