
#######################################################################
#
#                 Cambridge Crystallographic Data Centre
#                                CCDC 
#
#######################################################################
#
# If this CIF has been generated from an entry in the Cambridge 
# Structural Database, then it will include bibliographic, chemical, 
# crystal, experimental, refinement or atomic coordinate data resulting 
# from the CCDC's data processing and validation procedures.
#
#######################################################################

data_TUZHEC
_chemical_formula_moiety         'C168 H120 Cu12 O60'
_chemical_name_systematic        
"hexakis(\m~4~-5-t-Butylbenzene-1,3-dicarboxylato)-hexakis(\m~4~-3,3'-ethyne-1,2-diyldibenzoato)-dodecakis(unknown)-dodeca-copper unknown solvate"
_symmetry_cell_setting           triclinic
_symmetry_space_group_name_H-M   'P -1'
_symmetry_Int_Tables_number      2
_space_group_name_Hall           '-P 1'
loop_
_symmetry_equiv_pos_site_id
_symmetry_equiv_pos_as_xyz
1 x,y,z
2 -x,-y,-z
_cell_length_a                   26.687(17)
_cell_length_b                   26.714(17)
_cell_length_c                   28.012(18)
_cell_angle_alpha                67.565(8)
_cell_angle_beta                 69.257(8)
_cell_angle_gamma                76.221(9)
_cell_volume                     17139.2
_exptl_crystal_colour            blue
_exptl_crystal_description       block
_cell_formula_units_Z            2
loop_
_atom_site_label
_atom_site_type_symbol
_atom_site_fract_x
_atom_site_fract_y
_atom_site_fract_z
Cu1 Cu 0.52830(3) 0.21397(3) 0.16110(3)
Cu2 Cu 0.51316(3) 0.16725(3) 0.26497(3)
Cu3 Cu 0.18046(3) 0.10196(3) 0.70161(3)
Cu4 Cu 0.26649(3) 0.07442(3) 0.62945(3)
Cu5 Cu 0.55778(3) 0.19832(3) 0.66296(4)
Cu6 Cu 0.55557(3) 0.14810(3) 0.59954(3)
O1 O 0.55669(14) 0.26992(15) 0.16755(17)
O2 O 0.54202(15) 0.23105(16) 0.25885(17)
O3 O 0.5728(2) 0.2633(2) 0.5984(2)
O4 O 0.55996(16) 0.22115(18) 0.54781(17)
O5 O 0.48008(17) 0.21451(19) 0.67127(19)
O6 O 0.47678(16) 0.16416(18) 0.62520(19)
O7 O 0.22790(16) 0.14630(16) 0.70232(18)
O8 O 0.30244(16) 0.11975(17) 0.64310(18)
O9 O 0.16033(18) 0.16202(17) 0.6449(2)
O10 O 0.23480(17) 0.14146(16) 0.58178(17)
O11 O 0.45526(16) 0.24915(18) 0.18355(18)
O12 O 0.44114(14) 0.20879(16) 0.27311(17)
O13 O 0.60015(14) 0.17255(17) 0.15200(18)
O14 O 0.58561(15) 0.13257(16) 0.2431(2)
O15 O 0.20960(16) 0.03985(16) 0.75235(17)
O16 O 0.28094(17) 0.01333(16) 0.6908(2)
O17 O 0.14808(17) 0.05382(19) 0.6845(2)
O18 O 0.22145(17) 0.03201(15) 0.62138(17)
O19 O 0.63417(18) 0.1751(2) 0.6468(2)
O20 O 0.63391(16) 0.13860(18) 0.58726(19)
O21 O 0.50015(16) 0.15006(19) 0.16621(19)
O22 O 0.48602(16) 0.11010(16) 0.2548(2)
O23 O 0.54488(18) 0.1281(2) 0.7156(2)
O24 O 0.55161(17) 0.08143(17) 0.6606(2)
O49 O 0.52899(17) 0.25705(18) 0.07622(19)
O50 O 0.50422(17) 0.12285(18) 0.34844(19)
O51 O 0.54798(17) 0.23494(18) 0.72342(19)
O52 O 0.56786(17) 0.11516(18) 0.53509(19)
O53 O 0.10572(17) 0.10612(18) 0.76690(19)
O54 O 0.33404(17) 0.05871(18) 0.56634(19)
C1 C 0.5577(2) 0.2692(3) 0.2104(3)
C2 C 0.57860(16) 0.31266(18) 0.2146(2)
C3 C 0.60011(19) 0.3534(3) 0.16716(18)
H1 H 0.6017 0.3519 0.1333
C4 C 0.61923(18) 0.39633(19) 0.1693(2)
H2 H 0.6339 0.4242 0.1369
C5 C 0.61685(19) 0.39849(18) 0.2189(3)
H3 H 0.6299 0.4278 0.2204
C6 C 0.5953(2) 0.3577(2) 0.2663(2)
C7 C 0.57622(16) 0.31483(18) 0.26413(18)
H4 H 0.5615 0.2870 0.2965
C8 C 0.5948(4) 0.3601(4) 0.3173(4)
C9 C 0.5933(4) 0.3594(4) 0.3617(4)
C10 C 0.5915(2) 0.3601(3) 0.4124(2)
C11 C 0.5980(2) 0.4068(2) 0.4194(3)
H5 H 0.6039 0.4394 0.3895
C12 C 0.5958(2) 0.4056(2) 0.4702(4)
H6 H 0.6002 0.4374 0.4749
C13 C 0.5871(2) 0.3578(3) 0.5139(2)
H7 H 0.5856 0.3570 0.5486
C14 C 0.58061(17) 0.3111(2) 0.5069(2)
C15 C 0.58283(17) 0.3123(2) 0.4562(3)
H8 H 0.5784 0.2804 0.4514
C16 C 0.5705(3) 0.2609(3) 0.5588(4)
C17 C 0.4549(3) 0.1931(3) 0.6560(3)
C18 C 0.39607(12) 0.20341(17) 0.67216(16)
C19 C 0.37049(17) 0.23826(15) 0.70226(17)
H9 H 0.3912 0.2579 0.7089
C20 C 0.31456(17) 0.24431(14) 0.72269(15)
C21 C 0.28421(12) 0.21553(17) 0.71301(16)
H10 H 0.2460 0.2197 0.7270
C22 C 0.30980(18) 0.18069(15) 0.68290(17)
C23 C 0.36573(19) 0.17463(14) 0.66248(15)
H11 H 0.3832 0.1508 0.6419
C24 C 0.2777(3) 0.1455(3) 0.6754(3)
C25 C 0.28306(13) 0.28323(13) 0.75470(13)
C26 C 0.24413(19) 0.32556(17) 0.7258(2)
H12 H 0.2244 0.3503 0.7466
H13 H 0.2185 0.3069 0.7228
H14 H 0.2646 0.3466 0.6896
C27 C 0.2503(2) 0.2514(2) 0.81139(14)
H15 H 0.2312 0.2766 0.8317
H16 H 0.2747 0.2239 0.8302
H17 H 0.2241 0.2333 0.8085
C28 C 0.32194(18) 0.3133(2) 0.7602(2)
H18 H 0.3014 0.3374 0.7814
H19 H 0.3422 0.3350 0.7243
H20 H 0.3471 0.2867 0.7786
C29 C 0.1910(3) 0.1695(3) 0.5967(3)
C30 C 0.17618(18) 0.21732(15) 0.55354(16)
C31 C 0.12969(16) 0.25246(19) 0.56610(13)
H21 H 0.1076 0.2456 0.6025
C32 C 0.11559(14) 0.29763(16) 0.52546(18)
H22 H 0.0838 0.3216 0.5340
C33 C 0.14796(17) 0.30765(15) 0.47227(16)
H23 H 0.1383 0.3385 0.4445
C34 C 0.19444(16) 0.27251(19) 0.45971(14)
C35 C 0.20855(14) 0.22734(17) 0.50034(19)
H24 H 0.2403 0.2033 0.4918
C36 C 0.2284(3) 0.2806(3) 0.4049(3)
C37 C 0.2543(3) 0.2862(3) 0.3631(3)
C38 C 0.29083(18) 0.2963(2) 0.30635(16)
C39 C 0.27325(15) 0.33483(17) 0.2637(2)
H25 H 0.2390 0.3559 0.2707
C40 C 0.3058(2) 0.34253(16) 0.21085(19)
H26 H 0.2938 0.3688 0.1817
C41 C 0.35592(19) 0.3117(2) 0.20058(16)
H27 H 0.3782 0.3170 0.1644
C42 C 0.37350(14) 0.27327(17) 0.2432(2)
C43 C 0.34095(19) 0.26556(16) 0.29608(18)
H28 H 0.3530 0.2393 0.3252
C44 C 0.4296(3) 0.2425(2) 0.2295(3)
C45 C 0.6132(3) 0.1398(3) 0.1935(3)
C46 C 0.66757(13) 0.10713(15) 0.1828(2)
C47 C 0.70100(18) 0.11437(14) 0.13031(16)
H29 H 0.6905 0.1419 0.1009
C48 C 0.74982(17) 0.08135(18) 0.12090(13)
C49 C 0.76521(13) 0.04108(15) 0.1640(2)
H30 H 0.7986 0.0185 0.1575
C50 C 0.73177(17) 0.03384(14) 0.21649(16)
C51 C 0.68295(16) 0.06686(17) 0.22590(13)
H31 H 0.6601 0.0619 0.2618
C52 C 0.2515(3) 0.0107(3) 0.7401(3)
C53 C 0.78641(15) 0.09073(16) 0.06267(13)
C54 C 0.7922(4) 0.15153(19) 0.0334(2)
H32 H 0.8158 0.1569 -0.0036
H33 H 0.8079 0.1646 0.0526
H34 H 0.7566 0.1720 0.0327
C55 C 0.7624(4) 0.0709(4) 0.0317(2)
H35 H 0.7862 0.0769 -0.0054
H36 H 0.7267 0.0913 0.0308
C56 C 0.8426(2) 0.0593(4) 0.0623(3)
H38 H 0.8655 0.0655 0.0249
H39 H 0.8395 0.0203 0.0803
H40 H 0.8588 0.0721 0.0813
C60 C 0.1722(3) 0.0327(3) 0.6492(3)
C61 C 0.1398(2) 0.00115(16) 0.6369(2)
C62 C 0.0871(2) -0.00620(18) 0.66942(17)
H50 H 0.0718 0.0085 0.6982
C63 C 0.05676(15) -0.0351(2) 0.6598(2)
H51 H 0.0208 -0.0401 0.6820
C64 C 0.0791(2) -0.05659(18) 0.6177(3)
H52 H 0.0584 -0.0763 0.6112
C65 C 0.1318(2) -0.04925(19) 0.5853(2)
C66 C 0.16212(15) -0.02038(19) 0.5948(2)
H53 H 0.1981 -0.0154 0.5726
C67 C 0.1539(3) -0.0692(3) 0.5419(4)
C68 C 0.1746(3) -0.0868(3) 0.5050(4)
C69 C 0.2009(2) -0.10806(19) 0.46208(18)
C70 C 0.17128(14) -0.1177(2) 0.4351(2)
H54 H 0.1331 -0.1101 0.4455
C71 C 0.1976(2) -0.1385(2) 0.3928(2)
H55 H 0.1773 -0.1451 0.3743
C72 C 0.2535(2) -0.14963(19) 0.37749(19)
H56 H 0.2715 -0.1638 0.3486
C73 C 0.28312(14) -0.14000(18) 0.4045(2)
C74 C 0.2568(2) -0.11921(19) 0.4468(2)
H57 H 0.2771 -0.1126 0.4653
C75 C 0.6574(3) 0.1519(3) 0.6104(4)
C76 C 0.4898(3) 0.1110(3) 0.2088(4)
C77 C 0.47590(17) 0.06162(19) 0.2073(3)
C78 C 0.46846(16) 0.0144(3) 0.25194(18)
H58 H 0.4680 0.0146 0.2859
C79 C 0.46170(17) -0.0331(2) 0.2468(2)
C80 C 0.4624(2) -0.0334(2) 0.1970(3)
H59 H 0.4578 -0.0659 0.1935
C81 C 0.4698(2) 0.0138(3) 0.15245(19)
C82 C 0.47659(19) 0.0613(2) 0.1576(2)
H60 H 0.4817 0.0936 0.1271
C83 C 0.5458(2) 0.0878(3) 0.7052(3)
C84 C 0.4720(2) 0.0134(2) 0.09715(17)
C85 C 0.4878(6) 0.0676(3) 0.0534(2)
H61 H 0.4903 0.0662 0.0181
H62 H 0.5228 0.0739 0.0527
C86 C 0.5136(5) -0.0330(4) 0.0824(3)
H64 H 0.5150 -0.0325 0.0468
H65 H 0.5033 -0.0680 0.1094
H66 H 0.5492 -0.0281 0.0815
C87 C 0.4167(3) 0.0050(6) 0.0982(4)
H67 H 0.4188 0.0039 0.0630
H68 H 0.3899 0.0352 0.1062
H69 H 0.4059 -0.0295 0.1263
Cu1A Cu 0.47170(3) -0.21397(3) 0.83890(3)
Cu2A Cu 0.48684(3) -0.16725(3) 0.73503(3)
Cu3A Cu 0.81954(3) -0.10196(3) 0.29839(3)
Cu4A Cu 0.73351(3) -0.07442(3) 0.37055(3)
Cu5A Cu 0.44222(3) -0.19832(3) 0.33704(4)
Cu6A Cu 0.44443(3) -0.14810(3) 0.40046(3)
O1A O 0.44331(14) -0.26992(15) 0.83245(17)
O2A O 0.45798(15) -0.23105(16) 0.74115(17)
O3A O 0.4272(2) -0.2633(2) 0.4016(2)
O4A O 0.44004(16) -0.22115(18) 0.45219(17)
O5A O 0.51992(17) -0.21451(19) 0.32873(19)
O6A O 0.52322(16) -0.16416(18) 0.37480(19)
O7A O 0.77210(16) -0.14630(16) 0.29768(18)
O8A O 0.69756(16) -0.11975(17) 0.35690(18)
O9A O 0.83967(18) -0.16202(17) 0.3551(2)
O10A O 0.76520(17) -0.14146(16) 0.41822(17)
O11A O 0.54474(16) -0.24915(18) 0.81645(18)
O12A O 0.55886(14) -0.20879(16) 0.72689(17)
O13A O 0.39985(14) -0.17255(17) 0.84800(18)
O14A O 0.41439(15) -0.13257(16) 0.7569(2)
O15A O 0.79040(16) -0.03985(16) 0.24765(17)
O16A O 0.71906(17) -0.01333(16) 0.3092(2)
O17A O 0.85192(17) -0.05382(19) 0.3155(2)
O18A O 0.77855(17) -0.03201(15) 0.37862(17)
O19A O 0.36583(18) -0.1751(2) 0.3532(2)
O20A O 0.36609(16) -0.13860(18) 0.41274(19)
O21A O 0.49985(16) -0.15006(19) 0.83379(19)
O22A O 0.51398(16) -0.11010(16) 0.7452(2)
O23A O 0.45512(18) -0.1281(2) 0.2844(2)
O24A O 0.44839(17) -0.08143(17) 0.3394(2)
O49A O 0.47101(17) -0.25705(18) 0.92378(19)
O50A O 0.49578(17) -0.12285(18) 0.65156(19)
O51A O 0.45202(17) -0.23494(18) 0.27658(19)
O52A O 0.43214(17) -0.11516(18) 0.46491(19)
O53A O 0.89428(17) -0.10612(18) 0.23310(19)
O54A O 0.66596(17) -0.05871(18) 0.43366(19)
C1A C 0.4423(2) -0.2692(3) 0.7896(3)
C2A C 0.42140(16) -0.31266(18) 0.7854(2)
C3A C 0.39989(19) -0.3534(3) 0.83284(18)
H1A H 0.3983 -0.3519 0.8667
C4A C 0.38077(18) -0.39633(19) 0.8307(2)
H2A H 0.3661 -0.4242 0.8631
C5A C 0.38315(19) -0.39849(18) 0.7811(3)
H3A H 0.3701 -0.4278 0.7796
C6A C 0.4047(2) -0.3577(2) 0.7337(2)
C7A C 0.42378(16) -0.31483(18) 0.73587(18)
H4A H 0.4385 -0.2870 0.7035
C8A C 0.4052(4) -0.3601(4) 0.6827(4)
C9A C 0.4067(4) -0.3594(4) 0.6383(4)
C10A C 0.4085(2) -0.3601(3) 0.5876(2)
C11A C 0.4020(2) -0.4068(2) 0.5806(3)
H5A H 0.3961 -0.4394 0.6105
C12A C 0.4042(2) -0.4056(2) 0.5298(4)
H6A H 0.3998 -0.4374 0.5251
C13A C 0.4129(2) -0.3578(3) 0.4861(2)
H7A H 0.4144 -0.3570 0.4514
C14A C 0.41939(17) -0.3111(2) 0.4931(2)
C15A C 0.41717(17) -0.3123(2) 0.5438(3)
H8A H 0.4216 -0.2804 0.5486
C16A C 0.4295(3) -0.2609(3) 0.4412(4)
C17A C 0.5451(3) -0.1931(3) 0.3440(3)
C18A C 0.60393(12) -0.20341(17) 0.32784(16)
C19A C 0.62951(17) -0.23826(15) 0.29774(17)
H9A H 0.6088 -0.2579 0.2911
C20A C 0.68544(17) -0.24431(14) 0.27731(15)
C21A C 0.71579(12) -0.21553(17) 0.28699(16)
H10A H 0.7540 -0.2197 0.2730
C22A C 0.69020(18) -0.18069(15) 0.31710(17)
C23A C 0.63427(19) -0.17463(14) 0.33752(15)
H11A H 0.6168 -0.1508 0.3581
C24A C 0.7223(3) -0.1455(3) 0.3246(3)
C25A C 0.71694(13) -0.28323(13) 0.24530(13)
C26A C 0.75587(19) -0.32556(17) 0.2742(2)
H12A H 0.7756 -0.3503 0.2534
H13A H 0.7815 -0.3069 0.2772
H14A H 0.7354 -0.3466 0.3104
C27A C 0.7497(2) -0.2514(2) 0.18861(14)
H15A H 0.7688 -0.2766 0.1683
H16A H 0.7253 -0.2239 0.1698
H17A H 0.7759 -0.2333 0.1915
C28A C 0.67806(18) -0.3133(2) 0.2398(2)
H18A H 0.6986 -0.3374 0.2186
H19A H 0.6578 -0.3350 0.2757
H20A H 0.6529 -0.2867 0.2214
C29A C 0.8090(3) -0.1695(3) 0.4033(3)
C30A C 0.82382(18) -0.21732(15) 0.44646(16)
C31A C 0.87031(16) -0.25246(19) 0.43390(13)
H21A H 0.8924 -0.2456 0.3975
C32A C 0.88441(14) -0.29763(16) 0.47454(18)
H22A H 0.9162 -0.3216 0.4660
C33A C 0.85204(17) -0.30765(15) 0.52773(16)
H23A H 0.8617 -0.3385 0.5555
C34A C 0.80556(16) -0.27251(19) 0.54029(14)
C35A C 0.79145(14) -0.22734(17) 0.49966(19)
H24A H 0.7597 -0.2033 0.5082
C36A C 0.7716(3) -0.2806(3) 0.5951(3)
C37A C 0.7457(3) -0.2862(3) 0.6369(3)
C38A C 0.70917(18) -0.2963(2) 0.69365(16)
C39A C 0.72675(15) -0.33483(17) 0.7363(2)
H25A H 0.7610 -0.3559 0.7293
C40A C 0.6942(2) -0.34253(16) 0.78915(19)
H26A H 0.7062 -0.3688 0.8183
C41A C 0.64408(19) -0.3117(2) 0.79942(16)
H27A H 0.6218 -0.3170 0.8356
C42A C 0.62650(14) -0.27327(17) 0.7568(2)
C43A C 0.65905(19) -0.26556(16) 0.70392(18)
H28A H 0.6470 -0.2393 0.6748
C44A C 0.5704(3) -0.2425(2) 0.7705(3)
C45A C 0.3868(3) -0.1398(3) 0.8065(3)
C46A C 0.33243(13) -0.10713(15) 0.8172(2)
C47A C 0.29900(18) -0.11437(14) 0.86969(16)
H29A H 0.3095 -0.1419 0.8991
C48A C 0.25018(17) -0.08135(18) 0.87910(13)
C49A C 0.23479(13) -0.04108(15) 0.8360(2)
H30A H 0.2014 -0.0185 0.8425
C50A C 0.26823(17) -0.03384(14) 0.78351(16)
C51A C 0.31705(16) -0.06686(17) 0.77410(13)
H31A H 0.3399 -0.0619 0.7382
C52A C 0.7485(3) -0.0107(3) 0.2599(3)
C53A C 0.21359(15) -0.09073(16) 0.93733(13)
C54A C 0.2078(4) -0.15153(19) 0.9666(2)
H32A H 0.1842 -0.1569 1.0036
H33A H 0.1921 -0.1646 0.9474
H34A H 0.2434 -0.1720 0.9673
C55A C 0.2376(4) -0.0709(4) 0.9683(2)
H35A H 0.2138 -0.0769 1.0054
H36A H 0.2733 -0.0913 0.9692
C56A C 0.1574(2) -0.0593(4) 0.9377(3)
H38A H 0.1345 -0.0655 0.9751
H39A H 0.1605 -0.0203 0.9197
H40A H 0.1412 -0.0721 0.9187
C60A C 0.8278(3) -0.0327(3) 0.3508(3)
C61A C 0.8602(2) -0.00115(16) 0.3631(2)
C62A C 0.9129(2) 0.00620(18) 0.33058(17)
H50A H 0.9282 -0.0085 0.3018
C63A C 0.94324(15) 0.0351(2) 0.3402(2)
H51A H 0.9792 0.0401 0.3180
C64A C 0.9209(2) 0.05659(18) 0.3823(3)
H52A H 0.9416 0.0763 0.3888
C65A C 0.8682(2) 0.04925(19) 0.4147(2)
C66A C 0.83788(15) 0.02038(19) 0.4052(2)
H53A H 0.8019 0.0154 0.4274
C67A C 0.8461(3) 0.0692(3) 0.4581(4)
C68A C 0.8254(3) 0.0868(3) 0.4950(4)
C69A C 0.7991(2) 0.10806(19) 0.53792(18)
C70A C 0.82872(14) 0.1177(2) 0.5649(2)
H54A H 0.8669 0.1101 0.5545
C71A C 0.8024(2) 0.1385(2) 0.6072(2)
H55A H 0.8227 0.1451 0.6257
C72A C 0.7465(2) 0.14963(19) 0.62251(19)
H56A H 0.7285 0.1638 0.6514
C73A C 0.71688(14) 0.14000(18) 0.5955(2)
C74A C 0.7432(2) 0.11921(19) 0.5532(2)
H57A H 0.7229 0.1126 0.5347
C75A C 0.3426(3) -0.1519(3) 0.3896(4)
C76A C 0.5102(3) -0.1110(3) 0.7912(4)
C77A C 0.52410(17) -0.06162(19) 0.7927(3)
C78A C 0.53154(16) -0.0144(3) 0.74806(18)
H58A H 0.5320 -0.0146 0.7141
C79A C 0.53830(17) 0.0331(2) 0.7532(2)
C80A C 0.5376(2) 0.0334(2) 0.8030(3)
H59A H 0.5422 0.0659 0.8065
C81A C 0.5302(2) -0.0138(3) 0.84755(19)
C82A C 0.52341(19) -0.0613(2) 0.8424(2)
H60A H 0.5183 -0.0936 0.8729
C83A C 0.4542(2) -0.0878(3) 0.2948(3)
C84A C 0.5280(2) -0.0134(2) 0.90285(17)
C85A C 0.5122(6) -0.0676(3) 0.9466(2)
H61A H 0.5097 -0.0662 0.9819
H62A H 0.4772 -0.0739 0.9473
C86A C 0.4864(5) 0.0330(4) 0.9176(3)
H64A H 0.4850 0.0325 0.9532
H65A H 0.4967 0.0680 0.8906
H66A H 0.4508 0.0281 0.9185
C87A C 0.5833(3) -0.0050(6) 0.9018(4)
H67A H 0.5812 -0.0039 0.9370
H68A H 0.6101 -0.0352 0.8938
H69A H 0.5941 0.0295 0.8737
Cu7 Cu 0.06444(3) 0.49522(4) 0.67102(4)
Cu8 Cu 0.06057(3) 0.48221(3) 0.76962(3)
Cu9 Cu 0.04673(3) 0.15463(3) 1.20387(4)
Cu10 Cu 0.02736(3) 0.24928(3) 1.13295(3)
Cu11 Cu 0.32112(3) 0.44608(3) 1.05275(3)
Cu12 Cu 0.23590(3) 0.47206(3) 1.01873(3)
O25 O 0.30194(15) 0.37265(14) 1.07738(18)
O26 O 0.22709(16) 0.39513(16) 1.05153(18)
O27 O 0.11431(16) 0.18204(18) 1.1855(2)
O28 O 0.10060(16) 0.26143(17) 1.12182(19)
O29 O 0.07637(16) 0.12607(18) 1.1446(2)
O30 O 0.05751(17) 0.20513(18) 1.08468(18)
O31 O 0.0759(2) 0.4152(2) 0.6953(2)
O32 O 0.06756(17) 0.40493(18) 0.7806(2)
O33 O 0.14140(18) 0.4940(2) 0.6535(2)
O34 O 0.13960(17) 0.48156(18) 0.7380(2)
O35 O 0.36061(15) 0.44163(16) 0.98188(18)
O36 O 0.28774(17) 0.45895(17) 0.95327(17)
O37 O 0.32732(15) 0.52338(16) 1.02429(18)
O38 O 0.25682(15) 0.54447(15) 0.99249(17)
O39 O -0.02439(15) 0.14255(16) 1.20989(19)
O40 O -0.04145(15) 0.22447(17) 1.15181(19)
O41 O 0.01532(18) 0.1942(2) 1.2540(2)
O42 O 0.00021(16) 0.27703(17) 1.1932(2)
O43 O 0.05692(18) 0.5736(2) 0.6609(2)
O44 O 0.05460(16) 0.56146(18) 0.7455(2)
O45 O -0.01233(18) 0.49586(19) 0.6992(2)
O46 O -0.01759(17) 0.48674(18) 0.7854(2)
O47 O 0.26818(15) 0.45705(14) 1.11878(15)
O48 O 0.19725(14) 0.48216(15) 1.08712(16)
O55 O 0.06629(17) 0.51331(18) 0.58927(19)
O56 O 0.05250(17) 0.47379(18) 0.85161(19)
O57 O 0.06664(17) 0.08338(18) 1.26723(19)
O58 O 0.01000(17) 0.32218(18) 1.06997(19)
O59 O 0.39027(17) 0.42738(18) 1.08593(19)
O60 O 0.17196(17) 0.49916(18) 0.98048(19)
C91 C 0.0787(3) 0.3894(3) 0.7404(4)
C92 C 0.09305(17) 0.32868(18) 0.7526(3)
C93 C 0.1064(2) 0.3070(3) 0.7112(2)
H79 H 0.1042 0.3302 0.6763
C94 C 0.1229(2) 0.2516(3) 0.7208(3)
H80 H 0.1320 0.2368 0.6924
C95 C 0.1261(2) 0.21771(18) 0.7718(3)
H81 H 0.1373 0.1798 0.7784
C96 C 0.1127(2) 0.2394(3) 0.8133(2)
C97 C 0.09622(18) 0.2948(3) 0.8037(3)
H82 H 0.0871 0.3096 0.8320
C98 C 0.1143(4) 0.2024(4) 0.8662(4)
C99 C 0.1148(4) 0.1753(4) 0.9088(5)
C100 C 0.1166(2) 0.1409(2) 0.96094(17)
C101 C 0.1340(2) 0.0854(2) 0.97248(19)
H83 H 0.1471 0.0698 0.9443
C102 C 0.1323(2) 0.05264(14) 1.0252(2)
H84 H 0.1442 0.0147 1.0331
C103 C 0.1132(2) 0.0754(2) 1.06635(17)
H85 H 0.1121 0.0531 1.1024
C104 C 0.0958(2) 0.1310(2) 1.0548(2)
C105 C 0.0975(2) 0.16368(13) 1.0021(2)
H86 H 0.0857 0.2016 0.9942
C106 C 0.0759(4) 0.1540(4) 1.0985(4)
C107 C 0.1287(3) 0.2252(3) 1.1519(3)
C108 C 0.18348(12) 0.24060(18) 1.13864(18)
C109 C 0.21872(16) 0.20132(13) 1.16422(16)
H87 H 0.2089 0.1657 1.1853
C110 C 0.26836(15) 0.21412(15) 1.15893(16)
C111 C 0.28276(12) 0.26620(17) 1.12807(18)
H88 H 0.3167 0.2749 1.1245
C112 C 0.24752(17) 0.30548(13) 1.10249(16)
C113 C 0.19788(15) 0.29268(16) 1.10778(16)
H89 H 0.1738 0.3195 1.0903
C114 C 0.2591(3) 0.3629(3) 1.0757(3)
C115 C 0.30565(14) 0.17161(14) 1.18989(18)
C116 C 0.2957(3) 0.11384(13) 1.1996(4)
H90 H 0.3211 0.0872 1.2177
H91 H 0.3011 0.1094 1.1650
H92 H 0.2587 0.1080 1.2225
C117 C 0.2951(3) 0.1784(3) 1.2447(2)
H93 H 0.3194 0.1512 1.2639
H94 H 0.2576 0.1732 1.2662
H95 H 0.3017 0.2151 1.2390
C118 C 0.36488(13) 0.1785(3) 1.1576(3)
H96 H 0.3882 0.1500 1.1770
H97 H 0.3724 0.2144 1.1532
H98 H 0.3719 0.1754 1.1220
C122 C 0.3386(3) 0.4480(2) 0.9488(3)
C123 C 0.3732(2) 0.44664(16) 0.89163(18)
C124 C 0.4292(2) 0.43937(17) 0.8789(2)
H108 H 0.4459 0.4351 0.9053
C125 C 0.46062(13) 0.43839(18) 0.8277(3)
H109 H 0.4989 0.4334 0.8190
C126 C 0.4361(2) 0.44469(18) 0.78909(18)
H110 H 0.4576 0.4440 0.7541
C127 C 0.3802(2) 0.45196(17) 0.8018(2)
C128 C 0.34872(13) 0.45293(15) 0.8530(2)
H111 H 0.3105 0.4579 0.8617
C129 C 0.3542(3) 0.4604(3) 0.7626(3)
C130 C 0.3338(3) 0.4635(3) 0.7319(3)
C131 C 0.3068(2) 0.47110(17) 0.6940(2)
C132 C 0.33552(13) 0.47579(17) 0.6406(3)
H112 H 0.3738 0.4727 0.6294
C133 C 0.3081(2) 0.48497(18) 0.60347(17)
H113 H 0.3277 0.4882 0.5670
C134 C 0.2521(2) 0.48946(18) 0.6198(2)
H114 H 0.2334 0.4957 0.5944
C135 C 0.22344(13) 0.48478(17) 0.6732(2)
C136 C 0.2508(2) 0.47560(17) 0.71032(16)
H115 H 0.2312 0.4724 0.7468
C137 C 0.1622(3) 0.4873(3) 0.6883(4)
C138 C 0.0537(3) 0.5890(3) 0.6967(4)
C139 C 0.04468(16) 0.65016(12) 0.68866(19)
C140 C 0.05103(15) 0.68280(18) 0.63510(16)
H116 H 0.0615 0.6665 0.6077
C141 C 0.04205(15) 0.73926(17) 0.62167(12)
C142 C 0.02674(15) 0.76307(12) 0.66180(19)
H117 H 0.0206 0.8017 0.6526
C143 C 0.02039(16) 0.7304(2) 0.71537(16)
C144 C 0.02936(16) 0.67397(18) 0.72880(12)
H118 H 0.0250 0.6517 0.7654
C145 C -0.0007(3) 0.2468(4) 1.2414(3)
C146 C 0.04908(15) 0.77462(14) 0.56237(12)
C147 C 0.0981(4) 0.7505(4) 0.52541(18)
H120 H 0.0929 0.7136 0.5301
H121 H 0.1307 0.7489 0.5348
C148 C 0.0575(6) 0.8327(2) 0.5536(3)
H122 H 0.0616 0.8549 0.5156
H123 H 0.0900 0.8315 0.5628
H124 H 0.0261 0.8487 0.5767
C149 C -0.0012(3) 0.7776(5) 0.5464(3)
C153 C -0.0539(2) 0.1777(3) 1.1845(3)
C154 C -0.10608(13) 0.16353(17) 1.1895(2)
C155 C -0.13944(17) 0.20113(13) 1.16033(18)
H137 H -0.1282 0.2355 1.1364
C156 C -0.18932(16) 0.18842(15) 1.16618(19)
C157 C -0.20584(13) 0.13812(17) 1.2012(2)
H138 H -0.2399 0.1294 1.2052
C158 C -0.17248(16) 0.10052(13) 1.23038(18)
H139 H -0.1838 0.0661 1.2543
C159 C -0.12260(15) 0.11323(15) 1.22453(18)
H140 H -0.0998 0.0875 1.2445
C160 C -0.2234(3) 0.2261(3) 1.1355(3)
C161 C -0.2505(2) 0.2543(3) 1.1102(3)
C162 C -0.28401(16) 0.29267(16) 1.07931(15)
C163 C -0.27410(13) 0.34688(18) 1.05550(17)
H141 H -0.2458 0.3583 1.0607
C164 C -0.30556(16) 0.38445(13) 1.02414(16)
C165 C -0.34693(15) 0.36781(17) 1.01658(15)
H142 H -0.3684 0.3935 0.9951
C166 C -0.35684(14) 0.3136(2) 1.04039(18)
H143 H -0.3851 0.3022 1.0352
C167 C -0.32538(18) 0.27603(13) 1.07175(17)
H144 H -0.3321 0.2390 1.0880
C168 C 0.2967(3) 0.5540(3) 1.0002(3)
C169 C -0.0379(3) 0.4954(3) 0.7474(4)
C170 C -0.09903(12) 0.50228(15) 0.7642(2)
C171 C -0.12418(18) 0.50520(15) 0.72726(14)
H145 H -0.1031 0.5013 0.6933
C172 C -0.18015(18) 0.51389(15) 0.74005(17)
C173 C -0.21096(12) 0.51965(15) 0.78977(19)
H146 H -0.2492 0.5256 0.7985
C174 C -0.18581(19) 0.51672(15) 0.82671(13)
C175 C -0.1298(2) 0.50804(15) 0.81392(17)
H147 H -0.1127 0.5060 0.8392
C176 C 0.2178(3) 0.4747(2) 1.1230(3)
C177 C -0.20582(14) 0.51444(16) 0.69873(15)
C178 C -0.1911(2) 0.4593(2) 0.6891(3)
H148 H -0.2077 0.4602 0.6626
H149 H -0.2044 0.4304 0.7232
H150 H -0.1518 0.4519 0.6754
C179 C -0.1856(2) 0.5591(2) 0.64476(16)
H151 H -0.2025 0.5591 0.6188
H152 H -0.1463 0.5520 0.6307
H153 H -0.1952 0.5947 0.6502
C180 C -0.26743(14) 0.5255(3) 0.7193(2)
H154 H -0.2833 0.5260 0.6924
H155 H -0.2774 0.5609 0.7252
H156 H -0.2810 0.4968 0.7533
Cu7A Cu -0.06444(3) 0.50478(4) 1.32898(4)
Cu8A Cu -0.06057(3) 0.51779(3) 1.23038(3)
Cu9A Cu -0.04673(3) 0.84537(3) 0.79613(4)
Cu10A Cu -0.02736(3) 0.75072(3) 0.86705(3)
Cu11A Cu -0.32112(3) 0.55392(3) 0.94725(3)
Cu12A Cu -0.23590(3) 0.52794(3) 0.98127(3)
O25A O -0.30194(15) 0.62735(14) 0.92262(18)
O26A O -0.22709(16) 0.60487(16) 0.94847(18)
O27A O -0.11431(16) 0.81796(18) 0.8145(2)
O28A O -0.10060(16) 0.73857(17) 0.87818(19)
O29A O -0.07637(16) 0.87393(18) 0.8554(2)
O30A O -0.05751(17) 0.79487(18) 0.91532(18)
O31A O -0.0759(2) 0.5848(2) 1.3047(2)
O32A O -0.06756(17) 0.59507(18) 1.2194(2)
O33A O -0.14140(18) 0.5060(2) 1.3465(2)
O34A O -0.13960(17) 0.51844(18) 1.2620(2)
O35A O -0.36061(15) 0.55837(16) 1.01812(18)
O36A O -0.28774(17) 0.54105(17) 1.04673(17)
O37A O -0.32732(15) 0.47662(16) 0.97571(18)
O38A O -0.25682(15) 0.45553(15) 1.00751(17)
O39A O 0.02439(15) 0.85745(16) 0.79011(19)
O40A O 0.04145(15) 0.77553(17) 0.84819(19)
O41A O -0.01532(18) 0.8058(2) 0.7460(2)
O42A O -0.00021(16) 0.72297(17) 0.8068(2)
O43A O -0.05692(18) 0.4264(2) 1.3391(2)
O44A O -0.05460(16) 0.43854(18) 1.2545(2)
O45A O 0.01233(18) 0.50414(19) 1.3008(2)
O46A O 0.01759(17) 0.51326(18) 1.2146(2)
O47A O -0.26818(15) 0.54295(14) 0.88122(15)
O48A O -0.19725(14) 0.51784(15) 0.91288(16)
O55A O -0.06629(17) 0.48669(18) 1.41073(19)
O56A O -0.05250(17) 0.52621(18) 1.14839(19)
O57A O -0.06664(17) 0.91662(18) 0.73277(19)
O58A O -0.01000(17) 0.67782(18) 0.93003(19)
O59A O -0.39027(17) 0.57262(18) 0.91407(19)
O60A O -0.17196(17) 0.50084(18) 1.01952(19)
C91A C -0.0787(3) 0.6106(3) 1.2596(4)
C92A C -0.09305(17) 0.67132(18) 1.2474(3)
C93A C -0.1064(2) 0.6930(3) 1.2888(2)
H79A H -0.1042 0.6698 1.3237
C94A C -0.1229(2) 0.7484(3) 1.2792(3)
H80A H -0.1320 0.7632 1.3076
C95A C -0.1261(2) 0.78229(18) 1.2282(3)
H81A H -0.1373 0.8202 1.2216
C96A C -0.1127(2) 0.7606(3) 1.1867(2)
C97A C -0.09622(18) 0.7052(3) 1.1963(3)
H82A H -0.0871 0.6904 1.1680
C98A C -0.1143(4) 0.7976(4) 1.1338(4)
C99A C -0.1148(4) 0.8247(4) 1.0912(5)
C100A C -0.1166(2) 0.8591(2) 1.03906(17)
C101A C -0.1340(2) 0.9146(2) 1.02752(19)
H83A H -0.1471 0.9302 1.0557
C102A C -0.1323(2) 0.94736(14) 0.9748(2)
H84A H -0.1442 0.9853 0.9669
C103A C -0.1132(2) 0.9246(2) 0.93365(17)
H85A H -0.1121 0.9469 0.8976
C104A C -0.0958(2) 0.8690(2) 0.9452(2)
C105A C -0.0975(2) 0.83632(13) 0.9979(2)
H86A H -0.0857 0.7984 1.0058
C106A C -0.0759(4) 0.8460(4) 0.9015(4)
C107A C -0.1287(3) 0.7748(3) 0.8481(3)
C108A C -0.18348(12) 0.75940(18) 0.86136(18)
C109A C -0.21872(16) 0.79868(13) 0.83578(16)
H87A H -0.2089 0.8343 0.8147
C110A C -0.26836(15) 0.78588(15) 0.84107(16)
C111A C -0.28276(12) 0.73380(17) 0.87193(18)
H88A H -0.3167 0.7251 0.8755
C112A C -0.24752(17) 0.69452(13) 0.89751(16)
C113A C -0.19788(15) 0.70732(16) 0.89222(16)
H89A H -0.1738 0.6805 0.9097
C114A C -0.2591(3) 0.6371(3) 0.9243(3)
C115A C -0.30565(14) 0.82839(14) 0.81011(18)
C116A C -0.2957(3) 0.88616(13) 0.8004(4)
H90A H -0.3211 0.9128 0.7823
H91A H -0.3011 0.8906 0.8350
H92A H -0.2587 0.8920 0.7775
C117A C -0.2951(3) 0.8216(3) 0.7553(2)
H93A H -0.3194 0.8488 0.7361
H94A H -0.2576 0.8268 0.7338
H95A H -0.3017 0.7849 0.7610
C118A C -0.36488(13) 0.8215(3) 0.8424(3)
H96A H -0.3882 0.8500 0.8230
H97A H -0.3724 0.7856 0.8468
H98A H -0.3719 0.8246 0.8780
C122A C -0.3386(3) 0.5520(2) 1.0512(3)
C123A C -0.3732(2) 0.55336(16) 1.10837(18)
C124A C -0.4292(2) 0.56063(17) 1.1211(2)
H108A H -0.4459 0.5649 1.0947
C125A C -0.46062(13) 0.56161(18) 1.1723(3)
H109A H -0.4989 0.5666 1.1810
C126A C -0.4361(2) 0.55531(18) 1.21091(18)
H110A H -0.4576 0.5560 1.2459
C127A C -0.3802(2) 0.54804(17) 1.1982(2)
C128A C -0.34872(13) 0.54707(15) 1.1470(2)
H111A H -0.3105 0.5421 1.1383
C129A C -0.3542(3) 0.5396(3) 1.2374(3)
C130A C -0.3338(3) 0.5365(3) 1.2681(3)
C131A C -0.3068(2) 0.52890(17) 1.3060(2)
C132A C -0.33552(13) 0.52421(17) 1.3594(3)
H112A H -0.3738 0.5273 1.3706
C133A C -0.3081(2) 0.51503(18) 1.39653(17)
H113A H -0.3277 0.5118 1.4330
C134A C -0.2521(2) 0.51054(18) 1.3802(2)
H114A H -0.2334 0.5043 1.4056
C135A C -0.22344(13) 0.51522(17) 1.3268(2)
C136A C -0.2508(2) 0.52440(17) 1.28968(16)
H115A H -0.2312 0.5276 1.2532
C137A C -0.1622(3) 0.5127(3) 1.3117(4)
C138A C -0.0537(3) 0.4110(3) 1.3033(4)
C139A C -0.04468(16) 0.34984(12) 1.31134(19)
C140A C -0.05103(15) 0.31720(18) 1.36490(16)
H116A H -0.0615 0.3335 1.3923
C141A C -0.04205(15) 0.26074(17) 1.37833(12)
C142A C -0.02674(15) 0.23693(12) 1.33820(19)
H117A H -0.0206 0.1983 1.3474
C143A C -0.02039(16) 0.2696(2) 1.28463(16)
C144A C -0.02936(16) 0.32603(18) 1.27120(12)
H118A H -0.0250 0.3483 1.2346
C145A C 0.0007(3) 0.7532(4) 0.7586(3)
C146A C -0.04908(15) 0.22538(14) 1.43763(12)
C147A C -0.0981(4) 0.2495(4) 1.47459(18)
H120A H -0.0929 0.2864 1.4699
H121A H -0.1307 0.2511 1.4652
C148A C -0.0575(6) 0.1673(2) 1.4464(3)
H122A H -0.0616 0.1451 1.4844
H123A H -0.0900 0.1685 1.4372
H124A H -0.0261 0.1513 1.4233
C149A C 0.0012(3) 0.2224(5) 1.4536(3)
C153A C 0.0539(2) 0.8223(3) 0.8155(3)
C154A C 0.10608(13) 0.83647(17) 0.8105(2)
C155A C 0.13944(17) 0.79887(13) 0.83967(18)
H137A H 0.1282 0.7645 0.8636
C156A C 0.18932(16) 0.81158(15) 0.83382(19)
C157A C 0.20584(13) 0.86188(17) 0.7988(2)
H138A H 0.2399 0.8706 0.7948
C158A C 0.17248(16) 0.89948(13) 0.76962(18)
H139A H 0.1838 0.9339 0.7457
C159A C 0.12260(15) 0.88677(15) 0.77547(18)
H140A H 0.0998 0.9125 0.7555
C160A C 0.2234(3) 0.7739(3) 0.8645(3)
C161A C 0.2505(2) 0.7457(3) 0.8898(3)
C162A C 0.28401(16) 0.70733(16) 0.92069(15)
C163A C 0.27410(13) 0.65312(18) 0.94450(17)
H141A H 0.2458 0.6417 0.9393
C164A C 0.30556(16) 0.61555(13) 0.97586(16)
C165A C 0.34693(15) 0.63219(17) 0.98342(15)
H142A H 0.3684 0.6065 1.0049
C166A C 0.35684(14) 0.6864(2) 0.95961(18)
H143A H 0.3851 0.6978 0.9648
C167A C 0.32538(18) 0.72397(13) 0.92825(17)
H144A H 0.3321 0.7610 0.9120
C168A C -0.2967(3) 0.4460(3) 0.9998(3)
C169A C 0.0379(3) 0.5046(3) 1.2526(4)
C170A C 0.09903(12) 0.49772(15) 1.2358(2)
C171A C 0.12418(18) 0.49480(15) 1.27274(14)
H145A H 0.1031 0.4987 1.3067
C172A C 0.18015(18) 0.48611(15) 1.25995(17)
C173A C 0.21096(12) 0.48035(15) 1.21023(19)
H146A H 0.2492 0.4744 1.2015
C174A C 0.18581(19) 0.48328(15) 1.17329(13)
C175A C 0.1298(2) 0.49196(15) 1.18608(17)
H147A H 0.1127 0.4940 1.1608
C176A C -0.2178(3) 0.5253(2) 0.8770(3)
C177A C 0.20582(14) 0.48556(16) 1.30127(15)
C178A C 0.1911(2) 0.5407(2) 1.3109(3)
H148A H 0.2077 0.5398 1.3374
H149A H 0.2044 0.5696 1.2768
H150A H 0.1518 0.5481 1.3246
C179A C 0.1856(2) 0.4409(2) 1.35524(16)
H151A H 0.2025 0.4409 1.3812
H152A H 0.1463 0.4480 1.3693
H153A H 0.1952 0.4053 1.3498
C180A C 0.26743(14) 0.4745(3) 1.2807(2)
H154A H 0.2833 0.4740 1.3076
H155A H 0.2774 0.4391 1.2748
H156A H 0.2810 0.5032 1.2467
H37? H 0.7588 0.0319 0.0497
C57? C 0.7616(4) 0.1395(4) 0.02357(19)
H41? H 0.7854 0.1450 -0.0134
H42? H 0.7574 0.1723 0.0330
H43? H 0.7262 0.1324 0.0261
C58? C 0.8420(2) 0.1024(6) 0.0574(3)
H44? H 0.8651 0.1080 0.0201
H45? H 0.8586 0.0713 0.0820
H46? H 0.8380 0.1352 0.0667
C59? C 0.7939(5) 0.0401(3) 0.0465(3)
H47? H 0.8174 0.0467 0.0093
H48? H 0.7587 0.0326 0.0489
H49? H 0.8103 0.0088 0.0709
H63? H 0.4604 0.0974 0.0613
C88? C 0.4418(6) -0.0322(5) 0.1041(4)
H70? H 0.4448 -0.0330 0.0685
H71? H 0.4037 -0.0256 0.1237
H72? H 0.4577 -0.0674 0.1245
C89? C 0.4458(6) 0.0681(4) 0.0662(4)
H73? H 0.4481 0.0675 0.0307
H74? H 0.4647 0.0976 0.0615
H75? H 0.4078 0.0740 0.0866
C90? C 0.5307(3) 0.0040(6) 0.0636(3)
H76? H 0.5315 0.0033 0.0286
H77? H 0.5479 -0.0309 0.0829
H78? H 0.5502 0.0336 0.0579
C119? C 0.3596(4) 0.1930(4) 1.1742(7)
H99? H 0.3838 0.1647 1.1927
H100? H 0.3535 0.2254 1.1848
H101? H 0.3762 0.2026 1.1350
C120? C 0.2795(5) 0.1590(7) 1.25092(17)
H102? H 0.3035 0.1314 1.2702
H103? H 0.2449 0.1451 1.2615
H104? H 0.2734 0.1923 1.2600
C121? C 0.3166(7) 0.1186(3) 1.1768(7)
H105? H 0.3416 0.0924 1.1956
H106? H 0.3325 0.1263 1.1377
H107? H 0.2826 0.1033 1.1887
H119? H 0.1021 0.7735 0.4877
H125? H 0.0036 0.8006 0.5086
H126? H -0.0329 0.7932 0.5696
H127? H -0.0065 0.7408 0.5509
C150? C 0.0156(3) 0.7567(3) 0.5384(2)
H128? H 0.0201 0.7798 0.5007
H129? H -0.0226 0.7603 0.5591
H130? H 0.0278 0.7186 0.5402
C151? C 0.0305(4) 0.83472(14) 0.5577(2)
H131? H 0.0350 0.8568 0.5197
H132? H 0.0522 0.8469 0.5722
H133? H -0.0076 0.8389 0.5784
C152? C 0.10852(19) 0.7691(3) 0.52919(19)
H134? H 0.1125 0.7921 0.4915
H135? H 0.1206 0.7310 0.5310
H136? H 0.1304 0.7807 0.5439
loop_
_geom_bond_atom_site_label_1
_geom_bond_atom_site_label_2
_geom_bond_site_symmetry_1
_geom_bond_site_symmetry_2
Cu1 Cu2 1_555 1_555
Cu2 O2 1_555 1_555
Cu3 Cu4 1_555 1_555
Cu4 O8 1_555 1_555
Cu5 Cu6 1_555 1_555
Cu6 O4 1_555 1_555
Cu7 Cu8 1_555 1_555
Cu8 O32 1_555 1_555
Cu9 Cu10 1_555 1_555
Cu10 O28 1_555 1_555
Cu11 Cu12 1_555 1_555
Cu12 O26 1_555 1_555
O1 Cu1 1_555 1_555
O2 C1 1_555 1_555
O3 Cu5 1_555 1_555
O4 C16 1_555 1_555
O5 Cu5 1_555 1_555
O6 Cu6 1_555 1_555
O7 Cu3 1_555 1_555
O8 C24 1_555 1_555
O9 Cu3 1_555 1_555
O10 Cu4 1_555 1_555
O11 Cu1 1_555 1_555
O12 Cu2 1_555 1_555
O13 Cu1 1_555 1_555
O14 Cu2 1_555 1_555
O15 Cu3 1_555 1_555
O16 Cu4 1_555 1_555
O17 Cu3 1_555 1_555
O18 Cu4 1_555 1_555
O19 Cu5 1_555 1_555
O20 Cu6 1_555 1_555
O21 Cu1 1_555 1_555
O22 Cu2 1_555 1_555
O23 Cu5 1_555 1_555
O24 Cu6 1_555 1_555
O25 Cu11 1_555 1_555
O26 C114 1_555 1_555
O27 Cu9 1_555 1_555
O28 C107 1_555 1_555
O29 Cu9 1_555 1_555
O30 Cu10 1_555 1_555
O31 Cu7 1_555 1_555
O32 C91 1_555 1_555
O33 Cu7 1_555 1_555
O34 Cu8 1_555 1_555
O35 Cu11 1_555 1_555
O36 Cu12 1_555 1_555
O37 Cu11 1_555 1_555
O38 Cu12 1_555 1_555
O39 Cu9 1_555 1_555
O40 Cu10 1_555 1_555
O41 Cu9 1_555 1_555
O42 Cu10 1_555 1_555
O43 Cu7 1_555 1_555
O44 Cu8 1_555 1_555
O45 Cu7 1_555 1_555
O46 Cu8 1_555 1_555
O47 Cu11 1_555 1_555
O48 Cu12 1_555 1_555
O49 Cu1 1_555 1_555
O50 Cu2 1_555 1_555
O51 Cu5 1_555 1_555
O52 Cu6 1_555 1_555
O53 Cu3 1_555 1_555
O54 Cu4 1_555 1_555
O55 Cu7 1_555 1_555
O56 Cu8 1_555 1_555
O57 Cu9 1_555 1_555
O58 Cu10 1_555 1_555
O59 Cu11 1_555 1_555
O60 Cu12 1_555 1_555
C1 O1 1_555 1_555
C2 C1 1_555 1_555
C3 C2 1_555 1_555
H1 C3 1_555 1_555
C4 C3 1_555 1_555
H2 C4 1_555 1_555
C5 C4 1_555 1_555
H3 C5 1_555 1_555
C6 C5 1_555 1_555
C7 C2 1_555 1_555
H4 C7 1_555 1_555
C8 C6 1_555 1_555
C9 C8 1_555 1_555
C10 C9 1_555 1_555
C11 C10 1_555 1_555
H5 C11 1_555 1_555
C12 C11 1_555 1_555
H6 C12 1_555 1_555
C13 C12 1_555 1_555
H7 C13 1_555 1_555
C14 C13 1_555 1_555
C15 C10 1_555 1_555
H8 C15 1_555 1_555
C16 O3 1_555 1_555
C17 O5 1_555 1_555
C18 C17 1_555 1_555
C19 C18 1_555 1_555
H9 C19 1_555 1_555
C20 C19 1_555 1_555
C21 C20 1_555 1_555
H10 C21 1_555 1_555
C22 C21 1_555 1_555
C23 C18 1_555 1_555
H11 C23 1_555 1_555
C24 O7 1_555 1_555
C25 C20 1_555 1_555
C26 C25 1_555 1_555
H12 C26 1_555 1_555
H13 C26 1_555 1_555
H14 C26 1_555 1_555
C27 C25 1_555 1_555
H15 C27 1_555 1_555
H16 C27 1_555 1_555
H17 C27 1_555 1_555
C28 C25 1_555 1_555
H18 C28 1_555 1_555
H19 C28 1_555 1_555
H20 C28 1_555 1_555
C29 O9 1_555 1_555
C30 C29 1_555 1_555
C31 C30 1_555 1_555
H21 C31 1_555 1_555
C32 C31 1_555 1_555
H22 C32 1_555 1_555
C33 C32 1_555 1_555
H23 C33 1_555 1_555
C34 C33 1_555 1_555
C35 C30 1_555 1_555
H24 C35 1_555 1_555
C36 C34 1_555 1_555
C37 C36 1_555 1_555
C38 C37 1_555 1_555
C39 C38 1_555 1_555
H25 C39 1_555 1_555
C40 C39 1_555 1_555
H26 C40 1_555 1_555
C41 C40 1_555 1_555
H27 C41 1_555 1_555
C42 C41 1_555 1_555
C43 C38 1_555 1_555
H28 C43 1_555 1_555
C44 O11 1_555 1_555
C45 O13 1_555 1_555
C46 C45 1_555 1_555
C47 C46 1_555 1_555
H29 C47 1_555 1_555
C48 C47 1_555 1_555
C49 C48 1_555 1_555
H30 C49 1_555 1_555
C50 C49 1_555 1_555
C51 C46 1_555 1_555
H31 C51 1_555 1_555
C52 O15 1_555 1_555
C53 C48 1_555 1_555
C54 C53 1_555 1_555
H32 C54 1_555 1_555
H33 C54 1_555 1_555
H34 C54 1_555 1_555
C55 C53 1_555 1_555
H35 C55 1_555 1_555
H36 C55 1_555 1_555
C56 C53 1_555 1_555
H38 C56 1_555 1_555
H39 C56 1_555 1_555
H40 C56 1_555 1_555
C60 O17 1_555 1_555
C61 C60 1_555 1_555
C62 C61 1_555 1_555
H50 C62 1_555 1_555
C63 C62 1_555 1_555
H51 C63 1_555 1_555
C64 C63 1_555 1_555
H52 C64 1_555 1_555
C65 C64 1_555 1_555
C66 C61 1_555 1_555
H53 C66 1_555 1_555
C67 C65 1_555 1_555
C68 C67 1_555 1_555
C69 C68 1_555 1_555
C70 C69 1_555 1_555
H54 C70 1_555 1_555
C71 C70 1_555 1_555
H55 C71 1_555 1_555
C72 C71 1_555 1_555
H56 C72 1_555 1_555
C73 C72 1_555 1_555
C74 C69 1_555 1_555
H57 C74 1_555 1_555
C75 O19 1_555 1_555
C76 O21 1_555 1_555
C77 C76 1_555 1_555
C78 C77 1_555 1_555
H58 C78 1_555 1_555
C79 C78 1_555 1_555
C80 C79 1_555 1_555
H59 C80 1_555 1_555
C81 C80 1_555 1_555
C82 C77 1_555 1_555
H60 C82 1_555 1_555
C83 O23 1_555 1_555
C84 C81 1_555 1_555
C85 C84 1_555 1_555
H61 C85 1_555 1_555
H62 C85 1_555 1_555
C86 C84 1_555 1_555
H64 C86 1_555 1_555
H65 C86 1_555 1_555
H66 C86 1_555 1_555
C87 C84 1_555 1_555
H67 C87 1_555 1_555
H68 C87 1_555 1_555
H69 C87 1_555 1_555
C91 O31 1_555 1_555
C92 C91 1_555 1_555
C93 C92 1_555 1_555
H79 C93 1_555 1_555
C94 C93 1_555 1_555
H80 C94 1_555 1_555
C95 C94 1_555 1_555
H81 C95 1_555 1_555
C96 C95 1_555 1_555
C97 C92 1_555 1_555
H82 C97 1_555 1_555
C98 C96 1_555 1_555
C99 C98 1_555 1_555
C100 C99 1_555 1_555
C101 C100 1_555 1_555
H83 C101 1_555 1_555
C102 C101 1_555 1_555
H84 C102 1_555 1_555
C103 C102 1_555 1_555
H85 C103 1_555 1_555
C104 C103 1_555 1_555
C105 C100 1_555 1_555
H86 C105 1_555 1_555
C106 O29 1_555 1_555
C107 O27 1_555 1_555
C108 C107 1_555 1_555
C109 C108 1_555 1_555
H87 C109 1_555 1_555
C110 C109 1_555 1_555
C111 C110 1_555 1_555
H88 C111 1_555 1_555
C112 C111 1_555 1_555
C113 C108 1_555 1_555
H89 C113 1_555 1_555
C114 O25 1_555 1_555
C115 C110 1_555 1_555
C116 C115 1_555 1_555
H90 C116 1_555 1_555
H91 C116 1_555 1_555
H92 C116 1_555 1_555
C117 C115 1_555 1_555
H93 C117 1_555 1_555
H94 C117 1_555 1_555
H95 C117 1_555 1_555
C118 C115 1_555 1_555
H96 C118 1_555 1_555
H97 C118 1_555 1_555
H98 C118 1_555 1_555
C122 O35 1_555 1_555
C123 C122 1_555 1_555
C124 C123 1_555 1_555
H108 C124 1_555 1_555
C125 C124 1_555 1_555
H109 C125 1_555 1_555
C126 C125 1_555 1_555
H110 C126 1_555 1_555
C127 C126 1_555 1_555
C128 C123 1_555 1_555
H111 C128 1_555 1_555
C129 C127 1_555 1_555
C130 C129 1_555 1_555
C131 C130 1_555 1_555
C132 C131 1_555 1_555
H112 C132 1_555 1_555
C133 C132 1_555 1_555
H113 C133 1_555 1_555
C134 C133 1_555 1_555
H114 C134 1_555 1_555
C135 C134 1_555 1_555
C136 C131 1_555 1_555
H115 C136 1_555 1_555
C137 O33 1_555 1_555
C138 O43 1_555 1_555
C139 C138 1_555 1_555
C140 C139 1_555 1_555
H116 C140 1_555 1_555
C141 C140 1_555 1_555
C142 C141 1_555 1_555
H117 C142 1_555 1_555
C143 C142 1_555 1_555
C144 C139 1_555 1_555
H118 C144 1_555 1_555
C145 O41 1_555 1_555
C146 C141 1_555 1_555
C147 C146 1_555 1_555
H120 C147 1_555 1_555
H121 C147 1_555 1_555
C148 C146 1_555 1_555
H122 C148 1_555 1_555
H123 C148 1_555 1_555
H124 C148 1_555 1_555
C149 C146 1_555 1_555
C153 O39 1_555 1_555
C154 C153 1_555 1_555
C155 C154 1_555 1_555
H137 C155 1_555 1_555
C156 C155 1_555 1_555
C157 C156 1_555 1_555
H138 C157 1_555 1_555
C158 C157 1_555 1_555
H139 C158 1_555 1_555
C159 C154 1_555 1_555
H140 C159 1_555 1_555
C160 C156 1_555 1_555
C161 C160 1_555 1_555
C162 C161 1_555 1_555
C163 C162 1_555 1_555
H141 C163 1_555 1_555
C164 C163 1_555 1_555
C165 C164 1_555 1_555
H142 C165 1_555 1_555
C166 C165 1_555 1_555
H143 C166 1_555 1_555
C167 C162 1_555 1_555
H144 C167 1_555 1_555
C168 O37 1_555 1_555
C169 O45 1_555 1_555
C170 C169 1_555 1_555
C171 C170 1_555 1_555
H145 C171 1_555 1_555
C172 C171 1_555 1_555
C173 C172 1_555 1_555
H146 C173 1_555 1_555
C174 C173 1_555 1_555
C175 C170 1_555 1_555
H147 C175 1_555 1_555
C176 O47 1_555 1_555
C177 C172 1_555 1_555
C178 C177 1_555 1_555
H148 C178 1_555 1_555
H149 C178 1_555 1_555
H150 C178 1_555 1_555
C179 C177 1_555 1_555
H151 C179 1_555 1_555
H152 C179 1_555 1_555
H153 C179 1_555 1_555
C180 C177 1_555 1_555
H154 C180 1_555 1_555
H155 C180 1_555 1_555
H156 C180 1_555 1_555
Cu1A Cu2A 1_555 1_555
Cu2A O2A 1_555 1_555
Cu3A Cu4A 1_555 1_555
Cu4A O8A 1_555 1_555
Cu5A Cu6A 1_555 1_555
Cu6A O4A 1_555 1_555
Cu7A Cu8A 1_555 1_555
Cu8A O32A 1_555 1_555
Cu9A Cu10A 1_555 1_555
Cu10A O28A 1_555 1_555
Cu11A Cu12A 1_555 1_555
Cu12A O26A 1_555 1_555
O1A Cu1A 1_555 1_555
O2A C1A 1_555 1_555
O3A Cu5A 1_555 1_555
O4A C16A 1_555 1_555
O5A Cu5A 1_555 1_555
O6A Cu6A 1_555 1_555
O7A Cu3A 1_555 1_555
O8A C24A 1_555 1_555
O9A Cu3A 1_555 1_555
O10A Cu4A 1_555 1_555
O11A Cu1A 1_555 1_555
O12A Cu2A 1_555 1_555
O13A Cu1A 1_555 1_555
O14A Cu2A 1_555 1_555
O15A Cu3A 1_555 1_555
O16A Cu4A 1_555 1_555
O17A Cu3A 1_555 1_555
O18A Cu4A 1_555 1_555
O19A Cu5A 1_555 1_555
O20A Cu6A 1_555 1_555
O21A Cu1A 1_555 1_555
O22A Cu2A 1_555 1_555
O23A Cu5A 1_555 1_555
O24A Cu6A 1_555 1_555
O25A Cu11A 1_555 1_555
O26A C114A 1_555 1_555
O27A Cu9A 1_555 1_555
O28A C107A 1_555 1_555
O29A Cu9A 1_555 1_555
O30A Cu10A 1_555 1_555
O31A Cu7A 1_555 1_555
O32A C91A 1_555 1_555
O33A Cu7A 1_555 1_555
O34A Cu8A 1_555 1_555
O35A Cu11A 1_555 1_555
O36A Cu12A 1_555 1_555
O37A Cu11A 1_555 1_555
O38A Cu12A 1_555 1_555
O39A Cu9A 1_555 1_555
O40A Cu10A 1_555 1_555
O41A Cu9A 1_555 1_555
O42A Cu10A 1_555 1_555
O43A Cu7A 1_555 1_555
O44A Cu8A 1_555 1_555
O45A Cu7A 1_555 1_555
O46A Cu8A 1_555 1_555
O47A Cu11A 1_555 1_555
O48A Cu12A 1_555 1_555
O49A Cu1A 1_555 1_555
O50A Cu2A 1_555 1_555
O51A Cu5A 1_555 1_555
O52A Cu6A 1_555 1_555
O53A Cu3A 1_555 1_555
O54A Cu4A 1_555 1_555
O55A Cu7A 1_555 1_555
O56A Cu8A 1_555 1_555
O57A Cu9A 1_555 1_555
O58A Cu10A 1_555 1_555
O59A Cu11A 1_555 1_555
O60A Cu12A 1_555 1_555
C1A O1A 1_555 1_555
C2A C1A 1_555 1_555
C3A C2A 1_555 1_555
H1A C3A 1_555 1_555
C4A C3A 1_555 1_555
H2A C4A 1_555 1_555
C5A C4A 1_555 1_555
H3A C5A 1_555 1_555
C6A C5A 1_555 1_555
C7A C2A 1_555 1_555
H4A C7A 1_555 1_555
C8A C6A 1_555 1_555
C9A C8A 1_555 1_555
C10A C9A 1_555 1_555
C11A C10A 1_555 1_555
H5A C11A 1_555 1_555
C12A C11A 1_555 1_555
H6A C12A 1_555 1_555
C13A C12A 1_555 1_555
H7A C13A 1_555 1_555
C14A C13A 1_555 1_555
C15A C10A 1_555 1_555
H8A C15A 1_555 1_555
C16A O3A 1_555 1_555
C17A O5A 1_555 1_555
C18A C17A 1_555 1_555
C19A C18A 1_555 1_555
H9A C19A 1_555 1_555
C20A C19A 1_555 1_555
C21A C20A 1_555 1_555
H10A C21A 1_555 1_555
C22A C21A 1_555 1_555
C23A C18A 1_555 1_555
H11A C23A 1_555 1_555
C24A O7A 1_555 1_555
C25A C20A 1_555 1_555
C26A C25A 1_555 1_555
H12A C26A 1_555 1_555
H13A C26A 1_555 1_555
H14A C26A 1_555 1_555
C27A C25A 1_555 1_555
H15A C27A 1_555 1_555
H16A C27A 1_555 1_555
H17A C27A 1_555 1_555
C28A C25A 1_555 1_555
H18A C28A 1_555 1_555
H19A C28A 1_555 1_555
H20A C28A 1_555 1_555
C29A O9A 1_555 1_555
C30A C29A 1_555 1_555
C31A C30A 1_555 1_555
H21A C31A 1_555 1_555
C32A C31A 1_555 1_555
H22A C32A 1_555 1_555
C33A C32A 1_555 1_555
H23A C33A 1_555 1_555
C34A C33A 1_555 1_555
C35A C30A 1_555 1_555
H24A C35A 1_555 1_555
C36A C34A 1_555 1_555
C37A C36A 1_555 1_555
C38A C37A 1_555 1_555
C39A C38A 1_555 1_555
H25A C39A 1_555 1_555
C40A C39A 1_555 1_555
H26A C40A 1_555 1_555
C41A C40A 1_555 1_555
H27A C41A 1_555 1_555
C42A C41A 1_555 1_555
C43A C38A 1_555 1_555
H28A C43A 1_555 1_555
C44A O11A 1_555 1_555
C45A O13A 1_555 1_555
C46A C45A 1_555 1_555
C47A C46A 1_555 1_555
H29A C47A 1_555 1_555
C48A C47A 1_555 1_555
C49A C48A 1_555 1_555
H30A C49A 1_555 1_555
C50A C52 1_555 1_555
C51A C46A 1_555 1_555
H31A C51A 1_555 1_555
C52A C50 1_555 1_555
C53A C48A 1_555 1_555
C54A C53A 1_555 1_555
H32A C54A 1_555 1_555
H33A C54A 1_555 1_555
H34A C54A 1_555 1_555
C55A C53A 1_555 1_555
H35A C55A 1_555 1_555
H36A C55A 1_555 1_555
C56A C53A 1_555 1_555
H38A C56A 1_555 1_555
H39A C56A 1_555 1_555
H40A C56A 1_555 1_555
C60A O17A 1_555 1_555
C61A C60A 1_555 1_555
C62A C61A 1_555 1_555
H50A C62A 1_555 1_555
C63A C62A 1_555 1_555
H51A C63A 1_555 1_555
C64A C63A 1_555 1_555
H52A C64A 1_555 1_555
C65A C64A 1_555 1_555
C66A C61A 1_555 1_555
H53A C66A 1_555 1_555
C67A C65A 1_555 1_555
C68A C67A 1_555 1_555
C69A C68A 1_555 1_555
C70A C69A 1_555 1_555
H54A C70A 1_555 1_555
C71A C70A 1_555 1_555
H55A C71A 1_555 1_555
C72A C71A 1_555 1_555
H56A C72A 1_555 1_555
C73A C75 1_555 1_555
C74A C69A 1_555 1_555
H57A C74A 1_555 1_555
C75A C73 1_555 1_555
C76A O21A 1_555 1_555
C77A C76A 1_555 1_555
C78A C77A 1_555 1_555
H58A C78A 1_555 1_555
C79A C83 1_555 1_555
C80A C79A 1_555 1_555
H59A C80A 1_555 1_555
C81A C80A 1_555 1_555
C82A C77A 1_555 1_555
H60A C82A 1_555 1_555
C83A C79 1_555 1_555
C84A C81A 1_555 1_555
C85A C84A 1_555 1_555
H61A C85A 1_555 1_555
H62A C85A 1_555 1_555
C86A C84A 1_555 1_555
H64A C86A 1_555 1_555
H65A C86A 1_555 1_555
H66A C86A 1_555 1_555
C87A C84A 1_555 1_555
H67A C87A 1_555 1_555
H68A C87A 1_555 1_555
H69A C87A 1_555 1_555
C91A O31A 1_555 1_555
C92A C91A 1_555 1_555
C93A C92A 1_555 1_555
H79A C93A 1_555 1_555
C94A C93A 1_555 1_555
H80A C94A 1_555 1_555
C95A C94A 1_555 1_555
H81A C95A 1_555 1_555
C96A C95A 1_555 1_555
C97A C92A 1_555 1_555
H82A C97A 1_555 1_555
C98A C96A 1_555 1_555
C99A C98A 1_555 1_555
C100A C99A 1_555 1_555
C101A C100A 1_555 1_555
H83A C101A 1_555 1_555
C102A C101A 1_555 1_555
H84A C102A 1_555 1_555
C103A C102A 1_555 1_555
H85A C103A 1_555 1_555
C104A C103A 1_555 1_555
C105A C100A 1_555 1_555
H86A C105A 1_555 1_555
C106A O29A 1_555 1_555
C107A O27A 1_555 1_555
C108A C107A 1_555 1_555
C109A C108A 1_555 1_555
H87A C109A 1_555 1_555
C110A C109A 1_555 1_555
C111A C110A 1_555 1_555
H88A C111A 1_555 1_555
C112A C111A 1_555 1_555
C113A C108A 1_555 1_555
H89A C113A 1_555 1_555
C114A O25A 1_555 1_555
C115A C110A 1_555 1_555
C116A C115A 1_555 1_555
H90A C116A 1_555 1_555
H91A C116A 1_555 1_555
H92A C116A 1_555 1_555
C117A C115A 1_555 1_555
H93A C117A 1_555 1_555
H94A C117A 1_555 1_555
H95A C117A 1_555 1_555
C118A C115A 1_555 1_555
H96A C118A 1_555 1_555
H97A C118A 1_555 1_555
H98A C118A 1_555 1_555
C122A O35A 1_555 1_555
C123A C122A 1_555 1_555
C124A C123A 1_555 1_555
H108A C124A 1_555 1_555
C125A C124A 1_555 1_555
H109A C125A 1_555 1_555
C126A C125A 1_555 1_555
H110A C126A 1_555 1_555
C127A C126A 1_555 1_555
C128A C123A 1_555 1_555
H111A C128A 1_555 1_555
C129A C127A 1_555 1_555
C130A C129A 1_555 1_555
C131A C130A 1_555 1_555
C132A C131A 1_555 1_555
H112A C132A 1_555 1_555
C133A C132A 1_555 1_555
H113A C133A 1_555 1_555
C134A C133A 1_555 1_555
H114A C134A 1_555 1_555
C135A C134A 1_555 1_555
C136A C131A 1_555 1_555
H115A C136A 1_555 1_555
C137A O33A 1_555 1_555
C138A O43A 1_555 1_555
C139A C138A 1_555 1_555
C140A C139A 1_555 1_555
H116A C140A 1_555 1_555
C141A C140A 1_555 1_555
C142A C141A 1_555 1_555
H117A C142A 1_555 1_555
C143A C145 1_555 1_555
C144A C139A 1_555 1_555
H118A C144A 1_555 1_555
C145A C143 1_555 1_555
C146A C141A 1_555 1_555
C147A C146A 1_555 1_555
H120A C147A 1_555 1_555
H121A C147A 1_555 1_555
C148A C146A 1_555 1_555
H122A C148A 1_555 1_555
H123A C148A 1_555 1_555
H124A C148A 1_555 1_555
C149A C146A 1_555 1_555
C153A O39A 1_555 1_555
C154A C153A 1_555 1_555
C155A C154A 1_555 1_555
H137A C155A 1_555 1_555
C156A C155A 1_555 1_555
C157A C156A 1_555 1_555
H138A C157A 1_555 1_555
C158A C157A 1_555 1_555
H139A C158A 1_555 1_555
C159A C154A 1_555 1_555
H140A C159A 1_555 1_555
C160A C156A 1_555 1_555
C161A C160A 1_555 1_555
C162A C161A 1_555 1_555
C163A C162A 1_555 1_555
H141A C163A 1_555 1_555
C164A C168 1_555 1_555
C165A C164A 1_555 1_555
H142A C165A 1_555 1_555
C166A C165A 1_555 1_555
H143A C166A 1_555 1_555
C167A C162A 1_555 1_555
H144A C167A 1_555 1_555
C168A C164 1_555 1_555
C169A O45A 1_555 1_555
C170A C169A 1_555 1_555
C171A C170A 1_555 1_555
H145A C171A 1_555 1_555
C172A C171A 1_555 1_555
C173A C172A 1_555 1_555
H146A C173A 1_555 1_555
C174A C176 1_555 1_555
C175A C170A 1_555 1_555
H147A C175A 1_555 1_555
C176A C174 1_555 1_555
C177A C172A 1_555 1_555
C178A C177A 1_555 1_555
H148A C178A 1_555 1_555
H149A C178A 1_555 1_555
H150A C178A 1_555 1_555
C179A C177A 1_555 1_555
H151A C179A 1_555 1_555
H152A C179A 1_555 1_555
H153A C179A 1_555 1_555
C180A C177A 1_555 1_555
H154A C180A 1_555 1_555
H155A C180A 1_555 1_555
H156A C180A 1_555 1_555
O6 C17 1_555 1_555
O10 C29 1_555 1_555
O12 C44 1_555 1_555
O14 C45 1_555 1_555
O16 C52 1_555 1_555
O18 C60 1_555 1_555
O20 C75 1_555 1_555
O22 C76 1_555 1_555
O24 C83 1_555 1_555
O30 C106 1_555 1_555
O34 C137 1_555 1_555
O36 C122 1_555 1_555
O38 C168 1_555 1_555
O40 C153 1_555 1_555
O42 C145 1_555 1_555
O44 C138 1_555 1_555
O46 C169 1_555 1_555
O48 C176 1_555 1_555
C6 C7 1_555 1_555
C14 C15 1_555 1_555
C14 C16 1_555 1_555
C22 C23 1_555 1_555
C22 C24 1_555 1_555
C34 C35 1_555 1_555
C42 C43 1_555 1_555
C42 C44 1_555 1_555
C50 C51 1_555 1_555
C65 C66 1_555 1_555
C73 C74 1_555 1_555
C81 C82 1_555 1_555
C96 C97 1_555 1_555
C104 C105 1_555 1_555
C104 C106 1_555 1_555
C112 C113 1_555 1_555
C112 C114 1_555 1_555
C127 C128 1_555 1_555
C135 C136 1_555 1_555
C135 C137 1_555 1_555
C143 C144 1_555 1_555
C158 C159 1_555 1_555
C166 C167 1_555 1_555
C174 C175 1_555 1_555
O6A C17A 1_555 1_555
O10A C29A 1_555 1_555
O12A C44A 1_555 1_555
O14A C45A 1_555 1_555
O15A C52A 1_555 1_555
O16A C52A 1_555 1_555
O18A C60A 1_555 1_555
O19A C75A 1_555 1_555
O20A C75A 1_555 1_555
O22A C76A 1_555 1_555
O23A C83A 1_555 1_555
O24A C83A 1_555 1_555
O30A C106A 1_555 1_555
O34A C137A 1_555 1_555
O36A C122A 1_555 1_555
O37A C168A 1_555 1_555
O38A C168A 1_555 1_555
O40A C153A 1_555 1_555
O41A C145A 1_555 1_555
O42A C145A 1_555 1_555
O44A C138A 1_555 1_555
O46A C169A 1_555 1_555
O47A C176A 1_555 1_555
O48A C176A 1_555 1_555
C6A C7A 1_555 1_555
C14A C15A 1_555 1_555
C14A C16A 1_555 1_555
C22A C23A 1_555 1_555
C22A C24A 1_555 1_555
C34A C35A 1_555 1_555
C42A C43A 1_555 1_555
C42A C44A 1_555 1_555
C49A C50A 1_555 1_555
C50A C51A 1_555 1_555
C65A C66A 1_555 1_555
C72A C73A 1_555 1_555
C73A C74A 1_555 1_555
C78A C79A 1_555 1_555
C81A C82A 1_555 1_555
C96A C97A 1_555 1_555
C104A C105A 1_555 1_555
C104A C106A 1_555 1_555
C112A C113A 1_555 1_555
C112A C114A 1_555 1_555
C127A C128A 1_555 1_555
C135A C136A 1_555 1_555
C135A C137A 1_555 1_555
C142A C143A 1_555 1_555
C143A C144A 1_555 1_555
C158A C159A 1_555 1_555
C163A C164A 1_555 1_555
C166A C167A 1_555 1_555
C173A C174A 1_555 1_555
C174A C175A 1_555 1_555

#END
