# generated using pymatgen
data_Cd32H1176.0C1328.0N232Cl50O200.2
_symmetry_space_group_name_H-M   'P 1'
_cell_length_a   25.90700000
_cell_length_b   41.97700000
_cell_length_c   42.06040000
_cell_angle_alpha   90.46400000
_cell_angle_beta   90.00000000
_cell_angle_gamma   90.00000000
_symmetry_Int_Tables_number   1
_chemical_formula_structural   Cd32H1176.0C1328.0N232Cl50O200.2
_chemical_formula_sum   'Cd32 H1176.0 C1328.0 N232 Cl50 O200.2'
_cell_volume   45739.10683270
_cell_formula_units_Z   1
loop_
 _symmetry_equiv_pos_site_id
 _symmetry_equiv_pos_as_xyz
  1  'x, y, z'
loop_
 _atom_site_type_symbol
 _atom_site_label
 _atom_site_symmetry_multiplicity
 _atom_site_fract_x
 _atom_site_fract_y
 _atom_site_fract_z
 _atom_site_occupancy
  Cd  Cd1  1  0.283060  0.144980  0.213610  1.0
  Cd  Cd2  1  0.783060  0.355020  0.786390  1.0
  Cd  Cd3  1  0.716940  0.855020  0.786390  1.0
  Cd  Cd4  1  0.216940  0.644980  0.213610  1.0
  Cd  Cd5  1  0.152430  0.015630  0.396250  1.0
  Cd  Cd6  1  0.652430  0.484370  0.603750  1.0
  Cd  Cd7  1  0.847570  0.984370  0.603750  1.0
  Cd  Cd8  1  0.347570  0.515630  0.396250  1.0
  Cd  Cd9  1  0.111450  0.958230  0.112580  1.0
  Cd  Cd10  1  0.611450  0.541770  0.887420  1.0
  Cd  Cd11  1  0.888550  0.041770  0.887420  1.0
  Cd  Cd12  1  0.388550  0.458230  0.112580  1.0
  Cd  Cd13  1  0.285520  0.823430  0.280530  1.0
  Cd  Cd14  1  0.785520  0.676570  0.719470  1.0
  Cd  Cd15  1  0.714480  0.176570  0.719470  1.0
  Cd  Cd16  1  0.214480  0.323430  0.280530  1.0
  Cd  Cd17  1  0.450350  0.967710  0.089220  1.0
  Cd  Cd18  1  0.950350  0.532290  0.910780  1.0
  Cd  Cd19  1  0.549650  0.032290  0.910780  1.0
  Cd  Cd20  1  0.049650  0.467710  0.089220  1.0
  Cd  Cd21  1  0.475570  0.035530  0.406320  0.4905
  Cd  Cd22  1  0.975570  0.464470  0.593680  0.4905
  Cd  Cd23  1  0.524430  0.964470  0.593680  0.4905
  Cd  Cd24  1  0.024430  0.535530  0.406320  0.4905
  Cd  Cd25  1  0.605870  0.159470  0.215620  0.4905
  Cd  Cd26  1  0.105870  0.340530  0.784380  0.4905
  Cd  Cd27  1  0.394130  0.840530  0.784380  0.4905
  Cd  Cd28  1  0.894130  0.659470  0.215620  0.4905
  Cd  Cd29  1  0.597670  0.855040  0.270400  0.4905
  Cd  Cd30  1  0.097670  0.644960  0.729600  0.4905
  Cd  Cd31  1  0.402330  0.144960  0.729600  0.4905
  Cd  Cd32  1  0.902330  0.355040  0.270400  0.4905
  Cd  Cd33  1  0.472000  0.018700  0.410360  0.5095
  Cd  Cd34  1  0.972000  0.481300  0.589640  0.5095
  Cd  Cd35  1  0.528000  0.981300  0.589640  0.5095
  Cd  Cd36  1  0.028000  0.518700  0.410360  0.5095
  Cd  Cd37  1  0.605500  0.137890  0.221700  0.5095
  Cd  Cd38  1  0.105500  0.362110  0.778300  0.5095
  Cd  Cd39  1  0.394500  0.862110  0.778300  0.5095
  Cd  Cd40  1  0.894500  0.637890  0.221700  0.5095
  Cd  Cd41  1  0.604400  0.836680  0.274440  0.5095
  Cd  Cd42  1  0.104400  0.663320  0.725560  0.5095
  Cd  Cd43  1  0.395600  0.163320  0.725560  0.5095
  Cd  Cd44  1  0.895600  0.336680  0.274440  0.5095
  H  H45  1  0.307900  0.215800  0.192100  1.0
  H  H46  1  0.807900  0.284200  0.807900  1.0
  H  H47  1  0.692100  0.784200  0.807900  1.0
  H  H48  1  0.192100  0.715800  0.192100  1.0
  H  H49  1  0.358200  0.260200  0.179500  1.0
  H  H50  1  0.858200  0.239800  0.820500  1.0
  H  H51  1  0.641800  0.739800  0.820500  1.0
  H  H52  1  0.141800  0.760200  0.179500  1.0
  H  H53  1  0.388400  0.274600  0.273200  1.0
  H  H54  1  0.888400  0.225400  0.726800  1.0
  H  H55  1  0.611600  0.725400  0.726800  1.0
  H  H56  1  0.111600  0.774600  0.273200  1.0
  H  H57  1  0.338000  0.230200  0.285800  1.0
  H  H58  1  0.838000  0.269800  0.714200  1.0
  H  H59  1  0.662000  0.769800  0.714200  1.0
  H  H60  1  0.162000  0.730200  0.285800  1.0
  H  H61  1  0.400600  0.318800  0.231400  1.0
  H  H62  1  0.900600  0.181200  0.768600  1.0
  H  H63  1  0.599400  0.681200  0.768600  1.0
  H  H64  1  0.099400  0.818800  0.231400  1.0
  H  H65  1  0.402900  0.307500  0.195000  1.0
  H  H66  1  0.902900  0.192500  0.805000  1.0
  H  H67  1  0.597100  0.692500  0.805000  1.0
  H  H68  1  0.097100  0.807500  0.195000  1.0
  H  H69  1  0.446700  0.296400  0.219300  1.0
  H  H70  1  0.946700  0.203600  0.780700  1.0
  H  H71  1  0.553300  0.703600  0.780700  1.0
  H  H72  1  0.053300  0.796400  0.219300  1.0
  H  H73  1  0.270300  0.204000  0.289200  1.0
  H  H74  1  0.770300  0.296000  0.710800  1.0
  H  H75  1  0.729700  0.796000  0.710800  1.0
  H  H76  1  0.229700  0.704000  0.289200  1.0
  H  H77  1  0.226700  0.170900  0.328600  1.0
  H  H78  1  0.726700  0.329100  0.671400  1.0
  H  H79  1  0.773300  0.829100  0.671400  1.0
  H  H80  1  0.273300  0.670900  0.328600  1.0
  H  H81  1  0.180500  0.125500  0.340700  1.0
  H  H82  1  0.680500  0.374500  0.659300  1.0
  H  H83  1  0.819500  0.874500  0.659300  1.0
  H  H84  1  0.319500  0.625500  0.340700  1.0
  H  H85  1  0.196600  0.095100  0.250800  1.0
  H  H86  1  0.696600  0.404900  0.749200  1.0
  H  H87  1  0.803400  0.904900  0.749200  1.0
  H  H88  1  0.303400  0.595100  0.250800  1.0
  H  H89  1  0.188100  0.072700  0.349700  1.0
  H  H90  1  0.688100  0.427300  0.650300  1.0
  H  H91  1  0.811900  0.927300  0.650300  1.0
  H  H92  1  0.311900  0.572700  0.349700  1.0
  H  H93  1  0.121800  0.064400  0.263600  1.0
  H  H94  1  0.621800  0.435600  0.736400  1.0
  H  H95  1  0.878200  0.935600  0.736400  1.0
  H  H96  1  0.378200  0.564400  0.263600  1.0
  H  H97  1  0.091900  0.014700  0.278300  1.0
  H  H98  1  0.591900  0.485300  0.721700  1.0
  H  H99  1  0.908100  0.985300  0.721700  1.0
  H  H100  1  0.408100  0.514700  0.278300  1.0
  H  H101  1  0.089000  0.970600  0.319200  1.0
  H  H102  1  0.589000  0.529400  0.680800  1.0
  H  H103  1  0.911000  0.029400  0.680800  1.0
  H  H104  1  0.411000  0.470600  0.319200  1.0
  H  H105  1  0.055600  0.960500  0.413300  1.0
  H  H106  1  0.555600  0.539500  0.586700  1.0
  H  H107  1  0.944400  0.039500  0.586700  1.0
  H  H108  1  0.444400  0.460500  0.413300  1.0
  H  H109  1  0.046200  0.909600  0.434800  1.0
  H  H110  1  0.546200  0.590400  0.565200  1.0
  H  H111  1  0.953800  0.090400  0.565200  1.0
  H  H112  1  0.453800  0.409600  0.434800  1.0
  H  H113  1  0.122200  0.871600  0.359200  1.0
  H  H114  1  0.622200  0.628400  0.640800  1.0
  H  H115  1  0.877800  0.128400  0.640800  1.0
  H  H116  1  0.377800  0.371600  0.359200  1.0
  H  H117  1  0.131700  0.922400  0.337600  1.0
  H  H118  1  0.631700  0.577600  0.662400  1.0
  H  H119  1  0.868300  0.077600  0.662400  1.0
  H  H120  1  0.368300  0.422400  0.337600  1.0
  H  H121  1  0.083000  0.852800  0.435600  1.0
  H  H122  1  0.583000  0.647200  0.564400  1.0
  H  H123  1  0.917000  0.147200  0.564400  1.0
  H  H124  1  0.417000  0.352800  0.435600  1.0
  H  H125  1  0.099500  0.837400  0.402200  1.0
  H  H126  1  0.599500  0.662600  0.597800  1.0
  H  H127  1  0.900500  0.162600  0.597800  1.0
  H  H128  1  0.400500  0.337400  0.402200  1.0
  H  H129  1  0.040100  0.845300  0.409200  1.0
  H  H130  1  0.540100  0.654700  0.590800  1.0
  H  H131  1  0.959900  0.154700  0.590800  1.0
  H  H132  1  0.459900  0.345300  0.409200  1.0
  H  H133  1  0.405600  0.163300  0.248200  1.0
  H  H134  1  0.905600  0.336700  0.751800  1.0
  H  H135  1  0.594400  0.836700  0.751800  1.0
  H  H136  1  0.094400  0.663300  0.248200  1.0
  H  H137  1  0.435000  0.193200  0.291600  1.0
  H  H138  1  0.935000  0.306800  0.708400  1.0
  H  H139  1  0.565000  0.806800  0.708400  1.0
  H  H140  1  0.065000  0.693200  0.291600  1.0
  H  H141  1  0.360100  0.133800  0.351700  1.0
  H  H142  1  0.860100  0.366200  0.648300  1.0
  H  H143  1  0.639900  0.866200  0.648300  1.0
  H  H144  1  0.139900  0.633800  0.351700  1.0
  H  H145  1  0.330700  0.103800  0.308300  1.0
  H  H146  1  0.830700  0.396200  0.691700  1.0
  H  H147  1  0.669300  0.896200  0.691700  1.0
  H  H148  1  0.169300  0.603800  0.308300  1.0
  H  H149  1  0.388500  0.193700  0.366700  1.0
  H  H150  1  0.888500  0.306300  0.633300  1.0
  H  H151  1  0.611500  0.806300  0.633300  1.0
  H  H152  1  0.111500  0.693700  0.366700  1.0
  H  H153  1  0.437400  0.205300  0.346600  1.0
  H  H154  1  0.937400  0.294700  0.653400  1.0
  H  H155  1  0.562600  0.794700  0.653400  1.0
  H  H156  1  0.062600  0.705300  0.346600  1.0
  H  H157  1  0.441200  0.173800  0.367700  1.0
  H  H158  1  0.941200  0.326200  0.632300  1.0
  H  H159  1  0.558800  0.826200  0.632300  1.0
  H  H160  1  0.058800  0.673800  0.367700  1.0
  H  H161  1  0.349400  0.072900  0.261300  1.0
  H  H162  1  0.849400  0.427100  0.738700  1.0
  H  H163  1  0.650600  0.927100  0.738700  1.0
  H  H164  1  0.150600  0.572900  0.261300  1.0
  H  H165  1  0.322700  0.025300  0.229400  1.0
  H  H166  1  0.822700  0.474700  0.770600  1.0
  H  H167  1  0.677300  0.974700  0.770600  1.0
  H  H168  1  0.177300  0.525300  0.229400  1.0
  H  H169  1  0.279900  0.003700  0.186000  1.0
  H  H170  1  0.779900  0.496300  0.814000  1.0
  H  H171  1  0.720100  0.996300  0.814000  1.0
  H  H172  1  0.220100  0.503700  0.186000  1.0
  H  H173  1  0.243600  0.092400  0.158400  1.0
  H  H174  1  0.743600  0.407600  0.841600  1.0
  H  H175  1  0.756400  0.907600  0.841600  1.0
  H  H176  1  0.256400  0.592400  0.158400  1.0
  H  H177  1  0.202600  0.994800  0.155800  1.0
  H  H178  1  0.702600  0.505200  0.844200  1.0
  H  H179  1  0.797400  0.005200  0.844200  1.0
  H  H180  1  0.297400  0.494800  0.155800  1.0
  H  H181  1  0.258500  0.069000  0.107600  1.0
  H  H182  1  0.758500  0.431000  0.892400  1.0
  H  H183  1  0.741500  0.931000  0.892400  1.0
  H  H184  1  0.241500  0.569000  0.107600  1.0
  H  H185  1  0.209600  0.053200  0.063100  1.0
  H  H186  1  0.709600  0.446800  0.936900  1.0
  H  H187  1  0.790400  0.946800  0.936900  1.0
  H  H188  1  0.290400  0.553200  0.063100  1.0
  H  H189  1  0.145700  0.014900  0.039600  1.0
  H  H190  1  0.645700  0.485100  0.960400  1.0
  H  H191  1  0.854300  0.985100  0.960400  1.0
  H  H192  1  0.354300  0.514900  0.039600  1.0
  H  H193  1  0.131100  0.970000  0.004700  1.0
  H  H194  1  0.631100  0.530000  0.995300  1.0
  H  H195  1  0.868900  0.030000  0.995300  1.0
  H  H196  1  0.368900  0.470000  0.004700  1.0
  H  H197  1  0.077100  0.951400  0.964100  1.0
  H  H198  1  0.577100  0.548600  0.035900  1.0
  H  H199  1  0.922900  0.048600  0.035900  1.0
  H  H200  1  0.422900  0.451400  0.964100  1.0
  H  H201  1  0.954100  0.957700  0.023500  1.0
  H  H202  1  0.454100  0.542300  0.976500  1.0
  H  H203  1  0.045900  0.042300  0.976500  1.0
  H  H204  1  0.545900  0.457700  0.023500  1.0
  H  H205  1  0.008000  0.976300  0.064100  1.0
  H  H206  1  0.508000  0.523700  0.935900  1.0
  H  H207  1  0.992000  0.023700  0.935900  1.0
  H  H208  1  0.492000  0.476300  0.064100  1.0
  H  H209  1  0.990900  0.920500  0.954100  1.0
  H  H210  1  0.490900  0.579500  0.045900  1.0
  H  H211  1  0.009100  0.079500  0.045900  1.0
  H  H212  1  0.509100  0.420500  0.954100  1.0
  H  H213  1  0.970800  0.955800  0.947100  1.0
  H  H214  1  0.470800  0.544200  0.052900  1.0
  H  H215  1  0.029200  0.044200  0.052900  1.0
  H  H216  1  0.529200  0.455800  0.947100  1.0
  H  H217  1  0.941500  0.934100  0.972500  1.0
  H  H218  1  0.441500  0.565900  0.027500  1.0
  H  H219  1  0.058500  0.065900  0.027500  1.0
  H  H220  1  0.558500  0.434100  0.972500  1.0
  H  H221  1  0.166800  0.204900  0.147500  1.0
  H  H222  1  0.666800  0.295100  0.852500  1.0
  H  H223  1  0.833200  0.795100  0.852500  1.0
  H  H224  1  0.333200  0.704900  0.147500  1.0
  H  H225  1  0.076600  0.202700  0.146400  1.0
  H  H226  1  0.576600  0.297300  0.853600  1.0
  H  H227  1  0.923400  0.797300  0.853600  1.0
  H  H228  1  0.423400  0.702700  0.146400  1.0
  H  H229  1  0.080100  0.119400  0.194500  1.0
  H  H230  1  0.580100  0.380600  0.805500  1.0
  H  H231  1  0.919900  0.880600  0.805500  1.0
  H  H232  1  0.419900  0.619400  0.194500  1.0
  H  H233  1  0.170300  0.121400  0.195600  1.0
  H  H234  1  0.670300  0.378600  0.804400  1.0
  H  H235  1  0.829700  0.878600  0.804400  1.0
  H  H236  1  0.329700  0.621400  0.195600  1.0
  H  H237  1  0.998000  0.145400  0.185900  1.0
  H  H238  1  0.498000  0.354600  0.814100  1.0
  H  H239  1  0.002000  0.854600  0.814100  1.0
  H  H240  1  0.502000  0.645400  0.185900  1.0
  H  H241  1  0.000000  0.150100  0.148200  1.0
  H  H242  1  0.500000  0.349900  0.851800  1.0
  H  H243  1  0.000000  0.849900  0.851800  1.0
  H  H244  1  0.500000  0.650100  0.148200  1.0
  H  H245  1  0.996100  0.180500  0.171400  1.0
  H  H246  1  0.496100  0.319500  0.828600  1.0
  H  H247  1  0.003900  0.819500  0.828600  1.0
  H  H248  1  0.503900  0.680500  0.171400  1.0
  H  H249  1  0.237900  0.180700  0.129800  1.0
  H  H250  1  0.737900  0.319300  0.870200  1.0
  H  H251  1  0.762100  0.819300  0.870200  1.0
  H  H252  1  0.262100  0.680700  0.129800  1.0
  H  H253  1  0.324200  0.192500  0.102300  1.0
  H  H254  1  0.824200  0.307500  0.897700  1.0
  H  H255  1  0.675800  0.807500  0.897700  1.0
  H  H256  1  0.175800  0.692500  0.102300  1.0
  H  H257  1  0.414100  0.187200  0.102300  1.0
  H  H258  1  0.914100  0.312800  0.897700  1.0
  H  H259  1  0.585900  0.812800  0.897700  1.0
  H  H260  1  0.085900  0.687200  0.102300  1.0
  H  H261  1  0.407500  0.144900  0.188500  1.0
  H  H262  1  0.907500  0.355100  0.811500  1.0
  H  H263  1  0.592500  0.855100  0.811500  1.0
  H  H264  1  0.092500  0.644900  0.188500  1.0
  H  H265  1  0.514000  0.115100  0.438200  1.0
  H  H266  1  0.014000  0.384900  0.561800  1.0
  H  H267  1  0.486000  0.884900  0.561800  1.0
  H  H268  1  0.986000  0.615100  0.438200  1.0
  H  H269  1  0.426900  0.143000  0.442100  1.0
  H  H270  1  0.926900  0.357000  0.557900  1.0
  H  H271  1  0.573100  0.857000  0.557900  1.0
  H  H272  1  0.073100  0.643000  0.442100  1.0
  H  H273  1  0.336900  0.141400  0.434500  1.0
  H  H274  1  0.836900  0.358600  0.565500  1.0
  H  H275  1  0.663100  0.858600  0.565500  1.0
  H  H276  1  0.163100  0.641400  0.434500  1.0
  H  H277  1  0.348800  0.051400  0.404300  1.0
  H  H278  1  0.848800  0.448600  0.595700  1.0
  H  H279  1  0.651200  0.948600  0.595700  1.0
  H  H280  1  0.151200  0.551400  0.404300  1.0
  H  H281  1  0.271000  0.045800  0.410900  1.0
  H  H282  1  0.771000  0.454200  0.589100  1.0
  H  H283  1  0.729000  0.954200  0.589100  1.0
  H  H284  1  0.229000  0.545800  0.410900  1.0
  H  H285  1  0.263100  0.142000  0.414400  1.0
  H  H286  1  0.763100  0.358000  0.585600  1.0
  H  H287  1  0.736900  0.858000  0.585600  1.0
  H  H288  1  0.236900  0.642000  0.414400  1.0
  H  H289  1  0.171400  0.136700  0.413700  1.0
  H  H290  1  0.671400  0.363300  0.586300  1.0
  H  H291  1  0.828600  0.863300  0.586300  1.0
  H  H292  1  0.328600  0.636700  0.413700  1.0
  H  H293  1  0.095300  0.103900  0.416000  1.0
  H  H294  1  0.595300  0.396100  0.584000  1.0
  H  H295  1  0.904700  0.896100  0.584000  1.0
  H  H296  1  0.404700  0.603900  0.416000  1.0
  H  H297  1  0.033700  0.022200  0.375300  1.0
  H  H298  1  0.533700  0.477800  0.624700  1.0
  H  H299  1  0.966300  0.977800  0.624700  1.0
  H  H300  1  0.466300  0.522200  0.375300  1.0
  H  H301  1  0.943700  0.019100  0.375500  1.0
  H  H302  1  0.443700  0.480900  0.624500  1.0
  H  H303  1  0.056300  0.980900  0.624500  1.0
  H  H304  1  0.556300  0.519100  0.375500  1.0
  H  H305  1  0.937800  0.086800  0.444800  1.0
  H  H306  1  0.437800  0.413200  0.555200  1.0
  H  H307  1  0.062200  0.913200  0.555200  1.0
  H  H308  1  0.562200  0.586800  0.444800  1.0
  H  H309  1  0.027900  0.090000  0.444700  1.0
  H  H310  1  0.527900  0.410000  0.555300  1.0
  H  H311  1  0.972100  0.910000  0.555300  1.0
  H  H312  1  0.472100  0.590000  0.444700  1.0
  H  H313  1  0.862500  0.029600  0.401400  1.0
  H  H314  1  0.362500  0.470400  0.598600  1.0
  H  H315  1  0.137500  0.970400  0.598600  1.0
  H  H316  1  0.637500  0.529600  0.401400  1.0
  H  H317  1  0.857900  0.067500  0.398900  1.0
  H  H318  1  0.357900  0.432500  0.601100  1.0
  H  H319  1  0.142100  0.932500  0.601100  1.0
  H  H320  1  0.642100  0.567500  0.398900  1.0
  H  H321  1  0.861000  0.051000  0.433000  1.0
  H  H322  1  0.361000  0.449000  0.567000  1.0
  H  H323  1  0.139000  0.949000  0.567000  1.0
  H  H324  1  0.639000  0.551000  0.433000  1.0
  H  H325  1  0.145100  0.044800  0.468000  1.0
  H  H326  1  0.645100  0.455200  0.532000  1.0
  H  H327  1  0.854900  0.955200  0.532000  1.0
  H  H328  1  0.354900  0.544800  0.468000  1.0
  H  H329  1  0.096000  0.062900  0.511100  1.0
  H  H330  1  0.596000  0.437100  0.488900  1.0
  H  H331  1  0.904000  0.937100  0.488900  1.0
  H  H332  1  0.404000  0.562900  0.511100  1.0
  H  H333  1  0.041600  0.973300  0.524400  1.0
  H  H334  1  0.541600  0.526700  0.475600  1.0
  H  H335  1  0.958400  0.026700  0.475600  1.0
  H  H336  1  0.458400  0.473300  0.524400  1.0
  H  H337  1  0.090700  0.955200  0.481300  1.0
  H  H338  1  0.590700  0.544800  0.518700  1.0
  H  H339  1  0.909300  0.044800  0.518700  1.0
  H  H340  1  0.409300  0.455200  0.481300  1.0
  H  H341  1  0.052600  0.043100  0.565000  1.0
  H  H342  1  0.552600  0.456900  0.435000  1.0
  H  H343  1  0.947400  0.956900  0.435000  1.0
  H  H344  1  0.447400  0.543100  0.565000  1.0
  H  H345  1  0.014000  0.013800  0.559900  1.0
  H  H346  1  0.514000  0.486200  0.440100  1.0
  H  H347  1  0.986000  0.986200  0.440100  1.0
  H  H348  1  0.486000  0.513800  0.559900  1.0
  H  H349  1  0.004300  0.046500  0.541600  1.0
  H  H350  1  0.504300  0.453500  0.458400  1.0
  H  H351  1  0.995700  0.953500  0.458400  1.0
  H  H352  1  0.495700  0.546500  0.541600  1.0
  H  H353  1  0.171700  0.949200  0.462400  1.0
  H  H354  1  0.671700  0.550800  0.537600  1.0
  H  H355  1  0.828300  0.050800  0.537600  1.0
  H  H356  1  0.328300  0.449200  0.462400  1.0
  H  H357  1  0.216500  0.905500  0.431900  1.0
  H  H358  1  0.716500  0.594500  0.568100  1.0
  H  H359  1  0.783500  0.094500  0.568100  1.0
  H  H360  1  0.283500  0.405500  0.431900  1.0
  H  H361  1  0.257800  0.888400  0.386700  1.0
  H  H362  1  0.757800  0.611600  0.613300  1.0
  H  H363  1  0.742200  0.111600  0.613300  1.0
  H  H364  1  0.242200  0.388400  0.386700  1.0
  H  H365  1  0.240300  0.976600  0.350000  1.0
  H  H366  1  0.740300  0.523400  0.650000  1.0
  H  H367  1  0.759700  0.023400  0.650000  1.0
  H  H368  1  0.259700  0.476600  0.350000  1.0
  H  H369  1  0.247800  0.875200  0.334700  1.0
  H  H370  1  0.747800  0.624800  0.665300  1.0
  H  H371  1  0.752200  0.124800  0.665300  1.0
  H  H372  1  0.252200  0.375200  0.334700  1.0
  H  H373  1  0.311100  0.961400  0.319900  1.0
  H  H374  1  0.811100  0.538600  0.680100  1.0
  H  H375  1  0.688900  0.038600  0.680100  1.0
  H  H376  1  0.188900  0.461400  0.319900  1.0
  H  H377  1  0.344500  0.941800  0.271300  1.0
  H  H378  1  0.844500  0.558200  0.728700  1.0
  H  H379  1  0.655500  0.058200  0.728700  1.0
  H  H380  1  0.155500  0.441800  0.271300  1.0
  H  H381  1  0.358200  0.895500  0.234900  1.0
  H  H382  1  0.858200  0.604500  0.765100  1.0
  H  H383  1  0.641800  0.104500  0.765100  1.0
  H  H384  1  0.141800  0.395500  0.234900  1.0
  H  H385  1  0.329700  0.867800  0.186800  1.0
  H  H386  1  0.829700  0.632200  0.813200  1.0
  H  H387  1  0.670300  0.132200  0.813200  1.0
  H  H388  1  0.170300  0.367800  0.186800  1.0
  H  H389  1  0.353200  0.841100  0.140600  1.0
  H  H390  1  0.853200  0.658900  0.859400  1.0
  H  H391  1  0.646800  0.158900  0.859400  1.0
  H  H392  1  0.146800  0.341100  0.140600  1.0
  H  H393  1  0.423200  0.773500  0.193900  1.0
  H  H394  1  0.923200  0.726500  0.806100  1.0
  H  H395  1  0.576800  0.226500  0.806100  1.0
  H  H396  1  0.076800  0.273500  0.193900  1.0
  H  H397  1  0.401300  0.800800  0.239200  1.0
  H  H398  1  0.901300  0.699200  0.760800  1.0
  H  H399  1  0.598700  0.199200  0.760800  1.0
  H  H400  1  0.098700  0.300800  0.239200  1.0
  H  H401  1  0.433000  0.772600  0.135000  1.0
  H  H402  1  0.933000  0.727400  0.865000  1.0
  H  H403  1  0.567000  0.227400  0.865000  1.0
  H  H404  1  0.067000  0.272600  0.135000  1.0
  H  H405  1  0.409600  0.800900  0.114300  1.0
  H  H406  1  0.909600  0.699100  0.885700  1.0
  H  H407  1  0.590400  0.199100  0.885700  1.0
  H  H408  1  0.090400  0.300900  0.114300  1.0
  H  H409  1  0.373100  0.772400  0.125500  1.0
  H  H410  1  0.873100  0.727600  0.874500  1.0
  H  H411  1  0.626900  0.227600  0.874500  1.0
  H  H412  1  0.126900  0.272400  0.125500  1.0
  H  H413  1  0.997300  0.895100  0.049500  1.0
  H  H414  1  0.497300  0.604900  0.950500  1.0
  H  H415  1  0.002700  0.104900  0.950500  1.0
  H  H416  1  0.502700  0.395100  0.049500  1.0
  H  H417  1  0.908400  0.887200  0.055100  1.0
  H  H418  1  0.408400  0.612800  0.944900  1.0
  H  H419  1  0.091600  0.112800  0.944900  1.0
  H  H420  1  0.591600  0.387200  0.055100  1.0
  H  H421  1  0.916800  0.916400  0.147100  1.0
  H  H422  1  0.416800  0.583600  0.852900  1.0
  H  H423  1  0.083200  0.083600  0.852900  1.0
  H  H424  1  0.583200  0.416400  0.147100  1.0
  H  H425  1  0.005600  0.924400  0.141600  1.0
  H  H426  1  0.505600  0.575600  0.858400  1.0
  H  H427  1  0.994400  0.075600  0.858400  1.0
  H  H428  1  0.494400  0.424400  0.141600  1.0
  H  H429  1  0.838600  0.872300  0.101600  1.0
  H  H430  1  0.338600  0.627700  0.898400  1.0
  H  H431  1  0.161400  0.127700  0.898400  1.0
  H  H432  1  0.661400  0.372300  0.101600  1.0
  H  H433  1  0.826900  0.907900  0.090200  1.0
  H  H434  1  0.326900  0.592100  0.909800  1.0
  H  H435  1  0.173100  0.092100  0.909800  1.0
  H  H436  1  0.673100  0.407900  0.090200  1.0
  H  H437  1  0.835400  0.900700  0.127200  1.0
  H  H438  1  0.335400  0.599300  0.872800  1.0
  H  H439  1  0.164600  0.099300  0.872800  1.0
  H  H440  1  0.664600  0.400700  0.127200  1.0
  H  H441  1  0.072500  0.878400  0.066400  1.0
  H  H442  1  0.572500  0.621600  0.933600  1.0
  H  H443  1  0.927500  0.121600  0.933600  1.0
  H  H444  1  0.427500  0.378400  0.066400  1.0
  H  H445  1  0.154900  0.860600  0.041000  1.0
  H  H446  1  0.654900  0.639400  0.959000  1.0
  H  H447  1  0.845100  0.139400  0.959000  1.0
  H  H448  1  0.345100  0.360600  0.041000  1.0
  H  H449  1  0.242700  0.863800  0.037500  1.0
  H  H450  1  0.742700  0.636200  0.962500  1.0
  H  H451  1  0.757300  0.136200  0.962500  1.0
  H  H452  1  0.257300  0.363800  0.037500  1.0
  H  H453  1  0.240500  0.938800  0.097500  1.0
  H  H454  1  0.740500  0.561200  0.902500  1.0
  H  H455  1  0.759500  0.061200  0.902500  1.0
  H  H456  1  0.259500  0.438800  0.097500  1.0
  H  H457  1  0.323500  0.945000  0.082800  1.0
  H  H458  1  0.823500  0.555000  0.917200  1.0
  H  H459  1  0.676500  0.055000  0.917200  1.0
  H  H460  1  0.176500  0.445000  0.082800  1.0
  H  H461  1  0.318100  0.852800  0.055300  1.0
  H  H462  1  0.818100  0.647200  0.944700  1.0
  H  H463  1  0.681900  0.147200  0.944700  1.0
  H  H464  1  0.181900  0.352800  0.055300  1.0
  H  H465  1  0.404900  0.853900  0.049700  1.0
  H  H466  1  0.904900  0.646100  0.950300  1.0
  H  H467  1  0.595100  0.146100  0.950300  1.0
  H  H468  1  0.095100  0.353900  0.049700  1.0
  H  H469  1  0.491100  0.882100  0.055700  1.0
  H  H470  1  0.991100  0.617900  0.944300  1.0
  H  H471  1  0.508900  0.117900  0.944300  1.0
  H  H472  1  0.008900  0.382100  0.055700  1.0
  H  H473  1  0.952000  0.985900  0.166300  1.0
  H  H474  1  0.452000  0.514100  0.833700  1.0
  H  H475  1  0.048000  0.014100  0.833700  1.0
  H  H476  1  0.548000  0.485900  0.166300  1.0
  H  H477  1  0.891700  0.026300  0.157300  1.0
  H  H478  1  0.391700  0.473700  0.842700  1.0
  H  H479  1  0.108300  0.973700  0.842700  1.0
  H  H480  1  0.608300  0.526300  0.157300  1.0
  H  H481  1  0.997300  0.074300  0.105000  1.0
  H  H482  1  0.497300  0.425700  0.895000  1.0
  H  H483  1  0.002700  0.925700  0.895000  1.0
  H  H484  1  0.502700  0.574300  0.105000  1.0
  H  H485  1  0.057700  0.033900  0.113900  1.0
  H  H486  1  0.557700  0.466100  0.886100  1.0
  H  H487  1  0.942300  0.966100  0.886100  1.0
  H  H488  1  0.442300  0.533900  0.113900  1.0
  H  H489  1  0.916600  0.099000  0.114700  1.0
  H  H490  1  0.416600  0.401000  0.885300  1.0
  H  H491  1  0.083400  0.901000  0.885300  1.0
  H  H492  1  0.583400  0.599000  0.114700  1.0
  H  H493  1  0.885800  0.088200  0.145800  1.0
  H  H494  1  0.385800  0.411800  0.854200  1.0
  H  H495  1  0.114200  0.911800  0.854200  1.0
  H  H496  1  0.614200  0.588200  0.145800  1.0
  H  H497  1  0.871200  0.073200  0.111800  1.0
  H  H498  1  0.371200  0.426800  0.888200  1.0
  H  H499  1  0.128800  0.926800  0.888200  1.0
  H  H500  1  0.628800  0.573200  0.111800  1.0
  H  H501  1  0.034600  0.984700  0.192300  1.0
  H  H502  1  0.534600  0.515300  0.807700  1.0
  H  H503  1  0.965400  0.015300  0.807700  1.0
  H  H504  1  0.465400  0.484700  0.192300  1.0
  H  H505  1  0.064500  0.942200  0.230400  1.0
  H  H506  1  0.564500  0.557800  0.769600  1.0
  H  H507  1  0.935500  0.057800  0.769600  1.0
  H  H508  1  0.435500  0.442200  0.230400  1.0
  H  H509  1  0.115500  0.897800  0.241500  1.0
  H  H510  1  0.615500  0.602200  0.758500  1.0
  H  H511  1  0.884500  0.102200  0.758500  1.0
  H  H512  1  0.384500  0.397800  0.241500  1.0
  H  H513  1  0.172700  0.903000  0.151800  1.0
  H  H514  1  0.672700  0.597000  0.848200  1.0
  H  H515  1  0.827300  0.097000  0.848200  1.0
  H  H516  1  0.327300  0.403000  0.151800  1.0
  H  H517  1  0.199000  0.874900  0.247600  1.0
  H  H518  1  0.699000  0.625100  0.752400  1.0
  H  H519  1  0.801000  0.125100  0.752400  1.0
  H  H520  1  0.301000  0.374900  0.247600  1.0
  H  H521  1  0.177500  0.849000  0.157300  1.0
  H  H522  1  0.677500  0.651000  0.842700  1.0
  H  H523  1  0.822500  0.151000  0.842700  1.0
  H  H524  1  0.322500  0.349000  0.157300  1.0
  H  H525  1  0.225600  0.803200  0.167000  1.0
  H  H526  1  0.725600  0.696800  0.833000  1.0
  H  H527  1  0.774400  0.196800  0.833000  1.0
  H  H528  1  0.274400  0.303200  0.167000  1.0
  H  H529  1  0.271300  0.766600  0.204800  1.0
  H  H530  1  0.771300  0.733400  0.795200  1.0
  H  H531  1  0.728700  0.233400  0.795200  1.0
  H  H532  1  0.228700  0.266600  0.204800  1.0
  H  H533  1  0.335000  0.737500  0.209100  1.0
  H  H534  1  0.835000  0.762500  0.790900  1.0
  H  H535  1  0.665000  0.262500  0.790900  1.0
  H  H536  1  0.165000  0.237500  0.209100  1.0
  H  H537  1  0.384600  0.693200  0.223000  1.0
  H  H538  1  0.884600  0.806800  0.777000  1.0
  H  H539  1  0.615400  0.306800  0.777000  1.0
  H  H540  1  0.115400  0.193200  0.223000  1.0
  H  H541  1  0.356900  0.711500  0.316300  1.0
  H  H542  1  0.856900  0.788500  0.683700  1.0
  H  H543  1  0.643100  0.288500  0.683700  1.0
  H  H544  1  0.143100  0.211500  0.316300  1.0
  H  H545  1  0.307300  0.755800  0.302500  1.0
  H  H546  1  0.807300  0.744200  0.697500  1.0
  H  H547  1  0.692700  0.244200  0.697500  1.0
  H  H548  1  0.192700  0.255800  0.302500  1.0
  H  H549  1  0.443300  0.677100  0.287100  1.0
  H  H550  1  0.943300  0.822900  0.712900  1.0
  H  H551  1  0.556700  0.322900  0.712900  1.0
  H  H552  1  0.056700  0.177100  0.287100  1.0
  H  H553  1  0.413300  0.655400  0.261700  1.0
  H  H554  1  0.913300  0.844600  0.738300  1.0
  H  H555  1  0.586700  0.344600  0.738300  1.0
  H  H556  1  0.086700  0.155400  0.261700  1.0
  H  H557  1  0.392700  0.657900  0.297500  1.0
  H  H558  1  0.892700  0.842100  0.702500  1.0
  H  H559  1  0.607300  0.342100  0.702500  1.0
  H  H560  1  0.107300  0.157900  0.297500  1.0
  H  H561  1  0.409400  0.039600  0.003300  1.0
  H  H562  1  0.909400  0.460400  0.996700  1.0
  H  H563  1  0.590600  0.960400  0.996700  1.0
  H  H564  1  0.090600  0.539600  0.003300  1.0
  H  H565  1  0.362500  0.027900  0.957200  1.0
  H  H566  1  0.862500  0.472100  0.042800  1.0
  H  H567  1  0.637500  0.972100  0.042800  1.0
  H  H568  1  0.137500  0.527900  0.957200  1.0
  H  H569  1  0.385300  0.933400  0.971600  1.0
  H  H570  1  0.885300  0.566600  0.028400  1.0
  H  H571  1  0.614700  0.066600  0.028400  1.0
  H  H572  1  0.114700  0.433400  0.971600  1.0
  H  H573  1  0.432100  0.945100  0.017700  1.0
  H  H574  1  0.932100  0.554900  0.982300  1.0
  H  H575  1  0.567900  0.054900  0.982300  1.0
  H  H576  1  0.067900  0.445100  0.017700  1.0
  H  H577  1  0.348800  0.987500  0.912900  1.0
  H  H578  1  0.848800  0.512500  0.087100  1.0
  H  H579  1  0.651200  0.012500  0.087100  1.0
  H  H580  1  0.151200  0.487500  0.912900  1.0
  H  H581  1  0.302700  0.972700  0.933400  1.0
  H  H582  1  0.802700  0.527300  0.066600  1.0
  H  H583  1  0.697300  0.027300  0.066600  1.0
  H  H584  1  0.197300  0.472700  0.933400  1.0
  H  H585  1  0.349300  0.950500  0.921600  1.0
  H  H586  1  0.849300  0.549500  0.078400  1.0
  H  H587  1  0.650700  0.049500  0.078400  1.0
  H  H588  1  0.150700  0.450500  0.921600  1.0
  H  H589  1  0.476700  0.039300  0.029400  1.0
  H  H590  1  0.976700  0.460700  0.970600  1.0
  H  H591  1  0.523300  0.960700  0.970600  1.0
  H  H592  1  0.023300  0.539300  0.029400  1.0
  H  H593  1  0.525300  0.077000  0.063200  1.0
  H  H594  1  0.025300  0.423000  0.936800  1.0
  H  H595  1  0.474700  0.923000  0.936800  1.0
  H  H596  1  0.974700  0.577000  0.063200  1.0
  H  H597  1  0.567500  0.090500  0.113300  1.0
  H  H598  1  0.067500  0.409500  0.886700  1.0
  H  H599  1  0.432500  0.909500  0.886700  1.0
  H  H600  1  0.932500  0.590500  0.113300  1.0
  H  H601  1  0.537600  0.001000  0.141500  1.0
  H  H602  1  0.037600  0.499000  0.858500  1.0
  H  H603  1  0.462400  0.999000  0.858500  1.0
  H  H604  1  0.962400  0.501000  0.141500  1.0
  H  H605  1  0.175300  0.847900  0.295500  1.0
  H  H606  1  0.675300  0.652100  0.704500  1.0
  H  H607  1  0.824700  0.152100  0.704500  1.0
  H  H608  1  0.324700  0.347900  0.295500  1.0
  H  H609  1  0.085300  0.851700  0.295600  1.0
  H  H610  1  0.585300  0.648300  0.704400  1.0
  H  H611  1  0.914700  0.148300  0.704400  1.0
  H  H612  1  0.414700  0.351700  0.295600  1.0
  H  H613  1  0.076800  0.775200  0.353700  1.0
  H  H614  1  0.576800  0.724800  0.646300  1.0
  H  H615  1  0.923200  0.224800  0.646300  1.0
  H  H616  1  0.423200  0.275200  0.353700  1.0
  H  H617  1  0.166800  0.771400  0.353700  1.0
  H  H618  1  0.666800  0.728600  0.646300  1.0
  H  H619  1  0.833200  0.228600  0.646300  1.0
  H  H620  1  0.333200  0.271400  0.353700  1.0
  H  H621  1  0.998800  0.794300  0.321300  1.0
  H  H622  1  0.498800  0.705700  0.678700  1.0
  H  H623  1  0.001200  0.205700  0.678700  1.0
  H  H624  1  0.501200  0.294300  0.321300  1.0
  H  H625  1  0.002300  0.829100  0.306200  1.0
  H  H626  1  0.502300  0.670900  0.693800  1.0
  H  H627  1  0.997700  0.170900  0.693800  1.0
  H  H628  1  0.497700  0.329100  0.306200  1.0
  H  H629  1  0.000900  0.825100  0.344000  1.0
  H  H630  1  0.500900  0.674900  0.656000  1.0
  H  H631  1  0.999100  0.174900  0.656000  1.0
  H  H632  1  0.499100  0.325100  0.344000  1.0
  H  H633  1  0.242800  0.795400  0.367200  1.0
  H  H634  1  0.742800  0.704600  0.632800  1.0
  H  H635  1  0.757200  0.204600  0.632800  1.0
  H  H636  1  0.257200  0.295400  0.367200  1.0
  H  H637  1  0.327400  0.791700  0.394800  1.0
  H  H638  1  0.827400  0.708300  0.605200  1.0
  H  H639  1  0.672600  0.208300  0.605200  1.0
  H  H640  1  0.172600  0.291700  0.394800  1.0
  H  H641  1  0.415300  0.799100  0.395400  1.0
  H  H642  1  0.915300  0.700900  0.604600  1.0
  H  H643  1  0.584700  0.200900  0.604600  1.0
  H  H644  1  0.084700  0.299100  0.395400  1.0
  H  H645  1  0.409000  0.820500  0.302600  1.0
  H  H646  1  0.909000  0.679500  0.697400  1.0
  H  H647  1  0.591000  0.179500  0.697400  1.0
  H  H648  1  0.091000  0.320500  0.302600  1.0
  H  H649  1  0.745500  0.032200  0.759600  1.0
  H  H650  1  0.245500  0.467800  0.240400  1.0
  H  H651  1  0.254500  0.967800  0.240400  1.0
  H  H652  1  0.754500  0.532200  0.759600  1.0
  H  H653  1  0.800100  0.030300  0.777200  1.0
  H  H654  1  0.300100  0.469700  0.222800  1.0
  H  H655  1  0.199900  0.969700  0.222800  1.0
  H  H656  1  0.699900  0.530300  0.777200  1.0
  H  H657  1  0.787200  0.006200  0.748600  1.0
  H  H658  1  0.287200  0.493800  0.251400  1.0
  H  H659  1  0.212800  0.993800  0.251400  1.0
  H  H660  1  0.712800  0.506200  0.748600  1.0
  H  H661  1  0.790800  0.989000  0.015800  1.0
  H  H662  1  0.290800  0.511000  0.984200  1.0
  H  H663  1  0.209200  0.011000  0.984200  1.0
  H  H664  1  0.709200  0.489000  0.015800  1.0
  H  H665  1  0.730500  0.989900  0.024100  1.0
  H  H666  1  0.230500  0.510100  0.975900  1.0
  H  H667  1  0.269500  0.010100  0.975900  1.0
  H  H668  1  0.769500  0.489900  0.024100  1.0
  H  H669  1  0.765500  0.020700  0.030400  1.0
  H  H670  1  0.265500  0.479300  0.969600  1.0
  H  H671  1  0.234500  0.979300  0.969600  1.0
  H  H672  1  0.734500  0.520700  0.030400  1.0
  H  H673  1  0.773100  0.071100  0.106500  1.0
  H  H674  1  0.273100  0.428900  0.893500  1.0
  H  H675  1  0.226900  0.928900  0.893500  1.0
  H  H676  1  0.726900  0.571100  0.106500  1.0
  H  H677  1  0.778000  0.087600  0.140800  1.0
  H  H678  1  0.278000  0.412400  0.859200  1.0
  H  H679  1  0.222000  0.912400  0.859200  1.0
  H  H680  1  0.722000  0.587600  0.140800  1.0
  H  H681  1  0.779400  0.108900  0.109500  1.0
  H  H682  1  0.279400  0.391100  0.890500  1.0
  H  H683  1  0.220600  0.891100  0.890500  1.0
  H  H684  1  0.720600  0.608900  0.109500  1.0
  H  H685  1  0.106000  0.090300  0.087200  1.0
  H  H686  1  0.606000  0.409700  0.912800  1.0
  H  H687  1  0.894000  0.909700  0.912800  1.0
  H  H688  1  0.394000  0.590300  0.087200  1.0
  H  H689  1  0.088400  0.124100  0.101200  1.0
  H  H690  1  0.588400  0.375900  0.898800  1.0
  H  H691  1  0.911600  0.875900  0.898800  1.0
  H  H692  1  0.411600  0.624100  0.101200  1.0
  H  H693  1  0.106500  0.096600  0.124800  1.0
  H  H694  1  0.606500  0.403400  0.875200  1.0
  H  H695  1  0.893500  0.903400  0.875200  1.0
  H  H696  1  0.393500  0.596600  0.124800  1.0
  H  H697  1  0.598500  0.203000  0.436300  1.0
  H  H698  1  0.098500  0.297000  0.563700  1.0
  H  H699  1  0.401500  0.797000  0.563700  1.0
  H  H700  1  0.901500  0.703000  0.436300  1.0
  H  H701  1  0.541300  0.203000  0.450700  1.0
  H  H702  1  0.041300  0.297000  0.549300  1.0
  H  H703  1  0.458700  0.797000  0.549300  1.0
  H  H704  1  0.958700  0.703000  0.450700  1.0
  H  H705  1  0.552000  0.218200  0.416500  1.0
  H  H706  1  0.052000  0.281800  0.583500  1.0
  H  H707  1  0.448000  0.781800  0.583500  1.0
  H  H708  1  0.948000  0.718200  0.416500  1.0
  H  H709  1  0.383000  0.168700  0.997700  1.0
  H  H710  1  0.883000  0.331300  0.002300  1.0
  H  H711  1  0.617000  0.831300  0.002300  1.0
  H  H712  1  0.117000  0.668700  0.997700  1.0
  H  H713  1  0.430600  0.189400  0.010600  1.0
  H  H714  1  0.930600  0.310600  0.989400  1.0
  H  H715  1  0.569400  0.810600  0.989400  1.0
  H  H716  1  0.069400  0.689400  0.010600  1.0
  H  H717  1  0.390900  0.204500  0.985800  1.0
  H  H718  1  0.890900  0.295500  0.014200  1.0
  H  H719  1  0.609100  0.795500  0.014200  1.0
  H  H720  1  0.109100  0.704500  0.985800  1.0
  H  H721  1  0.934900  0.871500  0.998900  1.0
  H  H722  1  0.434900  0.628500  0.001100  1.0
  H  H723  1  0.065100  0.128500  0.001100  1.0
  H  H724  1  0.565100  0.371500  0.998900  1.0
  H  H725  1  0.942200  0.833700  0.997900  1.0
  H  H726  1  0.442200  0.666300  0.002100  1.0
  H  H727  1  0.057800  0.166300  0.002100  1.0
  H  H728  1  0.557800  0.333700  0.997900  1.0
  H  H729  1  0.952300  0.854200  0.966600  1.0
  H  H730  1  0.452300  0.645800  0.033400  1.0
  H  H731  1  0.047700  0.145800  0.033400  1.0
  H  H732  1  0.547700  0.354200  0.966600  1.0
  H  H733  1  0.262400  0.988200  0.535000  1.0
  H  H734  1  0.762400  0.511800  0.465000  1.0
  H  H735  1  0.737600  0.011800  0.465000  1.0
  H  H736  1  0.237600  0.488200  0.535000  1.0
  H  H737  1  0.224900  0.967500  0.512800  1.0
  H  H738  1  0.724900  0.532500  0.487200  1.0
  H  H739  1  0.775100  0.032500  0.487200  1.0
  H  H740  1  0.275100  0.467500  0.512800  1.0
  H  H741  1  0.207000  0.001900  0.525400  1.0
  H  H742  1  0.707000  0.498100  0.474600  1.0
  H  H743  1  0.793000  0.998100  0.474600  1.0
  H  H744  1  0.293000  0.501900  0.525400  1.0
  H  H745  1  0.490100  0.718100  0.208600  0.36
  H  H746  1  0.990100  0.781900  0.791400  0.36
  H  H747  1  0.509900  0.281900  0.791400  0.36
  H  H748  1  0.009900  0.218100  0.208600  0.36
  H  H749  1  0.484200  0.694000  0.237700  0.36
  H  H750  1  0.984200  0.806000  0.762300  0.36
  H  H751  1  0.515800  0.306000  0.762300  0.36
  H  H752  1  0.015800  0.194000  0.237700  0.36
  H  H753  1  0.536700  0.713400  0.233100  0.36
  H  H754  1  0.036700  0.786600  0.766900  0.36
  H  H755  1  0.463300  0.286600  0.766900  0.36
  H  H756  1  0.963300  0.213400  0.233100  0.36
  H  H757  1  0.696000  0.093500  0.253100  0.388
  H  H758  1  0.196000  0.406500  0.746900  0.388
  H  H759  1  0.304000  0.906500  0.746900  0.388
  H  H760  1  0.804000  0.593500  0.253100  0.388
  H  H761  1  0.701300  0.193200  0.242200  0.388
  H  H762  1  0.201300  0.306800  0.757800  0.388
  H  H763  1  0.298700  0.806800  0.757800  0.388
  H  H764  1  0.798700  0.693200  0.242200  0.388
  H  H765  1  0.743600  0.222400  0.282000  0.388
  H  H766  1  0.243600  0.277600  0.718000  0.388
  H  H767  1  0.256400  0.777600  0.718000  0.388
  H  H768  1  0.756400  0.722400  0.282000  0.388
  H  H769  1  0.748300  0.143600  0.337300  0.388
  H  H770  1  0.248300  0.356400  0.662700  0.388
  H  H771  1  0.251700  0.856400  0.662700  0.388
  H  H772  1  0.751700  0.643600  0.337300  0.388
  H  H773  1  0.706000  0.114400  0.297500  0.388
  H  H774  1  0.206000  0.385600  0.702500  0.388
  H  H775  1  0.294000  0.885600  0.702500  0.388
  H  H776  1  0.794000  0.614400  0.297500  0.388
  H  H777  1  0.802100  0.219400  0.330600  0.388
  H  H778  1  0.302100  0.280600  0.669400  0.388
  H  H779  1  0.197900  0.780600  0.669400  0.388
  H  H780  1  0.697900  0.719400  0.330600  0.388
  H  H781  1  0.793300  0.190600  0.354800  0.388
  H  H782  1  0.293300  0.309400  0.645200  0.388
  H  H783  1  0.206700  0.809400  0.645200  0.388
  H  H784  1  0.706700  0.690600  0.354800  0.388
  H  H785  1  0.750500  0.217900  0.351400  0.388
  H  H786  1  0.250500  0.282100  0.648600  0.388
  H  H787  1  0.249500  0.782100  0.648600  0.388
  H  H788  1  0.749500  0.717900  0.351400  0.388
  H  H789  1  0.570600  0.902300  0.035600  0.431
  H  H790  1  0.070600  0.597700  0.964400  0.431
  H  H791  1  0.429400  0.097700  0.964400  0.431
  H  H792  1  0.929400  0.402300  0.035600  0.431
  H  H793  1  0.660600  0.901700  0.039700  0.431
  H  H794  1  0.160600  0.598300  0.960300  0.431
  H  H795  1  0.339400  0.098300  0.960300  0.431
  H  H796  1  0.839400  0.401700  0.039700  0.431
  H  H797  1  0.652200  0.957800  0.118500  0.431
  H  H798  1  0.152200  0.542200  0.881500  0.431
  H  H799  1  0.347800  0.042200  0.881500  0.431
  H  H800  1  0.847800  0.457800  0.118500  0.431
  H  H801  1  0.562200  0.958400  0.114500  0.431
  H  H802  1  0.062200  0.541600  0.885500  0.431
  H  H803  1  0.437800  0.041600  0.885500  0.431
  H  H804  1  0.937800  0.458400  0.114500  0.431
  H  H805  1  0.738600  0.917200  0.064200  0.431
  H  H806  1  0.238600  0.582800  0.935800  0.431
  H  H807  1  0.261400  0.082800  0.935800  0.431
  H  H808  1  0.761400  0.417200  0.064200  0.431
  H  H809  1  0.734900  0.921200  0.102000  0.431
  H  H810  1  0.234900  0.578800  0.898000  0.431
  H  H811  1  0.265100  0.078800  0.898000  0.431
  H  H812  1  0.765100  0.421200  0.102000  0.431
  H  H813  1  0.736700  0.952100  0.079900  0.431
  H  H814  1  0.236700  0.547900  0.920100  0.431
  H  H815  1  0.263300  0.047900  0.920100  0.431
  H  H816  1  0.763300  0.452100  0.079900  0.431
  H  H817  1  0.653100  0.182500  0.127300  0.4905
  H  H818  1  0.153100  0.317500  0.872700  0.4905
  H  H819  1  0.346900  0.817500  0.872700  0.4905
  H  H820  1  0.846900  0.682500  0.127300  0.4905
  H  H821  1  0.729400  0.211900  0.149300  0.4905
  H  H822  1  0.229400  0.288100  0.850700  0.4905
  H  H823  1  0.270600  0.788100  0.850700  0.4905
  H  H824  1  0.770600  0.711900  0.149300  0.4905
  H  H825  1  0.819300  0.208100  0.146300  0.4905
  H  H826  1  0.319300  0.291900  0.853700  0.4905
  H  H827  1  0.180700  0.791900  0.853700  0.4905
  H  H828  1  0.680700  0.708100  0.146300  0.4905
  H  H829  1  0.813500  0.121800  0.188900  0.4905
  H  H830  1  0.313500  0.378200  0.811100  0.4905
  H  H831  1  0.186500  0.878200  0.811100  0.4905
  H  H832  1  0.686500  0.621800  0.188900  0.4905
  H  H833  1  0.723600  0.125600  0.192000  0.4905
  H  H834  1  0.223600  0.374400  0.808000  0.4905
  H  H835  1  0.276400  0.874400  0.808000  0.4905
  H  H836  1  0.776400  0.625600  0.192000  0.4905
  H  H837  1  0.895400  0.142300  0.175300  0.4905
  H  H838  1  0.395400  0.357700  0.824700  0.4905
  H  H839  1  0.104600  0.857700  0.824700  0.4905
  H  H840  1  0.604600  0.642300  0.175300  0.4905
  H  H841  1  0.899100  0.180200  0.178200  0.4905
  H  H842  1  0.399100  0.319800  0.821800  0.4905
  H  H843  1  0.100900  0.819800  0.821800  0.4905
  H  H844  1  0.600900  0.680200  0.178200  0.4905
  H  H845  1  0.895600  0.163600  0.144000  0.4905
  H  H846  1  0.395600  0.336400  0.856000  0.4905
  H  H847  1  0.104400  0.836400  0.856000  0.4905
  H  H848  1  0.604400  0.663600  0.144000  0.4905
  H  H849  1  0.481100  0.167200  0.191100  0.4905
  H  H850  1  0.981100  0.332800  0.808900  0.4905
  H  H851  1  0.518900  0.832800  0.808900  0.4905
  H  H852  1  0.018900  0.667200  0.191100  0.4905
  H  H853  1  0.480800  0.173900  0.095000  0.4905
  H  H854  1  0.980800  0.326100  0.905000  0.4905
  H  H855  1  0.519200  0.826100  0.905000  0.4905
  H  H856  1  0.019200  0.673900  0.095000  0.4905
  H  H857  1  0.571100  0.175600  0.095000  0.4905
  H  H858  1  0.071100  0.324400  0.905000  0.4905
  H  H859  1  0.428900  0.824400  0.905000  0.4905
  H  H860  1  0.928900  0.675600  0.095000  0.4905
  H  H861  1  0.399900  0.994600  0.333700  0.4905
  H  H862  1  0.899900  0.505400  0.666300  0.4905
  H  H863  1  0.600100  0.005400  0.666300  0.4905
  H  H864  1  0.100100  0.494600  0.333700  0.4905
  H  H865  1  0.352800  0.999500  0.427000  0.4905
  H  H866  1  0.852800  0.500500  0.573000  0.4905
  H  H867  1  0.647200  0.000500  0.573000  0.4905
  H  H868  1  0.147200  0.499500  0.427000  0.4905
  H  H869  1  0.327100  0.953700  0.453900  0.4905
  H  H870  1  0.827100  0.546300  0.546100  0.4905
  H  H871  1  0.672900  0.046300  0.546100  0.4905
  H  H872  1  0.172900  0.453700  0.453900  0.4905
  H  H873  1  0.399600  0.898800  0.387800  0.4905
  H  H874  1  0.899600  0.601200  0.612200  0.4905
  H  H875  1  0.600400  0.101200  0.612200  0.4905
  H  H876  1  0.100400  0.398800  0.387800  0.4905
  H  H877  1  0.425300  0.944600  0.360800  0.4905
  H  H878  1  0.925300  0.555400  0.639200  0.4905
  H  H879  1  0.574700  0.055400  0.639200  0.4905
  H  H880  1  0.074700  0.444600  0.360800  0.4905
  H  H881  1  0.355700  0.872800  0.429400  0.4905
  H  H882  1  0.855700  0.627200  0.570600  0.4905
  H  H883  1  0.644300  0.127200  0.570600  0.4905
  H  H884  1  0.144300  0.372800  0.429400  0.4905
  H  H885  1  0.304900  0.891200  0.441100  0.4905
  H  H886  1  0.804900  0.608800  0.558900  0.4905
  H  H887  1  0.695100  0.108800  0.558900  0.4905
  H  H888  1  0.195100  0.391200  0.441100  0.4905
  H  H889  1  0.356000  0.892000  0.462500  0.4905
  H  H890  1  0.856000  0.608000  0.537500  0.4905
  H  H891  1  0.644000  0.108000  0.537500  0.4905
  H  H892  1  0.144000  0.392000  0.462500  0.4905
  H  H893  1  0.418100  0.031800  0.288100  0.4905
  H  H894  1  0.918100  0.468200  0.711900  0.4905
  H  H895  1  0.581900  0.968200  0.711900  0.4905
  H  H896  1  0.081900  0.531800  0.288100  0.4905
  H  H897  1  0.458000  0.078400  0.270100  0.4905
  H  H898  1  0.958000  0.421600  0.729900  0.4905
  H  H899  1  0.542000  0.921600  0.729900  0.4905
  H  H900  1  0.042000  0.578400  0.270100  0.4905
  H  H901  1  0.519800  0.092700  0.357600  0.4905
  H  H902  1  0.019800  0.407300  0.642400  0.4905
  H  H903  1  0.480200  0.907300  0.642400  0.4905
  H  H904  1  0.980200  0.592700  0.357600  0.4905
  H  H905  1  0.530700  0.106100  0.256800  0.4905
  H  H906  1  0.030700  0.393900  0.743200  0.4905
  H  H907  1  0.469300  0.893900  0.743200  0.4905
  H  H908  1  0.969300  0.606100  0.256800  0.4905
  H  H909  1  0.511200  0.143700  0.345000  0.4905
  H  H910  1  0.011200  0.356300  0.655000  0.4905
  H  H911  1  0.488800  0.856300  0.655000  0.4905
  H  H912  1  0.988800  0.643700  0.345000  0.4905
  H  H913  1  0.550000  0.191100  0.328500  0.4905
  H  H914  1  0.050000  0.308900  0.671500  0.4905
  H  H915  1  0.450000  0.808900  0.671500  0.4905
  H  H916  1  0.950000  0.691100  0.328500  0.4905
  H  H917  1  0.572400  0.225700  0.283000  0.4905
  H  H918  1  0.072400  0.274300  0.717000  0.4905
  H  H919  1  0.427600  0.774300  0.717000  0.4905
  H  H920  1  0.927600  0.725700  0.283000  0.4905
  H  H921  1  0.548300  0.266000  0.253700  0.4905
  H  H922  1  0.048300  0.234000  0.746300  0.4905
  H  H923  1  0.451700  0.734000  0.746300  0.4905
  H  H924  1  0.951700  0.766000  0.253700  0.4905
  H  H925  1  0.565200  0.316600  0.233400  0.4905
  H  H926  1  0.065200  0.183400  0.766600  0.4905
  H  H927  1  0.434800  0.683400  0.766600  0.4905
  H  H928  1  0.934800  0.816600  0.233400  0.4905
  H  H929  1  0.684000  0.280300  0.181600  0.4905
  H  H930  1  0.184000  0.219700  0.818400  0.4905
  H  H931  1  0.316000  0.719700  0.818400  0.4905
  H  H932  1  0.816000  0.780300  0.181600  0.4905
  H  H933  1  0.667100  0.229700  0.202000  0.4905
  H  H934  1  0.167100  0.270300  0.798000  0.4905
  H  H935  1  0.332900  0.770300  0.798000  0.4905
  H  H936  1  0.832900  0.729700  0.202000  0.4905
  H  H937  1  0.614400  0.352200  0.202500  0.4905
  H  H938  1  0.114400  0.147800  0.797500  0.4905
  H  H939  1  0.385600  0.647800  0.797500  0.4905
  H  H940  1  0.885600  0.852200  0.202500  0.4905
  H  H941  1  0.634000  0.336800  0.169800  0.4905
  H  H942  1  0.134000  0.163200  0.830200  0.4905
  H  H943  1  0.366000  0.663200  0.830200  0.4905
  H  H944  1  0.866000  0.836800  0.169800  0.4905
  H  H945  1  0.673800  0.342500  0.198300  0.4905
  H  H946  1  0.173800  0.157500  0.801700  0.4905
  H  H947  1  0.326200  0.657500  0.801700  0.4905
  H  H948  1  0.826200  0.842500  0.198300  0.4905
  H  H949  1  0.484700  0.959300  0.464100  0.4905
  H  H950  1  0.984700  0.540700  0.535900  0.4905
  H  H951  1  0.515300  0.040700  0.535900  0.4905
  H  H952  1  0.015300  0.459300  0.464100  0.4905
  H  H953  1  0.571100  0.897900  0.334600  0.4905
  H  H954  1  0.071100  0.602100  0.665400  0.4905
  H  H955  1  0.428900  0.102100  0.665400  0.4905
  H  H956  1  0.928900  0.397900  0.334600  0.4905
  H  H957  1  0.627800  0.987100  0.323700  0.4905
  H  H958  1  0.127800  0.512900  0.676300  0.4905
  H  H959  1  0.372200  0.012900  0.676300  0.4905
  H  H960  1  0.872200  0.487100  0.323700  0.4905
  H  H961  1  0.655400  0.973800  0.272300  0.4905
  H  H962  1  0.155400  0.526200  0.727700  0.4905
  H  H963  1  0.344600  0.026200  0.727700  0.4905
  H  H964  1  0.844600  0.473800  0.272300  0.4905
  H  H965  1  0.531800  0.920000  0.431300  0.4905
  H  H966  1  0.031800  0.580000  0.568700  0.4905
  H  H967  1  0.468200  0.080000  0.568700  0.4905
  H  H968  1  0.968200  0.420000  0.431300  0.4905
  H  H969  1  0.576400  0.907600  0.384400  0.4905
  H  H970  1  0.076400  0.592400  0.615600  0.4905
  H  H971  1  0.423600  0.092400  0.615600  0.4905
  H  H972  1  0.923600  0.407600  0.384400  0.4905
  H  H973  1  0.559400  0.998800  0.355100  0.4905
  H  H974  1  0.059400  0.501200  0.644900  0.4905
  H  H975  1  0.440600  0.001200  0.644900  0.4905
  H  H976  1  0.940600  0.498800  0.355100  0.4905
  H  H977  1  0.480900  0.839600  0.302800  0.4905
  H  H978  1  0.980900  0.660400  0.697200  0.4905
  H  H979  1  0.519100  0.160400  0.697200  0.4905
  H  H980  1  0.019100  0.339600  0.302800  0.4905
  H  H981  1  0.498900  0.809300  0.393300  0.4905
  H  H982  1  0.998900  0.690700  0.606700  0.4905
  H  H983  1  0.501100  0.190700  0.606700  0.4905
  H  H984  1  0.001100  0.309300  0.393300  0.4905
  H  H985  1  0.588500  0.814000  0.388200  0.4905
  H  H986  1  0.088500  0.686000  0.611800  0.4905
  H  H987  1  0.411500  0.186000  0.611800  0.4905
  H  H988  1  0.911500  0.314000  0.388200  0.4905
  H  H989  1  0.665600  0.827300  0.354700  0.4905
  H  H990  1  0.165600  0.672700  0.645300  0.4905
  H  H991  1  0.334400  0.172700  0.645300  0.4905
  H  H992  1  0.834400  0.327300  0.354700  0.4905
  H  H993  1  0.730600  0.798800  0.333000  0.4905
  H  H994  1  0.230600  0.701200  0.667000  0.4905
  H  H995  1  0.269400  0.201200  0.667000  0.4905
  H  H996  1  0.769400  0.298800  0.333000  0.4905
  H  H997  1  0.819500  0.797500  0.323600  0.4905
  H  H998  1  0.319500  0.702500  0.676400  0.4905
  H  H999  1  0.180500  0.202500  0.676400  0.4905
  H  H1000  1  0.680500  0.297500  0.323600  0.4905
  H  H1001  1  0.806300  0.874700  0.266700  0.4905
  H  H1002  1  0.306300  0.625300  0.733300  0.4905
  H  H1003  1  0.193700  0.125300  0.733300  0.4905
  H  H1004  1  0.693700  0.374700  0.266700  0.4905
  H  H1005  1  0.717400  0.876000  0.276100  0.4905
  H  H1006  1  0.217400  0.624000  0.723900  0.4905
  H  H1007  1  0.282600  0.124000  0.723900  0.4905
  H  H1008  1  0.782600  0.376000  0.276100  0.4905
  H  H1009  1  0.889000  0.852000  0.273100  0.4905
  H  H1010  1  0.389000  0.648000  0.726900  0.4905
  H  H1011  1  0.111000  0.148000  0.726900  0.4905
  H  H1012  1  0.611000  0.352000  0.273100  0.4905
  H  H1013  1  0.888100  0.814200  0.277200  0.4905
  H  H1014  1  0.388100  0.685800  0.722800  0.4905
  H  H1015  1  0.111900  0.185800  0.722800  0.4905
  H  H1016  1  0.611900  0.314200  0.277200  0.4905
  H  H1017  1  0.898800  0.836700  0.307300  0.4905
  H  H1018  1  0.398800  0.663300  0.692700  0.4905
  H  H1019  1  0.101200  0.163300  0.692700  0.4905
  H  H1020  1  0.601200  0.336700  0.307300  0.4905
  H  H1021  1  0.649500  0.932000  0.225500  0.4905
  H  H1022  1  0.149500  0.568000  0.774500  0.4905
  H  H1023  1  0.350500  0.068000  0.774500  0.4905
  H  H1024  1  0.850500  0.432000  0.225500  0.4905
  H  H1025  1  0.453800  0.058600  0.475000  0.4905
  H  H1026  1  0.953800  0.441400  0.525000  0.4905
  H  H1027  1  0.546200  0.941400  0.525000  0.4905
  H  H1028  1  0.046200  0.558600  0.475000  0.4905
  H  H1029  1  0.404800  0.075100  0.518800  0.4905
  H  H1030  1  0.904800  0.424900  0.481200  0.4905
  H  H1031  1  0.595200  0.924900  0.481200  0.4905
  H  H1032  1  0.095200  0.575100  0.518800  0.4905
  H  H1033  1  0.365500  0.983200  0.535900  0.4905
  H  H1034  1  0.865500  0.516800  0.464100  0.4905
  H  H1035  1  0.634500  0.016800  0.464100  0.4905
  H  H1036  1  0.134500  0.483200  0.535900  0.4905
  H  H1037  1  0.414400  0.966700  0.492100  0.4905
  H  H1038  1  0.914400  0.533300  0.507900  0.4905
  H  H1039  1  0.585600  0.033300  0.507900  0.4905
  H  H1040  1  0.085600  0.466700  0.492100  0.4905
  H  H1041  1  0.331400  0.023000  0.569800  0.4905
  H  H1042  1  0.831400  0.477000  0.430200  0.4905
  H  H1043  1  0.668600  0.977000  0.430200  0.4905
  H  H1044  1  0.168600  0.523000  0.569800  0.4905
  H  H1045  1  0.319900  0.056000  0.552300  0.4905
  H  H1046  1  0.819900  0.444000  0.447700  0.4905
  H  H1047  1  0.680100  0.944000  0.447700  0.4905
  H  H1048  1  0.180100  0.556000  0.552300  0.4905
  H  H1049  1  0.368800  0.052900  0.575300  0.4905
  H  H1050  1  0.868800  0.447100  0.424700  0.4905
  H  H1051  1  0.631200  0.947100  0.424700  0.4905
  H  H1052  1  0.131200  0.552900  0.575300  0.4905
  H  H1053  1  0.685700  0.839000  0.211800  0.4905
  H  H1054  1  0.185700  0.661000  0.788200  0.4905
  H  H1055  1  0.314300  0.161000  0.788200  0.4905
  H  H1056  1  0.814300  0.339000  0.211800  0.4905
  H  H1057  1  0.686300  0.816900  0.160600  0.4905
  H  H1058  1  0.186300  0.683100  0.839400  0.4905
  H  H1059  1  0.313700  0.183100  0.839400  0.4905
  H  H1060  1  0.813700  0.316900  0.160600  0.4905
  H  H1061  1  0.606000  0.892900  0.128000  0.4905
  H  H1062  1  0.106000  0.607100  0.872000  0.4905
  H  H1063  1  0.394000  0.107100  0.872000  0.4905
  H  H1064  1  0.894000  0.392900  0.128000  0.4905
  H  H1065  1  0.605400  0.915100  0.179100  0.4905
  H  H1066  1  0.105400  0.584900  0.820900  0.4905
  H  H1067  1  0.394600  0.084900  0.820900  0.4905
  H  H1068  1  0.894600  0.415100  0.179100  0.4905
  H  H1069  1  0.663100  0.851900  0.091100  0.4905
  H  H1070  1  0.163100  0.648100  0.908900  0.4905
  H  H1071  1  0.336900  0.148100  0.908900  0.4905
  H  H1072  1  0.836900  0.351900  0.091100  0.4905
  H  H1073  1  0.609500  0.834800  0.099100  0.4905
  H  H1074  1  0.109500  0.665200  0.900900  0.4905
  H  H1075  1  0.390500  0.165200  0.900900  0.4905
  H  H1076  1  0.890500  0.334800  0.099100  0.4905
  H  H1077  1  0.662900  0.817100  0.106400  0.4905
  H  H1078  1  0.162900  0.682900  0.893600  0.4905
  H  H1079  1  0.337100  0.182900  0.893600  0.4905
  H  H1080  1  0.837100  0.317100  0.106400  0.4905
  H  H1081  1  0.634800  0.767000  0.201100  0.4905
  H  H1082  1  0.134800  0.733000  0.798900  0.4905
  H  H1083  1  0.365200  0.233000  0.798900  0.4905
  H  H1084  1  0.865200  0.267000  0.201100  0.4905
  H  H1085  1  0.680700  0.720100  0.210500  0.4905
  H  H1086  1  0.180700  0.779900  0.789500  0.4905
  H  H1087  1  0.319300  0.279900  0.789500  0.4905
  H  H1088  1  0.819300  0.220100  0.210500  0.4905
  H  H1089  1  0.656700  0.730900  0.305300  0.4905
  H  H1090  1  0.156700  0.769100  0.694700  0.4905
  H  H1091  1  0.343300  0.269100  0.694700  0.4905
  H  H1092  1  0.843300  0.230900  0.305300  0.4905
  H  H1093  1  0.610800  0.777900  0.295900  0.4905
  H  H1094  1  0.110800  0.722100  0.704100  0.4905
  H  H1095  1  0.389200  0.222100  0.704100  0.4905
  H  H1096  1  0.889200  0.277900  0.295900  0.4905
  H  H1097  1  0.724400  0.693300  0.284700  0.4905
  H  H1098  1  0.224400  0.806700  0.715300  0.4905
  H  H1099  1  0.275600  0.306700  0.715300  0.4905
  H  H1100  1  0.775600  0.193300  0.284700  0.4905
  H  H1101  1  0.728200  0.686800  0.247200  0.4905
  H  H1102  1  0.228200  0.813200  0.752800  0.4905
  H  H1103  1  0.271800  0.313200  0.752800  0.4905
  H  H1104  1  0.771800  0.186800  0.247200  0.4905
  H  H1105  1  0.681000  0.672600  0.267100  0.4905
  H  H1106  1  0.181000  0.827400  0.732900  0.4905
  H  H1107  1  0.319000  0.327400  0.732900  0.4905
  H  H1108  1  0.819000  0.172600  0.267100  0.4905
  H  H1109  1  0.555800  0.789700  0.205400  0.4905
  H  H1110  1  0.055800  0.710300  0.794600  0.4905
  H  H1111  1  0.444200  0.210300  0.794600  0.4905
  H  H1112  1  0.944200  0.289700  0.205400  0.4905
  H  H1113  1  0.512400  0.907900  0.237200  0.4905
  H  H1114  1  0.012400  0.592100  0.762800  0.4905
  H  H1115  1  0.487600  0.092100  0.762800  0.4905
  H  H1116  1  0.987600  0.407900  0.237200  0.4905
  H  H1117  1  0.464900  0.869800  0.153300  0.4905
  H  H1118  1  0.964900  0.630200  0.846700  0.4905
  H  H1119  1  0.535100  0.130200  0.846700  0.4905
  H  H1120  1  0.035100  0.369800  0.153300  0.4905
  H  H1121  1  0.504200  0.821400  0.166400  0.4905
  H  H1122  1  0.004200  0.678600  0.833600  0.4905
  H  H1123  1  0.495800  0.178600  0.833600  0.4905
  H  H1124  1  0.995800  0.321400  0.166400  0.4905
  H  H1125  1  0.400200  0.988800  0.206300  0.4905
  H  H1126  1  0.900200  0.511200  0.793700  0.4905
  H  H1127  1  0.599800  0.011200  0.793700  0.4905
  H  H1128  1  0.099800  0.488800  0.206300  0.4905
  H  H1129  1  0.433500  0.941100  0.226300  0.4905
  H  H1130  1  0.933500  0.558900  0.773700  0.4905
  H  H1131  1  0.566500  0.058900  0.773700  0.4905
  H  H1132  1  0.066500  0.441100  0.226300  0.4905
  H  H1133  1  0.486900  0.917800  0.138600  0.4905
  H  H1134  1  0.986900  0.582200  0.861400  0.4905
  H  H1135  1  0.513100  0.082200  0.861400  0.4905
  H  H1136  1  0.013100  0.417800  0.138600  0.4905
  H  H1137  1  0.340300  0.010800  0.063600  0.4905
  H  H1138  1  0.840300  0.489200  0.936400  0.4905
  H  H1139  1  0.659700  0.989200  0.936400  0.4905
  H  H1140  1  0.159700  0.510800  0.063600  0.4905
  H  H1141  1  0.313800  0.055000  0.034300  0.4905
  H  H1142  1  0.813800  0.445000  0.965700  0.4905
  H  H1143  1  0.686200  0.945000  0.965700  0.4905
  H  H1144  1  0.186200  0.555000  0.034300  0.4905
  H  H1145  1  0.377900  0.113800  0.100300  0.4905
  H  H1146  1  0.877900  0.386200  0.899700  0.4905
  H  H1147  1  0.622100  0.886200  0.899700  0.4905
  H  H1148  1  0.122100  0.613800  0.100300  0.4905
  H  H1149  1  0.404500  0.069700  0.129700  0.4905
  H  H1150  1  0.904500  0.430300  0.870300  0.4905
  H  H1151  1  0.595500  0.930300  0.870300  0.4905
  H  H1152  1  0.095500  0.569700  0.129700  0.4905
  H  H1153  1  0.306300  0.110400  0.026600  0.4905
  H  H1154  1  0.806300  0.389600  0.973400  0.4905
  H  H1155  1  0.693700  0.889600  0.973400  0.4905
  H  H1156  1  0.193700  0.610400  0.026600  0.4905
  H  H1157  1  0.354200  0.130600  0.039700  0.4905
  H  H1158  1  0.854200  0.369400  0.960300  0.4905
  H  H1159  1  0.645800  0.869400  0.960300  0.4905
  H  H1160  1  0.145800  0.630600  0.039700  0.4905
  H  H1161  1  0.301100  0.130400  0.059000  0.4905
  H  H1162  1  0.801100  0.369600  0.941000  0.4905
  H  H1163  1  0.698900  0.869600  0.941000  0.4905
  H  H1164  1  0.198900  0.630400  0.059000  0.4905
  H  H1165  1  0.380500  0.021900  0.157600  0.4905
  H  H1166  1  0.880500  0.478100  0.842400  0.4905
  H  H1167  1  0.619500  0.978100  0.842400  0.4905
  H  H1168  1  0.119500  0.521900  0.157600  0.4905
  H  H1169  1  0.553800  0.109100  0.162900  0.4905
  H  H1170  1  0.053800  0.390900  0.837100  0.4905
  H  H1171  1  0.446200  0.890900  0.837100  0.4905
  H  H1172  1  0.946200  0.609100  0.162900  0.4905
  H  H1173  1  0.631500  0.025500  0.168700  0.4905
  H  H1174  1  0.131500  0.474500  0.831300  0.4905
  H  H1175  1  0.368500  0.974500  0.831300  0.4905
  H  H1176  1  0.868500  0.525500  0.168700  0.4905
  H  H1177  1  0.679200  0.045700  0.211600  0.4905
  H  H1178  1  0.179200  0.454300  0.788400  0.4905
  H  H1179  1  0.320800  0.954300  0.788400  0.4905
  H  H1180  1  0.820800  0.545700  0.211600  0.4905
  H  H1181  1  0.592100  0.093300  0.459400  0.499
  H  H1182  1  0.092100  0.406700  0.540600  0.499
  H  H1183  1  0.407900  0.906700  0.540600  0.499
  H  H1184  1  0.907900  0.593300  0.459400  0.499
  H  H1185  1  0.681900  0.093700  0.454100  0.499
  H  H1186  1  0.181900  0.406300  0.545900  0.499
  H  H1187  1  0.318100  0.906300  0.545900  0.499
  H  H1188  1  0.818100  0.593700  0.454100  0.499
  H  H1189  1  0.671600  0.029600  0.381700  0.499
  H  H1190  1  0.171600  0.470400  0.618300  0.499
  H  H1191  1  0.328400  0.970400  0.618300  0.499
  H  H1192  1  0.828400  0.529600  0.381700  0.499
  H  H1193  1  0.581800  0.029100  0.386900  0.499
  H  H1194  1  0.081800  0.470900  0.613100  0.499
  H  H1195  1  0.418200  0.970900  0.613100  0.499
  H  H1196  1  0.918200  0.529100  0.386900  0.499
  H  H1197  1  0.759400  0.076000  0.430200  0.499
  H  H1198  1  0.259400  0.424000  0.569800  0.499
  H  H1199  1  0.240600  0.924000  0.569800  0.499
  H  H1200  1  0.740600  0.576000  0.430200  0.499
  H  H1201  1  0.754400  0.067900  0.393100  0.499
  H  H1202  1  0.254400  0.432100  0.606900  0.499
  H  H1203  1  0.245600  0.932100  0.606900  0.499
  H  H1204  1  0.745600  0.567900  0.393100  0.499
  H  H1205  1  0.757300  0.039700  0.418400  0.499
  H  H1206  1  0.257300  0.460300  0.581600  0.499
  H  H1207  1  0.242700  0.960300  0.581600  0.499
  H  H1208  1  0.742700  0.539700  0.418400  0.499
  H  H1209  1  0.559500  0.044600  0.348300  0.5
  H  H1210  1  0.059500  0.455400  0.651700  0.5
  H  H1211  1  0.440500  0.955400  0.651700  0.5
  H  H1212  1  0.940500  0.544600  0.348300  0.5
  H  H1213  1  0.618600  0.033500  0.347900  0.5
  H  H1214  1  0.118600  0.466500  0.652100  0.5
  H  H1215  1  0.381400  0.966500  0.652100  0.5
  H  H1216  1  0.881400  0.533500  0.347900  0.5
  H  H1217  1  0.573900  0.008100  0.354700  0.5
  H  H1218  1  0.073900  0.491900  0.645300  0.5
  H  H1219  1  0.426100  0.991900  0.645300  0.5
  H  H1220  1  0.926100  0.508100  0.354700  0.5
  H  H1221  1  0.305300  0.754400  0.010900  0.5
  H  H1222  1  0.805300  0.745600  0.989100  0.5
  H  H1223  1  0.694700  0.245600  0.989100  0.5
  H  H1224  1  0.194700  0.254400  0.010900  0.5
  H  H1225  1  0.286400  0.757300  0.974800  0.5
  H  H1226  1  0.786400  0.742700  0.025200  0.5
  H  H1227  1  0.713600  0.242700  0.025200  0.5
  H  H1228  1  0.213600  0.257300  0.974800  0.5
  H  H1229  1  0.250600  0.739900  0.000400  0.5
  H  H1230  1  0.750600  0.760100  0.999600  0.5
  H  H1231  1  0.749400  0.260100  0.999600  0.5
  H  H1232  1  0.249400  0.239900  0.000400  0.5
  H  H1233  1  0.585400  0.110100  0.462800  0.501
  H  H1234  1  0.085400  0.389900  0.537200  0.501
  H  H1235  1  0.414600  0.889900  0.537200  0.501
  H  H1236  1  0.914600  0.610100  0.462800  0.501
  H  H1237  1  0.675500  0.112300  0.460200  0.501
  H  H1238  1  0.175500  0.387700  0.539800  0.501
  H  H1239  1  0.324500  0.887700  0.539800  0.501
  H  H1240  1  0.824500  0.612300  0.460200  0.501
  H  H1241  1  0.673700  0.052600  0.383800  0.501
  H  H1242  1  0.173700  0.447400  0.616200  0.501
  H  H1243  1  0.326300  0.947400  0.616200  0.501
  H  H1244  1  0.826300  0.552600  0.383800  0.501
  H  H1245  1  0.583600  0.050300  0.386300  0.501
  H  H1246  1  0.083600  0.449700  0.613700  0.501
  H  H1247  1  0.416400  0.949700  0.613700  0.501
  H  H1248  1  0.916400  0.550300  0.386300  0.501
  H  H1249  1  0.755400  0.097300  0.437700  0.501
  H  H1250  1  0.255400  0.402700  0.562300  0.501
  H  H1251  1  0.244600  0.902700  0.562300  0.501
  H  H1252  1  0.744600  0.597300  0.437700  0.501
  H  H1253  1  0.753700  0.091500  0.400000  0.501
  H  H1254  1  0.253700  0.408500  0.600000  0.501
  H  H1255  1  0.246300  0.908500  0.600000  0.501
  H  H1256  1  0.746300  0.591500  0.400000  0.501
  H  H1257  1  0.756000  0.061800  0.423600  0.501
  H  H1258  1  0.256000  0.438200  0.576400  0.501
  H  H1259  1  0.244000  0.938200  0.576400  0.501
  H  H1260  1  0.744000  0.561800  0.423600  0.501
  H  H1261  1  0.482900  0.154600  0.194300  0.5095
  H  H1262  1  0.982900  0.345400  0.805700  0.5095
  H  H1263  1  0.517100  0.845400  0.805700  0.5095
  H  H1264  1  0.017100  0.654600  0.194300  0.5095
  H  H1265  1  0.491500  0.162500  0.098500  0.5095
  H  H1266  1  0.991500  0.337500  0.901500  0.5095
  H  H1267  1  0.508500  0.837500  0.901500  0.5095
  H  H1268  1  0.008500  0.662500  0.098500  0.5095
  H  H1269  1  0.581600  0.160100  0.101400  0.5095
  H  H1270  1  0.081600  0.339900  0.898600  0.5095
  H  H1271  1  0.418400  0.839900  0.898600  0.5095
  H  H1272  1  0.918400  0.660100  0.101400  0.5095
  H  H1273  1  0.660200  0.161100  0.134500  0.5095
  H  H1274  1  0.160200  0.338900  0.865500  0.5095
  H  H1275  1  0.339800  0.838900  0.865500  0.5095
  H  H1276  1  0.839800  0.661100  0.134500  0.5095
  H  H1277  1  0.723000  0.115200  0.213200  0.5095
  H  H1278  1  0.223000  0.384800  0.786800  0.5095
  H  H1279  1  0.277000  0.884800  0.786800  0.5095
  H  H1280  1  0.777000  0.615200  0.213200  0.5095
  H  H1281  1  0.813000  0.115600  0.216700  0.5095
  H  H1282  1  0.313000  0.384400  0.783300  0.5095
  H  H1283  1  0.187000  0.884400  0.783300  0.5095
  H  H1284  1  0.687000  0.615600  0.216700  0.5095
  H  H1285  1  0.818700  0.188900  0.154500  0.5095
  H  H1286  1  0.318700  0.311100  0.845500  0.5095
  H  H1287  1  0.181300  0.811100  0.845500  0.5095
  H  H1288  1  0.681300  0.688900  0.154500  0.5095
  H  H1289  1  0.728700  0.188500  0.150900  0.5095
  H  H1290  1  0.228700  0.311500  0.849100  0.5095
  H  H1291  1  0.271300  0.811500  0.849100  0.5095
  H  H1292  1  0.771300  0.688500  0.150900  0.5095
  H  H1293  1  0.895000  0.135300  0.202300  0.5095
  H  H1294  1  0.395000  0.364700  0.797700  0.5095
  H  H1295  1  0.105000  0.864700  0.797700  0.5095
  H  H1296  1  0.605000  0.635300  0.202300  0.5095
  H  H1297  1  0.896000  0.172700  0.195100  0.5095
  H  H1298  1  0.396000  0.327300  0.804900  0.5095
  H  H1299  1  0.104000  0.827300  0.804900  0.5095
  H  H1300  1  0.604000  0.672700  0.195100  0.5095
  H  H1301  1  0.897900  0.147600  0.166400  0.5095
  H  H1302  1  0.397900  0.352400  0.833600  0.5095
  H  H1303  1  0.102100  0.852400  0.833600  0.5095
  H  H1304  1  0.602100  0.647600  0.166400  0.5095
  H  H1305  1  0.398300  0.975300  0.337100  0.5095
  H  H1306  1  0.898300  0.524700  0.662900  0.5095
  H  H1307  1  0.601700  0.024700  0.662900  0.5095
  H  H1308  1  0.101700  0.475300  0.337100  0.5095
  H  H1309  1  0.350400  0.984300  0.430200  0.5095
  H  H1310  1  0.850400  0.515700  0.569800  0.5095
  H  H1311  1  0.649600  0.015700  0.569800  0.5095
  H  H1312  1  0.149600  0.484300  0.430200  0.5095
  H  H1313  1  0.322900  0.939900  0.458700  0.5095
  H  H1314  1  0.822900  0.560100  0.541300  0.5095
  H  H1315  1  0.677100  0.060100  0.541300  0.5095
  H  H1316  1  0.177100  0.439900  0.458700  0.5095
  H  H1317  1  0.392200  0.881700  0.394200  0.5095
  H  H1318  1  0.892200  0.618300  0.605800  0.5095
  H  H1319  1  0.607800  0.118300  0.605800  0.5095
  H  H1320  1  0.107800  0.381700  0.394200  0.5095
  H  H1321  1  0.419800  0.926100  0.365600  0.5095
  H  H1322  1  0.919800  0.573900  0.634400  0.5095
  H  H1323  1  0.580200  0.073900  0.634400  0.5095
  H  H1324  1  0.080200  0.426100  0.365600  0.5095
  H  H1325  1  0.347600  0.857900  0.436700  0.5095
  H  H1326  1  0.847600  0.642100  0.563300  0.5095
  H  H1327  1  0.652400  0.142100  0.563300  0.5095
  H  H1328  1  0.152400  0.357900  0.436700  0.5095
  H  H1329  1  0.297700  0.877500  0.448000  0.5095
  H  H1330  1  0.797700  0.622500  0.552000  0.5095
  H  H1331  1  0.702300  0.122500  0.552000  0.5095
  H  H1332  1  0.202300  0.377500  0.448000  0.5095
  H  H1333  1  0.349100  0.878100  0.469200  0.5095
  H  H1334  1  0.849100  0.621900  0.530800  0.5095
  H  H1335  1  0.650900  0.121900  0.530800  0.5095
  H  H1336  1  0.150900  0.378100  0.469200  0.5095
  H  H1337  1  0.411000  0.014600  0.291700  0.5095
  H  H1338  1  0.911000  0.485400  0.708300  0.5095
  H  H1339  1  0.589000  0.985400  0.708300  0.5095
  H  H1340  1  0.089000  0.514600  0.291700  0.5095
  H  H1341  1  0.448600  0.061900  0.274100  0.5095
  H  H1342  1  0.948600  0.438100  0.725900  0.5095
  H  H1343  1  0.551400  0.938100  0.725900  0.5095
  H  H1344  1  0.051400  0.561900  0.274100  0.5095
  H  H1345  1  0.514100  0.075100  0.360700  0.5095
  H  H1346  1  0.014100  0.424900  0.639300  0.5095
  H  H1347  1  0.485900  0.924900  0.639300  0.5095
  H  H1348  1  0.985900  0.575100  0.360700  0.5095
  H  H1349  1  0.518600  0.090000  0.260600  0.5095
  H  H1350  1  0.018600  0.410000  0.739400  0.5095
  H  H1351  1  0.481400  0.910000  0.739400  0.5095
  H  H1352  1  0.981400  0.590000  0.260600  0.5095
  H  H1353  1  0.505500  0.124700  0.350500  0.5095
  H  H1354  1  0.005500  0.375300  0.649500  0.5095
  H  H1355  1  0.494500  0.875300  0.649500  0.5095
  H  H1356  1  0.994500  0.624700  0.350500  0.5095
  H  H1357  1  0.547700  0.171400  0.335100  0.5095
  H  H1358  1  0.047700  0.328600  0.664900  0.5095
  H  H1359  1  0.452300  0.828600  0.664900  0.5095
  H  H1360  1  0.952300  0.671400  0.335100  0.5095
  H  H1361  1  0.594600  0.204100  0.290500  0.5095
  H  H1362  1  0.094600  0.295900  0.709500  0.5095
  H  H1363  1  0.405400  0.795900  0.709500  0.5095
  H  H1364  1  0.905400  0.704100  0.290500  0.5095
  H  H1365  1  0.617400  0.210600  0.195400  0.5095
  H  H1366  1  0.117400  0.289400  0.804600  0.5095
  H  H1367  1  0.382600  0.789400  0.804600  0.5095
  H  H1368  1  0.882600  0.710600  0.195400  0.5095
  H  H1369  1  0.666100  0.253600  0.177300  0.5095
  H  H1370  1  0.166100  0.246400  0.822700  0.5095
  H  H1371  1  0.333900  0.746400  0.822700  0.5095
  H  H1372  1  0.833900  0.753600  0.177300  0.5095
  H  H1373  1  0.727000  0.265400  0.265400  0.5095
  H  H1374  1  0.227000  0.234600  0.734600  0.5095
  H  H1375  1  0.273000  0.734600  0.734600  0.5095
  H  H1376  1  0.773000  0.765400  0.265400  0.5095
  H  H1377  1  0.678300  0.222400  0.283700  0.5095
  H  H1378  1  0.178300  0.277600  0.716300  0.5095
  H  H1379  1  0.321700  0.777600  0.716300  0.5095
  H  H1380  1  0.821700  0.722400  0.283700  0.5095
  H  H1381  1  0.760000  0.285100  0.193900  0.5095
  H  H1382  1  0.260000  0.214900  0.806100  0.5095
  H  H1383  1  0.240000  0.714900  0.806100  0.5095
  H  H1384  1  0.740000  0.785100  0.193900  0.5095
  H  H1385  1  0.746900  0.303900  0.226200  0.5095
  H  H1386  1  0.246900  0.196100  0.773800  0.5095
  H  H1387  1  0.253100  0.696100  0.773800  0.5095
  H  H1388  1  0.753100  0.803900  0.226200  0.5095
  H  H1389  1  0.709300  0.306800  0.196100  0.5095
  H  H1390  1  0.209300  0.193200  0.803900  0.5095
  H  H1391  1  0.290700  0.693200  0.803900  0.5095
  H  H1392  1  0.790700  0.806800  0.196100  0.5095
  H  H1393  1  0.566600  0.880300  0.337800  0.5095
  H  H1394  1  0.066600  0.619700  0.662200  0.5095
  H  H1395  1  0.433400  0.119700  0.662200  0.5095
  H  H1396  1  0.933400  0.380300  0.337800  0.5095
  H  H1397  1  0.639800  0.965600  0.336200  0.5095
  H  H1398  1  0.139800  0.534400  0.663800  0.5095
  H  H1399  1  0.360200  0.034400  0.663800  0.5095
  H  H1400  1  0.860200  0.465600  0.336200  0.5095
  H  H1401  1  0.684100  0.949900  0.290200  0.5095
  H  H1402  1  0.184100  0.550100  0.709800  0.5095
  H  H1403  1  0.315900  0.050100  0.709800  0.5095
  H  H1404  1  0.815900  0.449900  0.290200  0.5095
  H  H1405  1  0.521900  0.902400  0.435000  0.5095
  H  H1406  1  0.021900  0.597600  0.565000  0.5095
  H  H1407  1  0.478100  0.097600  0.565000  0.5095
  H  H1408  1  0.978100  0.402400  0.435000  0.5095
  H  H1409  1  0.570600  0.889500  0.389800  0.5095
  H  H1410  1  0.070600  0.610500  0.610200  0.5095
  H  H1411  1  0.429400  0.110500  0.610200  0.5095
  H  H1412  1  0.929400  0.389500  0.389800  0.5095
  H  H1413  1  0.559100  0.980600  0.359700  0.5095
  H  H1414  1  0.059100  0.519400  0.640300  0.5095
  H  H1415  1  0.440900  0.019400  0.640300  0.5095
  H  H1416  1  0.940900  0.480600  0.359700  0.5095
  H  H1417  1  0.479100  0.944700  0.469700  0.5095
  H  H1418  1  0.979100  0.555300  0.530300  0.5095
  H  H1419  1  0.520900  0.055300  0.530300  0.5095
  H  H1420  1  0.020900  0.444700  0.469700  0.5095
  H  H1421  1  0.704500  0.905000  0.248000  0.5095
  H  H1422  1  0.204500  0.595000  0.752000  0.5095
  H  H1423  1  0.295500  0.095000  0.752000  0.5095
  H  H1424  1  0.795500  0.405000  0.248000  0.5095
  H  H1425  1  0.414400  0.951100  0.495500  0.5095
  H  H1426  1  0.914400  0.548900  0.504500  0.5095
  H  H1427  1  0.585600  0.048900  0.504500  0.5095
  H  H1428  1  0.085600  0.451100  0.495500  0.5095
  H  H1429  1  0.363200  0.966900  0.538500  0.5095
  H  H1430  1  0.863200  0.533100  0.461500  0.5095
  H  H1431  1  0.636800  0.033100  0.461500  0.5095
  H  H1432  1  0.136800  0.466900  0.538500  0.5095
  H  H1433  1  0.396200  0.059500  0.520500  0.5095
  H  H1434  1  0.896200  0.440500  0.479500  0.5095
  H  H1435  1  0.603800  0.940500  0.479500  0.5095
  H  H1436  1  0.103800  0.559500  0.520500  0.5095
  H  H1437  1  0.447500  0.043800  0.477400  0.5095
  H  H1438  1  0.947500  0.456200  0.522600  0.5095
  H  H1439  1  0.552500  0.956200  0.522600  0.5095
  H  H1440  1  0.052500  0.543800  0.477400  0.5095
  H  H1441  1  0.342600  0.048200  0.564400  0.5095
  H  H1442  1  0.842600  0.451800  0.435600  0.5095
  H  H1443  1  0.657400  0.951800  0.435600  0.5095
  H  H1444  1  0.157400  0.548200  0.564400  0.5095
  H  H1445  1  0.356900  0.015700  0.581800  0.5095
  H  H1446  1  0.856900  0.484300  0.418200  0.5095
  H  H1447  1  0.643100  0.984300  0.418200  0.5095
  H  H1448  1  0.143100  0.515700  0.581800  0.5095
  H  H1449  1  0.306800  0.017500  0.559600  0.5095
  H  H1450  1  0.806800  0.482500  0.440400  0.5095
  H  H1451  1  0.693200  0.982500  0.440400  0.5095
  H  H1452  1  0.193200  0.517500  0.559600  0.5095
  H  H1453  1  0.707700  0.897400  0.200600  0.5095
  H  H1454  1  0.207700  0.602600  0.799400  0.5095
  H  H1455  1  0.292300  0.102600  0.799400  0.5095
  H  H1456  1  0.792300  0.397400  0.200600  0.5095
  H  H1457  1  0.741900  0.880200  0.151900  0.5095
  H  H1458  1  0.241900  0.619800  0.848100  0.5095
  H  H1459  1  0.258100  0.119800  0.848100  0.5095
  H  H1460  1  0.758100  0.380200  0.151900  0.5095
  H  H1461  1  0.715200  0.788400  0.176400  0.5095
  H  H1462  1  0.215200  0.711600  0.823600  0.5095
  H  H1463  1  0.284800  0.211600  0.823600  0.5095
  H  H1464  1  0.784800  0.288400  0.176400  0.5095
  H  H1465  1  0.681000  0.805500  0.225100  0.5095
  H  H1466  1  0.181000  0.694500  0.774900  0.5095
  H  H1467  1  0.319000  0.194500  0.774900  0.5095
  H  H1468  1  0.819000  0.305500  0.225100  0.5095
  H  H1469  1  0.730800  0.824600  0.110800  0.5095
  H  H1470  1  0.230800  0.675400  0.889200  0.5095
  H  H1471  1  0.269200  0.175400  0.889200  0.5095
  H  H1472  1  0.769200  0.324600  0.110800  0.5095
  H  H1473  1  0.764300  0.798700  0.129400  0.5095
  H  H1474  1  0.264300  0.701300  0.870600  0.5095
  H  H1475  1  0.235700  0.201300  0.870600  0.5095
  H  H1476  1  0.735700  0.298700  0.129400  0.5095
  H  H1477  1  0.787000  0.833600  0.123600  0.5095
  H  H1478  1  0.287000  0.666400  0.876400  0.5095
  H  H1479  1  0.213000  0.166400  0.876400  0.5095
  H  H1480  1  0.713000  0.333600  0.123600  0.5095
  H  H1481  1  0.657700  0.800000  0.359000  0.5095
  H  H1482  1  0.157700  0.700000  0.641000  0.5095
  H  H1483  1  0.342300  0.200000  0.641000  0.5095
  H  H1484  1  0.842300  0.300000  0.359000  0.5095
  H  H1485  1  0.482400  0.827300  0.302200  0.5095
  H  H1486  1  0.982400  0.672700  0.697800  0.5095
  H  H1487  1  0.517600  0.172700  0.697800  0.5095
  H  H1488  1  0.017600  0.327300  0.302200  0.5095
  H  H1489  1  0.490400  0.787000  0.389300  0.5095
  H  H1490  1  0.990400  0.713000  0.610700  0.5095
  H  H1491  1  0.509600  0.213000  0.610700  0.5095
  H  H1492  1  0.009600  0.287000  0.389300  0.5095
  H  H1493  1  0.580600  0.787600  0.386500  0.5095
  H  H1494  1  0.080600  0.712400  0.613500  0.5095
  H  H1495  1  0.419400  0.212400  0.613500  0.5095
  H  H1496  1  0.919400  0.287600  0.386500  0.5095
  H  H1497  1  0.726200  0.785900  0.275700  0.5095
  H  H1498  1  0.226200  0.714100  0.724300  0.5095
  H  H1499  1  0.273800  0.214100  0.724300  0.5095
  H  H1500  1  0.773800  0.285900  0.275700  0.5095
  H  H1501  1  0.816300  0.787400  0.275200  0.5095
  H  H1502  1  0.316300  0.712600  0.724800  0.5095
  H  H1503  1  0.183700  0.212600  0.724800  0.5095
  H  H1504  1  0.683700  0.287400  0.275200  0.5095
  H  H1505  1  0.815100  0.848500  0.350400  0.5095
  H  H1506  1  0.315100  0.651500  0.649600  0.5095
  H  H1507  1  0.184900  0.151500  0.649600  0.5095
  H  H1508  1  0.684900  0.348500  0.350400  0.5095
  H  H1509  1  0.725000  0.847100  0.351000  0.5095
  H  H1510  1  0.225000  0.652900  0.649000  0.5095
  H  H1511  1  0.275000  0.152900  0.649000  0.5095
  H  H1512  1  0.775000  0.347100  0.351000  0.5095
  H  H1513  1  0.895900  0.833800  0.328800  0.5095
  H  H1514  1  0.395900  0.666200  0.671200  0.5095
  H  H1515  1  0.104100  0.166200  0.671200  0.5095
  H  H1516  1  0.604100  0.333800  0.328800  0.5095
  H  H1517  1  0.894700  0.828100  0.291100  0.5095
  H  H1518  1  0.394700  0.671900  0.708900  0.5095
  H  H1519  1  0.105300  0.171900  0.708900  0.5095
  H  H1520  1  0.605300  0.328100  0.291100  0.5095
  H  H1521  1  0.897800  0.798400  0.314600  0.5095
  H  H1522  1  0.397800  0.701600  0.685400  0.5095
  H  H1523  1  0.102200  0.201600  0.685400  0.5095
  H  H1524  1  0.602200  0.298400  0.314600  0.5095
  H  H1525  1  0.648700  0.745300  0.212100  0.5095
  H  H1526  1  0.148700  0.754700  0.787900  0.5095
  H  H1527  1  0.351300  0.254700  0.787900  0.5095
  H  H1528  1  0.851300  0.245300  0.212100  0.5095
  H  H1529  1  0.667000  0.692300  0.224400  0.5095
  H  H1530  1  0.167000  0.807700  0.775600  0.5095
  H  H1531  1  0.333000  0.307700  0.775600  0.5095
  H  H1532  1  0.833000  0.192300  0.224400  0.5095
  H  H1533  1  0.596200  0.703500  0.309800  0.5095
  H  H1534  1  0.096200  0.796500  0.690200  0.5095
  H  H1535  1  0.403800  0.296500  0.690200  0.5095
  H  H1536  1  0.903800  0.203500  0.309800  0.5095
  H  H1537  1  0.577900  0.756500  0.297500  0.5095
  H  H1538  1  0.077900  0.743500  0.702500  0.5095
  H  H1539  1  0.422100  0.243500  0.702500  0.5095
  H  H1540  1  0.922100  0.256500  0.297500  0.5095
  H  H1541  1  0.658500  0.657300  0.298800  0.5095
  H  H1542  1  0.158500  0.842700  0.701200  0.5095
  H  H1543  1  0.341500  0.342700  0.701200  0.5095
  H  H1544  1  0.841500  0.157300  0.298800  0.5095
  H  H1545  1  0.674200  0.650500  0.262600  0.5095
  H  H1546  1  0.174200  0.849500  0.737400  0.5095
  H  H1547  1  0.325800  0.349500  0.737400  0.5095
  H  H1548  1  0.825800  0.150500  0.262600  0.5095
  H  H1549  1  0.616000  0.644900  0.274100  0.5095
  H  H1550  1  0.116000  0.855100  0.725900  0.5095
  H  H1551  1  0.384000  0.355100  0.725900  0.5095
  H  H1552  1  0.884000  0.144900  0.274100  0.5095
  H  H1553  1  0.560700  0.773400  0.206600  0.5095
  H  H1554  1  0.060700  0.726600  0.793400  0.5095
  H  H1555  1  0.439300  0.226600  0.793400  0.5095
  H  H1556  1  0.939300  0.273400  0.206600  0.5095
  H  H1557  1  0.529200  0.893000  0.237900  0.5095
  H  H1558  1  0.029200  0.607000  0.762100  0.5095
  H  H1559  1  0.470800  0.107000  0.762100  0.5095
  H  H1560  1  0.970800  0.393000  0.237900  0.5095
  H  H1561  1  0.473400  0.852900  0.156900  0.5095
  H  H1562  1  0.973400  0.647100  0.843100  0.5095
  H  H1563  1  0.526600  0.147100  0.843100  0.5095
  H  H1564  1  0.026600  0.352900  0.156900  0.5095
  H  H1565  1  0.514100  0.804900  0.169600  0.5095
  H  H1566  1  0.014100  0.695100  0.830400  0.5095
  H  H1567  1  0.485900  0.195100  0.830400  0.5095
  H  H1568  1  0.985900  0.304900  0.169600  0.5095
  H  H1569  1  0.420600  0.975500  0.212000  0.5095
  H  H1570  1  0.920600  0.524500  0.788000  0.5095
  H  H1571  1  0.579400  0.024500  0.788000  0.5095
  H  H1572  1  0.079400  0.475500  0.212000  0.5095
  H  H1573  1  0.454900  0.927200  0.230100  0.5095
  H  H1574  1  0.954900  0.572800  0.769900  0.5095
  H  H1575  1  0.545100  0.072800  0.769900  0.5095
  H  H1576  1  0.045100  0.427200  0.230100  0.5095
  H  H1577  1  0.489600  0.902400  0.140800  0.5095
  H  H1578  1  0.989600  0.597600  0.859200  0.5095
  H  H1579  1  0.510400  0.097600  0.859200  0.5095
  H  H1580  1  0.010400  0.402400  0.140800  0.5095
  H  H1581  1  0.392300  0.008200  0.166600  0.5095
  H  H1582  1  0.892300  0.491800  0.833400  0.5095
  H  H1583  1  0.607700  0.991800  0.833400  0.5095
  H  H1584  1  0.107700  0.508200  0.166600  0.5095
  H  H1585  1  0.406300  0.056100  0.140800  0.5095
  H  H1586  1  0.906300  0.443900  0.859200  0.5095
  H  H1587  1  0.593700  0.943900  0.859200  0.5095
  H  H1588  1  0.093700  0.556100  0.140800  0.5095
  H  H1589  1  0.379600  0.101400  0.113300  0.5095
  H  H1590  1  0.879600  0.398600  0.886700  0.5095
  H  H1591  1  0.620400  0.898600  0.886700  0.5095
  H  H1592  1  0.120400  0.601400  0.113300  0.5095
  H  H1593  1  0.318000  0.045300  0.044100  0.5095
  H  H1594  1  0.818000  0.454700  0.955900  0.5095
  H  H1595  1  0.682000  0.954700  0.955900  0.5095
  H  H1596  1  0.182000  0.545300  0.044100  0.5095
  H  H1597  1  0.344700  0.999900  0.071500  0.5095
  H  H1598  1  0.844700  0.500100  0.928500  0.5095
  H  H1599  1  0.655300  0.000100  0.928500  0.5095
  H  H1600  1  0.155300  0.499900  0.071500  0.5095
  H  H1601  1  0.340300  0.126600  0.069600  0.5095
  H  H1602  1  0.840300  0.373400  0.930400  0.5095
  H  H1603  1  0.659700  0.873400  0.930400  0.5095
  H  H1604  1  0.159700  0.626600  0.069600  0.5095
  H  H1605  1  0.292500  0.107400  0.054800  0.5095
  H  H1606  1  0.792500  0.392600  0.945200  0.5095
  H  H1607  1  0.707500  0.892600  0.945200  0.5095
  H  H1608  1  0.207500  0.607400  0.054800  0.5095
  H  H1609  1  0.347000  0.107400  0.036800  0.5095
  H  H1610  1  0.847000  0.392600  0.963200  0.5095
  H  H1611  1  0.653000  0.892600  0.963200  0.5095
  H  H1612  1  0.153000  0.607400  0.036800  0.5095
  H  H1613  1  0.563400  0.096300  0.162200  0.5095
  H  H1614  1  0.063400  0.403700  0.837800  0.5095
  H  H1615  1  0.436600  0.903700  0.837800  0.5095
  H  H1616  1  0.936600  0.596300  0.162200  0.5095
  H  H1617  1  0.619900  0.006400  0.166500  0.5095
  H  H1618  1  0.119900  0.493600  0.833500  0.5095
  H  H1619  1  0.380100  0.993600  0.833500  0.5095
  H  H1620  1  0.880100  0.506400  0.166500  0.5095
  H  H1621  1  0.657900  0.018300  0.215700  0.5095
  H  H1622  1  0.157900  0.481700  0.784300  0.5095
  H  H1623  1  0.342100  0.981700  0.784300  0.5095
  H  H1624  1  0.842100  0.518300  0.215700  0.5095
  H  H1625  1  0.559800  0.893000  0.028700  0.569
  H  H1626  1  0.059800  0.607000  0.971300  0.569
  H  H1627  1  0.440200  0.107000  0.971300  0.569
  H  H1628  1  0.940200  0.393000  0.028700  0.569
  H  H1629  1  0.649900  0.889500  0.029300  0.569
  H  H1630  1  0.149900  0.610500  0.970700  0.569
  H  H1631  1  0.350100  0.110500  0.970700  0.569
  H  H1632  1  0.850100  0.389500  0.029300  0.569
  H  H1633  1  0.653300  0.935500  0.114400  0.569
  H  H1634  1  0.153300  0.564500  0.885600  0.569
  H  H1635  1  0.346700  0.064500  0.885600  0.569
  H  H1636  1  0.846700  0.435500  0.114400  0.569
  H  H1637  1  0.563300  0.939100  0.114000  0.569
  H  H1638  1  0.063300  0.560900  0.886000  0.569
  H  H1639  1  0.436700  0.060900  0.886000  0.569
  H  H1640  1  0.936700  0.439100  0.114000  0.569
  H  H1641  1  0.732800  0.920600  0.091300  0.569
  H  H1642  1  0.232800  0.579400  0.908700  0.569
  H  H1643  1  0.267200  0.079400  0.908700  0.569
  H  H1644  1  0.767200  0.420600  0.091300  0.569
  H  H1645  1  0.732800  0.922000  0.053200  0.569
  H  H1646  1  0.232800  0.578000  0.946800  0.569
  H  H1647  1  0.267200  0.078000  0.946800  0.569
  H  H1648  1  0.767200  0.422000  0.053200  0.569
  H  H1649  1  0.730500  0.888300  0.070800  0.569
  H  H1650  1  0.230500  0.611700  0.929200  0.569
  H  H1651  1  0.269500  0.111700  0.929200  0.569
  H  H1652  1  0.769500  0.388300  0.070800  0.569
  H  H1653  1  0.665300  0.060300  0.263300  0.612
  H  H1654  1  0.165300  0.439700  0.736700  0.612
  H  H1655  1  0.334700  0.939700  0.736700  0.612
  H  H1656  1  0.834700  0.560300  0.263300  0.612
  H  H1657  1  0.708400  0.152800  0.275300  0.612
  H  H1658  1  0.208400  0.347200  0.724700  0.612
  H  H1659  1  0.291600  0.847200  0.724700  0.612
  H  H1660  1  0.791600  0.652800  0.275300  0.612
  H  H1661  1  0.720900  0.173100  0.326700  0.612
  H  H1662  1  0.220900  0.326900  0.673300  0.612
  H  H1663  1  0.279100  0.826900  0.673300  0.612
  H  H1664  1  0.779100  0.673100  0.326700  0.612
  H  H1665  1  0.640500  0.098800  0.362900  0.612
  H  H1666  1  0.140500  0.401200  0.637100  0.612
  H  H1667  1  0.359500  0.901200  0.637100  0.612
  H  H1668  1  0.859500  0.598800  0.362900  0.612
  H  H1669  1  0.628000  0.078400  0.311600  0.612
  H  H1670  1  0.128000  0.421600  0.688400  0.612
  H  H1671  1  0.372000  0.921600  0.688400  0.612
  H  H1672  1  0.872000  0.578400  0.311600  0.612
  H  H1673  1  0.717900  0.166700  0.383500  0.612
  H  H1674  1  0.217900  0.333300  0.616500  0.612
  H  H1675  1  0.282100  0.833300  0.616500  0.612
  H  H1676  1  0.782100  0.666700  0.383500  0.612
  H  H1677  1  0.695800  0.134400  0.398200  0.612
  H  H1678  1  0.195800  0.365600  0.601800  0.612
  H  H1679  1  0.304200  0.865600  0.601800  0.612
  H  H1680  1  0.804200  0.634400  0.398200  0.612
  H  H1681  1  0.657300  0.162900  0.389800  0.612
  H  H1682  1  0.157300  0.337100  0.610200  0.612
  H  H1683  1  0.342700  0.837100  0.610200  0.612
  H  H1684  1  0.842700  0.662900  0.389800  0.612
  H  H1685  1  0.494300  0.714700  0.228300  0.64
  H  H1686  1  0.994300  0.785300  0.771700  0.64
  H  H1687  1  0.505700  0.285300  0.771700  0.64
  H  H1688  1  0.005700  0.214700  0.228300  0.64
  H  H1689  1  0.515800  0.704300  0.262300  0.64
  H  H1690  1  0.015800  0.795700  0.737700  0.64
  H  H1691  1  0.484200  0.295700  0.737700  0.64
  H  H1692  1  0.984200  0.204300  0.262300  0.64
  H  H1693  1  0.550500  0.725900  0.239500  0.64
  H  H1694  1  0.050500  0.774100  0.760500  0.64
  H  H1695  1  0.449500  0.274100  0.760500  0.64
  H  H1696  1  0.949500  0.225900  0.239500  0.64
  C  C1697  1  0.317880  0.218640  0.240190  1.0
  C  C1698  1  0.817880  0.281360  0.759810  1.0
  C  C1699  1  0.682120  0.781360  0.759810  1.0
  C  C1700  1  0.182120  0.718640  0.240190  1.0
  C  C1701  1  0.324100  0.227710  0.208550  1.0
  C  C1702  1  0.824100  0.272290  0.791450  1.0
  C  C1703  1  0.675900  0.772290  0.791450  1.0
  C  C1704  1  0.175900  0.727710  0.208550  1.0
  C  C1705  1  0.354200  0.254220  0.201100  1.0
  C  C1706  1  0.854200  0.245780  0.798900  1.0
  C  C1707  1  0.645800  0.745780  0.798900  1.0
  C  C1708  1  0.145800  0.754220  0.201100  1.0
  C  C1709  1  0.378560  0.272220  0.224990  1.0
  C  C1710  1  0.878560  0.227780  0.775010  1.0
  C  C1711  1  0.621440  0.727780  0.775010  1.0
  C  C1712  1  0.121440  0.772220  0.224990  1.0
  C  C1713  1  0.372100  0.262750  0.256640  1.0
  C  C1714  1  0.872100  0.237250  0.743360  1.0
  C  C1715  1  0.627900  0.737250  0.743360  1.0
  C  C1716  1  0.127900  0.762750  0.256640  1.0
  C  C1717  1  0.342000  0.236260  0.264240  1.0
  C  C1718  1  0.842000  0.263740  0.735760  1.0
  C  C1719  1  0.658000  0.763740  0.735760  1.0
  C  C1720  1  0.158000  0.736260  0.264240  1.0
  C  C1721  1  0.409900  0.301280  0.216940  1.0
  C  C1722  1  0.909900  0.198720  0.783060  1.0
  C  C1723  1  0.590100  0.698720  0.783060  1.0
  C  C1724  1  0.090100  0.801280  0.216940  1.0
  C  C1725  1  0.266600  0.187500  0.273700  1.0
  C  C1726  1  0.766600  0.312500  0.726300  1.0
  C  C1727  1  0.733400  0.812500  0.726300  1.0
  C  C1728  1  0.233400  0.687500  0.273700  1.0
  C  C1729  1  0.237200  0.158700  0.281720  1.0
  C  C1730  1  0.737200  0.341300  0.718280  1.0
  C  C1731  1  0.762800  0.841300  0.718280  1.0
  C  C1732  1  0.262800  0.658700  0.281720  1.0
  C  C1733  1  0.220000  0.155100  0.312800  1.0
  C  C1734  1  0.720000  0.344900  0.687200  1.0
  C  C1735  1  0.780000  0.844900  0.687200  1.0
  C  C1736  1  0.280000  0.655100  0.312800  1.0
  C  C1737  1  0.193500  0.128400  0.319800  1.0
  C  C1738  1  0.693500  0.371600  0.680200  1.0
  C  C1739  1  0.806500  0.871600  0.680200  1.0
  C  C1740  1  0.306500  0.628400  0.319800  1.0
  C  C1741  1  0.185000  0.105100  0.296870  1.0
  C  C1742  1  0.685000  0.394900  0.703130  1.0
  C  C1743  1  0.815000  0.894900  0.703130  1.0
  C  C1744  1  0.315000  0.605100  0.296870  1.0
  C  C1745  1  0.203200  0.110620  0.266890  1.0
  C  C1746  1  0.703200  0.389380  0.733110  1.0
  C  C1747  1  0.796800  0.889380  0.733110  1.0
  C  C1748  1  0.296800  0.610620  0.266890  1.0
  C  C1749  1  0.167300  0.061200  0.335000  1.0
  C  C1750  1  0.667300  0.438800  0.665000  1.0
  C  C1751  1  0.832700  0.938800  0.665000  1.0
  C  C1752  1  0.332700  0.561200  0.335000  1.0
  C  C1753  1  0.160000  0.074600  0.305200  1.0
  C  C1754  1  0.660000  0.425400  0.694800  1.0
  C  C1755  1  0.840000  0.925400  0.694800  1.0
  C  C1756  1  0.340000  0.574600  0.305200  1.0
  C  C1757  1  0.129600  0.056400  0.284100  1.0
  C  C1758  1  0.629600  0.443600  0.715900  1.0
  C  C1759  1  0.870400  0.943600  0.715900  1.0
  C  C1760  1  0.370400  0.556400  0.284100  1.0
  C  C1761  1  0.111200  0.027400  0.292900  1.0
  C  C1762  1  0.611200  0.472600  0.707100  1.0
  C  C1763  1  0.888800  0.972600  0.707100  1.0
  C  C1764  1  0.388800  0.527400  0.292900  1.0
  C  C1765  1  0.120600  0.016600  0.323000  1.0
  C  C1766  1  0.620600  0.483400  0.677000  1.0
  C  C1767  1  0.879400  0.983400  0.677000  1.0
  C  C1768  1  0.379400  0.516600  0.323000  1.0
  C  C1769  1  0.102700  0.985500  0.334000  1.0
  C  C1770  1  0.602700  0.514500  0.666000  1.0
  C  C1771  1  0.897300  0.014500  0.666000  1.0
  C  C1772  1  0.397300  0.485500  0.334000  1.0
  C  C1773  1  0.094520  0.946480  0.373260  1.0
  C  C1774  1  0.594520  0.553520  0.626740  1.0
  C  C1775  1  0.905480  0.053520  0.626740  1.0
  C  C1776  1  0.405480  0.446480  0.373260  1.0
  C  C1777  1  0.069090  0.942480  0.402230  1.0
  C  C1778  1  0.569090  0.557520  0.597770  1.0
  C  C1779  1  0.930910  0.057520  0.597770  1.0
  C  C1780  1  0.430910  0.442480  0.402230  1.0
  C  C1781  1  0.063490  0.912090  0.415030  1.0
  C  C1782  1  0.563490  0.587910  0.584970  1.0
  C  C1783  1  0.936510  0.087910  0.584970  1.0
  C  C1784  1  0.436510  0.412090  0.415030  1.0
  C  C1785  1  0.083020  0.885130  0.399240  1.0
  C  C1786  1  0.583020  0.614870  0.600760  1.0
  C  C1787  1  0.916980  0.114870  0.600760  1.0
  C  C1788  1  0.416980  0.385130  0.399240  1.0
  C  C1789  1  0.108590  0.889540  0.370220  1.0
  C  C1790  1  0.608590  0.610460  0.629780  1.0
  C  C1791  1  0.891410  0.110460  0.629780  1.0
  C  C1792  1  0.391410  0.389540  0.370220  1.0
  C  C1793  1  0.114320  0.919870  0.357300  1.0
  C  C1794  1  0.614320  0.580130  0.642700  1.0
  C  C1795  1  0.885680  0.080130  0.642700  1.0
  C  C1796  1  0.385680  0.419870  0.357300  1.0
  C  C1797  1  0.075780  0.852280  0.412730  1.0
  C  C1798  1  0.575780  0.647720  0.587270  1.0
  C  C1799  1  0.924220  0.147720  0.587270  1.0
  C  C1800  1  0.424220  0.352280  0.412730  1.0
  C  C1801  1  0.365110  0.130580  0.273940  1.0
  C  C1802  1  0.865110  0.369420  0.726060  1.0
  C  C1803  1  0.634890  0.869420  0.726060  1.0
  C  C1804  1  0.134890  0.630580  0.273940  1.0
  C  C1805  1  0.396270  0.157260  0.269170  1.0
  C  C1806  1  0.896270  0.342740  0.730830  1.0
  C  C1807  1  0.603730  0.842740  0.730830  1.0
  C  C1808  1  0.103730  0.657260  0.269170  1.0
  C  C1809  1  0.413780  0.175150  0.295140  1.0
  C  C1810  1  0.913780  0.324850  0.704860  1.0
  C  C1811  1  0.586220  0.824850  0.704860  1.0
  C  C1812  1  0.086220  0.675150  0.295140  1.0
  C  C1813  1  0.400600  0.166840  0.326330  1.0
  C  C1814  1  0.900600  0.333160  0.673670  1.0
  C  C1815  1  0.599400  0.833160  0.673670  1.0
  C  C1816  1  0.099400  0.666840  0.326330  1.0
  C  C1817  1  0.369420  0.139930  0.330740  1.0
  C  C1818  1  0.869420  0.360070  0.669260  1.0
  C  C1819  1  0.630580  0.860070  0.669260  1.0
  C  C1820  1  0.130580  0.639930  0.330740  1.0
  C  C1821  1  0.351780  0.121950  0.304860  1.0
  C  C1822  1  0.851780  0.378050  0.695140  1.0
  C  C1823  1  0.648220  0.878050  0.695140  1.0
  C  C1824  1  0.148220  0.621950  0.304860  1.0
  C  C1825  1  0.418500  0.186650  0.354250  1.0
  C  C1826  1  0.918500  0.313350  0.645750  1.0
  C  C1827  1  0.581500  0.813350  0.645750  1.0
  C  C1828  1  0.081500  0.686650  0.354250  1.0
  C  C1829  1  0.335100  0.086000  0.245250  1.0
  C  C1830  1  0.835100  0.414000  0.754750  1.0
  C  C1831  1  0.664900  0.914000  0.754750  1.0
  C  C1832  1  0.164900  0.586000  0.245250  1.0
  C  C1833  1  0.306600  0.070960  0.218800  1.0
  C  C1834  1  0.806600  0.429040  0.781200  1.0
  C  C1835  1  0.693400  0.929040  0.781200  1.0
  C  C1836  1  0.193400  0.570960  0.218800  1.0
  C  C1837  1  0.306200  0.038800  0.214500  1.0
  C  C1838  1  0.806200  0.461200  0.785500  1.0
  C  C1839  1  0.693800  0.961200  0.785500  1.0
  C  C1840  1  0.193800  0.538800  0.214500  1.0
  C  C1841  1  0.281900  0.026180  0.188600  1.0
  C  C1842  1  0.781900  0.473820  0.811400  1.0
  C  C1843  1  0.718100  0.973820  0.811400  1.0
  C  C1844  1  0.218100  0.526180  0.188600  1.0
  C  C1845  1  0.259900  0.045990  0.165970  1.0
  C  C1846  1  0.759900  0.454010  0.834030  1.0
  C  C1847  1  0.740100  0.954010  0.834030  1.0
  C  C1848  1  0.240100  0.545990  0.165970  1.0
  C  C1849  1  0.260200  0.078480  0.172930  1.0
  C  C1850  1  0.760200  0.421520  0.827070  1.0
  C  C1851  1  0.739800  0.921520  0.827070  1.0
  C  C1852  1  0.239800  0.578480  0.172930  1.0
  C  C1853  1  0.201900  0.007900  0.137500  1.0
  C  C1854  1  0.701900  0.492100  0.862500  1.0
  C  C1855  1  0.798100  0.992100  0.862500  1.0
  C  C1856  1  0.298100  0.507900  0.137500  1.0
  C  C1857  1  0.231700  0.035200  0.137100  1.0
  C  C1858  1  0.731700  0.464800  0.862900  1.0
  C  C1859  1  0.768300  0.964800  0.862900  1.0
  C  C1860  1  0.268300  0.535200  0.137100  1.0
  C  C1861  1  0.235800  0.051400  0.109000  1.0
  C  C1862  1  0.735800  0.448600  0.891000  1.0
  C  C1863  1  0.764200  0.948600  0.891000  1.0
  C  C1864  1  0.264200  0.551400  0.109000  1.0
  C  C1865  1  0.207000  0.042100  0.082600  1.0
  C  C1866  1  0.707000  0.457900  0.917400  1.0
  C  C1867  1  0.793000  0.957900  0.917400  1.0
  C  C1868  1  0.293000  0.542100  0.082600  1.0
  C  C1869  1  0.174000  0.015900  0.085800  1.0
  C  C1870  1  0.674000  0.484100  0.914200  1.0
  C  C1871  1  0.826000  0.984100  0.914200  1.0
  C  C1872  1  0.326000  0.515900  0.085800  1.0
  C  C1873  1  0.141000  0.005900  0.060100  1.0
  C  C1874  1  0.641000  0.494100  0.939900  1.0
  C  C1875  1  0.859000  0.994100  0.939900  1.0
  C  C1876  1  0.359000  0.505900  0.060100  1.0
  C  C1877  1  0.074970  0.974980  0.038450  1.0
  C  C1878  1  0.574970  0.525020  0.961550  1.0
  C  C1879  1  0.925030  0.025020  0.961550  1.0
  C  C1880  1  0.425030  0.474980  0.038450  1.0
  C  C1881  1  0.095250  0.967510  0.008540  1.0
  C  C1882  1  0.595250  0.532490  0.991460  1.0
  C  C1883  1  0.904750  0.032490  0.991460  1.0
  C  C1884  1  0.404750  0.467510  0.008540  1.0
  C  C1885  1  0.062900  0.956350  0.984350  1.0
  C  C1886  1  0.562900  0.543650  0.015650  1.0
  C  C1887  1  0.937100  0.043650  0.015650  1.0
  C  C1888  1  0.437100  0.456350  0.984350  1.0
  C  C1889  1  0.009820  0.952390  0.989460  1.0
  C  C1890  1  0.509820  0.547610  0.010540  1.0
  C  C1891  1  0.990180  0.047610  0.010540  1.0
  C  C1892  1  0.490180  0.452390  0.989460  1.0
  C  C1893  1  0.990000  0.960090  0.019580  1.0
  C  C1894  1  0.490000  0.539910  0.980420  1.0
  C  C1895  1  0.010000  0.039910  0.980420  1.0
  C  C1896  1  0.510000  0.460090  0.019580  1.0
  C  C1897  1  0.022140  0.971260  0.043880  1.0
  C  C1898  1  0.522140  0.528740  0.956120  1.0
  C  C1899  1  0.977860  0.028740  0.956120  1.0
  C  C1900  1  0.477860  0.471260  0.043880  1.0
  C  C1901  1  0.975230  0.939590  0.963540  1.0
  C  C1902  1  0.475230  0.560410  0.036460  1.0
  C  C1903  1  0.024770  0.060410  0.036460  1.0
  C  C1904  1  0.524770  0.439590  0.963540  1.0
  C  C1905  1  0.177480  0.163320  0.171600  1.0
  C  C1906  1  0.677480  0.336680  0.828400  1.0
  C  C1907  1  0.822520  0.836680  0.828400  1.0
  C  C1908  1  0.322520  0.663320  0.171600  1.0
  C  C1909  1  0.149280  0.187490  0.156980  1.0
  C  C1910  1  0.649280  0.312510  0.843020  1.0
  C  C1911  1  0.850720  0.812510  0.843020  1.0
  C  C1912  1  0.350720  0.687490  0.156980  1.0
  C  C1913  1  0.095430  0.186160  0.156360  1.0
  C  C1914  1  0.595430  0.313840  0.843640  1.0
  C  C1915  1  0.904570  0.813840  0.843640  1.0
  C  C1916  1  0.404570  0.686160  0.156360  1.0
  C  C1917  1  0.068660  0.160780  0.170210  1.0
  C  C1918  1  0.568660  0.339220  0.829790  1.0
  C  C1919  1  0.931340  0.839220  0.829790  1.0
  C  C1920  1  0.431340  0.660780  0.170210  1.0
  C  C1921  1  0.097500  0.136750  0.184870  1.0
  C  C1922  1  0.597500  0.363250  0.815130  1.0
  C  C1923  1  0.902500  0.863250  0.815130  1.0
  C  C1924  1  0.402500  0.636750  0.184870  1.0
  C  C1925  1  0.151360  0.137930  0.185580  1.0
  C  C1926  1  0.651360  0.362070  0.814420  1.0
  C  C1927  1  0.848640  0.862070  0.814420  1.0
  C  C1928  1  0.348640  0.637930  0.185580  1.0
  C  C1929  1  0.010600  0.159030  0.168790  1.0
  C  C1930  1  0.510600  0.340970  0.831210  1.0
  C  C1931  1  0.989400  0.840970  0.831210  1.0
  C  C1932  1  0.489400  0.659030  0.168790  1.0
  C  C1933  1  0.256800  0.172400  0.147220  1.0
  C  C1934  1  0.756800  0.327600  0.852780  1.0
  C  C1935  1  0.743200  0.827600  0.852780  1.0
  C  C1936  1  0.243200  0.672400  0.147220  1.0
  C  C1937  1  0.312390  0.171800  0.145400  1.0
  C  C1938  1  0.812390  0.328200  0.854600  1.0
  C  C1939  1  0.687610  0.828200  0.854600  1.0
  C  C1940  1  0.187610  0.671800  0.145400  1.0
  C  C1941  1  0.341070  0.182820  0.119810  1.0
  C  C1942  1  0.841070  0.317180  0.880190  1.0
  C  C1943  1  0.658930  0.817180  0.880190  1.0
  C  C1944  1  0.158930  0.682820  0.119810  1.0
  C  C1945  1  0.394480  0.179690  0.119810  1.0
  C  C1946  1  0.894480  0.320310  0.880190  1.0
  C  C1947  1  0.605520  0.820310  0.880190  1.0
  C  C1948  1  0.105520  0.679690  0.119810  1.0
  C  C1949  1  0.419220  0.165550  0.145400  1.0
  C  C1950  1  0.919220  0.334450  0.854600  1.0
  C  C1951  1  0.580780  0.834450  0.854600  1.0
  C  C1952  1  0.080780  0.665550  0.145400  1.0
  C  C1953  1  0.390550  0.154530  0.170990  1.0
  C  C1954  1  0.890550  0.345470  0.829010  1.0
  C  C1955  1  0.609450  0.845470  0.829010  1.0
  C  C1956  1  0.109450  0.654530  0.170990  1.0
  C  C1957  1  0.495900  0.096800  0.430900  1.0
  C  C1958  1  0.995900  0.403200  0.569100  1.0
  C  C1959  1  0.504100  0.903200  0.569100  1.0
  C  C1960  1  0.004100  0.596800  0.430900  1.0
  C  C1961  1  0.438400  0.097900  0.428000  1.0
  C  C1962  1  0.938400  0.402100  0.572000  1.0
  C  C1963  1  0.561600  0.902100  0.572000  1.0
  C  C1964  1  0.061600  0.597900  0.428000  1.0
  C  C1965  1  0.410600  0.124100  0.434600  1.0
  C  C1966  1  0.910600  0.375900  0.565400  1.0
  C  C1967  1  0.589400  0.875900  0.565400  1.0
  C  C1968  1  0.089400  0.624100  0.434600  1.0
  C  C1969  1  0.357200  0.123000  0.430300  1.0
  C  C1970  1  0.857200  0.377000  0.569700  1.0
  C  C1971  1  0.642800  0.877000  0.569700  1.0
  C  C1972  1  0.142800  0.623000  0.430300  1.0
  C  C1973  1  0.334100  0.095900  0.420100  1.0
  C  C1974  1  0.834100  0.404100  0.579900  1.0
  C  C1975  1  0.665900  0.904100  0.579900  1.0
  C  C1976  1  0.165900  0.595900  0.420100  1.0
  C  C1977  1  0.364500  0.069900  0.413100  1.0
  C  C1978  1  0.864500  0.430100  0.586900  1.0
  C  C1979  1  0.635500  0.930100  0.586900  1.0
  C  C1980  1  0.135500  0.569900  0.413100  1.0
  C  C1981  1  0.250800  0.064600  0.412100  1.0
  C  C1982  1  0.750800  0.435400  0.587900  1.0
  C  C1983  1  0.749200  0.935400  0.587900  1.0
  C  C1984  1  0.249200  0.564600  0.412100  1.0
  C  C1985  1  0.277000  0.093800  0.415200  1.0
  C  C1986  1  0.777000  0.406200  0.584800  1.0
  C  C1987  1  0.723000  0.906200  0.584800  1.0
  C  C1988  1  0.223000  0.593800  0.415200  1.0
  C  C1989  1  0.247300  0.121600  0.414400  1.0
  C  C1990  1  0.747300  0.378400  0.585600  1.0
  C  C1991  1  0.752700  0.878400  0.585600  1.0
  C  C1992  1  0.252700  0.621600  0.414400  1.0
  C  C1993  1  0.193000  0.118400  0.413700  1.0
  C  C1994  1  0.693000  0.381600  0.586300  1.0
  C  C1995  1  0.807000  0.881600  0.586300  1.0
  C  C1996  1  0.307000  0.618400  0.413700  1.0
  C  C1997  1  0.171800  0.088100  0.413100  1.0
  C  C1998  1  0.671800  0.411900  0.586900  1.0
  C  C1999  1  0.828200  0.911900  0.586900  1.0
  C  C2000  1  0.328200  0.588100  0.413100  1.0
  C  C2001  1  0.115900  0.085400  0.412900  1.0
  C  C2002  1  0.615900  0.414600  0.587100  1.0
  C  C2003  1  0.884100  0.914600  0.587100  1.0
  C  C2004  1  0.384100  0.585400  0.412900  1.0
  C  C2005  1  0.039760  0.056390  0.410030  1.0
  C  C2006  1  0.539760  0.443610  0.589970  1.0
  C  C2007  1  0.960240  0.943610  0.589970  1.0
  C  C2008  1  0.460240  0.556390  0.410030  1.0
  C  C2009  1  0.014400  0.035330  0.389460  1.0
  C  C2010  1  0.514400  0.464670  0.610540  1.0
  C  C2011  1  0.985600  0.964670  0.610540  1.0
  C  C2012  1  0.485600  0.535330  0.389460  1.0
  C  C2013  1  0.960500  0.033490  0.389630  1.0
  C  C2014  1  0.460500  0.466510  0.610370  1.0
  C  C2015  1  0.039500  0.966510  0.610370  1.0
  C  C2016  1  0.539500  0.533490  0.389630  1.0
  C  C2017  1  0.931020  0.052530  0.410260  1.0
  C  C2018  1  0.431020  0.447470  0.589740  1.0
  C  C2019  1  0.068980  0.947470  0.589740  1.0
  C  C2020  1  0.568980  0.552530  0.410260  1.0
  C  C2021  1  0.957080  0.073620  0.430700  1.0
  C  C2022  1  0.457080  0.426380  0.569300  1.0
  C  C2023  1  0.042920  0.926380  0.569300  1.0
  C  C2024  1  0.542920  0.573620  0.430700  1.0
  C  C2025  1  0.010880  0.075570  0.430650  1.0
  C  C2026  1  0.510880  0.424430  0.569350  1.0
  C  C2027  1  0.989120  0.924430  0.569350  1.0
  C  C2028  1  0.489120  0.575570  0.430650  1.0
  C  C2029  1  0.873020  0.049920  0.410940  1.0
  C  C2030  1  0.373020  0.450080  0.589060  1.0
  C  C2031  1  0.126980  0.950080  0.589060  1.0
  C  C2032  1  0.626980  0.549920  0.410940  1.0
  C  C2033  1  0.122710  0.998190  0.470290  1.0
  C  C2034  1  0.622710  0.501810  0.529710  1.0
  C  C2035  1  0.877290  0.001810  0.529710  1.0
  C  C2036  1  0.377290  0.498190  0.470290  1.0
  C  C2037  1  0.124130  0.030260  0.479350  1.0
  C  C2038  1  0.624130  0.469740  0.520650  1.0
  C  C2039  1  0.875870  0.969740  0.520650  1.0
  C  C2040  1  0.375870  0.530260  0.479350  1.0
  C  C2041  1  0.094700  0.041000  0.505110  1.0
  C  C2042  1  0.594700  0.459000  0.494890  1.0
  C  C2043  1  0.905300  0.959000  0.494890  1.0
  C  C2044  1  0.405300  0.541000  0.505110  1.0
  C  C2045  1  0.063400  0.020070  0.522310  1.0
  C  C2046  1  0.563400  0.479930  0.477690  1.0
  C  C2047  1  0.936600  0.979930  0.477690  1.0
  C  C2048  1  0.436600  0.520070  0.522310  1.0
  C  C2049  1  0.062500  0.987930  0.512980  1.0
  C  C2050  1  0.562500  0.512070  0.487020  1.0
  C  C2051  1  0.937500  0.012070  0.487020  1.0
  C  C2052  1  0.437500  0.487930  0.512980  1.0
  C  C2053  1  0.091800  0.977030  0.487240  1.0
  C  C2054  1  0.591800  0.522970  0.512760  1.0
  C  C2055  1  0.908200  0.022970  0.512760  1.0
  C  C2056  1  0.408200  0.477030  0.487240  1.0
  C  C2057  1  0.030700  0.031900  0.549610  1.0
  C  C2058  1  0.530700  0.468100  0.450390  1.0
  C  C2059  1  0.969300  0.968100  0.450390  1.0
  C  C2060  1  0.469300  0.531900  0.549610  1.0
  C  C2061  1  0.173500  0.962200  0.444000  1.0
  C  C2062  1  0.673500  0.537800  0.556000  1.0
  C  C2063  1  0.826500  0.037800  0.556000  1.0
  C  C2064  1  0.326500  0.462200  0.444000  1.0
  C  C2065  1  0.202200  0.951200  0.417400  1.0
  C  C2066  1  0.702200  0.548800  0.582600  1.0
  C  C2067  1  0.797800  0.048800  0.582600  1.0
  C  C2068  1  0.297800  0.451200  0.417400  1.0
  C  C2069  1  0.221100  0.919800  0.414700  1.0
  C  C2070  1  0.721100  0.580200  0.585300  1.0
  C  C2071  1  0.778900  0.080200  0.585300  1.0
  C  C2072  1  0.278900  0.419800  0.414700  1.0
  C  C2073  1  0.245700  0.909700  0.388000  1.0
  C  C2074  1  0.745700  0.590300  0.612000  1.0
  C  C2075  1  0.754300  0.090300  0.612000  1.0
  C  C2076  1  0.254300  0.409700  0.388000  1.0
  C  C2077  1  0.253400  0.929920  0.362500  1.0
  C  C2078  1  0.753400  0.570080  0.637500  1.0
  C  C2079  1  0.746600  0.070080  0.637500  1.0
  C  C2080  1  0.246600  0.429920  0.362500  1.0
  C  C2081  1  0.234900  0.961800  0.366600  1.0
  C  C2082  1  0.734900  0.538200  0.633400  1.0
  C  C2083  1  0.765100  0.038200  0.633400  1.0
  C  C2084  1  0.265100  0.461800  0.366600  1.0
  C  C2085  1  0.269300  0.888620  0.322400  1.0
  C  C2086  1  0.769300  0.611380  0.677600  1.0
  C  C2087  1  0.730700  0.111380  0.677600  1.0
  C  C2088  1  0.230700  0.388620  0.322400  1.0
  C  C2089  1  0.276500  0.920100  0.333400  1.0
  C  C2090  1  0.776500  0.579900  0.666600  1.0
  C  C2091  1  0.723500  0.079900  0.666600  1.0
  C  C2092  1  0.223500  0.420100  0.333400  1.0
  C  C2093  1  0.305200  0.939800  0.313800  1.0
  C  C2094  1  0.805200  0.560200  0.686200  1.0
  C  C2095  1  0.694800  0.060200  0.686200  1.0
  C  C2096  1  0.194800  0.439800  0.313800  1.0
  C  C2097  1  0.325600  0.928400  0.285100  1.0
  C  C2098  1  0.825600  0.571600  0.714900  1.0
  C  C2099  1  0.674400  0.071600  0.714900  1.0
  C  C2100  1  0.174400  0.428400  0.285100  1.0
  C  C2101  1  0.316900  0.896110  0.277500  1.0
  C  C2102  1  0.816900  0.603890  0.722500  1.0
  C  C2103  1  0.683100  0.103890  0.722500  1.0
  C  C2104  1  0.183100  0.396110  0.277500  1.0
  C  C2105  1  0.342500  0.882100  0.250200  1.0
  C  C2106  1  0.842500  0.617900  0.749800  1.0
  C  C2107  1  0.657500  0.117900  0.749800  1.0
  C  C2108  1  0.157500  0.382100  0.250200  1.0
  C  C2109  1  0.362800  0.837600  0.216800  1.0
  C  C2110  1  0.862800  0.662400  0.783200  1.0
  C  C2111  1  0.637200  0.162400  0.783200  1.0
  C  C2112  1  0.137200  0.337600  0.216800  1.0
  C  C2113  1  0.349100  0.848600  0.188200  1.0
  C  C2114  1  0.849100  0.651400  0.811800  1.0
  C  C2115  1  0.650900  0.151400  0.811800  1.0
  C  C2116  1  0.150900  0.348600  0.188200  1.0
  C  C2117  1  0.362800  0.832400  0.160500  1.0
  C  C2118  1  0.862800  0.667600  0.839500  1.0
  C  C2119  1  0.637200  0.167600  0.839500  1.0
  C  C2120  1  0.137200  0.332400  0.160500  1.0
  C  C2121  1  0.390100  0.803900  0.161000  1.0
  C  C2122  1  0.890100  0.696100  0.839000  1.0
  C  C2123  1  0.609900  0.196100  0.839000  1.0
  C  C2124  1  0.109900  0.303900  0.161000  1.0
  C  C2125  1  0.404200  0.792800  0.192200  1.0
  C  C2126  1  0.904200  0.707200  0.807800  1.0
  C  C2127  1  0.595800  0.207200  0.807800  1.0
  C  C2128  1  0.095800  0.292800  0.192200  1.0
  C  C2129  1  0.391400  0.808700  0.219000  1.0
  C  C2130  1  0.891400  0.691300  0.781000  1.0
  C  C2131  1  0.608600  0.191300  0.781000  1.0
  C  C2132  1  0.108600  0.308700  0.219000  1.0
  C  C2133  1  0.402500  0.785900  0.131500  1.0
  C  C2134  1  0.902500  0.714100  0.868500  1.0
  C  C2135  1  0.597500  0.214100  0.868500  1.0
  C  C2136  1  0.097500  0.285900  0.131500  1.0
  C  C2137  1  0.010310  0.910470  0.095050  1.0
  C  C2138  1  0.510310  0.589530  0.904950  1.0
  C  C2139  1  0.989690  0.089530  0.904950  1.0
  C  C2140  1  0.489690  0.410470  0.095050  1.0
  C  C2141  1  0.981100  0.899400  0.069340  1.0
  C  C2142  1  0.481100  0.600600  0.930660  1.0
  C  C2143  1  0.018900  0.100600  0.930660  1.0
  C  C2144  1  0.518900  0.399400  0.069340  1.0
  C  C2145  1  0.928000  0.894670  0.072730  1.0
  C  C2146  1  0.428000  0.605330  0.927270  1.0
  C  C2147  1  0.072000  0.105330  0.927270  1.0
  C  C2148  1  0.572000  0.394670  0.072730  1.0
  C  C2149  1  0.903080  0.900800  0.101730  1.0
  C  C2150  1  0.403080  0.599200  0.898270  1.0
  C  C2151  1  0.096920  0.099200  0.898270  1.0
  C  C2152  1  0.596920  0.400800  0.101730  1.0
  C  C2153  1  0.932900  0.911990  0.127280  1.0
  C  C2154  1  0.432900  0.588010  0.872720  1.0
  C  C2155  1  0.067100  0.088010  0.872720  1.0
  C  C2156  1  0.567100  0.411990  0.127280  1.0
  C  C2157  1  0.986000  0.916780  0.124060  1.0
  C  C2158  1  0.486000  0.583220  0.875940  1.0
  C  C2159  1  0.014000  0.083220  0.875940  1.0
  C  C2160  1  0.514000  0.416780  0.124060  1.0
  C  C2161  1  0.846000  0.894900  0.105500  1.0
  C  C2162  1  0.346000  0.605100  0.894500  1.0
  C  C2163  1  0.154000  0.105100  0.894500  1.0
  C  C2164  1  0.654000  0.394900  0.105500  1.0
  C  C2165  1  0.090000  0.895500  0.076700  1.0
  C  C2166  1  0.590000  0.604500  0.923300  1.0
  C  C2167  1  0.910000  0.104500  0.923300  1.0
  C  C2168  1  0.410000  0.395500  0.076700  1.0
  C  C2169  1  0.146400  0.898200  0.072800  1.0
  C  C2170  1  0.646400  0.601800  0.927200  1.0
  C  C2171  1  0.853600  0.101800  0.927200  1.0
  C  C2172  1  0.353600  0.398200  0.072800  1.0
  C  C2173  1  0.173200  0.876200  0.052900  1.0
  C  C2174  1  0.673200  0.623800  0.947100  1.0
  C  C2175  1  0.826800  0.123800  0.947100  1.0
  C  C2176  1  0.326800  0.376200  0.052900  1.0
  C  C2177  1  0.224700  0.877900  0.051400  1.0
  C  C2178  1  0.724700  0.622100  0.948600  1.0
  C  C2179  1  0.775300  0.122100  0.948600  1.0
  C  C2180  1  0.275300  0.377900  0.051400  1.0
  C  C2181  1  0.252600  0.899600  0.069400  1.0
  C  C2182  1  0.752600  0.600400  0.930600  1.0
  C  C2183  1  0.747400  0.100400  0.930600  1.0
  C  C2184  1  0.247400  0.399600  0.069400  1.0
  C  C2185  1  0.223000  0.922000  0.086600  1.0
  C  C2186  1  0.723000  0.578000  0.913400  1.0
  C  C2187  1  0.777000  0.078000  0.913400  1.0
  C  C2188  1  0.277000  0.422000  0.086600  1.0
  C  C2189  1  0.340700  0.926100  0.076300  1.0
  C  C2190  1  0.840700  0.573900  0.923700  1.0
  C  C2191  1  0.659300  0.073900  0.923700  1.0
  C  C2192  1  0.159300  0.426100  0.076300  1.0
  C  C2193  1  0.310200  0.899300  0.069000  1.0
  C  C2194  1  0.810200  0.600700  0.931000  1.0
  C  C2195  1  0.689800  0.100700  0.931000  1.0
  C  C2196  1  0.189800  0.399300  0.069000  1.0
  C  C2197  1  0.336600  0.871900  0.059700  1.0
  C  C2198  1  0.836600  0.628100  0.940300  1.0
  C  C2199  1  0.663400  0.128100  0.940300  1.0
  C  C2200  1  0.163400  0.371900  0.059700  1.0
  C  C2201  1  0.387500  0.872400  0.057100  1.0
  C  C2202  1  0.887500  0.627600  0.942900  1.0
  C  C2203  1  0.612500  0.127600  0.942900  1.0
  C  C2204  1  0.112500  0.372400  0.057100  1.0
  C  C2205  1  0.416900  0.899900  0.065100  1.0
  C  C2206  1  0.916900  0.600100  0.934900  1.0
  C  C2207  1  0.583100  0.100100  0.934900  1.0
  C  C2208  1  0.083100  0.399900  0.065100  1.0
  C  C2209  1  0.473500  0.900100  0.064200  1.0
  C  C2210  1  0.973500  0.599900  0.935800  1.0
  C  C2211  1  0.526500  0.099900  0.935800  1.0
  C  C2212  1  0.026500  0.400100  0.064200  1.0
  C  C2213  1  0.010850  0.005950  0.141060  1.0
  C  C2214  1  0.510850  0.494050  0.858940  1.0
  C  C2215  1  0.989150  0.994050  0.858940  1.0
  C  C2216  1  0.489150  0.505950  0.141060  1.0
  C  C2217  1  0.961270  0.003820  0.153900  1.0
  C  C2218  1  0.461270  0.496180  0.846100  1.0
  C  C2219  1  0.038730  0.996180  0.846100  1.0
  C  C2220  1  0.538730  0.503820  0.153900  1.0
  C  C2221  1  0.925320  0.027970  0.148510  1.0
  C  C2222  1  0.425320  0.472030  0.851490  1.0
  C  C2223  1  0.074680  0.972030  0.851490  1.0
  C  C2224  1  0.574680  0.527970  0.148510  1.0
  C  C2225  1  0.938050  0.054670  0.130290  1.0
  C  C2226  1  0.438050  0.445330  0.869710  1.0
  C  C2227  1  0.061950  0.945330  0.869710  1.0
  C  C2228  1  0.561950  0.554670  0.130290  1.0
  C  C2229  1  0.987920  0.056420  0.117480  1.0
  C  C2230  1  0.487920  0.443580  0.882520  1.0
  C  C2231  1  0.012080  0.943580  0.882520  1.0
  C  C2232  1  0.512080  0.556420  0.117480  1.0
  C  C2233  1  0.024050  0.032350  0.122780  1.0
  C  C2234  1  0.524050  0.467650  0.877220  1.0
  C  C2235  1  0.975950  0.967650  0.877220  1.0
  C  C2236  1  0.475950  0.532350  0.122780  1.0
  C  C2237  1  0.899550  0.081070  0.125190  1.0
  C  C2238  1  0.399550  0.418930  0.874810  1.0
  C  C2239  1  0.100450  0.918930  0.874810  1.0
  C  C2240  1  0.600450  0.581070  0.125190  1.0
  C  C2241  1  0.053700  0.974000  0.176100  1.0
  C  C2242  1  0.553700  0.526000  0.823900  1.0
  C  C2243  1  0.946300  0.026000  0.823900  1.0
  C  C2244  1  0.446300  0.474000  0.176100  1.0
  C  C2245  1  0.088700  0.946700  0.184500  1.0
  C  C2246  1  0.588700  0.553300  0.815500  1.0
  C  C2247  1  0.911300  0.053300  0.815500  1.0
  C  C2248  1  0.411300  0.446700  0.184500  1.0
  C  C2249  1  0.086600  0.933500  0.214600  1.0
  C  C2250  1  0.586600  0.566500  0.785400  1.0
  C  C2251  1  0.913400  0.066500  0.785400  1.0
  C  C2252  1  0.413400  0.433500  0.214600  1.0
  C  C2253  1  0.116800  0.907600  0.221200  1.0
  C  C2254  1  0.616800  0.592400  0.778800  1.0
  C  C2255  1  0.883200  0.092400  0.778800  1.0
  C  C2256  1  0.383200  0.407600  0.221200  1.0
  C  C2257  1  0.150200  0.895690  0.197100  1.0
  C  C2258  1  0.650200  0.604310  0.802900  1.0
  C  C2259  1  0.849800  0.104310  0.802900  1.0
  C  C2260  1  0.349800  0.395690  0.197100  1.0
  C  C2261  1  0.150500  0.910800  0.168100  1.0
  C  C2262  1  0.650500  0.589200  0.831900  1.0
  C  C2263  1  0.849500  0.089200  0.831900  1.0
  C  C2264  1  0.349500  0.410800  0.168100  1.0
  C  C2265  1  0.203800  0.860000  0.230800  1.0
  C  C2266  1  0.703800  0.640000  0.769200  1.0
  C  C2267  1  0.796200  0.140000  0.769200  1.0
  C  C2268  1  0.296200  0.360000  0.230800  1.0
  C  C2269  1  0.182300  0.866900  0.201900  1.0
  C  C2270  1  0.682300  0.633100  0.798100  1.0
  C  C2271  1  0.817700  0.133100  0.798100  1.0
  C  C2272  1  0.317700  0.366900  0.201900  1.0
  C  C2273  1  0.190900  0.845200  0.178000  1.0
  C  C2274  1  0.690900  0.654800  0.822000  1.0
  C  C2275  1  0.809100  0.154800  0.822000  1.0
  C  C2276  1  0.309100  0.345200  0.178000  1.0
  C  C2277  1  0.219000  0.818000  0.183700  1.0
  C  C2278  1  0.719000  0.682000  0.816300  1.0
  C  C2279  1  0.781000  0.182000  0.816300  1.0
  C  C2280  1  0.281000  0.318000  0.183700  1.0
  C  C2281  1  0.237100  0.812540  0.213200  1.0
  C  C2282  1  0.737100  0.687460  0.786800  1.0
  C  C2283  1  0.762900  0.187460  0.786800  1.0
  C  C2284  1  0.262900  0.312540  0.213200  1.0
  C  C2285  1  0.267200  0.782600  0.220700  1.0
  C  C2286  1  0.767200  0.717400  0.779300  1.0
  C  C2287  1  0.732800  0.217400  0.779300  1.0
  C  C2288  1  0.232800  0.282600  0.220700  1.0
  C  C2289  1  0.316290  0.751050  0.254400  1.0
  C  C2290  1  0.816290  0.748950  0.745600  1.0
  C  C2291  1  0.683710  0.248950  0.745600  1.0
  C  C2292  1  0.183710  0.251050  0.254400  1.0
  C  C2293  1  0.339440  0.732270  0.230840  1.0
  C  C2294  1  0.839440  0.767730  0.769160  1.0
  C  C2295  1  0.660560  0.267730  0.769160  1.0
  C  C2296  1  0.160560  0.232270  0.230840  1.0
  C  C2297  1  0.369040  0.705840  0.239210  1.0
  C  C2298  1  0.869040  0.794160  0.760790  1.0
  C  C2299  1  0.630960  0.294160  0.760790  1.0
  C  C2300  1  0.130960  0.205840  0.239210  1.0
  C  C2301  1  0.376220  0.697630  0.271160  1.0
  C  C2302  1  0.876220  0.802370  0.728840  1.0
  C  C2303  1  0.623780  0.302370  0.728840  1.0
  C  C2304  1  0.123780  0.197630  0.271160  1.0
  C  C2305  1  0.352610  0.716650  0.294540  1.0
  C  C2306  1  0.852610  0.783350  0.705460  1.0
  C  C2307  1  0.647390  0.283350  0.705460  1.0
  C  C2308  1  0.147390  0.216650  0.294540  1.0
  C  C2309  1  0.322950  0.743120  0.286330  1.0
  C  C2310  1  0.822950  0.756880  0.713670  1.0
  C  C2311  1  0.677050  0.256880  0.713670  1.0
  C  C2312  1  0.177050  0.243120  0.286330  1.0
  C  C2313  1  0.409260  0.669550  0.280140  1.0
  C  C2314  1  0.909260  0.830450  0.719860  1.0
  C  C2315  1  0.590740  0.330450  0.719860  1.0
  C  C2316  1  0.090740  0.169550  0.280140  1.0
  C  C2317  1  0.425470  0.993540  0.015070  1.0
  C  C2318  1  0.925470  0.506460  0.984930  1.0
  C  C2319  1  0.574530  0.006460  0.984930  1.0
  C  C2320  1  0.074530  0.493540  0.015070  1.0
  C  C2321  1  0.404570  0.018070  0.996910  1.0
  C  C2322  1  0.904570  0.481930  0.003090  1.0
  C  C2323  1  0.595430  0.981930  0.003090  1.0
  C  C2324  1  0.095430  0.518070  0.996910  1.0
  C  C2325  1  0.376620  0.010990  0.969350  1.0
  C  C2326  1  0.876620  0.489010  0.030650  1.0
  C  C2327  1  0.623380  0.989010  0.030650  1.0
  C  C2328  1  0.123380  0.510990  0.969350  1.0
  C  C2329  1  0.369020  0.979390  0.959350  1.0
  C  C2330  1  0.869020  0.520610  0.040650  1.0
  C  C2331  1  0.630980  0.020610  0.040650  1.0
  C  C2332  1  0.130980  0.479390  0.959350  1.0
  C  C2333  1  0.390100  0.955020  0.977890  1.0
  C  C2334  1  0.890100  0.544980  0.022110  1.0
  C  C2335  1  0.609900  0.044980  0.022110  1.0
  C  C2336  1  0.109900  0.455020  0.977890  1.0
  C  C2337  1  0.418080  0.961940  0.005470  1.0
  C  C2338  1  0.918080  0.538060  0.994530  1.0
  C  C2339  1  0.581920  0.038060  0.994530  1.0
  C  C2340  1  0.081920  0.461940  0.005470  1.0
  C  C2341  1  0.339900  0.971870  0.929170  1.0
  C  C2342  1  0.839900  0.528130  0.070830  1.0
  C  C2343  1  0.660100  0.028130  0.070830  1.0
  C  C2344  1  0.160100  0.471870  0.929170  1.0
  C  C2345  1  0.477100  0.024300  0.046200  1.0
  C  C2346  1  0.977100  0.475700  0.953800  1.0
  C  C2347  1  0.522900  0.975700  0.953800  1.0
  C  C2348  1  0.022900  0.524300  0.046200  1.0
  C  C2349  1  0.506200  0.031800  0.076300  1.0
  C  C2350  1  0.006200  0.468200  0.923700  1.0
  C  C2351  1  0.493800  0.968200  0.923700  1.0
  C  C2352  1  0.993800  0.531800  0.076300  1.0
  C  C2353  1  0.528000  0.061800  0.079800  1.0
  C  C2354  1  0.028000  0.438200  0.920200  1.0
  C  C2355  1  0.472000  0.938200  0.920200  1.0
  C  C2356  1  0.972000  0.561800  0.079800  1.0
  C  C2357  1  0.554700  0.069800  0.108700  1.0
  C  C2358  1  0.054700  0.430200  0.891300  1.0
  C  C2359  1  0.445300  0.930200  0.891300  1.0
  C  C2360  1  0.945300  0.569800  0.108700  1.0
  C  C2361  1  0.560300  0.043000  0.130300  1.0
  C  C2362  1  0.060300  0.457000  0.869700  1.0
  C  C2363  1  0.439700  0.957000  0.869700  1.0
  C  C2364  1  0.939700  0.543000  0.130300  1.0
  C  C2365  1  0.536800  0.016600  0.125400  1.0
  C  C2366  1  0.036800  0.483400  0.874600  1.0
  C  C2367  1  0.463200  0.983400  0.874600  1.0
  C  C2368  1  0.963200  0.516600  0.125400  1.0
  C  C2369  1  0.180010  0.809240  0.324590  1.0
  C  C2370  1  0.680010  0.690760  0.675410  1.0
  C  C2371  1  0.819990  0.190760  0.675410  1.0
  C  C2372  1  0.319990  0.309240  0.324590  1.0
  C  C2373  1  0.155400  0.833130  0.307320  1.0
  C  C2374  1  0.655400  0.666870  0.692680  1.0
  C  C2375  1  0.844600  0.166870  0.692680  1.0
  C  C2376  1  0.344600  0.333130  0.307320  1.0
  C  C2377  1  0.101600  0.835330  0.307380  1.0
  C  C2378  1  0.601600  0.664670  0.692620  1.0
  C  C2379  1  0.898400  0.164670  0.692620  1.0
  C  C2380  1  0.398400  0.335330  0.307380  1.0
  C  C2381  1  0.071350  0.813800  0.324570  1.0
  C  C2382  1  0.571350  0.686200  0.675430  1.0
  C  C2383  1  0.928650  0.186200  0.675430  1.0
  C  C2384  1  0.428650  0.313800  0.324570  1.0
  C  C2385  1  0.096600  0.790010  0.341850  1.0
  C  C2386  1  0.596600  0.709990  0.658150  1.0
  C  C2387  1  0.903400  0.209990  0.658150  1.0
  C  C2388  1  0.403400  0.290010  0.341850  1.0
  C  C2389  1  0.150400  0.787680  0.341890  1.0
  C  C2390  1  0.650400  0.712320  0.658110  1.0
  C  C2391  1  0.849600  0.212320  0.658110  1.0
  C  C2392  1  0.349600  0.287680  0.341890  1.0
  C  C2393  1  0.013270  0.815800  0.323900  1.0
  C  C2394  1  0.513270  0.684200  0.676100  1.0
  C  C2395  1  0.986730  0.184200  0.676100  1.0
  C  C2396  1  0.486730  0.315800  0.323900  1.0
  C  C2397  1  0.260900  0.802200  0.348800  1.0
  C  C2398  1  0.760900  0.697800  0.651200  1.0
  C  C2399  1  0.739100  0.197800  0.651200  1.0
  C  C2400  1  0.239100  0.302200  0.348800  1.0
  C  C2401  1  0.316300  0.803570  0.349800  1.0
  C  C2402  1  0.816300  0.696430  0.650200  1.0
  C  C2403  1  0.683700  0.196430  0.650200  1.0
  C  C2404  1  0.183700  0.303570  0.349800  1.0
  C  C2405  1  0.344300  0.798400  0.375900  1.0
  C  C2406  1  0.844300  0.701600  0.624100  1.0
  C  C2407  1  0.655700  0.201600  0.624100  1.0
  C  C2408  1  0.155700  0.298400  0.375900  1.0
  C  C2409  1  0.396900  0.802500  0.376200  1.0
  C  C2410  1  0.896900  0.697500  0.623800  1.0
  C  C2411  1  0.603100  0.197500  0.623800  1.0
  C  C2412  1  0.103100  0.302500  0.376200  1.0
  C  C2413  1  0.423400  0.811400  0.349700  1.0
  C  C2414  1  0.923400  0.688600  0.650300  1.0
  C  C2415  1  0.576600  0.188600  0.650300  1.0
  C  C2416  1  0.076600  0.311400  0.349700  1.0
  C  C2417  1  0.392600  0.815100  0.322000  1.0
  C  C2418  1  0.892600  0.684900  0.678000  1.0
  C  C2419  1  0.607400  0.184900  0.678000  1.0
  C  C2420  1  0.107400  0.315100  0.322000  1.0
  C  C2421  1  0.804800  0.051500  0.733200  1.0
  C  C2422  1  0.304800  0.448500  0.266800  1.0
  C  C2423  1  0.195200  0.948500  0.266800  1.0
  C  C2424  1  0.695200  0.551500  0.733200  1.0
  C  C2425  1  0.782400  0.028000  0.756800  1.0
  C  C2426  1  0.282400  0.472000  0.243200  1.0
  C  C2427  1  0.217600  0.972000  0.243200  1.0
  C  C2428  1  0.717600  0.528000  0.756800  1.0
  C  C2429  1  0.759700  0.002300  0.016300  1.0
  C  C2430  1  0.259700  0.497700  0.983700  1.0
  C  C2431  1  0.240300  0.997700  0.983700  1.0
  C  C2432  1  0.740300  0.502300  0.016300  1.0
  C  C2433  1  0.749000  0.013100  0.985400  1.0
  C  C2434  1  0.249000  0.486900  0.014600  1.0
  C  C2435  1  0.251000  0.986900  0.014600  1.0
  C  C2436  1  0.751000  0.513100  0.985400  1.0
  C  C2437  1  0.706100  0.093600  0.120700  1.0
  C  C2438  1  0.206100  0.406400  0.879300  1.0
  C  C2439  1  0.293900  0.906400  0.879300  1.0
  C  C2440  1  0.793900  0.593600  0.120700  1.0
  C  C2441  1  0.764300  0.090000  0.119300  1.0
  C  C2442  1  0.264300  0.410000  0.880700  1.0
  C  C2443  1  0.235700  0.910000  0.880700  1.0
  C  C2444  1  0.735700  0.590000  0.119300  1.0
  C  C2445  1  0.167700  0.118100  0.101800  1.0
  C  C2446  1  0.667700  0.381900  0.898200  1.0
  C  C2447  1  0.832300  0.881900  0.898200  1.0
  C  C2448  1  0.332300  0.618100  0.101800  1.0
  C  C2449  1  0.112200  0.106200  0.104000  1.0
  C  C2450  1  0.612200  0.393800  0.896000  1.0
  C  C2451  1  0.887800  0.893800  0.896000  1.0
  C  C2452  1  0.387800  0.606200  0.104000  1.0
  C  C2453  1  0.561700  0.201200  0.431100  1.0
  C  C2454  1  0.061700  0.298800  0.568900  1.0
  C  C2455  1  0.438300  0.798800  0.568900  1.0
  C  C2456  1  0.938300  0.701200  0.431100  1.0
  C  C2457  1  0.364100  0.201200  0.029200  1.0
  C  C2458  1  0.864100  0.298800  0.970800  1.0
  C  C2459  1  0.635900  0.798800  0.970800  1.0
  C  C2460  1  0.135900  0.701200  0.029200  1.0
  C  C2461  1  0.394400  0.190100  0.004000  1.0
  C  C2462  1  0.894400  0.309900  0.996000  1.0
  C  C2463  1  0.605600  0.809900  0.996000  1.0
  C  C2464  1  0.105600  0.690100  0.004000  1.0
  C  C2465  1  0.006900  0.857700  0.998600  1.0
  C  C2466  1  0.506900  0.642300  0.001400  1.0
  C  C2467  1  0.993100  0.142300  0.001400  1.0
  C  C2468  1  0.493100  0.357700  0.998600  1.0
  C  C2469  1  0.955200  0.854000  0.989800  1.0
  C  C2470  1  0.455200  0.646000  0.010200  1.0
  C  C2471  1  0.044800  0.146000  0.010200  1.0
  C  C2472  1  0.544800  0.354000  0.989800  1.0
  C  C2473  1  0.259500  0.004100  0.489500  1.0
  C  C2474  1  0.759500  0.495900  0.510500  1.0
  C  C2475  1  0.740500  0.995900  0.510500  1.0
  C  C2476  1  0.240500  0.504100  0.489500  1.0
  C  C2477  1  0.236500  0.989100  0.518100  1.0
  C  C2478  1  0.736500  0.510900  0.481900  1.0
  C  C2479  1  0.763500  0.010900  0.481900  1.0
  C  C2480  1  0.263500  0.489100  0.518100  1.0
  C  C2481  1  0.552200  0.171500  0.416700  0.22
  C  C2482  1  0.052200  0.328500  0.583300  0.22
  C  C2483  1  0.447800  0.828500  0.583300  0.22
  C  C2484  1  0.947800  0.671500  0.416700  0.22
  C  C2485  1  0.478900  0.739800  0.250600  0.36
  C  C2486  1  0.978900  0.760200  0.749400  0.36
  C  C2487  1  0.521100  0.260200  0.749400  0.36
  C  C2488  1  0.021100  0.239800  0.250600  0.36
  C  C2489  1  0.499100  0.714300  0.230900  0.36
  C  C2490  1  0.999100  0.785700  0.769100  0.36
  C  C2491  1  0.500900  0.285700  0.769100  0.36
  C  C2492  1  0.000900  0.214300  0.230900  0.36
  C  C2493  1  0.675100  0.105400  0.238900  0.388
  C  C2494  1  0.175100  0.394600  0.761100  0.388
  C  C2495  1  0.324900  0.894600  0.761100  0.388
  C  C2496  1  0.824900  0.605400  0.238900  0.388
  C  C2497  1  0.699400  0.151000  0.265900  0.388
  C  C2498  1  0.199400  0.349000  0.734100  0.388
  C  C2499  1  0.300600  0.849000  0.734100  0.388
  C  C2500  1  0.800600  0.651000  0.265900  0.388
  C  C2501  1  0.710800  0.183100  0.261500  0.388
  C  C2502  1  0.210800  0.316900  0.738500  0.388
  C  C2503  1  0.289200  0.816900  0.738500  0.388
  C  C2504  1  0.789200  0.683100  0.261500  0.388
  C  C2505  1  0.736000  0.200500  0.285300  0.388
  C  C2506  1  0.236000  0.299500  0.714700  0.388
  C  C2507  1  0.264000  0.799500  0.714700  0.388
  C  C2508  1  0.764000  0.700500  0.285300  0.388
  C  C2509  1  0.750300  0.186200  0.314000  0.388
  C  C2510  1  0.250300  0.313800  0.686000  0.388
  C  C2511  1  0.249700  0.813800  0.686000  0.388
  C  C2512  1  0.749700  0.686200  0.314000  0.388
  C  C2513  1  0.738800  0.153800  0.318000  0.388
  C  C2514  1  0.238800  0.346200  0.682000  0.388
  C  C2515  1  0.261200  0.846200  0.682000  0.388
  C  C2516  1  0.761200  0.653800  0.318000  0.388
  C  C2517  1  0.713600  0.136300  0.294300  0.388
  C  C2518  1  0.213600  0.363700  0.705700  0.388
  C  C2519  1  0.286400  0.863700  0.705700  0.388
  C  C2520  1  0.786400  0.636300  0.294300  0.388
  C  C2521  1  0.776400  0.205200  0.339900  0.388
  C  C2522  1  0.276400  0.294800  0.660100  0.388
  C  C2523  1  0.223600  0.794800  0.660100  0.388
  C  C2524  1  0.723600  0.705200  0.339900  0.388
  C  C2525  1  0.557480  0.930480  0.074610  0.431
  C  C2526  1  0.057480  0.569520  0.925390  0.431
  C  C2527  1  0.442520  0.069520  0.925390  0.431
  C  C2528  1  0.942520  0.430480  0.074610  0.431
  C  C2529  1  0.587060  0.913610  0.052400  0.431
  C  C2530  1  0.087060  0.586390  0.947600  0.431
  C  C2531  1  0.412940  0.086390  0.947600  0.431
  C  C2532  1  0.912940  0.413610  0.052400  0.431
  C  C2533  1  0.640810  0.913300  0.054870  0.431
  C  C2534  1  0.140810  0.586700  0.945130  0.431
  C  C2535  1  0.359190  0.086700  0.945130  0.431
  C  C2536  1  0.859190  0.413300  0.054870  0.431
  C  C2537  1  0.666100  0.929800  0.079440  0.431
  C  C2538  1  0.166100  0.570200  0.920560  0.431
  C  C2539  1  0.333900  0.070200  0.920560  0.431
  C  C2540  1  0.833900  0.429800  0.079440  0.431
  C  C2541  1  0.635870  0.946600  0.101600  0.431
  C  C2542  1  0.135870  0.553400  0.898400  0.431
  C  C2543  1  0.364130  0.053400  0.898400  0.431
  C  C2544  1  0.864130  0.446600  0.101600  0.431
  C  C2545  1  0.582110  0.946950  0.099270  0.431
  C  C2546  1  0.082110  0.553050  0.900730  0.431
  C  C2547  1  0.417890  0.053050  0.900730  0.431
  C  C2548  1  0.917890  0.446950  0.099270  0.431
  C  C2549  1  0.724170  0.930100  0.081580  0.431
  C  C2550  1  0.224170  0.569900  0.918420  0.431
  C  C2551  1  0.275830  0.069900  0.918420  0.431
  C  C2552  1  0.775830  0.430100  0.081580  0.431
  C  C2553  1  0.634200  0.175500  0.145300  0.4905
  C  C2554  1  0.134200  0.324500  0.854700  0.4905
  C  C2555  1  0.365800  0.824500  0.854700  0.4905
  C  C2556  1  0.865800  0.675500  0.145300  0.4905
  C  C2557  1  0.717600  0.169100  0.171000  0.4905
  C  C2558  1  0.217600  0.330900  0.829000  0.4905
  C  C2559  1  0.282400  0.830900  0.829000  0.4905
  C  C2560  1  0.782400  0.669100  0.171000  0.4905
  C  C2561  1  0.746400  0.193600  0.157400  0.4905
  C  C2562  1  0.246400  0.306400  0.842600  0.4905
  C  C2563  1  0.253600  0.806400  0.842600  0.4905
  C  C2564  1  0.753600  0.693600  0.157400  0.4905
  C  C2565  1  0.800000  0.191300  0.155600  0.4905
  C  C2566  1  0.300000  0.308700  0.844400  0.4905
  C  C2567  1  0.200000  0.808700  0.844400  0.4905
  C  C2568  1  0.700000  0.691300  0.155600  0.4905
  C  C2569  1  0.826100  0.164600  0.167400  0.4905
  C  C2570  1  0.326100  0.335400  0.832600  0.4905
  C  C2571  1  0.173900  0.835400  0.832600  0.4905
  C  C2572  1  0.673900  0.664600  0.167400  0.4905
  C  C2573  1  0.796600  0.140100  0.180900  0.4905
  C  C2574  1  0.296600  0.359900  0.819100  0.4905
  C  C2575  1  0.203400  0.859900  0.819100  0.4905
  C  C2576  1  0.703400  0.640100  0.180900  0.4905
  C  C2577  1  0.742900  0.142300  0.182700  0.4905
  C  C2578  1  0.242900  0.357700  0.817300  0.4905
  C  C2579  1  0.257100  0.857700  0.817300  0.4905
  C  C2580  1  0.757100  0.642300  0.182700  0.4905
  C  C2581  1  0.884100  0.162500  0.166100  0.4905
  C  C2582  1  0.384100  0.337500  0.833900  0.4905
  C  C2583  1  0.115900  0.837500  0.833900  0.4905
  C  C2584  1  0.615900  0.662500  0.166100  0.4905
  C  C2585  1  0.499400  0.168900  0.171600  0.4905
  C  C2586  1  0.999400  0.331100  0.828400  0.4905
  C  C2587  1  0.500600  0.831100  0.828400  0.4905
  C  C2588  1  0.000600  0.668900  0.171600  0.4905
  C  C2589  1  0.472500  0.170400  0.143000  0.4905
  C  C2590  1  0.972500  0.329600  0.857000  0.4905
  C  C2591  1  0.527500  0.829600  0.857000  0.4905
  C  C2592  1  0.027500  0.670400  0.143000  0.4905
  C  C2593  1  0.499200  0.172900  0.114500  0.4905
  C  C2594  1  0.999200  0.327100  0.885500  0.4905
  C  C2595  1  0.500800  0.827100  0.885500  0.4905
  C  C2596  1  0.000800  0.672900  0.114500  0.4905
  C  C2597  1  0.552800  0.173900  0.114500  0.4905
  C  C2598  1  0.052800  0.326100  0.885500  0.4905
  C  C2599  1  0.447200  0.826100  0.885500  0.4905
  C  C2600  1  0.947200  0.673900  0.114500  0.4905
  C  C2601  1  0.579700  0.172400  0.143100  0.4905
  C  C2602  1  0.079700  0.327600  0.856900  0.4905
  C  C2603  1  0.420300  0.827600  0.856900  0.4905
  C  C2604  1  0.920300  0.672400  0.143100  0.4905
  C  C2605  1  0.417000  0.009100  0.347600  0.4905
  C  C2606  1  0.917000  0.490900  0.652400  0.4905
  C  C2607  1  0.583000  0.990900  0.652400  0.4905
  C  C2608  1  0.083000  0.509100  0.347600  0.4905
  C  C2609  1  0.391600  0.976600  0.391200  0.4905
  C  C2610  1  0.891600  0.523400  0.608800  0.4905
  C  C2611  1  0.608400  0.023400  0.608800  0.4905
  C  C2612  1  0.108400  0.476600  0.391200  0.4905
  C  C2613  1  0.362300  0.979100  0.419000  0.4905
  C  C2614  1  0.862300  0.520900  0.581000  0.4905
  C  C2615  1  0.637700  0.020900  0.581000  0.4905
  C  C2616  1  0.137700  0.479100  0.419000  0.4905
  C  C2617  1  0.347000  0.951700  0.435000  0.4905
  C  C2618  1  0.847000  0.548300  0.565000  0.4905
  C  C2619  1  0.653000  0.048300  0.565000  0.4905
  C  C2620  1  0.153000  0.451700  0.435000  0.4905
  C  C2621  1  0.360400  0.921300  0.423700  0.4905
  C  C2622  1  0.860400  0.578700  0.576300  0.4905
  C  C2623  1  0.639600  0.078700  0.576300  0.4905
  C  C2624  1  0.139600  0.421300  0.423700  0.4905
  C  C2625  1  0.389900  0.919200  0.395800  0.4905
  C  C2626  1  0.889900  0.580800  0.604200  0.4905
  C  C2627  1  0.610100  0.080800  0.604200  0.4905
  C  C2628  1  0.110100  0.419200  0.395800  0.4905
  C  C2629  1  0.405400  0.946500  0.379700  0.4905
  C  C2630  1  0.905400  0.553500  0.620300  0.4905
  C  C2631  1  0.594600  0.053500  0.620300  0.4905
  C  C2632  1  0.094600  0.446500  0.379700  0.4905
  C  C2633  1  0.342700  0.891700  0.440600  0.4905
  C  C2634  1  0.842700  0.608300  0.559400  0.4905
  C  C2635  1  0.657300  0.108300  0.559400  0.4905
  C  C2636  1  0.157300  0.391700  0.440600  0.4905
  C  C2637  1  0.445300  0.034700  0.333500  0.4905
  C  C2638  1  0.945300  0.465300  0.666500  0.4905
  C  C2639  1  0.554700  0.965300  0.666500  0.4905
  C  C2640  1  0.054700  0.534700  0.333500  0.4905
  C  C2641  1  0.438800  0.044200  0.302190  0.4905
  C  C2642  1  0.938800  0.455800  0.697810  0.4905
  C  C2643  1  0.561200  0.955800  0.697810  0.4905
  C  C2644  1  0.061200  0.544200  0.302190  0.4905
  C  C2645  1  0.462500  0.071800  0.291520  0.4905
  C  C2646  1  0.962500  0.428200  0.708480  0.4905
  C  C2647  1  0.537500  0.928200  0.708480  0.4905
  C  C2648  1  0.037500  0.571800  0.291520  0.4905
  C  C2649  1  0.492700  0.089900  0.312200  0.4905
  C  C2650  1  0.992700  0.410100  0.687800  0.4905
  C  C2651  1  0.507300  0.910100  0.687800  0.4905
  C  C2652  1  0.007300  0.589900  0.312200  0.4905
  C  C2653  1  0.499200  0.080400  0.343480  0.4905
  C  C2654  1  0.999200  0.419600  0.656520  0.4905
  C  C2655  1  0.500800  0.919600  0.656520  0.4905
  C  C2656  1  0.000800  0.580400  0.343480  0.4905
  C  C2657  1  0.534600  0.123400  0.271300  0.4905
  C  C2658  1  0.034600  0.376600  0.728700  0.4905
  C  C2659  1  0.465400  0.876600  0.728700  0.4905
  C  C2660  1  0.965400  0.623400  0.271300  0.4905
  C  C2661  1  0.517300  0.120400  0.302500  0.4905
  C  C2662  1  0.017300  0.379600  0.697500  0.4905
  C  C2663  1  0.482700  0.879600  0.697500  0.4905
  C  C2664  1  0.982700  0.620400  0.302500  0.4905
  C  C2665  1  0.523000  0.145700  0.323750  0.4905
  C  C2666  1  0.023000  0.354300  0.676250  0.4905
  C  C2667  1  0.477000  0.854300  0.676250  0.4905
  C  C2668  1  0.977000  0.645700  0.323750  0.4905
  C  C2669  1  0.546100  0.173800  0.313900  0.4905
  C  C2670  1  0.046100  0.326200  0.686100  0.4905
  C  C2671  1  0.453900  0.826200  0.686100  0.4905
  C  C2672  1  0.953900  0.673800  0.313900  0.4905
  C  C2673  1  0.563400  0.176700  0.282800  0.4905
  C  C2674  1  0.063400  0.323300  0.717200  0.4905
  C  C2675  1  0.436600  0.823300  0.717200  0.4905
  C  C2676  1  0.936600  0.676700  0.282800  0.4905
  C  C2677  1  0.577800  0.207300  0.270200  0.4905
  C  C2678  1  0.077800  0.292700  0.729800  0.4905
  C  C2679  1  0.422200  0.792700  0.729800  0.4905
  C  C2680  1  0.922200  0.707300  0.270200  0.4905
  C  C2681  1  0.606100  0.242800  0.229900  0.4905
  C  C2682  1  0.106100  0.257200  0.770100  0.4905
  C  C2683  1  0.393900  0.757200  0.770100  0.4905
  C  C2684  1  0.893900  0.742800  0.229900  0.4905
  C  C2685  1  0.575800  0.268900  0.239100  0.4905
  C  C2686  1  0.075800  0.231100  0.760900  0.4905
  C  C2687  1  0.424200  0.731100  0.760900  0.4905
  C  C2688  1  0.924200  0.768900  0.239100  0.4905
  C  C2689  1  0.586000  0.299000  0.226900  0.4905
  C  C2690  1  0.086000  0.201000  0.773100  0.4905
  C  C2691  1  0.414000  0.701000  0.773100  0.4905
  C  C2692  1  0.914000  0.799000  0.226900  0.4905
  C  C2693  1  0.626500  0.303900  0.205400  0.4905
  C  C2694  1  0.126500  0.196100  0.794600  0.4905
  C  C2695  1  0.373500  0.696100  0.794600  0.4905
  C  C2696  1  0.873500  0.803900  0.205400  0.4905
  C  C2697  1  0.656400  0.277600  0.196300  0.4905
  C  C2698  1  0.156400  0.222400  0.803700  0.4905
  C  C2699  1  0.343600  0.722400  0.803700  0.4905
  C  C2700  1  0.843600  0.777600  0.196300  0.4905
  C  C2701  1  0.646400  0.247300  0.208400  0.4905
  C  C2702  1  0.146400  0.252700  0.791600  0.4905
  C  C2703  1  0.353600  0.752700  0.791600  0.4905
  C  C2704  1  0.853600  0.747300  0.208400  0.4905
  C  C2705  1  0.638200  0.336700  0.192900  0.4905
  C  C2706  1  0.138200  0.163300  0.807100  0.4905
  C  C2707  1  0.361800  0.663300  0.807100  0.4905
  C  C2708  1  0.861800  0.836700  0.192900  0.4905
  C  C2709  1  0.489900  0.974900  0.448200  0.4905
  C  C2710  1  0.989900  0.525100  0.551800  0.4905
  C  C2711  1  0.510100  0.025100  0.551800  0.4905
  C  C2712  1  0.010100  0.474900  0.448200  0.4905
  C  C2713  1  0.588200  0.913300  0.321930  0.4905
  C  C2714  1  0.088200  0.586700  0.678070  0.4905
  C  C2715  1  0.411800  0.086700  0.678070  0.4905
  C  C2716  1  0.911800  0.413300  0.321930  0.4905
  C  C2717  1  0.596800  0.943800  0.333970  0.4905
  C  C2718  1  0.096800  0.556200  0.666030  0.4905
  C  C2719  1  0.403200  0.056200  0.666030  0.4905
  C  C2720  1  0.903200  0.443800  0.333970  0.4905
  C  C2721  1  0.621900  0.966310  0.315500  0.4905
  C  C2722  1  0.121900  0.533690  0.684500  0.4905
  C  C2723  1  0.378100  0.033690  0.684500  0.4905
  C  C2724  1  0.878100  0.466310  0.315500  0.4905
  C  C2725  1  0.638300  0.958400  0.285000  0.4905
  C  C2726  1  0.138300  0.541600  0.715000  0.4905
  C  C2727  1  0.361700  0.041600  0.715000  0.4905
  C  C2728  1  0.861700  0.458400  0.285000  0.4905
  C  C2729  1  0.629600  0.927900  0.272930  0.4905
  C  C2730  1  0.129600  0.572100  0.727070  0.4905
  C  C2731  1  0.370400  0.072100  0.727070  0.4905
  C  C2732  1  0.870400  0.427900  0.272930  0.4905
  C  C2733  1  0.519100  0.966700  0.421070  0.4905
  C  C2734  1  0.019100  0.533300  0.578930  0.4905
  C  C2735  1  0.480900  0.033300  0.578930  0.4905
  C  C2736  1  0.980900  0.466700  0.421070  0.4905
  C  C2737  1  0.537400  0.935950  0.415850  0.4905
  C  C2738  1  0.037400  0.564050  0.584150  0.4905
  C  C2739  1  0.462600  0.064050  0.584150  0.4905
  C  C2740  1  0.962600  0.435950  0.415850  0.4905
  C  C2741  1  0.563900  0.928640  0.388000  0.4905
  C  C2742  1  0.063900  0.571360  0.612000  0.4905
  C  C2743  1  0.436100  0.071360  0.612000  0.4905
  C  C2744  1  0.936100  0.428640  0.388000  0.4905
  C  C2745  1  0.572100  0.952000  0.365370  0.4905
  C  C2746  1  0.072100  0.548000  0.634630  0.4905
  C  C2747  1  0.427900  0.048000  0.634630  0.4905
  C  C2748  1  0.927900  0.452000  0.365370  0.4905
  C  C2749  1  0.553800  0.982800  0.370590  0.4905
  C  C2750  1  0.053800  0.517200  0.629410  0.4905
  C  C2751  1  0.446200  0.017200  0.629410  0.4905
  C  C2752  1  0.946200  0.482800  0.370590  0.4905
  C  C2753  1  0.502700  0.834400  0.320100  0.4905
  C  C2754  1  0.002700  0.665600  0.679900  0.4905
  C  C2755  1  0.497300  0.165600  0.679900  0.4905
  C  C2756  1  0.997300  0.334400  0.320100  0.4905
  C  C2757  1  0.481500  0.824000  0.348500  0.4905
  C  C2758  1  0.981500  0.676000  0.651500  0.4905
  C  C2759  1  0.518500  0.176000  0.651500  0.4905
  C  C2760  1  0.018500  0.324000  0.348500  0.4905
  C  C2761  1  0.513400  0.816400  0.373900  0.4905
  C  C2762  1  0.013400  0.683600  0.626100  0.4905
  C  C2763  1  0.486600  0.183600  0.626100  0.4905
  C  C2764  1  0.986600  0.316400  0.373900  0.4905
  C  C2765  1  0.566600  0.819200  0.370900  0.4905
  C  C2766  1  0.066600  0.680800  0.629100  0.4905
  C  C2767  1  0.433400  0.180800  0.629100  0.4905
  C  C2768  1  0.933400  0.319200  0.370900  0.4905
  C  C2769  1  0.587900  0.829600  0.342500  0.4905
  C  C2770  1  0.087900  0.670400  0.657500  0.4905
  C  C2771  1  0.412100  0.170400  0.657500  0.4905
  C  C2772  1  0.912100  0.329600  0.342500  0.4905
  C  C2773  1  0.642800  0.831000  0.337500  0.4905
  C  C2774  1  0.142800  0.669000  0.662500  0.4905
  C  C2775  1  0.357200  0.169000  0.662500  0.4905
  C  C2776  1  0.857200  0.331000  0.337500  0.4905
  C  C2777  1  0.715200  0.837500  0.305500  0.4905
  C  C2778  1  0.215200  0.662500  0.694500  0.4905
  C  C2779  1  0.284800  0.162500  0.694500  0.4905
  C  C2780  1  0.784800  0.337500  0.305500  0.4905
  C  C2781  1  0.745900  0.814200  0.319600  0.4905
  C  C2782  1  0.245900  0.685800  0.680400  0.4905
  C  C2783  1  0.254100  0.185800  0.680400  0.4905
  C  C2784  1  0.754100  0.314200  0.319600  0.4905
  C  C2785  1  0.799000  0.813500  0.313900  0.4905
  C  C2786  1  0.299000  0.686500  0.686100  0.4905
  C  C2787  1  0.201000  0.186500  0.686100  0.4905
  C  C2788  1  0.701000  0.313500  0.313900  0.4905
  C  C2789  1  0.822500  0.835900  0.294000  0.4905
  C  C2790  1  0.322500  0.664100  0.706000  0.4905
  C  C2791  1  0.177500  0.164100  0.706000  0.4905
  C  C2792  1  0.677500  0.335900  0.294000  0.4905
  C  C2793  1  0.791200  0.859200  0.280100  0.4905
  C  C2794  1  0.291200  0.640800  0.719900  0.4905
  C  C2795  1  0.208800  0.140800  0.719900  0.4905
  C  C2796  1  0.708800  0.359200  0.280100  0.4905
  C  C2797  1  0.738100  0.860000  0.285700  0.4905
  C  C2798  1  0.238100  0.640000  0.714300  0.4905
  C  C2799  1  0.261900  0.140000  0.714300  0.4905
  C  C2800  1  0.761900  0.360000  0.285700  0.4905
  C  C2801  1  0.879600  0.834600  0.287300  0.4905
  C  C2802  1  0.379600  0.665400  0.712700  0.4905
  C  C2803  1  0.120400  0.165400  0.712700  0.4905
  C  C2804  1  0.620400  0.334600  0.287300  0.4905
  C  C2805  1  0.640600  0.916700  0.241100  0.4905
  C  C2806  1  0.140600  0.583300  0.758900  0.4905
  C  C2807  1  0.359400  0.083300  0.758900  0.4905
  C  C2808  1  0.859400  0.416700  0.241100  0.4905
  C  C2809  1  0.438900  0.011050  0.479140  0.4905
  C  C2810  1  0.938900  0.488950  0.520860  0.4905
  C  C2811  1  0.561100  0.988950  0.520860  0.4905
  C  C2812  1  0.061100  0.511050  0.479140  0.4905
  C  C2813  1  0.435900  0.043310  0.487290  0.4905
  C  C2814  1  0.935900  0.456690  0.512710  0.4905
  C  C2815  1  0.564100  0.956690  0.512710  0.4905
  C  C2816  1  0.064100  0.543310  0.487290  0.4905
  C  C2817  1  0.406600  0.053080  0.513470  0.4905
  C  C2818  1  0.906600  0.446920  0.486530  0.4905
  C  C2819  1  0.593400  0.946920  0.486530  0.4905
  C  C2820  1  0.093400  0.553080  0.513470  0.4905
  C  C2821  1  0.379700  0.030950  0.532000  0.4905
  C  C2822  1  0.879700  0.469050  0.468000  0.4905
  C  C2823  1  0.620300  0.969050  0.468000  0.4905
  C  C2824  1  0.120300  0.530950  0.532000  0.4905
  C  C2825  1  0.383300  0.998630  0.523590  0.4905
  C  C2826  1  0.883300  0.501370  0.476410  0.4905
  C  C2827  1  0.616700  0.001370  0.476410  0.4905
  C  C2828  1  0.116700  0.498630  0.523590  0.4905
  C  C2829  1  0.412500  0.988700  0.497430  0.4905
  C  C2830  1  0.912500  0.511300  0.502570  0.4905
  C  C2831  1  0.587500  0.011300  0.502570  0.4905
  C  C2832  1  0.087500  0.488700  0.497430  0.4905
  C  C2833  1  0.347100  0.041650  0.559770  0.4905
  C  C2834  1  0.847100  0.458350  0.440230  0.4905
  C  C2835  1  0.652900  0.958350  0.440230  0.4905
  C  C2836  1  0.152900  0.541650  0.559770  0.4905
  C  C2837  1  0.645400  0.879230  0.200580  0.4905
  C  C2838  1  0.145400  0.620770  0.799420  0.4905
  C  C2839  1  0.354600  0.120770  0.799420  0.4905
  C  C2840  1  0.854600  0.379230  0.200580  0.4905
  C  C2841  1  0.669500  0.849970  0.194870  0.4905
  C  C2842  1  0.169500  0.650030  0.805130  0.4905
  C  C2843  1  0.330500  0.150030  0.805130  0.4905
  C  C2844  1  0.830500  0.349970  0.194870  0.4905
  C  C2845  1  0.669800  0.836790  0.164280  0.4905
  C  C2846  1  0.169800  0.663210  0.835720  0.4905
  C  C2847  1  0.330200  0.163210  0.835720  0.4905
  C  C2848  1  0.830200  0.336790  0.164280  0.4905
  C  C2849  1  0.646100  0.852440  0.138830  0.4905
  C  C2850  1  0.146100  0.647560  0.861170  0.4905
  C  C2851  1  0.353900  0.147560  0.861170  0.4905
  C  C2852  1  0.853900  0.352440  0.138830  0.4905
  C  C2853  1  0.622200  0.881850  0.144920  0.4905
  C  C2854  1  0.122200  0.618150  0.855080  0.4905
  C  C2855  1  0.377800  0.118150  0.855080  0.4905
  C  C2856  1  0.877800  0.381850  0.144920  0.4905
  C  C2857  1  0.621800  0.895160  0.175450  0.4905
  C  C2858  1  0.121800  0.604840  0.824550  0.4905
  C  C2859  1  0.378200  0.104840  0.824550  0.4905
  C  C2860  1  0.878200  0.395160  0.175450  0.4905
  C  C2861  1  0.645300  0.837770  0.106010  0.4905
  C  C2862  1  0.145300  0.662230  0.893990  0.4905
  C  C2863  1  0.354700  0.162230  0.893990  0.4905
  C  C2864  1  0.854700  0.337770  0.106010  0.4905
  C  C2865  1  0.618300  0.777140  0.247580  0.4905
  C  C2866  1  0.118300  0.722860  0.752420  0.4905
  C  C2867  1  0.381700  0.222860  0.752420  0.4905
  C  C2868  1  0.881700  0.277140  0.247580  0.4905
  C  C2869  1  0.639200  0.759770  0.222220  0.4905
  C  C2870  1  0.139200  0.740230  0.777780  0.4905
  C  C2871  1  0.360800  0.240230  0.777780  0.4905
  C  C2872  1  0.860800  0.259770  0.222220  0.4905
  C  C2873  1  0.666667  0.731760  0.227900  0.4905
  C  C2874  1  0.166667  0.768240  0.772100  0.4905
  C  C2875  1  0.333333  0.268240  0.772100  0.4905
  C  C2876  1  0.833333  0.231760  0.227900  0.4905
  C  C2877  1  0.673800  0.720530  0.258900  0.4905
  C  C2878  1  0.173800  0.779470  0.741100  0.4905
  C  C2879  1  0.326200  0.279470  0.741100  0.4905
  C  C2880  1  0.826200  0.220530  0.258900  0.4905
  C  C2881  1  0.652400  0.738180  0.284090  0.4905
  C  C2882  1  0.152400  0.761820  0.715910  0.4905
  C  C2883  1  0.347600  0.261820  0.715910  0.4905
  C  C2884  1  0.847600  0.238180  0.284090  0.4905
  C  C2885  1  0.625000  0.766210  0.278580  0.4905
  C  C2886  1  0.125000  0.733790  0.721420  0.4905
  C  C2887  1  0.375000  0.233790  0.721420  0.4905
  C  C2888  1  0.875000  0.266210  0.278580  0.4905
  C  C2889  1  0.704600  0.690710  0.265000  0.4905
  C  C2890  1  0.204600  0.809290  0.735000  0.4905
  C  C2891  1  0.295400  0.309290  0.735000  0.4905
  C  C2892  1  0.795400  0.190710  0.265000  0.4905
  C  C2893  1  0.560100  0.807600  0.219100  0.4905
  C  C2894  1  0.060100  0.692400  0.780900  0.4905
  C  C2895  1  0.439900  0.192400  0.780900  0.4905
  C  C2896  1  0.939900  0.307600  0.219100  0.4905
  C  C2897  1  0.510700  0.890300  0.222800  0.4905
  C  C2898  1  0.010700  0.609700  0.777200  0.4905
  C  C2899  1  0.489300  0.109700  0.777200  0.4905
  C  C2900  1  0.989300  0.390300  0.222800  0.4905
  C  C2901  1  0.485000  0.893400  0.194000  0.4905
  C  C2902  1  0.985000  0.606600  0.806000  0.4905
  C  C2903  1  0.515000  0.106600  0.806000  0.4905
  C  C2904  1  0.015000  0.393400  0.194000  0.4905
  C  C2905  1  0.482500  0.867700  0.172990  0.4905
  C  C2906  1  0.982500  0.632300  0.827010  0.4905
  C  C2907  1  0.517500  0.132300  0.827010  0.4905
  C  C2908  1  0.017500  0.367700  0.172990  0.4905
  C  C2909  1  0.505800  0.839000  0.180800  0.4905
  C  C2910  1  0.005800  0.661000  0.819200  0.4905
  C  C2911  1  0.494200  0.161000  0.819200  0.4905
  C  C2912  1  0.994200  0.339000  0.180800  0.4905
  C  C2913  1  0.531600  0.835900  0.209600  0.4905
  C  C2914  1  0.031600  0.664100  0.790400  0.4905
  C  C2915  1  0.468400  0.164100  0.790400  0.4905
  C  C2916  1  0.968400  0.335900  0.209600  0.4905
  C  C2917  1  0.423800  0.981600  0.160600  0.4905
  C  C2918  1  0.923800  0.518400  0.839400  0.4905
  C  C2919  1  0.576200  0.018400  0.839400  0.4905
  C  C2920  1  0.076200  0.481600  0.160600  0.4905
  C  C2921  1  0.417800  0.974400  0.192560  0.4905
  C  C2922  1  0.917800  0.525600  0.807440  0.4905
  C  C2923  1  0.582200  0.025600  0.807440  0.4905
  C  C2924  1  0.082200  0.474400  0.192560  0.4905
  C  C2925  1  0.437600  0.946100  0.204430  0.4905
  C  C2926  1  0.937600  0.553900  0.795570  0.4905
  C  C2927  1  0.562400  0.053900  0.795570  0.4905
  C  C2928  1  0.062400  0.446100  0.204430  0.4905
  C  C2929  1  0.463300  0.925000  0.184300  0.4905
  C  C2930  1  0.963300  0.575000  0.815700  0.4905
  C  C2931  1  0.536700  0.075000  0.815700  0.4905
  C  C2932  1  0.036700  0.425000  0.184300  0.4905
  C  C2933  1  0.469300  0.932200  0.152300  0.4905
  C  C2934  1  0.969300  0.567800  0.847700  0.4905
  C  C2935  1  0.530700  0.067800  0.847700  0.4905
  C  C2936  1  0.030700  0.432200  0.152300  0.4905
  C  C2937  1  0.375000  0.035900  0.099600  0.4905
  C  C2938  1  0.875000  0.464100  0.900400  0.4905
  C  C2939  1  0.625000  0.964100  0.900400  0.4905
  C  C2940  1  0.125000  0.535900  0.099600  0.4905
  C  C2941  1  0.347900  0.031660  0.071100  0.4905
  C  C2942  1  0.847900  0.468340  0.928900  0.4905
  C  C2943  1  0.652100  0.968340  0.928900  0.4905
  C  C2944  1  0.152100  0.531660  0.071100  0.4905
  C  C2945  1  0.332100  0.058100  0.053700  0.4905
  C  C2946  1  0.832100  0.441900  0.946300  0.4905
  C  C2947  1  0.667900  0.941900  0.946300  0.4905
  C  C2948  1  0.167900  0.558100  0.053700  0.4905
  C  C2949  1  0.342800  0.089160  0.064300  0.4905
  C  C2950  1  0.842800  0.410840  0.935700  0.4905
  C  C2951  1  0.657200  0.910840  0.935700  0.4905
  C  C2952  1  0.157200  0.589160  0.064300  0.4905
  C  C2953  1  0.370100  0.092980  0.092800  0.4905
  C  C2954  1  0.870100  0.407020  0.907200  0.4905
  C  C2955  1  0.629900  0.907020  0.907200  0.4905
  C  C2956  1  0.129900  0.592980  0.092800  0.4905
  C  C2957  1  0.386100  0.066700  0.110300  0.4905
  C  C2958  1  0.886100  0.433300  0.889700  0.4905
  C  C2959  1  0.613900  0.933300  0.889700  0.4905
  C  C2960  1  0.113900  0.566700  0.110300  0.4905
  C  C2961  1  0.324500  0.117600  0.045800  0.4905
  C  C2962  1  0.824500  0.382400  0.954200  0.4905
  C  C2963  1  0.675500  0.882400  0.954200  0.4905
  C  C2964  1  0.175500  0.617600  0.045800  0.4905
  C  C2965  1  0.397500  0.006400  0.144800  0.4905
  C  C2966  1  0.897500  0.493600  0.855200  0.4905
  C  C2967  1  0.602500  0.993600  0.855200  0.4905
  C  C2968  1  0.102500  0.506400  0.144800  0.4905
  C  C2969  1  0.579300  0.096200  0.172800  0.4905
  C  C2970  1  0.079300  0.403800  0.827200  0.4905
  C  C2971  1  0.420700  0.903800  0.827200  0.4905
  C  C2972  1  0.920700  0.596200  0.172800  0.4905
  C  C2973  1  0.588200  0.065400  0.161800  0.4905
  C  C2974  1  0.088200  0.434600  0.838200  0.4905
  C  C2975  1  0.411800  0.934600  0.838200  0.4905
  C  C2976  1  0.911800  0.565400  0.161800  0.4905
  C  C2977  1  0.625400  0.046600  0.176200  0.4905
  C  C2978  1  0.125400  0.453400  0.823800  0.4905
  C  C2979  1  0.374600  0.953400  0.823800  0.4905
  C  C2980  1  0.874600  0.546600  0.176200  0.4905
  C  C2981  1  0.653700  0.058600  0.201700  0.4905
  C  C2982  1  0.153700  0.441400  0.798300  0.4905
  C  C2983  1  0.346300  0.941400  0.798300  0.4905
  C  C2984  1  0.846300  0.558600  0.201700  0.4905
  C  C2985  1  0.644800  0.089400  0.212700  0.4905
  C  C2986  1  0.144800  0.410600  0.787300  0.4905
  C  C2987  1  0.355200  0.910600  0.787300  0.4905
  C  C2988  1  0.855200  0.589400  0.212700  0.4905
  C  C2989  1  0.578050  0.061200  0.423670  0.499
  C  C2990  1  0.078050  0.438800  0.576330  0.499
  C  C2991  1  0.421950  0.938800  0.576330  0.499
  C  C2992  1  0.921950  0.561200  0.423670  0.499
  C  C2993  1  0.608200  0.080400  0.443600  0.499
  C  C2994  1  0.108200  0.419600  0.556400  0.499
  C  C2995  1  0.391800  0.919600  0.556400  0.499
  C  C2996  1  0.891800  0.580400  0.443600  0.499
  C  C2997  1  0.661800  0.080500  0.440410  0.499
  C  C2998  1  0.161800  0.419500  0.559590  0.499
  C  C2999  1  0.338200  0.919500  0.559590  0.499
  C  C3000  1  0.838200  0.580500  0.440410  0.499
  C  C3001  1  0.686490  0.061600  0.417370  0.499
  C  C3002  1  0.186490  0.438400  0.582630  0.499
  C  C3003  1  0.313510  0.938400  0.582630  0.499
  C  C3004  1  0.813510  0.561600  0.417370  0.499
  C  C3005  1  0.655700  0.042500  0.397490  0.499
  C  C3006  1  0.155700  0.457500  0.602510  0.499
  C  C3007  1  0.344300  0.957500  0.602510  0.499
  C  C3008  1  0.844300  0.542500  0.397490  0.499
  C  C3009  1  0.602000  0.042200  0.400560  0.499
  C  C3010  1  0.102000  0.457800  0.599440  0.499
  C  C3011  1  0.398000  0.957800  0.599440  0.499
  C  C3012  1  0.898000  0.542200  0.400560  0.499
  C  C3013  1  0.744470  0.061300  0.414500  0.499
  C  C3014  1  0.244470  0.438700  0.585500  0.499
  C  C3015  1  0.255530  0.938700  0.585500  0.499
  C  C3016  1  0.755530  0.561300  0.414500  0.499
  C  C3017  1  0.579300  0.020200  0.308400  0.5
  C  C3018  1  0.079300  0.479800  0.691600  0.5
  C  C3019  1  0.420700  0.979800  0.691600  0.5
  C  C3020  1  0.920700  0.520200  0.308400  0.5
  C  C3021  1  0.583000  0.027000  0.342700  0.5
  C  C3022  1  0.083000  0.473000  0.657300  0.5
  C  C3023  1  0.417000  0.973000  0.657300  0.5
  C  C3024  1  0.917000  0.527000  0.342700  0.5
  C  C3025  1  0.249700  0.788700  0.005000  0.5
  C  C3026  1  0.749700  0.711300  0.995000  0.5
  C  C3027  1  0.750300  0.211300  0.995000  0.5
  C  C3028  1  0.250300  0.288700  0.005000  0.5
  C  C3029  1  0.275200  0.757300  0.997100  0.5
  C  C3030  1  0.775200  0.742700  0.002900  0.5
  C  C3031  1  0.724800  0.242700  0.002900  0.5
  C  C3032  1  0.224800  0.257300  0.997100  0.5
  C  C3033  1  0.575560  0.079900  0.424830  0.501
  C  C3034  1  0.075560  0.420100  0.575170  0.501
  C  C3035  1  0.424440  0.920100  0.575170  0.501
  C  C3036  1  0.924440  0.579900  0.424830  0.501
  C  C3037  1  0.603200  0.098400  0.446740  0.501
  C  C3038  1  0.103200  0.401600  0.553260  0.501
  C  C3039  1  0.396800  0.901600  0.553260  0.501
  C  C3040  1  0.896800  0.598400  0.446740  0.501
  C  C3041  1  0.657000  0.099600  0.445170  0.501
  C  C3042  1  0.157000  0.400400  0.554830  0.501
  C  C3043  1  0.343000  0.900400  0.554830  0.501
  C  C3044  1  0.843000  0.599600  0.445170  0.501
  C  C3045  1  0.684270  0.082600  0.421810  0.501
  C  C3046  1  0.184270  0.417400  0.578190  0.501
  C  C3047  1  0.315730  0.917400  0.578190  0.501
  C  C3048  1  0.815730  0.582600  0.421810  0.501
  C  C3049  1  0.655960  0.064300  0.399910  0.501
  C  C3050  1  0.155960  0.435700  0.600090  0.501
  C  C3051  1  0.344040  0.935700  0.600090  0.501
  C  C3052  1  0.844040  0.564300  0.399910  0.501
  C  C3053  1  0.602160  0.062900  0.401340  0.501
  C  C3054  1  0.102160  0.437100  0.598660  0.501
  C  C3055  1  0.397840  0.937100  0.598660  0.501
  C  C3056  1  0.897840  0.562900  0.401340  0.501
  C  C3057  1  0.742400  0.083400  0.420700  0.501
  C  C3058  1  0.242400  0.416600  0.579300  0.501
  C  C3059  1  0.257600  0.916600  0.579300  0.501
  C  C3060  1  0.757600  0.583400  0.420700  0.501
  C  C3061  1  0.502900  0.155700  0.175450  0.5095
  C  C3062  1  0.002900  0.344300  0.824550  0.5095
  C  C3063  1  0.497100  0.844300  0.824550  0.5095
  C  C3064  1  0.997100  0.655700  0.175450  0.5095
  C  C3065  1  0.478700  0.158800  0.146140  0.5095
  C  C3066  1  0.978700  0.341200  0.853860  0.5095
  C  C3067  1  0.521300  0.841200  0.853860  0.5095
  C  C3068  1  0.021300  0.658800  0.146140  0.5095
  C  C3069  1  0.508100  0.160400  0.118530  0.5095
  C  C3070  1  0.008100  0.339600  0.881470  0.5095
  C  C3071  1  0.491900  0.839600  0.881470  0.5095
  C  C3072  1  0.991900  0.660400  0.118530  0.5095
  C  C3073  1  0.561600  0.159000  0.120230  0.5095
  C  C3074  1  0.061600  0.341000  0.879770  0.5095
  C  C3075  1  0.438400  0.841000  0.879770  0.5095
  C  C3076  1  0.938400  0.659000  0.120230  0.5095
  C  C3077  1  0.585800  0.155900  0.149540  0.5095
  C  C3078  1  0.085800  0.344100  0.850460  0.5095
  C  C3079  1  0.414200  0.844100  0.850460  0.5095
  C  C3080  1  0.914200  0.655900  0.149540  0.5095
  C  C3081  1  0.639900  0.156500  0.152800  0.5095
  C  C3082  1  0.139900  0.343500  0.847200  0.5095
  C  C3083  1  0.360100  0.843500  0.847200  0.5095
  C  C3084  1  0.860100  0.656500  0.152800  0.5095
  C  C3085  1  0.716900  0.151800  0.181700  0.5095
  C  C3086  1  0.216900  0.348200  0.818300  0.5095
  C  C3087  1  0.283100  0.848200  0.818300  0.5095
  C  C3088  1  0.783100  0.651800  0.181700  0.5095
  C  C3089  1  0.742300  0.130100  0.201200  0.5095
  C  C3090  1  0.242300  0.369900  0.798800  0.5095
  C  C3091  1  0.257700  0.869900  0.798800  0.5095
  C  C3092  1  0.757700  0.630100  0.201200  0.5095
  C  C3093  1  0.796100  0.130400  0.203300  0.5095
  C  C3094  1  0.296100  0.369600  0.796700  0.5095
  C  C3095  1  0.203900  0.869600  0.796700  0.5095
  C  C3096  1  0.703900  0.630400  0.203300  0.5095
  C  C3097  1  0.825600  0.152200  0.185900  0.5095
  C  C3098  1  0.325600  0.347800  0.814100  0.5095
  C  C3099  1  0.174400  0.847800  0.814100  0.5095
  C  C3100  1  0.674400  0.652200  0.185900  0.5095
  C  C3101  1  0.799500  0.173900  0.166400  0.5095
  C  C3102  1  0.299500  0.326100  0.833600  0.5095
  C  C3103  1  0.200500  0.826100  0.833600  0.5095
  C  C3104  1  0.700500  0.673900  0.166400  0.5095
  C  C3105  1  0.745700  0.173700  0.164300  0.5095
  C  C3106  1  0.245700  0.326300  0.835700  0.5095
  C  C3107  1  0.254300  0.826300  0.835700  0.5095
  C  C3108  1  0.754300  0.673700  0.164300  0.5095
  C  C3109  1  0.883700  0.151900  0.187600  0.5095
  C  C3110  1  0.383700  0.348100  0.812400  0.5095
  C  C3111  1  0.116300  0.848100  0.812400  0.5095
  C  C3112  1  0.616300  0.651900  0.187600  0.5095
  C  C3113  1  0.413400  0.990700  0.351000  0.5095
  C  C3114  1  0.913400  0.509300  0.649000  0.5095
  C  C3115  1  0.586600  0.009300  0.649000  0.5095
  C  C3116  1  0.086600  0.490700  0.351000  0.5095
  C  C3117  1  0.387700  0.959600  0.395000  0.5095
  C  C3118  1  0.887700  0.540400  0.605000  0.5095
  C  C3119  1  0.612300  0.040400  0.605000  0.5095
  C  C3120  1  0.112300  0.459600  0.395000  0.5095
  C  C3121  1  0.358900  0.963500  0.422800  0.5095
  C  C3122  1  0.858900  0.536500  0.577200  0.5095
  C  C3123  1  0.641100  0.036500  0.577200  0.5095
  C  C3124  1  0.141100  0.463500  0.422800  0.5095
  C  C3125  1  0.342500  0.937000  0.439800  0.5095
  C  C3126  1  0.842500  0.563000  0.560200  0.5095
  C  C3127  1  0.657500  0.063000  0.560200  0.5095
  C  C3128  1  0.157500  0.437000  0.439800  0.5095
  C  C3129  1  0.354400  0.906000  0.429400  0.5095
  C  C3130  1  0.854400  0.594000  0.570600  0.5095
  C  C3131  1  0.645600  0.094000  0.570600  0.5095
  C  C3132  1  0.145600  0.406000  0.429400  0.5095
  C  C3133  1  0.383500  0.902400  0.401500  0.5095
  C  C3134  1  0.883500  0.597600  0.598500  0.5095
  C  C3135  1  0.616500  0.097600  0.598500  0.5095
  C  C3136  1  0.116500  0.402400  0.401500  0.5095
  C  C3137  1  0.400100  0.928900  0.384400  0.5095
  C  C3138  1  0.900100  0.571100  0.615600  0.5095
  C  C3139  1  0.599900  0.071100  0.615600  0.5095
  C  C3140  1  0.099900  0.428900  0.384400  0.5095
  C  C3141  1  0.335500  0.877300  0.447400  0.5095
  C  C3142  1  0.835500  0.622700  0.552600  0.5095
  C  C3143  1  0.664500  0.122700  0.552600  0.5095
  C  C3144  1  0.164500  0.377300  0.447400  0.5095
  C  C3145  1  0.440200  0.016700  0.336700  0.5095
  C  C3146  1  0.940200  0.483300  0.663300  0.5095
  C  C3147  1  0.559800  0.983300  0.663300  0.5095
  C  C3148  1  0.059800  0.516700  0.336700  0.5095
  C  C3149  1  0.431900  0.026900  0.305740  0.5095
  C  C3150  1  0.931900  0.473100  0.694260  0.5095
  C  C3151  1  0.568100  0.973100  0.694260  0.5095
  C  C3152  1  0.068100  0.526900  0.305740  0.5095
  C  C3153  1  0.454300  0.055000  0.295270  0.5095
  C  C3154  1  0.954300  0.445000  0.704730  0.5095
  C  C3155  1  0.545700  0.945000  0.704730  0.5095
  C  C3156  1  0.045700  0.555000  0.295270  0.5095
  C  C3157  1  0.484900  0.073000  0.315800  0.5095
  C  C3158  1  0.984900  0.427000  0.684200  0.5095
  C  C3159  1  0.515100  0.927000  0.684200  0.5095
  C  C3160  1  0.015100  0.573000  0.315800  0.5095
  C  C3161  1  0.493200  0.062800  0.346730  0.5095
  C  C3162  1  0.993200  0.437200  0.653270  0.5095
  C  C3163  1  0.506800  0.937200  0.653270  0.5095
  C  C3164  1  0.006800  0.562800  0.346730  0.5095
  C  C3165  1  0.524500  0.106500  0.275800  0.5095
  C  C3166  1  0.024500  0.393500  0.724200  0.5095
  C  C3167  1  0.475500  0.893500  0.724200  0.5095
  C  C3168  1  0.975500  0.606500  0.275800  0.5095
  C  C3169  1  0.508100  0.103000  0.307000  0.5095
  C  C3170  1  0.008100  0.397000  0.693000  0.5095
  C  C3171  1  0.491900  0.897000  0.693000  0.5095
  C  C3172  1  0.991900  0.603000  0.307000  0.5095
  C  C3173  1  0.516800  0.127200  0.329110  0.5095
  C  C3174  1  0.016800  0.372800  0.670890  0.5095
  C  C3175  1  0.483200  0.872800  0.670890  0.5095
  C  C3176  1  0.983200  0.627200  0.329110  0.5095
  C  C3177  1  0.541800  0.154900  0.320000  0.5095
  C  C3178  1  0.041800  0.345100  0.680000  0.5095
  C  C3179  1  0.458200  0.845100  0.680000  0.5095
  C  C3180  1  0.958200  0.654900  0.320000  0.5095
  C  C3181  1  0.558300  0.158400  0.288800  0.5095
  C  C3182  1  0.058300  0.341600  0.711200  0.5095
  C  C3183  1  0.441700  0.841600  0.711200  0.5095
  C  C3184  1  0.941700  0.658400  0.288800  0.5095
  C  C3185  1  0.590400  0.186000  0.277000  0.5095
  C  C3186  1  0.090400  0.314000  0.723000  0.5095
  C  C3187  1  0.409600  0.814000  0.723000  0.5095
  C  C3188  1  0.909600  0.686000  0.277000  0.5095
  C  C3189  1  0.643000  0.212200  0.241400  0.5095
  C  C3190  1  0.143000  0.287800  0.758600  0.5095
  C  C3191  1  0.357000  0.787800  0.758600  0.5095
  C  C3192  1  0.857000  0.712200  0.241400  0.5095
  C  C3193  1  0.639600  0.221700  0.209700  0.5095
  C  C3194  1  0.139600  0.278300  0.790300  0.5095
  C  C3195  1  0.360400  0.778300  0.790300  0.5095
  C  C3196  1  0.860400  0.721700  0.209700  0.5095
  C  C3197  1  0.668700  0.247400  0.198900  0.5095
  C  C3198  1  0.168700  0.252600  0.801100  0.5095
  C  C3199  1  0.331300  0.752600  0.801100  0.5095
  C  C3200  1  0.831300  0.747400  0.198900  0.5095
  C  C3201  1  0.701700  0.264200  0.219400  0.5095
  C  C3202  1  0.201700  0.235800  0.780600  0.5095
  C  C3203  1  0.298300  0.735800  0.780600  0.5095
  C  C3204  1  0.798300  0.764200  0.219400  0.5095
  C  C3205  1  0.704800  0.254400  0.251100  0.5095
  C  C3206  1  0.204800  0.245600  0.748900  0.5095
  C  C3207  1  0.295200  0.745600  0.748900  0.5095
  C  C3208  1  0.795200  0.754400  0.251100  0.5095
  C  C3209  1  0.675800  0.228700  0.262100  0.5095
  C  C3210  1  0.175800  0.271300  0.737900  0.5095
  C  C3211  1  0.324200  0.771300  0.737900  0.5095
  C  C3212  1  0.824200  0.728700  0.262100  0.5095
  C  C3213  1  0.732100  0.292500  0.207900  0.5095
  C  C3214  1  0.232100  0.207500  0.792100  0.5095
  C  C3215  1  0.267900  0.707500  0.792100  0.5095
  C  C3216  1  0.767900  0.792500  0.207900  0.5095
  C  C3217  1  0.590400  0.894500  0.328100  0.5095
  C  C3218  1  0.090400  0.605500  0.671900  0.5095
  C  C3219  1  0.409600  0.105500  0.671900  0.5095
  C  C3220  1  0.909600  0.394500  0.328100  0.5095
  C  C3221  1  0.599000  0.924500  0.341300  0.5095
  C  C3222  1  0.099000  0.575500  0.658700  0.5095
  C  C3223  1  0.401000  0.075500  0.658700  0.5095
  C  C3224  1  0.901000  0.424500  0.341300  0.5095
  C  C3225  1  0.633900  0.945100  0.327200  0.5095
  C  C3226  1  0.133900  0.554900  0.672800  0.5095
  C  C3227  1  0.366100  0.054900  0.672800  0.5095
  C  C3228  1  0.866100  0.445100  0.327200  0.5095
  C  C3229  1  0.660200  0.935800  0.299800  0.5095
  C  C3230  1  0.160200  0.564200  0.700200  0.5095
  C  C3231  1  0.339800  0.064200  0.700200  0.5095
  C  C3232  1  0.839800  0.435800  0.299800  0.5095
  C  C3233  1  0.651600  0.905800  0.286600  0.5095
  C  C3234  1  0.151600  0.594200  0.713400  0.5095
  C  C3235  1  0.348400  0.094200  0.713400  0.5095
  C  C3236  1  0.848400  0.405800  0.286600  0.5095
  C  C3237  1  0.511600  0.949300  0.424150  0.5095
  C  C3238  1  0.011600  0.550700  0.575850  0.5095
  C  C3239  1  0.488400  0.050700  0.575850  0.5095
  C  C3240  1  0.988400  0.449300  0.424150  0.5095
  C  C3241  1  0.529500  0.918300  0.419700  0.5095
  C  C3242  1  0.029500  0.581700  0.580300  0.5095
  C  C3243  1  0.470500  0.081700  0.580300  0.5095
  C  C3244  1  0.970500  0.418300  0.419700  0.5095
  C  C3245  1  0.558400  0.910610  0.392900  0.5095
  C  C3246  1  0.058400  0.589390  0.607100  0.5095
  C  C3247  1  0.441600  0.089390  0.607100  0.5095
  C  C3248  1  0.941600  0.410610  0.392900  0.5095
  C  C3249  1  0.569400  0.933800  0.370500  0.5095
  C  C3250  1  0.069400  0.566200  0.629500  0.5095
  C  C3251  1  0.430600  0.066200  0.629500  0.5095
  C  C3252  1  0.930600  0.433800  0.370500  0.5095
  C  C3253  1  0.551600  0.964800  0.374960  0.5095
  C  C3254  1  0.051600  0.535200  0.625040  0.5095
  C  C3255  1  0.448400  0.035200  0.625040  0.5095
  C  C3256  1  0.948400  0.464800  0.374960  0.5095
  C  C3257  1  0.483900  0.959300  0.452800  0.5095
  C  C3258  1  0.983900  0.540700  0.547200  0.5095
  C  C3259  1  0.516100  0.040700  0.547200  0.5095
  C  C3260  1  0.016100  0.459300  0.452800  0.5095
  C  C3261  1  0.679000  0.892400  0.258200  0.5095
  C  C3262  1  0.179000  0.607600  0.741800  0.5095
  C  C3263  1  0.321000  0.107600  0.741800  0.5095
  C  C3264  1  0.821000  0.392400  0.258200  0.5095
  C  C3265  1  0.436100  0.995870  0.482170  0.5095
  C  C3266  1  0.936100  0.504130  0.517830  0.5095
  C  C3267  1  0.563900  0.004130  0.517830  0.5095
  C  C3268  1  0.063900  0.495870  0.482170  0.5095
  C  C3269  1  0.410800  0.973090  0.500510  0.5095
  C  C3270  1  0.910800  0.526910  0.499490  0.5095
  C  C3271  1  0.589200  0.026910  0.499490  0.5095
  C  C3272  1  0.089200  0.473090  0.500510  0.5095
  C  C3273  1  0.380300  0.982570  0.526240  0.5095
  C  C3274  1  0.880300  0.517430  0.473760  0.5095
  C  C3275  1  0.619700  0.017430  0.473760  0.5095
  C  C3276  1  0.119700  0.482570  0.526240  0.5095
  C  C3277  1  0.374300  0.014860  0.534210  0.5095
  C  C3278  1  0.874300  0.485140  0.465790  0.5095
  C  C3279  1  0.625700  0.985140  0.465790  0.5095
  C  C3280  1  0.125700  0.514860  0.534210  0.5095
  C  C3281  1  0.399800  0.037450  0.515520  0.5095
  C  C3282  1  0.899800  0.462550  0.484480  0.5095
  C  C3283  1  0.600200  0.962550  0.484480  0.5095
  C  C3284  1  0.100200  0.537450  0.515520  0.5095
  C  C3285  1  0.430500  0.028130  0.489760  0.5095
  C  C3286  1  0.930500  0.471870  0.510240  0.5095
  C  C3287  1  0.569500  0.971870  0.510240  0.5095
  C  C3288  1  0.069500  0.528130  0.489760  0.5095
  C  C3289  1  0.342400  0.025000  0.562480  0.5095
  C  C3290  1  0.842400  0.475000  0.437520  0.5095
  C  C3291  1  0.657600  0.975000  0.437520  0.5095
  C  C3292  1  0.157600  0.525000  0.562480  0.5095
  C  C3293  1  0.691100  0.853180  0.217660  0.5095
  C  C3294  1  0.191100  0.646820  0.782340  0.5095
  C  C3295  1  0.308900  0.146820  0.782340  0.5095
  C  C3296  1  0.808900  0.353180  0.217660  0.5095
  C  C3297  1  0.709300  0.875300  0.195730  0.5095
  C  C3298  1  0.209300  0.624700  0.804270  0.5095
  C  C3299  1  0.290700  0.124700  0.804270  0.5095
  C  C3300  1  0.790700  0.375300  0.195730  0.5095
  C  C3301  1  0.729700  0.865000  0.166700  0.5095
  C  C3302  1  0.229700  0.635000  0.833300  0.5095
  C  C3303  1  0.270300  0.135000  0.833300  0.5095
  C  C3304  1  0.770300  0.365000  0.166700  0.5095
  C  C3305  1  0.732400  0.832500  0.158980  0.5095
  C  C3306  1  0.232400  0.667500  0.841020  0.5095
  C  C3307  1  0.267600  0.167500  0.841020  0.5095
  C  C3308  1  0.767600  0.332500  0.158980  0.5095
  C  C3309  1  0.713800  0.810500  0.181210  0.5095
  C  C3310  1  0.213800  0.689500  0.818790  0.5095
  C  C3311  1  0.286200  0.189500  0.818790  0.5095
  C  C3312  1  0.786200  0.310500  0.181210  0.5095
  C  C3313  1  0.693400  0.820700  0.210280  0.5095
  C  C3314  1  0.193400  0.679300  0.789720  0.5095
  C  C3315  1  0.306600  0.179300  0.789720  0.5095
  C  C3316  1  0.806600  0.320700  0.210280  0.5095
  C  C3317  1  0.755700  0.821400  0.127970  0.5095
  C  C3318  1  0.255700  0.678600  0.872030  0.5095
  C  C3319  1  0.244300  0.178600  0.872030  0.5095
  C  C3320  1  0.744300  0.321400  0.127970  0.5095
  C  C3321  1  0.637900  0.806600  0.341200  0.5095
  C  C3322  1  0.137900  0.693400  0.658800  0.5095
  C  C3323  1  0.362100  0.193400  0.658800  0.5095
  C  C3324  1  0.862100  0.306600  0.341200  0.5095
  C  C3325  1  0.502300  0.819200  0.319300  0.5095
  C  C3326  1  0.002300  0.680800  0.680700  0.5095
  C  C3327  1  0.497700  0.180800  0.680700  0.5095
  C  C3328  1  0.997700  0.319200  0.319300  0.5095
  C  C3329  1  0.477900  0.807100  0.346000  0.5095
  C  C3330  1  0.977900  0.692900  0.654000  0.5095
  C  C3331  1  0.522100  0.192900  0.654000  0.5095
  C  C3332  1  0.022100  0.307100  0.346000  0.5095
  C  C3333  1  0.507100  0.795300  0.371000  0.5095
  C  C3334  1  0.007100  0.704700  0.629000  0.5095
  C  C3335  1  0.492900  0.204700  0.629000  0.5095
  C  C3336  1  0.992900  0.295300  0.371000  0.5095
  C  C3337  1  0.560600  0.795700  0.369400  0.5095
  C  C3338  1  0.060600  0.704300  0.630600  0.5095
  C  C3339  1  0.439400  0.204300  0.630600  0.5095
  C  C3340  1  0.939400  0.295700  0.369400  0.5095
  C  C3341  1  0.585100  0.807800  0.342600  0.5095
  C  C3342  1  0.085100  0.692200  0.657400  0.5095
  C  C3343  1  0.414900  0.192200  0.657400  0.5095
  C  C3344  1  0.914900  0.307800  0.342600  0.5095
  C  C3345  1  0.716600  0.816400  0.313400  0.5095
  C  C3346  1  0.216600  0.683600  0.686600  0.5095
  C  C3347  1  0.283400  0.183600  0.686600  0.5095
  C  C3348  1  0.783400  0.316400  0.313400  0.5095
  C  C3349  1  0.744100  0.798700  0.290900  0.5095
  C  C3350  1  0.244100  0.701300  0.709100  0.5095
  C  C3351  1  0.255900  0.201300  0.709100  0.5095
  C  C3352  1  0.755900  0.298700  0.290900  0.5095
  C  C3353  1  0.798000  0.799600  0.290600  0.5095
  C  C3354  1  0.298000  0.700400  0.709400  0.5095
  C  C3355  1  0.202000  0.200400  0.709400  0.5095
  C  C3356  1  0.702000  0.299600  0.290600  0.5095
  C  C3357  1  0.825500  0.818200  0.312600  0.5095
  C  C3358  1  0.325500  0.681800  0.687400  0.5095
  C  C3359  1  0.174500  0.181800  0.687400  0.5095
  C  C3360  1  0.674500  0.318200  0.312600  0.5095
  C  C3361  1  0.797300  0.835800  0.335100  0.5095
  C  C3362  1  0.297300  0.664200  0.664900  0.5095
  C  C3363  1  0.202700  0.164200  0.664900  0.5095
  C  C3364  1  0.702700  0.335800  0.335100  0.5095
  C  C3365  1  0.743400  0.835000  0.335600  0.5095
  C  C3366  1  0.243400  0.665000  0.664400  0.5095
  C  C3367  1  0.256600  0.165000  0.664400  0.5095
  C  C3368  1  0.756600  0.335000  0.335600  0.5095
  C  C3369  1  0.883600  0.819800  0.311700  0.5095
  C  C3370  1  0.383600  0.680200  0.688300  0.5095
  C  C3371  1  0.116400  0.180200  0.688300  0.5095
  C  C3372  1  0.616400  0.319800  0.311700  0.5095
  C  C3373  1  0.611500  0.756200  0.253600  0.5095
  C  C3374  1  0.111500  0.743800  0.746400  0.5095
  C  C3375  1  0.388500  0.243800  0.746400  0.5095
  C  C3376  1  0.888500  0.256200  0.253600  0.5095
  C  C3377  1  0.638100  0.736900  0.231900  0.5095
  C  C3378  1  0.138100  0.763100  0.768100  0.5095
  C  C3379  1  0.361900  0.263100  0.768100  0.5095
  C  C3380  1  0.861900  0.236900  0.231900  0.5095
  C  C3381  1  0.649000  0.705200  0.239300  0.5095
  C  C3382  1  0.149000  0.794800  0.760700  0.5095
  C  C3383  1  0.351000  0.294800  0.760700  0.5095
  C  C3384  1  0.851000  0.205200  0.239300  0.5095
  C  C3385  1  0.633800  0.692200  0.268500  0.5095
  C  C3386  1  0.133800  0.807800  0.731500  0.5095
  C  C3387  1  0.366200  0.307800  0.731500  0.5095
  C  C3388  1  0.866200  0.192200  0.268500  0.5095
  C  C3389  1  0.607000  0.711900  0.289900  0.5095
  C  C3390  1  0.107000  0.788100  0.710100  0.5095
  C  C3391  1  0.393000  0.288100  0.710100  0.5095
  C  C3392  1  0.893000  0.211900  0.289900  0.5095
  C  C3393  1  0.596000  0.743500  0.282700  0.5095
  C  C3394  1  0.096000  0.756500  0.717300  0.5095
  C  C3395  1  0.404000  0.256500  0.717300  0.5095
  C  C3396  1  0.904000  0.243500  0.282700  0.5095
  C  C3397  1  0.646700  0.658300  0.276700  0.5095
  C  C3398  1  0.146700  0.841700  0.723300  0.5095
  C  C3399  1  0.353300  0.341700  0.723300  0.5095
  C  C3400  1  0.853300  0.158300  0.276700  0.5095
  C  C3401  1  0.566500  0.791100  0.220400  0.5095
  C  C3402  1  0.066500  0.708900  0.779600  0.5095
  C  C3403  1  0.433500  0.208900  0.779600  0.5095
  C  C3404  1  0.933500  0.291100  0.220400  0.5095
  C  C3405  1  0.526100  0.875200  0.224000  0.5095
  C  C3406  1  0.026100  0.624800  0.776000  0.5095
  C  C3407  1  0.473900  0.124800  0.776000  0.5095
  C  C3408  1  0.973900  0.375200  0.224000  0.5095
  C  C3409  1  0.497500  0.877500  0.196200  0.5095
  C  C3410  1  0.997500  0.622500  0.803800  0.5095
  C  C3411  1  0.502500  0.122500  0.803800  0.5095
  C  C3412  1  0.002500  0.377500  0.196200  0.5095
  C  C3413  1  0.493000  0.851300  0.175900  0.5095
  C  C3414  1  0.993000  0.648700  0.824100  0.5095
  C  C3415  1  0.507000  0.148700  0.824100  0.5095
  C  C3416  1  0.007000  0.351300  0.175900  0.5095
  C  C3417  1  0.517100  0.822800  0.183500  0.5095
  C  C3418  1  0.017100  0.677200  0.816500  0.5095
  C  C3419  1  0.482900  0.177200  0.816500  0.5095
  C  C3420  1  0.982900  0.322800  0.183500  0.5095
  C  C3421  1  0.545800  0.820500  0.211300  0.5095
  C  C3422  1  0.045800  0.679500  0.788700  0.5095
  C  C3423  1  0.454200  0.179500  0.788700  0.5095
  C  C3424  1  0.954200  0.320500  0.211300  0.5095
  C  C3425  1  0.431300  0.964600  0.164500  0.5095
  C  C3426  1  0.931300  0.535400  0.835500  0.5095
  C  C3427  1  0.568700  0.035400  0.835500  0.5095
  C  C3428  1  0.068700  0.464600  0.164500  0.5095
  C  C3429  1  0.433300  0.959900  0.197500  0.5095
  C  C3430  1  0.933300  0.540100  0.802500  0.5095
  C  C3431  1  0.566700  0.040100  0.802500  0.5095
  C  C3432  1  0.066700  0.459900  0.197500  0.5095
  C  C3433  1  0.454300  0.931700  0.208000  0.5095
  C  C3434  1  0.954300  0.568300  0.792000  0.5095
  C  C3435  1  0.545700  0.068300  0.792000  0.5095
  C  C3436  1  0.045700  0.431700  0.208000  0.5095
  C  C3437  1  0.475000  0.909300  0.186000  0.5095
  C  C3438  1  0.975000  0.590700  0.814000  0.5095
  C  C3439  1  0.525000  0.090700  0.814000  0.5095
  C  C3440  1  0.025000  0.409300  0.186000  0.5095
  C  C3441  1  0.474400  0.916800  0.155600  0.5095
  C  C3442  1  0.974400  0.583200  0.844400  0.5095
  C  C3443  1  0.525600  0.083200  0.844400  0.5095
  C  C3444  1  0.025600  0.416800  0.155600  0.5095
  C  C3445  1  0.405200  0.992400  0.152300  0.5095
  C  C3446  1  0.905200  0.507600  0.847700  0.5095
  C  C3447  1  0.594800  0.007600  0.847700  0.5095
  C  C3448  1  0.094800  0.492400  0.152300  0.5095
  C  C3449  1  0.378200  0.023500  0.108900  0.5095
  C  C3450  1  0.878200  0.476500  0.891100  0.5095
  C  C3451  1  0.621800  0.976500  0.891100  0.5095
  C  C3452  1  0.121800  0.523500  0.108900  0.5095
  C  C3453  1  0.388400  0.053800  0.121200  0.5095
  C  C3454  1  0.888400  0.446200  0.878800  0.5095
  C  C3455  1  0.611600  0.946200  0.878800  0.5095
  C  C3456  1  0.111600  0.553800  0.121200  0.5095
  C  C3457  1  0.372500  0.080900  0.104700  0.5095
  C  C3458  1  0.872500  0.419100  0.895300  0.5095
  C  C3459  1  0.627500  0.919100  0.895300  0.5095
  C  C3460  1  0.127500  0.580900  0.104700  0.5095
  C  C3461  1  0.346100  0.078200  0.075700  0.5095
  C  C3462  1  0.846100  0.421800  0.924300  0.5095
  C  C3463  1  0.653900  0.921800  0.924300  0.5095
  C  C3464  1  0.153900  0.578200  0.075700  0.5095
  C  C3465  1  0.336000  0.047600  0.063700  0.5095
  C  C3466  1  0.836000  0.452400  0.936300  0.5095
  C  C3467  1  0.664000  0.952400  0.936300  0.5095
  C  C3468  1  0.164000  0.547600  0.063700  0.5095
  C  C3469  1  0.351800  0.020500  0.080000  0.5095
  C  C3470  1  0.851800  0.479500  0.920000  0.5095
  C  C3471  1  0.648200  0.979500  0.920000  0.5095
  C  C3472  1  0.148200  0.520500  0.080000  0.5095
  C  C3473  1  0.330100  0.107500  0.057600  0.5095
  C  C3474  1  0.830100  0.392500  0.942400  0.5095
  C  C3475  1  0.669900  0.892500  0.942400  0.5095
  C  C3476  1  0.169900  0.607500  0.057600  0.5095
  C  C3477  1  0.582600  0.080470  0.173030  0.5095
  C  C3478  1  0.082600  0.419530  0.826970  0.5095
  C  C3479  1  0.417400  0.919530  0.826970  0.5095
  C  C3480  1  0.917400  0.580470  0.173030  0.5095
  C  C3481  1  0.588100  0.050250  0.159720  0.5095
  C  C3482  1  0.088100  0.449750  0.840280  0.5095
  C  C3483  1  0.411900  0.949750  0.840280  0.5095
  C  C3484  1  0.911900  0.550250  0.159720  0.5095
  C  C3485  1  0.616200  0.027080  0.175610  0.5095
  C  C3486  1  0.116200  0.472920  0.824390  0.5095
  C  C3487  1  0.383800  0.972920  0.824390  0.5095
  C  C3488  1  0.883800  0.527080  0.175610  0.5095
  C  C3489  1  0.638700  0.034130  0.204820  0.5095
  C  C3490  1  0.138700  0.465870  0.795180  0.5095
  C  C3491  1  0.361300  0.965870  0.795180  0.5095
  C  C3492  1  0.861300  0.534130  0.204820  0.5095
  C  C3493  1  0.633200  0.064400  0.218130  0.5095
  C  C3494  1  0.133200  0.435600  0.781870  0.5095
  C  C3495  1  0.366800  0.935600  0.781870  0.5095
  C  C3496  1  0.866800  0.564400  0.218130  0.5095
  C  C3497  1  0.552610  0.916430  0.071280  0.569
  C  C3498  1  0.052610  0.583570  0.928720  0.569
  C  C3499  1  0.447390  0.083570  0.928720  0.569
  C  C3500  1  0.947390  0.416430  0.071280  0.569
  C  C3501  1  0.578710  0.901660  0.046120  0.569
  C  C3502  1  0.078710  0.598340  0.953880  0.569
  C  C3503  1  0.421290  0.098340  0.953880  0.569
  C  C3504  1  0.921290  0.401660  0.046120  0.569
  C  C3505  1  0.632490  0.899600  0.046490  0.569
  C  C3506  1  0.132490  0.600400  0.953510  0.569
  C  C3507  1  0.367510  0.100400  0.953510  0.569
  C  C3508  1  0.867510  0.399600  0.046490  0.569
  C  C3509  1  0.661320  0.912200  0.071840  0.569
  C  C3510  1  0.161320  0.587800  0.928160  0.569
  C  C3511  1  0.338680  0.087800  0.928160  0.569
  C  C3512  1  0.838680  0.412200  0.071840  0.569
  C  C3513  1  0.634560  0.926900  0.096960  0.569
  C  C3514  1  0.134560  0.573100  0.903040  0.569
  C  C3515  1  0.365440  0.073100  0.903040  0.569
  C  C3516  1  0.865440  0.426900  0.096960  0.569
  C  C3517  1  0.580760  0.929040  0.096740  0.569
  C  C3518  1  0.080760  0.570960  0.903260  0.569
  C  C3519  1  0.419240  0.070960  0.903260  0.569
  C  C3520  1  0.919240  0.429040  0.096740  0.569
  C  C3521  1  0.719430  0.910600  0.071770  0.569
  C  C3522  1  0.219430  0.589400  0.928230  0.569
  C  C3523  1  0.280570  0.089400  0.928230  0.569
  C  C3524  1  0.780570  0.410600  0.071770  0.569
  C  C3525  1  0.652300  0.075500  0.248700  0.612
  C  C3526  1  0.152300  0.424500  0.751300  0.612
  C  C3527  1  0.347700  0.924500  0.751300  0.612
  C  C3528  1  0.847700  0.575500  0.248700  0.612
  C  C3529  1  0.666900  0.113600  0.288400  0.612
  C  C3530  1  0.166900  0.386400  0.711600  0.612
  C  C3531  1  0.333100  0.886400  0.711600  0.612
  C  C3532  1  0.833100  0.613600  0.288400  0.612
  C  C3533  1  0.694600  0.141800  0.293000  0.612
  C  C3534  1  0.194600  0.358200  0.707000  0.612
  C  C3535  1  0.305400  0.858200  0.707000  0.612
  C  C3536  1  0.805400  0.641800  0.293000  0.612
  C  C3537  1  0.702000  0.153900  0.323700  0.612
  C  C3538  1  0.202000  0.346100  0.676300  0.612
  C  C3539  1  0.298000  0.846100  0.676300  0.612
  C  C3540  1  0.798000  0.653900  0.323700  0.612
  C  C3541  1  0.681900  0.138200  0.350300  0.612
  C  C3542  1  0.181900  0.361800  0.649700  0.612
  C  C3543  1  0.318100  0.861800  0.649700  0.612
  C  C3544  1  0.818100  0.638200  0.350300  0.612
  C  C3545  1  0.654300  0.109800  0.345200  0.612
  C  C3546  1  0.154300  0.390200  0.654800  0.612
  C  C3547  1  0.345700  0.890200  0.654800  0.612
  C  C3548  1  0.845700  0.609800  0.345200  0.612
  C  C3549  1  0.646800  0.097600  0.314600  0.612
  C  C3550  1  0.146800  0.402400  0.685400  0.612
  C  C3551  1  0.353200  0.902400  0.685400  0.612
  C  C3552  1  0.853200  0.597600  0.314600  0.612
  C  C3553  1  0.688800  0.151700  0.383300  0.612
  C  C3554  1  0.188800  0.348300  0.616700  0.612
  C  C3555  1  0.311200  0.848300  0.616700  0.612
  C  C3556  1  0.811200  0.651700  0.383300  0.612
  C  C3557  1  0.493900  0.749000  0.260200  0.64
  C  C3558  1  0.993900  0.751000  0.739800  0.64
  C  C3559  1  0.506100  0.251000  0.739800  0.64
  C  C3560  1  0.006100  0.249000  0.260200  0.64
  C  C3561  1  0.515200  0.721400  0.246500  0.64
  C  C3562  1  0.015200  0.778600  0.753500  0.64
  C  C3563  1  0.484800  0.278600  0.753500  0.64
  C  C3564  1  0.984800  0.221400  0.246500  0.64
  C  C3565  1  0.535200  0.185200  0.421100  0.78
  C  C3566  1  0.035200  0.314800  0.578900  0.78
  C  C3567  1  0.464800  0.814800  0.578900  0.78
  C  C3568  1  0.964800  0.685200  0.421100  0.78
  N  N3569  1  0.287800  0.190850  0.245740  1.0
  N  N3570  1  0.787800  0.309150  0.754260  1.0
  N  N3571  1  0.712200  0.809150  0.754260  1.0
  N  N3572  1  0.212200  0.690850  0.245740  1.0
  N  N3573  1  0.229800  0.136820  0.258950  1.0
  N  N3574  1  0.729800  0.363180  0.741050  1.0
  N  N3575  1  0.770200  0.863180  0.741050  1.0
  N  N3576  1  0.270200  0.636820  0.258950  1.0
  N  N3577  1  0.147600  0.033830  0.344490  1.0
  N  N3578  1  0.647600  0.466170  0.655510  1.0
  N  N3579  1  0.852400  0.966170  0.655510  1.0
  N  N3580  1  0.352400  0.533830  0.344490  1.0
  N  N3581  1  0.105300  0.978200  0.362870  1.0
  N  N3582  1  0.605300  0.521800  0.637130  1.0
  N  N3583  1  0.894700  0.021800  0.637130  1.0
  N  N3584  1  0.394700  0.478200  0.362870  1.0
  N  N3585  1  0.341100  0.116280  0.247160  1.0
  N  N3586  1  0.841100  0.383720  0.752840  1.0
  N  N3587  1  0.658900  0.883720  0.752840  1.0
  N  N3588  1  0.158900  0.616280  0.247160  1.0
  N  N3589  1  0.282100  0.091180  0.198480  1.0
  N  N3590  1  0.782100  0.408820  0.801520  1.0
  N  N3591  1  0.717900  0.908820  0.801520  1.0
  N  N3592  1  0.217900  0.591180  0.198480  1.0
  N  N3593  1  0.172700  0.999270  0.113380  1.0
  N  N3594  1  0.672700  0.500730  0.886620  1.0
  N  N3595  1  0.827300  0.000730  0.886620  1.0
  N  N3596  1  0.327300  0.499270  0.113380  1.0
  N  N3597  1  0.105400  0.984990  0.064050  1.0
  N  N3598  1  0.605400  0.515010  0.935950  1.0
  N  N3599  1  0.894600  0.015010  0.935950  1.0
  N  N3600  1  0.394600  0.484990  0.064050  1.0
  N  N3601  1  0.231500  0.161910  0.171630  1.0
  N  N3602  1  0.731500  0.338090  0.828370  1.0
  N  N3603  1  0.768500  0.838090  0.828370  1.0
  N  N3604  1  0.268500  0.661910  0.171630  1.0
  N  N3605  1  0.521400  0.071500  0.423590  1.0
  N  N3606  1  0.021400  0.428500  0.576410  1.0
  N  N3607  1  0.478600  0.928500  0.576410  1.0
  N  N3608  1  0.978600  0.571500  0.423590  1.0
  N  N3609  1  0.415300  0.069900  0.418120  1.0
  N  N3610  1  0.915300  0.430100  0.581880  1.0
  N  N3611  1  0.584700  0.930100  0.581880  1.0
  N  N3612  1  0.084700  0.569900  0.418120  1.0
  N  N3613  1  0.200900  0.061510  0.410740  1.0
  N  N3614  1  0.700900  0.438490  0.589260  1.0
  N  N3615  1  0.799100  0.938490  0.589260  1.0
  N  N3616  1  0.299100  0.561510  0.410740  1.0
  N  N3617  1  0.093900  0.057840  0.408460  1.0
  N  N3618  1  0.593900  0.442160  0.591540  1.0
  N  N3619  1  0.906100  0.942160  0.591540  1.0
  N  N3620  1  0.406100  0.557840  0.408460  1.0
  N  N3621  1  0.149900  0.988960  0.444300  1.0
  N  N3622  1  0.649900  0.511040  0.555700  1.0
  N  N3623  1  0.850100  0.011040  0.555700  1.0
  N  N3624  1  0.350100  0.488960  0.444300  1.0
  N  N3625  1  0.210400  0.971480  0.392860  1.0
  N  N3626  1  0.710400  0.528520  0.607140  1.0
  N  N3627  1  0.789600  0.028520  0.607140  1.0
  N  N3628  1  0.289600  0.471480  0.392860  1.0
  N  N3629  1  0.289500  0.876290  0.296560  1.0
  N  N3630  1  0.789500  0.623710  0.703440  1.0
  N  N3631  1  0.710500  0.123710  0.703440  1.0
  N  N3632  1  0.210500  0.376290  0.296560  1.0
  N  N3633  1  0.344300  0.851130  0.246400  1.0
  N  N3634  1  0.844300  0.648870  0.753600  1.0
  N  N3635  1  0.655700  0.148870  0.753600  1.0
  N  N3636  1  0.155700  0.351130  0.246400  1.0
  N  N3637  1  0.064400  0.914920  0.093040  1.0
  N  N3638  1  0.564400  0.585080  0.906960  1.0
  N  N3639  1  0.935600  0.085080  0.906960  1.0
  N  N3640  1  0.435600  0.414920  0.093040  1.0
  N  N3641  1  0.171900  0.920780  0.088430  1.0
  N  N3642  1  0.671900  0.579220  0.911570  1.0
  N  N3643  1  0.828100  0.079220  0.911570  1.0
  N  N3644  1  0.328100  0.420780  0.088430  1.0
  N  N3645  1  0.390700  0.926700  0.074630  1.0
  N  N3646  1  0.890700  0.573300  0.925370  1.0
  N  N3647  1  0.609300  0.073300  0.925370  1.0
  N  N3648  1  0.109300  0.426700  0.074630  1.0
  N  N3649  1  0.498900  0.923100  0.074010  1.0
  N  N3650  1  0.998900  0.576900  0.925990  1.0
  N  N3651  1  0.501100  0.076900  0.925990  1.0
  N  N3652  1  0.001100  0.423100  0.074010  1.0
  N  N3653  1  0.049700  0.982660  0.147960  1.0
  N  N3654  1  0.549700  0.517340  0.852040  1.0
  N  N3655  1  0.950300  0.017340  0.852040  1.0
  N  N3656  1  0.450300  0.482660  0.147960  1.0
  N  N3657  1  0.120200  0.936540  0.161860  1.0
  N  N3658  1  0.620200  0.563460  0.838140  1.0
  N  N3659  1  0.879800  0.063460  0.838140  1.0
  N  N3660  1  0.379800  0.436540  0.161860  1.0
  N  N3661  1  0.230700  0.833980  0.236940  1.0
  N  N3662  1  0.730700  0.666020  0.763060  1.0
  N  N3663  1  0.769300  0.166020  0.763060  1.0
  N  N3664  1  0.269300  0.333980  0.236940  1.0
  N  N3665  1  0.286800  0.778690  0.247840  1.0
  N  N3666  1  0.786800  0.721310  0.752160  1.0
  N  N3667  1  0.713200  0.221310  0.752160  1.0
  N  N3668  1  0.213200  0.278690  0.247840  1.0
  N  N3669  1  0.453200  0.998300  0.043300  1.0
  N  N3670  1  0.953200  0.501700  0.956700  1.0
  N  N3671  1  0.546800  0.001700  0.956700  1.0
  N  N3672  1  0.046800  0.498300  0.043300  1.0
  N  N3673  1  0.510600  0.009900  0.097820  1.0
  N  N3674  1  0.010600  0.490100  0.902180  1.0
  N  N3675  1  0.489400  0.990100  0.902180  1.0
  N  N3676  1  0.989400  0.509900  0.097820  1.0
  N  N3677  1  0.235400  0.809670  0.324680  1.0
  N  N3678  1  0.735400  0.690330  0.675320  1.0
  N  N3679  1  0.764600  0.190330  0.675320  1.0
  N  N3680  1  0.264600  0.309670  0.324680  1.0
  N  N3681  1  0.341300  0.811380  0.322450  1.0
  N  N3682  1  0.841300  0.688620  0.677550  1.0
  N  N3683  1  0.658700  0.188620  0.677550  1.0
  N  N3684  1  0.158700  0.311380  0.322450  1.0
  N  N3685  1  0.337130  0.157660  0.170990  1.0
  N  N3686  1  0.837130  0.342340  0.829010  1.0
  N  N3687  1  0.662870  0.842340  0.829010  1.0
  N  N3688  1  0.162870  0.657660  0.170990  1.0
  N  N3689  1  0.820700  0.068900  0.715800  1.0
  N  N3690  1  0.320700  0.431100  0.284200  1.0
  N  N3691  1  0.179300  0.931100  0.284200  1.0
  N  N3692  1  0.679300  0.568900  0.715800  1.0
  N  N3693  1  0.740200  0.022300  0.961300  1.0
  N  N3694  1  0.240200  0.477700  0.038700  1.0
  N  N3695  1  0.259800  0.977700  0.038700  1.0
  N  N3696  1  0.759800  0.522300  0.961300  1.0
  N  N3697  1  0.668000  0.106600  0.115400  1.0
  N  N3698  1  0.168000  0.393400  0.884600  1.0
  N  N3699  1  0.332000  0.893400  0.884600  1.0
  N  N3700  1  0.832000  0.606600  0.115400  1.0
  N  N3701  1  0.211900  0.127400  0.101200  1.0
  N  N3702  1  0.711900  0.372600  0.898800  1.0
  N  N3703  1  0.788100  0.872600  0.898800  1.0
  N  N3704  1  0.288100  0.627400  0.101200  1.0
  N  N3705  1  0.320300  0.211300  0.044100  1.0
  N  N3706  1  0.820300  0.288700  0.955900  1.0
  N  N3707  1  0.679700  0.788700  0.955900  1.0
  N  N3708  1  0.179700  0.711300  0.044100  1.0
  N  N3709  1  0.056300  0.859500  0.003100  1.0
  N  N3710  1  0.556300  0.640500  0.996900  1.0
  N  N3711  1  0.943700  0.140500  0.996900  1.0
  N  N3712  1  0.443700  0.359500  0.003100  1.0
  N  N3713  1  0.276000  0.015800  0.470400  1.0
  N  N3714  1  0.776000  0.484200  0.529600  1.0
  N  N3715  1  0.724000  0.984200  0.529600  1.0
  N  N3716  1  0.224000  0.515800  0.470400  1.0
  N  N3717  1  0.467600  0.761700  0.266200  0.36
  N  N3718  1  0.967600  0.738300  0.733800  0.36
  N  N3719  1  0.532400  0.238300  0.733800  0.36
  N  N3720  1  0.032400  0.261700  0.266200  0.36
  N  N3721  1  0.671500  0.134700  0.241300  0.388
  N  N3722  1  0.171500  0.365300  0.758700  0.388
  N  N3723  1  0.328500  0.865300  0.758700  0.388
  N  N3724  1  0.828500  0.634700  0.241300  0.388
  N  N3725  1  0.658300  0.169000  0.170800  0.4905
  N  N3726  1  0.158300  0.331000  0.829200  0.4905
  N  N3727  1  0.341700  0.831000  0.829200  0.4905
  N  N3728  1  0.841700  0.669000  0.170800  0.4905
  N  N3729  1  0.553000  0.169900  0.171600  0.4905
  N  N3730  1  0.053000  0.330100  0.828400  0.4905
  N  N3731  1  0.447000  0.830100  0.828400  0.4905
  N  N3732  1  0.947000  0.669900  0.171600  0.4905
  N  N3733  1  0.412900  0.004200  0.377800  0.4905
  N  N3734  1  0.912900  0.495800  0.622200  0.4905
  N  N3735  1  0.587100  0.995800  0.622200  0.4905
  N  N3736  1  0.087100  0.504200  0.377800  0.4905
  N  N3737  1  0.475500  0.052700  0.354150  0.4905
  N  N3738  1  0.975500  0.447300  0.645850  0.4905
  N  N3739  1  0.524500  0.947300  0.645850  0.4905
  N  N3740  1  0.024500  0.552700  0.354150  0.4905
  N  N3741  1  0.557700  0.151500  0.261510  0.4905
  N  N3742  1  0.057700  0.348500  0.738490  0.4905
  N  N3743  1  0.442300  0.848500  0.738490  0.4905
  N  N3744  1  0.942300  0.651500  0.261510  0.4905
  N  N3745  1  0.598000  0.210900  0.241800  0.4905
  N  N3746  1  0.098000  0.289100  0.758200  0.4905
  N  N3747  1  0.402000  0.789100  0.758200  0.4905
  N  N3748  1  0.902000  0.710900  0.241800  0.4905
  N  N3749  1  0.469600  0.003100  0.452400  0.4905
  N  N3750  1  0.969600  0.496900  0.547600  0.4905
  N  N3751  1  0.530400  0.996900  0.547600  0.4905
  N  N3752  1  0.030400  0.503100  0.452400  0.4905
  N  N3753  1  0.604600  0.905370  0.291410  0.4905
  N  N3754  1  0.104600  0.594630  0.708590  0.4905
  N  N3755  1  0.395400  0.094630  0.708590  0.4905
  N  N3756  1  0.895400  0.405370  0.291410  0.4905
  N  N3757  1  0.527300  0.990090  0.398440  0.4905
  N  N3758  1  0.027300  0.509910  0.601560  0.4905
  N  N3759  1  0.472700  0.009910  0.601560  0.4905
  N  N3760  1  0.972700  0.490090  0.398440  0.4905
  N  N3761  1  0.661600  0.837600  0.309000  0.4905
  N  N3762  1  0.161600  0.662400  0.691000  0.4905
  N  N3763  1  0.338400  0.162400  0.691000  0.4905
  N  N3764  1  0.838400  0.337600  0.309000  0.4905
  N  N3765  1  0.556000  0.837200  0.317070  0.4905
  N  N3766  1  0.056000  0.662800  0.682930  0.4905
  N  N3767  1  0.444000  0.162800  0.682930  0.4905
  N  N3768  1  0.944000  0.337200  0.317070  0.4905
  N  N3769  1  0.639100  0.888300  0.232900  0.4905
  N  N3770  1  0.139100  0.611700  0.767100  0.4905
  N  N3771  1  0.360900  0.111700  0.767100  0.4905
  N  N3772  1  0.860900  0.388300  0.232900  0.4905
  N  N3773  1  0.590300  0.802710  0.243450  0.4905
  N  N3774  1  0.090300  0.697290  0.756550  0.4905
  N  N3775  1  0.409700  0.197290  0.756550  0.4905
  N  N3776  1  0.909700  0.302710  0.243450  0.4905
  N  N3777  1  0.534100  0.861600  0.230590  0.4905
  N  N3778  1  0.034100  0.638400  0.769410  0.4905
  N  N3779  1  0.465900  0.138400  0.769410  0.4905
  N  N3780  1  0.965900  0.361600  0.230590  0.4905
  N  N3781  1  0.394800  0.009400  0.114600  0.4905
  N  N3782  1  0.894800  0.490600  0.885400  0.4905
  N  N3783  1  0.605200  0.990600  0.885400  0.4905
  N  N3784  1  0.105200  0.509400  0.114600  0.4905
  N  N3785  1  0.449500  0.960500  0.140450  0.4905
  N  N3786  1  0.949500  0.539500  0.859550  0.4905
  N  N3787  1  0.550500  0.039500  0.859550  0.4905
  N  N3788  1  0.050500  0.460500  0.140450  0.4905
  N  N3789  1  0.607600  0.108200  0.198300  0.4905
  N  N3790  1  0.107600  0.391800  0.801700  0.4905
  N  N3791  1  0.392400  0.891800  0.801700  0.4905
  N  N3792  1  0.892400  0.608200  0.198300  0.4905
  N  N3793  1  0.566100  0.003700  0.288000  0.5
  N  N3794  1  0.066100  0.496300  0.712000  0.5
  N  N3795  1  0.433900  0.996300  0.712000  0.5
  N  N3796  1  0.933900  0.503700  0.288000  0.5
  N  N3797  1  0.232900  0.813500  0.008400  0.5
  N  N3798  1  0.732900  0.686500  0.991600  0.5
  N  N3799  1  0.767100  0.186500  0.991600  0.5
  N  N3800  1  0.267100  0.313500  0.008400  0.5
  N  N3801  1  0.663100  0.151200  0.179300  0.5095
  N  N3802  1  0.163100  0.348800  0.820700  0.5095
  N  N3803  1  0.336900  0.848800  0.820700  0.5095
  N  N3804  1  0.836900  0.651200  0.179300  0.5095
  N  N3805  1  0.556500  0.154300  0.177150  0.5095
  N  N3806  1  0.056500  0.345700  0.822850  0.5095
  N  N3807  1  0.443500  0.845700  0.822850  0.5095
  N  N3808  1  0.943500  0.654300  0.177150  0.5095
  N  N3809  1  0.408100  0.986200  0.381700  0.5095
  N  N3810  1  0.908100  0.513800  0.618300  0.5095
  N  N3811  1  0.591900  0.013800  0.618300  0.5095
  N  N3812  1  0.091900  0.486200  0.381700  0.5095
  N  N3813  1  0.470800  0.034700  0.357200  0.5095
  N  N3814  1  0.970800  0.465300  0.642800  0.5095
  N  N3815  1  0.529200  0.965300  0.642800  0.5095
  N  N3816  1  0.029200  0.534700  0.357200  0.5095
  N  N3817  1  0.549600  0.134200  0.266640  0.5095
  N  N3818  1  0.049600  0.365800  0.733360  0.5095
  N  N3819  1  0.450400  0.865800  0.733360  0.5095
  N  N3820  1  0.950400  0.634200  0.266640  0.5095
  N  N3821  1  0.611700  0.186000  0.250500  0.5095
  N  N3822  1  0.111700  0.314000  0.749500  0.5095
  N  N3823  1  0.388300  0.814000  0.749500  0.5095
  N  N3824  1  0.888300  0.686000  0.250500  0.5095
  N  N3825  1  0.669600  0.865800  0.247600  0.5095
  N  N3826  1  0.169600  0.634200  0.752400  0.5095
  N  N3827  1  0.330400  0.134200  0.752400  0.5095
  N  N3828  1  0.830400  0.365800  0.247600  0.5095
  N  N3829  1  0.616700  0.885100  0.300800  0.5095
  N  N3830  1  0.116700  0.614900  0.699200  0.5095
  N  N3831  1  0.383300  0.114900  0.699200  0.5095
  N  N3832  1  0.883300  0.385100  0.300800  0.5095
  N  N3833  1  0.522700  0.972490  0.401800  0.5095
  N  N3834  1  0.022700  0.527510  0.598200  0.5095
  N  N3835  1  0.477300  0.027510  0.598200  0.5095
  N  N3836  1  0.977300  0.472490  0.401800  0.5095
  N  N3837  1  0.466400  0.986900  0.455000  0.5095
  N  N3838  1  0.966400  0.513100  0.545000  0.5095
  N  N3839  1  0.533600  0.013100  0.545000  0.5095
  N  N3840  1  0.033600  0.486900  0.455000  0.5095
  N  N3841  1  0.660900  0.815000  0.314200  0.5095
  N  N3842  1  0.160900  0.685000  0.685800  0.5095
  N  N3843  1  0.339100  0.185000  0.685800  0.5095
  N  N3844  1  0.839100  0.315000  0.314200  0.5095
  N  N3845  1  0.555900  0.819600  0.317600  0.5095
  N  N3846  1  0.055900  0.680400  0.682400  0.5095
  N  N3847  1  0.444100  0.180400  0.682400  0.5095
  N  N3848  1  0.944100  0.319600  0.317600  0.5095
  N  N3849  1  0.594300  0.785500  0.247300  0.5095
  N  N3850  1  0.094300  0.714500  0.752700  0.5095
  N  N3851  1  0.405700  0.214500  0.752700  0.5095
  N  N3852  1  0.905700  0.285500  0.247300  0.5095
  N  N3853  1  0.550200  0.846600  0.231600  0.5095
  N  N3854  1  0.050200  0.653400  0.768400  0.5095
  N  N3855  1  0.449800  0.153400  0.768400  0.5095
  N  N3856  1  0.949800  0.346600  0.231600  0.5095
  N  N3857  1  0.453000  0.944500  0.144100  0.5095
  N  N3858  1  0.953000  0.555500  0.855900  0.5095
  N  N3859  1  0.547000  0.055500  0.855900  0.5095
  N  N3860  1  0.047000  0.444500  0.144100  0.5095
  N  N3861  1  0.399500  0.995700  0.121900  0.5095
  N  N3862  1  0.899500  0.504300  0.878100  0.5095
  N  N3863  1  0.600500  0.004300  0.878100  0.5095
  N  N3864  1  0.100500  0.495700  0.121900  0.5095
  N  N3865  1  0.605100  0.087530  0.202230  0.5095
  N  N3866  1  0.105100  0.412470  0.797770  0.5095
  N  N3867  1  0.394900  0.912470  0.797770  0.5095
  N  N3868  1  0.894900  0.587530  0.202230  0.5095
  N  N3869  1  0.652400  0.103500  0.256700  0.612
  N  N3870  1  0.152400  0.396500  0.743300  0.612
  N  N3871  1  0.347600  0.896500  0.743300  0.612
  N  N3872  1  0.847600  0.603500  0.256700  0.612
  N  N3873  1  0.476200  0.772200  0.272700  0.64
  N  N3874  1  0.976200  0.727800  0.727300  0.64
  N  N3875  1  0.523800  0.227800  0.727300  0.64
  N  N3876  1  0.023800  0.272200  0.272700  0.64
  N  N3877  1  0.528800  0.164300  0.402100  0.78
  N  N3878  1  0.028800  0.335700  0.597900  0.78
  N  N3879  1  0.471200  0.835700  0.597900  0.78
  N  N3880  1  0.971200  0.664300  0.402100  0.78
  N  N3881  1  0.549500  0.148900  0.399500  0.22
  N  N3882  1  0.049500  0.351100  0.600500  0.22
  N  N3883  1  0.450500  0.851100  0.600500  0.22
  N  N3884  1  0.950500  0.648900  0.399500  0.22
  Cl  Cl3885  1  0.286130  0.027960  0.311160  1.0
  Cl  Cl3886  1  0.786130  0.472040  0.688840  1.0
  Cl  Cl3887  1  0.713870  0.972040  0.688840  1.0
  Cl  Cl3888  1  0.213870  0.527960  0.311160  1.0
  Cl  Cl3889  1  0.508170  0.132520  0.020700  1.0
  Cl  Cl3890  1  0.008170  0.367480  0.979300  1.0
  Cl  Cl3891  1  0.491830  0.867480  0.979300  1.0
  Cl  Cl3892  1  0.991830  0.632520  0.020700  1.0
  Cl  Cl3893  1  0.122890  0.045330  0.197410  1.0
  Cl  Cl3894  1  0.622890  0.454670  0.802590  1.0
  Cl  Cl3895  1  0.877110  0.954670  0.802590  1.0
  Cl  Cl3896  1  0.377110  0.545330  0.197410  1.0
  Cl  Cl3897  1  0.173040  0.081700  0.000100  1.0
  Cl  Cl3898  1  0.673040  0.418300  0.999900  1.0
  Cl  Cl3899  1  0.826960  0.918300  0.999900  1.0
  Cl  Cl3900  1  0.326960  0.581700  0.000100  1.0
  Cl  Cl3901  1  0.809380  0.110150  0.495590  1.0
  Cl  Cl3902  1  0.309380  0.389850  0.504410  1.0
  Cl  Cl3903  1  0.190620  0.889850  0.504410  1.0
  Cl  Cl3904  1  0.690620  0.610150  0.495590  1.0
  Cl  Cl3905  1  0.928400  0.250500  0.135900  0.241
  Cl  Cl3906  1  0.428400  0.249500  0.864100  0.241
  Cl  Cl3907  1  0.071600  0.749500  0.864100  0.241
  Cl  Cl3908  1  0.571600  0.750500  0.135900  0.241
  Cl  Cl3909  1  0.472700  0.951950  0.288700  0.25
  Cl  Cl3910  1  0.972700  0.548050  0.711300  0.25
  Cl  Cl3911  1  0.527300  0.048050  0.711300  0.25
  Cl  Cl3912  1  0.027300  0.451950  0.288700  0.25
  Cl  Cl3913  1  0.807700  0.041600  0.225300  0.25
  Cl  Cl3914  1  0.307700  0.458400  0.774700  0.25
  Cl  Cl3915  1  0.192300  0.958400  0.774700  0.25
  Cl  Cl3916  1  0.692300  0.541600  0.225300  0.25
  Cl  Cl3917  1  0.812000  0.069700  0.218100  0.25
  Cl  Cl3918  1  0.312000  0.430300  0.781900  0.25
  Cl  Cl3919  1  0.188000  0.930300  0.781900  0.25
  Cl  Cl3920  1  0.688000  0.569700  0.218100  0.25
  Cl  Cl3921  1  0.483500  0.887600  0.487400  0.25
  Cl  Cl3922  1  0.983500  0.612400  0.512600  0.25
  Cl  Cl3923  1  0.516500  0.112400  0.512600  0.25
  Cl  Cl3924  1  0.016500  0.387600  0.487400  0.25
  Cl  Cl3925  1  0.490700  0.854300  0.491000  0.25
  Cl  Cl3926  1  0.990700  0.645700  0.509000  0.25
  Cl  Cl3927  1  0.509300  0.145700  0.509000  0.25
  Cl  Cl3928  1  0.009300  0.354300  0.491000  0.25
  Cl  Cl3929  1  0.254700  0.221600  0.379800  0.253
  Cl  Cl3930  1  0.754700  0.278400  0.620200  0.253
  Cl  Cl3931  1  0.745300  0.778400  0.620200  0.253
  Cl  Cl3932  1  0.245300  0.721600  0.379800  0.253
  Cl  Cl3933  1  0.293500  0.934900  0.173100  0.385
  Cl  Cl3934  1  0.793500  0.565100  0.826900  0.385
  Cl  Cl3935  1  0.706500  0.065100  0.826900  0.385
  Cl  Cl3936  1  0.206500  0.434900  0.173100  0.385
  Cl  Cl3937  1  0.632900  0.055650  0.306660  0.5
  Cl  Cl3938  1  0.132900  0.444350  0.693340  0.5
  Cl  Cl3939  1  0.367100  0.944350  0.693340  0.5
  Cl  Cl3940  1  0.867100  0.555650  0.306660  0.5
  Cl  Cl3941  1  0.609490  0.936930  0.187590  0.5
  Cl  Cl3942  1  0.109490  0.563070  0.812410  0.5
  Cl  Cl3943  1  0.390510  0.063070  0.812410  0.5
  Cl  Cl3944  1  0.890510  0.436930  0.187590  0.5
  Cl  Cl3945  1  0.442750  0.074760  0.198220  0.5
  Cl  Cl3946  1  0.942750  0.425240  0.801780  0.5
  Cl  Cl3947  1  0.557250  0.925240  0.801780  0.5
  Cl  Cl3948  1  0.057250  0.574760  0.198220  0.5
  Cl  Cl3949  1  0.466110  0.055300  0.208220  0.5
  Cl  Cl3950  1  0.966110  0.444700  0.791780  0.5
  Cl  Cl3951  1  0.533890  0.944700  0.791780  0.5
  Cl  Cl3952  1  0.033890  0.555300  0.208220  0.5
  Cl  Cl3953  1  0.454200  0.904100  0.303310  0.5
  Cl  Cl3954  1  0.954200  0.595900  0.696690  0.5
  Cl  Cl3955  1  0.545800  0.095900  0.696690  0.5
  Cl  Cl3956  1  0.045800  0.404100  0.303310  0.5
  Cl  Cl3957  1  0.907700  0.178760  0.882400  0.5
  Cl  Cl3958  1  0.407700  0.321240  0.117600  0.5
  Cl  Cl3959  1  0.092300  0.821240  0.117600  0.5
  Cl  Cl3960  1  0.592300  0.678760  0.882400  0.5
  Cl  Cl3961  1  0.300500  0.929300  0.162500  0.615
  Cl  Cl3962  1  0.800500  0.570700  0.837500  0.615
  Cl  Cl3963  1  0.699500  0.070700  0.837500  0.615
  Cl  Cl3964  1  0.199500  0.429300  0.162500  0.615
  Cl  Cl3965  1  0.258300  0.215190  0.379480  0.747
  Cl  Cl3966  1  0.758300  0.284810  0.620520  0.747
  Cl  Cl3967  1  0.741700  0.784810  0.620520  0.747
  Cl  Cl3968  1  0.241700  0.715190  0.379480  0.747
  Cl  Cl3969  1  0.925000  0.147100  0.851700  0.05
  Cl  Cl3970  1  0.425000  0.352900  0.148300  0.05
  Cl  Cl3971  1  0.075000  0.852900  0.148300  0.05
  Cl  Cl3972  1  0.575000  0.647100  0.851700  0.05
  Cl  Cl3973  1  0.465200  0.903700  0.299000  0.2
  Cl  Cl3974  1  0.965200  0.596300  0.701000  0.2
  Cl  Cl3975  1  0.534800  0.096300  0.701000  0.2
  Cl  Cl3976  1  0.034800  0.403700  0.299000  0.2
  Cl  Cl3977  1  0.952100  0.245410  0.146120  0.759
  Cl  Cl3978  1  0.452100  0.254590  0.853880  0.759
  Cl  Cl3979  1  0.047900  0.754590  0.853880  0.759
  Cl  Cl3980  1  0.547900  0.745410  0.146120  0.759
  O  O3981  1  0.348700  0.919600  0.151300  1.0
  O  O3982  1  0.848700  0.580400  0.848700  1.0
  O  O3983  1  0.651300  0.080400  0.848700  1.0
  O  O3984  1  0.151300  0.419600  0.151300  1.0
  O  O3985  1  0.323700  0.015200  0.291300  1.0
  O  O3986  1  0.823700  0.484800  0.708700  1.0
  O  O3987  1  0.676300  0.984800  0.708700  1.0
  O  O3988  1  0.176300  0.515200  0.291300  1.0
  O  O3989  1  0.240800  0.009680  0.306770  1.0
  O  O3990  1  0.740800  0.490320  0.693230  1.0
  O  O3991  1  0.759200  0.990320  0.693230  1.0
  O  O3992  1  0.259200  0.509680  0.306770  1.0
  O  O3993  1  0.274700  0.058930  0.302700  1.0
  O  O3994  1  0.774700  0.441070  0.697300  1.0
  O  O3995  1  0.725300  0.941070  0.697300  1.0
  O  O3996  1  0.225300  0.558930  0.302700  1.0
  O  O3997  1  0.303100  0.027300  0.341900  1.0
  O  O3998  1  0.803100  0.472700  0.658100  1.0
  O  O3999  1  0.696900  0.972700  0.658100  1.0
  O  O4000  1  0.196900  0.527300  0.341900  1.0
  O  O4001  1  0.162000  0.063310  0.211740  1.0
  O  O4002  1  0.662000  0.436690  0.788260  1.0
  O  O4003  1  0.838000  0.936690  0.788260  1.0
  O  O4004  1  0.338000  0.563310  0.211740  1.0
  O  O4005  1  0.134900  0.012740  0.200970  1.0
  O  O4006  1  0.634900  0.487260  0.799030  1.0
  O  O4007  1  0.865100  0.987260  0.799030  1.0
  O  O4008  1  0.365100  0.512740  0.200970  1.0
  O  O4009  1  0.076100  0.052310  0.212440  1.0
  O  O4010  1  0.576100  0.447690  0.787560  1.0
  O  O4011  1  0.923900  0.947690  0.787560  1.0
  O  O4012  1  0.423900  0.552310  0.212440  1.0
  O  O4013  1  0.120200  0.052280  0.165070  1.0
  O  O4014  1  0.620200  0.447720  0.834930  1.0
  O  O4015  1  0.879800  0.947720  0.834930  1.0
  O  O4016  1  0.379800  0.552280  0.165070  1.0
  O  O4017  1  0.224200  0.074400  0.006540  1.0
  O  O4018  1  0.724200  0.425600  0.993460  1.0
  O  O4019  1  0.775800  0.925600  0.993460  1.0
  O  O4020  1  0.275800  0.574400  0.006540  1.0
  O  O4021  1  0.171000  0.106500  0.978100  1.0
  O  O4022  1  0.671000  0.393500  0.021900  1.0
  O  O4023  1  0.829000  0.893500  0.021900  1.0
  O  O4024  1  0.329000  0.606500  0.978100  1.0
  O  O4025  1  0.146600  0.055450  0.987600  1.0
  O  O4026  1  0.646600  0.444550  0.012400  1.0
  O  O4027  1  0.853400  0.944550  0.012400  1.0
  O  O4028  1  0.353400  0.555450  0.987600  1.0
  O  O4029  1  0.149800  0.091500  0.028680  1.0
  O  O4030  1  0.649800  0.408500  0.971320  1.0
  O  O4031  1  0.850200  0.908500  0.971320  1.0
  O  O4032  1  0.350200  0.591500  0.028680  1.0
  O  O4033  1  0.984300  0.245700  0.172000  1.0
  O  O4034  1  0.484300  0.254300  0.828000  1.0
  O  O4035  1  0.015700  0.754300  0.828000  1.0
  O  O4036  1  0.515700  0.745700  0.172000  1.0
  O  O4037  1  0.912900  0.223200  0.150600  1.0
  O  O4038  1  0.412900  0.276800  0.849400  1.0
  O  O4039  1  0.087100  0.776800  0.849400  1.0
  O  O4040  1  0.587100  0.723200  0.150600  1.0
  O  O4041  1  0.447300  0.910800  0.482900  0.05
  O  O4042  1  0.947300  0.589200  0.517100  0.05
  O  O4043  1  0.552700  0.089200  0.517100  0.05
  O  O4044  1  0.052700  0.410800  0.482900  0.05
  O  O4045  1  0.526700  0.836600  0.507300  0.1
  O  O4046  1  0.026700  0.663400  0.492700  0.1
  O  O4047  1  0.473300  0.163400  0.492700  0.1
  O  O4048  1  0.973300  0.336600  0.507300  0.1
  O  O4049  1  0.487500  0.874600  0.486400  0.2
  O  O4050  1  0.987500  0.625400  0.513600  0.2
  O  O4051  1  0.512500  0.125400  0.513600  0.2
  O  O4052  1  0.012500  0.374600  0.486400  0.2
  O  O4053  1  0.887600  0.270300  0.148200  0.241
  O  O4054  1  0.387600  0.229700  0.851800  0.241
  O  O4055  1  0.112400  0.729700  0.851800  0.241
  O  O4056  1  0.612400  0.770300  0.148200  0.241
  O  O4057  1  0.950000  0.265100  0.108200  0.241
  O  O4058  1  0.450000  0.234900  0.891800  0.241
  O  O4059  1  0.050000  0.734900  0.891800  0.241
  O  O4060  1  0.550000  0.765100  0.108200  0.241
  O  O4061  1  0.614700  0.057000  0.275700  0.25
  O  O4062  1  0.114700  0.443000  0.724300  0.25
  O  O4063  1  0.385300  0.943000  0.724300  0.25
  O  O4064  1  0.885300  0.557000  0.275700  0.25
  O  O4065  1  0.638200  0.086400  0.318300  0.25
  O  O4066  1  0.138200  0.413600  0.681700  0.25
  O  O4067  1  0.361800  0.913600  0.681700  0.25
  O  O4068  1  0.861800  0.586400  0.318300  0.25
  O  O4069  1  0.678600  0.038900  0.308300  0.25
  O  O4070  1  0.178600  0.461100  0.691700  0.25
  O  O4071  1  0.321400  0.961100  0.691700  0.25
  O  O4072  1  0.821400  0.538900  0.308300  0.25
  O  O4073  1  0.614200  0.082500  0.290800  0.25
  O  O4074  1  0.114200  0.417500  0.709200  0.25
  O  O4075  1  0.385800  0.917500  0.709200  0.25
  O  O4076  1  0.885800  0.582500  0.290800  0.25
  O  O4077  1  0.653100  0.033600  0.284000  0.25
  O  O4078  1  0.153100  0.466400  0.716000  0.25
  O  O4079  1  0.346900  0.966400  0.716000  0.25
  O  O4080  1  0.846900  0.533600  0.284000  0.25
  O  O4081  1  0.681300  0.064300  0.319800  0.25
  O  O4082  1  0.181300  0.435700  0.680200  0.25
  O  O4083  1  0.318700  0.935700  0.680200  0.25
  O  O4084  1  0.818700  0.564300  0.319800  0.25
  O  O4085  1  0.443700  0.880300  0.278000  0.25
  O  O4086  1  0.943700  0.619700  0.722000  0.25
  O  O4087  1  0.556300  0.119700  0.722000  0.25
  O  O4088  1  0.056300  0.380300  0.278000  0.25
  O  O4089  1  0.474700  0.889000  0.330000  0.25
  O  O4090  1  0.974700  0.611000  0.670000  0.25
  O  O4091  1  0.525300  0.111000  0.670000  0.25
  O  O4092  1  0.025300  0.389000  0.330000  0.25
  O  O4093  1  0.432600  0.931000  0.302900  0.25
  O  O4094  1  0.932600  0.569000  0.697100  0.25
  O  O4095  1  0.567400  0.069000  0.697100  0.25
  O  O4096  1  0.067400  0.431000  0.302900  0.25
  O  O4097  1  0.514300  0.914600  0.286400  0.25
  O  O4098  1  0.014300  0.585400  0.713600  0.25
  O  O4099  1  0.485700  0.085400  0.713600  0.25
  O  O4100  1  0.985700  0.414600  0.286400  0.25
  O  O4101  1  0.464800  0.937300  0.292800  0.25
  O  O4102  1  0.964800  0.562700  0.707200  0.25
  O  O4103  1  0.535200  0.062700  0.707200  0.25
  O  O4104  1  0.035200  0.437300  0.292800  0.25
  O  O4105  1  0.513400  0.891700  0.286300  0.25
  O  O4106  1  0.013400  0.608300  0.713700  0.25
  O  O4107  1  0.486600  0.108300  0.713700  0.25
  O  O4108  1  0.986600  0.391700  0.286300  0.25
  O  O4109  1  0.424300  0.887900  0.282300  0.25
  O  O4110  1  0.924300  0.612100  0.717700  0.25
  O  O4111  1  0.575700  0.112100  0.717700  0.25
  O  O4112  1  0.075700  0.387900  0.282300  0.25
  O  O4113  1  0.464700  0.897800  0.332600  0.25
  O  O4114  1  0.964700  0.602200  0.667400  0.25
  O  O4115  1  0.535300  0.102200  0.667400  0.25
  O  O4116  1  0.035300  0.397800  0.332600  0.25
  O  O4117  1  0.411900  0.887300  0.317900  0.25
  O  O4118  1  0.911900  0.612700  0.682100  0.25
  O  O4119  1  0.588100  0.112700  0.682100  0.25
  O  O4120  1  0.088100  0.387300  0.317900  0.25
  O  O4121  1  0.480100  0.923300  0.326900  0.25
  O  O4122  1  0.980100  0.576700  0.673100  0.25
  O  O4123  1  0.519900  0.076700  0.673100  0.25
  O  O4124  1  0.019900  0.423300  0.326900  0.25
  O  O4125  1  0.488900  0.880900  0.289500  0.25
  O  O4126  1  0.988900  0.619100  0.710500  0.25
  O  O4127  1  0.511100  0.119100  0.710500  0.25
  O  O4128  1  0.011100  0.380900  0.289500  0.25
  O  O4129  1  0.435400  0.924200  0.278900  0.25
  O  O4130  1  0.935400  0.575800  0.721100  0.25
  O  O4131  1  0.564600  0.075800  0.721100  0.25
  O  O4132  1  0.064600  0.424200  0.278900  0.25
  O  O4133  1  0.430000  0.969900  0.276900  0.25
  O  O4134  1  0.930000  0.530100  0.723100  0.25
  O  O4135  1  0.570000  0.030100  0.723100  0.25
  O  O4136  1  0.070000  0.469900  0.276900  0.25
  O  O4137  1  0.487900  0.964900  0.319700  0.25
  O  O4138  1  0.987900  0.535100  0.680300  0.25
  O  O4139  1  0.512100  0.035100  0.680300  0.25
  O  O4140  1  0.012100  0.464900  0.319700  0.25
  O  O4141  1  0.456100  0.920000  0.296100  0.25
  O  O4142  1  0.956100  0.580000  0.703900  0.25
  O  O4143  1  0.543900  0.080000  0.703900  0.25
  O  O4144  1  0.043900  0.420000  0.296100  0.25
  O  O4145  1  0.467400  0.865900  0.509900  0.25
  O  O4146  1  0.967400  0.634100  0.490100  0.25
  O  O4147  1  0.532600  0.134100  0.490100  0.25
  O  O4148  1  0.032600  0.365900  0.509900  0.25
  O  O4149  1  0.530600  0.899500  0.496100  0.25
  O  O4150  1  0.030600  0.600500  0.503900  0.25
  O  O4151  1  0.469400  0.100500  0.503900  0.25
  O  O4152  1  0.969400  0.399500  0.496100  0.25
  O  O4153  1  0.490200  0.869600  0.459700  0.25
  O  O4154  1  0.990200  0.630400  0.540300  0.25
  O  O4155  1  0.509800  0.130400  0.540300  0.25
  O  O4156  1  0.009800  0.369600  0.459700  0.25
  O  O4157  1  0.493000  0.847100  0.459100  0.25
  O  O4158  1  0.993000  0.652900  0.540900  0.25
  O  O4159  1  0.507000  0.152900  0.540900  0.25
  O  O4160  1  0.007000  0.347100  0.459100  0.25
  O  O4161  1  0.441900  0.846100  0.501800  0.25
  O  O4162  1  0.941900  0.653900  0.498200  0.25
  O  O4163  1  0.558100  0.153900  0.498200  0.25
  O  O4164  1  0.058100  0.346100  0.501800  0.25
  O  O4165  1  0.498800  0.886500  0.495600  0.25
  O  O4166  1  0.998800  0.613500  0.504400  0.25
  O  O4167  1  0.501200  0.113500  0.504400  0.25
  O  O4168  1  0.001200  0.386500  0.495600  0.25
  O  O4169  1  0.222400  0.230500  0.355400  0.253
  O  O4170  1  0.722400  0.269500  0.644600  0.253
  O  O4171  1  0.777600  0.769500  0.644600  0.253
  O  O4172  1  0.277600  0.730500  0.355400  0.253
  O  O4173  1  0.305400  0.226300  0.370400  0.253
  O  O4174  1  0.805400  0.273700  0.629600  0.253
  O  O4175  1  0.694600  0.773700  0.629600  0.253
  O  O4176  1  0.194600  0.726300  0.370400  0.253
  O  O4177  1  0.244600  0.241300  0.405600  0.253
  O  O4178  1  0.744600  0.258700  0.594400  0.253
  O  O4179  1  0.755400  0.758700  0.594400  0.253
  O  O4180  1  0.255400  0.741300  0.405600  0.253
  O  O4181  1  0.247600  0.189900  0.386900  0.253
  O  O4182  1  0.747600  0.310100  0.613100  0.253
  O  O4183  1  0.752400  0.810100  0.613100  0.253
  O  O4184  1  0.252400  0.689900  0.386900  0.253
  O  O4185  1  0.536700  0.145600  0.045600  0.35
  O  O4186  1  0.036700  0.354400  0.954400  0.35
  O  O4187  1  0.463300  0.854400  0.954400  0.35
  O  O4188  1  0.963300  0.645600  0.045600  0.35
  O  O4189  1  0.536300  0.107300  0.008100  0.35
  O  O4190  1  0.036300  0.392700  0.991900  0.35
  O  O4191  1  0.463700  0.892700  0.991900  0.35
  O  O4192  1  0.963700  0.607300  0.008100  0.35
  O  O4193  1  0.461100  0.122300  0.031600  0.35
  O  O4194  1  0.961100  0.377700  0.968400  0.35
  O  O4195  1  0.538900  0.877700  0.968400  0.35
  O  O4196  1  0.038900  0.622300  0.031600  0.35
  O  O4197  1  0.502400  0.155500  0.997400  0.35
  O  O4198  1  0.002400  0.344500  0.002600  0.35
  O  O4199  1  0.497600  0.844500  0.002600  0.35
  O  O4200  1  0.997600  0.655500  0.997400  0.35
  O  O4201  1  0.779500  0.083100  0.500100  0.36
  O  O4202  1  0.279500  0.416900  0.499900  0.36
  O  O4203  1  0.220500  0.916900  0.499900  0.36
  O  O4204  1  0.720500  0.583100  0.500100  0.36
  O  O4205  1  0.841900  0.106600  0.469900  0.36
  O  O4206  1  0.341900  0.393400  0.530100  0.36
  O  O4207  1  0.158100  0.893400  0.530100  0.36
  O  O4208  1  0.658100  0.606600  0.469900  0.36
  O  O4209  1  0.777700  0.136200  0.490500  0.36
  O  O4210  1  0.277700  0.363800  0.509500  0.36
  O  O4211  1  0.222300  0.863800  0.509500  0.36
  O  O4212  1  0.722300  0.636200  0.490500  0.36
  O  O4213  1  0.838800  0.115500  0.522700  0.36
  O  O4214  1  0.338800  0.384500  0.477300  0.36
  O  O4215  1  0.161200  0.884500  0.477300  0.36
  O  O4216  1  0.661200  0.615500  0.522700  0.36
  O  O4217  1  0.267400  0.908800  0.187500  0.385
  O  O4218  1  0.767400  0.591200  0.812500  0.385
  O  O4219  1  0.732600  0.091200  0.812500  0.385
  O  O4220  1  0.232600  0.408800  0.187500  0.385
  O  O4221  1  0.317900  0.954500  0.195700  0.385
  O  O4222  1  0.817900  0.545500  0.804300  0.385
  O  O4223  1  0.682100  0.045500  0.804300  0.385
  O  O4224  1  0.182100  0.454500  0.195700  0.385
  O  O4225  1  0.258400  0.951500  0.155800  0.385
  O  O4226  1  0.758400  0.548500  0.844200  0.385
  O  O4227  1  0.741600  0.048500  0.844200  0.385
  O  O4228  1  0.241600  0.451500  0.155800  0.385
  O  O4229  1  0.595300  0.040400  0.324600  0.5
  O  O4230  1  0.095300  0.459600  0.675400  0.5
  O  O4231  1  0.404700  0.959600  0.675400  0.5
  O  O4232  1  0.904700  0.540400  0.324600  0.5
  O  O4233  1  0.611100  0.932500  0.220200  0.5
  O  O4234  1  0.111100  0.567500  0.779800  0.5
  O  O4235  1  0.388900  0.067500  0.779800  0.5
  O  O4236  1  0.888900  0.432500  0.220200  0.5
  O  O4237  1  0.601900  0.907800  0.172700  0.5
  O  O4238  1  0.101900  0.592200  0.827300  0.5
  O  O4239  1  0.398100  0.092200  0.827300  0.5
  O  O4240  1  0.898100  0.407800  0.172700  0.5
  O  O4241  1  0.655600  0.950500  0.177700  0.5
  O  O4242  1  0.155600  0.549500  0.822300  0.5
  O  O4243  1  0.344400  0.049500  0.822300  0.5
  O  O4244  1  0.844400  0.450500  0.177700  0.5
  O  O4245  1  0.568700  0.958300  0.181600  0.5
  O  O4246  1  0.068700  0.541700  0.818400  0.5
  O  O4247  1  0.431300  0.041700  0.818400  0.5
  O  O4248  1  0.931300  0.458300  0.181600  0.5
  O  O4249  1  0.471000  0.061100  0.173900  0.5
  O  O4250  1  0.971000  0.438900  0.826100  0.5
  O  O4251  1  0.529000  0.938900  0.826100  0.5
  O  O4252  1  0.029000  0.561100  0.173900  0.5
  O  O4253  1  0.397800  0.086700  0.183300  0.5
  O  O4254  1  0.897800  0.413300  0.816700  0.5
  O  O4255  1  0.602200  0.913300  0.816700  0.5
  O  O4256  1  0.102200  0.586700  0.183300  0.5
  O  O4257  1  0.424800  0.053200  0.220200  0.5
  O  O4258  1  0.924800  0.446800  0.779800  0.5
  O  O4259  1  0.575200  0.946800  0.779800  0.5
  O  O4260  1  0.075200  0.553200  0.220200  0.5
  O  O4261  1  0.468900  0.099400  0.212400  0.5
  O  O4262  1  0.968900  0.400600  0.787600  0.5
  O  O4263  1  0.531100  0.900600  0.787600  0.5
  O  O4264  1  0.031100  0.599400  0.212400  0.5
  O  O4265  1  0.424600  0.038800  0.221500  0.5
  O  O4266  1  0.924600  0.461200  0.778500  0.5
  O  O4267  1  0.575400  0.961200  0.778500  0.5
  O  O4268  1  0.075400  0.538800  0.221500  0.5
  O  O4269  1  0.457000  0.087400  0.210700  0.5
  O  O4270  1  0.957000  0.412600  0.789300  0.5
  O  O4271  1  0.543000  0.912600  0.789300  0.5
  O  O4272  1  0.043000  0.587400  0.210700  0.5
  O  O4273  1  0.509900  0.048500  0.225800  0.5
  O  O4274  1  0.009900  0.451500  0.774200  0.5
  O  O4275  1  0.490100  0.951500  0.774200  0.5
  O  O4276  1  0.990100  0.548500  0.225800  0.5
  O  O4277  1  0.473400  0.045200  0.177200  0.5
  O  O4278  1  0.973400  0.454800  0.822800  0.5
  O  O4279  1  0.526600  0.954800  0.822800  0.5
  O  O4280  1  0.026600  0.545200  0.177200  0.5
  O  O4281  1  0.956800  0.189700  0.873700  0.5
  O  O4282  1  0.456800  0.310300  0.126300  0.5
  O  O4283  1  0.043200  0.810300  0.126300  0.5
  O  O4284  1  0.543200  0.689700  0.873700  0.5
  O  O4285  1  0.907600  0.181600  0.915700  0.5
  O  O4286  1  0.407600  0.318400  0.084300  0.5
  O  O4287  1  0.092400  0.818400  0.084300  0.5
  O  O4288  1  0.592400  0.681600  0.915700  0.5
  O  O4289  1  0.902100  0.148800  0.870800  0.5
  O  O4290  1  0.402100  0.351200  0.129200  0.5
  O  O4291  1  0.097900  0.851200  0.129200  0.5
  O  O4292  1  0.597900  0.648800  0.870800  0.5
  O  O4293  1  0.872600  0.200400  0.871300  0.5
  O  O4294  1  0.372600  0.299600  0.128700  0.5
  O  O4295  1  0.127400  0.799600  0.128700  0.5
  O  O4296  1  0.627400  0.700400  0.871300  0.5
  O  O4297  1  0.760900  0.054600  0.233100  0.5
  O  O4298  1  0.260900  0.445400  0.766900  0.5
  O  O4299  1  0.239100  0.945400  0.766900  0.5
  O  O4300  1  0.739100  0.554600  0.233100  0.5
  O  O4301  1  0.822300  0.050100  0.194900  0.5
  O  O4302  1  0.322300  0.449900  0.805100  0.5
  O  O4303  1  0.177700  0.949900  0.805100  0.5
  O  O4304  1  0.677700  0.550100  0.194900  0.5
  O  O4305  1  0.844700  0.054200  0.245800  0.5
  O  O4306  1  0.344700  0.445800  0.754200  0.5
  O  O4307  1  0.155300  0.945800  0.754200  0.5
  O  O4308  1  0.655300  0.554200  0.245800  0.5
  O  O4309  1  0.807000  0.009000  0.228800  0.5
  O  O4310  1  0.307000  0.491000  0.771200  0.5
  O  O4311  1  0.193000  0.991000  0.771200  0.5
  O  O4312  1  0.693000  0.509000  0.228800  0.5
  O  O4313  1  0.764700  0.093200  0.503800  0.64
  O  O4314  1  0.264700  0.406800  0.496200  0.64
  O  O4315  1  0.235300  0.906800  0.496200  0.64
  O  O4316  1  0.735300  0.593200  0.503800  0.64
  O  O4317  1  0.797200  0.134500  0.475300  0.64
  O  O4318  1  0.297200  0.365500  0.524700  0.64
  O  O4319  1  0.202800  0.865500  0.524700  0.64
  O  O4320  1  0.702800  0.634500  0.475300  0.64
  O  O4321  1  0.841700  0.088300  0.481400  0.64
  O  O4322  1  0.341700  0.411700  0.518600  0.64
  O  O4323  1  0.158300  0.911700  0.518600  0.64
  O  O4324  1  0.658300  0.588300  0.481400  0.64
  O  O4325  1  0.829600  0.121500  0.524000  0.64
  O  O4326  1  0.329600  0.378500  0.476000  0.64
  O  O4327  1  0.170400  0.878500  0.476000  0.64
  O  O4328  1  0.670400  0.621500  0.524000  0.64
  O  O4329  1  0.266600  0.223900  0.348100  0.747
  O  O4330  1  0.766600  0.276100  0.651900  0.747
  O  O4331  1  0.733400  0.776100  0.651900  0.747
  O  O4332  1  0.233400  0.723900  0.348100  0.747
  O  O4333  1  0.211900  0.200700  0.385100  0.747
  O  O4334  1  0.711900  0.299300  0.614900  0.747
  O  O4335  1  0.788100  0.799300  0.614900  0.747
  O  O4336  1  0.288100  0.700700  0.385100  0.747
  O  O4337  1  0.269300  0.242200  0.398100  0.747
  O  O4338  1  0.769300  0.257800  0.601900  0.747
  O  O4339  1  0.730700  0.757800  0.601900  0.747
  O  O4340  1  0.230700  0.742200  0.398100  0.747
  O  O4341  1  0.295600  0.193000  0.388300  0.747
  O  O4342  1  0.795600  0.307000  0.611700  0.747
  O  O4343  1  0.704400  0.807000  0.611700  0.747
  O  O4344  1  0.204400  0.693000  0.388300  0.747
  O  O4345  1  0.981600  0.235500  0.120000  0.759
  O  O4346  1  0.481600  0.264500  0.880000  0.759
  O  O4347  1  0.018400  0.764500  0.880000  0.759
  O  O4348  1  0.518400  0.735500  0.120000  0.759
  O  O4349  1  0.929700  0.276900  0.141700  0.759
  O  O4350  1  0.429700  0.223100  0.858300  0.759
  O  O4351  1  0.070300  0.723100  0.858300  0.759
  O  O4352  1  0.570300  0.776900  0.141700  0.759
  O  O4353  1  0.501700  0.865800  0.478200  0.15
  O  O4354  1  0.001700  0.634200  0.521800  0.15
  O  O4355  1  0.498300  0.134200  0.521800  0.15
  O  O4356  1  0.998300  0.365800  0.478200  0.15
  O  O4357  1  0.515400  0.950800  0.268300  0.3
  O  O4358  1  0.015400  0.549200  0.731700  0.3
  O  O4359  1  0.484600  0.049200  0.731700  0.3
  O  O4360  1  0.984600  0.450800  0.268300  0.3
  O  O4361  1  0.307900  0.932500  0.194700  0.615
  O  O4362  1  0.807900  0.567500  0.805300  0.615
  O  O4363  1  0.692100  0.067500  0.805300  0.615
  O  O4364  1  0.192100  0.432500  0.194700  0.615
  O  O4365  1  0.289700  0.957100  0.146500  0.615
  O  O4366  1  0.789700  0.542900  0.853500  0.615
  O  O4367  1  0.710300  0.042900  0.853500  0.615
  O  O4368  1  0.210300  0.457100  0.146500  0.615
  O  O4369  1  0.268700  0.904500  0.154000  0.615
  O  O4370  1  0.768700  0.595500  0.846000  0.615
  O  O4371  1  0.731300  0.095500  0.846000  0.615
  O  O4372  1  0.231300  0.404500  0.154000  0.615
  O  O4373  1  0.552400  0.137600  0.039200  0.65
  O  O4374  1  0.052400  0.362400  0.960800  0.65
  O  O4375  1  0.447600  0.862400  0.960800  0.65
  O  O4376  1  0.947600  0.637600  0.039200  0.65
  O  O4377  1  0.467500  0.138700  0.041700  0.65
  O  O4378  1  0.967500  0.361300  0.958300  0.65
  O  O4379  1  0.532500  0.861300  0.958300  0.65
  O  O4380  1  0.032500  0.638700  0.041700  0.65
  O  O4381  1  0.505500  0.100700  0.011900  0.65
  O  O4382  1  0.005500  0.399300  0.988100  0.65
  O  O4383  1  0.494500  0.899300  0.988100  0.65
  O  O4384  1  0.994500  0.600700  0.011900  0.65
  O  O4385  1  0.506200  0.152900  0.995000  0.65
  O  O4386  1  0.006200  0.347100  0.005000  0.65
  O  O4387  1  0.493800  0.847100  0.005000  0.65
  O  O4388  1  0.993800  0.652900  0.995000  0.65
