
#######################################################################
#
#                 Cambridge Crystallographic Data Centre
#                                CCDC 
#
#######################################################################
#
# If this CIF has been generated from an entry in the Cambridge 
# Structural Database, then it will include bibliographic, chemical, 
# crystal, experimental, refinement or atomic coordinate data resulting 
# from the CCDC's data processing and validation procedures.
#
#######################################################################

data_UBICUF
_chemical_formula_moiety         'C154 H106 N2 P4 Pt2,2.5(C2 H4 Cl2)'
_chemical_name_systematic        
'bis(\m~2~-3,5-bis(3-(diphenylmethylidene)penta-1,4-diyn-1,4-diyl)pyridine)-tetrakis(triphenylphosphine)-di-platinum(ii) 1,2-dichloroethane solvate'
_symmetry_cell_setting           triclinic
_symmetry_space_group_name_H-M   'P -1'
_symmetry_Int_Tables_number      2
_space_group_name_Hall           '-P 1'
loop_
_symmetry_equiv_pos_site_id
_symmetry_equiv_pos_as_xyz
1 x,y,z
2 -x,-y,-z
_cell_length_a                   12.8940(5)
_cell_length_b                   14.4595(6)
_cell_length_c                   19.9990(9)
_cell_angle_alpha                104.9381(8)
_cell_angle_beta                 97.9082(8)
_cell_angle_gamma                99.8794(8)
_cell_volume                     3483.85
_exptl_crystal_colour            yellow
_exptl_crystal_description       needle
_cell_formula_units_Z            1
loop_
_atom_site_label
_atom_site_type_symbol
_atom_site_fract_x
_atom_site_fract_y
_atom_site_fract_z
Pt1 Pt -0.231456(15) -0.156455(14) -0.226015(10)
P1 P -0.28168(12) -0.17227(10) -0.12240(8)
P2 P -0.19890(12) -0.13636(11) -0.33232(8)
N1 N 0.3633(5) -0.4329(4) -0.0761(3)
C1 C 0.2746(5) -0.4352(4) -0.1192(3)
H1 H 0.2522 -0.4881 -0.1613
C2 C 0.2117(5) -0.3653(4) -0.1070(3)
C3 C 0.2441(5) -0.2888(5) -0.0459(3)
H2 H 0.2039 -0.2393 -0.0358
C4 C 0.3350(5) -0.2848(4) 0.0005(3)
C5 C 0.3920(5) -0.3577(5) -0.0166(3)
H3 H 0.4550 -0.3545 0.0155
C6 C 0.1192(5) -0.3727(5) -0.1586(3)
C7 C 0.0465(5) -0.3831(5) -0.2057(3)
C8 C -0.0369(5) -0.4000(4) -0.2662(3)
C9 C -0.0401(5) -0.4752(4) -0.3240(3)
C10 C -0.1070(5) -0.3325(5) -0.2574(3)
C11 C -0.1557(5) -0.2676(4) -0.2428(3)
C12 C 0.3708(5) -0.2079(5) 0.0661(3)
C13 C 0.4015(5) -0.1489(4) 0.1235(3)
C14 C 0.4329(5) -0.0804(4) 0.1920(3)
C15 C 0.5216(5) -0.0838(4) 0.2366(3)
C16 C 0.3655(5) -0.0119(4) 0.2068(3)
C17 C -0.3091(4) -0.0477(4) -0.2136(3)
C18 C 0.0302(7) -0.5435(6) -0.3181(4)
C19 C 0.0324(6) -0.5948(6) -0.2681(4)
H4 H -0.0156 -0.5885 -0.2360
C20 C 0.1049(7) -0.6552(6) -0.2651(4)
H5 H 0.1064 -0.6903 -0.2309
C21 C 0.1752(7) -0.6644(7) -0.3120(5)
H6 H 0.2247 -0.7057 -0.3100
C22 C 0.1730(8) -0.6131(8) -0.3620(5)
H7 H 0.2210 -0.6194 -0.3942
C23 C 0.1005(8) -0.5527(7) -0.3651(4)
H8 H 0.0990 -0.5177 -0.3993
C24 C -0.1156(7) -0.4937(7) -0.3900(4)
C25 C -0.1374(8) -0.4181(5) -0.4170(5)
H9 H -0.1043 -0.3520 -0.3918
C26 C -0.2075(8) -0.4393(7) -0.4810(5)
H10 H -0.2224 -0.3877 -0.4995
C27 C -0.2559(8) -0.5360(8) -0.5179(4)
H11 H -0.3039 -0.5505 -0.5616
C28 C -0.2342(8) -0.6116(6) -0.4908(5)
H12 H -0.2673 -0.6777 -0.5160
C29 C -0.1640(8) -0.5904(6) -0.4269(5)
H13 H -0.1492 -0.6420 -0.4084
C30 C 0.5775(9) -0.1622(6) 0.2131(6)
C31 C 0.6793(9) -0.1344(5) 0.1995(6)
H14 H 0.7125 -0.0669 0.2112
C32 C 0.7325(7) -0.2053(8) 0.1689(6)
H15 H 0.8021 -0.1863 0.1596
C33 C 0.6839(8) -0.3041(7) 0.1519(5)
H16 H 0.7203 -0.3526 0.1309
C34 C 0.5821(8) -0.3319(5) 0.1655(5)
H17 H 0.5489 -0.3994 0.1538
C35 C 0.5289(7) -0.2610(7) 0.1961(6)
H18 H 0.4593 -0.2800 0.2054
C36 C 0.5577(5) -0.0137(5) 0.3078(3)
C37 C 0.5582(5) 0.0860(4) 0.3206(4)
H19 H 0.5406 0.1116 0.2823
C38 C 0.5844(5) 0.1479(5) 0.3893(4)
H20 H 0.5841 0.2155 0.3973
C39 C 0.6103(7) 0.1140(6) 0.4448(4)
H21 H 0.6252 0.1566 0.4915
C40 C 0.6150(9) 0.0176(8) 0.4331(4)
H22 H 0.6364 -0.0055 0.4721
C41 C 0.5887(8) -0.0482(6) 0.3648(4)
H23 H 0.5921 -0.1151 0.3576
C42 C -0.2655(5) -0.2805(4) -0.0946(3)
C43 C -0.1651(5) -0.3047(5) -0.0903(3)
H24 H -0.1091 -0.2686 -0.1056
C44 C -0.1469(7) -0.3806(6) -0.0640(4)
H25 H -0.0786 -0.3971 -0.0614
C45 C -0.2283(8) -0.4331(6) -0.0413(5)
H26 H -0.2152 -0.4849 -0.0225
C46 C -0.3276(7) -0.4106(6) -0.0458(5)
H27 H -0.3830 -0.4473 -0.0304
C47 C -0.3477(6) -0.3347(5) -0.0727(4)
H28 H -0.4168 -0.3198 -0.0762
C48 C -0.2113(5) -0.0726(4) -0.0448(3)
C49 C -0.1446(5) 0.0090(5) -0.0530(3)
H29 H -0.1372 0.0135 -0.0987
C50 C -0.0884(6) 0.0843(5) 0.0072(4)
H30 H -0.0434 0.1402 0.0019
C51 C -0.0978(6) 0.0782(5) 0.0737(4)
H31 H -0.0586 0.1293 0.1140
C52 C -0.1646(7) -0.0028(6) 0.0818(4)
H32 H -0.1719 -0.0067 0.1277
C53 C -0.2208(6) -0.0785(5) 0.0228(3)
H33 H -0.2657 -0.1342 0.0285
C54 C -0.4240(5) -0.1712(4) -0.1290(3)
C55 C -0.4968(5) -0.2467(5) -0.1802(4)
H34 H -0.4729 -0.2997 -0.2081
C56 C -0.6052(6) -0.2440(6) -0.1903(5)
H35 H -0.6548 -0.2960 -0.2252
C57 C -0.6416(6) -0.1688(7) -0.1514(5)
H36 H -0.7160 -0.1687 -0.1583
C58 C -0.5688(7) -0.0921(7) -0.1014(4)
H37 H -0.5930 -0.0382 -0.0748
C59 C -0.4602(6) -0.0938(6) -0.0902(4)
H38 H -0.4108 -0.0413 -0.0557
C60 C -0.3027(4) -0.2191(4) -0.4044(3)
C61 C -0.3702(5) -0.2949(4) -0.3913(3)
H39 H -0.3608 -0.3041 -0.3456
C62 C -0.4515(6) -0.3577(5) -0.4446(4)
H40 H -0.4973 -0.4099 -0.4353
C63 C -0.4659(6) -0.3447(5) -0.5099(4)
H41 H -0.5221 -0.3875 -0.5461
C64 C -0.3988(6) -0.2690(6) -0.5238(4)
H42 H -0.4088 -0.2600 -0.5694
C65 C -0.3176(6) -0.2068(5) -0.4713(4)
H43 H -0.2715 -0.1551 -0.4809
C66 C -0.0692(6) -0.1732(7) -0.3488(5)
C67 C 0.0203(7) -0.1336(7) -0.2950(4)
H44 H 0.0145 -0.0905 -0.2516
C68 C 0.1184(6) -0.1570(8) -0.3048(5)
H45 H 0.1796 -0.1299 -0.2680
C69 C 0.1269(6) -0.2201(8) -0.3683(6)
H46 H 0.1939 -0.2361 -0.3749
C70 C 0.0373(8) -0.2597(8) -0.4220(5)
H47 H 0.0432 -0.3029 -0.4654
C71 C -0.0607(7) -0.2363(7) -0.4123(4)
H48 H -0.1219 -0.2634 -0.4491
C72 C -0.1998(5) -0.0175(5) -0.3468(3)
C73 C -0.2979(6) 0.0089(5) -0.3606(3)
H49 H -0.3632 -0.0350 -0.3632
C74 C -0.2984(8) 0.1007(6) -0.3707(4)
H50 H -0.3649 0.1194 -0.3799
C75 C -0.2057(11) 0.1641(7) -0.3675(6)
H51 H -0.2077 0.2262 -0.3746
C76 C -0.1084(11) 0.1378(8) -0.3538(8)
H52 H -0.0437 0.1822 -0.3517
C77 C -0.1045(8) 0.0480(6) -0.3432(5)
H53 H -0.0374 0.0307 -0.3335
Pt1A Pt 0.231456(15) 0.156455(14) 0.226015(10)
P1A P 0.28168(12) 0.17227(10) 0.12240(8)
P2A P 0.19890(12) 0.13636(11) 0.33232(8)
N1A N -0.3633(5) 0.4329(4) 0.0761(3)
C1A C -0.2746(5) 0.4352(4) 0.1192(3)
H1A H -0.2522 0.4881 0.1613
C2A C -0.2117(5) 0.3653(4) 0.1070(3)
C3A C -0.2441(5) 0.2888(5) 0.0459(3)
H2A H -0.2039 0.2393 0.0358
C4A C -0.3350(5) 0.2848(4) -0.0005(3)
C5A C -0.3920(5) 0.3577(5) 0.0166(3)
H3A H -0.4550 0.3545 -0.0155
C6A C -0.1192(5) 0.3727(5) 0.1586(3)
C7A C -0.0465(5) 0.3831(5) 0.2057(3)
C8A C 0.0369(5) 0.4000(4) 0.2662(3)
C9A C 0.0401(5) 0.4752(4) 0.3240(3)
C10A C 0.1070(5) 0.3325(5) 0.2574(3)
C11A C 0.1557(5) 0.2676(4) 0.2428(3)
C12A C -0.3708(5) 0.2079(5) -0.0661(3)
C13A C -0.4015(5) 0.1489(4) -0.1235(3)
C14A C -0.4329(5) 0.0804(4) -0.1920(3)
C15A C -0.5216(5) 0.0838(4) -0.2366(3)
C16A C -0.3655(5) 0.0119(4) -0.2068(3)
C17A C 0.3091(4) 0.0477(4) 0.2136(3)
C18A C -0.0302(7) 0.5435(6) 0.3181(4)
C19A C -0.0324(6) 0.5948(6) 0.2681(4)
H4A H 0.0156 0.5885 0.2360
C20A C -0.1049(7) 0.6552(6) 0.2651(4)
H5A H -0.1064 0.6903 0.2309
C21A C -0.1752(7) 0.6644(7) 0.3120(5)
H6A H -0.2247 0.7057 0.3100
C22A C -0.1730(8) 0.6131(8) 0.3620(5)
H7A H -0.2210 0.6194 0.3942
C23A C -0.1005(8) 0.5527(7) 0.3651(4)
H8A H -0.0990 0.5177 0.3993
C24A C 0.1156(7) 0.4937(7) 0.3900(4)
C25A C 0.1374(8) 0.4181(5) 0.4170(5)
H9A H 0.1043 0.3520 0.3918
C26A C 0.2075(8) 0.4393(7) 0.4810(5)
H10A H 0.2224 0.3877 0.4995
C27A C 0.2559(8) 0.5360(8) 0.5179(4)
H11A H 0.3039 0.5505 0.5616
C28A C 0.2342(8) 0.6116(6) 0.4908(5)
H12A H 0.2673 0.6777 0.5160
C29A C 0.1640(8) 0.5904(6) 0.4269(5)
H13A H 0.1492 0.6420 0.4084
C30A C -0.5775(9) 0.1622(6) -0.2131(6)
C31A C -0.6793(9) 0.1344(5) -0.1995(6)
H14A H -0.7125 0.0669 -0.2112
C32A C -0.7325(7) 0.2053(8) -0.1689(6)
H15A H -0.8021 0.1863 -0.1596
C33A C -0.6839(8) 0.3041(7) -0.1519(5)
H16A H -0.7203 0.3526 -0.1309
C34A C -0.5821(8) 0.3319(5) -0.1655(5)
H17A H -0.5489 0.3994 -0.1538
C35A C -0.5289(7) 0.2610(7) -0.1961(6)
H18A H -0.4593 0.2800 -0.2054
C36A C -0.5577(5) 0.0137(5) -0.3078(3)
C37A C -0.5582(5) -0.0860(4) -0.3206(4)
H19A H -0.5406 -0.1116 -0.2823
C38A C -0.5844(5) -0.1479(5) -0.3893(4)
H20A H -0.5841 -0.2155 -0.3973
C39A C -0.6103(7) -0.1140(6) -0.4448(4)
H21A H -0.6252 -0.1566 -0.4915
C40A C -0.6150(9) -0.0176(8) -0.4331(4)
H22A H -0.6364 0.0055 -0.4721
C41A C -0.5887(8) 0.0482(6) -0.3648(4)
H23A H -0.5921 0.1151 -0.3576
C42A C 0.2655(5) 0.2805(4) 0.0946(3)
C43A C 0.1651(5) 0.3047(5) 0.0903(3)
H24A H 0.1091 0.2686 0.1056
C44A C 0.1469(7) 0.3806(6) 0.0640(4)
H25A H 0.0786 0.3971 0.0614
C45A C 0.2283(8) 0.4331(6) 0.0413(5)
H26A H 0.2152 0.4849 0.0225
C46A C 0.3276(7) 0.4106(6) 0.0458(5)
H27A H 0.3830 0.4473 0.0304
C47A C 0.3477(6) 0.3347(5) 0.0727(4)
H28A H 0.4168 0.3198 0.0762
C48A C 0.2113(5) 0.0726(4) 0.0448(3)
C49A C 0.1446(5) -0.0090(5) 0.0530(3)
H29A H 0.1372 -0.0135 0.0987
C50A C 0.0884(6) -0.0843(5) -0.0072(4)
H30A H 0.0434 -0.1402 -0.0019
C51A C 0.0978(6) -0.0782(5) -0.0737(4)
H31A H 0.0586 -0.1293 -0.1140
C52A C 0.1646(7) 0.0028(6) -0.0818(4)
H32A H 0.1719 0.0067 -0.1277
C53A C 0.2208(6) 0.0785(5) -0.0228(3)
H33A H 0.2657 0.1342 -0.0285
C54A C 0.4240(5) 0.1712(4) 0.1290(3)
C55A C 0.4968(5) 0.2467(5) 0.1802(4)
H34A H 0.4729 0.2997 0.2081
C56A C 0.6052(6) 0.2440(6) 0.1903(5)
H35A H 0.6548 0.2960 0.2252
C57A C 0.6416(6) 0.1688(7) 0.1514(5)
H36A H 0.7160 0.1687 0.1583
C58A C 0.5688(7) 0.0921(7) 0.1014(4)
H37A H 0.5930 0.0382 0.0748
C59A C 0.4602(6) 0.0938(6) 0.0902(4)
H38A H 0.4108 0.0413 0.0557
C60A C 0.3027(4) 0.2191(4) 0.4044(3)
C61A C 0.3702(5) 0.2949(4) 0.3913(3)
H39A H 0.3608 0.3041 0.3456
C62A C 0.4515(6) 0.3577(5) 0.4446(4)
H40A H 0.4973 0.4099 0.4353
C63A C 0.4659(6) 0.3447(5) 0.5099(4)
H41A H 0.5221 0.3875 0.5461
C64A C 0.3988(6) 0.2690(6) 0.5238(4)
H42A H 0.4088 0.2600 0.5694
C65A C 0.3176(6) 0.2068(5) 0.4713(4)
H43A H 0.2715 0.1551 0.4809
C66A C 0.0692(6) 0.1732(7) 0.3488(5)
C67A C -0.0203(7) 0.1336(7) 0.2950(4)
H44A H -0.0145 0.0905 0.2516
C68A C -0.1184(6) 0.1570(8) 0.3048(5)
H45A H -0.1796 0.1299 0.2680
C69A C -0.1269(6) 0.2201(8) 0.3683(6)
H46A H -0.1939 0.2361 0.3749
C70A C -0.0373(8) 0.2597(8) 0.4220(5)
H47A H -0.0432 0.3029 0.4654
C71A C 0.0607(7) 0.2363(7) 0.4123(4)
H48A H 0.1219 0.2634 0.4491
C72A C 0.1998(5) 0.0175(5) 0.3468(3)
C73A C 0.2979(6) -0.0089(5) 0.3606(3)
H49A H 0.3632 0.0350 0.3632
C74A C 0.2984(8) -0.1007(6) 0.3707(4)
H50A H 0.3649 -0.1194 0.3799
C75A C 0.2057(11) -0.1641(7) 0.3675(6)
H51A H 0.2077 -0.2262 0.3746
C76A C 0.1084(11) -0.1378(8) 0.3538(8)
H52A H 0.0437 -0.1822 0.3517
C77A C 0.1045(8) -0.0480(6) 0.3432(5)
H53A H 0.0374 -0.0307 0.3335
Cl1 Cl -0.0140(3) 0.1688(4) -0.1445(3)
C78 C -0.1341(8) 0.2136(11) -0.1606(9)
H54 H -0.1562 0.1914 -0.2126
H55 H -0.1875 0.1729 -0.1430
C79 C -0.1601(9) 0.3161(8) -0.1395(14)
Cl2 Cl -0.0307(8) 0.3959(5) -0.1014(5)
H56 H -0.2082 0.3203 -0.1048
H57 H -0.1943 0.3323 -0.1812
Cl3 Cl 0.6532(7) 0.3395(4) 0.6997(5)
C80 C 0.6910(17) 0.4631(6) 0.7573(8)
H58 H 0.6639 0.4669 0.8017
H59 H 0.7700 0.4855 0.7688
C81 C 0.6403(4) 0.5268(14) 0.7171(11)
Cl4 Cl 0.4961(4) 0.4968(3) 0.7013(3)
H60 H 0.6642 0.5181 0.6713
H61 H 0.6659 0.5966 0.7445
Cl5 Cl 0.1413(4) 0.0919(5) 0.5796(3)
C82 C 0.0216(9) 0.05590(13) 0.5128(7)
H62 H -0.0345 0.0878 0.5319
H63 H 0.0371 0.0794 0.4722
Cl5A Cl -0.1413(4) -0.0919(5) 0.4204(3)
C82A C -0.0216(9) -0.05590(13) 0.4872(7)
H62A H 0.0345 -0.0878 0.4681
H63A H -0.0371 -0.0794 0.5278
loop_
_geom_bond_atom_site_label_1
_geom_bond_atom_site_label_2
_geom_bond_site_symmetry_1
_geom_bond_site_symmetry_2
Pt1 P1 1_555 1_555
P1 C42 1_555 1_555
P2 Pt1 1_555 1_555
N1 C1 1_555 1_555
C1 H1 1_555 1_555
C2 C1 1_555 1_555
C3 C2 1_555 1_555
H2 C3 1_555 1_555
C4 C3 1_555 1_555
C5 N1 1_555 1_555
H3 C5 1_555 1_555
C6 C2 1_555 1_555
C7 C6 1_555 1_555
C8 C7 1_555 1_555
C9 C8 1_555 1_555
C10 C8 1_555 1_555
C11 Pt1 1_555 1_555
C12 C4 1_555 1_555
C13 C12 1_555 1_555
C14 C13 1_555 1_555
C15 C14 1_555 1_555
C16 C14 1_555 1_555
C17 Pt1 1_555 1_555
C18 C9 1_555 1_555
C19 C18 1_555 1_555
H4 C19 1_555 1_555
C20 C19 1_555 1_555
H5 C20 1_555 1_555
C21 C20 1_555 1_555
H6 C21 1_555 1_555
C22 C21 1_555 1_555
H7 C22 1_555 1_555
C23 C18 1_555 1_555
H8 C23 1_555 1_555
C24 C9 1_555 1_555
C25 C24 1_555 1_555
H9 C25 1_555 1_555
C26 C25 1_555 1_555
H10 C26 1_555 1_555
C27 C26 1_555 1_555
H11 C27 1_555 1_555
C28 C27 1_555 1_555
H12 C28 1_555 1_555
C29 C24 1_555 1_555
H13 C29 1_555 1_555
C30 C15 1_555 1_555
C31 C30 1_555 1_555
H14 C31 1_555 1_555
C32 C31 1_555 1_555
H15 C32 1_555 1_555
C33 C32 1_555 1_555
H16 C33 1_555 1_555
C34 C33 1_555 1_555
H17 C34 1_555 1_555
C35 C30 1_555 1_555
H18 C35 1_555 1_555
C36 C15 1_555 1_555
C37 C36 1_555 1_555
H19 C37 1_555 1_555
C38 C37 1_555 1_555
H20 C38 1_555 1_555
C39 C38 1_555 1_555
H21 C39 1_555 1_555
C40 C39 1_555 1_555
H22 C40 1_555 1_555
C41 C36 1_555 1_555
H23 C41 1_555 1_555
C42 C43 1_555 1_555
C43 H24 1_555 1_555
C44 C43 1_555 1_555
H25 C44 1_555 1_555
C45 C44 1_555 1_555
H26 C45 1_555 1_555
C46 C45 1_555 1_555
H27 C46 1_555 1_555
C47 C42 1_555 1_555
H28 C47 1_555 1_555
C48 P1 1_555 1_555
C49 C48 1_555 1_555
H29 C49 1_555 1_555
C50 C49 1_555 1_555
H30 C50 1_555 1_555
C51 C50 1_555 1_555
H31 C51 1_555 1_555
C52 C51 1_555 1_555
H32 C52 1_555 1_555
C53 C48 1_555 1_555
H33 C53 1_555 1_555
C54 P1 1_555 1_555
C55 C54 1_555 1_555
H34 C55 1_555 1_555
C56 C55 1_555 1_555
H35 C56 1_555 1_555
C57 C56 1_555 1_555
H36 C57 1_555 1_555
C58 C57 1_555 1_555
H37 C58 1_555 1_555
C59 C54 1_555 1_555
H38 C59 1_555 1_555
C60 P2 1_555 1_555
C61 C60 1_555 1_555
H39 C61 1_555 1_555
C62 C61 1_555 1_555
H40 C62 1_555 1_555
C63 C62 1_555 1_555
H41 C63 1_555 1_555
C64 C63 1_555 1_555
H42 C64 1_555 1_555
C65 C60 1_555 1_555
H43 C65 1_555 1_555
C66 P2 1_555 1_555
C67 C66 1_555 1_555
H44 C67 1_555 1_555
C68 C67 1_555 1_555
H45 C68 1_555 1_555
C69 C68 1_555 1_555
H46 C69 1_555 1_555
C70 C69 1_555 1_555
H47 C70 1_555 1_555
C71 C66 1_555 1_555
H48 C71 1_555 1_555
C72 P2 1_555 1_555
C73 C72 1_555 1_555
H49 C73 1_555 1_555
C74 C73 1_555 1_555
H50 C74 1_555 1_555
C75 C74 1_555 1_555
H51 C75 1_555 1_555
C76 C75 1_555 1_555
H52 C76 1_555 1_555
C77 C72 1_555 1_555
H53 C77 1_555 1_555
Cl1 C78 1_555 1_555
C78 H54 1_555 1_555
H55 C78 1_555 1_555
C79 C78 1_555 1_555
Cl2 C79 1_555 1_555
H56 C79 1_555 1_555
H57 C79 1_555 1_555
Cl3 C80 1_555 1_555
C80 H58 1_555 1_555
H59 C80 1_555 1_555
C81 C80 1_555 1_555
Cl4 C81 1_555 1_555
H60 C81 1_555 1_555
H61 C81 1_555 1_555
Cl5 C82 1_555 1_555
C82 H62 1_555 1_555
H63 C82 1_555 1_555
Pt1A P1A 1_555 1_555
P1A C42A 1_555 1_555
P2A Pt1A 1_555 1_555
N1A C1A 1_555 1_555
C1A H1A 1_555 1_555
C2A C1A 1_555 1_555
C3A C2A 1_555 1_555
H2A C3A 1_555 1_555
C4A C3A 1_555 1_555
C5A N1A 1_555 1_555
H3A C5A 1_555 1_555
C6A C2A 1_555 1_555
C7A C6A 1_555 1_555
C8A C7A 1_555 1_555
C9A C8A 1_555 1_555
C10A C8A 1_555 1_555
C11A Pt1A 1_555 1_555
C12A C4A 1_555 1_555
C13A C12A 1_555 1_555
C14A C13A 1_555 1_555
C15A C14A 1_555 1_555
C16A C17 1_555 1_555
C17A C16 1_555 1_555
C18A C9A 1_555 1_555
C19A C18A 1_555 1_555
H4A C19A 1_555 1_555
C20A C19A 1_555 1_555
H5A C20A 1_555 1_555
C21A C20A 1_555 1_555
H6A C21A 1_555 1_555
C22A C21A 1_555 1_555
H7A C22A 1_555 1_555
C23A C18A 1_555 1_555
H8A C23A 1_555 1_555
C24A C9A 1_555 1_555
C25A C24A 1_555 1_555
H9A C25A 1_555 1_555
C26A C25A 1_555 1_555
H10A C26A 1_555 1_555
C27A C26A 1_555 1_555
H11A C27A 1_555 1_555
C28A C27A 1_555 1_555
H12A C28A 1_555 1_555
C29A C24A 1_555 1_555
H13A C29A 1_555 1_555
C30A C15A 1_555 1_555
C31A C30A 1_555 1_555
H14A C31A 1_555 1_555
C32A C31A 1_555 1_555
H15A C32A 1_555 1_555
C33A C32A 1_555 1_555
H16A C33A 1_555 1_555
C34A C33A 1_555 1_555
H17A C34A 1_555 1_555
C35A C30A 1_555 1_555
H18A C35A 1_555 1_555
C36A C15A 1_555 1_555
C37A C36A 1_555 1_555
H19A C37A 1_555 1_555
C38A C37A 1_555 1_555
H20A C38A 1_555 1_555
C39A C38A 1_555 1_555
H21A C39A 1_555 1_555
C40A C39A 1_555 1_555
H22A C40A 1_555 1_555
C41A C36A 1_555 1_555
H23A C41A 1_555 1_555
C42A C43A 1_555 1_555
C43A H24A 1_555 1_555
C44A C43A 1_555 1_555
H25A C44A 1_555 1_555
C45A C44A 1_555 1_555
H26A C45A 1_555 1_555
C46A C45A 1_555 1_555
H27A C46A 1_555 1_555
C47A C42A 1_555 1_555
H28A C47A 1_555 1_555
C48A P1A 1_555 1_555
C49A C48A 1_555 1_555
H29A C49A 1_555 1_555
C50A C49A 1_555 1_555
H30A C50A 1_555 1_555
C51A C50A 1_555 1_555
H31A C51A 1_555 1_555
C52A C51A 1_555 1_555
H32A C52A 1_555 1_555
C53A C48A 1_555 1_555
H33A C53A 1_555 1_555
C54A P1A 1_555 1_555
C55A C54A 1_555 1_555
H34A C55A 1_555 1_555
C56A C55A 1_555 1_555
H35A C56A 1_555 1_555
C57A C56A 1_555 1_555
H36A C57A 1_555 1_555
C58A C57A 1_555 1_555
H37A C58A 1_555 1_555
C59A C54A 1_555 1_555
H38A C59A 1_555 1_555
C60A P2A 1_555 1_555
C61A C60A 1_555 1_555
H39A C61A 1_555 1_555
C62A C61A 1_555 1_555
H40A C62A 1_555 1_555
C63A C62A 1_555 1_555
H41A C63A 1_555 1_555
C64A C63A 1_555 1_555
H42A C64A 1_555 1_555
C65A C60A 1_555 1_555
H43A C65A 1_555 1_555
C66A P2A 1_555 1_555
C67A C66A 1_555 1_555
H44A C67A 1_555 1_555
C68A C67A 1_555 1_555
H45A C68A 1_555 1_555
C69A C68A 1_555 1_555
H46A C69A 1_555 1_555
C70A C69A 1_555 1_555
H47A C70A 1_555 1_555
C71A C66A 1_555 1_555
H48A C71A 1_555 1_555
C72A P2A 1_555 1_555
C73A C72A 1_555 1_555
H49A C73A 1_555 1_555
C74A C73A 1_555 1_555
H50A C74A 1_555 1_555
C75A C74A 1_555 1_555
H51A C75A 1_555 1_555
C76A C75A 1_555 1_555
H52A C76A 1_555 1_555
C77A C72A 1_555 1_555
H53A C77A 1_555 1_555
Cl5A C82A 1_555 1_555
C82A C82 1_555 1_555
H62A C82A 1_555 1_555
H63A C82A 1_555 1_555
C4 C5 1_555 1_555
C10 C11 1_555 1_555
C22 C23 1_555 1_555
C28 C29 1_555 1_555
C34 C35 1_555 1_555
C40 C41 1_555 1_555
C46 C47 1_555 1_555
C52 C53 1_555 1_555
C58 C59 1_555 1_555
C64 C65 1_555 1_555
C70 C71 1_555 1_555
C76 C77 1_555 1_555
Pt1A C17A 1_555 1_555
C4A C5A 1_555 1_555
C10A C11A 1_555 1_555
C14A C16A 1_555 1_555
C22A C23A 1_555 1_555
C28A C29A 1_555 1_555
C34A C35A 1_555 1_555
C40A C41A 1_555 1_555
C46A C47A 1_555 1_555
C52A C53A 1_555 1_555
C58A C59A 1_555 1_555
C64A C65A 1_555 1_555
C70A C71A 1_555 1_555
C76A C77A 1_555 1_555

#END
