
#######################################################################
#
#                 Cambridge Crystallographic Data Centre
#                                CCDC 
#
#######################################################################
#
# If this CIF has been generated from an entry in the Cambridge 
# Structural Database, then it will include bibliographic, chemical, 
# crystal, experimental, refinement or atomic coordinate data resulting 
# from the CCDC's data processing and validation procedures.
#
#######################################################################

data_UBIDAM
_chemical_formula_moiety         'C106 H106 N2 P4 Pt2,C1 H2 Cl2'
_chemical_name_systematic        
'bis(\m~2~-3,5-bis(3-(diphenylmethylidene)penta-1,4-diyn-1,4-diyl)pyridine)-tetrakis(triethylphosphine)-di-platinum(ii) dichloromethane solvate'
_symmetry_cell_setting           monoclinic
_symmetry_space_group_name_H-M   'I a'
_symmetry_Int_Tables_number      9
_space_group_name_Hall           'I -2ya'
loop_
_symmetry_equiv_pos_site_id
_symmetry_equiv_pos_as_xyz
1 x,y,z
2 1/2+x,-y,z
3 1/2+x,1/2+y,1/2+z
4 x,1/2-y,1/2+z
_cell_length_a                   29.555(2)
_cell_length_b                   13.1084(11)
_cell_length_c                   26.278(2)
_cell_angle_alpha                90
_cell_angle_beta                 105.498(2)
_cell_angle_gamma                90
_cell_volume                     9810.42
_exptl_crystal_colour            yellow
_exptl_crystal_description       plate
_cell_formula_units_Z            4
loop_
_atom_site_label
_atom_site_type_symbol
_atom_site_fract_x
_atom_site_fract_y
_atom_site_fract_z
Pt1 Pt 0.35710(6) 0.09733(3) -0.11850(9)
Pt2 Pt 0.51640(6) -0.33334(2) -0.34094(9)
P1 P 0.29394(12) 0.1926(2) -0.11309(15)
P2 P 0.42201(11) -0.0021(2) -0.11709(13)
P3 P 0.58295(12) -0.4280(3) -0.33615(16)
P4 P 0.45078(12) -0.2335(2) -0.35524(15)
N1 N 0.2383(4) -0.5294(9) -0.2615(5)
N2 N 0.6261(3) 0.3386(7) -0.2031(4)
C1 C 0.3220(4) -0.0248(8) -0.1080(4)
C2 C 0.3016(4) -0.1029(8) -0.0983(4)
C3 C 0.2802(3) -0.1964(7) -0.0889(4)
C4 C 0.2642(3) -0.2162(7) -0.0467(4)
C5 C 0.2806(3) -0.2707(8) -0.1293(4)
C6 C 0.2841(4) -0.3296(7) -0.1635(4)
C7 C 0.2420(4) -0.4568(9) -0.2254(5)
H1 H 0.2150 -0.4392 -0.2142
C8 C 0.2845(4) -0.4050(7) -0.2032(4)
C9 C 0.3231(4) -0.4300(8) -0.2209(4)
H2 H 0.3517 -0.3934 -0.2084
C10 C 0.3199(3) -0.5075(7) -0.2566(4)
C11 C 0.2768(4) -0.5539(9) -0.2755(5)
H3 H 0.2746 -0.6074 -0.3004
C12 C 0.3580(3) -0.5381(7) -0.2763(4)
C13 C 0.3866(4) -0.5702(7) -0.2969(4)
C14 C 0.4222(4) -0.6070(8) -0.3240(4)
C15 C 0.4216(3) -0.7040(7) -0.3409(4)
C16 C 0.4545(4) -0.5281(8) -0.3315(4)
C17 C 0.4785(3) -0.4553(8) -0.3360(4)
C18 C 0.5573(4) -0.2095(7) -0.3423(5)
C19 C 0.5831(4) -0.1414(9) -0.3390(5)
C20 C 0.6152(3) -0.0552(7) -0.3299(4)
C21 C 0.6527(3) -0.0436(7) -0.3500(4)
C22 C 0.6046(3) 0.0258(7) -0.2979(5)
C23 C 0.5962(4) 0.0949(8) -0.2725(5)
C24 C 0.6280(4) 0.2514(8) -0.2279(5)
H4 H 0.6566 0.2340 -0.2359
C25 C 0.5913(4) 0.1852(8) -0.2424(4)
C26 C 0.5492(4) 0.2094(8) -0.2324(5)
H5 H 0.5227 0.1659 -0.2437
C27 C 0.5463(4) 0.3006(7) -0.2050(4)
C28 C 0.5866(4) 0.3623(8) -0.1910(5)
H6 H 0.5855 0.4235 -0.1720
C29 C 0.5059(4) 0.3290(8) -0.1882(5)
C30 C 0.4760(4) 0.3582(7) -0.1686(4)
C31 C 0.4433(4) 0.3800(8) -0.1400(4)
C32 C 0.4417(4) 0.4759(8) -0.1173(4)
C33 C 0.4146(5) 0.2960(9) -0.1321(5)
C34 C 0.3939(4) 0.2212(8) -0.1283(4)
C35 C 0.2725(4) -0.1418(9) -0.0018(5)
C36 C 0.2363(6) -0.1165(11) 0.0220(6)
H7 H 0.2063 -0.1469 0.0090
C37 C 0.2433(6) -0.0516(13) 0.0618(7)
H8 H 0.2177 -0.0327 0.0753
C38 C 0.2854(6) -0.0124(14) 0.0833(7)
H9 H 0.2897 0.0321 0.1127
C39 C 0.3239(6) -0.0351(12) 0.0636(6)
H10 H 0.3541 -0.0070 0.0791
C40 C 0.3160(5) -0.1015(11) 0.0197(6)
H11 H 0.3412 -0.1181 0.0050
C41 C 0.2397(4) -0.3126(8) -0.0410(4)
C42 C 0.2501(4) -0.3646(10) 0.0075(5)
H12 H 0.2714 -0.3344 0.0373
C43 C 0.2309(5) -0.4556(11) 0.0132(5)
H13 H 0.2416 -0.4934 0.0450
C44 C 0.1956(5) -0.4929(9) -0.0278(7)
H14 H 0.1794 -0.5529 -0.0227
C45 C 0.1825(4) -0.4422(8) -0.0791(6)
H15 H 0.1588 -0.4694 -0.1077
C46 C 0.2060(4) -0.3530(8) -0.0844(5)
H16 H 0.1992 -0.3191 -0.1175
C47 C 0.3900(4) -0.7829(7) -0.3291(4)
C48 C 0.3859(4) -0.7973(8) -0.2778(4)
H17 H 0.4037 -0.7558 -0.2499
C49 C 0.3564(4) -0.8705(9) -0.2669(4)
H18 H 0.3538 -0.8780 -0.2318
C50 C 0.3304(4) -0.9334(8) -0.3062(5)
H19 H 0.3102 -0.9842 -0.2987
C51 C 0.3349(4) -0.9199(8) -0.3565(5)
H20 H 0.3175 -0.9620 -0.3843
C52 C 0.3642(4) -0.8464(8) -0.3671(5)
H21 H 0.3666 -0.8394 -0.4023
C53 C 0.4531(4) -0.7363(7) -0.3716(4)
C54 C 0.4599(4) -0.6795(8) -0.4140(5)
H22 H 0.4440 -0.6165 -0.4232
C55 C 0.4901(5) -0.7146(9) -0.4428(5)
H23 H 0.4933 -0.6756 -0.4722
C56 C 0.5152(5) -0.8030(10) -0.4306(6)
H24 H 0.5368 -0.8227 -0.4499
C57 C 0.5089(4) -0.8625(10) -0.3904(5)
H25 H 0.5256 -0.9248 -0.3818
C58 C 0.4764(5) -0.8293(8) -0.3610(5)
H26 H 0.4709 -0.8719 -0.3340
C59 C 0.6642(4) -0.1189(8) -0.3870(5)
C60 C 0.6299(4) -0.1452(9) -0.4346(5)
H27 H 0.5990 -0.1182 -0.4431
C61 C 0.6448(6) -0.2143(10) -0.4685(5)
H28 H 0.6227 -0.2338 -0.5005
C62 C 0.6899(5) -0.2550(10) -0.4575(6)
H29 H 0.6987 -0.2999 -0.4816
C63 C 0.7202(5) -0.2288(9) -0.4120(6)
H30 H 0.7507 -0.2579 -0.4033
C64 C 0.7089(4) -0.1612(9) -0.3773(5)
H31 H 0.7322 -0.1429 -0.3460
C65 C 0.6865(7) 0.0389(16) -0.3312(9)
C66 C 0.6986(7) 0.1013(15) -0.3679(8)
H32 H 0.6850 0.0881 -0.4044
C67 C 0.7288(7) 0.1801(16) -0.3544(9)
H33 H 0.7374 0.2201 -0.3805
C68 C 0.7471(7) 0.2008(17) -0.3007(9)
H34 H 0.7651 0.2611 -0.2907
C69 C 0.7404(8) 0.1403(18) -0.2631(11)
H35 H 0.7569 0.1518 -0.2273
C70 C 0.7080(7) 0.0570(17) -0.2772(10)
H36 H 0.7012 0.0149 -0.2508
C71 C 0.4692(4) 0.5608(7) -0.1297(4)
C72 C 0.4731(4) 0.5805(8) -0.1804(4)
H37 H 0.4553 0.5410 -0.2092
C73 C 0.5022(5) 0.6559(8) -0.1898(5)
H38 H 0.5049 0.6656 -0.2247
C74 C 0.5276(4) 0.7178(9) -0.1502(5)
H39 H 0.5473 0.7695 -0.1576
C75 C 0.5238(4) 0.7034(9) -0.0979(6)
H40 H 0.5412 0.7451 -0.0699
C76 C 0.4946(4) 0.6279(9) -0.0885(5)
H41 H 0.4911 0.6199 -0.0539
C77 C 0.4166(4) 0.4883(7) -0.0749(4)
C78 C 0.4250(4) 0.4210(8) -0.0334(4)
H42 H 0.4472 0.3678 -0.0312
C79 C 0.4014(4) 0.4297(8) 0.0050(5)
H43 H 0.4087 0.3847 0.0344
C80 C 0.3671(4) 0.5036(9) 0.0011(4)
H44 H 0.3498 0.5072 0.0267
C81 C 0.3583(4) 0.5709(9) -0.0397(4)
H45 H 0.3351 0.6221 -0.0419
C82 C 0.3830(4) 0.5663(8) -0.0793(4)
H46 H 0.3771 0.6140 -0.1076
C83 C 0.3002(5) 0.3293(9) -0.1172(5)
H47 H 0.3294 0.3497 -0.0906
H48 H 0.3044 0.3457 -0.1524
C84 C 0.2608(5) 0.3937(9) -0.1089(6)
H49 H 0.2680 0.4659 -0.1122
H50 H 0.2569 0.3810 -0.0735
H51 H 0.2317 0.3762 -0.1355
C85 C 0.2399(5) 0.1603(8) -0.1632(6)
H52 H 0.2350 0.0856 -0.1627
H53 H 0.2131 0.1936 -0.1539
C86 C 0.2401(6) 0.1905(13) -0.2159(6)
H54 H 0.2104 0.1701 -0.2407
H55 H 0.2663 0.1573 -0.2256
H56 H 0.2436 0.2648 -0.2171
C87 C 0.2798(4) 0.1705(9) -0.0518(5)
H57 H 0.2498 0.2050 -0.0530
H58 H 0.2751 0.0964 -0.0482
C88 C 0.3156(5) 0.2062(11) -0.0049(6)
H59 H 0.3054 0.1909 0.0269
H60 H 0.3199 0.2799 -0.0074
H61 H 0.3454 0.1714 -0.0027
C89 C 0.4105(7) -0.1306(15) -0.1412(8)
H62 H 0.4405 -0.1642 -0.1413
H63 H 0.3962 -0.1696 -0.1172
C90 C 0.3774(6) -0.1324(15) -0.1973(7)
H64 H 0.3716 -0.2032 -0.2092
H65 H 0.3919 -0.0954 -0.2213
H66 H 0.3476 -0.0997 -0.1972
C91 C 0.4607(5) 0.0498(11) -0.1549(6)
H67 H 0.4454 0.0406 -0.1930
H68 H 0.4644 0.1240 -0.1480
C92 C 0.5075(8) 0.0028(17) -0.1426(9)
H69 H 0.5254 0.0322 -0.1655
H70 H 0.5043 -0.0709 -0.1487
H71 H 0.5240 0.0158 -0.1056
C93 C 0.4611(6) -0.0153(15) -0.0498(7)
H72 H 0.4856 -0.0665 -0.0502
H73 H 0.4769 0.0507 -0.0386
C94 C 0.4346(12) -0.048(2) -0.0094(11)
H74 H 0.4568 -0.0538 0.0256
H75 H 0.4195 -0.1142 -0.0198
H76 H 0.4107 0.0031 -0.0084
C95 C 0.5764(5) -0.5650(10) -0.3338(6)
H77 H 0.5726 -0.5840 -0.2988
H78 H 0.5474 -0.5851 -0.3607
C96 C 0.6188(5) -0.6272(11) -0.3439(7)
H79 H 0.6130 -0.7004 -0.3414
H80 H 0.6478 -0.6084 -0.3174
H81 H 0.6221 -0.6115 -0.3793
C97 C 0.6071(5) -0.4052(9) -0.3906(6)
H82 H 0.6166 -0.3327 -0.3901
H83 H 0.6358 -0.4471 -0.3859
C98 C 0.5745(7) -0.4288(12) -0.4435(7)
H84 H 0.5901 -0.4139 -0.4712
H85 H 0.5462 -0.3867 -0.4489
H86 H 0.5658 -0.5011 -0.4449
C99 C 0.6311(5) -0.3908(14) -0.2829(7)
H87 H 0.6561 -0.4427 -0.2793
H88 H 0.6436 -0.3258 -0.2927
C100 C 0.6226(6) -0.3775(13) -0.2324(6)
H89 H 0.6516 -0.3561 -0.2068
H90 H 0.6118 -0.4421 -0.2209
H91 H 0.5984 -0.3252 -0.2348
C101 C 0.4591(5) -0.1017(8) -0.3352(6)
H92 H 0.4787 -0.0676 -0.3554
H93 H 0.4283 -0.0669 -0.3436
C102 C 0.4838(5) -0.0906(10) -0.2735(6)
H94 H 0.4870 -0.0182 -0.2639
H95 H 0.5150 -0.1223 -0.2652
H96 H 0.4646 -0.1246 -0.2533
C103 C 0.4034(4) -0.2773(9) -0.3289(5)
H97 H 0.3971 -0.3495 -0.3396
H98 H 0.4151 -0.2762 -0.2899
C104 C 0.3579(4) -0.2224(10) -0.3436(6)
H99 H 0.3360 -0.2555 -0.3267
H100 H 0.3450 -0.2241 -0.3820
H101 H 0.3628 -0.1514 -0.3317
C105 C 0.4238(4) -0.2268(10) -0.4255(5)
H102 H 0.4113 -0.2949 -0.4382
H103 H 0.3971 -0.1787 -0.4321
C106 C 0.4577(5) -0.1924(11) -0.4568(6)
H104 H 0.4415 -0.1923 -0.4946
H105 H 0.4845 -0.2393 -0.4502
H106 H 0.4690 -0.1234 -0.4458
Cl1 Cl 0.5703(2) -0.9013(5) -0.5406(3)
Cl2 Cl 0.5950(3) -0.6889(5) -0.5091(4)
C107 C 0.5913(14) -0.7826(11) -0.5601(8)
H107 H 0.5696 -0.7584 -0.5935
H108 H 0.6227 -0.7927 -0.5662
Cl3 Cl 0.6343(2) -0.1244(5) -0.0952(3)
Cl4 Cl 0.6632(5) 0.0769(5) -0.1245(4)
C108 C 0.6301(14) -0.0364(17) -0.1488(4)
H109 H 0.6425 -0.0686 -0.1764
H110 H 0.5968 -0.0183 -0.1648
loop_
_geom_bond_atom_site_label_1
_geom_bond_atom_site_label_2
_geom_bond_site_symmetry_1
_geom_bond_site_symmetry_2
Pt1 P1 1_555 1_555
Pt2 P3 1_555 1_555
P1 C83 1_555 1_555
P2 Pt1 1_555 1_555
P3 C95 1_555 1_555
P4 Pt2 1_555 1_555
N1 C7 1_555 1_555
N2 C24 1_555 1_555
C1 Pt1 1_555 1_555
C2 C1 1_555 1_555
C3 C2 1_555 1_555
C4 C3 1_555 1_555
C5 C3 1_555 1_555
C6 C5 1_555 1_555
C7 H1 1_555 1_555
C8 C6 1_555 1_555
C9 C8 1_555 1_555
H2 C9 1_555 1_555
C10 C9 1_555 1_555
C11 N1 1_555 1_555
H3 C11 1_555 1_555
C12 C10 1_555 1_555
C13 C12 1_555 1_555
C14 C13 1_555 1_555
C15 C14 1_555 1_555
C16 C14 1_555 1_555
C17 Pt2 1_555 1_555
C18 Pt2 1_555 1_555
C19 C18 1_555 1_555
C20 C19 1_555 1_555
C21 C20 1_555 1_555
C22 C20 1_555 1_555
C23 C22 1_555 1_555
C24 H4 1_555 1_555
C25 C23 1_555 1_555
C26 C25 1_555 1_555
H5 C26 1_555 1_555
C27 C26 1_555 1_555
C28 N2 1_555 1_555
H6 C28 1_555 1_555
C29 C27 1_555 1_555
C30 C29 1_555 1_555
C31 C30 1_555 1_555
C32 C31 1_555 1_555
C33 C31 1_555 1_555
C34 Pt1 1_555 1_555
C35 C4 1_555 1_555
C36 C35 1_555 1_555
H7 C36 1_555 1_555
C37 C36 1_555 1_555
H8 C37 1_555 1_555
C38 C37 1_555 1_555
H9 C38 1_555 1_555
C39 C38 1_555 1_555
H10 C39 1_555 1_555
C40 C35 1_555 1_555
H11 C40 1_555 1_555
C41 C4 1_555 1_555
C42 C41 1_555 1_555
H12 C42 1_555 1_555
C43 C42 1_555 1_555
H13 C43 1_555 1_555
C44 C43 1_555 1_555
H14 C44 1_555 1_555
C45 C44 1_555 1_555
H15 C45 1_555 1_555
C46 C41 1_555 1_555
H16 C46 1_555 1_555
C47 C15 1_555 1_555
C48 C47 1_555 1_555
H17 C48 1_555 1_555
C49 C48 1_555 1_555
H18 C49 1_555 1_555
C50 C49 1_555 1_555
H19 C50 1_555 1_555
C51 C50 1_555 1_555
H20 C51 1_555 1_555
C52 C47 1_555 1_555
H21 C52 1_555 1_555
C53 C15 1_555 1_555
C54 C53 1_555 1_555
H22 C54 1_555 1_555
C55 C54 1_555 1_555
H23 C55 1_555 1_555
C56 C55 1_555 1_555
H24 C56 1_555 1_555
C57 C56 1_555 1_555
H25 C57 1_555 1_555
C58 C53 1_555 1_555
H26 C58 1_555 1_555
C59 C21 1_555 1_555
C60 C59 1_555 1_555
H27 C60 1_555 1_555
C61 C60 1_555 1_555
H28 C61 1_555 1_555
C62 C61 1_555 1_555
H29 C62 1_555 1_555
C63 C62 1_555 1_555
H30 C63 1_555 1_555
C64 C59 1_555 1_555
H31 C64 1_555 1_555
C65 C21 1_555 1_555
C66 C65 1_555 1_555
H32 C66 1_555 1_555
C67 C66 1_555 1_555
H33 C67 1_555 1_555
C68 C67 1_555 1_555
H34 C68 1_555 1_555
C69 C68 1_555 1_555
H35 C69 1_555 1_555
C70 C65 1_555 1_555
H36 C70 1_555 1_555
C71 C32 1_555 1_555
C72 C71 1_555 1_555
H37 C72 1_555 1_555
C73 C72 1_555 1_555
H38 C73 1_555 1_555
C74 C73 1_555 1_555
H39 C74 1_555 1_555
C75 C74 1_555 1_555
H40 C75 1_555 1_555
C76 C71 1_555 1_555
H41 C76 1_555 1_555
C77 C32 1_555 1_555
C78 C77 1_555 1_555
H42 C78 1_555 1_555
C79 C78 1_555 1_555
H43 C79 1_555 1_555
C80 C79 1_555 1_555
H44 C80 1_555 1_555
C81 C80 1_555 1_555
H45 C81 1_555 1_555
C82 C77 1_555 1_555
H46 C82 1_555 1_555
C83 H47 1_555 1_555
H48 C83 1_555 1_555
C84 C83 1_555 1_555
H49 C84 1_555 1_555
H50 C84 1_555 1_555
H51 C84 1_555 1_555
C85 P1 1_555 1_555
H52 C85 1_555 1_555
H53 C85 1_555 1_555
C86 C85 1_555 1_555
H54 C86 1_555 1_555
H55 C86 1_555 1_555
H56 C86 1_555 1_555
C87 P1 1_555 1_555
H57 C87 1_555 1_555
H58 C87 1_555 1_555
C88 C87 1_555 1_555
H59 C88 1_555 1_555
H60 C88 1_555 1_555
H61 C88 1_555 1_555
C89 P2 1_555 1_555
H62 C89 1_555 1_555
H63 C89 1_555 1_555
C90 C89 1_555 1_555
H64 C90 1_555 1_555
H65 C90 1_555 1_555
H66 C90 1_555 1_555
C91 P2 1_555 1_555
H67 C91 1_555 1_555
H68 C91 1_555 1_555
C92 C91 1_555 1_555
H69 C92 1_555 1_555
H70 C92 1_555 1_555
H71 C92 1_555 1_555
C93 P2 1_555 1_555
H72 C93 1_555 1_555
H73 C93 1_555 1_555
C94 C93 1_555 1_555
H74 C94 1_555 1_555
H75 C94 1_555 1_555
H76 C94 1_555 1_555
C95 H77 1_555 1_555
H78 C95 1_555 1_555
C96 C95 1_555 1_555
H79 C96 1_555 1_555
H80 C96 1_555 1_555
H81 C96 1_555 1_555
C97 P3 1_555 1_555
H82 C97 1_555 1_555
H83 C97 1_555 1_555
C98 C97 1_555 1_555
H84 C98 1_555 1_555
H85 C98 1_555 1_555
H86 C98 1_555 1_555
C99 P3 1_555 1_555
H87 C99 1_555 1_555
H88 C99 1_555 1_555
C100 C99 1_555 1_555
H89 C100 1_555 1_555
H90 C100 1_555 1_555
H91 C100 1_555 1_555
C101 P4 1_555 1_555
H92 C101 1_555 1_555
H93 C101 1_555 1_555
C102 C101 1_555 1_555
H94 C102 1_555 1_555
H95 C102 1_555 1_555
H96 C102 1_555 1_555
C103 P4 1_555 1_555
H97 C103 1_555 1_555
H98 C103 1_555 1_555
C104 C103 1_555 1_555
H99 C104 1_555 1_555
H100 C104 1_555 1_555
H101 C104 1_555 1_555
C105 P4 1_555 1_555
H102 C105 1_555 1_555
H103 C105 1_555 1_555
C106 C105 1_555 1_555
H104 C106 1_555 1_555
H105 C106 1_555 1_555
H106 C106 1_555 1_555
Cl1 C107 1_555 1_555
Cl2 C107 1_555 1_555
C107 H107 1_555 1_555
H108 C107 1_555 1_555
Cl3 C108 1_555 1_555
Cl4 C108 1_555 1_555
C108 H109 1_555 1_555
H110 C108 1_555 1_555
C7 C8 1_555 1_555
C10 C11 1_555 1_555
C16 C17 1_555 1_555
C24 C25 1_555 1_555
C27 C28 1_555 1_555
C33 C34 1_555 1_555
C39 C40 1_555 1_555
C45 C46 1_555 1_555
C51 C52 1_555 1_555
C57 C58 1_555 1_555
C63 C64 1_555 1_555
C69 C70 1_555 1_555
C75 C76 1_555 1_555
C81 C82 1_555 1_555

#END
