# generated using pymatgen
data_P4H135Pt2C126(NCl2)2
_symmetry_space_group_name_H-M   'P 1'
_cell_length_a   13.10840000
_cell_length_b   26.27800000
_cell_length_c   29.55500000
_cell_angle_alpha   105.49800000
_cell_angle_beta   90.00000000
_cell_angle_gamma   90.00000000
_symmetry_Int_Tables_number   1
_chemical_formula_structural   P4H135Pt2C126(NCl2)2
_chemical_formula_sum   'P16 H540 Pt8 C504 N8 Cl16'
_cell_volume   9810.42173761
_cell_formula_units_Z   4
loop_
 _symmetry_equiv_pos_site_id
 _symmetry_equiv_pos_as_xyz
  1  'x, y, z'
loop_
 _atom_site_type_symbol
 _atom_site_label
 _atom_site_symmetry_multiplicity
 _atom_site_fract_x
 _atom_site_fract_y
 _atom_site_fract_z
 _atom_site_occupancy
  P  P1  1  0.192600  0.886910  0.293940  1
  P  P2  1  0.807400  0.886910  0.793940  1
  P  P3  1  0.692600  0.386910  0.793940  1
  P  P4  1  0.307400  0.386910  0.293940  1
  P  P5  1  0.997900  0.882910  0.422010  1
  P  P6  1  0.002100  0.882910  0.922010  1
  P  P7  1  0.497900  0.382910  0.922010  1
  P  P8  1  0.502100  0.382910  0.422010  1
  P  P9  1  0.572000  0.663850  0.582950  1
  P  P10  1  0.428000  0.663850  0.082950  1
  P  P11  1  0.072000  0.163850  0.082950  1
  P  P12  1  0.928000  0.163850  0.582950  1
  P  P13  1  0.766500  0.644760  0.450780  1
  P  P14  1  0.233500  0.644760  0.950780  1
  P  P15  1  0.266500  0.144760  0.950780  1
  P  P16  1  0.733500  0.144760  0.450780  1
  H  H17  1  0.560800  0.785800  0.215000  1
  H  H18  1  0.439200  0.785800  0.715000  1
  H  H19  1  0.060800  0.285800  0.715000  1
  H  H20  1  0.939200  0.285800  0.215000  1
  H  H21  1  0.606600  0.791600  0.351700  1
  H  H22  1  0.393400  0.791600  0.851700  1
  H  H23  1  0.106600  0.291600  0.851700  1
  H  H24  1  0.893400  0.291600  0.351700  1
  H  H25  1  0.392600  0.699600  0.274600  1
  H  H26  1  0.607400  0.699600  0.774600  1
  H  H27  1  0.892600  0.199600  0.774600  1
  H  H28  1  0.107400  0.199600  0.274600  1
  H  H29  1  0.234000  0.764100  0.656600  1
  H  H30  1  0.766000  0.764100  0.156600  1
  H  H31  1  0.734000  0.264100  0.156600  1
  H  H32  1  0.266000  0.264100  0.656600  1
  H  H33  1  0.165900  0.756300  0.522700  1
  H  H34  1  0.834100  0.756300  0.022700  1
  H  H35  1  0.665900  0.256300  0.022700  1
  H  H36  1  0.334100  0.256300  0.522700  1
  H  H37  1  0.423500  0.828000  0.585500  1
  H  H38  1  0.576500  0.828000  0.085500  1
  H  H39  1  0.923500  0.328000  0.085500  1
  H  H40  1  0.076500  0.328000  0.585500  1
  H  H41  1  0.853100  0.009000  0.206300  1
  H  H42  1  0.146900  0.009000  0.706300  1
  H  H43  1  0.353100  0.509000  0.706300  1
  H  H44  1  0.646900  0.509000  0.206300  1
  H  H45  1  0.967300  0.075300  0.217700  1
  H  H46  1  0.032700  0.075300  0.717700  1
  H  H47  1  0.467300  0.575300  0.717700  1
  H  H48  1  0.532700  0.575300  0.217700  1
  H  H49  1  0.032100  0.112700  0.289700  1
  H  H50  1  0.967900  0.112700  0.789700  1
  H  H51  1  0.532100  0.612700  0.789700  1
  H  H52  1  0.467900  0.612700  0.289700  1
  H  H53  1  0.993000  0.079100  0.354100  1
  H  H54  1  0.007000  0.079100  0.854100  1
  H  H55  1  0.493000  0.579100  0.854100  1
  H  H56  1  0.507000  0.579100  0.354100  1
  H  H57  1  0.881900  0.005000  0.341200  1
  H  H58  1  0.118100  0.005000  0.841200  1
  H  H59  1  0.381900  0.505000  0.841200  1
  H  H60  1  0.618100  0.505000  0.341200  1
  H  H61  1  0.665600  0.037300  0.271400  1
  H  H62  1  0.334400  0.037300  0.771400  1
  H  H63  1  0.165600  0.537300  0.771400  1
  H  H64  1  0.834400  0.537300  0.271400  1
  H  H65  1  0.506600  0.045000  0.241600  1
  H  H66  1  0.493400  0.045000  0.741600  1
  H  H67  1  0.006600  0.545000  0.741600  1
  H  H68  1  0.993400  0.545000  0.241600  1
  H  H69  1  0.447100  0.977300  0.179400  1
  H  H70  1  0.552900  0.977300  0.679400  1
  H  H71  1  0.947100  0.477300  0.679400  1
  H  H72  1  0.052900  0.477300  0.179400  1
  H  H73  1  0.530600  0.892300  0.158800  1
  H  H74  1  0.469400  0.892300  0.658800  1
  H  H75  1  0.030600  0.392300  0.658800  1
  H  H76  1  0.969400  0.392300  0.158800  1
  H  H77  1  0.680900  0.882500  0.199200  1
  H  H78  1  0.319100  0.882500  0.699200  1
  H  H79  1  0.180900  0.382500  0.699200  1
  H  H80  1  0.819100  0.382500  0.199200  1
  H  H81  1  0.244200  0.750100  0.403700  1
  H  H82  1  0.755800  0.750100  0.903700  1
  H  H83  1  0.744200  0.250100  0.903700  1
  H  H84  1  0.255800  0.250100  0.403700  1
  H  H85  1  0.122000  0.768200  0.353800  1
  H  H86  1  0.878000  0.768200  0.853800  1
  H  H87  1  0.622000  0.268200  0.853800  1
  H  H88  1  0.378000  0.268200  0.353800  1
  H  H89  1  0.015800  0.701300  0.310200  1
  H  H90  1  0.984200  0.701300  0.810200  1
  H  H91  1  0.515800  0.201300  0.810200  1
  H  H92  1  0.484200  0.201300  0.310200  1
  H  H93  1  0.038000  0.615700  0.317500  1
  H  H94  1  0.962000  0.615700  0.817500  1
  H  H95  1  0.538000  0.115700  0.817500  1
  H  H96  1  0.462000  0.115700  0.317500  1
  H  H97  1  0.160600  0.597700  0.366600  1
  H  H98  1  0.839400  0.597700  0.866600  1
  H  H99  1  0.660600  0.097700  0.866600  1
  H  H100  1  0.339400  0.097700  0.366600  1
  H  H101  1  0.383500  0.576800  0.444000  1
  H  H102  1  0.616500  0.576800  0.944000  1
  H  H103  1  0.883500  0.076800  0.944000  1
  H  H104  1  0.116500  0.076800  0.444000  1
  H  H105  1  0.324400  0.527800  0.493300  1
  H  H106  1  0.675600  0.527800  0.993300  1
  H  H107  1  0.824400  0.027800  0.993300  1
  H  H108  1  0.175600  0.027800  0.493300  1
  H  H109  1  0.177300  0.550100  0.536800  1
  H  H110  1  0.822700  0.550100  0.036800  1
  H  H111  1  0.677300  0.050100  0.036800  1
  H  H112  1  0.322700  0.050100  0.536800  1
  H  H113  1  0.075200  0.618200  0.525600  1
  H  H114  1  0.924800  0.618200  0.025600  1
  H  H115  1  0.575200  0.118200  0.025600  1
  H  H116  1  0.424800  0.118200  0.525600  1
  H  H117  1  0.128100  0.666000  0.470900  1
  H  H118  1  0.871900  0.666000  0.970900  1
  H  H119  1  0.628100  0.166000  0.970900  1
  H  H120  1  0.371900  0.166000  0.470900  1
  H  H121  1  0.881800  0.556900  0.599000  1
  H  H122  1  0.118200  0.556900  0.099000  1
  H  H123  1  0.381800  0.056900  0.099000  1
  H  H124  1  0.618200  0.056900  0.599000  1
  H  H125  1  0.766200  0.499500  0.622700  1
  H  H126  1  0.233800  0.499500  0.122700  1
  H  H127  1  0.266200  0.999500  0.122700  1
  H  H128  1  0.733800  0.999500  0.622700  1
  H  H129  1  0.700100  0.518400  0.698700  1
  H  H130  1  0.299900  0.518400  0.198700  1
  H  H131  1  0.200100  0.018400  0.198700  1
  H  H132  1  0.799900  0.018400  0.698700  1
  H  H133  1  0.742100  0.596700  0.750700  1
  H  H134  1  0.257900  0.596700  0.250700  1
  H  H135  1  0.242100  0.096700  0.250700  1
  H  H136  1  0.757900  0.096700  0.750700  1
  H  H137  1  0.857100  0.654000  0.732200  1
  H  H138  1  0.142900  0.654000  0.232200  1
  H  H139  1  0.357100  0.154000  0.232200  1
  H  H140  1  0.642900  0.154000  0.732200  1
  H  H141  1  0.088100  0.595600  0.685000  1
  H  H142  1  0.911900  0.595600  0.185000  1
  H  H143  1  0.588100  0.095600  0.185000  1
  H  H144  1  0.411900  0.095600  0.685000  1
  H  H145  1  0.220100  0.619500  0.737400  1
  H  H146  1  0.779900  0.619500  0.237400  1
  H  H147  1  0.720100  0.119500  0.237400  1
  H  H148  1  0.279900  0.119500  0.737400  1
  H  H149  1  0.261100  0.709300  0.765100  1
  H  H150  1  0.738900  0.709300  0.265100  1
  H  H151  1  0.761100  0.209300  0.265100  1
  H  H152  1  0.238900  0.209300  0.765100  1
  H  H153  1  0.151800  0.772700  0.756900  1
  H  H154  1  0.848200  0.772700  0.256900  1
  H  H155  1  0.651800  0.272700  0.256900  1
  H  H156  1  0.348200  0.272700  0.756900  1
  H  H157  1  0.014900  0.749200  0.701200  1
  H  H158  1  0.985100  0.749200  0.201200  1
  H  H159  1  0.514900  0.249200  0.201200  1
  H  H160  1  0.485100  0.249200  0.701200  1
  H  H161  1  0.541000  0.790800  0.455300  1
  H  H162  1  0.459000  0.790800  0.955300  1
  H  H163  1  0.041000  0.290800  0.955300  1
  H  H164  1  0.959000  0.290800  0.455300  1
  H  H165  1  0.665600  0.775300  0.504900  1
  H  H166  1  0.334400  0.775300  0.004900  1
  H  H167  1  0.165600  0.275300  0.004900  1
  H  H168  1  0.834400  0.275300  0.504900  1
  H  H169  1  0.769500  0.842400  0.547300  1
  H  H170  1  0.230500  0.842400  0.047300  1
  H  H171  1  0.269500  0.342400  0.047300  1
  H  H172  1  0.730500  0.342400  0.547300  1
  H  H173  1  0.745100  0.930100  0.541200  1
  H  H174  1  0.254900  0.930100  0.041200  1
  H  H175  1  0.245100  0.430100  0.041200  1
  H  H176  1  0.754900  0.430100  0.541200  1
  H  H177  1  0.619900  0.946100  0.491100  1
  H  H178  1  0.380100  0.946100  0.991100  1
  H  H179  1  0.119900  0.446100  0.991100  1
  H  H180  1  0.880100  0.446100  0.491100  1
  H  H181  1  0.367800  0.968800  0.447200  1
  H  H182  1  0.632200  0.968800  0.947200  1
  H  H183  1  0.867800  0.468800  0.947200  1
  H  H184  1  0.132200  0.468800  0.447200  1
  H  H185  1  0.384700  0.034400  0.408700  1
  H  H186  1  0.615300  0.034400  0.908700  1
  H  H187  1  0.884700  0.534400  0.908700  1
  H  H188  1  0.115300  0.534400  0.408700  1
  H  H189  1  0.507200  0.026700  0.349800  1
  H  H190  1  0.492800  0.026700  0.849800  1
  H  H191  1  0.007200  0.526700  0.849800  1
  H  H192  1  0.992800  0.526700  0.349800  1
  H  H193  1  0.622100  0.958100  0.335100  1
  H  H194  1  0.377900  0.958100  0.835100  1
  H  H195  1  0.122100  0.458100  0.835100  1
  H  H196  1  0.877900  0.458100  0.335100  1
  H  H197  1  0.614000  0.892400  0.377100  1
  H  H198  1  0.386000  0.892400  0.877100  1
  H  H199  1  0.114000  0.392400  0.877100  1
  H  H200  1  0.886000  0.392400  0.377100  1
  H  H201  1  0.349700  0.909400  0.329400  1
  H  H202  1  0.650300  0.909400  0.829400  1
  H  H203  1  0.849700  0.409400  0.829400  1
  H  H204  1  0.150300  0.409400  0.329400  1
  H  H205  1  0.345700  0.847600  0.304400  1
  H  H206  1  0.654300  0.847600  0.804400  1
  H  H207  1  0.845700  0.347600  0.804400  1
  H  H208  1  0.154300  0.347600  0.304400  1
  H  H209  1  0.465900  0.887800  0.268000  1
  H  H210  1  0.534100  0.887800  0.768000  1
  H  H211  1  0.965900  0.387800  0.768000  1
  H  H212  1  0.034100  0.387800  0.268000  1
  H  H213  1  0.381000  0.926500  0.256900  1
  H  H214  1  0.619000  0.926500  0.756900  1
  H  H215  1  0.881000  0.426500  0.756900  1
  H  H216  1  0.119000  0.426500  0.256900  1
  H  H217  1  0.376200  0.864500  0.231700  1
  H  H218  1  0.623800  0.864500  0.731700  1
  H  H219  1  0.876200  0.364500  0.731700  1
  H  H220  1  0.123800  0.364500  0.231700  1
  H  H221  1  0.085600  0.837300  0.235000  1
  H  H222  1  0.914400  0.837300  0.735000  1
  H  H223  1  0.585600  0.337300  0.735000  1
  H  H224  1  0.414400  0.337300  0.235000  1
  H  H225  1  0.193600  0.846100  0.213100  1
  H  H226  1  0.806400  0.846100  0.713100  1
  H  H227  1  0.693600  0.346100  0.713100  1
  H  H228  1  0.306400  0.346100  0.213100  1
  H  H229  1  0.170100  0.759300  0.210400  1
  H  H230  1  0.829900  0.759300  0.710400  1
  H  H231  1  0.670100  0.259300  0.710400  1
  H  H232  1  0.329900  0.259300  0.210400  1
  H  H233  1  0.157300  0.774400  0.266300  1
  H  H234  1  0.842700  0.774400  0.766300  1
  H  H235  1  0.657300  0.274400  0.766300  1
  H  H236  1  0.342700  0.274400  0.266300  1
  H  H237  1  0.264800  0.782900  0.243600  1
  H  H238  1  0.735200  0.782900  0.743600  1
  H  H239  1  0.764800  0.282900  0.743600  1
  H  H240  1  0.235200  0.282900  0.243600  1
  H  H241  1  0.205000  0.947000  0.249800  1
  H  H242  1  0.795000  0.947000  0.749800  1
  H  H243  1  0.705000  0.447000  0.749800  1
  H  H244  1  0.295000  0.447000  0.249800  1
  H  H245  1  0.096400  0.951800  0.275100  1
  H  H246  1  0.903600  0.951800  0.775100  1
  H  H247  1  0.596400  0.451800  0.775100  1
  H  H248  1  0.403600  0.451800  0.275100  1
  H  H249  1  0.190900  0.026900  0.305400  1
  H  H250  1  0.809100  0.026900  0.805400  1
  H  H251  1  0.690900  0.526900  0.805400  1
  H  H252  1  0.309100  0.526900  0.305400  1
  H  H253  1  0.279900  0.992600  0.319900  1
  H  H254  1  0.720100  0.992600  0.819900  1
  H  H255  1  0.779900  0.492600  0.819900  1
  H  H256  1  0.220100  0.492600  0.319900  1
  H  H257  1  0.171400  0.997300  0.345400  1
  H  H258  1  0.828600  0.997300  0.845400  1
  H  H259  1  0.671400  0.497300  0.845400  1
  H  H260  1  0.328600  0.497300  0.345400  1
  H  H261  1  0.835800  0.858700  0.440500  1
  H  H262  1  0.164200  0.858700  0.940500  1
  H  H263  1  0.335800  0.358700  0.940500  1
  H  H264  1  0.664200  0.358700  0.440500  1
  H  H265  1  0.830400  0.882800  0.396200  1
  H  H266  1  0.169600  0.882800  0.896200  1
  H  H267  1  0.330400  0.382800  0.896200  1
  H  H268  1  0.669600  0.382800  0.396200  1
  H  H269  1  0.796800  0.790800  0.371600  1
  H  H270  1  0.203200  0.790800  0.871600  1
  H  H271  1  0.296800  0.290800  0.871600  1
  H  H272  1  0.703200  0.290800  0.371600  1
  H  H273  1  0.904600  0.778700  0.391900  1
  H  H274  1  0.095400  0.778700  0.891900  1
  H  H275  1  0.404600  0.278700  0.891900  1
  H  H276  1  0.595400  0.278700  0.391900  1
  H  H277  1  0.900300  0.802800  0.347600  1
  H  H278  1  0.099700  0.802800  0.847600  1
  H  H279  1  0.400300  0.302800  0.847600  1
  H  H280  1  0.599700  0.302800  0.347600  1
  H  H281  1  0.040600  0.807000  0.445400  1
  H  H282  1  0.959400  0.807000  0.945400  1
  H  H283  1  0.540600  0.307000  0.945400  1
  H  H284  1  0.459400  0.307000  0.445400  1
  H  H285  1  0.124000  0.852000  0.464400  1
  H  H286  1  0.876000  0.852000  0.964400  1
  H  H287  1  0.624000  0.352000  0.964400  1
  H  H288  1  0.376000  0.352000  0.464400  1
  H  H289  1  0.032200  0.834500  0.525400  1
  H  H290  1  0.967800  0.834500  0.025400  1
  H  H291  1  0.532200  0.334500  0.025400  1
  H  H292  1  0.467800  0.334500  0.525400  1
  H  H293  1  0.929100  0.851300  0.504300  1
  H  H294  1  0.070900  0.851300  0.004300  1
  H  H295  1  0.429100  0.351300  0.004300  1
  H  H296  1  0.570900  0.351300  0.504300  1
  H  H297  1  0.015800  0.894400  0.524000  1
  H  H298  1  0.984200  0.894400  0.024000  1
  H  H299  1  0.515800  0.394400  0.024000  1
  H  H300  1  0.484200  0.394400  0.524000  1
  H  H301  1  0.933500  0.949800  0.485600  1
  H  H302  1  0.066500  0.949800  0.985600  1
  H  H303  1  0.433500  0.449800  0.985600  1
  H  H304  1  0.566500  0.449800  0.485600  1
  H  H305  1  0.050700  0.961400  0.476900  1
  H  H306  1  0.949300  0.961400  0.976900  1
  H  H307  1  0.550700  0.461400  0.976900  1
  H  H308  1  0.449300  0.461400  0.476900  1
  H  H309  1  0.946200  0.025600  0.456800  1
  H  H310  1  0.053800  0.025600  0.956800  1
  H  H311  1  0.446200  0.525600  0.956800  1
  H  H312  1  0.553800  0.525600  0.456800  1
  H  H313  1  0.885800  0.980200  0.419500  1
  H  H314  1  0.114200  0.980200  0.919500  1
  H  H315  1  0.385800  0.480200  0.919500  1
  H  H316  1  0.614200  0.480200  0.419500  1
  H  H317  1  0.003100  0.991600  0.410700  1
  H  H318  1  0.996900  0.991600  0.910700  1
  H  H319  1  0.503100  0.491600  0.910700  1
  H  H320  1  0.496900  0.491600  0.410700  1
  H  H321  1  0.416000  0.701200  0.572600  1
  H  H322  1  0.584000  0.701200  0.072600  1
  H  H323  1  0.916000  0.201200  0.072600  1
  H  H324  1  0.084000  0.201200  0.572600  1
  H  H325  1  0.414900  0.639300  0.547400  1
  H  H326  1  0.585100  0.639300  0.047400  1
  H  H327  1  0.914900  0.139300  0.047400  1
  H  H328  1  0.085100  0.139300  0.547400  1
  H  H329  1  0.299600  0.658600  0.613000  1
  H  H330  1  0.700400  0.658600  0.113000  1
  H  H331  1  0.799600  0.158600  0.113000  1
  H  H332  1  0.200400  0.158600  0.613000  1
  H  H333  1  0.391600  0.682600  0.647800  1
  H  H334  1  0.608400  0.682600  0.147800  1
  H  H335  1  0.891600  0.182600  0.147800  1
  H  H336  1  0.108400  0.182600  0.647800  1
  H  H337  1  0.388500  0.620700  0.622100  1
  H  H338  1  0.611500  0.620700  0.122100  1
  H  H339  1  0.888500  0.120700  0.122100  1
  H  H340  1  0.111500  0.120700  0.622100  1
  H  H341  1  0.667300  0.609900  0.616600  1
  H  H342  1  0.332700  0.609900  0.116600  1
  H  H343  1  0.167300  0.109900  0.116600  1
  H  H344  1  0.832700  0.109900  0.616600  1
  H  H345  1  0.552900  0.614100  0.635800  1
  H  H346  1  0.447100  0.614100  0.135800  1
  H  H347  1  0.052900  0.114100  0.135800  1
  H  H348  1  0.947100  0.114100  0.635800  1
  H  H349  1  0.586100  0.528800  0.590100  1
  H  H350  1  0.413900  0.528800  0.090100  1
  H  H351  1  0.086100  0.028800  0.090100  1
  H  H352  1  0.913900  0.028800  0.590100  1
  H  H353  1  0.613300  0.551100  0.546200  1
  H  H354  1  0.386700  0.551100  0.046200  1
  H  H355  1  0.113300  0.051100  0.046200  1
  H  H356  1  0.886700  0.051100  0.546200  1
  H  H357  1  0.498900  0.555100  0.565800  1
  H  H358  1  0.501100  0.555100  0.065800  1
  H  H359  1  0.998900  0.055100  0.065800  1
  H  H360  1  0.001100  0.055100  0.565800  1
  H  H361  1  0.557300  0.720700  0.656100  1
  H  H362  1  0.442700  0.720700  0.156100  1
  H  H363  1  0.057300  0.220700  0.156100  1
  H  H364  1  0.942700  0.220700  0.656100  1
  H  H365  1  0.674200  0.707300  0.643600  1
  H  H366  1  0.325800  0.707300  0.143600  1
  H  H367  1  0.174200  0.207300  0.143600  1
  H  H368  1  0.825800  0.207300  0.643600  1
  H  H369  1  0.643900  0.793200  0.651600  1
  H  H370  1  0.356100  0.793200  0.151600  1
  H  H371  1  0.143900  0.293200  0.151600  1
  H  H372  1  0.856100  0.293200  0.651600  1
  H  H373  1  0.557900  0.779100  0.611800  1
  H  H374  1  0.442100  0.779100  0.111800  1
  H  H375  1  0.057900  0.279100  0.111800  1
  H  H376  1  0.942100  0.279100  0.611800  1
  H  H377  1  0.674800  0.765200  0.598400  1
  H  H378  1  0.325200  0.765200  0.098400  1
  H  H379  1  0.174800  0.265200  0.098400  1
  H  H380  1  0.825200  0.265200  0.598400  1
  H  H381  1  0.932400  0.644600  0.478700  1
  H  H382  1  0.067600  0.644600  0.978700  1
  H  H383  1  0.432400  0.144600  0.978700  1
  H  H384  1  0.567600  0.144600  0.478700  1
  H  H385  1  0.933100  0.656400  0.428300  1
  H  H386  1  0.066900  0.656400  0.928300  1
  H  H387  1  0.433100  0.156400  0.928300  1
  H  H388  1  0.566900  0.156400  0.428300  1
  H  H389  1  0.981800  0.736100  0.487000  1
  H  H390  1  0.018200  0.736100  0.987000  1
  H  H391  1  0.481800  0.236100  0.987000  1
  H  H392  1  0.518200  0.236100  0.487000  1
  H  H393  1  0.877700  0.734800  0.515000  1
  H  H394  1  0.122300  0.734800  0.015000  1
  H  H395  1  0.377700  0.234800  0.015000  1
  H  H396  1  0.622300  0.234800  0.515000  1
  H  H397  1  0.875400  0.746700  0.464600  1
  H  H398  1  0.124600  0.746700  0.964600  1
  H  H399  1  0.375400  0.246700  0.964600  1
  H  H400  1  0.624600  0.246700  0.464600  1
  H  H401  1  0.650500  0.660400  0.397100  1
  H  H402  1  0.349500  0.660400  0.897100  1
  H  H403  1  0.150500  0.160400  0.897100  1
  H  H404  1  0.849500  0.160400  0.397100  1
  H  H405  1  0.723800  0.710100  0.415100  1
  H  H406  1  0.276200  0.710100  0.915100  1
  H  H407  1  0.223800  0.210100  0.915100  1
  H  H408  1  0.776200  0.210100  0.415100  1
  H  H409  1  0.744500  0.673300  0.336000  1
  H  H410  1  0.255500  0.673300  0.836000  1
  H  H411  1  0.244500  0.173300  0.836000  1
  H  H412  1  0.755500  0.173300  0.336000  1
  H  H413  1  0.775900  0.618000  0.345000  1
  H  H414  1  0.224100  0.618000  0.845000  1
  H  H415  1  0.275900  0.118000  0.845000  1
  H  H416  1  0.724100  0.118000  0.345000  1
  H  H417  1  0.848600  0.668300  0.362800  1
  H  H418  1  0.151400  0.668300  0.862800  1
  H  H419  1  0.348600  0.168300  0.862800  1
  H  H420  1  0.651400  0.168300  0.362800  1
  H  H421  1  0.705100  0.561800  0.411300  1
  H  H422  1  0.294900  0.561800  0.911300  1
  H  H423  1  0.205100  0.061800  0.911300  1
  H  H424  1  0.794900  0.061800  0.411300  1
  H  H425  1  0.821300  0.567900  0.397100  1
  H  H426  1  0.178700  0.567900  0.897100  1
  H  H427  1  0.321300  0.067900  0.897100  1
  H  H428  1  0.678700  0.067900  0.397100  1
  H  H429  1  0.807700  0.505400  0.441500  1
  H  H430  1  0.192300  0.505400  0.941500  1
  H  H431  1  0.307700  0.005400  0.941500  1
  H  H432  1  0.692300  0.005400  0.441500  1
  H  H433  1  0.760700  0.549800  0.484500  1
  H  H434  1  0.239300  0.549800  0.984500  1
  H  H435  1  0.260700  0.049800  0.984500  1
  H  H436  1  0.739300  0.049800  0.484500  1
  H  H437  1  0.876600  0.554200  0.469000  1
  H  H438  1  0.123400  0.554200  0.969000  1
  H  H439  1  0.376600  0.054200  0.969000  1
  H  H440  1  0.623400  0.054200  0.469000  1
  H  H441  1  0.241600  0.406500  0.569600  1
  H  H442  1  0.758400  0.406500  0.069600  1
  H  H443  1  0.741600  0.906500  0.069600  1
  H  H444  1  0.258400  0.906500  0.569600  1
  H  H445  1  0.207300  0.433800  0.622700  1
  H  H446  1  0.792700  0.433800  0.122700  1
  H  H447  1  0.707300  0.933800  0.122700  1
  H  H448  1  0.292700  0.933800  0.622700  1
  H  H449  1  0.931400  0.823600  0.642500  1
  H  H450  1  0.068600  0.823600  0.142500  1
  H  H451  1  0.431400  0.323600  0.142500  1
  H  H452  1  0.568600  0.323600  0.642500  1
  H  H453  1  0.981700  0.835200  0.596800  1
  H  H454  1  0.018300  0.835200  0.096800  1
  H  H455  1  0.481700  0.335200  0.096800  1
  H  H456  1  0.518300  0.335200  0.596800  1
  H  H457  1  0.964800  0.793300  0.406800  1
  H  H458  1  0.035200  0.793300  0.906800  1
  H  H459  1  0.464800  0.293300  0.906800  1
  H  H460  1  0.535200  0.293300  0.406800  1
  H  H461  1  0.888100  0.826000  0.445900  1
  H  H462  1  0.111900  0.826000  0.945900  1
  H  H463  1  0.388100  0.326000  0.945900  1
  H  H464  1  0.611900  0.326000  0.445900  1
  H  H465  1  0.793900  0.788300  0.377700  1
  H  H466  1  0.206100  0.788300  0.877700  1
  H  H467  1  0.293900  0.288300  0.877700  1
  H  H468  1  0.706100  0.288300  0.377700  1
  H  H469  1  0.867700  0.814400  0.347000  1
  H  H470  1  0.132300  0.814400  0.847000  1
  H  H471  1  0.367700  0.314400  0.847000  1
  H  H472  1  0.632300  0.314400  0.347000  1
  H  H473  1  0.793800  0.850900  0.385300  1
  H  H474  1  0.206200  0.850900  0.885300  1
  H  H475  1  0.293800  0.350900  0.885300  1
  H  H476  1  0.706200  0.350900  0.385300  1
  H  H477  1  0.131000  0.860700  0.465900  1
  H  H478  1  0.869000  0.860700  0.965900  1
  H  H479  1  0.631000  0.360700  0.965900  1
  H  H480  1  0.369000  0.360700  0.465900  1
  H  H481  1  0.119300  0.923900  0.477900  1
  H  H482  1  0.880700  0.923900  0.977900  1
  H  H483  1  0.619300  0.423900  0.977900  1
  H  H484  1  0.380700  0.423900  0.477900  1
  H  H485  1  0.054300  0.884300  0.539600  1
  H  H486  1  0.945700  0.884300  0.039600  1
  H  H487  1  0.554300  0.384300  0.039600  1
  H  H488  1  0.445700  0.384300  0.539600  1
  H  H489  1  0.963100  0.860400  0.504300  1
  H  H490  1  0.036900  0.860400  0.004300  1
  H  H491  1  0.463100  0.360400  0.004300  1
  H  H492  1  0.536900  0.360400  0.504300  1
  H  H493  1  0.975700  0.923000  0.524000  1
  H  H494  1  0.024300  0.923000  0.024000  1
  H  H495  1  0.475700  0.423000  0.024000  1
  H  H496  1  0.524300  0.423000  0.524000  1
  H  H497  1  0.871000  0.935500  0.403800  1
  H  H498  1  0.129000  0.935500  0.903800  1
  H  H499  1  0.371000  0.435500  0.903800  1
  H  H500  1  0.629000  0.435500  0.403800  1
  H  H501  1  0.874100  0.942400  0.459200  1
  H  H502  1  0.125900  0.942400  0.959200  1
  H  H503  1  0.374100  0.442400  0.959200  1
  H  H504  1  0.625900  0.442400  0.459200  1
  H  H505  1  0.926600  0.021900  0.444500  1
  H  H506  1  0.073400  0.021900  0.944500  1
  H  H507  1  0.426600  0.521900  0.944500  1
  H  H508  1  0.573400  0.521900  0.444500  1
  H  H509  1  0.013600  0.992000  0.409400  1
  H  H510  1  0.986400  0.992000  0.909400  1
  H  H511  1  0.513600  0.492000  0.909400  1
  H  H512  1  0.486400  0.492000  0.409400  1
  H  H513  1  0.022600  0.997100  0.464400  1
  H  H514  1  0.977400  0.997100  0.964400  1
  H  H515  1  0.522600  0.497100  0.964400  1
  H  H516  1  0.477400  0.497100  0.464400  1
  H  H517  1  0.819600  0.001300  0.191100  1
  H  H518  1  0.180400  0.001300  0.691100  1
  H  H519  1  0.319600  0.501300  0.691100  1
  H  H520  1  0.680400  0.501300  0.191100  1
  H  H521  1  0.934500  0.070400  0.194800  1
  H  H522  1  0.065500  0.070400  0.694800  1
  H  H523  1  0.434500  0.570400  0.694800  1
  H  H524  1  0.565500  0.570400  0.194800  1
  H  H525  1  0.024100  0.107500  0.264300  1
  H  H526  1  0.975900  0.107500  0.764300  1
  H  H527  1  0.524100  0.607500  0.764300  1
  H  H528  1  0.475900  0.607500  0.264300  1
  H  H529  1  0.998700  0.075500  0.330100  1
  H  H530  1  0.001300  0.075500  0.830100  1
  H  H531  1  0.498700  0.575500  0.830100  1
  H  H532  1  0.501300  0.575500  0.330100  1
  H  H533  1  0.883800  0.006400  0.326400  1
  H  H534  1  0.116200  0.006400  0.826400  1
  H  H535  1  0.383800  0.506400  0.826400  1
  H  H536  1  0.616200  0.506400  0.326400  1
  H  H537  1  0.104600  0.582700  0.664700  1
  H  H538  1  0.895400  0.582700  0.164700  1
  H  H539  1  0.604600  0.082700  0.164700  1
  H  H540  1  0.395400  0.082700  0.664700  1
  H  H541  1  0.253300  0.599300  0.710100  1
  H  H542  1  0.746700  0.599300  0.210100  1
  H  H543  1  0.753300  0.099300  0.210100  1
  H  H544  1  0.246700  0.099300  0.710100  1
  H  H545  1  0.290800  0.685200  0.754400  1
  H  H546  1  0.709200  0.685200  0.254400  1
  H  H547  1  0.790800  0.185200  0.254400  1
  H  H548  1  0.209200  0.185200  0.754400  1
  H  H549  1  0.179600  0.754500  0.753400  1
  H  H550  1  0.820400  0.754500  0.253400  1
  H  H551  1  0.679600  0.254500  0.253400  1
  H  H552  1  0.320400  0.254500  0.753400  1
  H  H553  1  0.030900  0.738000  0.708000  1
  H  H554  1  0.969100  0.738000  0.208000  1
  H  H555  1  0.530900  0.238000  0.208000  1
  H  H556  1  0.469100  0.238000  0.708000  1
  Pt  Pt557  1  0.097330  0.881500  0.357100  1
  Pt  Pt558  1  0.902670  0.881500  0.857100  1
  Pt  Pt559  1  0.597330  0.381500  0.857100  1
  Pt  Pt560  1  0.402670  0.381500  0.357100  1
  Pt  Pt561  1  0.666660  0.659060  0.516400  1
  Pt  Pt562  1  0.333340  0.659060  0.016400  1
  Pt  Pt563  1  0.166660  0.159060  0.016400  1
  Pt  Pt564  1  0.833340  0.159060  0.516400  1
  C  C565  1  0.975200  0.892000  0.322000  1
  C  C566  1  0.024800  0.892000  0.822000  1
  C  C567  1  0.475200  0.392000  0.822000  1
  C  C568  1  0.524800  0.392000  0.322000  1
  C  C569  1  0.897100  0.901700  0.301600  1
  C  C570  1  0.102900  0.901700  0.801600  1
  C  C571  1  0.397100  0.401700  0.801600  1
  C  C572  1  0.602900  0.401700  0.301600  1
  C  C573  1  0.803600  0.911100  0.280200  1
  C  C574  1  0.196400  0.911100  0.780200  1
  C  C575  1  0.303600  0.411100  0.780200  1
  C  C576  1  0.696400  0.411100  0.280200  1
  C  C577  1  0.783800  0.953300  0.264200  1
  C  C578  1  0.216200  0.953300  0.764200  1
  C  C579  1  0.283800  0.453300  0.764200  1
  C  C580  1  0.716200  0.453300  0.264200  1
  C  C581  1  0.729300  0.870700  0.280600  1
  C  C582  1  0.270700  0.870700  0.780600  1
  C  C583  1  0.229300  0.370700  0.780600  1
  C  C584  1  0.770700  0.370700  0.280600  1
  C  C585  1  0.670400  0.836500  0.284100  1
  C  C586  1  0.329600  0.836500  0.784100  1
  C  C587  1  0.170400  0.336500  0.784100  1
  C  C588  1  0.829600  0.336500  0.284100  1
  C  C589  1  0.543200  0.774600  0.242000  1
  C  C590  1  0.456800  0.774600  0.742000  1
  C  C591  1  0.043200  0.274600  0.742000  1
  C  C592  1  0.956800  0.274600  0.242000  1
  C  C593  1  0.595000  0.796800  0.284500  1
  C  C594  1  0.405000  0.796800  0.784500  1
  C  C595  1  0.095000  0.296800  0.784500  1
  C  C596  1  0.905000  0.296800  0.284500  1
  C  C597  1  0.570000  0.779100  0.323100  1
  C  C598  1  0.430000  0.779100  0.823100  1
  C  C599  1  0.070000  0.279100  0.823100  1
  C  C600  1  0.930000  0.279100  0.323100  1
  C  C601  1  0.492500  0.743400  0.319900  1
  C  C602  1  0.507500  0.743400  0.819900  1
  C  C603  1  0.992500  0.243400  0.819900  1
  C  C604  1  0.007500  0.243400  0.319900  1
  C  C605  1  0.446100  0.724500  0.276800  1
  C  C606  1  0.553900  0.724500  0.776800  1
  C  C607  1  0.946100  0.224500  0.776800  1
  C  C608  1  0.053900  0.224500  0.276800  1
  C  C609  1  0.461900  0.723700  0.358000  1
  C  C610  1  0.538100  0.723700  0.858000  1
  C  C611  1  0.961900  0.223700  0.858000  1
  C  C612  1  0.038100  0.223700  0.358000  1
  C  C613  1  0.429800  0.703100  0.386600  1
  C  C614  1  0.570200  0.703100  0.886600  1
  C  C615  1  0.929800  0.203100  0.886600  1
  C  C616  1  0.070200  0.203100  0.386600  1
  C  C617  1  0.393000  0.676000  0.422200  1
  C  C618  1  0.607000  0.676000  0.922200  1
  C  C619  1  0.893000  0.176000  0.922200  1
  C  C620  1  0.107000  0.176000  0.422200  1
  C  C621  1  0.296000  0.659100  0.421600  1
  C  C622  1  0.704000  0.659100  0.921600  1
  C  C623  1  0.796000  0.159100  0.921600  1
  C  C624  1  0.204000  0.159100  0.421600  1
  C  C625  1  0.471900  0.668500  0.454500  1
  C  C626  1  0.528100  0.668500  0.954500  1
  C  C627  1  0.971900  0.168500  0.954500  1
  C  C628  1  0.028100  0.168500  0.454500  1
  C  C629  1  0.544700  0.664000  0.478500  1
  C  C630  1  0.455300  0.664000  0.978500  1
  C  C631  1  0.044700  0.164000  0.978500  1
  C  C632  1  0.955300  0.164000  0.478500  1
  C  C633  1  0.790500  0.657700  0.557300  1
  C  C634  1  0.209500  0.657700  0.057300  1
  C  C635  1  0.290500  0.157700  0.057300  1
  C  C636  1  0.709500  0.157700  0.557300  1
  C  C637  1  0.858600  0.661000  0.583100  1
  C  C638  1  0.141400  0.661000  0.083100  1
  C  C639  1  0.358600  0.161000  0.083100  1
  C  C640  1  0.641400  0.161000  0.583100  1
  C  C641  1  0.944800  0.670100  0.615200  1
  C  C642  1  0.055200  0.670100  0.115200  1
  C  C643  1  0.444800  0.170100  0.115200  1
  C  C644  1  0.555200  0.170100  0.615200  1
  C  C645  1  0.956400  0.650000  0.652700  1
  C  C646  1  0.043600  0.650000  0.152700  1
  C  C647  1  0.456400  0.150000  0.152700  1
  C  C648  1  0.543600  0.150000  0.652700  1
  C  C649  1  0.025800  0.702100  0.604600  1
  C  C650  1  0.974200  0.702100  0.104600  1
  C  C651  1  0.525800  0.202100  0.104600  1
  C  C652  1  0.474200  0.202100  0.604600  1
  C  C653  1  0.094900  0.727500  0.596200  1
  C  C654  1  0.905100  0.727500  0.096200  1
  C  C655  1  0.594900  0.227500  0.096200  1
  C  C656  1  0.405100  0.227500  0.596200  1
  C  C657  1  0.251400  0.772100  0.628000  1
  C  C658  1  0.748600  0.772100  0.128000  1
  C  C659  1  0.751400  0.272100  0.128000  1
  C  C660  1  0.248600  0.272100  0.628000  1
  C  C661  1  0.185200  0.757600  0.591300  1
  C  C662  1  0.814800  0.757600  0.091300  1
  C  C663  1  0.685200  0.257600  0.091300  1
  C  C664  1  0.314800  0.257600  0.591300  1
  C  C665  1  0.209400  0.767600  0.549200  1
  C  C666  1  0.790600  0.767600  0.049200  1
  C  C667  1  0.709400  0.267600  0.049200  1
  C  C668  1  0.290600  0.267600  0.549200  1
  C  C669  1  0.300600  0.795000  0.546300  1
  C  C670  1  0.699400  0.795000  0.046300  1
  C  C671  1  0.800600  0.295000  0.046300  1
  C  C672  1  0.199400  0.295000  0.546300  1
  C  C673  1  0.362300  0.809000  0.586600  1
  C  C674  1  0.637700  0.809000  0.086600  1
  C  C675  1  0.862300  0.309000  0.086600  1
  C  C676  1  0.137700  0.309000  0.586600  1
  C  C677  1  0.329000  0.811800  0.505900  1
  C  C678  1  0.671000  0.811800  0.005900  1
  C  C679  1  0.829000  0.311800  0.005900  1
  C  C680  1  0.171000  0.311800  0.505900  1
  C  C681  1  0.358200  0.831400  0.476000  1
  C  C682  1  0.641800  0.831400  0.976000  1
  C  C683  1  0.858200  0.331400  0.976000  1
  C  C684  1  0.141800  0.331400  0.476000  1
  C  C685  1  0.380000  0.860000  0.443300  1
  C  C686  1  0.620000  0.860000  0.943300  1
  C  C687  1  0.880000  0.360000  0.943300  1
  C  C688  1  0.120000  0.360000  0.443300  1
  C  C689  1  0.475900  0.882700  0.441700  1
  C  C690  1  0.524100  0.882700  0.941700  1
  C  C691  1  0.975900  0.382700  0.941700  1
  C  C692  1  0.024100  0.382700  0.441700  1
  C  C693  1  0.296000  0.867900  0.414600  1
  C  C694  1  0.704000  0.867900  0.914600  1
  C  C695  1  0.796000  0.367900  0.914600  1
  C  C696  1  0.204000  0.367900  0.414600  1
  C  C697  1  0.221200  0.871700  0.393900  1
  C  C698  1  0.778800  0.871700  0.893900  1
  C  C699  1  0.721200  0.371700  0.893900  1
  C  C700  1  0.278800  0.371700  0.393900  1
  C  C701  1  0.858200  0.998200  0.272500  1
  C  C702  1  0.141800  0.998200  0.772500  1
  C  C703  1  0.358200  0.498200  0.772500  1
  C  C704  1  0.641800  0.498200  0.272500  1
  C  C705  1  0.883500  0.022000  0.236300  1
  C  C706  1  0.116500  0.022000  0.736300  1
  C  C707  1  0.383500  0.522000  0.736300  1
  C  C708  1  0.616500  0.522000  0.236300  1
  C  C709  1  0.948400  0.061800  0.243300  1
  C  C710  1  0.051600  0.061800  0.743300  1
  C  C711  1  0.448400  0.561800  0.743300  1
  C  C712  1  0.551600  0.561800  0.243300  1
  C  C713  1  0.987600  0.083300  0.285400  1
  C  C714  1  0.012400  0.083300  0.785400  1
  C  C715  1  0.487600  0.583300  0.785400  1
  C  C716  1  0.512400  0.583300  0.285400  1
  C  C717  1  0.964900  0.063600  0.323900  1
  C  C718  1  0.035100  0.063600  0.823900  1
  C  C719  1  0.464900  0.563600  0.823900  1
  C  C720  1  0.535100  0.563600  0.323900  1
  C  C721  1  0.898500  0.019700  0.316000  1
  C  C722  1  0.101500  0.019700  0.816000  1
  C  C723  1  0.398500  0.519700  0.816000  1
  C  C724  1  0.601500  0.519700  0.316000  1
  C  C725  1  0.687400  0.959000  0.239700  1
  C  C726  1  0.312600  0.959000  0.739700  1
  C  C727  1  0.187400  0.459000  0.739700  1
  C  C728  1  0.812600  0.459000  0.239700  1
  C  C729  1  0.635400  0.007500  0.250100  1
  C  C730  1  0.364600  0.007500  0.750100  1
  C  C731  1  0.135400  0.507500  0.750100  1
  C  C732  1  0.864600  0.507500  0.250100  1
  C  C733  1  0.544400  0.013200  0.230900  1
  C  C734  1  0.455600  0.013200  0.730900  1
  C  C735  1  0.044400  0.513200  0.730900  1
  C  C736  1  0.955600  0.513200  0.230900  1
  C  C737  1  0.507100  0.972200  0.195600  1
  C  C738  1  0.492900  0.972200  0.695600  1
  C  C739  1  0.007100  0.472200  0.695600  1
  C  C740  1  0.992900  0.472200  0.195600  1
  C  C741  1  0.557800  0.920900  0.182500  1
  C  C742  1  0.442200  0.920900  0.682500  1
  C  C743  1  0.057800  0.420900  0.682500  1
  C  C744  1  0.942200  0.420900  0.182500  1
  C  C745  1  0.647000  0.915600  0.206000  1
  C  C746  1  0.353000  0.915600  0.706000  1
  C  C747  1  0.147000  0.415600  0.706000  1
  C  C748  1  0.853000  0.415600  0.206000  1
  C  C749  1  0.217100  0.670900  0.390000  1
  C  C750  1  0.782900  0.670900  0.890000  1
  C  C751  1  0.717100  0.170900  0.890000  1
  C  C752  1  0.282900  0.170900  0.390000  1
  C  C753  1  0.202700  0.722200  0.385900  1
  C  C754  1  0.797300  0.722200  0.885900  1
  C  C755  1  0.702700  0.222200  0.885900  1
  C  C756  1  0.297300  0.222200  0.385900  1
  C  C757  1  0.129500  0.733100  0.356400  1
  C  C758  1  0.870500  0.733100  0.856400  1
  C  C759  1  0.629500  0.233100  0.856400  1
  C  C760  1  0.370500  0.233100  0.356400  1
  C  C761  1  0.066600  0.693800  0.330400  1
  C  C762  1  0.933400  0.693800  0.830400  1
  C  C763  1  0.566600  0.193800  0.830400  1
  C  C764  1  0.433400  0.193800  0.330400  1
  C  C765  1  0.080100  0.643500  0.334900  1
  C  C766  1  0.919900  0.643500  0.834900  1
  C  C767  1  0.580100  0.143500  0.834900  1
  C  C768  1  0.419900  0.143500  0.334900  1
  C  C769  1  0.153600  0.632900  0.364200  1
  C  C770  1  0.846400  0.632900  0.864200  1
  C  C771  1  0.653600  0.132900  0.864200  1
  C  C772  1  0.346400  0.132900  0.364200  1
  C  C773  1  0.263700  0.628400  0.453100  1
  C  C774  1  0.736300  0.628400  0.953100  1
  C  C775  1  0.763700  0.128400  0.953100  1
  C  C776  1  0.236300  0.128400  0.453100  1
  C  C777  1  0.320500  0.586000  0.459900  1
  C  C778  1  0.679500  0.586000  0.959900  1
  C  C779  1  0.820500  0.086000  0.959900  1
  C  C780  1  0.179500  0.086000  0.459900  1
  C  C781  1  0.285400  0.557200  0.490100  1
  C  C782  1  0.714600  0.557200  0.990100  1
  C  C783  1  0.785400  0.057200  0.990100  1
  C  C784  1  0.214600  0.057200  0.490100  1
  C  C785  1  0.197000  0.569400  0.515200  1
  C  C786  1  0.803000  0.569400  0.015200  1
  C  C787  1  0.697000  0.069400  0.015200  1
  C  C788  1  0.303000  0.069400  0.515200  1
  C  C789  1  0.137500  0.609600  0.508900  1
  C  C790  1  0.862500  0.609600  0.008900  1
  C  C791  1  0.637500  0.109600  0.008900  1
  C  C792  1  0.362500  0.109600  0.508900  1
  C  C793  1  0.170700  0.639000  0.476400  1
  C  C794  1  0.829300  0.639000  0.976400  1
  C  C795  1  0.670700  0.139000  0.976400  1
  C  C796  1  0.329300  0.139000  0.476400  1
  C  C797  1  0.881100  0.613000  0.664200  1
  C  C798  1  0.118900  0.613000  0.164200  1
  C  C799  1  0.381100  0.113000  0.164200  1
  C  C800  1  0.618900  0.113000  0.664200  1
  C  C801  1  0.854800  0.565400  0.629900  1
  C  C802  1  0.145200  0.565400  0.129900  1
  C  C803  1  0.354800  0.065400  0.129900  1
  C  C804  1  0.645200  0.065400  0.629900  1
  C  C805  1  0.785700  0.531500  0.644800  1
  C  C806  1  0.214300  0.531500  0.144800  1
  C  C807  1  0.285700  0.031500  0.144800  1
  C  C808  1  0.714300  0.031500  0.644800  1
  C  C809  1  0.745000  0.542500  0.689900  1
  C  C810  1  0.255000  0.542500  0.189900  1
  C  C811  1  0.245000  0.042500  0.189900  1
  C  C812  1  0.755000  0.042500  0.689900  1
  C  C813  1  0.771200  0.588000  0.720200  1
  C  C814  1  0.228800  0.588000  0.220200  1
  C  C815  1  0.271200  0.088000  0.220200  1
  C  C816  1  0.728800  0.088000  0.720200  1
  C  C817  1  0.838800  0.622700  0.708900  1
  C  C818  1  0.161200  0.622700  0.208900  1
  C  C819  1  0.338800  0.122700  0.208900  1
  C  C820  1  0.661200  0.122700  0.708900  1
  C  C821  1  0.038900  0.668800  0.686500  1
  C  C822  1  0.961100  0.668800  0.186500  1
  C  C823  1  0.538900  0.168800  0.186500  1
  C  C824  1  0.461100  0.168800  0.686500  1
  C  C825  1  0.101300  0.632100  0.698600  1
  C  C826  1  0.898700  0.632100  0.198600  1
  C  C827  1  0.601300  0.132100  0.198600  1
  C  C828  1  0.398700  0.132100  0.698600  1
  C  C829  1  0.180100  0.645600  0.728800  1
  C  C830  1  0.819900  0.645600  0.228800  1
  C  C831  1  0.680100  0.145600  0.228800  1
  C  C832  1  0.319900  0.145600  0.728800  1
  C  C833  1  0.200800  0.699300  0.747100  1
  C  C834  1  0.799200  0.699300  0.247100  1
  C  C835  1  0.700800  0.199300  0.247100  1
  C  C836  1  0.299200  0.199300  0.747100  1
  C  C837  1  0.140300  0.736900  0.740400  1
  C  C838  1  0.859700  0.736900  0.240400  1
  C  C839  1  0.640300  0.236900  0.240400  1
  C  C840  1  0.359700  0.236900  0.740400  1
  C  C841  1  0.057000  0.722800  0.708000  1
  C  C842  1  0.943000  0.722800  0.208000  1
  C  C843  1  0.557000  0.222800  0.208000  1
  C  C844  1  0.443000  0.222800  0.708000  1
  C  C845  1  0.560800  0.870300  0.469200  1
  C  C846  1  0.439200  0.870300  0.969200  1
  C  C847  1  0.060800  0.370300  0.969200  1
  C  C848  1  0.939200  0.370300  0.469200  1
  C  C849  1  0.580500  0.819600  0.473100  1
  C  C850  1  0.419500  0.819600  0.973100  1
  C  C851  1  0.080500  0.319600  0.973100  1
  C  C852  1  0.919500  0.319600  0.473100  1
  C  C853  1  0.655900  0.810200  0.502200  1
  C  C854  1  0.344100  0.810200  0.002200  1
  C  C855  1  0.155900  0.310200  0.002200  1
  C  C856  1  0.844100  0.310200  0.502200  1
  C  C857  1  0.717800  0.849800  0.527600  1
  C  C858  1  0.282200  0.849800  0.027600  1
  C  C859  1  0.217800  0.349800  0.027600  1
  C  C860  1  0.782200  0.349800  0.527600  1
  C  C861  1  0.703400  0.902100  0.523800  1
  C  C862  1  0.296600  0.902100  0.023800  1
  C  C863  1  0.203400  0.402100  0.023800  1
  C  C864  1  0.796600  0.402100  0.523800  1
  C  C865  1  0.627900  0.911500  0.494600  1
  C  C866  1  0.372100  0.911500  0.994600  1
  C  C867  1  0.127900  0.411500  0.994600  1
  C  C868  1  0.872100  0.411500  0.494600  1
  C  C869  1  0.488300  0.925100  0.416600  1
  C  C870  1  0.511700  0.925100  0.916600  1
  C  C871  1  0.988300  0.425100  0.916600  1
  C  C872  1  0.011700  0.425100  0.416600  1
  C  C873  1  0.421000  0.966600  0.425000  1
  C  C874  1  0.579000  0.966600  0.925000  1
  C  C875  1  0.921000  0.466600  0.925000  1
  C  C876  1  0.079000  0.466600  0.425000  1
  C  C877  1  0.429700  0.005000  0.401400  1
  C  C878  1  0.570300  0.005000  0.901400  1
  C  C879  1  0.929700  0.505000  0.901400  1
  C  C880  1  0.070300  0.505000  0.401400  1
  C  C881  1  0.503600  0.001100  0.367100  1
  C  C882  1  0.496400  0.001100  0.867100  1
  C  C883  1  0.003600  0.501100  0.867100  1
  C  C884  1  0.996400  0.501100  0.367100  1
  C  C885  1  0.570900  0.960300  0.358300  1
  C  C886  1  0.429100  0.960300  0.858300  1
  C  C887  1  0.070900  0.460300  0.858300  1
  C  C888  1  0.929100  0.460300  0.358300  1
  C  C889  1  0.566300  0.920700  0.383000  1
  C  C890  1  0.433700  0.920700  0.883000  1
  C  C891  1  0.066300  0.420700  0.883000  1
  C  C892  1  0.933700  0.420700  0.383000  1
  C  C893  1  0.329300  0.882800  0.300200  1
  C  C894  1  0.670700  0.882800  0.800200  1
  C  C895  1  0.829300  0.382800  0.800200  1
  C  C896  1  0.170700  0.382800  0.300200  1
  C  C897  1  0.393700  0.891100  0.260800  1
  C  C898  1  0.606300  0.891100  0.760800  1
  C  C899  1  0.893700  0.391100  0.760800  1
  C  C900  1  0.106300  0.391100  0.260800  1
  C  C901  1  0.160300  0.836800  0.239900  1
  C  C902  1  0.839700  0.836800  0.739900  1
  C  C903  1  0.660300  0.336800  0.739900  1
  C  C904  1  0.339700  0.336800  0.239900  1
  C  C905  1  0.190500  0.784100  0.240100  1
  C  C906  1  0.809500  0.784100  0.740100  1
  C  C907  1  0.690500  0.284100  0.740100  1
  C  C908  1  0.309500  0.284100  0.240100  1
  C  C909  1  0.170500  0.948200  0.279800  1
  C  C910  1  0.829500  0.948200  0.779800  1
  C  C911  1  0.670500  0.448200  0.779800  1
  C  C912  1  0.329500  0.448200  0.279800  1
  C  C913  1  0.206200  0.995100  0.315600  1
  C  C914  1  0.793800  0.995100  0.815600  1
  C  C915  1  0.706200  0.495100  0.815600  1
  C  C916  1  0.293800  0.495100  0.315600  1
  C  C917  1  0.869400  0.858800  0.410500  1
  C  C918  1  0.130600  0.858800  0.910500  1
  C  C919  1  0.369400  0.358800  0.910500  1
  C  C920  1  0.630600  0.358800  0.410500  1
  C  C921  1  0.867600  0.802700  0.377400  1
  C  C922  1  0.132400  0.802700  0.877400  1
  C  C923  1  0.367600  0.302700  0.877400  1
  C  C924  1  0.632400  0.302700  0.377400  1
  C  C925  1  0.049800  0.845100  0.460700  1
  C  C926  1  0.950200  0.845100  0.960700  1
  C  C927  1  0.549800  0.345100  0.960700  1
  C  C928  1  0.450200  0.345100  0.460700  1
  C  C929  1  0.002800  0.857400  0.507500  1
  C  C930  1  0.997200  0.857400  0.007500  1
  C  C931  1  0.502800  0.357400  0.007500  1
  C  C932  1  0.497200  0.357400  0.507500  1
  C  C933  1  0.984700  0.950200  0.461100  1
  C  C934  1  0.015300  0.950200  0.961100  1
  C  C935  1  0.484700  0.450200  0.961100  1
  C  C936  1  0.515300  0.450200  0.461100  1
  C  C937  1  0.952000  0.990600  0.434600  1
  C  C938  1  0.048000  0.990600  0.934600  1
  C  C939  1  0.452000  0.490600  0.934600  1
  C  C940  1  0.548000  0.490600  0.434600  1
  C  C941  1  0.435000  0.666200  0.576400  1
  C  C942  1  0.565000  0.666200  0.076400  1
  C  C943  1  0.935000  0.166200  0.076400  1
  C  C944  1  0.065000  0.166200  0.576400  1
  C  C945  1  0.372800  0.656100  0.618800  1
  C  C946  1  0.627200  0.656100  0.118800  1
  C  C947  1  0.872800  0.156100  0.118800  1
  C  C948  1  0.127200  0.156100  0.618800  1
  C  C949  1  0.594800  0.609400  0.607100  1
  C  C950  1  0.405200  0.609400  0.107100  1
  C  C951  1  0.094800  0.109400  0.107100  1
  C  C952  1  0.905200  0.109400  0.607100  1
  C  C953  1  0.571200  0.556500  0.574500  1
  C  C954  1  0.428800  0.556500  0.074500  1
  C  C955  1  0.071200  0.056500  0.074500  1
  C  C956  1  0.928800  0.056500  0.574500  1
  C  C957  1  0.609200  0.717100  0.631100  1
  C  C958  1  0.390800  0.717100  0.131100  1
  C  C959  1  0.109200  0.217100  0.131100  1
  C  C960  1  0.890800  0.217100  0.631100  1
  C  C961  1  0.622500  0.767600  0.622600  1
  C  C962  1  0.377500  0.767600  0.122600  1
  C  C963  1  0.122500  0.267600  0.122600  1
  C  C964  1  0.877500  0.267600  0.622600  1
  C  C965  1  0.898300  0.664800  0.459100  1
  C  C966  1  0.101700  0.664800  0.959100  1
  C  C967  1  0.398300  0.164800  0.959100  1
  C  C968  1  0.601700  0.164800  0.459100  1
  C  C969  1  0.909400  0.726500  0.483800  1
  C  C970  1  0.090600  0.726500  0.983800  1
  C  C971  1  0.409400  0.226500  0.983800  1
  C  C972  1  0.590600  0.226500  0.483800  1
  C  C973  1  0.722700  0.671100  0.403400  1
  C  C974  1  0.277300  0.671100  0.903400  1
  C  C975  1  0.222700  0.171100  0.903400  1
  C  C976  1  0.777300  0.171100  0.403400  1
  C  C977  1  0.777600  0.656400  0.357900  1
  C  C978  1  0.222400  0.656400  0.857900  1
  C  C979  1  0.277600  0.156400  0.857900  1
  C  C980  1  0.722400  0.156400  0.357900  1
  C  C981  1  0.773200  0.574500  0.423800  1
  C  C982  1  0.226800  0.574500  0.923800  1
  C  C983  1  0.273200  0.074500  0.923800  1
  C  C984  1  0.726800  0.074500  0.423800  1
  C  C985  1  0.807600  0.543200  0.457700  1
  C  C986  1  0.192400  0.543200  0.957700  1
  C  C987  1  0.307600  0.043200  0.957700  1
  C  C988  1  0.692400  0.043200  0.457700  1
  C  C989  1  0.217400  0.439900  0.591300  1
  C  C990  1  0.782600  0.439900  0.091300  1
  C  C991  1  0.717400  0.939900  0.091300  1
  C  C992  1  0.282600  0.939900  0.591300  1
  C  C993  1  0.963600  0.851200  0.630100  1
  C  C994  1  0.036400  0.851200  0.130100  1
  C  C995  1  0.463600  0.351200  0.130100  1
  C  C996  1  0.536400  0.351200  0.630100  1
  C  C997  1  0.920300  0.824800  0.415400  1
  C  C998  1  0.079700  0.824800  0.915400  1
  C  C999  1  0.420300  0.324800  0.915400  1
  C  C1000  1  0.579700  0.324800  0.415400  1
  C  C1001  1  0.836000  0.819000  0.377900  1
  C  C1002  1  0.164000  0.819000  0.877900  1
  C  C1003  1  0.336000  0.319000  0.877900  1
  C  C1004  1  0.664000  0.319000  0.377900  1
  C  C1005  1  0.081300  0.890100  0.471700  1
  C  C1006  1  0.918700  0.890100  0.971700  1
  C  C1007  1  0.581300  0.390100  0.971700  1
  C  C1008  1  0.418700  0.390100  0.471700  1
  C  C1009  1  0.012000  0.889000  0.513700  1
  C  C1010  1  0.988000  0.889000  0.013700  1
  C  C1011  1  0.512000  0.389000  0.013700  1
  C  C1012  1  0.488000  0.389000  0.513700  1
  C  C1013  1  0.917000  0.940100  0.431100  1
  C  C1014  1  0.083000  0.940100  0.931100  1
  C  C1015  1  0.417000  0.440100  0.931100  1
  C  C1016  1  0.583000  0.440100  0.431100  1
  C  C1017  1  0.975000  0.992600  0.438000  1
  C  C1018  1  0.025000  0.992600  0.938000  1
  C  C1019  1  0.475000  0.492600  0.938000  1
  C  C1020  1  0.525000  0.492600  0.438000  1
  C  C1021  1  0.841000  0.997400  0.258400  1
  C  C1022  1  0.159000  0.997400  0.758400  1
  C  C1023  1  0.341000  0.497400  0.758400  1
  C  C1024  1  0.659000  0.497400  0.258400  1
  C  C1025  1  0.856000  0.016400  0.219300  1
  C  C1026  1  0.144000  0.016400  0.719300  1
  C  C1027  1  0.356000  0.516400  0.719300  1
  C  C1028  1  0.644000  0.516400  0.219300  1
  C  C1029  1  0.924000  0.057400  0.221500  1
  C  C1030  1  0.076000  0.057400  0.721500  1
  C  C1031  1  0.424000  0.557400  0.721500  1
  C  C1032  1  0.576000  0.557400  0.221500  1
  C  C1033  1  0.977000  0.079500  0.262800  1
  C  C1034  1  0.023000  0.079500  0.762800  1
  C  C1035  1  0.477000  0.579500  0.762800  1
  C  C1036  1  0.523000  0.579500  0.262800  1
  C  C1037  1  0.962000  0.060000  0.301900  1
  C  C1038  1  0.038000  0.060000  0.801900  1
  C  C1039  1  0.462000  0.560000  0.801900  1
  C  C1040  1  0.538000  0.560000  0.301900  1
  C  C1041  1  0.894000  0.019000  0.299700  1
  C  C1042  1  0.106000  0.019000  0.799700  1
  C  C1043  1  0.394000  0.519000  0.799700  1
  C  C1044  1  0.606000  0.519000  0.299700  1
  C  C1045  1  0.053700  0.658800  0.682100  1
  C  C1046  1  0.946300  0.658800  0.182100  1
  C  C1047  1  0.553700  0.158800  0.182100  1
  C  C1048  1  0.446300  0.158800  0.682100  1
  C  C1049  1  0.119800  0.617600  0.682700  1
  C  C1050  1  0.880200  0.617600  0.182700  1
  C  C1051  1  0.619800  0.117600  0.182700  1
  C  C1052  1  0.380200  0.117600  0.682700  1
  C  C1053  1  0.208100  0.627400  0.709700  1
  C  C1054  1  0.791900  0.627400  0.209700  1
  C  C1055  1  0.708100  0.127400  0.209700  1
  C  C1056  1  0.291900  0.127400  0.709700  1
  C  C1057  1  0.230400  0.678500  0.736000  1
  C  C1058  1  0.769600  0.678500  0.236000  1
  C  C1059  1  0.730400  0.178500  0.236000  1
  C  C1060  1  0.269600  0.178500  0.736000  1
  C  C1061  1  0.164400  0.719700  0.735400  1
  C  C1062  1  0.835600  0.719700  0.235400  1
  C  C1063  1  0.664400  0.219700  0.235400  1
  C  C1064  1  0.335600  0.219700  0.735400  1
  C  C1065  1  0.076000  0.709800  0.708400  1
  C  C1066  1  0.924000  0.709800  0.208400  1
  C  C1067  1  0.576000  0.209800  0.208400  1
  C  C1068  1  0.424000  0.209800  0.708400  1
  N  N1069  1  0.470600  0.738500  0.238300  1
  N  N1070  1  0.529400  0.738500  0.738300  1
  N  N1071  1  0.970600  0.238500  0.738300  1
  N  N1072  1  0.029400  0.238500  0.238300  1
  N  N1073  1  0.338600  0.796900  0.626100  1
  N  N1074  1  0.661400  0.796900  0.126100  1
  N  N1075  1  0.838600  0.296900  0.126100  1
  N  N1076  1  0.161400  0.296900  0.626100  1
  Cl  Cl1077  1  0.098700  0.459400  0.570300  1
  Cl  Cl1078  1  0.901300  0.459400  0.070300  1
  Cl  Cl1079  1  0.598700  0.959400  0.070300  1
  Cl  Cl1080  1  0.401300  0.959400  0.570300  1
  Cl  Cl1081  1  0.311100  0.490900  0.595000  1
  Cl  Cl1082  1  0.688900  0.490900  0.095000  1
  Cl  Cl1083  1  0.811100  0.990900  0.095000  1
  Cl  Cl1084  1  0.188900  0.990900  0.595000  1
  Cl  Cl1085  1  0.875600  0.904800  0.634300  1
  Cl  Cl1086  1  0.124400  0.904800  0.134300  1
  Cl  Cl1087  1  0.375600  0.404800  0.134300  1
  Cl  Cl1088  1  0.624400  0.404800  0.634300  1
  Cl  Cl1089  1  0.076900  0.875500  0.663200  1
  Cl  Cl1090  1  0.923100  0.875500  0.163200  1
  Cl  Cl1091  1  0.576900  0.375500  0.163200  1
  Cl  Cl1092  1  0.423100  0.375500  0.663200  1
