
#######################################################################
#
#                 Cambridge Crystallographic Data Centre
#                                CCDC 
#
#######################################################################
#
# If this CIF has been generated from an entry in the Cambridge 
# Structural Database, then it will include bibliographic, chemical, 
# crystal, experimental, refinement or atomic coordinate data resulting 
# from the CCDC's data processing and validation procedures.
#
#######################################################################

data_UDUGIK
_chemical_formula_moiety         'C100 H114 Cl2 N6 O4 P2 Pt1 Zn2'
_chemical_name_systematic        
'(\m~2~-1,2,4,5-tetrakis(N-(4,6-Di-t-butylsalicylidenealdiminato))benzene)-bis(\m~2~-diphenyl(3-pyridyl)phosphine-N,P)-dichloro-platinum-di-zinc(ii) unknown solvate'
_symmetry_cell_setting           triclinic
_symmetry_space_group_name_H-M   'P -1'
_symmetry_Int_Tables_number      2
_space_group_name_Hall           '-P 1'
loop_
_symmetry_equiv_pos_site_id
_symmetry_equiv_pos_as_xyz
1 x,y,z
2 -x,-y,-z
_cell_length_a                   17.390(2)
_cell_length_b                   18.1344(15)
_cell_length_c                   19.6577(19)
_cell_angle_alpha                115.297(7)
_cell_angle_beta                 96.581(11)
_cell_angle_gamma                92.182(9)
_cell_volume                     5541.58
_exptl_crystal_colour            orange
_exptl_crystal_description       block
_cell_formula_units_Z            2
loop_
_atom_site_label
_atom_site_type_symbol
_atom_site_fract_x
_atom_site_fract_y
_atom_site_fract_z
Pt1 Pt 0.381428(7) 0.383032(7) 0.386088(7)
Zn1 Zn 0.043112(19) 0.28533(2) 0.312477(19)
Zn2 Zn 0.30367(2) 0.57670(2) 0.18734(2)
Cl1 Cl 0.31743(5) 0.40806(5) 0.49178(4)
Cl2 Cl 0.37777(5) 0.52145(5) 0.41522(5)
P1 P 0.37523(5) 0.25211(5) 0.36961(5)
P2 P 0.44727(4) 0.36407(5) 0.28941(5)
O1 O -0.03214(12) 0.18914(12) 0.25044(11)
O2 O -0.00161(12) 0.31524(12) 0.40593(11)
O3 O 0.30935(14) 0.56349(14) 0.08467(13)
O4 O 0.32135(14) 0.69593(13) 0.23324(13)
N1 N 0.05991(14) 0.29964(14) 0.21657(13)
N2 N 0.10250(14) 0.40309(14) 0.36033(13)
N3 N 0.23194(14) 0.46654(15) 0.14044(14)
N4 N 0.25128(14) 0.58452(15) 0.28049(14)
N5 N 0.13813(14) 0.21991(14) 0.32654(13)
N6 N 0.41041(15) 0.54462(15) 0.22582(14)
C1 C -0.05850(17) 0.15680(18) 0.17913(17)
C2 C -0.11547(17) 0.08638(18) 0.14720(17)
C3 C -0.13787(18) 0.04845(19) 0.06936(18)
H1 H -0.1733 0.0004 0.0489
C4 C -0.11164(19) 0.0762(2) 0.01812(18)
C5 C -0.06234(19) 0.1462(2) 0.04933(18)
H2 H -0.0462 0.1686 0.0170
C6 C -0.03417(17) 0.18695(18) 0.12824(17)
C7 C 0.02034(17) 0.25669(18) 0.14998(17)
H3 H 0.0285 0.2734 0.1115
C8 C 0.11230(17) 0.36812(17) 0.23041(17)
C9 C 0.14354(17) 0.38112(18) 0.17474(17)
H4 H 0.1305 0.3420 0.1232
C10 C 0.19388(17) 0.45054(18) 0.19258(17)
C11 C 0.20832(17) 0.51112(18) 0.26914(17)
C12 C 0.17976(17) 0.49584(18) 0.32514(17)
H5 H 0.1922 0.5351 0.3767
C13 C 0.13336(17) 0.42441(17) 0.30776(17)
C14 C 0.12071(18) 0.44451(18) 0.43341(18)
H6 H 0.1577 0.4910 0.4508
C15 C 0.09085(18) 0.42733(18) 0.49029(17)
C16 C 0.12413(19) 0.4783(2) 0.56684(18)
H7 H 0.1639 0.5203 0.5762
C17 C 0.1016(2) 0.4696(2) 0.62679(18)
C18 C 0.04123(18) 0.4076(2) 0.60985(18)
H8 H 0.0239 0.4012 0.6513
C19 C 0.00564(18) 0.35592(19) 0.53789(18)
C20 C 0.03070(18) 0.36414(19) 0.47437(17)
C21 C 0.30914(19) 0.4953(2) 0.02365(19)
C22 C 0.27304(19) 0.4192(2) 0.01518(18)
C23 C 0.2711(2) 0.3479(2) -0.05323(19)
H9 H 0.2464 0.2981 -0.0577
C24 C 0.3034(2) 0.3477(2) -0.11367(19)
C25 C 0.3393(2) 0.4240(2) -0.1034(2)
H10 H 0.3624 0.4254 -0.1445
C26 C 0.3432(2) 0.4957(2) -0.03887(19)
C27 C 0.23546(19) 0.4100(2) 0.07223(18)
H11 H 0.2104 0.3573 0.0592
C28 C 0.26276(17) 0.64857(18) 0.34554(18)
H12 H 0.2478 0.6422 0.3879
C29 C 0.29586(17) 0.72809(18) 0.35947(18)
C30 C 0.32010(18) 0.74902(19) 0.3031(2)
C31 C 0.34296(18) 0.83361(19) 0.3240(2)
C32 C 0.34371(19) 0.8891(2) 0.3984(2)
H13 H 0.3597 0.9449 0.4119
C33 C 0.32258(19) 0.86949(19) 0.4561(2)
C34 C 0.29887(17) 0.78908(19) 0.43450(19)
H14 H 0.2837 0.7735 0.4718
C35 C -0.13845(18) 0.02848(19) -0.06754(19)
C36 C -0.2282(2) 0.0188(3) -0.0838(3)
H15 H -0.2490 -0.0122 -0.0584
H16 H -0.2451 -0.0107 -0.1387
H17 H -0.2475 0.0731 -0.0645
C37 C -0.1086(3) 0.0726(3) -0.1118(2)
H18 H -0.1304 0.1255 -0.0966
H19 H -0.1244 0.0390 -0.1664
H20 H -0.0517 0.0818 -0.1008
C38 C -0.1082(3) -0.0558(3) -0.0940(3)
H21 H -0.0514 -0.0498 -0.0898
H22 H -0.1305 -0.0900 -0.1471
H23 H -0.1233 -0.0816 -0.0621
C42 C 0.1392(2) 0.5241(3) 0.7079(2)
C43 C 0.2270(3) 0.5248(6) 0.7155(5)
H33 H 0.2419 0.4729 0.7147
H34 H 0.2504 0.5703 0.7636
H35 H 0.2454 0.5316 0.6730
C44 C 0.0904(6) 0.5261(7) 0.7674(5)
H36 H 0.0353 0.5231 0.7483
H37 H 0.1049 0.5771 0.8138
H38 H 0.0995 0.4792 0.7788
C45 C 0.1313(5) 0.6136(4) 0.7196(4)
H39 H 0.1589 0.6243 0.6836
H40 H 0.1539 0.6515 0.7717
H41 H 0.0762 0.6214 0.7111
C49 C -0.15008(18) 0.05467(19) 0.19926(18)
C50 C -0.2159(2) -0.0146(2) 0.1554(2)
H51 H -0.1949 -0.0619 0.1176
H52 H -0.2563 0.0046 0.1296
H53 H -0.2384 -0.0308 0.1911
C51 C -0.0881(2) 0.0214(2) 0.2368(2)
H54 H -0.0618 -0.0189 0.1977
H55 H -0.1127 -0.0049 0.2643
H56 H -0.0501 0.0665 0.2725
C52 C -0.1847(2) 0.1241(2) 0.2610(2)
H57 H -0.2074 0.1033 0.2936
H58 H -0.2252 0.1453 0.2372
H59 H -0.1437 0.1683 0.2919
C53 C -0.06022(18) 0.2896(2) 0.52360(18)
C54 C -0.0793(2) 0.2903(2) 0.5978(2)
H60 H -0.0965 0.3435 0.6295
H61 H -0.0329 0.2808 0.6251
H62 H -0.1209 0.2469 0.5864
C55 C -0.0372(2) 0.2031(2) 0.4737(2)
H63 H -0.0792 0.1618 0.4665
H64 H 0.0105 0.1933 0.4990
H65 H -0.0284 0.1998 0.4241
C56 C -0.13411(18) 0.3050(2) 0.48231(19)
H66 H -0.1754 0.2614 0.4711
H67 H -0.1229 0.3054 0.4347
H68 H -0.1511 0.3581 0.5148
C57 C 0.3028(2) 0.2691(2) -0.1871(2)
C58 C 0.3494(5) 0.2077(4) -0.1664(4)
H69 H 0.4018 0.2335 -0.1411
H70 H 0.3530 0.1583 -0.2129
H71 H 0.3226 0.1929 -0.1321
C59 C 0.2226(4) 0.2206(5) -0.2159(5)
H72 H 0.2019 0.2149 -0.1739
H73 H 0.2271 0.1661 -0.2562
H74 H 0.1873 0.2496 -0.2362
C60 C 0.3466(6) 0.2735(5) -0.2486(4)
H75 H 0.3181 0.3036 -0.2729
H76 H 0.3512 0.2179 -0.2869
H77 H 0.3987 0.3019 -0.2255
C64 C 0.3275(2) 0.9369(2) 0.5367(2)
C65 C 0.2988(3) 0.9049(2) 0.5916(2)
H87 H 0.2450 0.8801 0.5726
H88 H 0.3011 0.9506 0.6422
H89 H 0.3320 0.8637 0.5948
C66 C 0.4130(2) 0.9736(2) 0.5681(2)
H90 H 0.4450 0.9305 0.5687
H91 H 0.4158 1.0170 0.6200
H92 H 0.4323 0.9965 0.5356
C67 C 0.2776(3) 1.0047(2) 0.5372(3)
H93 H 0.2945 1.0258 0.5024
H94 H 0.2835 1.0492 0.5888
H95 H 0.2229 0.9825 0.5207
C68 C 0.3825(3) 0.5764(2) -0.0321(2)
C69 C 0.4501(2) 0.6109(3) 0.0352(2)
H96 H 0.4296 0.6219 0.0827
H97 H 0.4750 0.6618 0.0384
H98 H 0.4883 0.5707 0.0271
C70 C 0.4169(3) 0.5643(3) -0.1044(3)
H99 H 0.4590 0.5286 -0.1109
H100 H 0.4374 0.6176 -0.0999
H101 H 0.3762 0.5391 -0.1486
C71 C 0.3215(3) 0.6394(3) -0.0208(3)
H102 H 0.2774 0.6153 -0.0618
H103 H 0.3454 0.6887 -0.0219
H104 H 0.3033 0.6541 0.0283
C72 C 0.3654(2) 0.8607(2) 0.2645(2)
C73 C 0.3840(3) 0.9534(2) 0.2981(3)
H105 H 0.3913 0.9692 0.2573
H106 H 0.4317 0.9699 0.3350
H107 H 0.3408 0.9805 0.3237
C74 C 0.4384(2) 0.8222(2) 0.2340(2)
H108 H 0.4279 0.7623 0.2094
H109 H 0.4812 0.8384 0.2762
H110 H 0.4528 0.8410 0.1969
C75 C 0.2990(3) 0.8359(3) 0.1986(3)
H111 H 0.2875 0.7762 0.1745
H112 H 0.3142 0.8539 0.1612
H113 H 0.2526 0.8616 0.2179
C76 C 0.27513(17) 0.20627(18) 0.34517(17)
C77 C 0.25787(19) 0.12389(19) 0.32708(18)
H114 H 0.2986 0.0897 0.3245
C78 C 0.18100(19) 0.09196(19) 0.31286(18)
H115 H 0.1684 0.0366 0.3033
C79 C 0.12324(18) 0.14141(19) 0.31280(18)
H116 H 0.0706 0.1191 0.3026
C80 C 0.21274(17) 0.25188(18) 0.34366(16)
H117 H 0.2234 0.3081 0.3552
C81 C 0.41548(17) 0.24668(18) 0.45625(18)
C82 C 0.48206(18) 0.2970(2) 0.49755(19)
H118 H 0.5010 0.3376 0.4835
C83 C 0.5214(2) 0.2896(2) 0.5585(2)
H119 H 0.5679 0.3239 0.5853
C84 C 0.4936(2) 0.2327(2) 0.5809(2)
H120 H 0.5213 0.2271 0.6227
C85 C 0.4261(2) 0.1842(2) 0.5427(2)
H121 H 0.4058 0.1462 0.5592
C86 C 0.3869(2) 0.1903(2) 0.47988(19)
H122 H 0.3404 0.1559 0.4531
C87 C 0.42247(19) 0.17263(19) 0.29818(19)
C88 C 0.3869(2) 0.1321(2) 0.2235(2)
H123 H 0.3370 0.1451 0.2094
C89 C 0.4232(3) 0.0723(2) 0.1687(2)
H124 H 0.3986 0.0453 0.1174
C90 C 0.4950(3) 0.0530(3) 0.1896(3)
H125 H 0.5202 0.0125 0.1525
C91 C 0.5302(2) 0.0914(2) 0.2629(3)
H126 H 0.5797 0.0773 0.2766
C92 C 0.4947(2) 0.1511(2) 0.3181(2)
H127 H 0.5197 0.1771 0.3693
C93 C 0.46750(17) 0.45570(19) 0.27522(17)
C94 C 0.40677(18) 0.47865(19) 0.23917(17)
H128 H 0.3589 0.4449 0.2227
C95 C 0.47794(19) 0.5913(2) 0.24930(19)
H129 H 0.4823 0.6384 0.2399
C96 C 0.5412(2) 0.5742(2) 0.2863(2)
H130 H 0.5884 0.6091 0.3021
C97 C 0.53612(19) 0.5058(2) 0.30070(18)
H131 H 0.5790 0.4938 0.3275
C98 C 0.54232(17) 0.33136(19) 0.30383(17)
C99 C 0.57279(19) 0.2658(2) 0.25005(19)
H132 H 0.5439 0.2351 0.2010
C100 C 0.6454(2) 0.2455(2) 0.2681(2)
H133 H 0.6659 0.2001 0.2312
C101 C 0.6887(2) 0.2897(2) 0.3388(2)
H134 H 0.7388 0.2751 0.3503
C102 C 0.65870(19) 0.3555(2) 0.3926(2)
H135 H 0.6884 0.3865 0.4412
C103 C 0.58608(18) 0.3763(2) 0.37599(18)
H136 H 0.5655 0.4212 0.4134
C104 C 0.39614(18) 0.29732(18) 0.19534(18)
C105 C 0.31611(19) 0.27722(19) 0.18762(19)
H137 H 0.2908 0.2953 0.2315
C106 C 0.2736(2) 0.2313(2) 0.1166(2)
H138 H 0.2194 0.2169 0.1114
C107 C 0.3112(3) 0.2066(2) 0.0530(2)
H139 H 0.2825 0.1745 0.0041
C108 C 0.3895(2) 0.2279(3) 0.0597(2)
H140 H 0.4147 0.2107 0.0158
C109 C 0.4308(2) 0.2743(2) 0.13071(19)
H141 H 0.4843 0.2908 0.1352
loop_
_geom_bond_atom_site_label_1
_geom_bond_atom_site_label_2
_geom_bond_site_symmetry_1
_geom_bond_site_symmetry_2
Pt1 Cl1 1_555 1_555
Zn1 O1 1_555 1_555
Zn2 O3 1_555 1_555
Cl2 Pt1 1_555 1_555
P1 Pt1 1_555 1_555
P2 Pt1 1_555 1_555
O1 C1 1_555 1_555
O2 Zn1 1_555 1_555
O3 C21 1_555 1_555
O4 Zn2 1_555 1_555
N1 Zn1 1_555 1_555
N2 Zn1 1_555 1_555
N3 Zn2 1_555 1_555
N4 Zn2 1_555 1_555
N5 Zn1 1_555 1_555
N6 Zn2 1_555 1_555
C1 C2 1_555 1_555
C2 C3 1_555 1_555
C3 H1 1_555 1_555
C4 C3 1_555 1_555
C5 C4 1_555 1_555
H2 C5 1_555 1_555
C6 C1 1_555 1_555
C7 N1 1_555 1_555
H3 C7 1_555 1_555
C8 N1 1_555 1_555
C9 C8 1_555 1_555
H4 C9 1_555 1_555
C10 N3 1_555 1_555
C11 N4 1_555 1_555
C12 C11 1_555 1_555
H5 C12 1_555 1_555
C13 N2 1_555 1_555
C14 N2 1_555 1_555
H6 C14 1_555 1_555
C15 C14 1_555 1_555
C16 C15 1_555 1_555
H7 C16 1_555 1_555
C17 C16 1_555 1_555
C18 C17 1_555 1_555
H8 C18 1_555 1_555
C19 C18 1_555 1_555
C20 O2 1_555 1_555
C21 C22 1_555 1_555
C22 C23 1_555 1_555
C23 H9 1_555 1_555
C24 C23 1_555 1_555
C25 C24 1_555 1_555
H10 C25 1_555 1_555
C26 C21 1_555 1_555
C27 N3 1_555 1_555
H11 C27 1_555 1_555
C28 N4 1_555 1_555
H12 C28 1_555 1_555
C29 C28 1_555 1_555
C30 O4 1_555 1_555
C31 C30 1_555 1_555
C32 C31 1_555 1_555
H13 C32 1_555 1_555
C33 C32 1_555 1_555
C34 C29 1_555 1_555
H14 C34 1_555 1_555
C35 C4 1_555 1_555
C36 C35 1_555 1_555
H15 C36 1_555 1_555
H16 C36 1_555 1_555
H17 C36 1_555 1_555
C37 C35 1_555 1_555
H18 C37 1_555 1_555
H19 C37 1_555 1_555
H20 C37 1_555 1_555
C38 C35 1_555 1_555
H21 C38 1_555 1_555
H22 C38 1_555 1_555
H23 C38 1_555 1_555
C42 C17 1_555 1_555
C43 C42 1_555 1_555
H33 C43 1_555 1_555
H34 C43 1_555 1_555
H35 C43 1_555 1_555
C44 C42 1_555 1_555
H36 C44 1_555 1_555
H37 C44 1_555 1_555
H38 C44 1_555 1_555
C45 C42 1_555 1_555
H39 C45 1_555 1_555
H40 C45 1_555 1_555
H41 C45 1_555 1_555
C49 C2 1_555 1_555
C50 C49 1_555 1_555
H51 C50 1_555 1_555
H52 C50 1_555 1_555
H53 C50 1_555 1_555
C51 C49 1_555 1_555
H54 C51 1_555 1_555
H55 C51 1_555 1_555
H56 C51 1_555 1_555
C52 C49 1_555 1_555
H57 C52 1_555 1_555
H58 C52 1_555 1_555
H59 C52 1_555 1_555
C53 C19 1_555 1_555
C54 C53 1_555 1_555
H60 C54 1_555 1_555
H61 C54 1_555 1_555
H62 C54 1_555 1_555
C55 C53 1_555 1_555
H63 C55 1_555 1_555
H64 C55 1_555 1_555
H65 C55 1_555 1_555
C56 C53 1_555 1_555
H66 C56 1_555 1_555
H67 C56 1_555 1_555
H68 C56 1_555 1_555
C57 C24 1_555 1_555
C58 C57 1_555 1_555
H69 C58 1_555 1_555
H70 C58 1_555 1_555
H71 C58 1_555 1_555
C59 C57 1_555 1_555
H72 C59 1_555 1_555
H73 C59 1_555 1_555
H74 C59 1_555 1_555
C60 C57 1_555 1_555
H75 C60 1_555 1_555
H76 C60 1_555 1_555
H77 C60 1_555 1_555
C64 C33 1_555 1_555
C65 C64 1_555 1_555
H87 C65 1_555 1_555
H88 C65 1_555 1_555
H89 C65 1_555 1_555
C66 C64 1_555 1_555
H90 C66 1_555 1_555
H91 C66 1_555 1_555
H92 C66 1_555 1_555
C67 C64 1_555 1_555
H93 C67 1_555 1_555
H94 C67 1_555 1_555
H95 C67 1_555 1_555
C68 C26 1_555 1_555
C69 C68 1_555 1_555
H96 C69 1_555 1_555
H97 C69 1_555 1_555
H98 C69 1_555 1_555
C70 C68 1_555 1_555
H99 C70 1_555 1_555
H100 C70 1_555 1_555
H101 C70 1_555 1_555
C71 C68 1_555 1_555
H102 C71 1_555 1_555
H103 C71 1_555 1_555
H104 C71 1_555 1_555
C72 C31 1_555 1_555
C73 C72 1_555 1_555
H105 C73 1_555 1_555
H106 C73 1_555 1_555
H107 C73 1_555 1_555
C74 C72 1_555 1_555
H108 C74 1_555 1_555
H109 C74 1_555 1_555
H110 C74 1_555 1_555
C75 C72 1_555 1_555
H111 C75 1_555 1_555
H112 C75 1_555 1_555
H113 C75 1_555 1_555
C76 P1 1_555 1_555
C77 C76 1_555 1_555
H114 C77 1_555 1_555
C78 C77 1_555 1_555
H115 C78 1_555 1_555
C79 N5 1_555 1_555
H116 C79 1_555 1_555
C80 N5 1_555 1_555
H117 C80 1_555 1_555
C81 P1 1_555 1_555
C82 C81 1_555 1_555
H118 C82 1_555 1_555
C83 C82 1_555 1_555
H119 C83 1_555 1_555
C84 C83 1_555 1_555
H120 C84 1_555 1_555
C85 C84 1_555 1_555
H121 C85 1_555 1_555
C86 C81 1_555 1_555
H122 C86 1_555 1_555
C87 P1 1_555 1_555
C88 C87 1_555 1_555
H123 C88 1_555 1_555
C89 C88 1_555 1_555
H124 C89 1_555 1_555
C90 C89 1_555 1_555
H125 C90 1_555 1_555
C91 C90 1_555 1_555
H126 C91 1_555 1_555
C92 C87 1_555 1_555
H127 C92 1_555 1_555
C93 P2 1_555 1_555
C94 N6 1_555 1_555
H128 C94 1_555 1_555
C95 N6 1_555 1_555
H129 C95 1_555 1_555
C96 C95 1_555 1_555
H130 C96 1_555 1_555
C97 C93 1_555 1_555
H131 C97 1_555 1_555
C98 P2 1_555 1_555
C99 C98 1_555 1_555
H132 C99 1_555 1_555
C100 C99 1_555 1_555
H133 C100 1_555 1_555
C101 C100 1_555 1_555
H134 C101 1_555 1_555
C102 C101 1_555 1_555
H135 C102 1_555 1_555
C103 C98 1_555 1_555
H136 C103 1_555 1_555
C104 P2 1_555 1_555
C105 C104 1_555 1_555
H137 C105 1_555 1_555
C106 C105 1_555 1_555
H138 C106 1_555 1_555
C107 C106 1_555 1_555
H139 C107 1_555 1_555
C108 C107 1_555 1_555
H140 C108 1_555 1_555
C109 C104 1_555 1_555
H141 C109 1_555 1_555
C5 C6 1_555 1_555
C6 C7 1_555 1_555
C8 C13 1_555 1_555
C9 C10 1_555 1_555
C10 C11 1_555 1_555
C12 C13 1_555 1_555
C15 C20 1_555 1_555
C19 C20 1_555 1_555
C22 C27 1_555 1_555
C25 C26 1_555 1_555
C29 C30 1_555 1_555
C33 C34 1_555 1_555
C76 C80 1_555 1_555
C78 C79 1_555 1_555
C85 C86 1_555 1_555
C91 C92 1_555 1_555
C93 C94 1_555 1_555
C96 C97 1_555 1_555
C102 C103 1_555 1_555
C108 C109 1_555 1_555

#END
