
#######################################################################
#
#                 Cambridge Crystallographic Data Centre
#                                CCDC 
#
#######################################################################
#
# If this CIF has been generated from an entry in the Cambridge 
# Structural Database, then it will include bibliographic, chemical, 
# crystal, experimental, refinement or atomic coordinate data resulting 
# from the CCDC's data processing and validation procedures.
#
#######################################################################

data_UDUGEG
_chemical_formula_moiety         'C101 H117 Cl1 N6 O4 P2 Pd1 Zn2'
_chemical_name_systematic        
'(\m~2~-1,2,4,5-tetrakis(N-(4,6-Di-t-butylsalicylidenealdiminato))benzene)-bis(\m~2~-diphenyl(4-pyridyl)phosphine-N,P)-chloro-methyl-palladium-di-zinc(ii) unknown solvate'
_symmetry_cell_setting           monoclinic
_symmetry_space_group_name_H-M   'C 2/c'
_symmetry_Int_Tables_number      15
_space_group_name_Hall           '-C 2yn'
loop_
_symmetry_equiv_pos_site_id
_symmetry_equiv_pos_as_xyz
1 x,y,z
2 1/2+x,1/2+y,z
3 -x,y,1/2-z
4 1/2-x,1/2+y,1/2-z
5 -x,-y,-z
6 1/2-x,1/2-y,-z
7 x,-y,1/2+z
8 1/2+x,1/2-y,1/2+z
_cell_length_a                   32.6639(10)
_cell_length_b                   12.4434(10)
_cell_length_c                   25.3741(10)
_cell_angle_alpha                90
_cell_angle_beta                 97.312(1)
_cell_angle_gamma                90
_cell_volume                     10229.4
_cell_formula_units_Z            4
loop_
_atom_site_label
_atom_site_type_symbol
_atom_site_fract_x
_atom_site_fract_y
_atom_site_fract_z
Pd1 Pd 0.00000 0.09378(8) 0.25000
Zn1 Zn 0.12442(2) 0.61167(6) 0.27773(3)
P1 P 0.07097(7) 0.09084(17) 0.26347(11)
O1 O 0.16568(15) 0.6394(5) 0.22995(18)
O2 O 0.16082(14) 0.6241(4) 0.34458(17)
N1 N 0.11636(17) 0.4426(5) 0.2754(2)
N2 N 0.07430(16) 0.6496(5) 0.3189(2)
N3 N 0.07846(17) 0.6558(5) 0.2160(2)
C1 C 0.00000 -0.0663(18) 0.25000
C2 C 0.0921(3) 0.0225(7) 0.3236(5)
C3 C 0.1253(4) -0.0477(12) 0.3202(7)
C4 C 0.1404(5) -0.0956(14) 0.3706(9)
C5 C 0.1244(6) -0.0838(11) 0.4186(7)
C6 C 0.0909(6) -0.0251(18) 0.4122(5)
C7 C 0.0752(5) 0.0275(14) 0.3650(5)
C8 C 0.0964(3) 0.0400(7) 0.2090(5)
C9 C 0.1393(4) 0.0560(11) 0.2088(5)
C10 C 0.1606(4) 0.0137(12) 0.1704(6)
C11 C 0.1399(5) -0.0360(11) 0.1309(6)
C12 C 0.0994(6) -0.0388(12) 0.1233(5)
C13 C 0.0767(4) 0.0008(11) 0.1652(5)
C14 C 0.0924(2) 0.2260(6) 0.2703(3)
C15 C 0.1046(3) 0.2768(7) 0.3182(3)
C16 C 0.1159(3) 0.3843(7) 0.3194(3)
C17 C 0.1061(3) 0.3934(7) 0.2298(3)
C18 C 0.0937(3) 0.2886(8) 0.2247(3)
C19 C 0.0362(2) 0.6578(6) 0.2864(3)
C20 C -0.0020(2) 0.6585(6) 0.3040(3)
C21 C 0.0382(2) 0.6599(6) 0.2312(3)
C22 C 0.0854(2) 0.6791(6) 0.1682(3)
C23 C 0.1242(2) 0.6791(6) 0.1484(3)
C24 C 0.1225(2) 0.7052(6) 0.0934(3)
C25 C 0.1568(2) 0.7151(6) 0.0688(3)
C26 C 0.1553(2) 0.7426(6) 0.0094(3)
C27 C 0.1722(6) 0.6521(13) -0.0185(4)
C28 C 0.1126(4) 0.7618(15) -0.0161(4)
C29 C 0.1797(5) 0.8391(13) 0.0027(4)
C30 C 0.1945(2) 0.6987(6) 0.1010(3)
C31 C 0.1992(2) 0.6745(6) 0.1544(3)
C32 C 0.2423(2) 0.6579(8) 0.1866(3)
C33 C 0.2485(3) 0.7420(10) 0.2310(4)
C34 C 0.2769(3) 0.6722(11) 0.1513(4)
C35 C 0.2454(3) 0.5436(10) 0.2092(4)
C36 C 0.1624(2) 0.6624(6) 0.1800(3)
C37 C 0.1532(2) 0.6297(6) 0.3935(3)
C38 C 0.1866(2) 0.6218(6) 0.4361(3)
C39 C 0.2305(2) 0.6044(7) 0.4231(3)
C40 C 0.2435(2) 0.6996(7) 0.3909(3)
C41 C 0.2619(2) 0.5939(8) 0.4732(3)
C42 C 0.2328(2) 0.4997(7) 0.3911(3)
C43 C 0.1780(2) 0.6289(6) 0.4875(3)
C44 C 0.1378(2) 0.6423(6) 0.5023(3)
C45 C 0.1296(2) 0.6523(7) 0.5607(3)
C46 C 0.1266(3) 0.7709(8) 0.5742(3)
C47 C 0.1642(2) 0.5998(7) 0.5984(3)
C48 C 0.0894(3) 0.5957(8) 0.5684(3)
C49 C 0.1067(2) 0.6523(6) 0.4613(3)
C50 C 0.1127(2) 0.6460(6) 0.4078(3)
C51 C 0.0767(2) 0.6587(6) 0.3703(3)
Cl2 Cl 0.00000 0.3189(10) 0.25000
H1 H 0.13660 -0.06210 0.28810
H2 H 0.13610 -0.11430 0.45140
H3 H 0.07600 -0.01740 0.44190
H4 H 0.16410 -0.14040 0.37120
H5 H 0.15390 0.09770 0.23630
H6 H 0.18970 0.02070 0.17280
H7 H 0.15460 -0.07210 0.10620
H8 H 0.08510 -0.06620 0.09110
H9 H 0.04740 -0.00190 0.16070
H10 H 0.10540 0.23780 0.35050
H11 H 0.05070 0.06870 0.36440
H12 H 0.10730 0.43350 0.19820
H13 H 0.08610 0.25850 0.19040
H14 H -0.00360 0.65800 0.34110
H15 H 0.06200 0.69830 0.14380
H16 H 0.09630 0.71610 0.07320
H17 H 0.16830 0.66590 -0.05680
H18 H 0.15770 0.58580 -0.01110
H19 H 0.20170 0.64430 -0.00610
H20 H 0.10070 0.82270 0.00120
H21 H 0.09590 0.69740 -0.01250
H22 H 0.11290 0.77780 -0.05380
H23 H 0.20760 0.82970 0.02150
H24 H 0.16660 0.90120 0.01740
H25 H 0.18120 0.85090 -0.03510
H26 H 0.12360 0.41770 0.35280
H27 H 0.22460 0.74180 0.25070
H28 H 0.25150 0.81330 0.21550
H29 H 0.27350 0.72470 0.25520
H30 H 0.30380 0.66140 0.17270
H31 H 0.27560 0.74480 0.13630
H32 H 0.27340 0.61930 0.12240
H33 H 0.22320 0.53180 0.23120
H34 H 0.27210 0.53410 0.23090
H35 H 0.24270 0.49170 0.17990
H36 H 0.22450 0.70630 0.35790
H37 H 0.27160 0.68780 0.38230
H38 H 0.24280 0.76570 0.41180
H39 H 0.26350 0.66200 0.49280
H40 H 0.28910 0.57620 0.46310
H41 H 0.25310 0.53660 0.49580
H42 H 0.22210 0.43990 0.41030
H43 H 0.26160 0.48520 0.38630
H44 H 0.21630 0.50750 0.35620
H45 H 0.20050 0.62450 0.51510
H46 H 0.12270 0.77860 0.61160
H47 H 0.10320 0.80300 0.55170
H48 H 0.15210 0.80740 0.56780
H49 H 0.15770 0.60460 0.63500
H50 H 0.19030 0.63700 0.59570
H51 H 0.16680 0.52410 0.58870
H52 H 0.09060 0.52080 0.55680
H53 H 0.06630 0.63220 0.54730
H54 H 0.08550 0.59780 0.60600
H55 H 0.07950 0.66410 0.46960
H56 H 0.05180 0.67550 0.38420
H57 H 0.21890 0.70480 0.08460
Zn1B Zn -0.12442(2) 0.61167(6) 0.22227(3)
P1B P -0.07097(7) 0.09084(17) 0.23653(11)
O1B O -0.16568(15) 0.6394(5) 0.27005(18)
O2B O -0.16082(14) 0.6241(4) 0.15542(17)
N1B N -0.11636(17) 0.4426(5) 0.2246(2)
N2B N -0.07430(16) 0.6496(5) 0.1811(2)
N3B N -0.07846(17) 0.6558(5) 0.2840(2)
C2B C -0.0921(3) 0.0225(7) 0.1764(5)
C3B C -0.1253(4) -0.0477(12) 0.1798(7)
C4B C -0.1404(5) -0.0956(14) 0.1294(9)
C5B C -0.1244(6) -0.0838(11) 0.0814(7)
C6B C -0.0909(6) -0.0251(18) 0.0878(5)
C7B C -0.0752(5) 0.0275(14) 0.1350(5)
C8B C -0.0964(3) 0.0400(7) 0.2910(5)
C9B C -0.1393(4) 0.0560(11) 0.2912(5)
C10B C -0.1606(4) 0.0137(12) 0.3296(6)
C11B C -0.1399(5) -0.0360(11) 0.3691(6)
C12B C -0.0994(6) -0.0388(12) 0.3767(5)
C13B C -0.0767(4) 0.0008(11) 0.3348(5)
C14B C -0.0924(2) 0.2260(6) 0.2297(3)
C15B C -0.1046(3) 0.2768(7) 0.1818(3)
C16B C -0.1159(3) 0.3843(7) 0.1806(3)
C17B C -0.1061(3) 0.3934(7) 0.2702(3)
C18B C -0.0937(3) 0.2886(8) 0.2753(3)
C19B C -0.0362(2) 0.6578(6) 0.2136(3)
C20B C 0.0020(2) 0.6585(6) 0.1960(3)
C21B C -0.0382(2) 0.6599(6) 0.2688(3)
C22B C -0.0854(2) 0.6791(6) 0.3318(3)
C23B C -0.1242(2) 0.6791(6) 0.3516(3)
C24B C -0.1225(2) 0.7052(6) 0.4066(3)
C25B C -0.1568(2) 0.7151(6) 0.4312(3)
C26B C -0.1553(2) 0.7426(6) 0.4906(3)
C27B C -0.1722(6) 0.6521(13) 0.5185(4)
C28B C -0.1126(4) 0.7618(15) 0.5161(4)
C29B C -0.1797(5) 0.8391(13) 0.4973(4)
C30B C -0.1945(2) 0.6987(6) 0.3990(3)
C31B C -0.1992(2) 0.6745(6) 0.3456(3)
C32B C -0.2423(2) 0.6579(8) 0.3134(3)
C33B C -0.2485(3) 0.7420(10) 0.2690(4)
C34B C -0.2769(3) 0.6722(11) 0.3487(4)
C35B C -0.2454(3) 0.5436(10) 0.2908(4)
C36B C -0.1624(2) 0.6624(6) 0.3200(3)
C37B C -0.1532(2) 0.6297(6) 0.1065(3)
C38B C -0.1866(2) 0.6218(6) 0.0639(3)
C39B C -0.2305(2) 0.6044(7) 0.0769(3)
C40B C -0.2435(2) 0.6996(7) 0.1091(3)
C41B C -0.2619(2) 0.5939(8) 0.0268(3)
C42B C -0.2328(2) 0.4997(7) 0.1089(3)
C43B C -0.1780(2) 0.6289(6) 0.0125(3)
C44B C -0.1378(2) 0.6423(6) -0.0023(3)
C45B C -0.1296(2) 0.6523(7) -0.0607(3)
C46B C -0.1266(3) 0.7709(8) -0.0742(3)
C47B C -0.1642(2) 0.5998(7) -0.0984(3)
C48B C -0.0894(3) 0.5957(8) -0.0684(3)
C49B C -0.1067(2) 0.6523(6) 0.0387(3)
C50B C -0.1127(2) 0.6460(6) 0.0922(3)
C51B C -0.0767(2) 0.6587(6) 0.1297(3)
H1B H -0.13660 -0.06210 0.21190
H2B H -0.13610 -0.11430 0.04860
H3B H -0.07600 -0.01740 0.05810
H4B H -0.16410 -0.14040 0.12880
H5B H -0.15390 0.09770 0.26370
H6B H -0.18970 0.02070 0.32720
H7B H -0.15460 -0.07210 0.39380
H8B H -0.08510 -0.06620 0.40890
H9B H -0.04740 -0.00190 0.33930
H10B H -0.10540 0.23780 0.14950
H11B H -0.05070 0.06870 0.13560
H12B H -0.10730 0.43350 0.30180
H13B H -0.08610 0.25850 0.30960
H14B H 0.00360 0.65800 0.15890
H15B H -0.06200 0.69830 0.35620
H16B H -0.09630 0.71610 0.42680
H17B H -0.16830 0.66590 0.55680
H18B H -0.15770 0.58580 0.51110
H19B H -0.20170 0.64430 0.50610
H20B H -0.10070 0.82270 0.49880
H21B H -0.09590 0.69740 0.51250
H22B H -0.11290 0.77780 0.55380
H23B H -0.20760 0.82970 0.47850
H24B H -0.16660 0.90120 0.48260
H25B H -0.18120 0.85090 0.53510
H26B H -0.12360 0.41770 0.14720
H27B H -0.22460 0.74180 0.24930
H28B H -0.25150 0.81330 0.28450
H29B H -0.27350 0.72470 0.24480
H30B H -0.30380 0.66140 0.32730
H31B H -0.27560 0.74480 0.36370
H32B H -0.27340 0.61930 0.37760
H33B H -0.22320 0.53180 0.26880
H34B H -0.27210 0.53410 0.26910
H35B H -0.24270 0.49170 0.32010
H36B H -0.22450 0.70630 0.14210
H37B H -0.27160 0.68780 0.11770
H38B H -0.24280 0.76570 0.08820
H39B H -0.26350 0.66200 0.00720
H40B H -0.28910 0.57620 0.03690
H41B H -0.25310 0.53660 0.00420
H42B H -0.22210 0.43990 0.08970
H43B H -0.26160 0.48520 0.11370
H44B H -0.21630 0.50750 0.14380
H45B H -0.20050 0.62450 -0.01510
H46B H -0.12270 0.77860 -0.11160
H47B H -0.10320 0.80300 -0.05170
H48B H -0.15210 0.80740 -0.06780
H49B H -0.15770 0.60460 -0.13500
H50B H -0.19030 0.63700 -0.09570
H51B H -0.16680 0.52410 -0.08870
H52B H -0.09060 0.52080 -0.05680
H53B H -0.06630 0.63220 -0.04730
H54B H -0.08550 0.59780 -0.10600
H55B H -0.07950 0.66410 0.03040
H56B H -0.05180 0.67550 0.11580
H57B H -0.21890 0.70480 0.41540
Cl1? Cl -0.0003(2) 0.2372(10) 0.1647(5)
C52? C 0.00019(16) -0.012(3) 0.3090(6)
H58? H -0.02000 -0.09260 0.22070
H59? H -0.00770 -0.09260 0.28380
H60? H 0.02760 -0.09260 0.24550
H61? H -0.00840 -0.08240 0.29450
H62? H -0.01900 0.01200 0.33340
H63? H 0.02810 -0.01710 0.32830
loop_
_geom_bond_atom_site_label_1
_geom_bond_atom_site_label_2
_geom_bond_site_symmetry_1
_geom_bond_site_symmetry_2
Pd1 P1 1_555 1_555
Zn1 O1 1_555 1_555
P1 C2 1_555 1_555
O1 C36 1_555 1_555
O2 Zn1 1_555 1_555
N1 Zn1 1_555 1_555
N2 Zn1 1_555 1_555
N3 Zn1 1_555 1_555
C1 Pd1 1_555 1_555
C2 C3 1_555 1_555
C3 C4 1_555 1_555
C4 C5 1_555 1_555
C5 C6 1_555 1_555
C6 C7 1_555 1_555
C7 C2 1_555 1_555
C8 P1 1_555 1_555
C9 C8 1_555 1_555
C10 C9 1_555 1_555
C11 C10 1_555 1_555
C12 C11 1_555 1_555
C13 C8 1_555 1_555
C14 P1 1_555 1_555
C15 C14 1_555 1_555
C16 N1 1_555 1_555
C17 N1 1_555 1_555
C18 C14 1_555 1_555
C19 N2 1_555 1_555
C20 C19 1_555 1_555
C21 N3 1_555 1_555
C22 N3 1_555 1_555
C23 C22 1_555 1_555
C24 C23 1_555 1_555
C25 C24 1_555 1_555
C26 C25 1_555 1_555
C27 C26 1_555 1_555
C28 C26 1_555 1_555
C29 C26 1_555 1_555
C30 C25 1_555 1_555
C31 C30 1_555 1_555
C32 C31 1_555 1_555
C33 C32 1_555 1_555
C34 C32 1_555 1_555
C35 C32 1_555 1_555
C36 C23 1_555 1_555
C37 O2 1_555 1_555
C38 C37 1_555 1_555
C39 C38 1_555 1_555
C40 C39 1_555 1_555
C41 C39 1_555 1_555
C42 C39 1_555 1_555
C43 C38 1_555 1_555
C44 C43 1_555 1_555
C45 C44 1_555 1_555
C46 C45 1_555 1_555
C47 C45 1_555 1_555
C48 C45 1_555 1_555
C49 C44 1_555 1_555
C50 C37 1_555 1_555
C51 N2 1_555 1_555
Cl2 Pd1 1_555 1_555
H1 C3 1_555 1_555
H2 C5 1_555 1_555
H3 C6 1_555 1_555
H4 C4 1_555 1_555
H5 C9 1_555 1_555
H6 C10 1_555 1_555
H7 C11 1_555 1_555
H8 C12 1_555 1_555
H9 C13 1_555 1_555
H10 C15 1_555 1_555
H11 C7 1_555 1_555
H12 C17 1_555 1_555
H13 C18 1_555 1_555
H14 C20 1_555 1_555
H15 C22 1_555 1_555
H16 C24 1_555 1_555
H17 C27 1_555 1_555
H18 C27 1_555 1_555
H19 C27 1_555 1_555
H20 C28 1_555 1_555
H21 C28 1_555 1_555
H22 C28 1_555 1_555
H23 C29 1_555 1_555
H24 C29 1_555 1_555
H25 C29 1_555 1_555
H26 C16 1_555 1_555
H27 C33 1_555 1_555
H28 C33 1_555 1_555
H29 C33 1_555 1_555
H30 C34 1_555 1_555
H31 C34 1_555 1_555
H32 C34 1_555 1_555
H33 C35 1_555 1_555
H34 C35 1_555 1_555
H35 C35 1_555 1_555
H36 C40 1_555 1_555
H37 C40 1_555 1_555
H38 C40 1_555 1_555
H39 C41 1_555 1_555
H40 C41 1_555 1_555
H41 C41 1_555 1_555
H42 C42 1_555 1_555
H43 C42 1_555 1_555
H44 C42 1_555 1_555
H45 C43 1_555 1_555
H46 C46 1_555 1_555
H47 C46 1_555 1_555
H48 C46 1_555 1_555
H49 C47 1_555 1_555
H50 C47 1_555 1_555
H51 C47 1_555 1_555
H52 C48 1_555 1_555
H53 C48 1_555 1_555
H54 C48 1_555 1_555
H55 C49 1_555 1_555
H56 C51 1_555 1_555
H57 C30 1_555 1_555
Zn1B O1B 1_555 1_555
P1B Pd1 1_555 1_555
O1B C36B 1_555 1_555
O2B Zn1B 1_555 1_555
N1B Zn1B 1_555 1_555
N2B Zn1B 1_555 1_555
N3B Zn1B 1_555 1_555
C2B P1B 1_555 1_555
C3B C2B 1_555 1_555
C4B C3B 1_555 1_555
C5B C4B 1_555 1_555
C6B C5B 1_555 1_555
C7B C2B 1_555 1_555
C8B P1B 1_555 1_555
C9B C8B 1_555 1_555
C10B C9B 1_555 1_555
C11B C10B 1_555 1_555
C12B C11B 1_555 1_555
C13B C8B 1_555 1_555
C14B P1B 1_555 1_555
C15B C14B 1_555 1_555
C16B N1B 1_555 1_555
C17B N1B 1_555 1_555
C18B C14B 1_555 1_555
C19B N2B 1_555 1_555
C20B C21 1_555 1_555
C21B C20 1_555 1_555
C22B N3B 1_555 1_555
C23B C22B 1_555 1_555
C24B C23B 1_555 1_555
C25B C24B 1_555 1_555
C26B C25B 1_555 1_555
C27B C26B 1_555 1_555
C28B C26B 1_555 1_555
C29B C26B 1_555 1_555
C30B C25B 1_555 1_555
C31B C30B 1_555 1_555
C32B C31B 1_555 1_555
C33B C32B 1_555 1_555
C34B C32B 1_555 1_555
C35B C32B 1_555 1_555
C36B C23B 1_555 1_555
C37B O2B 1_555 1_555
C38B C37B 1_555 1_555
C39B C38B 1_555 1_555
C40B C39B 1_555 1_555
C41B C39B 1_555 1_555
C42B C39B 1_555 1_555
C43B C38B 1_555 1_555
C44B C43B 1_555 1_555
C45B C44B 1_555 1_555
C46B C45B 1_555 1_555
C47B C45B 1_555 1_555
C48B C45B 1_555 1_555
C49B C44B 1_555 1_555
C50B C37B 1_555 1_555
C51B N2B 1_555 1_555
H1B C3B 1_555 1_555
H2B C5B 1_555 1_555
H3B C6B 1_555 1_555
H4B C4B 1_555 1_555
H5B C9B 1_555 1_555
H6B C10B 1_555 1_555
H7B C11B 1_555 1_555
H8B C12B 1_555 1_555
H9B C13B 1_555 1_555
H10B C15B 1_555 1_555
H11B C7B 1_555 1_555
H12B C17B 1_555 1_555
H13B C18B 1_555 1_555
H14B C20B 1_555 1_555
H15B C22B 1_555 1_555
H16B C24B 1_555 1_555
H17B C27B 1_555 1_555
H18B C27B 1_555 1_555
H19B C27B 1_555 1_555
H20B C28B 1_555 1_555
H21B C28B 1_555 1_555
H22B C28B 1_555 1_555
H23B C29B 1_555 1_555
H24B C29B 1_555 1_555
H25B C29B 1_555 1_555
H26B C16B 1_555 1_555
H27B C33B 1_555 1_555
H28B C33B 1_555 1_555
H29B C33B 1_555 1_555
H30B C34B 1_555 1_555
H31B C34B 1_555 1_555
H32B C34B 1_555 1_555
H33B C35B 1_555 1_555
H34B C35B 1_555 1_555
H35B C35B 1_555 1_555
H36B C40B 1_555 1_555
H37B C40B 1_555 1_555
H38B C40B 1_555 1_555
H39B C41B 1_555 1_555
H40B C41B 1_555 1_555
H41B C41B 1_555 1_555
H42B C42B 1_555 1_555
H43B C42B 1_555 1_555
H44B C42B 1_555 1_555
H45B C43B 1_555 1_555
H46B C46B 1_555 1_555
H47B C46B 1_555 1_555
H48B C46B 1_555 1_555
H49B C47B 1_555 1_555
H50B C47B 1_555 1_555
H51B C47B 1_555 1_555
H52B C48B 1_555 1_555
H53B C48B 1_555 1_555
H54B C48B 1_555 1_555
H55B C49B 1_555 1_555
H56B C51B 1_555 1_555
H57B C30B 1_555 1_555
C12 C13 1_555 1_555
C15 C16 1_555 1_555
C17 C18 1_555 1_555
C19 C21 1_555 1_555
C31 C36 1_555 1_555
C49 C50 1_555 1_555
C50 C51 1_555 1_555
N3B C21B 1_555 1_555
C6B C7B 1_555 1_555
C12B C13B 1_555 1_555
C15B C16B 1_555 1_555
C17B C18B 1_555 1_555
C19B C20B 1_555 1_555
C19B C21B 1_555 1_555
C31B C36B 1_555 1_555
C49B C50B 1_555 1_555
C50B C51B 1_555 1_555

#END
