
#######################################################################
#
#                 Cambridge Crystallographic Data Centre
#                                CCDC 
#
#######################################################################
#
# If this CIF has been generated from an entry in the Cambridge 
# Structural Database, then it will include bibliographic, chemical, 
# crystal, experimental, refinement or atomic coordinate data resulting 
# from the CCDC's data processing and validation procedures.
#
#######################################################################

data_UDUJEJ
_chemical_formula_moiety         
'C112 H68 Er2 N32 O2 Ru4 2-,2(K1 1+),C1 H4 O1,16(H2 O1)'
_chemical_name_systematic        
'Di-potassium hexakis(\m~2~-cyano)-diaqua-decacyano-octakis(1,10-phenanthroline)-tetra-ruthenium(ii)-di-erbium(iii) methanol solvate hexadecahydrate'
_symmetry_cell_setting           monoclinic
_symmetry_space_group_name_H-M   'P 21/c'
_symmetry_Int_Tables_number      14
_space_group_name_Hall           '-P 2ybc'
loop_
_symmetry_equiv_pos_site_id
_symmetry_equiv_pos_as_xyz
1 x,y,z
2 -x,1/2+y,1/2-z
3 -x,-y,-z
4 x,1/2-y,1/2+z
_cell_length_a                   14.218(19)
_cell_length_b                   27.76(4)
_cell_length_c                   17.21(2)
_cell_angle_alpha                90
_cell_angle_beta                 102.077(12)
_cell_angle_gamma                90
_cell_volume                     6642.3
_exptl_crystal_colour            red
_exptl_crystal_description       block
_cell_formula_units_Z            2
loop_
_atom_site_label
_atom_site_type_symbol
_atom_site_fract_x
_atom_site_fract_y
_atom_site_fract_z
Er1 Er -0.26793(2) 0.519990(11) 0.854985(18)
Ru1 Ru 0.06529(4) 0.62124(2) 0.96205(4)
Ru2 Ru -0.42861(5) 0.36788(2) 0.67877(4)
N1 N 0.1753(4) 0.6726(2) 1.0002(4)
N2 N 0.0062(4) 0.6834(2) 0.9004(5)
N3 N 0.1328(6) 0.5944(4) 0.8029(5)
N4 N -0.1236(4) 0.5621(2) 0.9060(4)
N5 N -0.0188(6) 0.6429(3) 1.1160(5)
N6 N -0.4833(6) 0.3109(3) 0.6010(5)
N7 N -0.3190(6) 0.3158(2) 0.7103(4)
N8 N -0.5379(6) 0.3169(3) 0.8005(5)
N9 N -0.3332(4) 0.4462(2) 0.8004(4)
N10 N -0.3169(7) 0.4099(3) 0.5509(5)
N11 N -0.6051(8) 0.4369(5) 0.6200(6)
N12 N -0.3083(5) 0.5463(2) 0.9826(4)
N13 N -0.4455(4) 0.5260(2) 0.8540(4)
N14 N -0.3070(4) 0.6092(2) 0.8379(4)
N15 N -0.3403(4) 0.5461(2) 0.7163(4)
C1 C 0.2579(5) 0.6662(3) 1.0533(5)
H1 H 0.2736 0.6351 1.0751
C2 C 0.3220(6) 0.7046(3) 1.0772(5)
H2 H 0.3802 0.6993 1.1149
C3 C 0.3009(7) 0.7492(4) 1.0467(6)
H3 H 0.3443 0.7750 1.0630
C4 C 0.2153(7) 0.7573(3) 0.9912(6)
C5 C 0.1873(9) 0.8023(4) 0.9541(8)
H4 H 0.2280 0.8295 0.9677
C6 C 0.1047(9) 0.8072(4) 0.9003(8)
H5 H 0.0890 0.8377 0.8761
C7 C 0.0389(7) 0.7675(3) 0.8780(8)
C8 C -0.0475(7) 0.7698(4) 0.8216(8)
H6 H -0.0662 0.7989 0.7937
C9 C -0.1039(7) 0.7308(4) 0.8069(8)
H7 H -0.1630 0.7324 0.7691
C10 C -0.0755(6) 0.6872(4) 0.8475(6)
H8 H -0.1163 0.6599 0.8365
C11 C 0.0646(6) 0.7227(3) 0.9154(6)
C12 C 0.1543(6) 0.7170(3) 0.9704(5)
C13 C 0.1115(6) 0.6040(3) 0.8617(5)
C14 C -0.0513(5) 0.5822(3) 0.9265(4)
C15 C 0.0120(6) 0.6369(3) 1.0592(5)
C16 C -0.5625(9) 0.3095(5) 0.5443(7)
H9 H -0.6025 0.3372 0.5349
C17 C -0.5887(12) 0.2682(6) 0.4980(7)
H10 H -0.6440 0.2689 0.4560
C18 C -0.5370(12) 0.2279(6) 0.5124(8)
H11 H -0.5557 0.1998 0.4816
C19 C -0.4561(10) 0.2278(4) 0.5724(8)
C20 C -0.3993(13) 0.1874(5) 0.5916(10)
H12 H -0.4191 0.1581 0.5645
C21 C -0.3171(13) 0.1877(4) 0.6471(10)
H13 H -0.2806 0.1589 0.6584
C22 C -0.2830(10) 0.2325(4) 0.6906(8)
C23 C -0.1973(10) 0.2377(4) 0.7438(9)
H14 H -0.1556 0.2108 0.7571
C24 C -0.1719(9) 0.2820(4) 0.7780(8)
H15 H -0.1118 0.2862 0.8137
C25 C -0.2354(7) 0.3204(3) 0.7595(6)
H16 H -0.2178 0.3509 0.7832
C26 C -0.3425(8) 0.2727(3) 0.6734(6)
C27 C -0.4300(8) 0.2706(4) 0.6142(6)
C28 C -0.4997(6) 0.3371(3) 0.7574(5)
C29 C -0.3685(5) 0.4163(3) 0.7568(4)
C30 C -0.5393(8) 0.4122(4) 0.6428(6)
C31 C -0.3582(7) 0.3954(3) 0.5976(5)
C32 C -0.2412(6) 0.5562(3) 1.0462(5)
H17 H -0.1762 0.5491 1.0448
C33 C -0.2608(7) 0.5764(3) 1.1151(5)
H18 H -0.2101 0.5836 1.1590
C34 C -0.3540(8) 0.5857(3) 1.1185(5)
H19 H -0.3686 0.5995 1.1650
C35 C -0.4283(6) 0.5749(3) 1.0535(5)
C36 C -0.5279(7) 0.5809(3) 1.0544(6)
H20 H -0.5457 0.5937 1.1005
C37 C -0.5967(7) 0.5689(3) 0.9914(6)
H21 H -0.6625 0.5723 0.9941
C38 C -0.5723(6) 0.5510(3) 0.9208(5)
C39 C -0.6417(6) 0.5386(3) 0.8540(6)
H22 H -0.7081 0.5428 0.8536
C40 C -0.6130(6) 0.5202(3) 0.7891(6)
H23 H -0.6595 0.5119 0.7429
C41 C -0.5151(6) 0.5137(3) 0.7904(5)
H24 H -0.4967 0.5000 0.7452
C42 C -0.4736(5) 0.5440(2) 0.9178(5)
C43 C -0.4023(6) 0.5557(2) 0.9849(5)
C44 C -0.2811(6) 0.6421(3) 0.8935(5)
H25 H -0.2405 0.6326 0.9422
C45 C -0.3105(7) 0.6907(3) 0.8844(6)
H26 H -0.2872 0.7135 0.9250
C46 C -0.3721(6) 0.7045(3) 0.8172(6)
H27 H -0.3950 0.7367 0.8111
C47 C -0.4017(6) 0.6708(3) 0.7570(6)
C48 C -0.4680(7) 0.6814(4) 0.6826(6)
H28 H -0.4972 0.7123 0.6755
C49 C -0.4888(8) 0.6498(4) 0.6249(7)
H29 H -0.5331 0.6579 0.5774
C50 C -0.4451(7) 0.6029(3) 0.6334(5)
C51 C -0.4549(7) 0.5696(4) 0.5693(5)
H30 H -0.4947 0.5771 0.5192
C52 C -0.4075(8) 0.5274(3) 0.5802(5)
H31 H -0.4122 0.5053 0.5374
C53 C -0.3516(6) 0.5163(3) 0.6540(5)
H32 H -0.3198 0.4860 0.6606
C54 C -0.3852(5) 0.5897(3) 0.7046(5)
C55 C -0.3655(5) 0.6237(3) 0.7688(5)
O1 O -0.1559(4) 0.4977(2) 0.7795(4)
H33 H -0.1522 0.4781 0.7422
H34 H -0.1037 0.5009 0.8073
N16 N -0.1838(4) 0.4642(2) 0.9463(4)
C57 C 0.1371(5) 0.5666(3) 1.0193(4)
Er1B Er 0.26793(2) 0.480010(11) 1.145015(18)
Ru1B Ru -0.06529(4) 0.37876(2) 1.03795(4)
Ru2B Ru 0.42861(5) 0.63212(2) 1.32123(4)
N1B N -0.1753(4) 0.3274(2) 0.9998(4)
N2B N -0.0062(4) 0.3166(2) 1.0996(5)
N3B N -0.1328(6) 0.4056(4) 1.1971(5)
N4B N 0.1236(4) 0.4379(2) 1.0940(4)
N5B N 0.0188(6) 0.3571(3) 0.8840(5)
N6B N 0.4833(6) 0.6891(3) 1.3990(5)
N7B N 0.3190(6) 0.6842(2) 1.2897(4)
N8B N 0.5379(6) 0.6831(3) 1.1995(5)
N9B N 0.3332(4) 0.5538(2) 1.1996(4)
N10B N 0.3169(7) 0.5901(3) 1.4491(5)
N11B N 0.6051(8) 0.5631(5) 1.3800(6)
N12B N 0.3083(5) 0.4537(2) 1.0174(4)
N13B N 0.4455(4) 0.4740(2) 1.1460(4)
N14B N 0.3070(4) 0.3908(2) 1.1621(4)
N15B N 0.3403(4) 0.4539(2) 1.2837(4)
C1B C -0.2579(5) 0.3338(3) 0.9467(5)
H1B H -0.2736 0.3649 0.9249
C2B C -0.3220(6) 0.2954(3) 0.9228(5)
H2B H -0.3802 0.3007 0.8851
C3B C -0.3009(7) 0.2508(4) 0.9533(6)
H3B H -0.3443 0.2250 0.9370
C4B C -0.2153(7) 0.2427(3) 1.0088(6)
C5B C -0.1873(9) 0.1977(4) 1.0459(8)
H4B H -0.2280 0.1705 1.0323
C6B C -0.1047(9) 0.1928(4) 1.0997(8)
H5B H -0.0890 0.1623 1.1239
C7B C -0.0389(7) 0.2325(3) 1.1220(8)
C8B C 0.0475(7) 0.2302(4) 1.1784(8)
H6B H 0.0662 0.2011 1.2063
C9B C 0.1039(7) 0.2692(4) 1.1931(8)
H7B H 0.1630 0.2676 1.2309
C10B C 0.0755(6) 0.3128(4) 1.1525(6)
H8B H 0.1163 0.3401 1.1635
C11B C -0.0646(6) 0.2773(3) 1.0846(6)
C12B C -0.1543(6) 0.2830(3) 1.0296(5)
C13B C -0.1115(6) 0.3960(3) 1.1383(5)
C14B C 0.0513(5) 0.4178(3) 1.0735(4)
C15B C -0.0120(6) 0.3631(3) 0.9408(5)
C16B C 0.5625(9) 0.6905(5) 1.4557(7)
H9B H 0.6025 0.6628 1.4651
C17B C 0.5887(12) 0.7318(6) 1.5020(7)
H10B H 0.6440 0.7311 1.5440
C18B C 0.5370(12) 0.7721(6) 1.4876(8)
H11B H 0.5557 0.8002 1.5184
C19B C 0.4561(10) 0.7722(4) 1.4276(8)
C20B C 0.3993(13) 0.8126(5) 1.4084(10)
H12B H 0.4191 0.8419 1.4355
C21B C 0.3171(13) 0.8123(4) 1.3529(10)
H13B H 0.2806 0.8411 1.3416
C22B C 0.2830(10) 0.7675(4) 1.3094(8)
C23B C 0.1973(10) 0.7623(4) 1.2562(9)
H14B H 0.1556 0.7892 1.2429
C24B C 0.1719(9) 0.7180(4) 1.2220(8)
H15B H 0.1118 0.7138 1.1863
C25B C 0.2354(7) 0.6796(3) 1.2405(6)
H16B H 0.2178 0.6491 1.2168
C26B C 0.3425(8) 0.7273(3) 1.3266(6)
C27B C 0.4300(8) 0.7294(4) 1.3858(6)
C28B C 0.4997(6) 0.6629(3) 1.2426(5)
C29B C 0.3685(5) 0.5837(3) 1.2432(4)
C30B C 0.5393(8) 0.5878(4) 1.3572(6)
C31B C 0.3582(7) 0.6046(3) 1.4024(5)
C32B C 0.2412(6) 0.4438(3) 0.9538(5)
H17B H 0.1762 0.4509 0.9552
C33B C 0.2608(7) 0.4236(3) 0.8849(5)
H18B H 0.2101 0.4164 0.8410
C34B C 0.3540(8) 0.4143(3) 0.8815(5)
H19B H 0.3686 0.4005 0.8350
C35B C 0.4283(6) 0.4251(3) 0.9465(5)
C36B C 0.5279(7) 0.4191(3) 0.9456(6)
H20B H 0.5457 0.4063 0.8995
C37B C 0.5967(7) 0.4311(3) 1.0086(6)
H21B H 0.6625 0.4277 1.0059
C38B C 0.5723(6) 0.4490(3) 1.0792(5)
C39B C 0.6417(6) 0.4614(3) 1.1460(6)
H22B H 0.7081 0.4572 1.1464
C40B C 0.6130(6) 0.4798(3) 1.2109(6)
H23B H 0.6595 0.4881 1.2571
C41B C 0.5151(6) 0.4863(3) 1.2096(5)
H24B H 0.4967 0.5000 1.2548
C42B C 0.4736(5) 0.4560(2) 1.0822(5)
C43B C 0.4023(6) 0.4443(2) 1.0151(5)
C44B C 0.2811(6) 0.3579(3) 1.1065(5)
H25B H 0.2405 0.3674 1.0578
C45B C 0.3105(7) 0.3093(3) 1.1156(6)
H26B H 0.2872 0.2865 1.0750
C46B C 0.3721(6) 0.2955(3) 1.1828(6)
H27B H 0.3950 0.2633 1.1889
C47B C 0.4017(6) 0.3292(3) 1.2430(6)
C48B C 0.4680(7) 0.3186(4) 1.3174(6)
H28B H 0.4972 0.2877 1.3245
C49B C 0.4888(8) 0.3502(4) 1.3751(7)
H29B H 0.5331 0.3421 1.4226
C50B C 0.4451(7) 0.3971(3) 1.3666(5)
C51B C 0.4549(7) 0.4304(4) 1.4307(5)
H30B H 0.4947 0.4229 1.4808
C52B C 0.4075(8) 0.4726(3) 1.4198(5)
H31B H 0.4122 0.4947 1.4626
C53B C 0.3516(6) 0.4837(3) 1.3460(5)
H32B H 0.3198 0.5140 1.3394
C54B C 0.3852(5) 0.4103(3) 1.2954(5)
C55B C 0.3655(5) 0.3763(3) 1.2312(5)
O1B O 0.1559(4) 0.5023(2) 1.2205(4)
H33B H 0.1522 0.5219 1.2578
H34B H 0.1037 0.4991 1.1927
N16B N 0.1838(4) 0.5358(2) 1.0537(4)
C57B C -0.1371(5) 0.4334(3) 0.9807(4)
K2 K -0.9019(5) 0.4433(2) 0.5070(4)
O2 O 0.0209(6) 0.4774(3) 0.8783(6)
O3 O -0.1903(6) 0.7018(4) 1.0763(6)
O4 O -0.2711(6) 0.7974(4) 0.7049(7)
O5 O -0.1432(9) 0.4375(5) 0.6610(8)
O6 O 0.0243(9) 0.3968(5) 0.7341(6)
O7 O -0.0924(14) 0.5838(7) 0.7140(12)
O8 O -0.1112(16) 0.7865(8) 1.0594(13)
O9 O -0.210(2) 0.6398(12) 0.6301(19)
O10 O -0.2228(17) 0.8696(9) 0.8143(14)
O11 O -0.8386(13) 0.6198(6) 0.6476(11)
C56 C -0.7369(18) 0.6214(9) 0.6514(14)
O12 O -0.8854(13) 0.4974(7) 0.7372(10)
O13 O -0.7330(17) 0.5150(8) 0.5579(14)
loop_
_geom_bond_atom_site_label_1
_geom_bond_atom_site_label_2
_geom_bond_site_symmetry_1
_geom_bond_site_symmetry_2
Er1 N4 1_555 1_555
Ru1 N1 1_555 1_555
Ru2 N6 1_555 1_555
N1 C1 1_555 1_555
N2 Ru1 1_555 1_555
N3 C13 1_555 1_555
N4 C14 1_555 1_555
N5 C15 1_555 1_555
N6 C16 1_555 1_555
N7 Ru2 1_555 1_555
N8 C28 1_555 1_555
N9 Er1 1_555 1_555
N10 C31 1_555 1_555
N11 C30 1_555 1_555
N12 Er1 1_555 1_555
N13 Er1 1_555 1_555
N14 Er1 1_555 1_555
N15 Er1 1_555 1_555
C1 H1 1_555 1_555
C2 C1 1_555 1_555
H2 C2 1_555 1_555
C3 C2 1_555 1_555
H3 C3 1_555 1_555
C4 C3 1_555 1_555
C5 C4 1_555 1_555
H4 C5 1_555 1_555
C6 C5 1_555 1_555
H5 C6 1_555 1_555
C7 C6 1_555 1_555
C8 C7 1_555 1_555
H6 C8 1_555 1_555
C9 C8 1_555 1_555
H7 C9 1_555 1_555
C10 N2 1_555 1_555
H8 C10 1_555 1_555
C11 N2 1_555 1_555
C12 N1 1_555 1_555
C13 Ru1 1_555 1_555
C14 Ru1 1_555 1_555
C15 Ru1 1_555 1_555
C16 H9 1_555 1_555
C17 C16 1_555 1_555
H10 C17 1_555 1_555
C18 C17 1_555 1_555
H11 C18 1_555 1_555
C19 C18 1_555 1_555
C20 C19 1_555 1_555
H12 C20 1_555 1_555
C21 C20 1_555 1_555
H13 C21 1_555 1_555
C22 C21 1_555 1_555
C23 C22 1_555 1_555
H14 C23 1_555 1_555
C24 C23 1_555 1_555
H15 C24 1_555 1_555
C25 N7 1_555 1_555
H16 C25 1_555 1_555
C26 N7 1_555 1_555
C27 N6 1_555 1_555
C28 Ru2 1_555 1_555
C29 Ru2 1_555 1_555
C30 Ru2 1_555 1_555
C31 Ru2 1_555 1_555
C32 N12 1_555 1_555
H17 C32 1_555 1_555
C33 C32 1_555 1_555
H18 C33 1_555 1_555
C34 C33 1_555 1_555
H19 C34 1_555 1_555
C35 C34 1_555 1_555
C36 C35 1_555 1_555
H20 C36 1_555 1_555
C37 C36 1_555 1_555
H21 C37 1_555 1_555
C38 C37 1_555 1_555
C39 C38 1_555 1_555
H22 C39 1_555 1_555
C40 C39 1_555 1_555
H23 C40 1_555 1_555
C41 N13 1_555 1_555
H24 C41 1_555 1_555
C42 N13 1_555 1_555
C43 N12 1_555 1_555
C44 N14 1_555 1_555
H25 C44 1_555 1_555
C45 C44 1_555 1_555
H26 C45 1_555 1_555
C46 C45 1_555 1_555
H27 C46 1_555 1_555
C47 C46 1_555 1_555
C48 C47 1_555 1_555
H28 C48 1_555 1_555
C49 C48 1_555 1_555
H29 C49 1_555 1_555
C50 C49 1_555 1_555
C51 C50 1_555 1_555
H30 C51 1_555 1_555
C52 C51 1_555 1_555
H31 C52 1_555 1_555
C53 N15 1_555 1_555
H32 C53 1_555 1_555
C54 N15 1_555 1_555
C55 N14 1_555 1_555
O1 Er1 1_555 1_555
H33 O1 1_555 1_555
H34 O1 1_555 1_555
O11 C56 1_555 1_555
N16 Er1 1_555 1_555
C57 Ru1 1_555 1_555
Er1B N4B 1_555 1_555
Ru1B N1B 1_555 1_555
Ru2B N6B 1_555 1_555
N1B C1B 1_555 1_555
N2B Ru1B 1_555 1_555
N3B C13B 1_555 1_555
N4B C14B 1_555 1_555
N5B C15B 1_555 1_555
N6B C16B 1_555 1_555
N7B Ru2B 1_555 1_555
N8B C28B 1_555 1_555
N9B Er1B 1_555 1_555
N10B C31B 1_555 1_555
N11B C30B 1_555 1_555
N12B Er1B 1_555 1_555
N13B Er1B 1_555 1_555
N14B Er1B 1_555 1_555
N15B Er1B 1_555 1_555
C1B H1B 1_555 1_555
C2B C1B 1_555 1_555
H2B C2B 1_555 1_555
C3B C2B 1_555 1_555
H3B C3B 1_555 1_555
C4B C3B 1_555 1_555
C5B C4B 1_555 1_555
H4B C5B 1_555 1_555
C6B C5B 1_555 1_555
H5B C6B 1_555 1_555
C7B C6B 1_555 1_555
C8B C7B 1_555 1_555
H6B C8B 1_555 1_555
C9B C8B 1_555 1_555
H7B C9B 1_555 1_555
C10B N2B 1_555 1_555
H8B C10B 1_555 1_555
C11B N2B 1_555 1_555
C12B N1B 1_555 1_555
C13B Ru1B 1_555 1_555
C14B Ru1B 1_555 1_555
C15B Ru1B 1_555 1_555
C16B H9B 1_555 1_555
C17B C16B 1_555 1_555
H10B C17B 1_555 1_555
C18B C17B 1_555 1_555
H11B C18B 1_555 1_555
C19B C18B 1_555 1_555
C20B C19B 1_555 1_555
H12B C20B 1_555 1_555
C21B C20B 1_555 1_555
H13B C21B 1_555 1_555
C22B C21B 1_555 1_555
C23B C22B 1_555 1_555
H14B C23B 1_555 1_555
C24B C23B 1_555 1_555
H15B C24B 1_555 1_555
C25B N7B 1_555 1_555
H16B C25B 1_555 1_555
C26B N7B 1_555 1_555
C27B N6B 1_555 1_555
C28B Ru2B 1_555 1_555
C29B Ru2B 1_555 1_555
C30B Ru2B 1_555 1_555
C31B Ru2B 1_555 1_555
C32B N12B 1_555 1_555
H17B C32B 1_555 1_555
C33B C32B 1_555 1_555
H18B C33B 1_555 1_555
C34B C33B 1_555 1_555
H19B C34B 1_555 1_555
C35B C34B 1_555 1_555
C36B C35B 1_555 1_555
H20B C36B 1_555 1_555
C37B C36B 1_555 1_555
H21B C37B 1_555 1_555
C38B C37B 1_555 1_555
C39B C38B 1_555 1_555
H22B C39B 1_555 1_555
C40B C39B 1_555 1_555
H23B C40B 1_555 1_555
C41B N13B 1_555 1_555
H24B C41B 1_555 1_555
C42B N13B 1_555 1_555
C43B N12B 1_555 1_555
C44B N14B 1_555 1_555
H25B C44B 1_555 1_555
C45B C44B 1_555 1_555
H26B C45B 1_555 1_555
C46B C45B 1_555 1_555
H27B C46B 1_555 1_555
C47B C46B 1_555 1_555
C48B C47B 1_555 1_555
H28B C48B 1_555 1_555
C49B C48B 1_555 1_555
H29B C49B 1_555 1_555
C50B C49B 1_555 1_555
C51B C50B 1_555 1_555
H30B C51B 1_555 1_555
C52B C51B 1_555 1_555
H31B C52B 1_555 1_555
C53B N15B 1_555 1_555
H32B C53B 1_555 1_555
C54B N15B 1_555 1_555
C55B N14B 1_555 1_555
O1B Er1B 1_555 1_555
H33B O1B 1_555 1_555
H34B O1B 1_555 1_555
N16B C57 1_555 1_555
C57B N16 1_555 1_555
N9 C29 1_555 1_555
C4 C12 1_555 1_555
C7 C11 1_555 1_555
C9 C10 1_555 1_555
C11 C12 1_555 1_555
C19 C27 1_555 1_555
C22 C26 1_555 1_555
C24 C25 1_555 1_555
C26 C27 1_555 1_555
C35 C43 1_555 1_555
C38 C42 1_555 1_555
C40 C41 1_555 1_555
C42 C43 1_555 1_555
C47 C55 1_555 1_555
C50 C54 1_555 1_555
C52 C53 1_555 1_555
C54 C55 1_555 1_555
Er1B N16B 1_555 1_555
Ru1B C57B 1_555 1_555
N9B C29B 1_555 1_555
C4B C12B 1_555 1_555
C7B C11B 1_555 1_555
C9B C10B 1_555 1_555
C11B C12B 1_555 1_555
C19B C27B 1_555 1_555
C22B C26B 1_555 1_555
C24B C25B 1_555 1_555
C26B C27B 1_555 1_555
C35B C43B 1_555 1_555
C38B C42B 1_555 1_555
C40B C41B 1_555 1_555
C42B C43B 1_555 1_555
C47B C55B 1_555 1_555
C50B C54B 1_555 1_555
C52B C53B 1_555 1_555
C54B C55B 1_555 1_555

#END
