
#######################################################################
#
#                 Cambridge Crystallographic Data Centre
#                                CCDC 
#
#######################################################################
#
# If this CIF has been generated from an entry in the Cambridge 
# Structural Database, then it will include bibliographic, chemical, 
# crystal, experimental, refinement or atomic coordinate data resulting 
# from the CCDC's data processing and validation procedures.
#
#######################################################################

data_UDUJOT
_chemical_formula_moiety         
'C112 H68 N32 O2 Pr2 Ru4 2-,2(K1 1+),4(C1 H4 O1),13(H2 O1)'
_chemical_name_systematic        
'Di-potassium hexakis(\m~2~-cyano)-diaqua-decacyano-octakis(1,10-phenanthroline)-di-praseodymium(iii)-tetra-ruthenium(ii) methanol solvate tridecahydrate'
_symmetry_cell_setting           monoclinic
_symmetry_space_group_name_H-M   'P 21/c'
_symmetry_Int_Tables_number      14
_space_group_name_Hall           '-P 2ybc'
loop_
_symmetry_equiv_pos_site_id
_symmetry_equiv_pos_as_xyz
1 x,y,z
2 -x,1/2+y,1/2-z
3 -x,-y,-z
4 x,1/2-y,1/2+z
_cell_length_a                   14.400(3)
_cell_length_b                   28.050(6)
_cell_length_c                   17.400(4)
_cell_angle_alpha                90
_cell_angle_beta                 100.91(3)
_cell_angle_gamma                90
_cell_volume                     6901.18
_exptl_crystal_colour            red
_exptl_crystal_description       block
_cell_formula_units_Z            2
loop_
_atom_site_label
_atom_site_type_symbol
_atom_site_fract_x
_atom_site_fract_y
_atom_site_fract_z
Pr1 Pr 0.76314(3) 0.020493(14) 0.14790(3)
Ru1 Ru 0.43099(4) 0.12448(2) 0.03460(4)
Ru2 Ru 0.93047(5) -0.13196(2) 0.32482(4)
C1 C 0.2399(6) 0.1658(3) -0.0576(5)
H1 H 0.2264 0.1345 -0.0776
C2 C 0.1749(6) 0.2020(3) -0.0826(5)
H2 H 0.1185 0.1953 -0.1191
C3 C 0.1928(7) 0.2471(4) -0.0543(6)
H3 H 0.1487 0.2719 -0.0712
C4 C 0.2750(6) 0.2570(3) -0.0008(6)
C5 C 0.2998(9) 0.3030(4) 0.0360(7)
H4 H 0.2576 0.3290 0.0227
C6 C 0.3792(9) 0.3100(3) 0.0875(8)
H5 H 0.3917 0.3406 0.1106
C7 C 0.4471(8) 0.2721(3) 0.1093(7)
C8 C 0.5294(9) 0.2767(4) 0.1642(9)
H6 H 0.5445 0.3062 0.1906
C9 C 0.5897(8) 0.2383(4) 0.1803(8)
H7 H 0.6477 0.2413 0.2166
C10 C 0.5649(6) 0.1950(4) 0.1431(7)
H8 H 0.6068 0.1687 0.1551
C11 C 0.4248(6) 0.2266(3) 0.0755(6)
C12 C 0.3380(6) 0.2189(3) 0.0210(6)
C13 C 0.5450(6) 0.0862(3) 0.0732(5)
C14 C 0.3653(5) 0.0685(3) -0.0178(5)
C15 C 0.4842(6) 0.1379(3) -0.0640(6)
C16 C 0.3817(6) 0.1088(3) 0.1345(6)
C17 C 0.7422(7) -0.1822(3) 0.2474(6)
H9 H 0.7237 -0.1525 0.2230
C18 C 0.6808(8) -0.2213(4) 0.2301(7)
H10 H 0.6223 -0.2181 0.1946
C19 C 0.7075(10) -0.2646(4) 0.2661(8)
H11 H 0.6675 -0.2917 0.2546
C20 C 0.7921(9) -0.2685(3) 0.3188(8)
C21 C 0.8281(12) -0.3131(4) 0.3610(9)
H12 H 0.7938 -0.3420 0.3498
C22 C 0.9081(12) -0.3128(4) 0.4144(9)
H13 H 0.9286 -0.3416 0.4409
C23 C 0.9628(9) -0.2718(4) 0.4327(7)
C24 C 1.0439(11) -0.2696(5) 0.4907(7)
H14 H 1.0637 -0.2969 0.5219
C25 C 1.0954(10) -0.2284(5) 0.5031(7)
H15 H 1.1512 -0.2271 0.5422
C26 C 1.0652(9) -0.1879(4) 0.4576(6)
H16 H 1.1021 -0.1597 0.4662
C27 C 0.9351(8) -0.2285(3) 0.3901(6)
C28 C 0.8481(8) -0.2278(3) 0.3327(6)
C29 C 0.8703(6) -0.0854(3) 0.2469(5)
C30 C 0.8580(7) -0.1035(3) 0.4039(5)
C31 C 1.0023(6) -0.1630(3) 0.2473(5)
C32 C 1.0367(8) -0.0864(4) 0.3587(6)
C33 C 0.8600(7) 0.0191(3) 0.3486(5)
H17 H 0.8296 -0.0111 0.3427
C34 C 0.9174(9) 0.0292(4) 0.4202(6)
H18 H 0.9244 0.0069 0.4619
C35 C 0.9635(8) 0.0719(4) 0.4293(6)
H19 H 1.0045 0.0792 0.4773
C36 C 0.9504(7) 0.1052(3) 0.3674(5)
C37 C 0.9941(8) 0.1517(4) 0.3726(6)
H20 H 1.0408 0.1592 0.4173
C38 C 0.9708(7) 0.1849(4) 0.3161(6)
H21 H 0.9981 0.2158 0.3228
C39 C 0.9039(6) 0.1733(3) 0.2449(5)
C40 C 0.8743(6) 0.2071(3) 0.1868(6)
H22 H 0.8982 0.2387 0.1923
C41 C 0.8102(6) 0.1940(3) 0.1217(6)
H23 H 0.7860 0.2169 0.0828
C42 C 0.7807(6) 0.1458(3) 0.1132(5)
H24 H 0.7400 0.1365 0.0660
C43 C 0.8672(5) 0.1265(3) 0.2349(5)
C44 C 0.8885(5) 0.0923(3) 0.2979(5)
C45 C 1.0149(5) 0.0150(3) 0.2041(5)
H25 H 0.9959 0.0020 0.2492
C46 C 1.1117(6) 0.0199(3) 0.2052(6)
H26 H 1.1568 0.0107 0.2499
C47 C 1.1405(6) 0.0384(3) 0.1399(6)
H27 H 1.2058 0.0424 0.1391
C48 C 1.0713(6) 0.0512(3) 0.0743(5)
C49 C 1.0954(7) 0.0696(3) 0.0021(6)
H28 H 1.1600 0.0729 -0.0019
C50 C 1.0292(7) 0.0816(3) -0.0576(6)
H29 H 1.0475 0.0941 -0.1033
C51 C 0.9301(7) 0.0766(3) -0.0565(5)
C52 C 0.8568(8) 0.0884(3) -0.1185(5)
H30 H 0.8715 0.1026 -0.1644
C53 C 0.7652(8) 0.0801(3) -0.1145(6)
H31 H 0.7161 0.0876 -0.1574
C54 C 0.7441(6) 0.0602(3) -0.0457(5)
H32 H 0.6798 0.0541 -0.0433
C55 C 0.9025(6) 0.0575(2) 0.0130(5)
C56 C 0.9760(5) 0.0455(2) 0.0789(5)
N1 N 0.3202(4) 0.1732(2) -0.0069(4)
N2 N 0.4852(5) 0.1888(3) 0.0915(5)
N3 N 0.6147(5) 0.0658(3) 0.0951(5)
N4 N 0.6789(5) -0.0365(2) 0.0491(5)
N5 N 0.5145(7) 0.1430(4) -0.1211(6)
N6 N 0.3584(7) 0.1000(4) 0.1925(6)
N7 N 0.8241(6) -0.1848(2) 0.2959(4)
N8 N 0.9867(6) -0.1875(3) 0.4028(5)
N9 N 0.8332(5) -0.0572(2) 0.2016(4)
N10 N 0.8136(7) -0.0870(3) 0.4475(5)
N11 N 1.0426(5) -0.1834(3) 0.2054(5)
N12 N 1.0998(8) -0.0606(4) 0.3796(6)
N13 N 0.8446(5) 0.0487(2) 0.2876(4)
N14 N 0.8075(4) 0.1128(2) 0.1683(4)
N15 N 0.9475(4) 0.0274(2) 0.1438(4)
N16 N 0.8108(5) 0.0495(2) 0.0169(4)
O1 O 0.6489(5) -0.0017(3) 0.2307(5)
H33 H 0.6598 -0.0296 0.2493
H34 H 0.5972 -0.0079 0.1998
Pr1B Pr 0.23686(3) -0.020493(14) -0.14790(3)
Ru1B Ru 0.56901(4) -0.12448(2) -0.03460(4)
Ru2B Ru 0.06953(5) 0.13196(2) -0.32482(4)
C1B C 0.7601(6) -0.1658(3) 0.0576(5)
H1B H 0.7736 -0.1345 0.0776
C2B C 0.8251(6) -0.2020(3) 0.0826(5)
H2B H 0.8815 -0.1953 0.1191
C3B C 0.8072(7) -0.2471(4) 0.0543(6)
H3B H 0.8513 -0.2719 0.0712
C4B C 0.7250(6) -0.2570(3) 0.0008(6)
C5B C 0.7002(9) -0.3030(4) -0.0360(7)
H4B H 0.7424 -0.3290 -0.0227
C6B C 0.6208(9) -0.3100(3) -0.0875(8)
H5B H 0.6083 -0.3406 -0.1106
C7B C 0.5529(8) -0.2721(3) -0.1093(7)
C8B C 0.4706(9) -0.2767(4) -0.1642(9)
H6B H 0.4555 -0.3062 -0.1906
C9B C 0.4103(8) -0.2383(4) -0.1803(8)
H7B H 0.3523 -0.2413 -0.2166
C10B C 0.4351(6) -0.1950(4) -0.1431(7)
H8B H 0.3932 -0.1687 -0.1551
C11B C 0.5752(6) -0.2266(3) -0.0755(6)
C12B C 0.6620(6) -0.2189(3) -0.0210(6)
C13B C 0.4550(6) -0.0862(3) -0.0732(5)
C14B C 0.6347(5) -0.0685(3) 0.0178(5)
C15B C 0.5158(6) -0.1379(3) 0.0640(6)
C16B C 0.6183(6) -0.1088(3) -0.1345(6)
C17B C 0.2578(7) 0.1822(3) -0.2474(6)
H9B H 0.2763 0.1525 -0.2230
C18B C 0.3192(8) 0.2213(4) -0.2301(7)
H10B H 0.3777 0.2181 -0.1946
C19B C 0.2925(10) 0.2646(4) -0.2661(8)
H11B H 0.3325 0.2917 -0.2546
C20B C 0.2079(9) 0.2685(3) -0.3188(8)
C21B C 0.1719(12) 0.3131(4) -0.3610(9)
H12B H 0.2062 0.3420 -0.3498
C22B C 0.0919(12) 0.3128(4) -0.4144(9)
H13B H 0.0714 0.3416 -0.4409
C23B C 0.0372(9) 0.2718(4) -0.4327(7)
C24B C -0.0439(11) 0.2696(5) -0.4907(7)
H14B H -0.0637 0.2969 -0.5219
C25B C -0.0954(10) 0.2284(5) -0.5031(7)
H15B H -0.1512 0.2271 -0.5422
C26B C -0.0652(9) 0.1879(4) -0.4576(6)
H16B H -0.1021 0.1597 -0.4662
C27B C 0.0649(8) 0.2285(3) -0.3901(6)
C28B C 0.1519(8) 0.2278(3) -0.3327(6)
C29B C 0.1297(6) 0.0854(3) -0.2469(5)
C30B C 0.1420(7) 0.1035(3) -0.4039(5)
C31B C -0.0023(6) 0.1630(3) -0.2473(5)
C32B C -0.0367(8) 0.0864(4) -0.3587(6)
C33B C 0.1400(7) -0.0191(3) -0.3486(5)
H17B H 0.1704 0.0111 -0.3427
C34B C 0.0826(9) -0.0292(4) -0.4202(6)
H18B H 0.0756 -0.0069 -0.4619
C35B C 0.0365(8) -0.0719(4) -0.4293(6)
H19B H -0.0045 -0.0792 -0.4773
C36B C 0.0496(7) -0.1052(3) -0.3674(5)
C37B C 0.0059(8) -0.1517(4) -0.3726(6)
H20B H -0.0408 -0.1592 -0.4173
C38B C 0.0292(7) -0.1849(4) -0.3161(6)
H21B H 0.0019 -0.2158 -0.3228
C39B C 0.0961(6) -0.1733(3) -0.2449(5)
C40B C 0.1257(6) -0.2071(3) -0.1868(6)
H22B H 0.1018 -0.2387 -0.1923
C41B C 0.1898(6) -0.1940(3) -0.1217(6)
H23B H 0.2140 -0.2169 -0.0828
C42B C 0.2193(6) -0.1458(3) -0.1132(5)
H24B H 0.2600 -0.1365 -0.0660
C43B C 0.1328(5) -0.1265(3) -0.2349(5)
C44B C 0.1115(5) -0.0923(3) -0.2979(5)
C45B C -0.0149(5) -0.0150(3) -0.2041(5)
H25B H 0.0041 -0.0020 -0.2492
C46B C -0.1117(6) -0.0199(3) -0.2052(6)
H26B H -0.1568 -0.0107 -0.2499
C47B C -0.1405(6) -0.0384(3) -0.1399(6)
H27B H -0.2058 -0.0424 -0.1391
C48B C -0.0713(6) -0.0512(3) -0.0743(5)
C49B C -0.0954(7) -0.0696(3) -0.0021(6)
H28B H -0.1600 -0.0729 0.0019
C50B C -0.0292(7) -0.0816(3) 0.0576(6)
H29B H -0.0475 -0.0941 0.1033
C51B C 0.0699(7) -0.0766(3) 0.0565(5)
C52B C 0.1432(8) -0.0884(3) 0.1185(5)
H30B H 0.1285 -0.1026 0.1644
C53B C 0.2348(8) -0.0801(3) 0.1145(6)
H31B H 0.2839 -0.0876 0.1574
C54B C 0.2559(6) -0.0602(3) 0.0457(5)
H32B H 0.3202 -0.0541 0.0433
C55B C 0.0975(6) -0.0575(2) -0.0130(5)
C56B C 0.0240(5) -0.0455(2) -0.0789(5)
N1B N 0.6798(4) -0.1732(2) 0.0069(4)
N2B N 0.5148(5) -0.1888(3) -0.0915(5)
N3B N 0.3853(5) -0.0658(3) -0.0951(5)
N4B N 0.3211(5) 0.0365(2) -0.0491(5)
N5B N 0.4855(7) -0.1430(4) 0.1211(6)
N6B N 0.6416(7) -0.1000(4) -0.1925(6)
N7B N 0.1759(6) 0.1848(2) -0.2959(4)
N8B N 0.0133(6) 0.1875(3) -0.4028(5)
N9B N 0.1668(5) 0.0572(2) -0.2016(4)
N10B N 0.1864(7) 0.0870(3) -0.4475(5)
N11B N -0.0426(5) 0.1834(3) -0.2054(5)
N12B N -0.0998(8) 0.0606(4) -0.3796(6)
N13B N 0.1554(5) -0.0487(2) -0.2876(4)
N14B N 0.1925(4) -0.1128(2) -0.1683(4)
N15B N 0.0525(4) -0.0274(2) -0.1438(4)
N16B N 0.1892(5) -0.0495(2) -0.0169(4)
O1B O 0.3511(5) 0.0017(3) -0.2307(5)
H33B H 0.3402 0.0296 -0.2493
H34B H 0.4028 0.0079 -0.1998
K1 K 0.3675(4) 0.0087(2) 0.4135(4)
C57 C 0.5100(14) 0.2154(9) 0.4004(14)
H35 H 0.5067 0.2279 0.3473
H36 H 0.4712 0.2353 0.4283
H37 H 0.4864 0.1826 0.3975
O2 O 0.6119(11) 0.2163(5) 0.4437(10)
H38 H 0.6403 0.1988 0.4156
C58 C 0.2259(17) 0.1248(9) 0.3402(12)
H39 H 0.2174 0.1591 0.3464
H40 H 0.2035 0.1077 0.3823
H41 H 0.1896 0.1144 0.2895
O3 O 0.3263(18) 0.1144(9) 0.3438(9)
H42 H 0.3477 0.0989 0.3845
O4 O 0.3658(11) 0.0556(6) 0.6476(11)
O5 O 0.6156(13) 0.0001(6) 0.7385(13)
O6 O 0.260(2) -0.0876(13) 0.5185(15)
O7 O 0.7719(8) 0.2051(6) 0.8004(10)
O8 O 0.5285(13) 0.1039(5) 0.7322(9)
O9 O 0.6887(6) 0.1970(4) -0.0693(6)
H43 H 0.6888 0.2040 -0.1170
H44 H 0.6635 0.2170 -0.0424
O10 O 0.634(3) 0.1458(12) 0.5433(13)
O11 O 0.709(2) 0.157(2) 0.3493(19)
O12 O 0.5262(8) 0.0234(4) 0.8748(7)
O13 O 0.7196(15) 0.1302(12) 0.6889(12)
K2? K 0.4870(4) 0.0097(3) 0.5726(5)
K3? K 0.4086(3) -0.01025(16) 0.5002(3)
O14? O 0.2196(16) 0.0170(7) 0.4420(13)
loop_
_geom_bond_atom_site_label_1
_geom_bond_atom_site_label_2
_geom_bond_site_symmetry_1
_geom_bond_site_symmetry_2
Pr1 N3 1_555 1_555
Ru1 C13 1_555 1_555
Ru2 C29 1_555 1_555
C1 H1 1_555 1_555
C2 C1 1_555 1_555
H2 C2 1_555 1_555
C3 C2 1_555 1_555
H3 C3 1_555 1_555
C4 C3 1_555 1_555
C5 C4 1_555 1_555
H4 C5 1_555 1_555
C6 C5 1_555 1_555
H5 C6 1_555 1_555
C7 C6 1_555 1_555
C8 C7 1_555 1_555
H6 C8 1_555 1_555
C9 C8 1_555 1_555
H7 C9 1_555 1_555
C10 C9 1_555 1_555
H8 C10 1_555 1_555
C11 C7 1_555 1_555
C12 C4 1_555 1_555
C13 N3 1_555 1_555
C14 Ru1 1_555 1_555
C15 Ru1 1_555 1_555
C16 Ru1 1_555 1_555
C17 H9 1_555 1_555
C18 C17 1_555 1_555
H10 C18 1_555 1_555
C19 C18 1_555 1_555
H11 C19 1_555 1_555
C20 C19 1_555 1_555
C21 C20 1_555 1_555
H12 C21 1_555 1_555
C22 C21 1_555 1_555
H13 C22 1_555 1_555
C23 C22 1_555 1_555
C24 C23 1_555 1_555
H14 C24 1_555 1_555
C25 C24 1_555 1_555
H15 C25 1_555 1_555
C26 C25 1_555 1_555
H16 C26 1_555 1_555
C27 C23 1_555 1_555
C28 C20 1_555 1_555
C29 N9 1_555 1_555
C30 Ru2 1_555 1_555
C31 Ru2 1_555 1_555
C32 Ru2 1_555 1_555
C33 H17 1_555 1_555
C34 C33 1_555 1_555
H18 C34 1_555 1_555
C35 C34 1_555 1_555
H19 C35 1_555 1_555
C36 C35 1_555 1_555
C37 C36 1_555 1_555
H20 C37 1_555 1_555
C38 C37 1_555 1_555
H21 C38 1_555 1_555
C39 C38 1_555 1_555
C40 C39 1_555 1_555
H22 C40 1_555 1_555
C41 C40 1_555 1_555
H23 C41 1_555 1_555
C42 C41 1_555 1_555
H24 C42 1_555 1_555
C43 C39 1_555 1_555
C44 C36 1_555 1_555
C45 H25 1_555 1_555
C46 C45 1_555 1_555
H26 C46 1_555 1_555
C47 C46 1_555 1_555
H27 C47 1_555 1_555
C48 C47 1_555 1_555
C49 C48 1_555 1_555
H28 C49 1_555 1_555
C50 C49 1_555 1_555
H29 C50 1_555 1_555
C51 C50 1_555 1_555
C52 C51 1_555 1_555
H30 C52 1_555 1_555
C53 C52 1_555 1_555
H31 C53 1_555 1_555
C54 C53 1_555 1_555
H32 C54 1_555 1_555
C55 C51 1_555 1_555
C56 C48 1_555 1_555
N1 Ru1 1_555 1_555
N2 Ru1 1_555 1_555
N4 Pr1 1_555 1_555
N5 C15 1_555 1_555
N6 C16 1_555 1_555
N7 Ru2 1_555 1_555
N8 Ru2 1_555 1_555
N9 Pr1 1_555 1_555
N10 C30 1_555 1_555
N11 C31 1_555 1_555
N12 C32 1_555 1_555
N13 Pr1 1_555 1_555
N14 Pr1 1_555 1_555
N15 Pr1 1_555 1_555
N16 Pr1 1_555 1_555
O1 Pr1 1_555 1_555
H33 O1 1_555 1_555
H34 O1 1_555 1_555
C57 H35 1_555 1_555
H36 C57 1_555 1_555
H37 C57 1_555 1_555
O2 C57 1_555 1_555
H38 O2 1_555 1_555
C58 H39 1_555 1_555
H40 C58 1_555 1_555
H41 C58 1_555 1_555
O3 C58 1_555 1_555
H42 O3 1_555 1_555
O9 H43 1_555 1_555
H44 O9 1_555 1_555
Pr1B N3B 1_555 1_555
Ru1B C13B 1_555 1_555
Ru2B C29B 1_555 1_555
C1B H1B 1_555 1_555
C2B C1B 1_555 1_555
H2B C2B 1_555 1_555
C3B C2B 1_555 1_555
H3B C3B 1_555 1_555
C4B C3B 1_555 1_555
C5B C4B 1_555 1_555
H4B C5B 1_555 1_555
C6B C5B 1_555 1_555
H5B C6B 1_555 1_555
C7B C6B 1_555 1_555
C8B C7B 1_555 1_555
H6B C8B 1_555 1_555
C9B C8B 1_555 1_555
H7B C9B 1_555 1_555
C10B C9B 1_555 1_555
H8B C10B 1_555 1_555
C11B C7B 1_555 1_555
C12B C4B 1_555 1_555
C13B N3B 1_555 1_555
C14B N4 1_555 1_555
C15B Ru1B 1_555 1_555
C16B Ru1B 1_555 1_555
C17B H9B 1_555 1_555
C18B C17B 1_555 1_555
H10B C18B 1_555 1_555
C19B C18B 1_555 1_555
H11B C19B 1_555 1_555
C20B C19B 1_555 1_555
C21B C20B 1_555 1_555
H12B C21B 1_555 1_555
C22B C21B 1_555 1_555
H13B C22B 1_555 1_555
C23B C22B 1_555 1_555
C24B C23B 1_555 1_555
H14B C24B 1_555 1_555
C25B C24B 1_555 1_555
H15B C25B 1_555 1_555
C26B C25B 1_555 1_555
H16B C26B 1_555 1_555
C27B C23B 1_555 1_555
C28B C20B 1_555 1_555
C29B N9B 1_555 1_555
C30B Ru2B 1_555 1_555
C31B Ru2B 1_555 1_555
C32B Ru2B 1_555 1_555
C33B H17B 1_555 1_555
C34B C33B 1_555 1_555
H18B C34B 1_555 1_555
C35B C34B 1_555 1_555
H19B C35B 1_555 1_555
C36B C35B 1_555 1_555
C37B C36B 1_555 1_555
H20B C37B 1_555 1_555
C38B C37B 1_555 1_555
H21B C38B 1_555 1_555
C39B C38B 1_555 1_555
C40B C39B 1_555 1_555
H22B C40B 1_555 1_555
C41B C40B 1_555 1_555
H23B C41B 1_555 1_555
C42B C41B 1_555 1_555
H24B C42B 1_555 1_555
C43B C39B 1_555 1_555
C44B C36B 1_555 1_555
C45B H25B 1_555 1_555
C46B C45B 1_555 1_555
H26B C46B 1_555 1_555
C47B C46B 1_555 1_555
H27B C47B 1_555 1_555
C48B C47B 1_555 1_555
C49B C48B 1_555 1_555
H28B C49B 1_555 1_555
C50B C49B 1_555 1_555
H29B C50B 1_555 1_555
C51B C50B 1_555 1_555
C52B C51B 1_555 1_555
H30B C52B 1_555 1_555
C53B C52B 1_555 1_555
H31B C53B 1_555 1_555
C54B C53B 1_555 1_555
H32B C54B 1_555 1_555
C55B C51B 1_555 1_555
C56B C48B 1_555 1_555
N1B Ru1B 1_555 1_555
N2B Ru1B 1_555 1_555
N4B C14 1_555 1_555
N5B C15B 1_555 1_555
N6B C16B 1_555 1_555
N7B Ru2B 1_555 1_555
N8B Ru2B 1_555 1_555
N9B Pr1B 1_555 1_555
N10B C30B 1_555 1_555
N11B C31B 1_555 1_555
N12B C32B 1_555 1_555
N13B Pr1B 1_555 1_555
N14B Pr1B 1_555 1_555
N15B Pr1B 1_555 1_555
N16B Pr1B 1_555 1_555
O1B Pr1B 1_555 1_555
H33B O1B 1_555 1_555
H34B O1B 1_555 1_555
C1 N1 1_555 1_555
C10 N2 1_555 1_555
C11 C12 1_555 1_555
C11 N2 1_555 1_555
C12 N1 1_555 1_555
C17 N7 1_555 1_555
C26 N8 1_555 1_555
C27 C28 1_555 1_555
C27 N8 1_555 1_555
C28 N7 1_555 1_555
C33 N13 1_555 1_555
C42 N14 1_555 1_555
C43 C44 1_555 1_555
C43 N14 1_555 1_555
C44 N13 1_555 1_555
C45 N15 1_555 1_555
C54 N16 1_555 1_555
C55 C56 1_555 1_555
C55 N16 1_555 1_555
C56 N15 1_555 1_555
Pr1B N4B 1_555 1_555
Ru1B C14B 1_555 1_555
C1B N1B 1_555 1_555
C10B N2B 1_555 1_555
C11B C12B 1_555 1_555
C11B N2B 1_555 1_555
C12B N1B 1_555 1_555
C17B N7B 1_555 1_555
C26B N8B 1_555 1_555
C27B C28B 1_555 1_555
C27B N8B 1_555 1_555
C28B N7B 1_555 1_555
C33B N13B 1_555 1_555
C42B N14B 1_555 1_555
C43B C44B 1_555 1_555
C43B N14B 1_555 1_555
C44B N13B 1_555 1_555
C45B N15B 1_555 1_555
C54B N16B 1_555 1_555
C55B C56B 1_555 1_555
C55B N16B 1_555 1_555
C56B N15B 1_555 1_555

#END
