# generated using pymatgen
data_Co8B15P2H304C352N72O8F61
_symmetry_space_group_name_H-M   'P 1'
_cell_length_a   30.17860000
_cell_length_b   32.88260000
_cell_length_c   40.07320000
_cell_angle_alpha   96.49800000
_cell_angle_beta   90.00000000
_cell_angle_gamma   90.00000000
_symmetry_Int_Tables_number   1
_chemical_formula_structural   Co8B15P2H304C352N72O8F61
_chemical_formula_sum   'Co32 B60 P8 H1216 C1408 N288 O32 F244'
_cell_volume   39511.20457504
_cell_formula_units_Z   4
loop_
 _symmetry_equiv_pos_site_id
 _symmetry_equiv_pos_as_xyz
  1  'x, y, z'
loop_
 _atom_site_type_symbol
 _atom_site_label
 _atom_site_symmetry_multiplicity
 _atom_site_fract_x
 _atom_site_fract_y
 _atom_site_fract_z
 _atom_site_occupancy
  Co  Co1  1  0.958610  0.234020  0.384240  1.0
  Co  Co2  1  0.958610  0.765980  0.115760  1.0
  Co  Co3  1  0.458610  0.734020  0.384240  1.0
  Co  Co4  1  0.458610  0.265980  0.115760  1.0
  Co  Co5  1  0.041390  0.765980  0.615760  1.0
  Co  Co6  1  0.041390  0.234020  0.884240  1.0
  Co  Co7  1  0.541390  0.265980  0.615760  1.0
  Co  Co8  1  0.541390  0.734020  0.884240  1.0
  Co  Co9  1  0.286090  0.355610  0.276240  1.0
  Co  Co10  1  0.286090  0.644390  0.223760  1.0
  Co  Co11  1  0.786090  0.855610  0.276240  1.0
  Co  Co12  1  0.786090  0.144390  0.223760  1.0
  Co  Co13  1  0.713910  0.644390  0.723760  1.0
  Co  Co14  1  0.713910  0.355610  0.776240  1.0
  Co  Co15  1  0.213910  0.144390  0.723760  1.0
  Co  Co16  1  0.213910  0.855610  0.776240  1.0
  Co  Co17  1  0.016520  0.401270  0.638860  1.0
  Co  Co18  1  0.016520  0.598730  0.861140  1.0
  Co  Co19  1  0.516520  0.901270  0.638860  1.0
  Co  Co20  1  0.516520  0.098730  0.861140  1.0
  Co  Co21  1  0.983480  0.598730  0.361140  1.0
  Co  Co22  1  0.983480  0.401270  0.138860  1.0
  Co  Co23  1  0.483480  0.098730  0.361140  1.0
  Co  Co24  1  0.483480  0.901270  0.138860  1.0
  Co  Co25  1  0.158250  0.986900  0.464970  1.0
  Co  Co26  1  0.158250  0.013100  0.035030  1.0
  Co  Co27  1  0.658250  0.486900  0.464970  1.0
  Co  Co28  1  0.658250  0.513100  0.035030  1.0
  Co  Co29  1  0.841750  0.013100  0.535030  1.0
  Co  Co30  1  0.841750  0.986900  0.964970  1.0
  Co  Co31  1  0.341750  0.513100  0.535030  1.0
  Co  Co32  1  0.341750  0.486900  0.964970  1.0
  B  B33  1  0.262100  0.708500  0.684900  1
  B  B34  1  0.262100  0.291500  0.815100  1
  B  B35  1  0.762100  0.208500  0.684900  1
  B  B36  1  0.762100  0.791500  0.815100  1
  B  B37  1  0.737900  0.291500  0.315100  1
  B  B38  1  0.737900  0.708500  0.184900  1
  B  B39  1  0.237900  0.791500  0.315100  1
  B  B40  1  0.237900  0.208500  0.184900  1
  B  B41  1  0.095950  0.564840  0.529990  1
  B  B42  1  0.095950  0.435160  0.970010  1
  B  B43  1  0.595950  0.064840  0.529990  1
  B  B44  1  0.595950  0.935160  0.970010  1
  B  B45  1  0.904050  0.435160  0.470010  1
  B  B46  1  0.904050  0.564840  0.029990  1
  B  B47  1  0.404050  0.935160  0.470010  1
  B  B48  1  0.404050  0.064840  0.029990  1
  B  B49  1  0.452520  0.324600  0.432420  1
  B  B50  1  0.452520  0.675400  0.067580  1
  B  B51  1  0.952520  0.824600  0.432420  1
  B  B52  1  0.952520  0.175400  0.067580  1
  B  B53  1  0.547480  0.675400  0.567580  1
  B  B54  1  0.547480  0.324600  0.932420  1
  B  B55  1  0.047480  0.175400  0.567580  1
  B  B56  1  0.047480  0.824600  0.932420  1
  B  B57  1  0.442390  0.510080  0.347650  1
  B  B58  1  0.442390  0.489920  0.152350  1
  B  B59  1  0.942390  0.010080  0.347650  1
  B  B60  1  0.942390  0.989920  0.152350  1
  B  B61  1  0.557610  0.489920  0.652350  1
  B  B62  1  0.557610  0.510080  0.847650  1
  B  B63  1  0.057610  0.989920  0.652350  1
  B  B64  1  0.057610  0.010080  0.847650  1
  B  B65  1  0.271100  0.351000  0.658500  1
  B  B66  1  0.271100  0.649000  0.841500  1
  B  B67  1  0.771100  0.851000  0.658500  1
  B  B68  1  0.771100  0.149000  0.841500  1
  B  B69  1  0.728900  0.649000  0.341500  1
  B  B70  1  0.728900  0.351000  0.158500  1
  B  B71  1  0.228900  0.149000  0.341500  1
  B  B72  1  0.228900  0.851000  0.158500  1
  B  B73  1  0.037400  0.557900  0.714800  1
  B  B74  1  0.037400  0.442100  0.785200  1
  B  B75  1  0.537400  0.057900  0.714800  1
  B  B76  1  0.537400  0.942100  0.785200  1
  B  B77  1  0.962600  0.442100  0.285200  1
  B  B78  1  0.962600  0.557900  0.214800  1
  B  B79  1  0.462600  0.942100  0.285200  1
  B  B80  1  0.462600  0.057900  0.214800  1
  B  B81  1  0.334400  0.130600  0.551150  1
  B  B82  1  0.334400  0.869400  0.948850  1
  B  B83  1  0.834400  0.630600  0.551150  1
  B  B84  1  0.834400  0.369400  0.948850  1
  B  B85  1  0.665600  0.869400  0.448850  1
  B  B86  1  0.665600  0.130600  0.051150  1
  B  B87  1  0.165600  0.369400  0.448850  1
  B  B88  1  0.165600  0.630600  0.051150  1
  B  B89  1  0.177000  0.500000  0.250000  1
  B  B90  1  0.677000  0.000000  0.250000  1
  B  B91  1  0.823000  0.500000  0.750000  1
  B  B92  1  0.323000  0.000000  0.750000  1
  P  P93  1  0.203560  0.191440  0.497930  1.0
  P  P94  1  0.203560  0.808560  0.002070  1.0
  P  P95  1  0.703560  0.691440  0.497930  1.0
  P  P96  1  0.703560  0.308560  0.002070  1.0
  P  P97  1  0.796440  0.808560  0.502070  1.0
  P  P98  1  0.796440  0.191440  0.997930  1.0
  P  P99  1  0.296440  0.308560  0.502070  1.0
  P  P100  1  0.296440  0.691440  0.997930  1.0
  H  H101  1  0.126900  0.206900  0.489600  1
  H  H102  1  0.126900  0.793100  0.010400  1
  H  H103  1  0.626900  0.706900  0.489600  1
  H  H104  1  0.626900  0.293100  0.010400  1
  H  H105  1  0.873100  0.793100  0.510400  1
  H  H106  1  0.873100  0.206900  0.989600  1
  H  H107  1  0.373100  0.293100  0.510400  1
  H  H108  1  0.373100  0.706900  0.989600  1
  H  H109  1  0.134500  0.197800  0.527800  1
  H  H110  1  0.134500  0.802200  0.972200  1
  H  H111  1  0.634500  0.697800  0.527800  1
  H  H112  1  0.634500  0.302200  0.972200  1
  H  H113  1  0.865500  0.802200  0.472200  1
  H  H114  1  0.865500  0.197800  0.027800  1
  H  H115  1  0.365500  0.302200  0.472200  1
  H  H116  1  0.365500  0.697800  0.027800  1
  H  H117  1  0.121900  0.269200  0.526300  1
  H  H118  1  0.121900  0.730800  0.973700  1
  H  H119  1  0.621900  0.769200  0.526300  1
  H  H120  1  0.621900  0.230800  0.973700  1
  H  H121  1  0.878100  0.730800  0.473700  1
  H  H122  1  0.878100  0.269200  0.026300  1
  H  H123  1  0.378100  0.230800  0.473700  1
  H  H124  1  0.378100  0.769200  0.026300  1
  H  H125  1  0.171000  0.262300  0.539600  1
  H  H126  1  0.171000  0.737700  0.960400  1
  H  H127  1  0.671000  0.762300  0.539600  1
  H  H128  1  0.671000  0.237700  0.960400  1
  H  H129  1  0.829000  0.737700  0.460400  1
  H  H130  1  0.829000  0.262300  0.039600  1
  H  H131  1  0.329000  0.237700  0.460400  1
  H  H132  1  0.329000  0.762300  0.039600  1
  H  H133  1  0.163400  0.271300  0.501600  1
  H  H134  1  0.163400  0.728700  0.998400  1
  H  H135  1  0.663400  0.771300  0.501600  1
  H  H136  1  0.663400  0.228700  0.998400  1
  H  H137  1  0.836600  0.728700  0.498400  1
  H  H138  1  0.836600  0.271300  0.001600  1
  H  H139  1  0.336600  0.228700  0.498400  1
  H  H140  1  0.336600  0.771300  0.001600  1
  H  H141  1  0.213600  0.182600  0.433000  1
  H  H142  1  0.213600  0.817400  0.067000  1
  H  H143  1  0.713600  0.682600  0.433000  1
  H  H144  1  0.713600  0.317400  0.067000  1
  H  H145  1  0.786400  0.817400  0.567000  1
  H  H146  1  0.786400  0.182600  0.933000  1
  H  H147  1  0.286400  0.317400  0.567000  1
  H  H148  1  0.286400  0.682600  0.933000  1
  H  H149  1  0.258000  0.208500  0.428100  1
  H  H150  1  0.258000  0.791500  0.071900  1
  H  H151  1  0.758000  0.708500  0.428100  1
  H  H152  1  0.758000  0.291500  0.071900  1
  H  H153  1  0.742000  0.791500  0.571900  1
  H  H154  1  0.742000  0.208500  0.928100  1
  H  H155  1  0.242000  0.291500  0.571900  1
  H  H156  1  0.242000  0.708500  0.928100  1
  H  H157  1  0.195900  0.241200  0.404400  1
  H  H158  1  0.195900  0.758800  0.095600  1
  H  H159  1  0.695900  0.741200  0.404400  1
  H  H160  1  0.695900  0.258800  0.095600  1
  H  H161  1  0.804100  0.758800  0.595600  1
  H  H162  1  0.804100  0.241200  0.904400  1
  H  H163  1  0.304100  0.258800  0.595600  1
  H  H164  1  0.304100  0.741200  0.904400  1
  H  H165  1  0.171600  0.245200  0.440100  1
  H  H166  1  0.171600  0.754800  0.059900  1
  H  H167  1  0.671600  0.745200  0.440100  1
  H  H168  1  0.671600  0.254800  0.059900  1
  H  H169  1  0.828400  0.754800  0.559900  1
  H  H170  1  0.828400  0.245200  0.940100  1
  H  H171  1  0.328400  0.254800  0.559900  1
  H  H172  1  0.328400  0.745200  0.940100  1
  H  H173  1  0.215700  0.270800  0.435300  1
  H  H174  1  0.215700  0.729200  0.064700  1
  H  H175  1  0.715700  0.770800  0.435300  1
  H  H176  1  0.715700  0.229200  0.064700  1
  H  H177  1  0.784300  0.729200  0.564700  1
  H  H178  1  0.784300  0.270800  0.935300  1
  H  H179  1  0.284300  0.229200  0.564700  1
  H  H180  1  0.284300  0.770800  0.935300  1
  H  H181  1  0.018900  0.194500  0.492800  1.0
  H  H182  1  0.018900  0.805500  0.007200  1.0
  H  H183  1  0.518900  0.694500  0.492800  1.0
  H  H184  1  0.518900  0.305500  0.007200  1.0
  H  H185  1  0.981100  0.805500  0.507200  1.0
  H  H186  1  0.981100  0.194500  0.992800  1.0
  H  H187  1  0.481100  0.305500  0.507200  1.0
  H  H188  1  0.481100  0.694500  0.992800  1.0
  H  H189  1  0.960700  0.152400  0.506600  1.0
  H  H190  1  0.960700  0.847600  0.993400  1.0
  H  H191  1  0.460700  0.652400  0.506600  1.0
  H  H192  1  0.460700  0.347600  0.993400  1.0
  H  H193  1  0.039300  0.847600  0.493400  1.0
  H  H194  1  0.039300  0.152400  0.006600  1.0
  H  H195  1  0.539300  0.347600  0.493400  1.0
  H  H196  1  0.539300  0.652400  0.006600  1.0
  H  H197  1  0.900200  0.140500  0.470300  1.0
  H  H198  1  0.900200  0.859500  0.029700  1.0
  H  H199  1  0.400200  0.640500  0.470300  1.0
  H  H200  1  0.400200  0.359500  0.029700  1.0
  H  H201  1  0.099800  0.859500  0.529700  1.0
  H  H202  1  0.099800  0.140500  0.970300  1.0
  H  H203  1  0.599800  0.359500  0.529700  1.0
  H  H204  1  0.599800  0.640500  0.970300  1.0
  H  H205  1  0.897900  0.170600  0.420200  1.0
  H  H206  1  0.897900  0.829400  0.079800  1.0
  H  H207  1  0.397900  0.670600  0.420200  1.0
  H  H208  1  0.397900  0.329400  0.079800  1.0
  H  H209  1  0.102100  0.829400  0.579800  1.0
  H  H210  1  0.102100  0.170600  0.920200  1.0
  H  H211  1  0.602100  0.329400  0.579800  1.0
  H  H212  1  0.602100  0.670600  0.920200  1.0
  H  H213  1  0.106800  0.295500  0.444600  1.0
  H  H214  1  0.106800  0.704500  0.055400  1.0
  H  H215  1  0.606800  0.795500  0.444600  1.0
  H  H216  1  0.606800  0.204500  0.055400  1.0
  H  H217  1  0.893200  0.704500  0.555400  1.0
  H  H218  1  0.893200  0.295500  0.944600  1.0
  H  H219  1  0.393200  0.204500  0.555400  1.0
  H  H220  1  0.393200  0.795500  0.944600  1.0
  H  H221  1  0.074100  0.241000  0.477200  1.0
  H  H222  1  0.074100  0.759000  0.022800  1.0
  H  H223  1  0.574100  0.741000  0.477200  1.0
  H  H224  1  0.574100  0.259000  0.022800  1.0
  H  H225  1  0.925900  0.759000  0.522800  1.0
  H  H226  1  0.925900  0.241000  0.977200  1.0
  H  H227  1  0.425900  0.259000  0.522800  1.0
  H  H228  1  0.425900  0.741000  0.977200  1.0
  H  H229  1  0.074000  0.333700  0.394800  1.0
  H  H230  1  0.074000  0.666300  0.105200  1.0
  H  H231  1  0.574000  0.833700  0.394800  1.0
  H  H232  1  0.574000  0.166300  0.105200  1.0
  H  H233  1  0.926000  0.666300  0.605200  1.0
  H  H234  1  0.926000  0.333700  0.894800  1.0
  H  H235  1  0.426000  0.166300  0.605200  1.0
  H  H236  1  0.426000  0.833700  0.894800  1.0
  H  H237  1  0.032300  0.313500  0.374700  1.0
  H  H238  1  0.032300  0.686500  0.125300  1.0
  H  H239  1  0.532300  0.813500  0.374700  1.0
  H  H240  1  0.532300  0.186500  0.125300  1.0
  H  H241  1  0.967700  0.686500  0.625300  1.0
  H  H242  1  0.967700  0.313500  0.874700  1.0
  H  H243  1  0.467700  0.186500  0.625300  1.0
  H  H244  1  0.467700  0.813500  0.874700  1.0
  H  H245  1  0.254400  0.428000  0.173600  1.0
  H  H246  1  0.254400  0.572000  0.326400  1.0
  H  H247  1  0.754400  0.928000  0.173600  1.0
  H  H248  1  0.754400  0.072000  0.326400  1.0
  H  H249  1  0.745600  0.572000  0.826400  1.0
  H  H250  1  0.745600  0.428000  0.673600  1.0
  H  H251  1  0.245600  0.072000  0.826400  1.0
  H  H252  1  0.245600  0.928000  0.673600  1.0
  H  H253  1  0.315100  0.472600  0.176600  1.0
  H  H254  1  0.315100  0.527400  0.323400  1.0
  H  H255  1  0.815100  0.972600  0.176600  1.0
  H  H256  1  0.815100  0.027400  0.323400  1.0
  H  H257  1  0.684900  0.527400  0.823400  1.0
  H  H258  1  0.684900  0.472600  0.676600  1.0
  H  H259  1  0.184900  0.027400  0.823400  1.0
  H  H260  1  0.184900  0.972600  0.676600  1.0
  H  H261  1  0.366100  0.472500  0.220500  1.0
  H  H262  1  0.366100  0.527500  0.279500  1.0
  H  H263  1  0.866100  0.972500  0.220500  1.0
  H  H264  1  0.866100  0.027500  0.279500  1.0
  H  H265  1  0.633900  0.527500  0.779500  1.0
  H  H266  1  0.633900  0.472500  0.720500  1.0
  H  H267  1  0.133900  0.027500  0.779500  1.0
  H  H268  1  0.133900  0.972500  0.720500  1.0
  H  H269  1  0.356400  0.427800  0.261500  1.0
  H  H270  1  0.356400  0.572200  0.238500  1.0
  H  H271  1  0.856400  0.927800  0.261500  1.0
  H  H272  1  0.856400  0.072200  0.238500  1.0
  H  H273  1  0.643600  0.572200  0.738500  1.0
  H  H274  1  0.643600  0.427800  0.761500  1.0
  H  H275  1  0.143600  0.072200  0.738500  1.0
  H  H276  1  0.143600  0.927800  0.761500  1.0
  H  H277  1  0.151700  0.318400  0.193100  1.0
  H  H278  1  0.151700  0.681600  0.306900  1.0
  H  H279  1  0.651700  0.818400  0.193100  1.0
  H  H280  1  0.651700  0.181600  0.306900  1.0
  H  H281  1  0.848300  0.681600  0.806900  1.0
  H  H282  1  0.848300  0.318400  0.693100  1.0
  H  H283  1  0.348300  0.181600  0.806900  1.0
  H  H284  1  0.348300  0.818400  0.693100  1.0
  H  H285  1  0.194200  0.377800  0.173500  1.0
  H  H286  1  0.194200  0.622200  0.326500  1.0
  H  H287  1  0.694200  0.877800  0.173500  1.0
  H  H288  1  0.694200  0.122200  0.326500  1.0
  H  H289  1  0.805800  0.622200  0.826500  1.0
  H  H290  1  0.805800  0.377800  0.673500  1.0
  H  H291  1  0.305800  0.122200  0.826500  1.0
  H  H292  1  0.305800  0.877800  0.673500  1.0
  H  H293  1  0.209700  0.283500  0.266600  1.0
  H  H294  1  0.209700  0.716500  0.233400  1.0
  H  H295  1  0.709700  0.783500  0.266600  1.0
  H  H296  1  0.709700  0.216500  0.233400  1.0
  H  H297  1  0.790300  0.716500  0.733400  1.0
  H  H298  1  0.790300  0.283500  0.766600  1.0
  H  H299  1  0.290300  0.216500  0.733400  1.0
  H  H300  1  0.290300  0.783500  0.766600  1.0
  H  H301  1  0.168400  0.270600  0.242800  1.0
  H  H302  1  0.168400  0.729400  0.257200  1.0
  H  H303  1  0.668400  0.770600  0.242800  1.0
  H  H304  1  0.668400  0.229400  0.257200  1.0
  H  H305  1  0.831600  0.729400  0.757200  1.0
  H  H306  1  0.831600  0.270600  0.742800  1.0
  H  H307  1  0.331600  0.229400  0.757200  1.0
  H  H308  1  0.331600  0.770600  0.742800  1.0
  H  H309  1  0.093600  0.232200  0.375100  1.0
  H  H310  1  0.093600  0.767800  0.124900  1.0
  H  H311  1  0.593600  0.732200  0.375100  1.0
  H  H312  1  0.593600  0.267800  0.124900  1.0
  H  H313  1  0.906400  0.767800  0.624900  1.0
  H  H314  1  0.906400  0.232200  0.875100  1.0
  H  H315  1  0.406400  0.267800  0.624900  1.0
  H  H316  1  0.406400  0.732200  0.875100  1.0
  H  H317  1  0.141400  0.201000  0.333900  1.0
  H  H318  1  0.141400  0.799000  0.166100  1.0
  H  H319  1  0.641400  0.701000  0.333900  1.0
  H  H320  1  0.641400  0.299000  0.166100  1.0
  H  H321  1  0.858600  0.799000  0.666100  1.0
  H  H322  1  0.858600  0.201000  0.833900  1.0
  H  H323  1  0.358600  0.299000  0.666100  1.0
  H  H324  1  0.358600  0.701000  0.833900  1.0
  H  H325  1  0.168100  0.238100  0.291700  1.0
  H  H326  1  0.168100  0.761900  0.208300  1.0
  H  H327  1  0.668100  0.738100  0.291700  1.0
  H  H328  1  0.668100  0.261900  0.208300  1.0
  H  H329  1  0.831900  0.761900  0.708300  1.0
  H  H330  1  0.831900  0.238100  0.791700  1.0
  H  H331  1  0.331900  0.261900  0.708300  1.0
  H  H332  1  0.331900  0.738100  0.791700  1.0
  H  H333  1  0.075900  0.363200  0.348400  1.0
  H  H334  1  0.075900  0.636800  0.151600  1.0
  H  H335  1  0.575900  0.863200  0.348400  1.0
  H  H336  1  0.575900  0.136800  0.151600  1.0
  H  H337  1  0.924100  0.636800  0.651600  1.0
  H  H338  1  0.924100  0.363200  0.848400  1.0
  H  H339  1  0.424100  0.136800  0.651600  1.0
  H  H340  1  0.424100  0.863200  0.848400  1.0
  H  H341  1  0.102600  0.400300  0.306100  1.0
  H  H342  1  0.102600  0.599700  0.193900  1.0
  H  H343  1  0.602600  0.900300  0.306100  1.0
  H  H344  1  0.602600  0.099700  0.193900  1.0
  H  H345  1  0.897400  0.599700  0.693900  1.0
  H  H346  1  0.897400  0.400300  0.806100  1.0
  H  H347  1  0.397400  0.099700  0.693900  1.0
  H  H348  1  0.397400  0.900300  0.806100  1.0
  H  H349  1  0.150400  0.369100  0.264900  1.0
  H  H350  1  0.150400  0.630900  0.235100  1.0
  H  H351  1  0.650400  0.869100  0.264900  1.0
  H  H352  1  0.650400  0.130900  0.235100  1.0
  H  H353  1  0.849600  0.630900  0.735100  1.0
  H  H354  1  0.849600  0.369100  0.764900  1.0
  H  H355  1  0.349600  0.130900  0.735100  1.0
  H  H356  1  0.349600  0.869100  0.764900  1.0
  H  H357  1  0.792100  0.233000  0.372400  1.0
  H  H358  1  0.792100  0.767000  0.127600  1.0
  H  H359  1  0.292100  0.733000  0.372400  1.0
  H  H360  1  0.292100  0.267000  0.127600  1.0
  H  H361  1  0.207900  0.767000  0.627600  1.0
  H  H362  1  0.207900  0.233000  0.872400  1.0
  H  H363  1  0.707900  0.267000  0.627600  1.0
  H  H364  1  0.707900  0.733000  0.872400  1.0
  H  H365  1  0.784000  0.169800  0.339700  1.0
  H  H366  1  0.784000  0.830200  0.160300  1.0
  H  H367  1  0.284000  0.669800  0.339700  1.0
  H  H368  1  0.284000  0.330200  0.160300  1.0
  H  H369  1  0.216000  0.830200  0.660300  1.0
  H  H370  1  0.216000  0.169800  0.839700  1.0
  H  H371  1  0.716000  0.330200  0.660300  1.0
  H  H372  1  0.716000  0.669800  0.839700  1.0
  H  H373  1  0.846600  0.131300  0.322100  1.0
  H  H374  1  0.846600  0.868700  0.177900  1.0
  H  H375  1  0.346600  0.631300  0.322100  1.0
  H  H376  1  0.346600  0.368700  0.177900  1.0
  H  H377  1  0.153400  0.868700  0.677900  1.0
  H  H378  1  0.153400  0.131300  0.822100  1.0
  H  H379  1  0.653400  0.368700  0.677900  1.0
  H  H380  1  0.653400  0.631300  0.822100  1.0
  H  H381  1  0.917400  0.155900  0.337200  1.0
  H  H382  1  0.917400  0.844100  0.162800  1.0
  H  H383  1  0.417400  0.655900  0.337200  1.0
  H  H384  1  0.417400  0.344100  0.162800  1.0
  H  H385  1  0.082600  0.844100  0.662800  1.0
  H  H386  1  0.082600  0.155900  0.837200  1.0
  H  H387  1  0.582600  0.344100  0.662800  1.0
  H  H388  1  0.582600  0.655900  0.837200  1.0
  H  H389  1  0.857900  0.357400  0.434000  1.0
  H  H390  1  0.857900  0.642600  0.066000  1.0
  H  H391  1  0.357900  0.857400  0.434000  1.0
  H  H392  1  0.357900  0.142600  0.066000  1.0
  H  H393  1  0.142100  0.642600  0.566000  1.0
  H  H394  1  0.142100  0.357400  0.934000  1.0
  H  H395  1  0.642100  0.142600  0.566000  1.0
  H  H396  1  0.642100  0.857400  0.934000  1.0
  H  H397  1  0.809700  0.305500  0.399300  1.0
  H  H398  1  0.809700  0.694500  0.100700  1.0
  H  H399  1  0.309700  0.805500  0.399300  1.0
  H  H400  1  0.309700  0.194500  0.100700  1.0
  H  H401  1  0.190300  0.694500  0.600700  1.0
  H  H402  1  0.190300  0.305500  0.899300  1.0
  H  H403  1  0.690300  0.194500  0.600700  1.0
  H  H404  1  0.690300  0.805500  0.899300  1.0
  H  H405  1  0.943900  0.357900  0.449900  1.0
  H  H406  1  0.943900  0.642100  0.050100  1.0
  H  H407  1  0.443900  0.857900  0.449900  1.0
  H  H408  1  0.443900  0.142100  0.050100  1.0
  H  H409  1  0.056100  0.642100  0.550100  1.0
  H  H410  1  0.056100  0.357900  0.949900  1.0
  H  H411  1  0.556100  0.142100  0.550100  1.0
  H  H412  1  0.556100  0.857900  0.949900  1.0
  H  H413  1  0.973300  0.321600  0.431700  1.0
  H  H414  1  0.973300  0.678400  0.068300  1.0
  H  H415  1  0.473300  0.821600  0.431700  1.0
  H  H416  1  0.473300  0.178400  0.068300  1.0
  H  H417  1  0.026700  0.678400  0.568300  1.0
  H  H418  1  0.026700  0.321600  0.931700  1.0
  H  H419  1  0.526700  0.178400  0.568300  1.0
  H  H420  1  0.526700  0.821600  0.931700  1.0
  H  H421  1  0.178400  0.391800  0.665400  1.0
  H  H422  1  0.178400  0.608200  0.834600  1.0
  H  H423  1  0.678400  0.891800  0.665400  1.0
  H  H424  1  0.678400  0.108200  0.834600  1.0
  H  H425  1  0.821600  0.608200  0.334600  1.0
  H  H426  1  0.821600  0.391800  0.165400  1.0
  H  H427  1  0.321600  0.108200  0.334600  1.0
  H  H428  1  0.321600  0.891800  0.165400  1.0
  H  H429  1  0.184300  0.451400  0.703000  1.0
  H  H430  1  0.184300  0.548600  0.797000  1.0
  H  H431  1  0.684300  0.951400  0.703000  1.0
  H  H432  1  0.684300  0.048600  0.797000  1.0
  H  H433  1  0.815700  0.548600  0.297000  1.0
  H  H434  1  0.815700  0.451400  0.203000  1.0
  H  H435  1  0.315700  0.048600  0.297000  1.0
  H  H436  1  0.315700  0.951400  0.203000  1.0
  H  H437  1  0.121300  0.491200  0.717300  1.0
  H  H438  1  0.121300  0.508800  0.782700  1.0
  H  H439  1  0.621300  0.991200  0.717300  1.0
  H  H440  1  0.621300  0.008800  0.782700  1.0
  H  H441  1  0.878700  0.508800  0.282700  1.0
  H  H442  1  0.878700  0.491200  0.217300  1.0
  H  H443  1  0.378700  0.008800  0.282700  1.0
  H  H444  1  0.378700  0.991200  0.217300  1.0
  H  H445  1  0.052500  0.471300  0.693900  1.0
  H  H446  1  0.052500  0.528700  0.806100  1.0
  H  H447  1  0.552500  0.971300  0.693900  1.0
  H  H448  1  0.552500  0.028700  0.806100  1.0
  H  H449  1  0.947500  0.528700  0.306100  1.0
  H  H450  1  0.947500  0.471300  0.193900  1.0
  H  H451  1  0.447500  0.028700  0.306100  1.0
  H  H452  1  0.447500  0.971300  0.193900  1.0
  H  H453  1  0.117100  0.272800  0.594100  1.0
  H  H454  1  0.117100  0.727200  0.905900  1.0
  H  H455  1  0.617100  0.772800  0.594100  1.0
  H  H456  1  0.617100  0.227200  0.905900  1.0
  H  H457  1  0.882900  0.727200  0.405900  1.0
  H  H458  1  0.882900  0.272800  0.094100  1.0
  H  H459  1  0.382900  0.227200  0.405900  1.0
  H  H460  1  0.382900  0.772800  0.094100  1.0
  H  H461  1  0.164000  0.326100  0.628700  1.0
  H  H462  1  0.164000  0.673900  0.871300  1.0
  H  H463  1  0.664000  0.826100  0.628700  1.0
  H  H464  1  0.664000  0.173900  0.871300  1.0
  H  H465  1  0.836000  0.673900  0.371300  1.0
  H  H466  1  0.836000  0.326100  0.128700  1.0
  H  H467  1  0.336000  0.173900  0.371300  1.0
  H  H468  1  0.336000  0.826100  0.128700  1.0
  H  H469  1  0.000200  0.303500  0.597500  1.0
  H  H470  1  0.000200  0.696500  0.902500  1.0
  H  H471  1  0.500200  0.803500  0.597500  1.0
  H  H472  1  0.500200  0.196500  0.902500  1.0
  H  H473  1  0.999800  0.696500  0.402500  1.0
  H  H474  1  0.999800  0.303500  0.097500  1.0
  H  H475  1  0.499800  0.196500  0.402500  1.0
  H  H476  1  0.499800  0.803500  0.097500  1.0
  H  H477  1  0.031300  0.266600  0.582500  1.0
  H  H478  1  0.031300  0.733400  0.917500  1.0
  H  H479  1  0.531300  0.766600  0.582500  1.0
  H  H480  1  0.531300  0.233400  0.917500  1.0
  H  H481  1  0.968700  0.733400  0.417500  1.0
  H  H482  1  0.968700  0.266600  0.082500  1.0
  H  H483  1  0.468700  0.233400  0.417500  1.0
  H  H484  1  0.468700  0.766600  0.082500  1.0
  H  H485  1  0.892400  0.276300  0.472800  1.0
  H  H486  1  0.892400  0.723700  0.027200  1.0
  H  H487  1  0.392400  0.776300  0.472800  1.0
  H  H488  1  0.392400  0.223700  0.027200  1.0
  H  H489  1  0.107600  0.723700  0.527200  1.0
  H  H490  1  0.107600  0.276300  0.972800  1.0
  H  H491  1  0.607600  0.223700  0.527200  1.0
  H  H492  1  0.607600  0.776300  0.972800  1.0
  H  H493  1  0.897500  0.248300  0.523900  1.0
  H  H494  1  0.897500  0.751700  0.976100  1.0
  H  H495  1  0.397500  0.748300  0.523900  1.0
  H  H496  1  0.397500  0.251700  0.976100  1.0
  H  H497  1  0.102500  0.751700  0.476100  1.0
  H  H498  1  0.102500  0.248300  0.023900  1.0
  H  H499  1  0.602500  0.251700  0.476100  1.0
  H  H500  1  0.602500  0.748300  0.023900  1.0
  H  H501  1  0.958000  0.264400  0.559400  1.0
  H  H502  1  0.958000  0.735600  0.940600  1.0
  H  H503  1  0.458000  0.764400  0.559400  1.0
  H  H504  1  0.458000  0.235600  0.940600  1.0
  H  H505  1  0.042000  0.735600  0.440600  1.0
  H  H506  1  0.042000  0.264400  0.059400  1.0
  H  H507  1  0.542000  0.235600  0.440600  1.0
  H  H508  1  0.542000  0.764400  0.059400  1.0
  H  H509  1  0.016600  0.356000  0.469300  1.0
  H  H510  1  0.016600  0.644000  0.030700  1.0
  H  H511  1  0.516600  0.856000  0.469300  1.0
  H  H512  1  0.516600  0.144000  0.030700  1.0
  H  H513  1  0.983400  0.644000  0.530700  1.0
  H  H514  1  0.983400  0.356000  0.969300  1.0
  H  H515  1  0.483400  0.144000  0.530700  1.0
  H  H516  1  0.483400  0.856000  0.969300  1.0
  H  H517  1  0.077100  0.372100  0.504900  1.0
  H  H518  1  0.077100  0.627900  0.995100  1.0
  H  H519  1  0.577100  0.872100  0.504900  1.0
  H  H520  1  0.577100  0.127900  0.995100  1.0
  H  H521  1  0.922900  0.627900  0.495100  1.0
  H  H522  1  0.922900  0.372100  0.004900  1.0
  H  H523  1  0.422900  0.127900  0.495100  1.0
  H  H524  1  0.422900  0.872100  0.004900  1.0
  H  H525  1  0.082200  0.344100  0.555900  1.0
  H  H526  1  0.082200  0.655900  0.944100  1.0
  H  H527  1  0.582200  0.844100  0.555900  1.0
  H  H528  1  0.582200  0.155900  0.944100  1.0
  H  H529  1  0.917800  0.655900  0.444100  1.0
  H  H530  1  0.917800  0.344100  0.055900  1.0
  H  H531  1  0.417800  0.155900  0.444100  1.0
  H  H532  1  0.417800  0.844100  0.055900  1.0
  H  H533  1  0.023300  0.264300  0.274200  1.0
  H  H534  1  0.023300  0.735700  0.225800  1.0
  H  H535  1  0.523300  0.764300  0.274200  1.0
  H  H536  1  0.523300  0.235700  0.225800  1.0
  H  H537  1  0.976700  0.735700  0.725800  1.0
  H  H538  1  0.976700  0.264300  0.774200  1.0
  H  H539  1  0.476700  0.235700  0.725800  1.0
  H  H540  1  0.476700  0.764300  0.774200  1.0
  H  H541  1  0.000200  0.332400  0.275400  1.0
  H  H542  1  0.000200  0.667600  0.224600  1.0
  H  H543  1  0.500200  0.832400  0.275400  1.0
  H  H544  1  0.500200  0.167600  0.224600  1.0
  H  H545  1  0.999800  0.667600  0.724600  1.0
  H  H546  1  0.999800  0.332400  0.775400  1.0
  H  H547  1  0.499800  0.167600  0.724600  1.0
  H  H548  1  0.499800  0.832400  0.775400  1.0
  H  H549  1  0.956800  0.362200  0.320100  1.0
  H  H550  1  0.956800  0.637800  0.179900  1.0
  H  H551  1  0.456800  0.862200  0.320100  1.0
  H  H552  1  0.456800  0.137800  0.179900  1.0
  H  H553  1  0.043200  0.637800  0.679900  1.0
  H  H554  1  0.043200  0.362200  0.820100  1.0
  H  H555  1  0.543200  0.137800  0.679900  1.0
  H  H556  1  0.543200  0.862200  0.820100  1.0
  H  H557  1  0.936600  0.323900  0.363500  1.0
  H  H558  1  0.936600  0.676100  0.136500  1.0
  H  H559  1  0.436600  0.823900  0.363500  1.0
  H  H560  1  0.436600  0.176100  0.136500  1.0
  H  H561  1  0.063400  0.676100  0.636500  1.0
  H  H562  1  0.063400  0.323900  0.863500  1.0
  H  H563  1  0.563400  0.176100  0.636500  1.0
  H  H564  1  0.563400  0.823900  0.863500  1.0
  H  H565  1  0.032000  0.119600  0.297700  1.0
  H  H566  1  0.032000  0.880400  0.202300  1.0
  H  H567  1  0.532000  0.619600  0.297700  1.0
  H  H568  1  0.532000  0.380400  0.202300  1.0
  H  H569  1  0.968000  0.880400  0.702300  1.0
  H  H570  1  0.968000  0.119600  0.797700  1.0
  H  H571  1  0.468000  0.380400  0.702300  1.0
  H  H572  1  0.468000  0.619600  0.797700  1.0
  H  H573  1  0.031800  0.186900  0.272300  1.0
  H  H574  1  0.031800  0.813100  0.227700  1.0
  H  H575  1  0.531800  0.686900  0.272300  1.0
  H  H576  1  0.531800  0.313100  0.227700  1.0
  H  H577  1  0.968200  0.813100  0.727700  1.0
  H  H578  1  0.968200  0.186900  0.772300  1.0
  H  H579  1  0.468200  0.313100  0.727700  1.0
  H  H580  1  0.468200  0.686900  0.772300  1.0
  H  H581  1  0.997400  0.098100  0.353900  1.0
  H  H582  1  0.997400  0.901900  0.146100  1.0
  H  H583  1  0.497400  0.598100  0.353900  1.0
  H  H584  1  0.497400  0.401900  0.146100  1.0
  H  H585  1  0.002600  0.901900  0.646100  1.0
  H  H586  1  0.002600  0.098100  0.853900  1.0
  H  H587  1  0.502600  0.401900  0.646100  1.0
  H  H588  1  0.502600  0.598100  0.853900  1.0
  H  H589  1  0.971400  0.132700  0.377400  1.0
  H  H590  1  0.971400  0.867300  0.122600  1.0
  H  H591  1  0.471400  0.632700  0.377400  1.0
  H  H592  1  0.471400  0.367300  0.122600  1.0
  H  H593  1  0.028600  0.867300  0.622600  1.0
  H  H594  1  0.028600  0.132700  0.877400  1.0
  H  H595  1  0.528600  0.367300  0.622600  1.0
  H  H596  1  0.528600  0.632700  0.877400  1.0
  H  H597  1  0.130200  0.951500  0.582800  1.0
  H  H598  1  0.130200  0.048500  0.917200  1.0
  H  H599  1  0.630200  0.451500  0.582800  1.0
  H  H600  1  0.630200  0.548500  0.917200  1.0
  H  H601  1  0.869800  0.048500  0.417200  1.0
  H  H602  1  0.869800  0.951500  0.082800  1.0
  H  H603  1  0.369800  0.548500  0.417200  1.0
  H  H604  1  0.369800  0.451500  0.082800  1.0
  H  H605  1  0.169000  0.889600  0.579600  1.0
  H  H606  1  0.169000  0.110400  0.920400  1.0
  H  H607  1  0.669000  0.389600  0.579600  1.0
  H  H608  1  0.669000  0.610400  0.920400  1.0
  H  H609  1  0.831000  0.110400  0.420400  1.0
  H  H610  1  0.831000  0.889600  0.079600  1.0
  H  H611  1  0.331000  0.610400  0.420400  1.0
  H  H612  1  0.331000  0.389600  0.079600  1.0
  H  H613  1  0.204100  0.864000  0.529500  1.0
  H  H614  1  0.204100  0.136000  0.970500  1.0
  H  H615  1  0.704100  0.364000  0.529500  1.0
  H  H616  1  0.704100  0.636000  0.970500  1.0
  H  H617  1  0.795900  0.136000  0.470500  1.0
  H  H618  1  0.795900  0.864000  0.029500  1.0
  H  H619  1  0.295900  0.636000  0.470500  1.0
  H  H620  1  0.295900  0.364000  0.029500  1.0
  H  H621  1  0.200400  0.900300  0.482700  1.0
  H  H622  1  0.200400  0.099700  0.017300  1.0
  H  H623  1  0.700400  0.400300  0.482700  1.0
  H  H624  1  0.700400  0.599700  0.017300  1.0
  H  H625  1  0.799600  0.099700  0.517300  1.0
  H  H626  1  0.799600  0.900300  0.982700  1.0
  H  H627  1  0.299600  0.599700  0.517300  1.0
  H  H628  1  0.299600  0.400300  0.982700  1.0
  H  H629  1  0.077200  0.086400  0.559400  1.0
  H  H630  1  0.077200  0.913600  0.940600  1.0
  H  H631  1  0.577200  0.586400  0.559400  1.0
  H  H632  1  0.577200  0.413600  0.940600  1.0
  H  H633  1  0.922800  0.913600  0.440600  1.0
  H  H634  1  0.922800  0.086400  0.059400  1.0
  H  H635  1  0.422800  0.413600  0.440600  1.0
  H  H636  1  0.422800  0.586400  0.059400  1.0
  H  H637  1  0.091700  0.018600  0.581900  1.0
  H  H638  1  0.091700  0.981400  0.918100  1.0
  H  H639  1  0.591700  0.518600  0.581900  1.0
  H  H640  1  0.591700  0.481400  0.918100  1.0
  H  H641  1  0.908300  0.981400  0.418100  1.0
  H  H642  1  0.908300  0.018600  0.081900  1.0
  H  H643  1  0.408300  0.481400  0.418100  1.0
  H  H644  1  0.408300  0.518600  0.081900  1.0
  H  H645  1  0.137900  0.087900  0.479700  1.0
  H  H646  1  0.137900  0.912100  0.020300  1.0
  H  H647  1  0.637900  0.587900  0.479700  1.0
  H  H648  1  0.637900  0.412100  0.020300  1.0
  H  H649  1  0.862100  0.912100  0.520300  1.0
  H  H650  1  0.862100  0.087900  0.979700  1.0
  H  H651  1  0.362100  0.412100  0.520300  1.0
  H  H652  1  0.362100  0.587900  0.979700  1.0
  H  H653  1  0.109800  0.117800  0.505800  1.0
  H  H654  1  0.109800  0.882200  0.994200  1.0
  H  H655  1  0.609800  0.617800  0.505800  1.0
  H  H656  1  0.609800  0.382200  0.994200  1.0
  H  H657  1  0.890200  0.882200  0.494200  1.0
  H  H658  1  0.890200  0.117800  0.005800  1.0
  H  H659  1  0.390200  0.382200  0.494200  1.0
  H  H660  1  0.390200  0.617800  0.005800  1.0
  H  H661  1  0.073000  0.168700  0.366900  1.0
  H  H662  1  0.073000  0.831300  0.133100  1.0
  H  H663  1  0.573000  0.668700  0.366900  1.0
  H  H664  1  0.573000  0.331300  0.133100  1.0
  H  H665  1  0.927000  0.831300  0.633100  1.0
  H  H666  1  0.927000  0.168700  0.866900  1.0
  H  H667  1  0.427000  0.331300  0.633100  1.0
  H  H668  1  0.427000  0.668700  0.866900  1.0
  H  H669  1  0.132100  0.174200  0.405000  1.0
  H  H670  1  0.132100  0.825800  0.095000  1.0
  H  H671  1  0.632100  0.674200  0.405000  1.0
  H  H672  1  0.632100  0.325800  0.095000  1.0
  H  H673  1  0.867900  0.825800  0.595000  1.0
  H  H674  1  0.867900  0.174200  0.905000  1.0
  H  H675  1  0.367900  0.325800  0.595000  1.0
  H  H676  1  0.367900  0.674200  0.905000  1.0
  H  H677  1  0.131200  0.136900  0.451400  1.0
  H  H678  1  0.131200  0.863100  0.048600  1.0
  H  H679  1  0.631200  0.636900  0.451400  1.0
  H  H680  1  0.631200  0.363100  0.048600  1.0
  H  H681  1  0.868800  0.863100  0.548600  1.0
  H  H682  1  0.868800  0.136900  0.951400  1.0
  H  H683  1  0.368800  0.363100  0.548600  1.0
  H  H684  1  0.368800  0.636900  0.951400  1.0
  H  H685  1  0.976800  0.078500  0.407900  1.0
  H  H686  1  0.976800  0.921500  0.092100  1.0
  H  H687  1  0.476800  0.578500  0.407900  1.0
  H  H688  1  0.476800  0.421500  0.092100  1.0
  H  H689  1  0.023200  0.921500  0.592100  1.0
  H  H690  1  0.023200  0.078500  0.907900  1.0
  H  H691  1  0.523200  0.421500  0.592100  1.0
  H  H692  1  0.523200  0.578500  0.907900  1.0
  H  H693  1  0.975800  0.041200  0.454300  1.0
  H  H694  1  0.975800  0.958800  0.045700  1.0
  H  H695  1  0.475800  0.541200  0.454300  1.0
  H  H696  1  0.475800  0.458800  0.045700  1.0
  H  H697  1  0.024200  0.958800  0.545700  1.0
  H  H698  1  0.024200  0.041200  0.954300  1.0
  H  H699  1  0.524200  0.458800  0.545700  1.0
  H  H700  1  0.524200  0.541200  0.954300  1.0
  H  H701  1  0.035000  0.046700  0.492300  1.0
  H  H702  1  0.035000  0.953300  0.007700  1.0
  H  H703  1  0.535000  0.546700  0.492300  1.0
  H  H704  1  0.535000  0.453300  0.007700  1.0
  H  H705  1  0.965000  0.953300  0.507700  1.0
  H  H706  1  0.965000  0.046700  0.992300  1.0
  H  H707  1  0.465000  0.453300  0.507700  1.0
  H  H708  1  0.465000  0.546700  0.992300  1.0
  H  H709  1  0.432900  0.285800  0.252200  1.0
  H  H710  1  0.432900  0.714200  0.247800  1.0
  H  H711  1  0.932900  0.785800  0.252200  1.0
  H  H712  1  0.932900  0.214200  0.247800  1.0
  H  H713  1  0.567100  0.714200  0.747800  1.0
  H  H714  1  0.567100  0.285800  0.752200  1.0
  H  H715  1  0.067100  0.214200  0.747800  1.0
  H  H716  1  0.067100  0.785800  0.752200  1.0
  H  H717  1  0.408800  0.232800  0.212400  1.0
  H  H718  1  0.408800  0.767200  0.287600  1.0
  H  H719  1  0.908800  0.732800  0.212400  1.0
  H  H720  1  0.908800  0.267200  0.287600  1.0
  H  H721  1  0.591200  0.767200  0.787600  1.0
  H  H722  1  0.591200  0.232800  0.712400  1.0
  H  H723  1  0.091200  0.267200  0.787600  1.0
  H  H724  1  0.091200  0.732800  0.712400  1.0
  H  H725  1  0.334400  0.229100  0.196000  1.0
  H  H726  1  0.334400  0.770900  0.304000  1.0
  H  H727  1  0.834400  0.729100  0.196000  1.0
  H  H728  1  0.834400  0.270900  0.304000  1.0
  H  H729  1  0.665600  0.770900  0.804000  1.0
  H  H730  1  0.665600  0.229100  0.696000  1.0
  H  H731  1  0.165600  0.270900  0.804000  1.0
  H  H732  1  0.165600  0.729100  0.696000  1.0
  H  H733  1  0.284000  0.278500  0.219400  1.0
  H  H734  1  0.284000  0.721500  0.280600  1.0
  H  H735  1  0.784000  0.778500  0.219400  1.0
  H  H736  1  0.784000  0.221500  0.280600  1.0
  H  H737  1  0.716000  0.721500  0.780600  1.0
  H  H738  1  0.716000  0.278500  0.719400  1.0
  H  H739  1  0.216000  0.221500  0.780600  1.0
  H  H740  1  0.216000  0.778500  0.719400  1.0
  H  H741  1  0.437600  0.413400  0.330300  1.0
  H  H742  1  0.437600  0.586600  0.169700  1.0
  H  H743  1  0.937600  0.913400  0.330300  1.0
  H  H744  1  0.937600  0.086600  0.169700  1.0
  H  H745  1  0.562400  0.586600  0.669700  1.0
  H  H746  1  0.562400  0.413400  0.830300  1.0
  H  H747  1  0.062400  0.086600  0.669700  1.0
  H  H748  1  0.062400  0.913400  0.830300  1.0
  H  H749  1  0.453900  0.350800  0.289100  1.0
  H  H750  1  0.453900  0.649200  0.210900  1.0
  H  H751  1  0.953900  0.850800  0.289100  1.0
  H  H752  1  0.953900  0.149200  0.210900  1.0
  H  H753  1  0.546100  0.649200  0.710900  1.0
  H  H754  1  0.546100  0.350800  0.789100  1.0
  H  H755  1  0.046100  0.149200  0.710900  1.0
  H  H756  1  0.046100  0.850800  0.789100  1.0
  H  H757  1  0.318300  0.436900  0.328600  1.0
  H  H758  1  0.318300  0.563100  0.171400  1.0
  H  H759  1  0.818300  0.936900  0.328600  1.0
  H  H760  1  0.818300  0.063100  0.171400  1.0
  H  H761  1  0.681700  0.563100  0.671400  1.0
  H  H762  1  0.681700  0.436900  0.828600  1.0
  H  H763  1  0.181700  0.063100  0.671400  1.0
  H  H764  1  0.181700  0.936900  0.828600  1.0
  H  H765  1  0.363100  0.455200  0.345200  1.0
  H  H766  1  0.363100  0.544800  0.154800  1.0
  H  H767  1  0.863100  0.955200  0.345200  1.0
  H  H768  1  0.863100  0.044800  0.154800  1.0
  H  H769  1  0.636900  0.544800  0.654800  1.0
  H  H770  1  0.636900  0.455200  0.845200  1.0
  H  H771  1  0.136900  0.044800  0.654800  1.0
  H  H772  1  0.136900  0.955200  0.845200  1.0
  H  H773  1  0.209300  0.586200  0.589700  1.0
  H  H774  1  0.209300  0.413800  0.910300  1.0
  H  H775  1  0.709300  0.086200  0.589700  1.0
  H  H776  1  0.709300  0.913800  0.910300  1.0
  H  H777  1  0.790700  0.413800  0.410300  1.0
  H  H778  1  0.790700  0.586200  0.089700  1.0
  H  H779  1  0.290700  0.913800  0.410300  1.0
  H  H780  1  0.290700  0.086200  0.089700  1.0
  H  H781  1  0.246400  0.634900  0.626700  1.0
  H  H782  1  0.246400  0.365100  0.873300  1.0
  H  H783  1  0.746400  0.134900  0.626700  1.0
  H  H784  1  0.746400  0.865100  0.873300  1.0
  H  H785  1  0.753600  0.365100  0.373300  1.0
  H  H786  1  0.753600  0.634900  0.126700  1.0
  H  H787  1  0.253600  0.865100  0.373300  1.0
  H  H788  1  0.253600  0.134900  0.126700  1.0
  H  H789  1  0.323900  0.635500  0.628500  1.0
  H  H790  1  0.323900  0.364500  0.871500  1.0
  H  H791  1  0.823900  0.135500  0.628500  1.0
  H  H792  1  0.823900  0.864500  0.871500  1.0
  H  H793  1  0.676100  0.364500  0.371500  1.0
  H  H794  1  0.676100  0.635500  0.128500  1.0
  H  H795  1  0.176100  0.864500  0.371500  1.0
  H  H796  1  0.176100  0.135500  0.128500  1.0
  H  H797  1  0.364300  0.587300  0.593300  1.0
  H  H798  1  0.364300  0.412700  0.906700  1.0
  H  H799  1  0.864300  0.087300  0.593300  1.0
  H  H800  1  0.864300  0.912700  0.906700  1.0
  H  H801  1  0.635700  0.412700  0.406700  1.0
  H  H802  1  0.635700  0.587300  0.093300  1.0
  H  H803  1  0.135700  0.912700  0.406700  1.0
  H  H804  1  0.135700  0.087300  0.093300  1.0
  H  H805  1  0.175600  0.469600  0.505600  1.0
  H  H806  1  0.175600  0.530400  0.994400  1.0
  H  H807  1  0.675600  0.969600  0.505600  1.0
  H  H808  1  0.675600  0.030400  0.994400  1.0
  H  H809  1  0.824400  0.530400  0.494400  1.0
  H  H810  1  0.824400  0.469600  0.005600  1.0
  H  H811  1  0.324400  0.030400  0.494400  1.0
  H  H812  1  0.324400  0.969600  0.005600  1.0
  H  H813  1  0.175600  0.532600  0.548500  1.0
  H  H814  1  0.175600  0.467400  0.951500  1.0
  H  H815  1  0.675600  0.032600  0.548500  1.0
  H  H816  1  0.675600  0.967400  0.951500  1.0
  H  H817  1  0.824400  0.467400  0.451500  1.0
  H  H818  1  0.824400  0.532600  0.048500  1.0
  H  H819  1  0.324400  0.967400  0.451500  1.0
  H  H820  1  0.324400  0.032600  0.048500  1.0
  H  H821  1  0.238800  0.418600  0.483600  1.0
  H  H822  1  0.238800  0.581400  0.016400  1.0
  H  H823  1  0.738800  0.918600  0.483600  1.0
  H  H824  1  0.738800  0.081400  0.016400  1.0
  H  H825  1  0.761200  0.581400  0.516400  1.0
  H  H826  1  0.761200  0.418600  0.983600  1.0
  H  H827  1  0.261200  0.081400  0.516400  1.0
  H  H828  1  0.261200  0.918600  0.983600  1.0
  H  H829  1  0.288400  0.429500  0.495200  1.0
  H  H830  1  0.288400  0.570500  0.004800  1.0
  H  H831  1  0.788400  0.929500  0.495200  1.0
  H  H832  1  0.788400  0.070500  0.004800  1.0
  H  H833  1  0.711600  0.570500  0.504800  1.0
  H  H834  1  0.711600  0.429500  0.995200  1.0
  H  H835  1  0.211600  0.070500  0.504800  1.0
  H  H836  1  0.211600  0.929500  0.995200  1.0
  H  H837  1  0.362200  0.360300  0.365900  1.0
  H  H838  1  0.362200  0.639700  0.134100  1.0
  H  H839  1  0.862200  0.860300  0.365900  1.0
  H  H840  1  0.862200  0.139700  0.134100  1.0
  H  H841  1  0.637800  0.639700  0.634100  1.0
  H  H842  1  0.637800  0.360300  0.865900  1.0
  H  H843  1  0.137800  0.139700  0.634100  1.0
  H  H844  1  0.137800  0.860300  0.865900  1.0
  H  H845  1  0.344000  0.338300  0.417700  1.0
  H  H846  1  0.344000  0.661700  0.082300  1.0
  H  H847  1  0.844000  0.838300  0.417700  1.0
  H  H848  1  0.844000  0.161700  0.082300  1.0
  H  H849  1  0.656000  0.661700  0.582300  1.0
  H  H850  1  0.656000  0.338300  0.917700  1.0
  H  H851  1  0.156000  0.161700  0.582300  1.0
  H  H852  1  0.156000  0.838300  0.917700  1.0
  H  H853  1  0.302600  0.380700  0.456900  1.0
  H  H854  1  0.302600  0.619300  0.043100  1.0
  H  H855  1  0.802600  0.880700  0.456900  1.0
  H  H856  1  0.802600  0.119300  0.043100  1.0
  H  H857  1  0.697400  0.619300  0.543100  1.0
  H  H858  1  0.697400  0.380700  0.956900  1.0
  H  H859  1  0.197400  0.119300  0.543100  1.0
  H  H860  1  0.197400  0.880700  0.956900  1.0
  H  H861  1  0.300600  0.488200  0.369000  1.0
  H  H862  1  0.300600  0.511800  0.131000  1.0
  H  H863  1  0.800600  0.988200  0.369000  1.0
  H  H864  1  0.800600  0.011800  0.131000  1.0
  H  H865  1  0.699400  0.511800  0.631000  1.0
  H  H866  1  0.699400  0.488200  0.869000  1.0
  H  H867  1  0.199400  0.011800  0.631000  1.0
  H  H868  1  0.199400  0.988200  0.869000  1.0
  H  H869  1  0.259100  0.530600  0.408200  1.0
  H  H870  1  0.259100  0.469400  0.091800  1.0
  H  H871  1  0.759100  0.030600  0.408200  1.0
  H  H872  1  0.759100  0.969400  0.091800  1.0
  H  H873  1  0.740900  0.469400  0.591800  1.0
  H  H874  1  0.740900  0.530600  0.908200  1.0
  H  H875  1  0.240900  0.969400  0.591800  1.0
  H  H876  1  0.240900  0.030600  0.908200  1.0
  H  H877  1  0.240900  0.508600  0.460000  1.0
  H  H878  1  0.240900  0.491400  0.040000  1.0
  H  H879  1  0.740900  0.008600  0.460000  1.0
  H  H880  1  0.740900  0.991400  0.040000  1.0
  H  H881  1  0.759100  0.491400  0.540000  1.0
  H  H882  1  0.759100  0.508600  0.960000  1.0
  H  H883  1  0.259100  0.991400  0.540000  1.0
  H  H884  1  0.259100  0.008600  0.960000  1.0
  H  H885  1  0.193300  0.389700  0.379600  1.0
  H  H886  1  0.193300  0.610300  0.120400  1.0
  H  H887  1  0.693300  0.889700  0.379600  1.0
  H  H888  1  0.693300  0.110300  0.120400  1.0
  H  H889  1  0.806700  0.610300  0.620400  1.0
  H  H890  1  0.806700  0.389700  0.879600  1.0
  H  H891  1  0.306700  0.110300  0.620400  1.0
  H  H892  1  0.306700  0.889700  0.879600  1.0
  H  H893  1  0.175800  0.457500  0.372200  1.0
  H  H894  1  0.175800  0.542500  0.127800  1.0
  H  H895  1  0.675800  0.957500  0.372200  1.0
  H  H896  1  0.675800  0.042500  0.127800  1.0
  H  H897  1  0.824200  0.542500  0.627800  1.0
  H  H898  1  0.824200  0.457500  0.872200  1.0
  H  H899  1  0.324200  0.042500  0.627800  1.0
  H  H900  1  0.324200  0.957500  0.872200  1.0
  H  H901  1  0.202100  0.486100  0.325200  1.0
  H  H902  1  0.202100  0.513900  0.174800  1.0
  H  H903  1  0.702100  0.986100  0.325200  1.0
  H  H904  1  0.702100  0.013900  0.174800  1.0
  H  H905  1  0.797900  0.513900  0.674800  1.0
  H  H906  1  0.797900  0.486100  0.825200  1.0
  H  H907  1  0.297900  0.013900  0.674800  1.0
  H  H908  1  0.297900  0.986100  0.825200  1.0
  H  H909  1  0.246000  0.447000  0.285500  1.0
  H  H910  1  0.246000  0.553000  0.214500  1.0
  H  H911  1  0.746000  0.947000  0.285500  1.0
  H  H912  1  0.746000  0.053000  0.214500  1.0
  H  H913  1  0.754000  0.553000  0.714500  1.0
  H  H914  1  0.754000  0.447000  0.785500  1.0
  H  H915  1  0.254000  0.053000  0.714500  1.0
  H  H916  1  0.254000  0.947000  0.785500  1.0
  H  H917  1  0.241500  0.247900  0.362300  1.0
  H  H918  1  0.241500  0.752100  0.137700  1.0
  H  H919  1  0.741500  0.747900  0.362300  1.0
  H  H920  1  0.741500  0.252100  0.137700  1.0
  H  H921  1  0.758500  0.752100  0.637700  1.0
  H  H922  1  0.758500  0.247900  0.862300  1.0
  H  H923  1  0.258500  0.252100  0.637700  1.0
  H  H924  1  0.258500  0.747900  0.862300  1.0
  H  H925  1  0.211300  0.318300  0.382800  1.0
  H  H926  1  0.211300  0.681700  0.117200  1.0
  H  H927  1  0.711300  0.818300  0.382800  1.0
  H  H928  1  0.711300  0.181700  0.117200  1.0
  H  H929  1  0.788700  0.681700  0.617200  1.0
  H  H930  1  0.788700  0.318300  0.882800  1.0
  H  H931  1  0.288700  0.181700  0.617200  1.0
  H  H932  1  0.288700  0.818300  0.882800  1.0
  H  H933  1  0.291600  0.247800  0.279000  1.0
  H  H934  1  0.291600  0.752200  0.221000  1.0
  H  H935  1  0.791600  0.747800  0.279000  1.0
  H  H936  1  0.791600  0.252200  0.221000  1.0
  H  H937  1  0.708400  0.752200  0.721000  1.0
  H  H938  1  0.708400  0.247800  0.779000  1.0
  H  H939  1  0.208400  0.252200  0.721000  1.0
  H  H940  1  0.208400  0.747800  0.779000  1.0
  H  H941  1  0.281300  0.217700  0.306600  1.0
  H  H942  1  0.281300  0.782300  0.193400  1.0
  H  H943  1  0.781300  0.717700  0.306600  1.0
  H  H944  1  0.781300  0.282300  0.193400  1.0
  H  H945  1  0.718700  0.782300  0.693400  1.0
  H  H946  1  0.718700  0.217700  0.806600  1.0
  H  H947  1  0.218700  0.282300  0.693400  1.0
  H  H948  1  0.218700  0.717700  0.806600  1.0
  H  H949  1  0.597500  0.029000  0.281900  1.0
  H  H950  1  0.597500  0.971000  0.218100  1.0
  H  H951  1  0.097500  0.529000  0.281900  1.0
  H  H952  1  0.097500  0.471000  0.218100  1.0
  H  H953  1  0.402500  0.971000  0.718100  1.0
  H  H954  1  0.402500  0.029000  0.781900  1.0
  H  H955  1  0.902500  0.471000  0.718100  1.0
  H  H956  1  0.902500  0.529000  0.781900  1.0
  H  H957  1  0.603800  0.967100  0.305200  1.0
  H  H958  1  0.603800  0.032900  0.194800  1.0
  H  H959  1  0.103800  0.467100  0.305200  1.0
  H  H960  1  0.103800  0.532900  0.194800  1.0
  H  H961  1  0.396200  0.032900  0.694800  1.0
  H  H962  1  0.396200  0.967100  0.805200  1.0
  H  H963  1  0.896200  0.532900  0.694800  1.0
  H  H964  1  0.896200  0.467100  0.805200  1.0
  H  H965  1  0.559700  0.955100  0.351100  1.0
  H  H966  1  0.559700  0.044900  0.148900  1.0
  H  H967  1  0.059700  0.455100  0.351100  1.0
  H  H968  1  0.059700  0.544900  0.148900  1.0
  H  H969  1  0.440300  0.044900  0.648900  1.0
  H  H970  1  0.440300  0.955100  0.851100  1.0
  H  H971  1  0.940300  0.544900  0.648900  1.0
  H  H972  1  0.940300  0.455100  0.851100  1.0
  H  H973  1  0.509200  0.004900  0.373600  1.0
  H  H974  1  0.509200  0.995100  0.126400  1.0
  H  H975  1  0.009200  0.504900  0.373600  1.0
  H  H976  1  0.009200  0.495100  0.126400  1.0
  H  H977  1  0.490800  0.995100  0.626400  1.0
  H  H978  1  0.490800  0.004900  0.873600  1.0
  H  H979  1  0.990800  0.495100  0.626400  1.0
  H  H980  1  0.990800  0.504900  0.873600  1.0
  H  H981  1  0.563900  0.169900  0.265100  1.0
  H  H982  1  0.563900  0.830100  0.234900  1.0
  H  H983  1  0.063900  0.669900  0.265100  1.0
  H  H984  1  0.063900  0.330100  0.234900  1.0
  H  H985  1  0.436100  0.830100  0.734900  1.0
  H  H986  1  0.436100  0.169900  0.765100  1.0
  H  H987  1  0.936100  0.330100  0.734900  1.0
  H  H988  1  0.936100  0.669900  0.765100  1.0
  H  H989  1  0.592400  0.097200  0.264100  1.0
  H  H990  1  0.592400  0.902800  0.235900  1.0
  H  H991  1  0.092400  0.597200  0.264100  1.0
  H  H992  1  0.092400  0.402800  0.235900  1.0
  H  H993  1  0.407600  0.902800  0.735900  1.0
  H  H994  1  0.407600  0.097200  0.764100  1.0
  H  H995  1  0.907600  0.402800  0.735900  1.0
  H  H996  1  0.907600  0.597200  0.764100  1.0
  H  H997  1  0.508300  0.214100  0.305800  1.0
  H  H998  1  0.508300  0.785900  0.194200  1.0
  H  H999  1  0.008300  0.714100  0.305800  1.0
  H  H1000  1  0.008300  0.285900  0.194200  1.0
  H  H1001  1  0.491700  0.785900  0.694200  1.0
  H  H1002  1  0.491700  0.214100  0.805800  1.0
  H  H1003  1  0.991700  0.285900  0.694200  1.0
  H  H1004  1  0.991700  0.714100  0.805800  1.0
  H  H1005  1  0.492200  0.193600  0.337900  1.0
  H  H1006  1  0.492200  0.806400  0.162100  1.0
  H  H1007  1  0.992200  0.693600  0.337900  1.0
  H  H1008  1  0.992200  0.306400  0.162100  1.0
  H  H1009  1  0.507800  0.806400  0.662100  1.0
  H  H1010  1  0.507800  0.193600  0.837900  1.0
  H  H1011  1  0.007800  0.306400  0.662100  1.0
  H  H1012  1  0.007800  0.693600  0.837900  1.0
  H  H1013  1  0.336700  0.299800  0.344300  1.0
  H  H1014  1  0.336700  0.700200  0.155700  1.0
  H  H1015  1  0.836700  0.799800  0.344300  1.0
  H  H1016  1  0.836700  0.200200  0.155700  1.0
  H  H1017  1  0.663300  0.700200  0.655700  1.0
  H  H1018  1  0.663300  0.299800  0.844300  1.0
  H  H1019  1  0.163300  0.200200  0.655700  1.0
  H  H1020  1  0.163300  0.799800  0.844300  1.0
  H  H1021  1  0.410800  0.303900  0.361400  1.0
  H  H1022  1  0.410800  0.696100  0.138600  1.0
  H  H1023  1  0.910800  0.803900  0.361400  1.0
  H  H1024  1  0.910800  0.196100  0.138600  1.0
  H  H1025  1  0.589200  0.696100  0.638600  1.0
  H  H1026  1  0.589200  0.303900  0.861400  1.0
  H  H1027  1  0.089200  0.196100  0.638600  1.0
  H  H1028  1  0.089200  0.803900  0.861400  1.0
  H  H1029  1  0.460900  0.252800  0.341000  1.0
  H  H1030  1  0.460900  0.747200  0.159000  1.0
  H  H1031  1  0.960900  0.752800  0.341000  1.0
  H  H1032  1  0.960900  0.247200  0.159000  1.0
  H  H1033  1  0.539100  0.747200  0.659000  1.0
  H  H1034  1  0.539100  0.252800  0.841000  1.0
  H  H1035  1  0.039100  0.247200  0.659000  1.0
  H  H1036  1  0.039100  0.752800  0.841000  1.0
  H  H1037  1  0.328100  0.181300  0.272300  1.0
  H  H1038  1  0.328100  0.818700  0.227700  1.0
  H  H1039  1  0.828100  0.681300  0.272300  1.0
  H  H1040  1  0.828100  0.318700  0.227700  1.0
  H  H1041  1  0.671900  0.818700  0.727700  1.0
  H  H1042  1  0.671900  0.181300  0.772300  1.0
  H  H1043  1  0.171900  0.318700  0.727700  1.0
  H  H1044  1  0.171900  0.681300  0.772300  1.0
  H  H1045  1  0.378300  0.130200  0.251800  1.0
  H  H1046  1  0.378300  0.869800  0.248200  1.0
  H  H1047  1  0.878300  0.630200  0.251800  1.0
  H  H1048  1  0.878300  0.369800  0.248200  1.0
  H  H1049  1  0.621700  0.869800  0.748200  1.0
  H  H1050  1  0.621700  0.130200  0.751800  1.0
  H  H1051  1  0.121700  0.369800  0.748200  1.0
  H  H1052  1  0.121700  0.630200  0.751800  1.0
  H  H1053  1  0.452400  0.134400  0.268900  1.0
  H  H1054  1  0.452400  0.865600  0.231100  1.0
  H  H1055  1  0.952400  0.634400  0.268900  1.0
  H  H1056  1  0.952400  0.365600  0.231100  1.0
  H  H1057  1  0.547600  0.865600  0.731100  1.0
  H  H1058  1  0.547600  0.134400  0.768900  1.0
  H  H1059  1  0.047600  0.365600  0.731100  1.0
  H  H1060  1  0.047600  0.634400  0.768900  1.0
  H  H1061  1  0.925600  0.397300  0.533700  1.0
  H  H1062  1  0.925600  0.602700  0.966300  1.0
  H  H1063  1  0.425600  0.897300  0.533700  1.0
  H  H1064  1  0.425600  0.102700  0.966300  1.0
  H  H1065  1  0.074400  0.602700  0.466300  1.0
  H  H1066  1  0.074400  0.397300  0.033700  1.0
  H  H1067  1  0.574400  0.102700  0.466300  1.0
  H  H1068  1  0.574400  0.897300  0.033700  1.0
  H  H1069  1  0.869800  0.352700  0.547500  1.0
  H  H1070  1  0.869800  0.647300  0.952500  1.0
  H  H1071  1  0.369800  0.852700  0.547500  1.0
  H  H1072  1  0.369800  0.147300  0.952500  1.0
  H  H1073  1  0.130200  0.647300  0.452500  1.0
  H  H1074  1  0.130200  0.352700  0.047500  1.0
  H  H1075  1  0.630200  0.147300  0.452500  1.0
  H  H1076  1  0.630200  0.852700  0.047500  1.0
  H  H1077  1  0.871900  0.325600  0.599000  1.0
  H  H1078  1  0.871900  0.674400  0.901000  1.0
  H  H1079  1  0.371900  0.825600  0.599000  1.0
  H  H1080  1  0.371900  0.174400  0.901000  1.0
  H  H1081  1  0.128100  0.674400  0.401000  1.0
  H  H1082  1  0.128100  0.325600  0.099000  1.0
  H  H1083  1  0.628100  0.174400  0.401000  1.0
  H  H1084  1  0.628100  0.825600  0.099000  1.0
  H  H1085  1  0.929900  0.343100  0.636700  1.0
  H  H1086  1  0.929900  0.656900  0.863300  1.0
  H  H1087  1  0.429900  0.843100  0.636700  1.0
  H  H1088  1  0.429900  0.156900  0.863300  1.0
  H  H1089  1  0.070100  0.656900  0.363300  1.0
  H  H1090  1  0.070100  0.343100  0.136700  1.0
  H  H1091  1  0.570100  0.156900  0.363300  1.0
  H  H1092  1  0.570100  0.843100  0.136700  1.0
  H  H1093  1  0.050500  0.492000  0.539900  1.0
  H  H1094  1  0.050500  0.508000  0.960100  1.0
  H  H1095  1  0.550500  0.992000  0.539900  1.0
  H  H1096  1  0.550500  0.008000  0.960100  1.0
  H  H1097  1  0.949500  0.508000  0.460100  1.0
  H  H1098  1  0.949500  0.492000  0.039900  1.0
  H  H1099  1  0.449500  0.008000  0.460100  1.0
  H  H1100  1  0.449500  0.992000  0.039900  1.0
  H  H1101  1  0.982000  0.448900  0.525600  1.0
  H  H1102  1  0.982000  0.551100  0.974400  1.0
  H  H1103  1  0.482000  0.948900  0.525600  1.0
  H  H1104  1  0.482000  0.051100  0.974400  1.0
  H  H1105  1  0.018000  0.551100  0.474400  1.0
  H  H1106  1  0.018000  0.448900  0.025600  1.0
  H  H1107  1  0.518000  0.051100  0.474400  1.0
  H  H1108  1  0.518000  0.948900  0.025600  1.0
  H  H1109  1  0.090100  0.474900  0.624000  1.0
  H  H1110  1  0.090100  0.525100  0.876000  1.0
  H  H1111  1  0.590100  0.974900  0.624000  1.0
  H  H1112  1  0.590100  0.025100  0.876000  1.0
  H  H1113  1  0.909900  0.525100  0.376000  1.0
  H  H1114  1  0.909900  0.474900  0.124000  1.0
  H  H1115  1  0.409900  0.025100  0.376000  1.0
  H  H1116  1  0.409900  0.974900  0.124000  1.0
  H  H1117  1  0.099000  0.503900  0.595300  1.0
  H  H1118  1  0.099000  0.496100  0.904700  1.0
  H  H1119  1  0.599000  0.003900  0.595300  1.0
  H  H1120  1  0.599000  0.996100  0.904700  1.0
  H  H1121  1  0.901000  0.496100  0.404700  1.0
  H  H1122  1  0.901000  0.503900  0.095300  1.0
  H  H1123  1  0.401000  0.996100  0.404700  1.0
  H  H1124  1  0.401000  0.003900  0.095300  1.0
  H  H1125  1  0.472000  0.522600  0.614200  1.0
  H  H1126  1  0.472000  0.477400  0.885800  1.0
  H  H1127  1  0.972000  0.022600  0.614200  1.0
  H  H1128  1  0.972000  0.977400  0.885800  1.0
  H  H1129  1  0.528000  0.477400  0.385800  1.0
  H  H1130  1  0.528000  0.522600  0.114200  1.0
  H  H1131  1  0.028000  0.977400  0.385800  1.0
  H  H1132  1  0.028000  0.022600  0.114200  1.0
  H  H1133  1  0.513400  0.571700  0.589900  1.0
  H  H1134  1  0.513400  0.428300  0.910100  1.0
  H  H1135  1  0.013400  0.071700  0.589900  1.0
  H  H1136  1  0.013400  0.928300  0.910100  1.0
  H  H1137  1  0.486600  0.428300  0.410100  1.0
  H  H1138  1  0.486600  0.571700  0.089900  1.0
  H  H1139  1  0.986600  0.928300  0.410100  1.0
  H  H1140  1  0.986600  0.071700  0.089900  1.0
  H  H1141  1  0.488100  0.597000  0.541100  1.0
  H  H1142  1  0.488100  0.403000  0.958900  1.0
  H  H1143  1  0.988100  0.097000  0.541100  1.0
  H  H1144  1  0.988100  0.903000  0.958900  1.0
  H  H1145  1  0.511900  0.403000  0.458900  1.0
  H  H1146  1  0.511900  0.597000  0.041100  1.0
  H  H1147  1  0.011900  0.903000  0.458900  1.0
  H  H1148  1  0.011900  0.097000  0.041100  1.0
  H  H1149  1  0.421300  0.573200  0.516500  1.0
  H  H1150  1  0.421300  0.426800  0.983500  1.0
  H  H1151  1  0.921300  0.073200  0.516500  1.0
  H  H1152  1  0.921300  0.926800  0.983500  1.0
  H  H1153  1  0.578700  0.426800  0.483500  1.0
  H  H1154  1  0.578700  0.573200  0.016500  1.0
  H  H1155  1  0.078700  0.926800  0.483500  1.0
  H  H1156  1  0.078700  0.073200  0.016500  1.0
  H  H1157  1  0.358600  0.424100  0.638100  1.0
  H  H1158  1  0.358600  0.575900  0.861900  1.0
  H  H1159  1  0.858600  0.924100  0.638100  1.0
  H  H1160  1  0.858600  0.075900  0.861900  1.0
  H  H1161  1  0.641400  0.575900  0.361900  1.0
  H  H1162  1  0.641400  0.424100  0.138100  1.0
  H  H1163  1  0.141400  0.075900  0.361900  1.0
  H  H1164  1  0.141400  0.924100  0.138100  1.0
  H  H1165  1  0.424700  0.471500  0.636900  1.0
  H  H1166  1  0.424700  0.528500  0.863100  1.0
  H  H1167  1  0.924700  0.971500  0.636900  1.0
  H  H1168  1  0.924700  0.028500  0.863100  1.0
  H  H1169  1  0.575300  0.528500  0.363100  1.0
  H  H1170  1  0.575300  0.471500  0.136900  1.0
  H  H1171  1  0.075300  0.028500  0.363100  1.0
  H  H1172  1  0.075300  0.971500  0.136900  1.0
  H  H1173  1  0.297800  0.400700  0.591600  1.0
  H  H1174  1  0.297800  0.599300  0.908400  1.0
  H  H1175  1  0.797800  0.900700  0.591600  1.0
  H  H1176  1  0.797800  0.099300  0.908400  1.0
  H  H1177  1  0.702200  0.599300  0.408400  1.0
  H  H1178  1  0.702200  0.400700  0.091600  1.0
  H  H1179  1  0.202200  0.099300  0.408400  1.0
  H  H1180  1  0.202200  0.900700  0.091600  1.0
  H  H1181  1  0.294800  0.425900  0.559900  1.0
  H  H1182  1  0.294800  0.574100  0.940100  1.0
  H  H1183  1  0.794800  0.925900  0.559900  1.0
  H  H1184  1  0.794800  0.074100  0.940100  1.0
  H  H1185  1  0.705200  0.574100  0.440100  1.0
  H  H1186  1  0.705200  0.425900  0.059900  1.0
  H  H1187  1  0.205200  0.074100  0.440100  1.0
  H  H1188  1  0.205200  0.925900  0.059900  1.0
  H  H1189  1  0.101500  0.409100  0.556300  1.0
  H  H1190  1  0.101500  0.590900  0.943700  1.0
  H  H1191  1  0.601500  0.909100  0.556300  1.0
  H  H1192  1  0.601500  0.090900  0.943700  1.0
  H  H1193  1  0.898500  0.590900  0.443700  1.0
  H  H1194  1  0.898500  0.409100  0.056300  1.0
  H  H1195  1  0.398500  0.090900  0.443700  1.0
  H  H1196  1  0.398500  0.909100  0.056300  1.0
  H  H1197  1  0.163800  0.372100  0.535400  1.0
  H  H1198  1  0.163800  0.627900  0.964600  1.0
  H  H1199  1  0.663800  0.872100  0.535400  1.0
  H  H1200  1  0.663800  0.127900  0.964600  1.0
  H  H1201  1  0.836200  0.627900  0.464600  1.0
  H  H1202  1  0.836200  0.372100  0.035400  1.0
  H  H1203  1  0.336200  0.127900  0.464600  1.0
  H  H1204  1  0.336200  0.872100  0.035400  1.0
  H  H1205  1  0.234400  0.391400  0.555400  1.0
  H  H1206  1  0.234400  0.608600  0.944600  1.0
  H  H1207  1  0.734400  0.891400  0.555400  1.0
  H  H1208  1  0.734400  0.108600  0.944600  1.0
  H  H1209  1  0.765600  0.608600  0.444600  1.0
  H  H1210  1  0.765600  0.391400  0.055400  1.0
  H  H1211  1  0.265600  0.108600  0.444600  1.0
  H  H1212  1  0.265600  0.891400  0.055400  1.0
  H  H1213  1  0.156900  0.510200  0.633200  1.0
  H  H1214  1  0.156900  0.489800  0.866800  1.0
  H  H1215  1  0.656900  0.010200  0.633200  1.0
  H  H1216  1  0.656900  0.989800  0.866800  1.0
  H  H1217  1  0.843100  0.489800  0.366800  1.0
  H  H1218  1  0.843100  0.510200  0.133200  1.0
  H  H1219  1  0.343100  0.989800  0.366800  1.0
  H  H1220  1  0.343100  0.010200  0.133200  1.0
  H  H1221  1  0.227500  0.529500  0.653100  1.0
  H  H1222  1  0.227500  0.470500  0.846900  1.0
  H  H1223  1  0.727500  0.029500  0.653100  1.0
  H  H1224  1  0.727500  0.970500  0.846900  1.0
  H  H1225  1  0.772500  0.470500  0.346900  1.0
  H  H1226  1  0.772500  0.529500  0.153100  1.0
  H  H1227  1  0.272500  0.970500  0.346900  1.0
  H  H1228  1  0.272500  0.029500  0.153100  1.0
  H  H1229  1  0.289800  0.492500  0.632300  1.0
  H  H1230  1  0.289800  0.507500  0.867700  1.0
  H  H1231  1  0.789800  0.992500  0.632300  1.0
  H  H1232  1  0.789800  0.007500  0.867700  1.0
  H  H1233  1  0.710200  0.507500  0.367700  1.0
  H  H1234  1  0.710200  0.492500  0.132300  1.0
  H  H1235  1  0.210200  0.007500  0.367700  1.0
  H  H1236  1  0.210200  0.992500  0.132300  1.0
  H  H1237  1  0.218900  0.181800  0.432300  1.0
  H  H1238  1  0.218900  0.818200  0.067700  1.0
  H  H1239  1  0.718900  0.681800  0.432300  1.0
  H  H1240  1  0.718900  0.318200  0.067700  1.0
  H  H1241  1  0.781100  0.818200  0.567700  1.0
  H  H1242  1  0.781100  0.181800  0.932300  1.0
  H  H1243  1  0.281100  0.318200  0.567700  1.0
  H  H1244  1  0.281100  0.681800  0.932300  1.0
  H  H1245  1  0.260800  0.211200  0.429200  1.0
  H  H1246  1  0.260800  0.788800  0.070800  1.0
  H  H1247  1  0.760800  0.711200  0.429200  1.0
  H  H1248  1  0.760800  0.288800  0.070800  1.0
  H  H1249  1  0.739200  0.788800  0.570800  1.0
  H  H1250  1  0.739200  0.211200  0.929200  1.0
  H  H1251  1  0.239200  0.288800  0.570800  1.0
  H  H1252  1  0.239200  0.711200  0.929200  1.0
  H  H1253  1  0.198600  0.236600  0.401200  1.0
  H  H1254  1  0.198600  0.763400  0.098800  1.0
  H  H1255  1  0.698600  0.736600  0.401200  1.0
  H  H1256  1  0.698600  0.263400  0.098800  1.0
  H  H1257  1  0.801400  0.763400  0.598800  1.0
  H  H1258  1  0.801400  0.236600  0.901200  1.0
  H  H1259  1  0.301400  0.263400  0.598800  1.0
  H  H1260  1  0.301400  0.736600  0.901200  1.0
  H  H1261  1  0.170700  0.239800  0.435300  1.0
  H  H1262  1  0.170700  0.760200  0.064700  1.0
  H  H1263  1  0.670700  0.739800  0.435300  1.0
  H  H1264  1  0.670700  0.260200  0.064700  1.0
  H  H1265  1  0.829300  0.760200  0.564700  1.0
  H  H1266  1  0.829300  0.239800  0.935300  1.0
  H  H1267  1  0.329300  0.260200  0.564700  1.0
  H  H1268  1  0.329300  0.739800  0.935300  1.0
  H  H1269  1  0.212400  0.269100  0.432200  1.0
  H  H1270  1  0.212400  0.730900  0.067800  1.0
  H  H1271  1  0.712400  0.769100  0.432200  1.0
  H  H1272  1  0.712400  0.230900  0.067800  1.0
  H  H1273  1  0.787600  0.730900  0.567800  1.0
  H  H1274  1  0.787600  0.269100  0.932200  1.0
  H  H1275  1  0.287600  0.230900  0.567800  1.0
  H  H1276  1  0.287600  0.769100  0.932200  1.0
  H  H1277  1  0.281500  0.222700  0.549800  1.0
  H  H1278  1  0.281500  0.777300  0.950200  1.0
  H  H1279  1  0.781500  0.722700  0.549800  1.0
  H  H1280  1  0.781500  0.277300  0.950200  1.0
  H  H1281  1  0.718500  0.777300  0.450200  1.0
  H  H1282  1  0.718500  0.222700  0.049800  1.0
  H  H1283  1  0.218500  0.277300  0.450200  1.0
  H  H1284  1  0.218500  0.722700  0.049800  1.0
  H  H1285  1  0.266800  0.181600  0.562500  1.0
  H  H1286  1  0.266800  0.818400  0.937500  1.0
  H  H1287  1  0.766800  0.681600  0.562500  1.0
  H  H1288  1  0.766800  0.318400  0.937500  1.0
  H  H1289  1  0.733200  0.818400  0.437500  1.0
  H  H1290  1  0.733200  0.181600  0.062500  1.0
  H  H1291  1  0.233200  0.318400  0.437500  1.0
  H  H1292  1  0.233200  0.681600  0.062500  1.0
  H  H1293  1  0.309500  0.145500  0.522000  1.0
  H  H1294  1  0.309500  0.854500  0.978000  1.0
  H  H1295  1  0.809500  0.645500  0.522000  1.0
  H  H1296  1  0.809500  0.354500  0.978000  1.0
  H  H1297  1  0.690500  0.854500  0.478000  1.0
  H  H1298  1  0.690500  0.145500  0.022000  1.0
  H  H1299  1  0.190500  0.354500  0.478000  1.0
  H  H1300  1  0.190500  0.645500  0.022000  1.0
  H  H1301  1  0.324500  0.187600  0.509000  1.0
  H  H1302  1  0.324500  0.812400  0.991000  1.0
  H  H1303  1  0.824500  0.687600  0.509000  1.0
  H  H1304  1  0.824500  0.312400  0.991000  1.0
  H  H1305  1  0.675500  0.812400  0.491000  1.0
  H  H1306  1  0.675500  0.187600  0.009000  1.0
  H  H1307  1  0.175500  0.312400  0.491000  1.0
  H  H1308  1  0.175500  0.687600  0.009000  1.0
  H  H1309  1  0.337000  0.178400  0.546200  1.0
  H  H1310  1  0.337000  0.821600  0.953800  1.0
  H  H1311  1  0.837000  0.678400  0.546200  1.0
  H  H1312  1  0.837000  0.321600  0.953800  1.0
  H  H1313  1  0.663000  0.821600  0.453800  1.0
  H  H1314  1  0.663000  0.178400  0.046200  1.0
  H  H1315  1  0.163000  0.321600  0.453800  1.0
  H  H1316  1  0.163000  0.678400  0.046200  1.0
  C  C1317  1  0.228700  0.209200  0.439200  1
  C  C1318  1  0.228700  0.790800  0.060800  1
  C  C1319  1  0.728700  0.709200  0.439200  1
  C  C1320  1  0.728700  0.290800  0.060800  1
  C  C1321  1  0.771300  0.790800  0.560800  1
  C  C1322  1  0.771300  0.209200  0.939200  1
  C  C1323  1  0.271300  0.290800  0.560800  1
  C  C1324  1  0.271300  0.709200  0.939200  1
  C  C1325  1  0.200400  0.244900  0.428800  1
  C  C1326  1  0.200400  0.755100  0.071200  1
  C  C1327  1  0.700400  0.744900  0.428800  1
  C  C1328  1  0.700400  0.255100  0.071200  1
  C  C1329  1  0.799600  0.755100  0.571200  1
  C  C1330  1  0.799600  0.244900  0.928800  1
  C  C1331  1  0.299600  0.255100  0.571200  1
  C  C1332  1  0.299600  0.744900  0.928800  1
  C  C1333  1  0.992920  0.207490  0.448260  1.0
  C  C1334  1  0.992920  0.792510  0.051740  1.0
  C  C1335  1  0.492920  0.707490  0.448260  1.0
  C  C1336  1  0.492920  0.292510  0.051740  1.0
  C  C1337  1  0.007080  0.792510  0.551740  1.0
  C  C1338  1  0.007080  0.207490  0.948260  1.0
  C  C1339  1  0.507080  0.292510  0.551740  1.0
  C  C1340  1  0.507080  0.707490  0.948260  1.0
  C  C1341  1  0.994300  0.189620  0.478050  1.0
  C  C1342  1  0.994300  0.810380  0.021950  1.0
  C  C1343  1  0.494300  0.689620  0.478050  1.0
  C  C1344  1  0.494300  0.310380  0.021950  1.0
  C  C1345  1  0.005700  0.810380  0.521950  1.0
  C  C1346  1  0.005700  0.189620  0.978050  1.0
  C  C1347  1  0.505700  0.310380  0.521950  1.0
  C  C1348  1  0.505700  0.689620  0.978050  1.0
  C  C1349  1  0.959750  0.164630  0.486280  1.0
  C  C1350  1  0.959750  0.835370  0.013720  1.0
  C  C1351  1  0.459750  0.664630  0.486280  1.0
  C  C1352  1  0.459750  0.335370  0.013720  1.0
  C  C1353  1  0.040250  0.835370  0.513720  1.0
  C  C1354  1  0.040250  0.164630  0.986280  1.0
  C  C1355  1  0.540250  0.335370  0.513720  1.0
  C  C1356  1  0.540250  0.664630  0.986280  1.0
  C  C1357  1  0.923820  0.157530  0.464710  1.0
  C  C1358  1  0.923820  0.842470  0.035290  1.0
  C  C1359  1  0.423820  0.657530  0.464710  1.0
  C  C1360  1  0.423820  0.342470  0.035290  1.0
  C  C1361  1  0.076180  0.842470  0.535290  1.0
  C  C1362  1  0.076180  0.157530  0.964710  1.0
  C  C1363  1  0.576180  0.342470  0.535290  1.0
  C  C1364  1  0.576180  0.657530  0.964710  1.0
  C  C1365  1  0.922430  0.175410  0.434910  1.0
  C  C1366  1  0.922430  0.824590  0.065090  1.0
  C  C1367  1  0.422430  0.675410  0.434910  1.0
  C  C1368  1  0.422430  0.324590  0.065090  1.0
  C  C1369  1  0.077570  0.824590  0.565090  1.0
  C  C1370  1  0.077570  0.175410  0.934910  1.0
  C  C1371  1  0.577570  0.324590  0.565090  1.0
  C  C1372  1  0.577570  0.675410  0.934910  1.0
  C  C1373  1  0.080730  0.280110  0.438880  1.0
  C  C1374  1  0.080730  0.719890  0.061120  1.0
  C  C1375  1  0.580730  0.780110  0.438880  1.0
  C  C1376  1  0.580730  0.219890  0.061120  1.0
  C  C1377  1  0.919270  0.719890  0.561120  1.0
  C  C1378  1  0.919270  0.280110  0.938880  1.0
  C  C1379  1  0.419270  0.219890  0.561120  1.0
  C  C1380  1  0.419270  0.780110  0.938880  1.0
  C  C1381  1  0.062430  0.249570  0.457160  1.0
  C  C1382  1  0.062430  0.750430  0.042840  1.0
  C  C1383  1  0.562430  0.749570  0.457160  1.0
  C  C1384  1  0.562430  0.250430  0.042840  1.0
  C  C1385  1  0.937570  0.750430  0.542840  1.0
  C  C1386  1  0.937570  0.249570  0.957160  1.0
  C  C1387  1  0.437570  0.250430  0.542840  1.0
  C  C1388  1  0.437570  0.749570  0.957160  1.0
  C  C1389  1  0.023620  0.234100  0.440160  1.0
  C  C1390  1  0.023620  0.765900  0.059840  1.0
  C  C1391  1  0.523620  0.734100  0.440160  1.0
  C  C1392  1  0.523620  0.265900  0.059840  1.0
  C  C1393  1  0.976380  0.765900  0.559840  1.0
  C  C1394  1  0.976380  0.234100  0.940160  1.0
  C  C1395  1  0.476380  0.265900  0.559840  1.0
  C  C1396  1  0.476380  0.734100  0.940160  1.0
  C  C1397  1  0.061000  0.307400  0.385000  1.0
  C  C1398  1  0.061000  0.692600  0.115000  1.0
  C  C1399  1  0.561000  0.807400  0.385000  1.0
  C  C1400  1  0.561000  0.192600  0.115000  1.0
  C  C1401  1  0.939000  0.692600  0.615000  1.0
  C  C1402  1  0.939000  0.307400  0.885000  1.0
  C  C1403  1  0.439000  0.192600  0.615000  1.0
  C  C1404  1  0.439000  0.807400  0.885000  1.0
  C  C1405  1  0.269350  0.401440  0.215710  1.0
  C  C1406  1  0.269350  0.598560  0.284290  1.0
  C  C1407  1  0.769350  0.901440  0.215710  1.0
  C  C1408  1  0.769350  0.098560  0.284290  1.0
  C  C1409  1  0.730650  0.598560  0.784290  1.0
  C  C1410  1  0.730650  0.401440  0.715710  1.0
  C  C1411  1  0.230650  0.098560  0.784290  1.0
  C  C1412  1  0.230650  0.901440  0.715710  1.0
  C  C1413  1  0.275090  0.427970  0.191400  1.0
  C  C1414  1  0.275090  0.572030  0.308600  1.0
  C  C1415  1  0.775090  0.927970  0.191400  1.0
  C  C1416  1  0.775090  0.072030  0.308600  1.0
  C  C1417  1  0.724910  0.572030  0.808600  1.0
  C  C1418  1  0.724910  0.427970  0.691400  1.0
  C  C1419  1  0.224910  0.072030  0.808600  1.0
  C  C1420  1  0.224910  0.927970  0.691400  1.0
  C  C1421  1  0.311100  0.454440  0.193210  1.0
  C  C1422  1  0.311100  0.545560  0.306790  1.0
  C  C1423  1  0.811100  0.954440  0.193210  1.0
  C  C1424  1  0.811100  0.045560  0.306790  1.0
  C  C1425  1  0.688900  0.545560  0.806790  1.0
  C  C1426  1  0.688900  0.454440  0.693210  1.0
  C  C1427  1  0.188900  0.045560  0.806790  1.0
  C  C1428  1  0.188900  0.954440  0.693210  1.0
  C  C1429  1  0.341450  0.454370  0.219310  1.0
  C  C1430  1  0.341450  0.545630  0.280690  1.0
  C  C1431  1  0.841450  0.954370  0.219310  1.0
  C  C1432  1  0.841450  0.045630  0.280690  1.0
  C  C1433  1  0.658550  0.545630  0.780690  1.0
  C  C1434  1  0.658550  0.454370  0.719310  1.0
  C  C1435  1  0.158550  0.045630  0.780690  1.0
  C  C1436  1  0.158550  0.954370  0.719310  1.0
  C  C1437  1  0.335720  0.427840  0.243620  1.0
  C  C1438  1  0.335720  0.572160  0.256380  1.0
  C  C1439  1  0.835720  0.927840  0.243620  1.0
  C  C1440  1  0.835720  0.072160  0.256380  1.0
  C  C1441  1  0.664280  0.572160  0.756380  1.0
  C  C1442  1  0.664280  0.427840  0.743620  1.0
  C  C1443  1  0.164280  0.072160  0.756380  1.0
  C  C1444  1  0.164280  0.927840  0.743620  1.0
  C  C1445  1  0.177120  0.331100  0.203590  1.0
  C  C1446  1  0.177120  0.668900  0.296410  1.0
  C  C1447  1  0.677120  0.831100  0.203590  1.0
  C  C1448  1  0.677120  0.168900  0.296410  1.0
  C  C1449  1  0.822880  0.668900  0.796410  1.0
  C  C1450  1  0.822880  0.331100  0.703590  1.0
  C  C1451  1  0.322880  0.168900  0.796410  1.0
  C  C1452  1  0.322880  0.831100  0.703590  1.0
  C  C1453  1  0.200930  0.364390  0.192620  1.0
  C  C1454  1  0.200930  0.635610  0.307380  1.0
  C  C1455  1  0.700930  0.864390  0.192620  1.0
  C  C1456  1  0.700930  0.135610  0.307380  1.0
  C  C1457  1  0.799070  0.635610  0.807380  1.0
  C  C1458  1  0.799070  0.364390  0.692620  1.0
  C  C1459  1  0.299070  0.135610  0.807380  1.0
  C  C1460  1  0.299070  0.864390  0.692620  1.0
  C  C1461  1  0.236520  0.374060  0.215320  1.0
  C  C1462  1  0.236520  0.625940  0.284680  1.0
  C  C1463  1  0.736520  0.874060  0.215320  1.0
  C  C1464  1  0.736520  0.125940  0.284680  1.0
  C  C1465  1  0.763480  0.625940  0.784680  1.0
  C  C1466  1  0.763480  0.374060  0.715320  1.0
  C  C1467  1  0.263480  0.125940  0.784680  1.0
  C  C1468  1  0.263480  0.874060  0.715320  1.0
  C  C1469  1  0.183500  0.294200  0.255530  1.0
  C  C1470  1  0.183500  0.705800  0.244470  1.0
  C  C1471  1  0.683500  0.794200  0.255530  1.0
  C  C1472  1  0.683500  0.205800  0.244470  1.0
  C  C1473  1  0.816500  0.705800  0.744470  1.0
  C  C1474  1  0.816500  0.294200  0.755530  1.0
  C  C1475  1  0.316500  0.205800  0.744470  1.0
  C  C1476  1  0.316500  0.794200  0.755530  1.0
  C  C1477  1  0.091930  0.287880  0.357370  1.0
  C  C1478  1  0.091930  0.712120  0.142630  1.0
  C  C1479  1  0.591930  0.787880  0.357370  1.0
  C  C1480  1  0.591930  0.212120  0.142630  1.0
  C  C1481  1  0.908070  0.712120  0.642630  1.0
  C  C1482  1  0.908070  0.287880  0.857370  1.0
  C  C1483  1  0.408070  0.212120  0.642630  1.0
  C  C1484  1  0.408070  0.787880  0.857370  1.0
  C  C1485  1  0.104450  0.247290  0.357990  1.0
  C  C1486  1  0.104450  0.752710  0.142010  1.0
  C  C1487  1  0.604450  0.747290  0.357990  1.0
  C  C1488  1  0.604450  0.252710  0.142010  1.0
  C  C1489  1  0.895550  0.752710  0.642010  1.0
  C  C1490  1  0.895550  0.247290  0.857990  1.0
  C  C1491  1  0.395550  0.252710  0.642010  1.0
  C  C1492  1  0.395550  0.747290  0.857990  1.0
  C  C1493  1  0.132820  0.228750  0.333510  1.0
  C  C1494  1  0.132820  0.771250  0.166490  1.0
  C  C1495  1  0.632820  0.728750  0.333510  1.0
  C  C1496  1  0.632820  0.271250  0.166490  1.0
  C  C1497  1  0.867180  0.771250  0.666490  1.0
  C  C1498  1  0.867180  0.228750  0.833510  1.0
  C  C1499  1  0.367180  0.271250  0.666490  1.0
  C  C1500  1  0.367180  0.728750  0.833510  1.0
  C  C1501  1  0.148690  0.250800  0.308400  1.0
  C  C1502  1  0.148690  0.749200  0.191600  1.0
  C  C1503  1  0.648690  0.750800  0.308400  1.0
  C  C1504  1  0.648690  0.249200  0.191600  1.0
  C  C1505  1  0.851310  0.749200  0.691600  1.0
  C  C1506  1  0.851310  0.250800  0.808400  1.0
  C  C1507  1  0.351310  0.249200  0.691600  1.0
  C  C1508  1  0.351310  0.750800  0.808400  1.0
  C  C1509  1  0.136170  0.291390  0.307780  1.0
  C  C1510  1  0.136170  0.708610  0.192220  1.0
  C  C1511  1  0.636170  0.791390  0.307780  1.0
  C  C1512  1  0.636170  0.208610  0.192220  1.0
  C  C1513  1  0.863830  0.708610  0.692220  1.0
  C  C1514  1  0.863830  0.291390  0.807780  1.0
  C  C1515  1  0.363830  0.208610  0.692220  1.0
  C  C1516  1  0.363830  0.791390  0.807780  1.0
  C  C1517  1  0.107800  0.309930  0.332270  1.0
  C  C1518  1  0.107800  0.690070  0.167730  1.0
  C  C1519  1  0.607800  0.809930  0.332270  1.0
  C  C1520  1  0.607800  0.190070  0.167730  1.0
  C  C1521  1  0.892200  0.690070  0.667730  1.0
  C  C1522  1  0.892200  0.309930  0.832270  1.0
  C  C1523  1  0.392200  0.190070  0.667730  1.0
  C  C1524  1  0.392200  0.809930  0.832270  1.0
  C  C1525  1  0.095280  0.350520  0.331650  1.0
  C  C1526  1  0.095280  0.649480  0.168350  1.0
  C  C1527  1  0.595280  0.850520  0.331650  1.0
  C  C1528  1  0.595280  0.149480  0.168350  1.0
  C  C1529  1  0.904720  0.649480  0.668350  1.0
  C  C1530  1  0.904720  0.350520  0.831650  1.0
  C  C1531  1  0.404720  0.149480  0.668350  1.0
  C  C1532  1  0.404720  0.850520  0.831650  1.0
  C  C1533  1  0.111150  0.372570  0.306540  1.0
  C  C1534  1  0.111150  0.627430  0.193460  1.0
  C  C1535  1  0.611150  0.872570  0.306540  1.0
  C  C1536  1  0.611150  0.127430  0.193460  1.0
  C  C1537  1  0.888850  0.627430  0.693460  1.0
  C  C1538  1  0.888850  0.372570  0.806540  1.0
  C  C1539  1  0.388850  0.127430  0.693460  1.0
  C  C1540  1  0.388850  0.872570  0.806540  1.0
  C  C1541  1  0.139530  0.354040  0.282060  1.0
  C  C1542  1  0.139530  0.645960  0.217940  1.0
  C  C1543  1  0.639530  0.854040  0.282060  1.0
  C  C1544  1  0.639530  0.145960  0.217940  1.0
  C  C1545  1  0.860470  0.645960  0.717940  1.0
  C  C1546  1  0.860470  0.354040  0.782060  1.0
  C  C1547  1  0.360470  0.145960  0.717940  1.0
  C  C1548  1  0.360470  0.854040  0.782060  1.0
  C  C1549  1  0.152040  0.313450  0.282680  1.0
  C  C1550  1  0.152040  0.686550  0.217320  1.0
  C  C1551  1  0.652040  0.813450  0.282680  1.0
  C  C1552  1  0.652040  0.186550  0.217320  1.0
  C  C1553  1  0.847960  0.686550  0.717320  1.0
  C  C1554  1  0.847960  0.313450  0.782680  1.0
  C  C1555  1  0.347960  0.186550  0.717320  1.0
  C  C1556  1  0.347960  0.813450  0.782680  1.0
  C  C1557  1  0.859600  0.232020  0.374160  1.0
  C  C1558  1  0.859600  0.767980  0.125840  1.0
  C  C1559  1  0.359600  0.732020  0.374160  1.0
  C  C1560  1  0.359600  0.267980  0.125840  1.0
  C  C1561  1  0.140400  0.767980  0.625840  1.0
  C  C1562  1  0.140400  0.232020  0.874160  1.0
  C  C1563  1  0.640400  0.267980  0.625840  1.0
  C  C1564  1  0.640400  0.732020  0.874160  1.0
  C  C1565  1  0.817540  0.217360  0.365230  1.0
  C  C1566  1  0.817540  0.782640  0.134770  1.0
  C  C1567  1  0.317540  0.717360  0.365230  1.0
  C  C1568  1  0.317540  0.282640  0.134770  1.0
  C  C1569  1  0.182460  0.782640  0.634770  1.0
  C  C1570  1  0.182460  0.217360  0.865230  1.0
  C  C1571  1  0.682460  0.282640  0.634770  1.0
  C  C1572  1  0.682460  0.717360  0.865230  1.0
  C  C1573  1  0.812700  0.179820  0.345840  1.0
  C  C1574  1  0.812700  0.820180  0.154160  1.0
  C  C1575  1  0.312700  0.679820  0.345840  1.0
  C  C1576  1  0.312700  0.320180  0.154160  1.0
  C  C1577  1  0.187300  0.820180  0.654160  1.0
  C  C1578  1  0.187300  0.179820  0.845840  1.0
  C  C1579  1  0.687300  0.320180  0.654160  1.0
  C  C1580  1  0.687300  0.679820  0.845840  1.0
  C  C1581  1  0.849910  0.156940  0.335370  1.0
  C  C1582  1  0.849910  0.843060  0.164630  1.0
  C  C1583  1  0.349910  0.656940  0.335370  1.0
  C  C1584  1  0.349910  0.343060  0.164630  1.0
  C  C1585  1  0.150090  0.843060  0.664630  1.0
  C  C1586  1  0.150090  0.156940  0.835370  1.0
  C  C1587  1  0.650090  0.343060  0.664630  1.0
  C  C1588  1  0.650090  0.656940  0.835370  1.0
  C  C1589  1  0.891970  0.171590  0.344300  1.0
  C  C1590  1  0.891970  0.828410  0.155700  1.0
  C  C1591  1  0.391970  0.671590  0.344300  1.0
  C  C1592  1  0.391970  0.328410  0.155700  1.0
  C  C1593  1  0.108030  0.828410  0.655700  1.0
  C  C1594  1  0.108030  0.171590  0.844300  1.0
  C  C1595  1  0.608030  0.328410  0.655700  1.0
  C  C1596  1  0.608030  0.671590  0.844300  1.0
  C  C1597  1  0.867180  0.331380  0.423690  1.0
  C  C1598  1  0.867180  0.668620  0.076310  1.0
  C  C1599  1  0.367180  0.831380  0.423690  1.0
  C  C1600  1  0.367180  0.168620  0.076310  1.0
  C  C1601  1  0.132820  0.668620  0.576310  1.0
  C  C1602  1  0.132820  0.331380  0.923690  1.0
  C  C1603  1  0.632820  0.168620  0.576310  1.0
  C  C1604  1  0.632820  0.831380  0.923690  1.0
  C  C1605  1  0.840180  0.302300  0.404260  1.0
  C  C1606  1  0.840180  0.697700  0.095740  1.0
  C  C1607  1  0.340180  0.802300  0.404260  1.0
  C  C1608  1  0.340180  0.197700  0.095740  1.0
  C  C1609  1  0.159820  0.697700  0.595740  1.0
  C  C1610  1  0.159820  0.302300  0.904260  1.0
  C  C1611  1  0.659820  0.197700  0.595740  1.0
  C  C1612  1  0.659820  0.802300  0.904260  1.0
  C  C1613  1  0.866750  0.267620  0.393590  1.0
  C  C1614  1  0.866750  0.732380  0.106410  1.0
  C  C1615  1  0.366750  0.767620  0.393590  1.0
  C  C1616  1  0.366750  0.232380  0.106410  1.0
  C  C1617  1  0.133250  0.732380  0.606410  1.0
  C  C1618  1  0.133250  0.267620  0.893590  1.0
  C  C1619  1  0.633250  0.232380  0.606410  1.0
  C  C1620  1  0.633250  0.767620  0.893590  1.0
  C  C1621  1  0.945800  0.327800  0.444750  1.0
  C  C1622  1  0.945800  0.672200  0.055250  1.0
  C  C1623  1  0.445800  0.827800  0.444750  1.0
  C  C1624  1  0.445800  0.172200  0.055250  1.0
  C  C1625  1  0.054200  0.672200  0.555250  1.0
  C  C1626  1  0.054200  0.327800  0.944750  1.0
  C  C1627  1  0.554200  0.172200  0.555250  1.0
  C  C1628  1  0.554200  0.827800  0.944750  1.0
  C  C1629  1  0.111990  0.396170  0.657280  1.0
  C  C1630  1  0.111990  0.603830  0.842720  1.0
  C  C1631  1  0.611990  0.896170  0.657280  1.0
  C  C1632  1  0.611990  0.103830  0.842720  1.0
  C  C1633  1  0.888010  0.603830  0.342720  1.0
  C  C1634  1  0.888010  0.396170  0.157280  1.0
  C  C1635  1  0.388010  0.103830  0.342720  1.0
  C  C1636  1  0.388010  0.896170  0.157280  1.0
  C  C1637  1  0.152860  0.407940  0.671170  1.0
  C  C1638  1  0.152860  0.592060  0.828830  1.0
  C  C1639  1  0.652860  0.907940  0.671170  1.0
  C  C1640  1  0.652860  0.092060  0.828830  1.0
  C  C1641  1  0.847140  0.592060  0.328830  1.0
  C  C1642  1  0.847140  0.407940  0.171170  1.0
  C  C1643  1  0.347140  0.092060  0.328830  1.0
  C  C1644  1  0.347140  0.907940  0.171170  1.0
  C  C1645  1  0.156340  0.443340  0.693520  1.0
  C  C1646  1  0.156340  0.556660  0.806480  1.0
  C  C1647  1  0.656340  0.943340  0.693520  1.0
  C  C1648  1  0.656340  0.056660  0.806480  1.0
  C  C1649  1  0.843660  0.556660  0.306480  1.0
  C  C1650  1  0.843660  0.443340  0.193520  1.0
  C  C1651  1  0.343660  0.056660  0.306480  1.0
  C  C1652  1  0.343660  0.943340  0.193520  1.0
  C  C1653  1  0.118950  0.466960  0.701980  1.0
  C  C1654  1  0.118950  0.533040  0.798020  1.0
  C  C1655  1  0.618950  0.966960  0.701980  1.0
  C  C1656  1  0.618950  0.033040  0.798020  1.0
  C  C1657  1  0.881050  0.533040  0.298020  1.0
  C  C1658  1  0.881050  0.466960  0.201980  1.0
  C  C1659  1  0.381050  0.033040  0.298020  1.0
  C  C1660  1  0.381050  0.966960  0.201980  1.0
  C  C1661  1  0.078080  0.455190  0.688100  1.0
  C  C1662  1  0.078080  0.544810  0.811900  1.0
  C  C1663  1  0.578080  0.955190  0.688100  1.0
  C  C1664  1  0.578080  0.044810  0.811900  1.0
  C  C1665  1  0.921920  0.544810  0.311900  1.0
  C  C1666  1  0.921920  0.455190  0.188100  1.0
  C  C1667  1  0.421920  0.044810  0.311900  1.0
  C  C1668  1  0.421920  0.955190  0.188100  1.0
  C  C1669  1  0.106910  0.298240  0.605070  1.0
  C  C1670  1  0.106910  0.701760  0.894930  1.0
  C  C1671  1  0.606910  0.798240  0.605070  1.0
  C  C1672  1  0.606910  0.201760  0.894930  1.0
  C  C1673  1  0.893090  0.701760  0.394930  1.0
  C  C1674  1  0.893090  0.298240  0.105070  1.0
  C  C1675  1  0.393090  0.201760  0.394930  1.0
  C  C1676  1  0.393090  0.798240  0.105070  1.0
  C  C1677  1  0.133120  0.328040  0.624450  1.0
  C  C1678  1  0.133120  0.671960  0.875550  1.0
  C  C1679  1  0.633120  0.828040  0.624450  1.0
  C  C1680  1  0.633120  0.171960  0.875550  1.0
  C  C1681  1  0.866880  0.671960  0.375550  1.0
  C  C1682  1  0.866880  0.328040  0.124450  1.0
  C  C1683  1  0.366880  0.171960  0.375550  1.0
  C  C1684  1  0.366880  0.828040  0.124450  1.0
  C  C1685  1  0.105130  0.361280  0.636290  1.0
  C  C1686  1  0.105130  0.638720  0.863710  1.0
  C  C1687  1  0.605130  0.861280  0.636290  1.0
  C  C1688  1  0.605130  0.138720  0.863710  1.0
  C  C1689  1  0.894870  0.638720  0.363710  1.0
  C  C1690  1  0.894870  0.361280  0.136290  1.0
  C  C1691  1  0.394870  0.138720  0.363710  1.0
  C  C1692  1  0.394870  0.861280  0.136290  1.0
  C  C1693  1  0.028200  0.296800  0.585350  1.0
  C  C1694  1  0.028200  0.703200  0.914650  1.0
  C  C1695  1  0.528200  0.796800  0.585350  1.0
  C  C1696  1  0.528200  0.203200  0.914650  1.0
  C  C1697  1  0.971800  0.703200  0.414650  1.0
  C  C1698  1  0.971800  0.296800  0.085350  1.0
  C  C1699  1  0.471800  0.203200  0.414650  1.0
  C  C1700  1  0.471800  0.796800  0.085350  1.0
  C  C1701  1  0.949840  0.308980  0.478100  1.0
  C  C1702  1  0.949840  0.691020  0.021900  1.0
  C  C1703  1  0.449840  0.808980  0.478100  1.0
  C  C1704  1  0.449840  0.191020  0.021900  1.0
  C  C1705  1  0.050160  0.691020  0.521900  1.0
  C  C1706  1  0.050160  0.308980  0.978100  1.0
  C  C1707  1  0.550160  0.191020  0.521900  1.0
  C  C1708  1  0.550160  0.808980  0.978100  1.0
  C  C1709  1  0.916940  0.282830  0.487270  1.0
  C  C1710  1  0.916940  0.717170  0.012730  1.0
  C  C1711  1  0.416940  0.782830  0.487270  1.0
  C  C1712  1  0.416940  0.217170  0.012730  1.0
  C  C1713  1  0.083060  0.717170  0.512730  1.0
  C  C1714  1  0.083060  0.282830  0.987270  1.0
  C  C1715  1  0.583060  0.217170  0.512730  1.0
  C  C1716  1  0.583060  0.782830  0.987270  1.0
  C  C1717  1  0.919990  0.266220  0.517580  1.0
  C  C1718  1  0.919990  0.733780  0.982420  1.0
  C  C1719  1  0.419990  0.766220  0.517580  1.0
  C  C1720  1  0.419990  0.233780  0.982420  1.0
  C  C1721  1  0.080010  0.733780  0.482420  1.0
  C  C1722  1  0.080010  0.266220  0.017580  1.0
  C  C1723  1  0.580010  0.233780  0.482420  1.0
  C  C1724  1  0.580010  0.766220  0.017580  1.0
  C  C1725  1  0.955930  0.275760  0.538710  1.0
  C  C1726  1  0.955930  0.724240  0.961290  1.0
  C  C1727  1  0.455930  0.775760  0.538710  1.0
  C  C1728  1  0.455930  0.224240  0.961290  1.0
  C  C1729  1  0.044070  0.724240  0.461290  1.0
  C  C1730  1  0.044070  0.275760  0.038710  1.0
  C  C1731  1  0.544070  0.224240  0.461290  1.0
  C  C1732  1  0.544070  0.775760  0.038710  1.0
  C  C1733  1  0.988830  0.301910  0.529540  1.0
  C  C1734  1  0.988830  0.698090  0.970460  1.0
  C  C1735  1  0.488830  0.801910  0.529540  1.0
  C  C1736  1  0.488830  0.198090  0.970460  1.0
  C  C1737  1  0.011170  0.698090  0.470460  1.0
  C  C1738  1  0.011170  0.301910  0.029540  1.0
  C  C1739  1  0.511170  0.198090  0.470460  1.0
  C  C1740  1  0.511170  0.801910  0.029540  1.0
  C  C1741  1  0.985780  0.318520  0.499230  1.0
  C  C1742  1  0.985780  0.681480  0.000770  1.0
  C  C1743  1  0.485780  0.818520  0.499230  1.0
  C  C1744  1  0.485780  0.181480  0.000770  1.0
  C  C1745  1  0.014220  0.681480  0.500770  1.0
  C  C1746  1  0.014220  0.318520  0.999230  1.0
  C  C1747  1  0.514220  0.181480  0.500770  1.0
  C  C1748  1  0.514220  0.818520  0.999230  1.0
  C  C1749  1  0.018680  0.344670  0.490050  1.0
  C  C1750  1  0.018680  0.655330  0.009950  1.0
  C  C1751  1  0.518680  0.844670  0.490050  1.0
  C  C1752  1  0.518680  0.155330  0.009950  1.0
  C  C1753  1  0.981320  0.655330  0.509950  1.0
  C  C1754  1  0.981320  0.344670  0.990050  1.0
  C  C1755  1  0.481320  0.155330  0.509950  1.0
  C  C1756  1  0.481320  0.844670  0.990050  1.0
  C  C1757  1  0.054630  0.354220  0.511180  1.0
  C  C1758  1  0.054630  0.645780  0.988820  1.0
  C  C1759  1  0.554630  0.854220  0.511180  1.0
  C  C1760  1  0.554630  0.145780  0.988820  1.0
  C  C1761  1  0.945370  0.645780  0.488820  1.0
  C  C1762  1  0.945370  0.354220  0.011180  1.0
  C  C1763  1  0.445370  0.145780  0.488820  1.0
  C  C1764  1  0.445370  0.854220  0.011180  1.0
  C  C1765  1  0.057670  0.337610  0.541490  1.0
  C  C1766  1  0.057670  0.662390  0.958510  1.0
  C  C1767  1  0.557670  0.837610  0.541490  1.0
  C  C1768  1  0.557670  0.162390  0.958510  1.0
  C  C1769  1  0.942330  0.662390  0.458510  1.0
  C  C1770  1  0.942330  0.337610  0.041490  1.0
  C  C1771  1  0.442330  0.162390  0.458510  1.0
  C  C1772  1  0.442330  0.837610  0.041490  1.0
  C  C1773  1  0.024780  0.311460  0.550670  1.0
  C  C1774  1  0.024780  0.688540  0.949330  1.0
  C  C1775  1  0.524780  0.811460  0.550670  1.0
  C  C1776  1  0.524780  0.188540  0.949330  1.0
  C  C1777  1  0.975220  0.688540  0.449330  1.0
  C  C1778  1  0.975220  0.311460  0.050670  1.0
  C  C1779  1  0.475220  0.188540  0.449330  1.0
  C  C1780  1  0.475220  0.811460  0.050670  1.0
  C  C1781  1  0.993710  0.253630  0.318070  1.0
  C  C1782  1  0.993710  0.746370  0.181930  1.0
  C  C1783  1  0.493710  0.753630  0.318070  1.0
  C  C1784  1  0.493710  0.246370  0.181930  1.0
  C  C1785  1  0.006290  0.746370  0.681930  1.0
  C  C1786  1  0.006290  0.253630  0.818070  1.0
  C  C1787  1  0.506290  0.246370  0.681930  1.0
  C  C1788  1  0.506290  0.753630  0.818070  1.0
  C  C1789  1  0.005720  0.276370  0.292300  1.0
  C  C1790  1  0.005720  0.723630  0.207700  1.0
  C  C1791  1  0.505720  0.776370  0.292300  1.0
  C  C1792  1  0.505720  0.223630  0.207700  1.0
  C  C1793  1  0.994280  0.723630  0.707700  1.0
  C  C1794  1  0.994280  0.276370  0.792300  1.0
  C  C1795  1  0.494280  0.223630  0.707700  1.0
  C  C1796  1  0.494280  0.776370  0.792300  1.0
  C  C1797  1  0.991980  0.316810  0.293050  1.0
  C  C1798  1  0.991980  0.683190  0.206950  1.0
  C  C1799  1  0.491980  0.816810  0.293050  1.0
  C  C1800  1  0.491980  0.183190  0.206950  1.0
  C  C1801  1  0.008020  0.683190  0.706950  1.0
  C  C1802  1  0.008020  0.316810  0.793050  1.0
  C  C1803  1  0.508020  0.183190  0.706950  1.0
  C  C1804  1  0.508020  0.816810  0.793050  1.0
  C  C1805  1  0.966230  0.334510  0.319570  1.0
  C  C1806  1  0.966230  0.665490  0.180430  1.0
  C  C1807  1  0.466230  0.834510  0.319570  1.0
  C  C1808  1  0.466230  0.165490  0.180430  1.0
  C  C1809  1  0.033770  0.665490  0.680430  1.0
  C  C1810  1  0.033770  0.334510  0.819570  1.0
  C  C1811  1  0.533770  0.165490  0.680430  1.0
  C  C1812  1  0.533770  0.834510  0.819570  1.0
  C  C1813  1  0.954220  0.311770  0.345340  1.0
  C  C1814  1  0.954220  0.688230  0.154660  1.0
  C  C1815  1  0.454220  0.811770  0.345340  1.0
  C  C1816  1  0.454220  0.188230  0.154660  1.0
  C  C1817  1  0.045780  0.688230  0.654660  1.0
  C  C1818  1  0.045780  0.311770  0.845340  1.0
  C  C1819  1  0.545780  0.188230  0.654660  1.0
  C  C1820  1  0.545780  0.811770  0.845340  1.0
  C  C1821  1  0.021700  0.145140  0.308290  1.0
  C  C1822  1  0.021700  0.854860  0.191710  1.0
  C  C1823  1  0.521700  0.645140  0.308290  1.0
  C  C1824  1  0.521700  0.354860  0.191710  1.0
  C  C1825  1  0.978300  0.854860  0.691710  1.0
  C  C1826  1  0.978300  0.145140  0.808290  1.0
  C  C1827  1  0.478300  0.354860  0.691710  1.0
  C  C1828  1  0.478300  0.645140  0.808290  1.0
  C  C1829  1  0.021600  0.182790  0.294080  1.0
  C  C1830  1  0.021600  0.817210  0.205920  1.0
  C  C1831  1  0.521600  0.682790  0.294080  1.0
  C  C1832  1  0.521600  0.317210  0.205920  1.0
  C  C1833  1  0.978400  0.817210  0.705920  1.0
  C  C1834  1  0.978400  0.182790  0.794080  1.0
  C  C1835  1  0.478400  0.317210  0.705920  1.0
  C  C1836  1  0.478400  0.682790  0.794080  1.0
  C  C1837  1  0.003560  0.213300  0.318180  1.0
  C  C1838  1  0.003560  0.786700  0.181820  1.0
  C  C1839  1  0.503560  0.713300  0.318180  1.0
  C  C1840  1  0.503560  0.286700  0.181820  1.0
  C  C1841  1  0.996440  0.786700  0.681820  1.0
  C  C1842  1  0.996440  0.213300  0.818180  1.0
  C  C1843  1  0.496440  0.286700  0.681820  1.0
  C  C1844  1  0.496440  0.713300  0.818180  1.0
  C  C1845  1  0.999500  0.126500  0.365200  1.0
  C  C1846  1  0.999500  0.873500  0.134800  1.0
  C  C1847  1  0.499500  0.626500  0.365200  1.0
  C  C1848  1  0.499500  0.373500  0.134800  1.0
  C  C1849  1  0.000500  0.873500  0.634800  1.0
  C  C1850  1  0.000500  0.126500  0.865200  1.0
  C  C1851  1  0.500500  0.373500  0.634800  1.0
  C  C1852  1  0.500500  0.626500  0.865200  1.0
  C  C1853  1  0.142190  0.962670  0.534670  1.0
  C  C1854  1  0.142190  0.037330  0.965330  1.0
  C  C1855  1  0.642190  0.462670  0.534670  1.0
  C  C1856  1  0.642190  0.537330  0.965330  1.0
  C  C1857  1  0.857810  0.037330  0.465330  1.0
  C  C1858  1  0.857810  0.962670  0.034670  1.0
  C  C1859  1  0.357810  0.537330  0.465330  1.0
  C  C1860  1  0.357810  0.462670  0.034670  1.0
  C  C1861  1  0.144430  0.941080  0.562510  1.0
  C  C1862  1  0.144430  0.058920  0.937490  1.0
  C  C1863  1  0.644430  0.441080  0.562510  1.0
  C  C1864  1  0.644430  0.558920  0.937490  1.0
  C  C1865  1  0.855570  0.058920  0.437490  1.0
  C  C1866  1  0.855570  0.941080  0.062510  1.0
  C  C1867  1  0.355570  0.558920  0.437490  1.0
  C  C1868  1  0.355570  0.441080  0.062510  1.0
  C  C1869  1  0.167510  0.904310  0.560590  1.0
  C  C1870  1  0.167510  0.095690  0.939410  1.0
  C  C1871  1  0.667510  0.404310  0.560590  1.0
  C  C1872  1  0.667510  0.595690  0.939410  1.0
  C  C1873  1  0.832490  0.095690  0.439410  1.0
  C  C1874  1  0.832490  0.904310  0.060590  1.0
  C  C1875  1  0.332490  0.595690  0.439410  1.0
  C  C1876  1  0.332490  0.404310  0.060590  1.0
  C  C1877  1  0.188360  0.889130  0.530840  1.0
  C  C1878  1  0.188360  0.110870  0.969160  1.0
  C  C1879  1  0.688360  0.389130  0.530840  1.0
  C  C1880  1  0.688360  0.610870  0.969160  1.0
  C  C1881  1  0.811640  0.110870  0.469160  1.0
  C  C1882  1  0.811640  0.889130  0.030840  1.0
  C  C1883  1  0.311640  0.610870  0.469160  1.0
  C  C1884  1  0.311640  0.389130  0.030840  1.0
  C  C1885  1  0.186120  0.910710  0.503000  1.0
  C  C1886  1  0.186120  0.089290  0.997000  1.0
  C  C1887  1  0.686120  0.410710  0.503000  1.0
  C  C1888  1  0.686120  0.589290  0.997000  1.0
  C  C1889  1  0.813880  0.089290  0.497000  1.0
  C  C1890  1  0.813880  0.910710  0.003000  1.0
  C  C1891  1  0.313880  0.589290  0.497000  1.0
  C  C1892  1  0.313880  0.410710  0.003000  1.0
  C  C1893  1  0.092320  0.063660  0.547900  1.0
  C  C1894  1  0.092320  0.936340  0.952100  1.0
  C  C1895  1  0.592320  0.563660  0.547900  1.0
  C  C1896  1  0.592320  0.436340  0.952100  1.0
  C  C1897  1  0.907680  0.936340  0.452100  1.0
  C  C1898  1  0.907680  0.063660  0.047900  1.0
  C  C1899  1  0.407680  0.436340  0.452100  1.0
  C  C1900  1  0.407680  0.563660  0.047900  1.0
  C  C1901  1  0.100460  0.025700  0.560520  1.0
  C  C1902  1  0.100460  0.974300  0.939480  1.0
  C  C1903  1  0.600460  0.525700  0.560520  1.0
  C  C1904  1  0.600460  0.474300  0.939480  1.0
  C  C1905  1  0.899540  0.974300  0.439480  1.0
  C  C1906  1  0.899540  0.025700  0.060520  1.0
  C  C1907  1  0.399540  0.474300  0.439480  1.0
  C  C1908  1  0.399540  0.525700  0.060520  1.0
  C  C1909  1  0.123970  0.000180  0.535580  1.0
  C  C1910  1  0.123970  0.999820  0.964420  1.0
  C  C1911  1  0.623970  0.500180  0.535580  1.0
  C  C1912  1  0.623970  0.499820  0.964420  1.0
  C  C1913  1  0.876030  0.999820  0.464420  1.0
  C  C1914  1  0.876030  0.000180  0.035580  1.0
  C  C1915  1  0.376030  0.499820  0.464420  1.0
  C  C1916  1  0.376030  0.500180  0.035580  1.0
  C  C1917  1  0.110100  0.090250  0.492920  1.0
  C  C1918  1  0.110100  0.909750  0.007080  1.0
  C  C1919  1  0.610100  0.590250  0.492920  1.0
  C  C1920  1  0.610100  0.409750  0.007080  1.0
  C  C1921  1  0.889900  0.909750  0.507080  1.0
  C  C1922  1  0.889900  0.090250  0.992920  1.0
  C  C1923  1  0.389900  0.409750  0.507080  1.0
  C  C1924  1  0.389900  0.590250  0.992920  1.0
  C  C1925  1  0.036970  0.128190  0.390760  1.0
  C  C1926  1  0.036970  0.871810  0.109240  1.0
  C  C1927  1  0.536970  0.628190  0.390760  1.0
  C  C1928  1  0.536970  0.371810  0.109240  1.0
  C  C1929  1  0.963030  0.871810  0.609240  1.0
  C  C1930  1  0.963030  0.128190  0.890760  1.0
  C  C1931  1  0.463030  0.371810  0.609240  1.0
  C  C1932  1  0.463030  0.628190  0.890760  1.0
  C  C1933  1  0.072620  0.153570  0.385780  1.0
  C  C1934  1  0.072620  0.846430  0.114220  1.0
  C  C1935  1  0.572620  0.653570  0.385780  1.0
  C  C1936  1  0.572620  0.346430  0.114220  1.0
  C  C1937  1  0.927380  0.846430  0.614220  1.0
  C  C1938  1  0.927380  0.153570  0.885780  1.0
  C  C1939  1  0.427380  0.346430  0.614220  1.0
  C  C1940  1  0.427380  0.653570  0.885780  1.0
  C  C1941  1  0.107740  0.156830  0.408370  1.0
  C  C1942  1  0.107740  0.843170  0.091630  1.0
  C  C1943  1  0.607740  0.656830  0.408370  1.0
  C  C1944  1  0.607740  0.343170  0.091630  1.0
  C  C1945  1  0.892260  0.843170  0.591630  1.0
  C  C1946  1  0.892260  0.156830  0.908370  1.0
  C  C1947  1  0.392260  0.343170  0.591630  1.0
  C  C1948  1  0.392260  0.656830  0.908370  1.0
  C  C1949  1  0.107200  0.134700  0.435940  1.0
  C  C1950  1  0.107200  0.865300  0.064060  1.0
  C  C1951  1  0.607200  0.634700  0.435940  1.0
  C  C1952  1  0.607200  0.365300  0.064060  1.0
  C  C1953  1  0.892800  0.865300  0.564060  1.0
  C  C1954  1  0.892800  0.134700  0.935940  1.0
  C  C1955  1  0.392800  0.365300  0.564060  1.0
  C  C1956  1  0.392800  0.634700  0.935940  1.0
  C  C1957  1  0.071540  0.109320  0.440920  1.0
  C  C1958  1  0.071540  0.890680  0.059080  1.0
  C  C1959  1  0.571540  0.609320  0.440920  1.0
  C  C1960  1  0.571540  0.390680  0.059080  1.0
  C  C1961  1  0.928460  0.890680  0.559080  1.0
  C  C1962  1  0.928460  0.109320  0.940920  1.0
  C  C1963  1  0.428460  0.390680  0.559080  1.0
  C  C1964  1  0.428460  0.609320  0.940920  1.0
  C  C1965  1  0.036420  0.106060  0.418330  1.0
  C  C1966  1  0.036420  0.893940  0.081670  1.0
  C  C1967  1  0.536420  0.606060  0.418330  1.0
  C  C1968  1  0.536420  0.393940  0.081670  1.0
  C  C1969  1  0.963580  0.893940  0.581670  1.0
  C  C1970  1  0.963580  0.106060  0.918330  1.0
  C  C1971  1  0.463580  0.393940  0.581670  1.0
  C  C1972  1  0.463580  0.606060  0.918330  1.0
  C  C1973  1  0.000760  0.080680  0.423300  1.0
  C  C1974  1  0.000760  0.919320  0.076700  1.0
  C  C1975  1  0.500760  0.580680  0.423300  1.0
  C  C1976  1  0.500760  0.419320  0.076700  1.0
  C  C1977  1  0.999240  0.919320  0.576700  1.0
  C  C1978  1  0.999240  0.080680  0.923300  1.0
  C  C1979  1  0.499240  0.419320  0.576700  1.0
  C  C1980  1  0.499240  0.580680  0.923300  1.0
  C  C1981  1  0.000220  0.058550  0.450870  1.0
  C  C1982  1  0.000220  0.941450  0.049130  1.0
  C  C1983  1  0.500220  0.558550  0.450870  1.0
  C  C1984  1  0.500220  0.441450  0.049130  1.0
  C  C1985  1  0.999780  0.941450  0.549130  1.0
  C  C1986  1  0.999780  0.058550  0.950870  1.0
  C  C1987  1  0.499780  0.441450  0.549130  1.0
  C  C1988  1  0.499780  0.558550  0.950870  1.0
  C  C1989  1  0.035330  0.061800  0.473460  1.0
  C  C1990  1  0.035330  0.938200  0.026540  1.0
  C  C1991  1  0.535330  0.561800  0.473460  1.0
  C  C1992  1  0.535330  0.438200  0.026540  1.0
  C  C1993  1  0.964670  0.938200  0.526540  1.0
  C  C1994  1  0.964670  0.061800  0.973460  1.0
  C  C1995  1  0.464670  0.438200  0.526540  1.0
  C  C1996  1  0.464670  0.561800  0.973460  1.0
  C  C1997  1  0.070990  0.087190  0.468480  1.0
  C  C1998  1  0.070990  0.912810  0.031520  1.0
  C  C1999  1  0.570990  0.587190  0.468480  1.0
  C  C2000  1  0.570990  0.412810  0.031520  1.0
  C  C2001  1  0.929010  0.912810  0.531520  1.0
  C  C2002  1  0.929010  0.087190  0.968480  1.0
  C  C2003  1  0.429010  0.412810  0.531520  1.0
  C  C2004  1  0.429010  0.587190  0.968480  1.0
  C  C2005  1  0.372770  0.313650  0.259380  1.0
  C  C2006  1  0.372770  0.686350  0.240620  1.0
  C  C2007  1  0.872770  0.813650  0.259380  1.0
  C  C2008  1  0.872770  0.186350  0.240620  1.0
  C  C2009  1  0.627230  0.686350  0.740620  1.0
  C  C2010  1  0.627230  0.313650  0.759380  1.0
  C  C2011  1  0.127230  0.186350  0.740620  1.0
  C  C2012  1  0.127230  0.813650  0.759380  1.0
  C  C2013  1  0.402690  0.284330  0.245500  1.0
  C  C2014  1  0.402690  0.715670  0.254500  1.0
  C  C2015  1  0.902690  0.784330  0.245500  1.0
  C  C2016  1  0.902690  0.215670  0.254500  1.0
  C  C2017  1  0.597310  0.715670  0.754500  1.0
  C  C2018  1  0.597310  0.284330  0.745500  1.0
  C  C2019  1  0.097310  0.215670  0.754500  1.0
  C  C2020  1  0.097310  0.784330  0.745500  1.0
  C  C2021  1  0.388380  0.252840  0.221900  1.0
  C  C2022  1  0.388380  0.747160  0.278100  1.0
  C  C2023  1  0.888380  0.752840  0.221900  1.0
  C  C2024  1  0.888380  0.247160  0.278100  1.0
  C  C2025  1  0.611620  0.747160  0.778100  1.0
  C  C2026  1  0.611620  0.252840  0.721900  1.0
  C  C2027  1  0.111620  0.247160  0.778100  1.0
  C  C2028  1  0.111620  0.752840  0.721900  1.0
  C  C2029  1  0.344160  0.250660  0.212170  1.0
  C  C2030  1  0.344160  0.749340  0.287830  1.0
  C  C2031  1  0.844160  0.750660  0.212170  1.0
  C  C2032  1  0.844160  0.249340  0.287830  1.0
  C  C2033  1  0.655840  0.749340  0.787830  1.0
  C  C2034  1  0.655840  0.250660  0.712170  1.0
  C  C2035  1  0.155840  0.249340  0.787830  1.0
  C  C2036  1  0.155840  0.750660  0.712170  1.0
  C  C2037  1  0.314240  0.279970  0.226040  1.0
  C  C2038  1  0.314240  0.720030  0.273960  1.0
  C  C2039  1  0.814240  0.779970  0.226040  1.0
  C  C2040  1  0.814240  0.220030  0.273960  1.0
  C  C2041  1  0.685760  0.720030  0.773960  1.0
  C  C2042  1  0.685760  0.279970  0.726040  1.0
  C  C2043  1  0.185760  0.220030  0.773960  1.0
  C  C2044  1  0.185760  0.779970  0.726040  1.0
  C  C2045  1  0.416200  0.396370  0.318200  1.0
  C  C2046  1  0.416200  0.603630  0.181800  1.0
  C  C2047  1  0.916200  0.896370  0.318200  1.0
  C  C2048  1  0.916200  0.103630  0.181800  1.0
  C  C2049  1  0.583800  0.603630  0.681800  1.0
  C  C2050  1  0.583800  0.396370  0.818200  1.0
  C  C2051  1  0.083800  0.103630  0.681800  1.0
  C  C2052  1  0.083800  0.896370  0.818200  1.0
  C  C2053  1  0.425320  0.361310  0.295160  1.0
  C  C2054  1  0.425320  0.638690  0.204840  1.0
  C  C2055  1  0.925320  0.861310  0.295160  1.0
  C  C2056  1  0.925320  0.138690  0.204840  1.0
  C  C2057  1  0.574680  0.638690  0.704840  1.0
  C  C2058  1  0.574680  0.361310  0.795160  1.0
  C  C2059  1  0.074680  0.138690  0.704840  1.0
  C  C2060  1  0.074680  0.861310  0.795160  1.0
  C  C2061  1  0.384270  0.344780  0.282740  1.0
  C  C2062  1  0.384270  0.655220  0.217260  1.0
  C  C2063  1  0.884270  0.844780  0.282740  1.0
  C  C2064  1  0.884270  0.155220  0.217260  1.0
  C  C2065  1  0.615730  0.655220  0.717260  1.0
  C  C2066  1  0.615730  0.344780  0.782740  1.0
  C  C2067  1  0.115730  0.155220  0.717260  1.0
  C  C2068  1  0.115730  0.844780  0.782740  1.0
  C  C2069  1  0.345300  0.429900  0.340730  1.0
  C  C2070  1  0.345300  0.570100  0.159270  1.0
  C  C2071  1  0.845300  0.929900  0.340730  1.0
  C  C2072  1  0.845300  0.070100  0.159270  1.0
  C  C2073  1  0.654700  0.570100  0.659270  1.0
  C  C2074  1  0.654700  0.429900  0.840730  1.0
  C  C2075  1  0.154700  0.070100  0.659270  1.0
  C  C2076  1  0.154700  0.929900  0.840730  1.0
  C  C2077  1  0.264760  0.557790  0.569580  1.0
  C  C2078  1  0.264760  0.442210  0.930420  1.0
  C  C2079  1  0.764760  0.057790  0.569580  1.0
  C  C2080  1  0.764760  0.942210  0.930420  1.0
  C  C2081  1  0.735240  0.442210  0.430420  1.0
  C  C2082  1  0.735240  0.557790  0.069580  1.0
  C  C2083  1  0.235240  0.942210  0.430420  1.0
  C  C2084  1  0.235240  0.057790  0.069580  1.0
  C  C2085  1  0.240760  0.586420  0.590450  1.0
  C  C2086  1  0.240760  0.413580  0.909550  1.0
  C  C2087  1  0.740760  0.086420  0.590450  1.0
  C  C2088  1  0.740760  0.913580  0.909550  1.0
  C  C2089  1  0.759240  0.413580  0.409550  1.0
  C  C2090  1  0.759240  0.586420  0.090450  1.0
  C  C2091  1  0.259240  0.913580  0.409550  1.0
  C  C2092  1  0.259240  0.086420  0.090450  1.0
  C  C2093  1  0.262790  0.615360  0.612400  1.0
  C  C2094  1  0.262790  0.384640  0.887600  1.0
  C  C2095  1  0.762790  0.115360  0.612400  1.0
  C  C2096  1  0.762790  0.884640  0.887600  1.0
  C  C2097  1  0.737210  0.384640  0.387600  1.0
  C  C2098  1  0.737210  0.615360  0.112400  1.0
  C  C2099  1  0.237210  0.884640  0.387600  1.0
  C  C2100  1  0.237210  0.115360  0.112400  1.0
  C  C2101  1  0.308830  0.615680  0.613480  1.0
  C  C2102  1  0.308830  0.384320  0.886520  1.0
  C  C2103  1  0.808830  0.115680  0.613480  1.0
  C  C2104  1  0.808830  0.884320  0.886520  1.0
  C  C2105  1  0.691170  0.384320  0.386520  1.0
  C  C2106  1  0.691170  0.615680  0.113480  1.0
  C  C2107  1  0.191170  0.884320  0.386520  1.0
  C  C2108  1  0.191170  0.115680  0.113480  1.0
  C  C2109  1  0.332830  0.587060  0.592600  1.0
  C  C2110  1  0.332830  0.412940  0.907400  1.0
  C  C2111  1  0.832830  0.087060  0.592600  1.0
  C  C2112  1  0.832830  0.912940  0.907400  1.0
  C  C2113  1  0.667170  0.412940  0.407400  1.0
  C  C2114  1  0.667170  0.587060  0.092600  1.0
  C  C2115  1  0.167170  0.912940  0.407400  1.0
  C  C2116  1  0.167170  0.087060  0.092600  1.0
  C  C2117  1  0.201030  0.482940  0.515540  1.0
  C  C2118  1  0.201030  0.517060  0.984460  1.0
  C  C2119  1  0.701030  0.982940  0.515540  1.0
  C  C2120  1  0.701030  0.017060  0.984460  1.0
  C  C2121  1  0.798970  0.517060  0.484460  1.0
  C  C2122  1  0.798970  0.482940  0.015540  1.0
  C  C2123  1  0.298970  0.017060  0.484460  1.0
  C  C2124  1  0.298970  0.982940  0.015540  1.0
  C  C2125  1  0.201060  0.518170  0.539560  1.0
  C  C2126  1  0.201060  0.481830  0.960440  1.0
  C  C2127  1  0.701060  0.018170  0.539560  1.0
  C  C2128  1  0.701060  0.981830  0.960440  1.0
  C  C2129  1  0.798940  0.481830  0.460440  1.0
  C  C2130  1  0.798940  0.518170  0.039560  1.0
  C  C2131  1  0.298940  0.981830  0.460440  1.0
  C  C2132  1  0.298940  0.018170  0.039560  1.0
  C  C2133  1  0.245790  0.528100  0.547940  1.0
  C  C2134  1  0.245790  0.471900  0.952060  1.0
  C  C2135  1  0.745790  0.028100  0.547940  1.0
  C  C2136  1  0.745790  0.971900  0.952060  1.0
  C  C2137  1  0.754210  0.471900  0.452060  1.0
  C  C2138  1  0.754210  0.528100  0.047940  1.0
  C  C2139  1  0.254210  0.971900  0.452060  1.0
  C  C2140  1  0.254210  0.028100  0.047940  1.0
  C  C2141  1  0.261100  0.440900  0.486160  1.0
  C  C2142  1  0.261100  0.559100  0.013840  1.0
  C  C2143  1  0.761100  0.940900  0.486160  1.0
  C  C2144  1  0.761100  0.059100  0.013840  1.0
  C  C2145  1  0.738900  0.559100  0.513840  1.0
  C  C2146  1  0.738900  0.440900  0.986160  1.0
  C  C2147  1  0.238900  0.059100  0.513840  1.0
  C  C2148  1  0.238900  0.940900  0.986160  1.0
  C  C2149  1  0.331590  0.415800  0.374300  1.0
  C  C2150  1  0.331590  0.584200  0.125700  1.0
  C  C2151  1  0.831590  0.915800  0.374300  1.0
  C  C2152  1  0.831590  0.084200  0.125700  1.0
  C  C2153  1  0.668410  0.584200  0.625700  1.0
  C  C2154  1  0.668410  0.415800  0.874300  1.0
  C  C2155  1  0.168410  0.084200  0.625700  1.0
  C  C2156  1  0.168410  0.915800  0.874300  1.0
  C  C2157  1  0.345390  0.377540  0.381810  1.0
  C  C2158  1  0.345390  0.622460  0.118190  1.0
  C  C2159  1  0.845390  0.877540  0.381810  1.0
  C  C2160  1  0.845390  0.122460  0.118190  1.0
  C  C2161  1  0.654610  0.622460  0.618190  1.0
  C  C2162  1  0.654610  0.377540  0.881810  1.0
  C  C2163  1  0.154610  0.122460  0.618190  1.0
  C  C2164  1  0.154610  0.877540  0.881810  1.0
  C  C2165  1  0.334570  0.364470  0.412590  1.0
  C  C2166  1  0.334570  0.635530  0.087410  1.0
  C  C2167  1  0.834570  0.864470  0.412590  1.0
  C  C2168  1  0.834570  0.135530  0.087410  1.0
  C  C2169  1  0.665430  0.635530  0.587410  1.0
  C  C2170  1  0.665430  0.364470  0.912590  1.0
  C  C2171  1  0.165430  0.135530  0.587410  1.0
  C  C2172  1  0.165430  0.864470  0.912590  1.0
  C  C2173  1  0.309950  0.389660  0.435850  1.0
  C  C2174  1  0.309950  0.610340  0.064150  1.0
  C  C2175  1  0.809950  0.889660  0.435850  1.0
  C  C2176  1  0.809950  0.110340  0.064150  1.0
  C  C2177  1  0.690050  0.610340  0.564150  1.0
  C  C2178  1  0.690050  0.389660  0.935850  1.0
  C  C2179  1  0.190050  0.110340  0.564150  1.0
  C  C2180  1  0.190050  0.889660  0.935850  1.0
  C  C2181  1  0.296150  0.427910  0.428330  1.0
  C  C2182  1  0.296150  0.572090  0.071670  1.0
  C  C2183  1  0.796150  0.927910  0.428330  1.0
  C  C2184  1  0.796150  0.072090  0.071670  1.0
  C  C2185  1  0.703850  0.572090  0.571670  1.0
  C  C2186  1  0.703850  0.427910  0.928330  1.0
  C  C2187  1  0.203850  0.072090  0.571670  1.0
  C  C2188  1  0.203850  0.927910  0.928330  1.0
  C  C2189  1  0.306970  0.440980  0.397560  1.0
  C  C2190  1  0.306970  0.559020  0.102440  1.0
  C  C2191  1  0.806970  0.940980  0.397560  1.0
  C  C2192  1  0.806970  0.059020  0.102440  1.0
  C  C2193  1  0.693030  0.559020  0.602440  1.0
  C  C2194  1  0.693030  0.440980  0.897560  1.0
  C  C2195  1  0.193030  0.059020  0.602440  1.0
  C  C2196  1  0.193030  0.940980  0.897560  1.0
  C  C2197  1  0.293170  0.479240  0.390050  1.0
  C  C2198  1  0.293170  0.520760  0.109950  1.0
  C  C2199  1  0.793170  0.979240  0.390050  1.0
  C  C2200  1  0.793170  0.020760  0.109950  1.0
  C  C2201  1  0.706830  0.520760  0.609950  1.0
  C  C2202  1  0.706830  0.479240  0.890050  1.0
  C  C2203  1  0.206830  0.020760  0.609950  1.0
  C  C2204  1  0.206830  0.979240  0.890050  1.0
  C  C2205  1  0.268550  0.504420  0.413310  1.0
  C  C2206  1  0.268550  0.495580  0.086690  1.0
  C  C2207  1  0.768550  0.004420  0.413310  1.0
  C  C2208  1  0.768550  0.995580  0.086690  1.0
  C  C2209  1  0.731450  0.495580  0.586690  1.0
  C  C2210  1  0.731450  0.504420  0.913310  1.0
  C  C2211  1  0.231450  0.995580  0.586690  1.0
  C  C2212  1  0.231450  0.004420  0.913310  1.0
  C  C2213  1  0.257730  0.491350  0.444080  1.0
  C  C2214  1  0.257730  0.508650  0.055920  1.0
  C  C2215  1  0.757730  0.991350  0.444080  1.0
  C  C2216  1  0.757730  0.008650  0.055920  1.0
  C  C2217  1  0.742270  0.508650  0.555920  1.0
  C  C2218  1  0.742270  0.491350  0.944080  1.0
  C  C2219  1  0.242270  0.008650  0.555920  1.0
  C  C2220  1  0.242270  0.991350  0.944080  1.0
  C  C2221  1  0.271530  0.453100  0.451600  1.0
  C  C2222  1  0.271530  0.546900  0.048400  1.0
  C  C2223  1  0.771530  0.953100  0.451600  1.0
  C  C2224  1  0.771530  0.046900  0.048400  1.0
  C  C2225  1  0.728470  0.546900  0.548400  1.0
  C  C2226  1  0.728470  0.453100  0.951600  1.0
  C  C2227  1  0.228470  0.046900  0.548400  1.0
  C  C2228  1  0.228470  0.953100  0.951600  1.0
  C  C2229  1  0.230020  0.378110  0.336870  1.0
  C  C2230  1  0.230020  0.621890  0.163130  1.0
  C  C2231  1  0.730020  0.878110  0.336870  1.0
  C  C2232  1  0.730020  0.121890  0.163130  1.0
  C  C2233  1  0.769980  0.621890  0.663130  1.0
  C  C2234  1  0.769980  0.378110  0.836870  1.0
  C  C2235  1  0.269980  0.121890  0.663130  1.0
  C  C2236  1  0.269980  0.878110  0.836870  1.0
  C  C2237  1  0.203980  0.401340  0.360470  1.0
  C  C2238  1  0.203980  0.598660  0.139530  1.0
  C  C2239  1  0.703980  0.901340  0.360470  1.0
  C  C2240  1  0.703980  0.098660  0.139530  1.0
  C  C2241  1  0.796020  0.598660  0.639530  1.0
  C  C2242  1  0.796020  0.401340  0.860470  1.0
  C  C2243  1  0.296020  0.098660  0.639530  1.0
  C  C2244  1  0.296020  0.901340  0.860470  1.0
  C  C2245  1  0.193590  0.441590  0.356120  1.0
  C  C2246  1  0.193590  0.558410  0.143880  1.0
  C  C2247  1  0.693590  0.941590  0.356120  1.0
  C  C2248  1  0.693590  0.058410  0.143880  1.0
  C  C2249  1  0.806410  0.558410  0.643880  1.0
  C  C2250  1  0.806410  0.441590  0.856120  1.0
  C  C2251  1  0.306410  0.058410  0.643880  1.0
  C  C2252  1  0.306410  0.941590  0.856120  1.0
  C  C2253  1  0.209230  0.458600  0.328170  1.0
  C  C2254  1  0.209230  0.541400  0.171830  1.0
  C  C2255  1  0.709230  0.958600  0.328170  1.0
  C  C2256  1  0.709230  0.041400  0.171830  1.0
  C  C2257  1  0.790770  0.541400  0.671830  1.0
  C  C2258  1  0.790770  0.458600  0.828170  1.0
  C  C2259  1  0.290770  0.041400  0.671830  1.0
  C  C2260  1  0.290770  0.958600  0.828170  1.0
  C  C2261  1  0.235270  0.435360  0.304570  1.0
  C  C2262  1  0.235270  0.564640  0.195430  1.0
  C  C2263  1  0.735270  0.935360  0.304570  1.0
  C  C2264  1  0.735270  0.064640  0.195430  1.0
  C  C2265  1  0.764730  0.564640  0.695430  1.0
  C  C2266  1  0.764730  0.435360  0.804570  1.0
  C  C2267  1  0.264730  0.064640  0.695430  1.0
  C  C2268  1  0.264730  0.935360  0.804570  1.0
  C  C2269  1  0.244720  0.271890  0.351290  1.0
  C  C2270  1  0.244720  0.728110  0.148710  1.0
  C  C2271  1  0.744720  0.771890  0.351290  1.0
  C  C2272  1  0.744720  0.228110  0.148710  1.0
  C  C2273  1  0.755280  0.728110  0.648710  1.0
  C  C2274  1  0.755280  0.271890  0.851290  1.0
  C  C2275  1  0.255280  0.228110  0.648710  1.0
  C  C2276  1  0.255280  0.771890  0.851290  1.0
  C  C2277  1  0.227820  0.311300  0.362770  1.0
  C  C2278  1  0.227820  0.688700  0.137230  1.0
  C  C2279  1  0.727820  0.811300  0.362770  1.0
  C  C2280  1  0.727820  0.188700  0.137230  1.0
  C  C2281  1  0.772180  0.688700  0.637230  1.0
  C  C2282  1  0.772180  0.311300  0.862770  1.0
  C  C2283  1  0.272180  0.188700  0.637230  1.0
  C  C2284  1  0.272180  0.811300  0.862770  1.0
  C  C2285  1  0.239910  0.338360  0.339090  1.0
  C  C2286  1  0.239910  0.661640  0.160910  1.0
  C  C2287  1  0.739910  0.838360  0.339090  1.0
  C  C2288  1  0.739910  0.161640  0.160910  1.0
  C  C2289  1  0.760090  0.661640  0.660910  1.0
  C  C2290  1  0.760090  0.338360  0.839090  1.0
  C  C2291  1  0.260090  0.161640  0.660910  1.0
  C  C2292  1  0.260090  0.838360  0.839090  1.0
  C  C2293  1  0.293500  0.244900  0.303260  1.0
  C  C2294  1  0.293500  0.755100  0.196740  1.0
  C  C2295  1  0.793500  0.744900  0.303260  1.0
  C  C2296  1  0.793500  0.255100  0.196740  1.0
  C  C2297  1  0.706500  0.755100  0.696740  1.0
  C  C2298  1  0.706500  0.244900  0.803260  1.0
  C  C2299  1  0.206500  0.255100  0.696740  1.0
  C  C2300  1  0.206500  0.744900  0.803260  1.0
  C  C2301  1  0.549700  0.053660  0.313850  1.0
  C  C2302  1  0.549700  0.946340  0.186150  1.0
  C  C2303  1  0.049700  0.553660  0.313850  1.0
  C  C2304  1  0.049700  0.446340  0.186150  1.0
  C  C2305  1  0.450300  0.946340  0.686150  1.0
  C  C2306  1  0.450300  0.053660  0.813850  1.0
  C  C2307  1  0.950300  0.446340  0.686150  1.0
  C  C2308  1  0.950300  0.553660  0.813850  1.0
  C  C2309  1  0.579600  0.024080  0.300470  1.0
  C  C2310  1  0.579600  0.975920  0.199530  1.0
  C  C2311  1  0.079600  0.524080  0.300470  1.0
  C  C2312  1  0.079600  0.475920  0.199530  1.0
  C  C2313  1  0.420400  0.975920  0.699530  1.0
  C  C2314  1  0.420400  0.024080  0.800470  1.0
  C  C2315  1  0.920400  0.475920  0.699530  1.0
  C  C2316  1  0.920400  0.524080  0.800470  1.0
  C  C2317  1  0.583300  0.987350  0.314340  1.0
  C  C2318  1  0.583300  0.012650  0.185660  1.0
  C  C2319  1  0.083300  0.487350  0.314340  1.0
  C  C2320  1  0.083300  0.512650  0.185660  1.0
  C  C2321  1  0.416700  0.012650  0.685660  1.0
  C  C2322  1  0.416700  0.987350  0.814340  1.0
  C  C2323  1  0.916700  0.512650  0.685660  1.0
  C  C2324  1  0.916700  0.487350  0.814340  1.0
  C  C2325  1  0.557100  0.980190  0.341590  1.0
  C  C2326  1  0.557100  0.019810  0.158410  1.0
  C  C2327  1  0.057100  0.480190  0.341590  1.0
  C  C2328  1  0.057100  0.519810  0.158410  1.0
  C  C2329  1  0.442900  0.019810  0.658410  1.0
  C  C2330  1  0.442900  0.980190  0.841590  1.0
  C  C2331  1  0.942900  0.519810  0.658410  1.0
  C  C2332  1  0.942900  0.480190  0.841590  1.0
  C  C2333  1  0.527200  0.009770  0.354970  1.0
  C  C2334  1  0.527200  0.990230  0.145030  1.0
  C  C2335  1  0.027200  0.509770  0.354970  1.0
  C  C2336  1  0.027200  0.490230  0.145030  1.0
  C  C2337  1  0.472800  0.990230  0.645030  1.0
  C  C2338  1  0.472800  0.009770  0.854970  1.0
  C  C2339  1  0.972800  0.490230  0.645030  1.0
  C  C2340  1  0.972800  0.509770  0.854970  1.0
  C  C2341  1  0.553660  0.150110  0.278790  1.0
  C  C2342  1  0.553660  0.849890  0.221210  1.0
  C  C2343  1  0.053660  0.650110  0.278790  1.0
  C  C2344  1  0.053660  0.349890  0.221210  1.0
  C  C2345  1  0.446340  0.849890  0.721210  1.0
  C  C2346  1  0.446340  0.150110  0.778790  1.0
  C  C2347  1  0.946340  0.349890  0.721210  1.0
  C  C2348  1  0.946340  0.650110  0.778790  1.0
  C  C2349  1  0.569590  0.109400  0.278210  1.0
  C  C2350  1  0.569590  0.890600  0.221790  1.0
  C  C2351  1  0.069590  0.609400  0.278210  1.0
  C  C2352  1  0.069590  0.390600  0.221790  1.0
  C  C2353  1  0.430410  0.890600  0.721790  1.0
  C  C2354  1  0.430410  0.109400  0.778210  1.0
  C  C2355  1  0.930410  0.390600  0.721790  1.0
  C  C2356  1  0.930410  0.609400  0.778210  1.0
  C  C2357  1  0.545500  0.090110  0.302480  1.0
  C  C2358  1  0.545500  0.909890  0.197520  1.0
  C  C2359  1  0.045500  0.590110  0.302480  1.0
  C  C2360  1  0.045500  0.409890  0.197520  1.0
  C  C2361  1  0.454500  0.909890  0.697520  1.0
  C  C2362  1  0.454500  0.090110  0.802480  1.0
  C  C2363  1  0.954500  0.409890  0.697520  1.0
  C  C2364  1  0.954500  0.590110  0.802480  1.0
  C  C2365  1  0.493600  0.189700  0.313070  1.0
  C  C2366  1  0.493600  0.810300  0.186930  1.0
  C  C2367  1  0.993600  0.689700  0.313070  1.0
  C  C2368  1  0.993600  0.310300  0.186930  1.0
  C  C2369  1  0.506400  0.810300  0.686930  1.0
  C  C2370  1  0.506400  0.189700  0.813070  1.0
  C  C2371  1  0.006400  0.310300  0.686930  1.0
  C  C2372  1  0.006400  0.689700  0.813070  1.0
  C  C2373  1  0.342740  0.246210  0.313700  1.0
  C  C2374  1  0.342740  0.753790  0.186300  1.0
  C  C2375  1  0.842740  0.746210  0.313700  1.0
  C  C2376  1  0.842740  0.253790  0.186300  1.0
  C  C2377  1  0.657260  0.753790  0.686300  1.0
  C  C2378  1  0.657260  0.246210  0.813700  1.0
  C  C2379  1  0.157260  0.253790  0.686300  1.0
  C  C2380  1  0.157260  0.746210  0.813700  1.0
  C  C2381  1  0.357010  0.279030  0.336030  1.0
  C  C2382  1  0.357010  0.720970  0.163970  1.0
  C  C2383  1  0.857010  0.779030  0.336030  1.0
  C  C2384  1  0.857010  0.220970  0.163970  1.0
  C  C2385  1  0.642990  0.720970  0.663970  1.0
  C  C2386  1  0.642990  0.279030  0.836030  1.0
  C  C2387  1  0.142990  0.220970  0.663970  1.0
  C  C2388  1  0.142990  0.779030  0.836030  1.0
  C  C2389  1  0.401060  0.281480  0.346180  1.0
  C  C2390  1  0.401060  0.718520  0.153820  1.0
  C  C2391  1  0.901060  0.781480  0.346180  1.0
  C  C2392  1  0.901060  0.218520  0.153820  1.0
  C  C2393  1  0.598940  0.718520  0.653820  1.0
  C  C2394  1  0.598940  0.281480  0.846180  1.0
  C  C2395  1  0.098940  0.218520  0.653820  1.0
  C  C2396  1  0.098940  0.781480  0.846180  1.0
  C  C2397  1  0.430840  0.251120  0.334010  1.0
  C  C2398  1  0.430840  0.748880  0.165990  1.0
  C  C2399  1  0.930840  0.751120  0.334010  1.0
  C  C2400  1  0.930840  0.248880  0.165990  1.0
  C  C2401  1  0.569160  0.748880  0.665990  1.0
  C  C2402  1  0.569160  0.251120  0.834010  1.0
  C  C2403  1  0.069160  0.248880  0.665990  1.0
  C  C2404  1  0.069160  0.751120  0.834010  1.0
  C  C2405  1  0.416570  0.218300  0.311690  1.0
  C  C2406  1  0.416570  0.781700  0.188310  1.0
  C  C2407  1  0.916570  0.718300  0.311690  1.0
  C  C2408  1  0.916570  0.281700  0.188310  1.0
  C  C2409  1  0.583430  0.781700  0.688310  1.0
  C  C2410  1  0.583430  0.218300  0.811690  1.0
  C  C2411  1  0.083430  0.281700  0.688310  1.0
  C  C2412  1  0.083430  0.718300  0.811690  1.0
  C  C2413  1  0.372510  0.215840  0.301530  1.0
  C  C2414  1  0.372510  0.784160  0.198470  1.0
  C  C2415  1  0.872510  0.715840  0.301530  1.0
  C  C2416  1  0.872510  0.284160  0.198470  1.0
  C  C2417  1  0.627490  0.784160  0.698470  1.0
  C  C2418  1  0.627490  0.215840  0.801530  1.0
  C  C2419  1  0.127490  0.284160  0.698470  1.0
  C  C2420  1  0.127490  0.715840  0.801530  1.0
  C  C2421  1  0.358240  0.183020  0.279210  1.0
  C  C2422  1  0.358240  0.816980  0.220790  1.0
  C  C2423  1  0.858240  0.683020  0.279210  1.0
  C  C2424  1  0.858240  0.316980  0.220790  1.0
  C  C2425  1  0.641760  0.816980  0.720790  1.0
  C  C2426  1  0.641760  0.183020  0.779210  1.0
  C  C2427  1  0.141760  0.316980  0.720790  1.0
  C  C2428  1  0.141760  0.683020  0.779210  1.0
  C  C2429  1  0.388010  0.152660  0.267040  1.0
  C  C2430  1  0.388010  0.847340  0.232960  1.0
  C  C2431  1  0.888010  0.652660  0.267040  1.0
  C  C2432  1  0.888010  0.347340  0.232960  1.0
  C  C2433  1  0.611990  0.847340  0.732960  1.0
  C  C2434  1  0.611990  0.152660  0.767040  1.0
  C  C2435  1  0.111990  0.347340  0.732960  1.0
  C  C2436  1  0.111990  0.652660  0.767040  1.0
  C  C2437  1  0.432070  0.155110  0.277200  1.0
  C  C2438  1  0.432070  0.844890  0.222800  1.0
  C  C2439  1  0.932070  0.655110  0.277200  1.0
  C  C2440  1  0.932070  0.344890  0.222800  1.0
  C  C2441  1  0.567930  0.844890  0.722800  1.0
  C  C2442  1  0.567930  0.155110  0.777200  1.0
  C  C2443  1  0.067930  0.344890  0.722800  1.0
  C  C2444  1  0.067930  0.655110  0.777200  1.0
  C  C2445  1  0.446340  0.187930  0.299520  1.0
  C  C2446  1  0.446340  0.812070  0.200480  1.0
  C  C2447  1  0.946340  0.687930  0.299520  1.0
  C  C2448  1  0.946340  0.312070  0.200480  1.0
  C  C2449  1  0.553660  0.812070  0.700480  1.0
  C  C2450  1  0.553660  0.187930  0.799520  1.0
  C  C2451  1  0.053660  0.312070  0.700480  1.0
  C  C2452  1  0.053660  0.687930  0.799520  1.0
  C  C2453  1  0.960920  0.396640  0.576980  1.0
  C  C2454  1  0.960920  0.603360  0.923020  1.0
  C  C2455  1  0.460920  0.896640  0.576980  1.0
  C  C2456  1  0.460920  0.103360  0.923020  1.0
  C  C2457  1  0.039080  0.603360  0.423020  1.0
  C  C2458  1  0.039080  0.396640  0.076980  1.0
  C  C2459  1  0.539080  0.103360  0.423020  1.0
  C  C2460  1  0.539080  0.896640  0.076980  1.0
  C  C2461  1  0.926490  0.386260  0.554580  1.0
  C  C2462  1  0.926490  0.613740  0.945420  1.0
  C  C2463  1  0.426490  0.886260  0.554580  1.0
  C  C2464  1  0.426490  0.113740  0.945420  1.0
  C  C2465  1  0.073510  0.613740  0.445420  1.0
  C  C2466  1  0.073510  0.386260  0.054580  1.0
  C  C2467  1  0.573510  0.113740  0.445420  1.0
  C  C2468  1  0.573510  0.886260  0.054580  1.0
  C  C2469  1  0.893320  0.359800  0.562790  1.0
  C  C2470  1  0.893320  0.640200  0.937210  1.0
  C  C2471  1  0.393320  0.859800  0.562790  1.0
  C  C2472  1  0.393320  0.140200  0.937210  1.0
  C  C2473  1  0.106680  0.640200  0.437210  1.0
  C  C2474  1  0.106680  0.359800  0.062790  1.0
  C  C2475  1  0.606680  0.140200  0.437210  1.0
  C  C2476  1  0.606680  0.859800  0.062790  1.0
  C  C2477  1  0.894580  0.343720  0.593400  1.0
  C  C2478  1  0.894580  0.656280  0.906600  1.0
  C  C2479  1  0.394580  0.843720  0.593400  1.0
  C  C2480  1  0.394580  0.156280  0.906600  1.0
  C  C2481  1  0.105420  0.656280  0.406600  1.0
  C  C2482  1  0.105420  0.343720  0.093400  1.0
  C  C2483  1  0.605420  0.156280  0.406600  1.0
  C  C2484  1  0.605420  0.843720  0.093400  1.0
  C  C2485  1  0.929000  0.354100  0.615800  1.0
  C  C2486  1  0.929000  0.645900  0.884200  1.0
  C  C2487  1  0.429000  0.854100  0.615800  1.0
  C  C2488  1  0.429000  0.145900  0.884200  1.0
  C  C2489  1  0.071000  0.645900  0.384200  1.0
  C  C2490  1  0.071000  0.354100  0.115800  1.0
  C  C2491  1  0.571000  0.145900  0.384200  1.0
  C  C2492  1  0.571000  0.854100  0.115800  1.0
  C  C2493  1  0.038400  0.472350  0.552960  1.0
  C  C2494  1  0.038400  0.527650  0.947040  1.0
  C  C2495  1  0.538400  0.972350  0.552960  1.0
  C  C2496  1  0.538400  0.027650  0.947040  1.0
  C  C2497  1  0.961600  0.527650  0.447040  1.0
  C  C2498  1  0.961600  0.472350  0.052960  1.0
  C  C2499  1  0.461600  0.027650  0.447040  1.0
  C  C2500  1  0.461600  0.972350  0.052960  1.0
  C  C2501  1  0.000050  0.448190  0.544930  1.0
  C  C2502  1  0.000050  0.551810  0.955070  1.0
  C  C2503  1  0.500050  0.948190  0.544930  1.0
  C  C2504  1  0.500050  0.051810  0.955070  1.0
  C  C2505  1  0.999950  0.551810  0.455070  1.0
  C  C2506  1  0.999950  0.448190  0.044930  1.0
  C  C2507  1  0.499950  0.051810  0.455070  1.0
  C  C2508  1  0.499950  0.948190  0.044930  1.0
  C  C2509  1  0.993400  0.422820  0.570910  1.0
  C  C2510  1  0.993400  0.577180  0.929090  1.0
  C  C2511  1  0.493400  0.922820  0.570910  1.0
  C  C2512  1  0.493400  0.077180  0.929090  1.0
  C  C2513  1  0.006600  0.577180  0.429090  1.0
  C  C2514  1  0.006600  0.422820  0.070910  1.0
  C  C2515  1  0.506600  0.077180  0.429090  1.0
  C  C2516  1  0.506600  0.922820  0.070910  1.0
  C  C2517  1  0.093900  0.475100  0.599470  1.0
  C  C2518  1  0.093900  0.524900  0.900530  1.0
  C  C2519  1  0.593900  0.975100  0.599470  1.0
  C  C2520  1  0.593900  0.024900  0.900530  1.0
  C  C2521  1  0.906100  0.524900  0.400530  1.0
  C  C2522  1  0.906100  0.475100  0.099470  1.0
  C  C2523  1  0.406100  0.024900  0.400530  1.0
  C  C2524  1  0.406100  0.975100  0.099470  1.0
  C  C2525  1  0.422000  0.518690  0.579730  1.0
  C  C2526  1  0.422000  0.481310  0.920270  1.0
  C  C2527  1  0.922000  0.018690  0.579730  1.0
  C  C2528  1  0.922000  0.981310  0.920270  1.0
  C  C2529  1  0.578000  0.481310  0.420270  1.0
  C  C2530  1  0.578000  0.518690  0.079730  1.0
  C  C2531  1  0.078000  0.981310  0.420270  1.0
  C  C2532  1  0.078000  0.018690  0.079730  1.0
  C  C2533  1  0.461690  0.532850  0.594340  1.0
  C  C2534  1  0.461690  0.467150  0.905660  1.0
  C  C2535  1  0.961690  0.032850  0.594340  1.0
  C  C2536  1  0.961690  0.967150  0.905660  1.0
  C  C2537  1  0.538310  0.467150  0.405660  1.0
  C  C2538  1  0.538310  0.532850  0.094340  1.0
  C  C2539  1  0.038310  0.967150  0.405660  1.0
  C  C2540  1  0.038310  0.032850  0.094340  1.0
  C  C2541  1  0.486320  0.562040  0.579940  1.0
  C  C2542  1  0.486320  0.437960  0.920060  1.0
  C  C2543  1  0.986320  0.062040  0.579940  1.0
  C  C2544  1  0.986320  0.937960  0.920060  1.0
  C  C2545  1  0.513680  0.437960  0.420060  1.0
  C  C2546  1  0.513680  0.562040  0.079940  1.0
  C  C2547  1  0.013680  0.937960  0.420060  1.0
  C  C2548  1  0.013680  0.062040  0.079940  1.0
  C  C2549  1  0.471260  0.577070  0.550930  1.0
  C  C2550  1  0.471260  0.422930  0.949070  1.0
  C  C2551  1  0.971260  0.077070  0.550930  1.0
  C  C2552  1  0.971260  0.922930  0.949070  1.0
  C  C2553  1  0.528740  0.422930  0.449070  1.0
  C  C2554  1  0.528740  0.577070  0.050930  1.0
  C  C2555  1  0.028740  0.922930  0.449070  1.0
  C  C2556  1  0.028740  0.077070  0.050930  1.0
  C  C2557  1  0.431580  0.562920  0.536320  1.0
  C  C2558  1  0.431580  0.437080  0.963680  1.0
  C  C2559  1  0.931580  0.062920  0.536320  1.0
  C  C2560  1  0.931580  0.937080  0.963680  1.0
  C  C2561  1  0.568420  0.437080  0.463680  1.0
  C  C2562  1  0.568420  0.562920  0.036320  1.0
  C  C2563  1  0.068420  0.937080  0.463680  1.0
  C  C2564  1  0.068420  0.062920  0.036320  1.0
  C  C2565  1  0.364120  0.442230  0.621770  1.0
  C  C2566  1  0.364120  0.557770  0.878230  1.0
  C  C2567  1  0.864120  0.942230  0.621770  1.0
  C  C2568  1  0.864120  0.057770  0.878230  1.0
  C  C2569  1  0.635880  0.557770  0.378230  1.0
  C  C2570  1  0.635880  0.442230  0.121770  1.0
  C  C2571  1  0.135880  0.057770  0.378230  1.0
  C  C2572  1  0.135880  0.942230  0.121770  1.0
  C  C2573  1  0.401130  0.468780  0.621050  1.0
  C  C2574  1  0.401130  0.531220  0.878950  1.0
  C  C2575  1  0.901130  0.968780  0.621050  1.0
  C  C2576  1  0.901130  0.031220  0.878950  1.0
  C  C2577  1  0.598870  0.531220  0.378950  1.0
  C  C2578  1  0.598870  0.468780  0.121050  1.0
  C  C2579  1  0.098870  0.031220  0.378950  1.0
  C  C2580  1  0.098870  0.968780  0.121050  1.0
  C  C2581  1  0.396730  0.490500  0.592560  1.0
  C  C2582  1  0.396730  0.509500  0.907440  1.0
  C  C2583  1  0.896730  0.990500  0.592560  1.0
  C  C2584  1  0.896730  0.009500  0.907440  1.0
  C  C2585  1  0.603270  0.509500  0.407440  1.0
  C  C2586  1  0.603270  0.490500  0.092560  1.0
  C  C2587  1  0.103270  0.009500  0.407440  1.0
  C  C2588  1  0.103270  0.990500  0.092560  1.0
  C  C2589  1  0.297400  0.428600  0.584650  1.0
  C  C2590  1  0.297400  0.571400  0.915350  1.0
  C  C2591  1  0.797400  0.928600  0.584650  1.0
  C  C2592  1  0.797400  0.071400  0.915350  1.0
  C  C2593  1  0.702600  0.571400  0.415350  1.0
  C  C2594  1  0.702600  0.428600  0.084650  1.0
  C  C2595  1  0.202600  0.071400  0.415350  1.0
  C  C2596  1  0.202600  0.928600  0.084650  1.0
  C  C2597  1  0.135190  0.450330  0.588600  1.0
  C  C2598  1  0.135190  0.549670  0.911400  1.0
  C  C2599  1  0.635190  0.950330  0.588600  1.0
  C  C2600  1  0.635190  0.049670  0.911400  1.0
  C  C2601  1  0.864810  0.549670  0.411400  1.0
  C  C2602  1  0.864810  0.450330  0.088600  1.0
  C  C2603  1  0.364810  0.049670  0.411400  1.0
  C  C2604  1  0.364810  0.950330  0.088600  1.0
  C  C2605  1  0.130200  0.416910  0.564360  1.0
  C  C2606  1  0.130200  0.583090  0.935640  1.0
  C  C2607  1  0.630200  0.916910  0.564360  1.0
  C  C2608  1  0.630200  0.083090  0.935640  1.0
  C  C2609  1  0.869800  0.583090  0.435640  1.0
  C  C2610  1  0.869800  0.416910  0.064360  1.0
  C  C2611  1  0.369800  0.083090  0.435640  1.0
  C  C2612  1  0.369800  0.916910  0.064360  1.0
  C  C2613  1  0.167180  0.394940  0.552000  1.0
  C  C2614  1  0.167180  0.605060  0.948000  1.0
  C  C2615  1  0.667180  0.894940  0.552000  1.0
  C  C2616  1  0.667180  0.105060  0.948000  1.0
  C  C2617  1  0.832820  0.605060  0.448000  1.0
  C  C2618  1  0.832820  0.394940  0.052000  1.0
  C  C2619  1  0.332820  0.105060  0.448000  1.0
  C  C2620  1  0.332820  0.894940  0.052000  1.0
  C  C2621  1  0.209160  0.406390  0.563860  1.0
  C  C2622  1  0.209160  0.593610  0.936140  1.0
  C  C2623  1  0.709160  0.906390  0.563860  1.0
  C  C2624  1  0.709160  0.093610  0.936140  1.0
  C  C2625  1  0.790840  0.593610  0.436140  1.0
  C  C2626  1  0.790840  0.406390  0.063860  1.0
  C  C2627  1  0.290840  0.093610  0.436140  1.0
  C  C2628  1  0.290840  0.906390  0.063860  1.0
  C  C2629  1  0.214150  0.439810  0.588100  1.0
  C  C2630  1  0.214150  0.560190  0.911900  1.0
  C  C2631  1  0.714150  0.939810  0.588100  1.0
  C  C2632  1  0.714150  0.060190  0.911900  1.0
  C  C2633  1  0.785850  0.560190  0.411900  1.0
  C  C2634  1  0.785850  0.439810  0.088100  1.0
  C  C2635  1  0.285850  0.060190  0.411900  1.0
  C  C2636  1  0.285850  0.939810  0.088100  1.0
  C  C2637  1  0.177170  0.461780  0.600470  1.0
  C  C2638  1  0.177170  0.538220  0.899530  1.0
  C  C2639  1  0.677170  0.961780  0.600470  1.0
  C  C2640  1  0.677170  0.038220  0.899530  1.0
  C  C2641  1  0.822830  0.538220  0.399530  1.0
  C  C2642  1  0.822830  0.461780  0.100470  1.0
  C  C2643  1  0.322830  0.038220  0.399530  1.0
  C  C2644  1  0.322830  0.961780  0.100470  1.0
  C  C2645  1  0.182160  0.495200  0.624700  1.0
  C  C2646  1  0.182160  0.504800  0.875300  1.0
  C  C2647  1  0.682160  0.995200  0.624700  1.0
  C  C2648  1  0.682160  0.004800  0.875300  1.0
  C  C2649  1  0.817840  0.504800  0.375300  1.0
  C  C2650  1  0.817840  0.495200  0.124700  1.0
  C  C2651  1  0.317840  0.004800  0.375300  1.0
  C  C2652  1  0.317840  0.995200  0.124700  1.0
  C  C2653  1  0.224140  0.506650  0.636570  1.0
  C  C2654  1  0.224140  0.493350  0.863430  1.0
  C  C2655  1  0.724140  0.006650  0.636570  1.0
  C  C2656  1  0.724140  0.993350  0.863430  1.0
  C  C2657  1  0.775860  0.493350  0.363430  1.0
  C  C2658  1  0.775860  0.506650  0.136570  1.0
  C  C2659  1  0.275860  0.993350  0.363430  1.0
  C  C2660  1  0.275860  0.006650  0.136570  1.0
  C  C2661  1  0.261120  0.484690  0.624210  1.0
  C  C2662  1  0.261120  0.515310  0.875790  1.0
  C  C2663  1  0.761120  0.984690  0.624210  1.0
  C  C2664  1  0.761120  0.015310  0.875790  1.0
  C  C2665  1  0.738880  0.515310  0.375790  1.0
  C  C2666  1  0.738880  0.484690  0.124210  1.0
  C  C2667  1  0.238880  0.015310  0.375790  1.0
  C  C2668  1  0.238880  0.984690  0.124210  1.0
  C  C2669  1  0.256130  0.451260  0.599970  1.0
  C  C2670  1  0.256130  0.548740  0.900030  1.0
  C  C2671  1  0.756130  0.951260  0.599970  1.0
  C  C2672  1  0.756130  0.048740  0.900030  1.0
  C  C2673  1  0.743870  0.548740  0.400030  1.0
  C  C2674  1  0.743870  0.451260  0.099970  1.0
  C  C2675  1  0.243870  0.048740  0.400030  1.0
  C  C2676  1  0.243870  0.951260  0.099970  1.0
  C  C2677  1  0.231000  0.210000  0.439000  1.0
  C  C2678  1  0.231000  0.790000  0.061000  1.0
  C  C2679  1  0.731000  0.710000  0.439000  1.0
  C  C2680  1  0.731000  0.290000  0.061000  1.0
  C  C2681  1  0.769000  0.790000  0.561000  1.0
  C  C2682  1  0.769000  0.210000  0.939000  1.0
  C  C2683  1  0.269000  0.290000  0.561000  1.0
  C  C2684  1  0.269000  0.710000  0.939000  1.0
  C  C2685  1  0.200000  0.242000  0.430000  1.0
  C  C2686  1  0.200000  0.758000  0.070000  1.0
  C  C2687  1  0.700000  0.742000  0.430000  1.0
  C  C2688  1  0.700000  0.258000  0.070000  1.0
  C  C2689  1  0.800000  0.758000  0.570000  1.0
  C  C2690  1  0.800000  0.242000  0.930000  1.0
  C  C2691  1  0.300000  0.258000  0.570000  1.0
  C  C2692  1  0.300000  0.742000  0.930000  1.0
  C  C2693  1  0.270700  0.194900  0.541800  1.0
  C  C2694  1  0.270700  0.805100  0.958200  1.0
  C  C2695  1  0.770700  0.694900  0.541800  1.0
  C  C2696  1  0.770700  0.305100  0.958200  1.0
  C  C2697  1  0.729300  0.805100  0.458200  1.0
  C  C2698  1  0.729300  0.194900  0.041800  1.0
  C  C2699  1  0.229300  0.305100  0.458200  1.0
  C  C2700  1  0.229300  0.694900  0.041800  1.0
  C  C2701  1  0.314400  0.175000  0.529000  1.0
  C  C2702  1  0.314400  0.825000  0.971000  1.0
  C  C2703  1  0.814400  0.675000  0.529000  1.0
  C  C2704  1  0.814400  0.325000  0.971000  1.0
  C  C2705  1  0.685600  0.825000  0.471000  1.0
  C  C2706  1  0.685600  0.175000  0.029000  1.0
  C  C2707  1  0.185600  0.325000  0.471000  1.0
  C  C2708  1  0.185600  0.675000  0.029000  1.0
  C  C2709  1  0.146900  0.211800  0.509200  1.0
  C  C2710  1  0.146900  0.788200  0.990800  1.0
  C  C2711  1  0.646900  0.711800  0.509200  1.0
  C  C2712  1  0.646900  0.288200  0.990800  1.0
  C  C2713  1  0.853100  0.788200  0.490800  1.0
  C  C2714  1  0.853100  0.211800  0.009200  1.0
  C  C2715  1  0.353100  0.288200  0.490800  1.0
  C  C2716  1  0.353100  0.711800  0.009200  1.0
  C  C2717  1  0.151200  0.257800  0.520200  1.0
  C  C2718  1  0.151200  0.742200  0.979800  1.0
  C  C2719  1  0.651200  0.757800  0.520200  1.0
  C  C2720  1  0.651200  0.242200  0.979800  1.0
  C  C2721  1  0.848800  0.742200  0.479800  1.0
  C  C2722  1  0.848800  0.257800  0.020200  1.0
  C  C2723  1  0.348800  0.242200  0.479800  1.0
  C  C2724  1  0.348800  0.757800  0.020200  1.0
  N  N2725  1  0.956980  0.200390  0.426690  1.0
  N  N2726  1  0.956980  0.799610  0.073310  1.0
  N  N2727  1  0.456980  0.700390  0.426690  1.0
  N  N2728  1  0.456980  0.299610  0.073310  1.0
  N  N2729  1  0.043020  0.799610  0.573310  1.0
  N  N2730  1  0.043020  0.200390  0.926690  1.0
  N  N2731  1  0.543020  0.299610  0.573310  1.0
  N  N2732  1  0.543020  0.700390  0.926690  1.0
  N  N2733  1  0.017930  0.255080  0.411370  1.0
  N  N2734  1  0.017930  0.744920  0.088630  1.0
  N  N2735  1  0.517930  0.755080  0.411370  1.0
  N  N2736  1  0.517930  0.244920  0.088630  1.0
  N  N2737  1  0.982070  0.744920  0.588630  1.0
  N  N2738  1  0.982070  0.255080  0.911370  1.0
  N  N2739  1  0.482070  0.244920  0.588630  1.0
  N  N2740  1  0.482070  0.755080  0.911370  1.0
  N  N2741  1  0.053220  0.283510  0.410580  1.0
  N  N2742  1  0.053220  0.716490  0.089420  1.0
  N  N2743  1  0.553220  0.783510  0.410580  1.0
  N  N2744  1  0.553220  0.216490  0.089420  1.0
  N  N2745  1  0.946780  0.716490  0.589420  1.0
  N  N2746  1  0.946780  0.283510  0.910580  1.0
  N  N2747  1  0.446780  0.216490  0.589420  1.0
  N  N2748  1  0.446780  0.783510  0.910580  1.0
  N  N2749  1  0.299670  0.401370  0.241810  1.0
  N  N2750  1  0.299670  0.598630  0.258190  1.0
  N  N2751  1  0.799670  0.901370  0.241810  1.0
  N  N2752  1  0.799670  0.098630  0.258190  1.0
  N  N2753  1  0.700330  0.598630  0.758190  1.0
  N  N2754  1  0.700330  0.401370  0.741810  1.0
  N  N2755  1  0.200330  0.098630  0.758190  1.0
  N  N2756  1  0.200330  0.901370  0.741810  1.0
  N  N2757  1  0.234690  0.346750  0.240320  1.0
  N  N2758  1  0.234690  0.653250  0.259680  1.0
  N  N2759  1  0.734690  0.846750  0.240320  1.0
  N  N2760  1  0.734690  0.153250  0.259680  1.0
  N  N2761  1  0.765310  0.653250  0.759680  1.0
  N  N2762  1  0.765310  0.346750  0.740320  1.0
  N  N2763  1  0.265310  0.153250  0.759680  1.0
  N  N2764  1  0.265310  0.846750  0.740320  1.0
  N  N2765  1  0.197980  0.320210  0.233070  1.0
  N  N2766  1  0.197980  0.679790  0.266930  1.0
  N  N2767  1  0.697980  0.820210  0.233070  1.0
  N  N2768  1  0.697980  0.179790  0.266930  1.0
  N  N2769  1  0.802020  0.679790  0.766930  1.0
  N  N2770  1  0.802020  0.320210  0.733070  1.0
  N  N2771  1  0.302020  0.179790  0.766930  1.0
  N  N2772  1  0.302020  0.820210  0.733070  1.0
  N  N2773  1  0.896810  0.209130  0.363700  1.0
  N  N2774  1  0.896810  0.790870  0.136300  1.0
  N  N2775  1  0.396810  0.709130  0.363700  1.0
  N  N2776  1  0.396810  0.290870  0.136300  1.0
  N  N2777  1  0.103190  0.790870  0.636300  1.0
  N  N2778  1  0.103190  0.209130  0.863700  1.0
  N  N2779  1  0.603190  0.290870  0.636300  1.0
  N  N2780  1  0.603190  0.709130  0.863700  1.0
  N  N2781  1  0.910180  0.275260  0.406430  1.0
  N  N2782  1  0.910180  0.724740  0.093570  1.0
  N  N2783  1  0.410180  0.775260  0.406430  1.0
  N  N2784  1  0.410180  0.224740  0.093570  1.0
  N  N2785  1  0.089820  0.724740  0.593570  1.0
  N  N2786  1  0.089820  0.275260  0.906430  1.0
  N  N2787  1  0.589820  0.224740  0.593570  1.0
  N  N2788  1  0.589820  0.775260  0.906430  1.0
  N  N2789  1  0.910450  0.314670  0.425030  1.0
  N  N2790  1  0.910450  0.685330  0.074970  1.0
  N  N2791  1  0.410450  0.814670  0.425030  1.0
  N  N2792  1  0.410450  0.185330  0.074970  1.0
  N  N2793  1  0.089550  0.685330  0.574970  1.0
  N  N2794  1  0.089550  0.314670  0.925030  1.0
  N  N2795  1  0.589550  0.185330  0.574970  1.0
  N  N2796  1  0.589550  0.814670  0.925030  1.0
  N  N2797  1  0.074600  0.419790  0.665750  1.0
  N  N2798  1  0.074600  0.580210  0.834250  1.0
  N  N2799  1  0.574600  0.919790  0.665750  1.0
  N  N2800  1  0.574600  0.080210  0.834250  1.0
  N  N2801  1  0.925400  0.580210  0.334250  1.0
  N  N2802  1  0.925400  0.419790  0.165750  1.0
  N  N2803  1  0.425400  0.080210  0.334250  1.0
  N  N2804  1  0.425400  0.919790  0.165750  1.0
  N  N2805  1  0.061630  0.352030  0.624240  1.0
  N  N2806  1  0.061630  0.647970  0.875760  1.0
  N  N2807  1  0.561630  0.852030  0.624240  1.0
  N  N2808  1  0.561630  0.147970  0.875760  1.0
  N  N2809  1  0.938370  0.647970  0.375760  1.0
  N  N2810  1  0.938370  0.352030  0.124240  1.0
  N  N2811  1  0.438370  0.147970  0.375760  1.0
  N  N2812  1  0.438370  0.852030  0.124240  1.0
  N  N2813  1  0.062720  0.313070  0.604940  1.0
  N  N2814  1  0.062720  0.686930  0.895060  1.0
  N  N2815  1  0.562720  0.813070  0.604940  1.0
  N  N2816  1  0.562720  0.186930  0.895060  1.0
  N  N2817  1  0.937280  0.686930  0.395060  1.0
  N  N2818  1  0.937280  0.313070  0.104940  1.0
  N  N2819  1  0.437280  0.186930  0.395060  1.0
  N  N2820  1  0.437280  0.813070  0.104940  1.0
  N  N2821  1  0.967960  0.271330  0.344600  1.0
  N  N2822  1  0.967960  0.728670  0.155400  1.0
  N  N2823  1  0.467960  0.771330  0.344600  1.0
  N  N2824  1  0.467960  0.228670  0.155400  1.0
  N  N2825  1  0.032040  0.728670  0.655400  1.0
  N  N2826  1  0.032040  0.271330  0.844600  1.0
  N  N2827  1  0.532040  0.228670  0.655400  1.0
  N  N2828  1  0.532040  0.771330  0.844600  1.0
  N  N2829  1  0.992490  0.194500  0.347270  1.0
  N  N2830  1  0.992490  0.805500  0.152730  1.0
  N  N2831  1  0.492490  0.694500  0.347270  1.0
  N  N2832  1  0.492490  0.305500  0.152730  1.0
  N  N2833  1  0.007510  0.805500  0.652730  1.0
  N  N2834  1  0.007510  0.194500  0.847270  1.0
  N  N2835  1  0.507510  0.305500  0.652730  1.0
  N  N2836  1  0.507510  0.694500  0.847270  1.0
  N  N2837  1  0.003700  0.152380  0.341160  1.0
  N  N2838  1  0.003700  0.847620  0.158840  1.0
  N  N2839  1  0.503700  0.652380  0.341160  1.0
  N  N2840  1  0.503700  0.347620  0.158840  1.0
  N  N2841  1  0.996300  0.847620  0.658840  1.0
  N  N2842  1  0.996300  0.152380  0.841160  1.0
  N  N2843  1  0.496300  0.347620  0.658840  1.0
  N  N2844  1  0.496300  0.652380  0.841160  1.0
  N  N2845  1  0.163040  0.947480  0.504910  1.0
  N  N2846  1  0.163040  0.052520  0.995090  1.0
  N  N2847  1  0.663040  0.447480  0.504910  1.0
  N  N2848  1  0.663040  0.552520  0.995090  1.0
  N  N2849  1  0.836960  0.052520  0.495090  1.0
  N  N2850  1  0.836960  0.947480  0.004910  1.0
  N  N2851  1  0.336960  0.552520  0.495090  1.0
  N  N2852  1  0.336960  0.447480  0.004910  1.0
  N  N2853  1  0.130360  0.022360  0.507550  1.0
  N  N2854  1  0.130360  0.977640  0.992450  1.0
  N  N2855  1  0.630360  0.522360  0.507550  1.0
  N  N2856  1  0.630360  0.477640  0.992450  1.0
  N  N2857  1  0.869640  0.977640  0.492450  1.0
  N  N2858  1  0.869640  0.022360  0.007550  1.0
  N  N2859  1  0.369640  0.477640  0.492450  1.0
  N  N2860  1  0.369640  0.522360  0.007550  1.0
  N  N2861  1  0.110800  0.061590  0.515170  1.0
  N  N2862  1  0.110800  0.938410  0.984830  1.0
  N  N2863  1  0.610800  0.561590  0.515170  1.0
  N  N2864  1  0.610800  0.438410  0.984830  1.0
  N  N2865  1  0.889200  0.938410  0.484830  1.0
  N  N2866  1  0.889200  0.061590  0.015170  1.0
  N  N2867  1  0.389200  0.438410  0.484830  1.0
  N  N2868  1  0.389200  0.561590  0.015170  1.0
  N  N2869  1  0.328550  0.311470  0.249650  1.0
  N  N2870  1  0.328550  0.688530  0.250350  1.0
  N  N2871  1  0.828550  0.811470  0.249650  1.0
  N  N2872  1  0.828550  0.188530  0.250350  1.0
  N  N2873  1  0.671450  0.688530  0.750350  1.0
  N  N2874  1  0.671450  0.311470  0.749650  1.0
  N  N2875  1  0.171450  0.188530  0.750350  1.0
  N  N2876  1  0.171450  0.811470  0.749650  1.0
  N  N2877  1  0.349780  0.369630  0.298100  1.0
  N  N2878  1  0.349780  0.630370  0.201900  1.0
  N  N2879  1  0.849780  0.869630  0.298100  1.0
  N  N2880  1  0.849780  0.130370  0.201900  1.0
  N  N2881  1  0.650220  0.630370  0.701900  1.0
  N  N2882  1  0.650220  0.369630  0.798100  1.0
  N  N2883  1  0.150220  0.130370  0.701900  1.0
  N  N2884  1  0.150220  0.869630  0.798100  1.0
  N  N2885  1  0.369510  0.401510  0.320010  1.0
  N  N2886  1  0.369510  0.598490  0.179990  1.0
  N  N2887  1  0.869510  0.901510  0.320010  1.0
  N  N2888  1  0.869510  0.098490  0.179990  1.0
  N  N2889  1  0.630490  0.598490  0.679990  1.0
  N  N2890  1  0.630490  0.401510  0.820010  1.0
  N  N2891  1  0.130490  0.098490  0.679990  1.0
  N  N2892  1  0.130490  0.901510  0.820010  1.0
  N  N2893  1  0.310800  0.558110  0.570660  1.0
  N  N2894  1  0.310800  0.441890  0.929340  1.0
  N  N2895  1  0.810800  0.058110  0.570660  1.0
  N  N2896  1  0.810800  0.941890  0.929340  1.0
  N  N2897  1  0.689200  0.441890  0.429340  1.0
  N  N2898  1  0.689200  0.558110  0.070660  1.0
  N  N2899  1  0.189200  0.941890  0.429340  1.0
  N  N2900  1  0.189200  0.058110  0.070660  1.0
  N  N2901  1  0.273400  0.499000  0.529100  1.0
  N  N2902  1  0.273400  0.501000  0.970900  1.0
  N  N2903  1  0.773400  0.999000  0.529100  1.0
  N  N2904  1  0.773400  0.001000  0.970900  1.0
  N  N2905  1  0.726600  0.501000  0.470900  1.0
  N  N2906  1  0.726600  0.499000  0.029100  1.0
  N  N2907  1  0.226600  0.001000  0.470900  1.0
  N  N2908  1  0.226600  0.999000  0.029100  1.0
  N  N2909  1  0.245740  0.471090  0.509080  1.0
  N  N2910  1  0.245740  0.528910  0.990920  1.0
  N  N2911  1  0.745740  0.971090  0.509080  1.0
  N  N2912  1  0.745740  0.028910  0.990920  1.0
  N  N2913  1  0.754260  0.528910  0.490920  1.0
  N  N2914  1  0.754260  0.471090  0.009080  1.0
  N  N2915  1  0.254260  0.028910  0.490920  1.0
  N  N2916  1  0.254260  0.971090  0.009080  1.0
  N  N2917  1  0.245670  0.395120  0.308920  1.0
  N  N2918  1  0.245670  0.604880  0.191080  1.0
  N  N2919  1  0.745670  0.895120  0.308920  1.0
  N  N2920  1  0.745670  0.104880  0.191080  1.0
  N  N2921  1  0.754330  0.604880  0.691080  1.0
  N  N2922  1  0.754330  0.395120  0.808920  1.0
  N  N2923  1  0.254330  0.104880  0.691080  1.0
  N  N2924  1  0.254330  0.895120  0.808920  1.0
  N  N2925  1  0.264280  0.315680  0.312970  1.0
  N  N2926  1  0.264280  0.684320  0.187030  1.0
  N  N2927  1  0.764280  0.815680  0.312970  1.0
  N  N2928  1  0.764280  0.184320  0.187030  1.0
  N  N2929  1  0.735720  0.684320  0.687030  1.0
  N  N2930  1  0.735720  0.315680  0.812970  1.0
  N  N2931  1  0.235720  0.184320  0.687030  1.0
  N  N2932  1  0.235720  0.815680  0.812970  1.0
  N  N2933  1  0.267260  0.274590  0.320510  1.0
  N  N2934  1  0.267260  0.725410  0.179490  1.0
  N  N2935  1  0.767260  0.774590  0.320510  1.0
  N  N2936  1  0.767260  0.225410  0.179490  1.0
  N  N2937  1  0.732740  0.725410  0.679490  1.0
  N  N2938  1  0.732740  0.274590  0.820510  1.0
  N  N2939  1  0.232740  0.225410  0.679490  1.0
  N  N2940  1  0.232740  0.774590  0.820510  1.0
  N  N2941  1  0.523440  0.046500  0.341100  1.0
  N  N2942  1  0.523440  0.953500  0.158900  1.0
  N  N2943  1  0.023440  0.546500  0.341100  1.0
  N  N2944  1  0.023440  0.453500  0.158900  1.0
  N  N2945  1  0.476560  0.953500  0.658900  1.0
  N  N2946  1  0.476560  0.046500  0.841100  1.0
  N  N2947  1  0.976560  0.453500  0.658900  1.0
  N  N2948  1  0.976560  0.546500  0.841100  1.0
  N  N2949  1  0.514690  0.118890  0.318060  1.0
  N  N2950  1  0.514690  0.881110  0.181940  1.0
  N  N2951  1  0.014690  0.618890  0.318060  1.0
  N  N2952  1  0.014690  0.381110  0.181940  1.0
  N  N2953  1  0.485310  0.881110  0.681940  1.0
  N  N2954  1  0.485310  0.118890  0.818060  1.0
  N  N2955  1  0.985310  0.381110  0.681940  1.0
  N  N2956  1  0.985310  0.618890  0.818060  1.0
  N  N2957  1  0.519730  0.155970  0.303410  1.0
  N  N2958  1  0.519730  0.844030  0.196590  1.0
  N  N2959  1  0.019730  0.655970  0.303410  1.0
  N  N2960  1  0.019730  0.344030  0.196590  1.0
  N  N2961  1  0.480270  0.844030  0.696590  1.0
  N  N2962  1  0.480270  0.155970  0.803410  1.0
  N  N2963  1  0.980270  0.344030  0.696590  1.0
  N  N2964  1  0.980270  0.655970  0.803410  1.0
  N  N2965  1  0.962170  0.380560  0.607590  1.0
  N  N2966  1  0.962170  0.619440  0.892410  1.0
  N  N2967  1  0.462170  0.880560  0.607590  1.0
  N  N2968  1  0.462170  0.119440  0.892410  1.0
  N  N2969  1  0.037830  0.619440  0.392410  1.0
  N  N2970  1  0.037830  0.380560  0.107590  1.0
  N  N2971  1  0.537830  0.119440  0.392410  1.0
  N  N2972  1  0.537830  0.880560  0.107590  1.0
  N  N2973  1  0.027640  0.431300  0.594990  1.0
  N  N2974  1  0.027640  0.568700  0.905010  1.0
  N  N2975  1  0.527640  0.931300  0.594990  1.0
  N  N2976  1  0.527640  0.068700  0.905010  1.0
  N  N2977  1  0.972360  0.568700  0.405010  1.0
  N  N2978  1  0.972360  0.431300  0.094990  1.0
  N  N2979  1  0.472360  0.068700  0.405010  1.0
  N  N2980  1  0.472360  0.931300  0.094990  1.0
  N  N2981  1  0.055450  0.461910  0.583900  1.0
  N  N2982  1  0.055450  0.538090  0.916100  1.0
  N  N2983  1  0.555450  0.961910  0.583900  1.0
  N  N2984  1  0.555450  0.038090  0.916100  1.0
  N  N2985  1  0.944550  0.538090  0.416100  1.0
  N  N2986  1  0.944550  0.461910  0.083900  1.0
  N  N2987  1  0.444550  0.038090  0.416100  1.0
  N  N2988  1  0.444550  0.961910  0.083900  1.0
  N  N2989  1  0.406950  0.533730  0.550720  1.0
  N  N2990  1  0.406950  0.466270  0.949280  1.0
  N  N2991  1  0.906950  0.033730  0.550720  1.0
  N  N2992  1  0.906950  0.966270  0.949280  1.0
  N  N2993  1  0.593050  0.466270  0.449280  1.0
  N  N2994  1  0.593050  0.533730  0.050720  1.0
  N  N2995  1  0.093050  0.966270  0.449280  1.0
  N  N2996  1  0.093050  0.033730  0.050720  1.0
  N  N2997  1  0.356990  0.477380  0.575670  1.0
  N  N2998  1  0.356990  0.522620  0.924330  1.0
  N  N2999  1  0.856990  0.977380  0.575670  1.0
  N  N3000  1  0.856990  0.022620  0.924330  1.0
  N  N3001  1  0.643010  0.522620  0.424330  1.0
  N  N3002  1  0.643010  0.477380  0.075670  1.0
  N  N3003  1  0.143010  0.022620  0.424330  1.0
  N  N3004  1  0.143010  0.977380  0.075670  1.0
  N  N3005  1  0.336840  0.447540  0.593720  1.0
  N  N3006  1  0.336840  0.552460  0.906280  1.0
  N  N3007  1  0.836840  0.947540  0.593720  1.0
  N  N3008  1  0.836840  0.052460  0.906280  1.0
  N  N3009  1  0.663160  0.552460  0.406280  1.0
  N  N3010  1  0.663160  0.447540  0.093720  1.0
  N  N3011  1  0.163160  0.052460  0.406280  1.0
  N  N3012  1  0.163160  0.947540  0.093720  1.0
  O  O3013  1  0.200400  0.151900  0.489500  1
  O  O3014  1  0.200400  0.848100  0.010500  1
  O  O3015  1  0.700400  0.651900  0.489500  1
  O  O3016  1  0.700400  0.348100  0.010500  1
  O  O3017  1  0.799600  0.848100  0.510500  1
  O  O3018  1  0.799600  0.151900  0.989500  1
  O  O3019  1  0.299600  0.348100  0.510500  1
  O  O3020  1  0.299600  0.651900  0.989500  1
  O  O3021  1  0.204200  0.148200  0.482400  1.0
  O  O3022  1  0.204200  0.851800  0.017600  1.0
  O  O3023  1  0.704200  0.648200  0.482400  1.0
  O  O3024  1  0.704200  0.351800  0.017600  1.0
  O  O3025  1  0.795800  0.851800  0.517600  1.0
  O  O3026  1  0.795800  0.148200  0.982400  1.0
  O  O3027  1  0.295800  0.351800  0.517600  1.0
  O  O3028  1  0.295800  0.648200  0.982400  1.0
  O  O3029  1  0.225400  0.203800  0.534600  1.0
  O  O3030  1  0.225400  0.796200  0.965400  1.0
  O  O3031  1  0.725400  0.703800  0.534600  1.0
  O  O3032  1  0.725400  0.296200  0.965400  1.0
  O  O3033  1  0.774600  0.796200  0.465400  1.0
  O  O3034  1  0.774600  0.203800  0.034600  1.0
  O  O3035  1  0.274600  0.296200  0.465400  1.0
  O  O3036  1  0.274600  0.703800  0.034600  1.0
  O  O3037  1  0.233500  0.216800  0.474800  1.0
  O  O3038  1  0.233500  0.783200  0.025200  1.0
  O  O3039  1  0.733500  0.716800  0.474800  1.0
  O  O3040  1  0.733500  0.283200  0.025200  1.0
  O  O3041  1  0.766500  0.783200  0.525200  1.0
  O  O3042  1  0.766500  0.216800  0.974800  1.0
  O  O3043  1  0.266500  0.283200  0.525200  1.0
  O  O3044  1  0.266500  0.716800  0.974800  1.0
  F  F3045  1  0.225900  0.693800  0.665910  1
  F  F3046  1  0.225900  0.306200  0.834090  1
  F  F3047  1  0.725900  0.193800  0.665910  1
  F  F3048  1  0.725900  0.806200  0.834090  1
  F  F3049  1  0.774100  0.306200  0.334090  1
  F  F3050  1  0.774100  0.693800  0.165910  1
  F  F3051  1  0.274100  0.806200  0.334090  1
  F  F3052  1  0.274100  0.193800  0.165910  1
  F  F3053  1  0.268800  0.749000  0.680000  1
  F  F3054  1  0.268800  0.251000  0.820000  1
  F  F3055  1  0.768800  0.249000  0.680000  1
  F  F3056  1  0.768800  0.751000  0.820000  1
  F  F3057  1  0.731200  0.251000  0.320000  1
  F  F3058  1  0.731200  0.749000  0.180000  1
  F  F3059  1  0.231200  0.751000  0.320000  1
  F  F3060  1  0.231200  0.249000  0.180000  1
  F  F3061  1  0.299100  0.685500  0.674600  1
  F  F3062  1  0.299100  0.314500  0.825400  1
  F  F3063  1  0.799100  0.185500  0.674600  1
  F  F3064  1  0.799100  0.814500  0.825400  1
  F  F3065  1  0.700900  0.314500  0.325400  1
  F  F3066  1  0.700900  0.685500  0.174600  1
  F  F3067  1  0.200900  0.814500  0.325400  1
  F  F3068  1  0.200900  0.185500  0.174600  1
  F  F3069  1  0.253800  0.706600  0.718790  1
  F  F3070  1  0.253800  0.293400  0.781210  1
  F  F3071  1  0.753800  0.206600  0.718790  1
  F  F3072  1  0.753800  0.793400  0.781210  1
  F  F3073  1  0.746200  0.293400  0.281210  1
  F  F3074  1  0.746200  0.706600  0.218790  1
  F  F3075  1  0.246200  0.793400  0.281210  1
  F  F3076  1  0.246200  0.206600  0.218790  1
  F  F3077  1  0.120270  0.593650  0.515250  1
  F  F3078  1  0.120270  0.406350  0.984750  1
  F  F3079  1  0.620270  0.093650  0.515250  1
  F  F3080  1  0.620270  0.906350  0.984750  1
  F  F3081  1  0.879730  0.406350  0.484750  1
  F  F3082  1  0.879730  0.593650  0.015250  1
  F  F3083  1  0.379730  0.906350  0.484750  1
  F  F3084  1  0.379730  0.093650  0.015250  1
  F  F3085  1  0.105000  0.526180  0.513450  1
  F  F3086  1  0.105000  0.473820  0.986550  1
  F  F3087  1  0.605000  0.026180  0.513450  1
  F  F3088  1  0.605000  0.973820  0.986550  1
  F  F3089  1  0.895000  0.473820  0.486550  1
  F  F3090  1  0.895000  0.526180  0.013450  1
  F  F3091  1  0.395000  0.973820  0.486550  1
  F  F3092  1  0.395000  0.026180  0.013450  1
  F  F3093  1  0.109100  0.565610  0.563220  1
  F  F3094  1  0.109100  0.434390  0.936780  1
  F  F3095  1  0.609100  0.065610  0.563220  1
  F  F3096  1  0.609100  0.934390  0.936780  1
  F  F3097  1  0.890900  0.434390  0.436780  1
  F  F3098  1  0.890900  0.565610  0.063220  1
  F  F3099  1  0.390900  0.934390  0.436780  1
  F  F3100  1  0.390900  0.065610  0.063220  1
  F  F3101  1  0.051600  0.572490  0.527900  1
  F  F3102  1  0.051600  0.427510  0.972100  1
  F  F3103  1  0.551600  0.072490  0.527900  1
  F  F3104  1  0.551600  0.927510  0.972100  1
  F  F3105  1  0.948400  0.427510  0.472100  1
  F  F3106  1  0.948400  0.572490  0.027900  1
  F  F3107  1  0.448400  0.927510  0.472100  1
  F  F3108  1  0.448400  0.072490  0.027900  1
  F  F3109  1  0.418430  0.296260  0.430200  1
  F  F3110  1  0.418430  0.703740  0.069800  1
  F  F3111  1  0.918430  0.796260  0.430200  1
  F  F3112  1  0.918430  0.203740  0.069800  1
  F  F3113  1  0.581570  0.703740  0.569800  1
  F  F3114  1  0.581570  0.296260  0.930200  1
  F  F3115  1  0.081570  0.203740  0.569800  1
  F  F3116  1  0.081570  0.796260  0.930200  1
  F  F3117  1  0.492650  0.304430  0.427030  1
  F  F3118  1  0.492650  0.695570  0.072970  1
  F  F3119  1  0.992650  0.804430  0.427030  1
  F  F3120  1  0.992650  0.195570  0.072970  1
  F  F3121  1  0.507350  0.695570  0.572970  1
  F  F3122  1  0.507350  0.304430  0.927030  1
  F  F3123  1  0.007350  0.195570  0.572970  1
  F  F3124  1  0.007350  0.804430  0.927030  1
  F  F3125  1  0.446730  0.351350  0.408300  1
  F  F3126  1  0.446730  0.648650  0.091700  1
  F  F3127  1  0.946730  0.851350  0.408300  1
  F  F3128  1  0.946730  0.148650  0.091700  1
  F  F3129  1  0.553270  0.648650  0.591700  1
  F  F3130  1  0.553270  0.351350  0.908300  1
  F  F3131  1  0.053270  0.148650  0.591700  1
  F  F3132  1  0.053270  0.851350  0.908300  1
  F  F3133  1  0.452780  0.346560  0.463750  1
  F  F3134  1  0.452780  0.653440  0.036250  1
  F  F3135  1  0.952780  0.846560  0.463750  1
  F  F3136  1  0.952780  0.153440  0.036250  1
  F  F3137  1  0.547220  0.653440  0.536250  1
  F  F3138  1  0.547220  0.346560  0.963750  1
  F  F3139  1  0.047220  0.153440  0.536250  1
  F  F3140  1  0.047220  0.846560  0.963750  1
  F  F3141  1  0.444820  0.476680  0.365680  1
  F  F3142  1  0.444820  0.523320  0.134320  1
  F  F3143  1  0.944820  0.976680  0.365680  1
  F  F3144  1  0.944820  0.023320  0.134320  1
  F  F3145  1  0.555180  0.523320  0.634320  1
  F  F3146  1  0.555180  0.476680  0.865680  1
  F  F3147  1  0.055180  0.023320  0.634320  1
  F  F3148  1  0.055180  0.976680  0.865680  1
  F  F3149  1  0.418640  0.541060  0.365330  1
  F  F3150  1  0.418640  0.458940  0.134670  1
  F  F3151  1  0.918640  0.041060  0.365330  1
  F  F3152  1  0.918640  0.958940  0.134670  1
  F  F3153  1  0.581360  0.458940  0.634670  1
  F  F3154  1  0.581360  0.541060  0.865330  1
  F  F3155  1  0.081360  0.958940  0.634670  1
  F  F3156  1  0.081360  0.041060  0.865330  1
  F  F3157  1  0.484940  0.524110  0.342690  1
  F  F3158  1  0.484940  0.475890  0.157310  1
  F  F3159  1  0.984940  0.024110  0.342690  1
  F  F3160  1  0.984940  0.975890  0.157310  1
  F  F3161  1  0.515060  0.475890  0.657310  1
  F  F3162  1  0.515060  0.524110  0.842690  1
  F  F3163  1  0.015060  0.975890  0.657310  1
  F  F3164  1  0.015060  0.024110  0.842690  1
  F  F3165  1  0.422170  0.497980  0.317170  1
  F  F3166  1  0.422170  0.502020  0.182830  1
  F  F3167  1  0.922170  0.997980  0.317170  1
  F  F3168  1  0.922170  0.002020  0.182830  1
  F  F3169  1  0.577830  0.502020  0.682830  1
  F  F3170  1  0.577830  0.497980  0.817170  1
  F  F3171  1  0.077830  0.002020  0.682830  1
  F  F3172  1  0.077830  0.997980  0.817170  1
  F  F3173  1  0.280300  0.331800  0.686690  1
  F  F3174  1  0.280300  0.668200  0.813310  1
  F  F3175  1  0.780300  0.831800  0.686690  1
  F  F3176  1  0.780300  0.168200  0.813310  1
  F  F3177  1  0.719700  0.668200  0.313310  1
  F  F3178  1  0.719700  0.331800  0.186690  1
  F  F3179  1  0.219700  0.168200  0.313310  1
  F  F3180  1  0.219700  0.831800  0.186690  1
  F  F3181  1  0.240400  0.328100  0.640220  1
  F  F3182  1  0.240400  0.671900  0.859780  1
  F  F3183  1  0.740400  0.828100  0.640220  1
  F  F3184  1  0.740400  0.171900  0.859780  1
  F  F3185  1  0.759600  0.671900  0.359780  1
  F  F3186  1  0.759600  0.328100  0.140220  1
  F  F3187  1  0.259600  0.171900  0.359780  1
  F  F3188  1  0.259600  0.828100  0.140220  1
  F  F3189  1  0.253700  0.389200  0.669300  1
  F  F3190  1  0.253700  0.610800  0.830700  1
  F  F3191  1  0.753700  0.889200  0.669300  1
  F  F3192  1  0.753700  0.110800  0.830700  1
  F  F3193  1  0.746300  0.610800  0.330700  1
  F  F3194  1  0.746300  0.389200  0.169300  1
  F  F3195  1  0.246300  0.110800  0.330700  1
  F  F3196  1  0.246300  0.889200  0.169300  1
  F  F3197  1  0.309200  0.356200  0.641710  1
  F  F3198  1  0.309200  0.643800  0.858290  1
  F  F3199  1  0.809200  0.856200  0.641710  1
  F  F3200  1  0.809200  0.143800  0.858290  1
  F  F3201  1  0.690800  0.643800  0.358290  1
  F  F3202  1  0.690800  0.356200  0.141710  1
  F  F3203  1  0.190800  0.143800  0.358290  1
  F  F3204  1  0.190800  0.856200  0.141710  1
  F  F3205  1  0.019700  0.524200  0.726700  1
  F  F3206  1  0.019700  0.475800  0.773300  1
  F  F3207  1  0.519700  0.024200  0.726700  1
  F  F3208  1  0.519700  0.975800  0.773300  1
  F  F3209  1  0.980300  0.475800  0.273300  1
  F  F3210  1  0.980300  0.524200  0.226700  1
  F  F3211  1  0.480300  0.975800  0.273300  1
  F  F3212  1  0.480300  0.024200  0.226700  1
  F  F3213  1  0.046200  0.549700  0.680970  1
  F  F3214  1  0.046200  0.450300  0.819030  1
  F  F3215  1  0.546200  0.049700  0.680970  1
  F  F3216  1  0.546200  0.950300  0.819030  1
  F  F3217  1  0.953800  0.450300  0.319030  1
  F  F3218  1  0.953800  0.549700  0.180970  1
  F  F3219  1  0.453800  0.950300  0.319030  1
  F  F3220  1  0.453800  0.049700  0.180970  1
  F  F3221  1  0.076900  0.567600  0.731100  1
  F  F3222  1  0.076900  0.432400  0.768900  1
  F  F3223  1  0.576900  0.067600  0.731100  1
  F  F3224  1  0.576900  0.932400  0.768900  1
  F  F3225  1  0.923100  0.432400  0.268900  1
  F  F3226  1  0.923100  0.567600  0.231100  1
  F  F3227  1  0.423100  0.932400  0.268900  1
  F  F3228  1  0.423100  0.067600  0.231100  1
  F  F3229  1  0.008800  0.590100  0.720000  1
  F  F3230  1  0.008800  0.409900  0.780000  1
  F  F3231  1  0.508800  0.090100  0.720000  1
  F  F3232  1  0.508800  0.909900  0.780000  1
  F  F3233  1  0.991200  0.409900  0.280000  1
  F  F3234  1  0.991200  0.590100  0.220000  1
  F  F3235  1  0.491200  0.909900  0.280000  1
  F  F3236  1  0.491200  0.090100  0.220000  1
  F  F3237  1  0.290300  0.135200  0.559100  1
  F  F3238  1  0.290300  0.864800  0.940900  1
  F  F3239  1  0.790300  0.635200  0.559100  1
  F  F3240  1  0.790300  0.364800  0.940900  1
  F  F3241  1  0.709700  0.864800  0.440900  1
  F  F3242  1  0.709700  0.135200  0.059100  1
  F  F3243  1  0.209700  0.364800  0.440900  1
  F  F3244  1  0.209700  0.635200  0.059100  1
  F  F3245  1  0.341500  0.091700  0.536800  1
  F  F3246  1  0.341500  0.908300  0.963200  1
  F  F3247  1  0.841500  0.591700  0.536800  1
  F  F3248  1  0.841500  0.408300  0.963200  1
  F  F3249  1  0.658500  0.908300  0.463200  1
  F  F3250  1  0.658500  0.091700  0.036800  1
  F  F3251  1  0.158500  0.408300  0.463200  1
  F  F3252  1  0.158500  0.591700  0.036800  1
  F  F3253  1  0.357500  0.140200  0.580070  1
  F  F3254  1  0.357500  0.859800  0.919930  1
  F  F3255  1  0.857500  0.640200  0.580070  1
  F  F3256  1  0.857500  0.359800  0.919930  1
  F  F3257  1  0.642500  0.859800  0.419930  1
  F  F3258  1  0.642500  0.140200  0.080070  1
  F  F3259  1  0.142500  0.359800  0.419930  1
  F  F3260  1  0.142500  0.640200  0.080070  1
  F  F3261  1  0.346500  0.156800  0.528620  1
  F  F3262  1  0.346500  0.843200  0.971380  1
  F  F3263  1  0.846500  0.656800  0.528620  1
  F  F3264  1  0.846500  0.343200  0.971380  1
  F  F3265  1  0.653500  0.843200  0.471380  1
  F  F3266  1  0.653500  0.156800  0.028620  1
  F  F3267  1  0.153500  0.343200  0.471380  1
  F  F3268  1  0.153500  0.656800  0.028620  1
  F  F3269  1  0.155100  0.468810  0.260130  1
  F  F3270  1  0.155100  0.531190  0.239870  1
  F  F3271  1  0.655100  0.968810  0.260130  1
  F  F3272  1  0.655100  0.031190  0.239870  1
  F  F3273  1  0.844900  0.531190  0.739870  1
  F  F3274  1  0.844900  0.468810  0.760130  1
  F  F3275  1  0.344900  0.031190  0.739870  1
  F  F3276  1  0.344900  0.968810  0.760130  1
  F  F3277  1  0.220700  0.500000  0.250000  1
  F  F3278  1  0.720700  0.000000  0.250000  1
  F  F3279  1  0.779300  0.500000  0.750000  1
  F  F3280  1  0.279300  0.000000  0.750000  1
  F  F3281  1  0.186200  0.528800  0.287900  1
  F  F3282  1  0.186200  0.471200  0.212100  1
  F  F3283  1  0.686200  0.028800  0.287900  1
  F  F3284  1  0.686200  0.971200  0.212100  1
  F  F3285  1  0.813800  0.471200  0.712100  1
  F  F3286  1  0.813800  0.528800  0.787900  1
  F  F3287  1  0.313800  0.971200  0.712100  1
  F  F3288  1  0.313800  0.028800  0.787900  1
