# generated using pymatgen
data_Co4B5PH168C186N36O19F20
_symmetry_space_group_name_H-M   'P 1'
_cell_length_a   27.47700000
_cell_length_b   39.20100000
_cell_length_c   41.99200000
_cell_angle_alpha   90.00000000
_cell_angle_beta   107.13300000
_cell_angle_gamma   90.00000000
_symmetry_Int_Tables_number   1
_chemical_formula_structural   Co4B5PH168C186N36O19F20
_chemical_formula_sum   'Co32 B40 P8 H1344 C1488 N288 O152 F160'
_cell_volume   43223.49106196
_cell_formula_units_Z   8
loop_
 _symmetry_equiv_pos_site_id
 _symmetry_equiv_pos_as_xyz
  1  'x, y, z'
loop_
 _atom_site_type_symbol
 _atom_site_label
 _atom_site_symmetry_multiplicity
 _atom_site_fract_x
 _atom_site_fract_y
 _atom_site_fract_z
 _atom_site_occupancy
  Co  Co1  1  0.594020  0.256860  0.541450  1.0
  Co  Co2  1  0.405980  0.256860  0.958550  1.0
  Co  Co3  1  0.094020  0.756860  0.541450  1.0
  Co  Co4  1  0.905980  0.756860  0.958550  1.0
  Co  Co5  1  0.405980  0.743140  0.458550  1.0
  Co  Co6  1  0.594020  0.743140  0.041450  1.0
  Co  Co7  1  0.905980  0.243140  0.458550  1.0
  Co  Co8  1  0.094020  0.243140  0.041450  1.0
  Co  Co9  1  0.318800  0.259340  0.283390  1.0
  Co  Co10  1  0.681200  0.259340  0.216610  1.0
  Co  Co11  1  0.818800  0.759340  0.283390  1.0
  Co  Co12  1  0.181200  0.759340  0.216610  1.0
  Co  Co13  1  0.681200  0.740660  0.716610  1.0
  Co  Co14  1  0.318800  0.740660  0.783390  1.0
  Co  Co15  1  0.181200  0.240660  0.716610  1.0
  Co  Co16  1  0.818800  0.240660  0.783390  1.0
  Co  Co17  1  0.399460  0.035970  0.624000  1.0
  Co  Co18  1  0.600540  0.035970  0.876000  1.0
  Co  Co19  1  0.899460  0.535970  0.624000  1.0
  Co  Co20  1  0.100540  0.535970  0.876000  1.0
  Co  Co21  1  0.600540  0.964030  0.376000  1.0
  Co  Co22  1  0.399460  0.964030  0.124000  1.0
  Co  Co23  1  0.100540  0.464030  0.376000  1.0
  Co  Co24  1  0.899460  0.464030  0.124000  1.0
  Co  Co25  1  0.117620  0.037390  0.367700  1.0
  Co  Co26  1  0.882380  0.037390  0.132300  1.0
  Co  Co27  1  0.617620  0.537390  0.367700  1.0
  Co  Co28  1  0.382380  0.537390  0.132300  1.0
  Co  Co29  1  0.882380  0.962610  0.632300  1.0
  Co  Co30  1  0.117620  0.962610  0.867700  1.0
  Co  Co31  1  0.382380  0.462610  0.632300  1.0
  Co  Co32  1  0.617620  0.462610  0.867700  1.0
  B  B33  1  0.367200  0.379950  0.454720  1
  B  B34  1  0.632800  0.379950  0.045280  1
  B  B35  1  0.867200  0.879950  0.454720  1
  B  B36  1  0.132800  0.879950  0.045280  1
  B  B37  1  0.632800  0.620050  0.545280  1
  B  B38  1  0.367200  0.620050  0.954720  1
  B  B39  1  0.132800  0.120050  0.545280  1
  B  B40  1  0.867200  0.120050  0.954720  1
  B  B41  1  0.376100  0.134200  0.444900  1
  B  B42  1  0.623900  0.134200  0.055100  1
  B  B43  1  0.876100  0.634200  0.444900  1
  B  B44  1  0.123900  0.634200  0.055100  1
  B  B45  1  0.623900  0.865800  0.555100  1
  B  B46  1  0.376100  0.865800  0.944900  1
  B  B47  1  0.123900  0.365800  0.555100  1
  B  B48  1  0.876100  0.365800  0.944900  1
  B  B49  1  0.416800  0.240300  0.655600  1
  B  B50  1  0.583200  0.240300  0.844400  1
  B  B51  1  0.916800  0.740300  0.655600  1
  B  B52  1  0.083200  0.740300  0.844400  1
  B  B53  1  0.583200  0.759700  0.344400  1
  B  B54  1  0.416800  0.759700  0.155600  1
  B  B55  1  0.083200  0.259700  0.344400  1
  B  B56  1  0.916800  0.259700  0.155600  1
  B  B57  1  0.881900  0.125100  0.298400  1
  B  B58  1  0.118100  0.125100  0.201600  1
  B  B59  1  0.381900  0.625100  0.298400  1
  B  B60  1  0.618100  0.625100  0.201600  1
  B  B61  1  0.118100  0.874900  0.701600  1
  B  B62  1  0.881900  0.874900  0.798400  1
  B  B63  1  0.618100  0.374900  0.701600  1
  B  B64  1  0.381900  0.374900  0.798400  1
  B  B65  1  0.873100  0.440900  0.452500  1
  B  B66  1  0.126900  0.440900  0.047500  1
  B  B67  1  0.373100  0.940900  0.452500  1
  B  B68  1  0.626900  0.940900  0.047500  1
  B  B69  1  0.126900  0.559100  0.547500  1
  B  B70  1  0.873100  0.559100  0.952500  1
  B  B71  1  0.626900  0.059100  0.547500  1
  B  B72  1  0.373100  0.059100  0.952500  1
  P  P73  1  0.336040  0.249770  0.518700  1
  P  P74  1  0.663960  0.249770  0.981300  1
  P  P75  1  0.836040  0.749770  0.518700  1
  P  P76  1  0.163960  0.749770  0.981300  1
  P  P77  1  0.663960  0.750230  0.481300  1
  P  P78  1  0.336040  0.750230  0.018700  1
  P  P79  1  0.163960  0.250230  0.481300  1
  P  P80  1  0.836040  0.250230  0.018700  1
  H  H81  1  0.325500  0.219400  0.591100  1
  H  H82  1  0.674500  0.219400  0.908900  1
  H  H83  1  0.825500  0.719400  0.591100  1
  H  H84  1  0.174500  0.719400  0.908900  1
  H  H85  1  0.674500  0.780600  0.408900  1
  H  H86  1  0.325500  0.780600  0.091100  1
  H  H87  1  0.174500  0.280600  0.408900  1
  H  H88  1  0.825500  0.280600  0.091100  1
  H  H89  1  0.372800  0.238700  0.584300  1
  H  H90  1  0.627200  0.238700  0.915700  1
  H  H91  1  0.872800  0.738700  0.584300  1
  H  H92  1  0.127200  0.738700  0.915700  1
  H  H93  1  0.627200  0.761300  0.415700  1
  H  H94  1  0.372800  0.761300  0.084300  1
  H  H95  1  0.127200  0.261300  0.415700  1
  H  H96  1  0.872800  0.261300  0.084300  1
  H  H97  1  0.319500  0.258000  0.577900  1
  H  H98  1  0.680500  0.258000  0.922100  1
  H  H99  1  0.819500  0.758000  0.577900  1
  H  H100  1  0.180500  0.758000  0.922100  1
  H  H101  1  0.680500  0.742000  0.422100  1
  H  H102  1  0.319500  0.742000  0.077900  1
  H  H103  1  0.180500  0.242000  0.422100  1
  H  H104  1  0.819500  0.242000  0.077900  1
  H  H105  1  0.280600  0.206600  0.447100  1
  H  H106  1  0.719400  0.206600  0.052900  1
  H  H107  1  0.780600  0.706600  0.447100  1
  H  H108  1  0.219400  0.706600  0.052900  1
  H  H109  1  0.719400  0.793400  0.552900  1
  H  H110  1  0.280600  0.793400  0.947100  1
  H  H111  1  0.219400  0.293400  0.552900  1
  H  H112  1  0.780600  0.293400  0.947100  1
  H  H113  1  0.340400  0.211000  0.464600  1
  H  H114  1  0.659600  0.211000  0.035400  1
  H  H115  1  0.840400  0.711000  0.464600  1
  H  H116  1  0.159600  0.711000  0.035400  1
  H  H117  1  0.659600  0.789000  0.535400  1
  H  H118  1  0.340400  0.789000  0.964600  1
  H  H119  1  0.159600  0.289000  0.535400  1
  H  H120  1  0.840400  0.289000  0.964600  1
  H  H121  1  0.306300  0.190200  0.483000  1
  H  H122  1  0.693700  0.190200  0.017000  1
  H  H123  1  0.806300  0.690200  0.483000  1
  H  H124  1  0.193700  0.690200  0.017000  1
  H  H125  1  0.693700  0.809800  0.517000  1
  H  H126  1  0.306300  0.809800  0.983000  1
  H  H127  1  0.193700  0.309800  0.517000  1
  H  H128  1  0.806300  0.309800  0.983000  1
  H  H129  1  0.276200  0.292600  0.516600  1
  H  H130  1  0.723800  0.292600  0.983400  1
  H  H131  1  0.776200  0.792600  0.516600  1
  H  H132  1  0.223800  0.792600  0.983400  1
  H  H133  1  0.723800  0.707400  0.483400  1
  H  H134  1  0.276200  0.707400  0.016600  1
  H  H135  1  0.223800  0.207400  0.483400  1
  H  H136  1  0.776200  0.207400  0.016600  1
  H  H137  1  0.331700  0.305300  0.537700  1
  H  H138  1  0.668300  0.305300  0.962300  1
  H  H139  1  0.831700  0.805300  0.537700  1
  H  H140  1  0.168300  0.805300  0.962300  1
  H  H141  1  0.668300  0.694700  0.462300  1
  H  H142  1  0.331700  0.694700  0.037700  1
  H  H143  1  0.168300  0.194700  0.462300  1
  H  H144  1  0.831700  0.194700  0.037700  1
  H  H145  1  0.316100  0.304900  0.497900  1
  H  H146  1  0.683900  0.304900  0.002100  1
  H  H147  1  0.816100  0.804900  0.497900  1
  H  H148  1  0.183900  0.804900  0.002100  1
  H  H149  1  0.683900  0.695100  0.502100  1
  H  H150  1  0.316100  0.695100  0.997900  1
  H  H151  1  0.183900  0.195100  0.502100  1
  H  H152  1  0.816100  0.195100  0.997900  1
  H  H153  1  0.783700  0.160800  0.649500  1
  H  H154  1  0.216300  0.160800  0.850500  1
  H  H155  1  0.283700  0.660800  0.649500  1
  H  H156  1  0.716300  0.660800  0.850500  1
  H  H157  1  0.216300  0.839200  0.350500  1
  H  H158  1  0.783700  0.839200  0.149500  1
  H  H159  1  0.716300  0.339200  0.350500  1
  H  H160  1  0.283700  0.339200  0.149500  1
  H  H161  1  0.737300  0.151000  0.663500  1
  H  H162  1  0.262700  0.151000  0.836500  1
  H  H163  1  0.237300  0.651000  0.663500  1
  H  H164  1  0.762700  0.651000  0.836500  1
  H  H165  1  0.262700  0.849000  0.336500  1
  H  H166  1  0.737300  0.849000  0.163500  1
  H  H167  1  0.762700  0.349000  0.336500  1
  H  H168  1  0.237300  0.349000  0.163500  1
  H  H169  1  0.162500  0.396100  0.235700  1
  H  H170  1  0.837500  0.396100  0.264300  1
  H  H171  1  0.662500  0.896100  0.235700  1
  H  H172  1  0.337500  0.896100  0.264300  1
  H  H173  1  0.837500  0.603900  0.764300  1
  H  H174  1  0.162500  0.603900  0.735700  1
  H  H175  1  0.337500  0.103900  0.764300  1
  H  H176  1  0.662500  0.103900  0.735700  1
  H  H177  1  0.207500  0.411200  0.222800  1
  H  H178  1  0.792500  0.411200  0.277200  1
  H  H179  1  0.707500  0.911200  0.222800  1
  H  H180  1  0.292500  0.911200  0.277200  1
  H  H181  1  0.792500  0.588800  0.777200  1
  H  H182  1  0.207500  0.588800  0.722800  1
  H  H183  1  0.292500  0.088800  0.777200  1
  H  H184  1  0.707500  0.088800  0.722800  1
  H  H185  1  0.975200  0.899000  0.291000  1
  H  H186  1  0.024800  0.899000  0.209000  1
  H  H187  1  0.475200  0.399000  0.291000  1
  H  H188  1  0.524800  0.399000  0.209000  1
  H  H189  1  0.024800  0.101000  0.709000  1
  H  H190  1  0.975200  0.101000  0.791000  1
  H  H191  1  0.524800  0.601000  0.709000  1
  H  H192  1  0.475200  0.601000  0.791000  1
  H  H193  1  0.930300  0.922700  0.295500  1
  H  H194  1  0.069700  0.922700  0.204500  1
  H  H195  1  0.430300  0.422700  0.295500  1
  H  H196  1  0.569700  0.422700  0.204500  1
  H  H197  1  0.069700  0.077300  0.704500  1
  H  H198  1  0.930300  0.077300  0.795500  1
  H  H199  1  0.569700  0.577300  0.704500  1
  H  H200  1  0.430300  0.577300  0.795500  1
  H  H201  1  0.302200  0.334200  0.509200  1
  H  H202  1  0.697800  0.334200  0.990800  1
  H  H203  1  0.802200  0.834200  0.509200  1
  H  H204  1  0.197800  0.834200  0.990800  1
  H  H205  1  0.697800  0.665800  0.490800  1
  H  H206  1  0.302200  0.665800  0.009200  1
  H  H207  1  0.197800  0.165800  0.490800  1
  H  H208  1  0.802200  0.165800  0.009200  1
  H  H209  1  0.350500  0.316900  0.501800  1
  H  H210  1  0.649500  0.316900  0.998200  1
  H  H211  1  0.850500  0.816900  0.501800  1
  H  H212  1  0.149500  0.816900  0.998200  1
  H  H213  1  0.649500  0.683100  0.498200  1
  H  H214  1  0.350500  0.683100  0.001800  1
  H  H215  1  0.149500  0.183100  0.498200  1
  H  H216  1  0.850500  0.183100  0.001800  1
  H  H217  1  0.294100  0.306300  0.480200  1
  H  H218  1  0.705900  0.306300  0.019800  1
  H  H219  1  0.794100  0.806300  0.480200  1
  H  H220  1  0.205900  0.806300  0.019800  1
  H  H221  1  0.705900  0.693700  0.519800  1
  H  H222  1  0.294100  0.693700  0.980200  1
  H  H223  1  0.205900  0.193700  0.519800  1
  H  H224  1  0.794100  0.193700  0.980200  1
  H  H225  1  0.290100  0.228000  0.553400  1
  H  H226  1  0.709900  0.228000  0.946600  1
  H  H227  1  0.790100  0.728000  0.553400  1
  H  H228  1  0.209900  0.728000  0.946600  1
  H  H229  1  0.709900  0.772000  0.446600  1
  H  H230  1  0.290100  0.772000  0.053400  1
  H  H231  1  0.209900  0.272000  0.446600  1
  H  H232  1  0.790100  0.272000  0.053400  1
  H  H233  1  0.337600  0.203800  0.554900  1
  H  H234  1  0.662400  0.203800  0.945100  1
  H  H235  1  0.837600  0.703800  0.554900  1
  H  H236  1  0.162400  0.703800  0.945100  1
  H  H237  1  0.662400  0.796200  0.445100  1
  H  H238  1  0.337600  0.796200  0.054900  1
  H  H239  1  0.162400  0.296200  0.445100  1
  H  H240  1  0.837600  0.296200  0.054900  1
  H  H241  1  0.346100  0.238900  0.575300  1
  H  H242  1  0.653900  0.238900  0.924700  1
  H  H243  1  0.846100  0.738900  0.575300  1
  H  H244  1  0.153900  0.738900  0.924700  1
  H  H245  1  0.653900  0.761100  0.424700  1
  H  H246  1  0.346100  0.761100  0.075300  1
  H  H247  1  0.153900  0.261100  0.424700  1
  H  H248  1  0.846100  0.261100  0.075300  1
  H  H249  1  0.262600  0.227600  0.479900  1
  H  H250  1  0.737400  0.227600  0.020100  1
  H  H251  1  0.762600  0.727600  0.479900  1
  H  H252  1  0.237400  0.727600  0.020100  1
  H  H253  1  0.737400  0.772400  0.520100  1
  H  H254  1  0.262600  0.772400  0.979900  1
  H  H255  1  0.237400  0.272400  0.520100  1
  H  H256  1  0.762600  0.272400  0.979900  1
  H  H257  1  0.303000  0.238900  0.461200  1
  H  H258  1  0.697000  0.238900  0.038800  1
  H  H259  1  0.803000  0.738900  0.461200  1
  H  H260  1  0.197000  0.738900  0.038800  1
  H  H261  1  0.697000  0.761100  0.538800  1
  H  H262  1  0.303000  0.761100  0.961200  1
  H  H263  1  0.197000  0.261100  0.538800  1
  H  H264  1  0.803000  0.261100  0.961200  1
  H  H265  1  0.310500  0.203800  0.481500  1
  H  H266  1  0.689500  0.203800  0.018500  1
  H  H267  1  0.810500  0.703800  0.481500  1
  H  H268  1  0.189500  0.703800  0.018500  1
  H  H269  1  0.689500  0.796200  0.518500  1
  H  H270  1  0.310500  0.796200  0.981500  1
  H  H271  1  0.189500  0.296200  0.518500  1
  H  H272  1  0.810500  0.296200  0.981500  1
  H  H273  1  0.655100  0.349100  0.628400  1.0
  H  H274  1  0.344900  0.349100  0.871600  1.0
  H  H275  1  0.155100  0.849100  0.628400  1.0
  H  H276  1  0.844900  0.849100  0.871600  1.0
  H  H277  1  0.344900  0.650900  0.371600  1.0
  H  H278  1  0.655100  0.650900  0.128400  1.0
  H  H279  1  0.844900  0.150900  0.371600  1.0
  H  H280  1  0.155100  0.150900  0.128400  1.0
  H  H281  1  0.728200  0.353600  0.557600  1.0
  H  H282  1  0.271800  0.353600  0.942400  1.0
  H  H283  1  0.228200  0.853600  0.557600  1.0
  H  H284  1  0.771800  0.853600  0.942400  1.0
  H  H285  1  0.271800  0.646400  0.442400  1.0
  H  H286  1  0.728200  0.646400  0.057600  1.0
  H  H287  1  0.771800  0.146400  0.442400  1.0
  H  H288  1  0.228200  0.146400  0.057600  1.0
  H  H289  1  0.677700  0.308800  0.528800  1.0
  H  H290  1  0.322300  0.308800  0.971200  1.0
  H  H291  1  0.177700  0.808800  0.528800  1.0
  H  H292  1  0.822300  0.808800  0.971200  1.0
  H  H293  1  0.322300  0.691200  0.471200  1.0
  H  H294  1  0.677700  0.691200  0.028800  1.0
  H  H295  1  0.822300  0.191200  0.471200  1.0
  H  H296  1  0.177700  0.191200  0.028800  1.0
  H  H297  1  0.702800  0.405200  0.614100  1.0
  H  H298  1  0.297200  0.405200  0.885900  1.0
  H  H299  1  0.202800  0.905200  0.614100  1.0
  H  H300  1  0.797200  0.905200  0.885900  1.0
  H  H301  1  0.297200  0.594800  0.385900  1.0
  H  H302  1  0.702800  0.594800  0.114100  1.0
  H  H303  1  0.797200  0.094800  0.385900  1.0
  H  H304  1  0.202800  0.094800  0.114100  1.0
  H  H305  1  0.735700  0.378500  0.640600  1.0
  H  H306  1  0.264300  0.378500  0.859400  1.0
  H  H307  1  0.235700  0.878500  0.640600  1.0
  H  H308  1  0.764300  0.878500  0.859400  1.0
  H  H309  1  0.264300  0.621500  0.359400  1.0
  H  H310  1  0.735700  0.621500  0.140600  1.0
  H  H311  1  0.764300  0.121500  0.359400  1.0
  H  H312  1  0.235700  0.121500  0.140600  1.0
  H  H313  1  0.585100  0.321000  0.645200  1.0
  H  H314  1  0.414900  0.321000  0.854800  1.0
  H  H315  1  0.085100  0.821000  0.645200  1.0
  H  H316  1  0.914900  0.821000  0.854800  1.0
  H  H317  1  0.414900  0.679000  0.354800  1.0
  H  H318  1  0.585100  0.679000  0.145200  1.0
  H  H319  1  0.914900  0.179000  0.354800  1.0
  H  H320  1  0.085100  0.179000  0.145200  1.0
  H  H321  1  0.511400  0.280200  0.639500  1.0
  H  H322  1  0.488600  0.280200  0.860500  1.0
  H  H323  1  0.011400  0.780200  0.639500  1.0
  H  H324  1  0.988600  0.780200  0.860500  1.0
  H  H325  1  0.488600  0.719800  0.360500  1.0
  H  H326  1  0.511400  0.719800  0.139500  1.0
  H  H327  1  0.988600  0.219800  0.360500  1.0
  H  H328  1  0.011400  0.219800  0.139500  1.0
  H  H329  1  0.485100  0.234100  0.558700  1.0
  H  H330  1  0.514900  0.234100  0.941300  1.0
  H  H331  1  0.985100  0.734100  0.558700  1.0
  H  H332  1  0.014900  0.734100  0.941300  1.0
  H  H333  1  0.514900  0.765900  0.441300  1.0
  H  H334  1  0.485100  0.765900  0.058700  1.0
  H  H335  1  0.014900  0.265900  0.441300  1.0
  H  H336  1  0.985100  0.265900  0.058700  1.0
  H  H337  1  0.461400  0.237900  0.589000  1.0
  H  H338  1  0.538600  0.237900  0.911000  1.0
  H  H339  1  0.961400  0.737900  0.589000  1.0
  H  H340  1  0.038600  0.737900  0.911000  1.0
  H  H341  1  0.538600  0.762100  0.411000  1.0
  H  H342  1  0.461400  0.762100  0.089000  1.0
  H  H343  1  0.038600  0.262100  0.411000  1.0
  H  H344  1  0.961400  0.262100  0.089000  1.0
  H  H345  1  0.349500  0.966200  0.518300  1.0
  H  H346  1  0.650500  0.966200  0.981700  1.0
  H  H347  1  0.849500  0.466200  0.518300  1.0
  H  H348  1  0.150500  0.466200  0.981700  1.0
  H  H349  1  0.650500  0.033800  0.481700  1.0
  H  H350  1  0.349500  0.033800  0.018300  1.0
  H  H351  1  0.150500  0.533800  0.481700  1.0
  H  H352  1  0.849500  0.533800  0.018300  1.0
  H  H353  1  0.254500  0.949300  0.574300  1.0
  H  H354  1  0.745500  0.949300  0.925700  1.0
  H  H355  1  0.754500  0.449300  0.574300  1.0
  H  H356  1  0.245500  0.449300  0.925700  1.0
  H  H357  1  0.745500  0.050700  0.425700  1.0
  H  H358  1  0.254500  0.050700  0.074300  1.0
  H  H359  1  0.245500  0.550700  0.425700  1.0
  H  H360  1  0.754500  0.550700  0.074300  1.0
  H  H361  1  0.301400  0.987700  0.614400  1.0
  H  H362  1  0.698600  0.987700  0.885600  1.0
  H  H363  1  0.801400  0.487700  0.614400  1.0
  H  H364  1  0.198600  0.487700  0.885600  1.0
  H  H365  1  0.698600  0.012300  0.385600  1.0
  H  H366  1  0.301400  0.012300  0.114400  1.0
  H  H367  1  0.198600  0.512300  0.385600  1.0
  H  H368  1  0.801400  0.512300  0.114400  1.0
  H  H369  1  0.249300  0.941000  0.495900  1.0
  H  H370  1  0.750700  0.941000  0.004100  1.0
  H  H371  1  0.749300  0.441000  0.495900  1.0
  H  H372  1  0.250700  0.441000  0.004100  1.0
  H  H373  1  0.750700  0.059000  0.504100  1.0
  H  H374  1  0.249300  0.059000  0.995900  1.0
  H  H375  1  0.250700  0.559000  0.504100  1.0
  H  H376  1  0.749300  0.559000  0.995900  1.0
  H  H377  1  0.293700  0.913600  0.509800  1.0
  H  H378  1  0.706300  0.913600  0.990200  1.0
  H  H379  1  0.793700  0.413600  0.509800  1.0
  H  H380  1  0.206300  0.413600  0.990200  1.0
  H  H381  1  0.706300  0.086400  0.490200  1.0
  H  H382  1  0.293700  0.086400  0.009800  1.0
  H  H383  1  0.206300  0.586400  0.490200  1.0
  H  H384  1  0.793700  0.586400  0.009800  1.0
  H  H385  1  0.506000  0.033500  0.535400  1.0
  H  H386  1  0.494000  0.033500  0.964600  1.0
  H  H387  1  0.006000  0.533500  0.535400  1.0
  H  H388  1  0.994000  0.533500  0.964600  1.0
  H  H389  1  0.494000  0.966500  0.464600  1.0
  H  H390  1  0.506000  0.966500  0.035400  1.0
  H  H391  1  0.994000  0.466500  0.464600  1.0
  H  H392  1  0.006000  0.466500  0.035400  1.0
  H  H393  1  0.430100  0.993700  0.515900  1.0
  H  H394  1  0.569900  0.993700  0.984100  1.0
  H  H395  1  0.930100  0.493700  0.515900  1.0
  H  H396  1  0.069900  0.493700  0.984100  1.0
  H  H397  1  0.569900  0.006300  0.484100  1.0
  H  H398  1  0.430100  0.006300  0.015900  1.0
  H  H399  1  0.069900  0.506300  0.484100  1.0
  H  H400  1  0.930100  0.506300  0.015900  1.0
  H  H401  1  0.541400  0.070800  0.589800  1.0
  H  H402  1  0.458600  0.070800  0.910200  1.0
  H  H403  1  0.041400  0.570800  0.589800  1.0
  H  H404  1  0.958600  0.570800  0.910200  1.0
  H  H405  1  0.458600  0.929200  0.410200  1.0
  H  H406  1  0.541400  0.929200  0.089800  1.0
  H  H407  1  0.958600  0.429200  0.410200  1.0
  H  H408  1  0.041400  0.429200  0.089800  1.0
  H  H409  1  0.510300  0.070500  0.616500  1.0
  H  H410  1  0.489700  0.070500  0.883500  1.0
  H  H411  1  0.010300  0.570500  0.616500  1.0
  H  H412  1  0.989700  0.570500  0.883500  1.0
  H  H413  1  0.489700  0.929500  0.383500  1.0
  H  H414  1  0.510300  0.929500  0.116500  1.0
  H  H415  1  0.989700  0.429500  0.383500  1.0
  H  H416  1  0.010300  0.429500  0.116500  1.0
  H  H417  1  0.579100  0.217800  0.631600  1.0
  H  H418  1  0.420900  0.217800  0.868400  1.0
  H  H419  1  0.079100  0.717800  0.631600  1.0
  H  H420  1  0.920900  0.717800  0.868400  1.0
  H  H421  1  0.420900  0.782200  0.368400  1.0
  H  H422  1  0.579100  0.782200  0.131600  1.0
  H  H423  1  0.920900  0.282200  0.368400  1.0
  H  H424  1  0.079100  0.282200  0.131600  1.0
  H  H425  1  0.613500  0.164400  0.650700  1.0
  H  H426  1  0.386500  0.164400  0.849300  1.0
  H  H427  1  0.113500  0.664400  0.650700  1.0
  H  H428  1  0.886500  0.664400  0.849300  1.0
  H  H429  1  0.386500  0.835600  0.349300  1.0
  H  H430  1  0.613500  0.835600  0.150700  1.0
  H  H431  1  0.886500  0.335600  0.349300  1.0
  H  H432  1  0.113500  0.335600  0.150700  1.0
  H  H433  1  0.570700  0.114600  0.627400  1.0
  H  H434  1  0.429300  0.114600  0.872600  1.0
  H  H435  1  0.070700  0.614600  0.627400  1.0
  H  H436  1  0.929300  0.614600  0.872600  1.0
  H  H437  1  0.429300  0.885400  0.372600  1.0
  H  H438  1  0.570700  0.885400  0.127400  1.0
  H  H439  1  0.929300  0.385400  0.372600  1.0
  H  H440  1  0.070700  0.385400  0.127400  1.0
  H  H441  1  0.430400  0.194000  0.550000  1.0
  H  H442  1  0.569600  0.194000  0.950000  1.0
  H  H443  1  0.930400  0.694000  0.550000  1.0
  H  H444  1  0.069600  0.694000  0.950000  1.0
  H  H445  1  0.569600  0.806000  0.450000  1.0
  H  H446  1  0.430400  0.806000  0.050000  1.0
  H  H447  1  0.069600  0.306000  0.450000  1.0
  H  H448  1  0.930400  0.306000  0.050000  1.0
  H  H449  1  0.387600  0.144200  0.526700  1.0
  H  H450  1  0.612400  0.144200  0.973300  1.0
  H  H451  1  0.887600  0.644200  0.526700  1.0
  H  H452  1  0.112400  0.644200  0.973300  1.0
  H  H453  1  0.612400  0.855800  0.473300  1.0
  H  H454  1  0.387600  0.855800  0.026700  1.0
  H  H455  1  0.112400  0.355800  0.473300  1.0
  H  H456  1  0.887600  0.355800  0.026700  1.0
  H  H457  1  0.422100  0.090800  0.545900  1.0
  H  H458  1  0.577900  0.090800  0.954100  1.0
  H  H459  1  0.922100  0.590800  0.545900  1.0
  H  H460  1  0.077900  0.590800  0.954100  1.0
  H  H461  1  0.577900  0.909200  0.454100  1.0
  H  H462  1  0.422100  0.909200  0.045900  1.0
  H  H463  1  0.077900  0.409200  0.454100  1.0
  H  H464  1  0.922100  0.409200  0.045900  1.0
  H  H465  1  0.666200  0.143100  0.591000  1.0
  H  H466  1  0.333800  0.143100  0.909000  1.0
  H  H467  1  0.166200  0.643100  0.591000  1.0
  H  H468  1  0.833800  0.643100  0.909000  1.0
  H  H469  1  0.333800  0.856900  0.409000  1.0
  H  H470  1  0.666200  0.856900  0.091000  1.0
  H  H471  1  0.833800  0.356900  0.409000  1.0
  H  H472  1  0.166200  0.356900  0.091000  1.0
  H  H473  1  0.751000  0.221700  0.640700  1.0
  H  H474  1  0.249000  0.221700  0.859300  1.0
  H  H475  1  0.251000  0.721700  0.640700  1.0
  H  H476  1  0.749000  0.721700  0.859300  1.0
  H  H477  1  0.249000  0.778300  0.359300  1.0
  H  H478  1  0.751000  0.778300  0.140700  1.0
  H  H479  1  0.749000  0.278300  0.359300  1.0
  H  H480  1  0.251000  0.278300  0.140700  1.0
  H  H481  1  0.695500  0.260400  0.605600  1.0
  H  H482  1  0.304500  0.260400  0.894400  1.0
  H  H483  1  0.195500  0.760400  0.605600  1.0
  H  H484  1  0.804500  0.760400  0.894400  1.0
  H  H485  1  0.304500  0.739600  0.394400  1.0
  H  H486  1  0.695500  0.739600  0.105600  1.0
  H  H487  1  0.804500  0.239600  0.394400  1.0
  H  H488  1  0.195500  0.239600  0.105600  1.0
  H  H489  1  0.728000  0.141100  0.656000  1.0
  H  H490  1  0.272000  0.141100  0.844000  1.0
  H  H491  1  0.228000  0.641100  0.656000  1.0
  H  H492  1  0.772000  0.641100  0.844000  1.0
  H  H493  1  0.272000  0.858900  0.344000  1.0
  H  H494  1  0.728000  0.858900  0.156000  1.0
  H  H495  1  0.772000  0.358900  0.344000  1.0
  H  H496  1  0.228000  0.358900  0.156000  1.0
  H  H497  1  0.759500  0.135100  0.629800  1.0
  H  H498  1  0.240500  0.135100  0.870200  1.0
  H  H499  1  0.259500  0.635100  0.629800  1.0
  H  H500  1  0.740500  0.635100  0.870200  1.0
  H  H501  1  0.240500  0.864900  0.370200  1.0
  H  H502  1  0.759500  0.864900  0.129800  1.0
  H  H503  1  0.740500  0.364900  0.370200  1.0
  H  H504  1  0.259500  0.364900  0.129800  1.0
  H  H505  1  0.587600  0.126900  0.544100  1.0
  H  H506  1  0.412400  0.126900  0.955900  1.0
  H  H507  1  0.087600  0.626900  0.544100  1.0
  H  H508  1  0.912400  0.626900  0.955900  1.0
  H  H509  1  0.412400  0.873100  0.455900  1.0
  H  H510  1  0.587600  0.873100  0.044100  1.0
  H  H511  1  0.912400  0.373100  0.455900  1.0
  H  H512  1  0.087600  0.373100  0.044100  1.0
  H  H513  1  0.501900  0.138000  0.501700  1.0
  H  H514  1  0.498100  0.138000  0.998300  1.0
  H  H515  1  0.001900  0.638000  0.501700  1.0
  H  H516  1  0.998100  0.638000  0.998300  1.0
  H  H517  1  0.498100  0.862000  0.498300  1.0
  H  H518  1  0.501900  0.862000  0.001700  1.0
  H  H519  1  0.998100  0.362000  0.498300  1.0
  H  H520  1  0.001900  0.362000  0.001700  1.0
  H  H521  1  0.476500  0.231500  0.500600  1.0
  H  H522  1  0.523500  0.231500  0.999400  1.0
  H  H523  1  0.976500  0.731500  0.500600  1.0
  H  H524  1  0.023500  0.731500  0.999400  1.0
  H  H525  1  0.523500  0.768500  0.499400  1.0
  H  H526  1  0.476500  0.768500  0.000600  1.0
  H  H527  1  0.023500  0.268500  0.499400  1.0
  H  H528  1  0.976500  0.268500  0.000600  1.0
  H  H529  1  0.447100  0.197300  0.485500  1.0
  H  H530  1  0.552900  0.197300  0.014500  1.0
  H  H531  1  0.947100  0.697300  0.485500  1.0
  H  H532  1  0.052900  0.697300  0.014500  1.0
  H  H533  1  0.552900  0.802700  0.514500  1.0
  H  H534  1  0.447100  0.802700  0.985500  1.0
  H  H535  1  0.052900  0.302700  0.514500  1.0
  H  H536  1  0.947100  0.302700  0.985500  1.0
  H  H537  1  0.273800  0.384300  0.268600  1.0
  H  H538  1  0.726200  0.384300  0.231400  1.0
  H  H539  1  0.773800  0.884300  0.268600  1.0
  H  H540  1  0.226200  0.884300  0.231400  1.0
  H  H541  1  0.726200  0.615700  0.731400  1.0
  H  H542  1  0.273800  0.615700  0.768600  1.0
  H  H543  1  0.226200  0.115700  0.731400  1.0
  H  H544  1  0.773800  0.115700  0.768600  1.0
  H  H545  1  0.167800  0.325700  0.204100  1.0
  H  H546  1  0.832200  0.325700  0.295900  1.0
  H  H547  1  0.667800  0.825700  0.204100  1.0
  H  H548  1  0.332200  0.825700  0.295900  1.0
  H  H549  1  0.832200  0.674300  0.795900  1.0
  H  H550  1  0.167800  0.674300  0.704100  1.0
  H  H551  1  0.332200  0.174300  0.795900  1.0
  H  H552  1  0.667800  0.174300  0.704100  1.0
  H  H553  1  0.214200  0.276700  0.226200  1.0
  H  H554  1  0.785800  0.276700  0.273800  1.0
  H  H555  1  0.714200  0.776700  0.226200  1.0
  H  H556  1  0.285800  0.776700  0.273800  1.0
  H  H557  1  0.785800  0.723300  0.773800  1.0
  H  H558  1  0.214200  0.723300  0.726200  1.0
  H  H559  1  0.285800  0.223300  0.773800  1.0
  H  H560  1  0.714200  0.223300  0.726200  1.0
  H  H561  1  0.179200  0.404000  0.240400  1.0
  H  H562  1  0.820800  0.404000  0.259600  1.0
  H  H563  1  0.679200  0.904000  0.240400  1.0
  H  H564  1  0.320800  0.904000  0.259600  1.0
  H  H565  1  0.820800  0.596000  0.759600  1.0
  H  H566  1  0.179200  0.596000  0.740400  1.0
  H  H567  1  0.320800  0.096000  0.759600  1.0
  H  H568  1  0.679200  0.096000  0.740400  1.0
  H  H569  1  0.203600  0.406400  0.210300  1.0
  H  H570  1  0.796400  0.406400  0.289700  1.0
  H  H571  1  0.703600  0.906400  0.210300  1.0
  H  H572  1  0.296400  0.906400  0.289700  1.0
  H  H573  1  0.796400  0.593600  0.789700  1.0
  H  H574  1  0.203600  0.593600  0.710300  1.0
  H  H575  1  0.296400  0.093600  0.789700  1.0
  H  H576  1  0.703600  0.093600  0.710300  1.0
  H  H577  1  0.442300  0.358000  0.347500  1.0
  H  H578  1  0.557700  0.358000  0.152500  1.0
  H  H579  1  0.942300  0.858000  0.347500  1.0
  H  H580  1  0.057700  0.858000  0.152500  1.0
  H  H581  1  0.557700  0.642000  0.652500  1.0
  H  H582  1  0.442300  0.642000  0.847500  1.0
  H  H583  1  0.057700  0.142000  0.652500  1.0
  H  H584  1  0.942300  0.142000  0.847500  1.0
  H  H585  1  0.362100  0.384600  0.309300  1.0
  H  H586  1  0.637900  0.384600  0.190700  1.0
  H  H587  1  0.862100  0.884600  0.309300  1.0
  H  H588  1  0.137900  0.884600  0.190700  1.0
  H  H589  1  0.637900  0.615400  0.690700  1.0
  H  H590  1  0.362100  0.615400  0.809300  1.0
  H  H591  1  0.137900  0.115400  0.690700  1.0
  H  H592  1  0.862100  0.115400  0.809300  1.0
  H  H593  1  0.475700  0.293600  0.354700  1.0
  H  H594  1  0.524300  0.293600  0.145300  1.0
  H  H595  1  0.975700  0.793600  0.354700  1.0
  H  H596  1  0.024300  0.793600  0.145300  1.0
  H  H597  1  0.524300  0.706400  0.645300  1.0
  H  H598  1  0.475700  0.706400  0.854700  1.0
  H  H599  1  0.024300  0.206400  0.645300  1.0
  H  H600  1  0.975700  0.206400  0.854700  1.0
  H  H601  1  0.437000  0.264600  0.336100  1.0
  H  H602  1  0.563000  0.264600  0.163900  1.0
  H  H603  1  0.937000  0.764600  0.336100  1.0
  H  H604  1  0.063000  0.764600  0.163900  1.0
  H  H605  1  0.563000  0.735400  0.663900  1.0
  H  H606  1  0.437000  0.735400  0.836100  1.0
  H  H607  1  0.063000  0.235400  0.663900  1.0
  H  H608  1  0.937000  0.235400  0.836100  1.0
  H  H609  1  0.546100  0.186500  0.459100  1.0
  H  H610  1  0.453900  0.186500  0.040900  1.0
  H  H611  1  0.046100  0.686500  0.459100  1.0
  H  H612  1  0.953900  0.686500  0.040900  1.0
  H  H613  1  0.453900  0.813500  0.540900  1.0
  H  H614  1  0.546100  0.813500  0.959100  1.0
  H  H615  1  0.953900  0.313500  0.540900  1.0
  H  H616  1  0.046100  0.313500  0.959100  1.0
  H  H617  1  0.559200  0.200400  0.408100  1.0
  H  H618  1  0.440800  0.200400  0.091900  1.0
  H  H619  1  0.059200  0.700400  0.408100  1.0
  H  H620  1  0.940800  0.700400  0.091900  1.0
  H  H621  1  0.440800  0.799600  0.591900  1.0
  H  H622  1  0.559200  0.799600  0.908100  1.0
  H  H623  1  0.940800  0.299600  0.591900  1.0
  H  H624  1  0.059200  0.299600  0.908100  1.0
  H  H625  1  0.507100  0.240800  0.373200  1.0
  H  H626  1  0.492900  0.240800  0.126800  1.0
  H  H627  1  0.007100  0.740800  0.373200  1.0
  H  H628  1  0.992900  0.740800  0.126800  1.0
  H  H629  1  0.492900  0.759200  0.626800  1.0
  H  H630  1  0.507100  0.759200  0.873200  1.0
  H  H631  1  0.992900  0.259200  0.626800  1.0
  H  H632  1  0.007100  0.259200  0.873200  1.0
  H  H633  1  0.411200  0.252800  0.464200  1.0
  H  H634  1  0.588800  0.252800  0.035800  1.0
  H  H635  1  0.911200  0.752800  0.464200  1.0
  H  H636  1  0.088800  0.752800  0.035800  1.0
  H  H637  1  0.588800  0.747200  0.535800  1.0
  H  H638  1  0.411200  0.747200  0.964200  1.0
  H  H639  1  0.088800  0.247200  0.535800  1.0
  H  H640  1  0.911200  0.247200  0.964200  1.0
  H  H641  1  0.359000  0.293300  0.429300  1.0
  H  H642  1  0.641000  0.293300  0.070700  1.0
  H  H643  1  0.859000  0.793300  0.429300  1.0
  H  H644  1  0.141000  0.793300  0.070700  1.0
  H  H645  1  0.641000  0.706700  0.570700  1.0
  H  H646  1  0.359000  0.706700  0.929300  1.0
  H  H647  1  0.141000  0.206700  0.570700  1.0
  H  H648  1  0.859000  0.206700  0.929300  1.0
  H  H649  1  0.372100  0.307200  0.378300  1.0
  H  H650  1  0.627900  0.307200  0.121700  1.0
  H  H651  1  0.872100  0.807200  0.378300  1.0
  H  H652  1  0.127900  0.807200  0.121700  1.0
  H  H653  1  0.627900  0.692800  0.621700  1.0
  H  H654  1  0.372100  0.692800  0.878300  1.0
  H  H655  1  0.127900  0.192800  0.621700  1.0
  H  H656  1  0.872100  0.192800  0.878300  1.0
  H  H657  1  0.620700  0.278900  0.428300  1.0
  H  H658  1  0.379300  0.278900  0.071700  1.0
  H  H659  1  0.120700  0.778900  0.428300  1.0
  H  H660  1  0.879300  0.778900  0.071700  1.0
  H  H661  1  0.379300  0.721100  0.571700  1.0
  H  H662  1  0.620700  0.721100  0.928300  1.0
  H  H663  1  0.879300  0.221100  0.571700  1.0
  H  H664  1  0.120700  0.221100  0.928300  1.0
  H  H665  1  0.724400  0.212000  0.483000  1.0
  H  H666  1  0.275600  0.212000  0.017000  1.0
  H  H667  1  0.224400  0.712000  0.483000  1.0
  H  H668  1  0.775600  0.712000  0.017000  1.0
  H  H669  1  0.275600  0.788000  0.517000  1.0
  H  H670  1  0.724400  0.788000  0.983000  1.0
  H  H671  1  0.775600  0.288000  0.517000  1.0
  H  H672  1  0.224400  0.288000  0.983000  1.0
  H  H673  1  0.686300  0.215400  0.525900  1.0
  H  H674  1  0.313700  0.215400  0.974100  1.0
  H  H675  1  0.186300  0.715400  0.525900  1.0
  H  H676  1  0.813700  0.715400  0.974100  1.0
  H  H677  1  0.313700  0.784600  0.474100  1.0
  H  H678  1  0.686300  0.784600  0.025900  1.0
  H  H679  1  0.813700  0.284600  0.474100  1.0
  H  H680  1  0.186300  0.284600  0.025900  1.0
  H  H681  1  0.733600  0.257000  0.430300  1.0
  H  H682  1  0.266400  0.257000  0.069700  1.0
  H  H683  1  0.233600  0.757000  0.430300  1.0
  H  H684  1  0.766400  0.757000  0.069700  1.0
  H  H685  1  0.266400  0.743000  0.569700  1.0
  H  H686  1  0.733600  0.743000  0.930300  1.0
  H  H687  1  0.766400  0.243000  0.569700  1.0
  H  H688  1  0.233600  0.243000  0.930300  1.0
  H  H689  1  0.716600  0.217900  0.425100  1.0
  H  H690  1  0.283400  0.217900  0.074900  1.0
  H  H691  1  0.216600  0.717900  0.425100  1.0
  H  H692  1  0.783400  0.717900  0.074900  1.0
  H  H693  1  0.283400  0.782100  0.574900  1.0
  H  H694  1  0.716600  0.782100  0.925100  1.0
  H  H695  1  0.783400  0.282100  0.574900  1.0
  H  H696  1  0.216600  0.282100  0.925100  1.0
  H  H697  1  0.475900  0.339900  0.450500  1.0
  H  H698  1  0.524100  0.339900  0.049500  1.0
  H  H699  1  0.975900  0.839900  0.450500  1.0
  H  H700  1  0.024100  0.839900  0.049500  1.0
  H  H701  1  0.524100  0.660100  0.549500  1.0
  H  H702  1  0.475900  0.660100  0.950500  1.0
  H  H703  1  0.024100  0.160100  0.549500  1.0
  H  H704  1  0.975900  0.160100  0.950500  1.0
  H  H705  1  0.545900  0.317000  0.428300  1.0
  H  H706  1  0.454100  0.317000  0.071700  1.0
  H  H707  1  0.045900  0.817000  0.428300  1.0
  H  H708  1  0.954100  0.817000  0.071700  1.0
  H  H709  1  0.454100  0.683000  0.571700  1.0
  H  H710  1  0.545900  0.683000  0.928300  1.0
  H  H711  1  0.954100  0.183000  0.571700  1.0
  H  H712  1  0.045900  0.183000  0.928300  1.0
  H  H713  1  0.477100  0.291600  0.526600  1.0
  H  H714  1  0.522900  0.291600  0.973400  1.0
  H  H715  1  0.977100  0.791600  0.526600  1.0
  H  H716  1  0.022900  0.791600  0.973400  1.0
  H  H717  1  0.522900  0.708400  0.473400  1.0
  H  H718  1  0.477100  0.708400  0.026600  1.0
  H  H719  1  0.022900  0.208400  0.473400  1.0
  H  H720  1  0.977100  0.208400  0.026600  1.0
  H  H721  1  0.442800  0.319000  0.501700  1.0
  H  H722  1  0.557200  0.319000  0.998300  1.0
  H  H723  1  0.942800  0.819000  0.501700  1.0
  H  H724  1  0.057200  0.819000  0.998300  1.0
  H  H725  1  0.557200  0.681000  0.498300  1.0
  H  H726  1  0.442800  0.681000  0.001700  1.0
  H  H727  1  0.057200  0.181000  0.498300  1.0
  H  H728  1  0.942800  0.181000  0.001700  1.0
  H  H729  1  0.351900  0.411100  0.734200  1.0
  H  H730  1  0.648100  0.411100  0.765800  1.0
  H  H731  1  0.851900  0.911100  0.734200  1.0
  H  H732  1  0.148100  0.911100  0.765800  1.0
  H  H733  1  0.648100  0.588900  0.265800  1.0
  H  H734  1  0.351900  0.588900  0.234200  1.0
  H  H735  1  0.148100  0.088900  0.265800  1.0
  H  H736  1  0.851900  0.088900  0.234200  1.0
  H  H737  1  0.252200  0.487700  0.697400  1.0
  H  H738  1  0.747800  0.487700  0.802600  1.0
  H  H739  1  0.752200  0.987700  0.697400  1.0
  H  H740  1  0.247800  0.987700  0.802600  1.0
  H  H741  1  0.747800  0.512300  0.302600  1.0
  H  H742  1  0.252200  0.512300  0.197400  1.0
  H  H743  1  0.247800  0.012300  0.302600  1.0
  H  H744  1  0.752200  0.012300  0.197400  1.0
  H  H745  1  0.289800  0.496600  0.654800  1.0
  H  H746  1  0.710200  0.496600  0.845200  1.0
  H  H747  1  0.789800  0.996600  0.654800  1.0
  H  H748  1  0.210200  0.996600  0.845200  1.0
  H  H749  1  0.710200  0.503400  0.345200  1.0
  H  H750  1  0.289800  0.503400  0.154800  1.0
  H  H751  1  0.210200  0.003400  0.345200  1.0
  H  H752  1  0.789800  0.003400  0.154800  1.0
  H  H753  1  0.263800  0.416300  0.746000  1.0
  H  H754  1  0.736200  0.416300  0.754000  1.0
  H  H755  1  0.763800  0.916300  0.746000  1.0
  H  H756  1  0.236200  0.916300  0.754000  1.0
  H  H757  1  0.736200  0.583700  0.254000  1.0
  H  H758  1  0.263800  0.583700  0.246000  1.0
  H  H759  1  0.236200  0.083700  0.254000  1.0
  H  H760  1  0.763800  0.083700  0.246000  1.0
  H  H761  1  0.300900  0.443400  0.769600  1.0
  H  H762  1  0.699100  0.443400  0.730400  1.0
  H  H763  1  0.800900  0.943400  0.769600  1.0
  H  H764  1  0.199100  0.943400  0.730400  1.0
  H  H765  1  0.699100  0.556600  0.230400  1.0
  H  H766  1  0.300900  0.556600  0.269600  1.0
  H  H767  1  0.199100  0.056600  0.230400  1.0
  H  H768  1  0.800900  0.056600  0.269600  1.0
  H  H769  1  0.504200  0.368500  0.705100  1.0
  H  H770  1  0.495800  0.368500  0.794900  1.0
  H  H771  1  0.004200  0.868500  0.705100  1.0
  H  H772  1  0.995800  0.868500  0.794900  1.0
  H  H773  1  0.495800  0.631500  0.294900  1.0
  H  H774  1  0.504200  0.631500  0.205100  1.0
  H  H775  1  0.995800  0.131500  0.294900  1.0
  H  H776  1  0.004200  0.131500  0.205100  1.0
  H  H777  1  0.434300  0.382200  0.731300  1.0
  H  H778  1  0.565700  0.382200  0.768700  1.0
  H  H779  1  0.934300  0.882200  0.731300  1.0
  H  H780  1  0.065700  0.882200  0.768700  1.0
  H  H781  1  0.565700  0.617800  0.268700  1.0
  H  H782  1  0.434300  0.617800  0.231300  1.0
  H  H783  1  0.065700  0.117800  0.268700  1.0
  H  H784  1  0.934300  0.117800  0.231300  1.0
  H  H785  1  0.528700  0.398100  0.652400  1.0
  H  H786  1  0.471300  0.398100  0.847600  1.0
  H  H787  1  0.028700  0.898100  0.652400  1.0
  H  H788  1  0.971300  0.898100  0.847600  1.0
  H  H789  1  0.471300  0.601900  0.347600  1.0
  H  H790  1  0.528700  0.601900  0.152400  1.0
  H  H791  1  0.971300  0.101900  0.347600  1.0
  H  H792  1  0.028700  0.101900  0.152400  1.0
  H  H793  1  0.487500  0.423500  0.629900  1.0
  H  H794  1  0.512500  0.423500  0.870100  1.0
  H  H795  1  0.987500  0.923500  0.629900  1.0
  H  H796  1  0.012500  0.923500  0.870100  1.0
  H  H797  1  0.512500  0.576500  0.370100  1.0
  H  H798  1  0.487500  0.576500  0.129900  1.0
  H  H799  1  0.012500  0.076500  0.370100  1.0
  H  H800  1  0.987500  0.076500  0.129900  1.0
  H  H801  1  0.552200  0.358600  0.520300  1.0
  H  H802  1  0.447800  0.358600  0.979700  1.0
  H  H803  1  0.052200  0.858600  0.520300  1.0
  H  H804  1  0.947800  0.858600  0.979700  1.0
  H  H805  1  0.447800  0.641400  0.479700  1.0
  H  H806  1  0.552200  0.641400  0.020300  1.0
  H  H807  1  0.947800  0.141400  0.479700  1.0
  H  H808  1  0.052200  0.141400  0.020300  1.0
  H  H809  1  0.584500  0.400600  0.560700  1.0
  H  H810  1  0.415500  0.400600  0.939300  1.0
  H  H811  1  0.084500  0.900600  0.560700  1.0
  H  H812  1  0.915500  0.900600  0.939300  1.0
  H  H813  1  0.415500  0.599400  0.439300  1.0
  H  H814  1  0.584500  0.599400  0.060700  1.0
  H  H815  1  0.915500  0.099400  0.439300  1.0
  H  H816  1  0.084500  0.099400  0.060700  1.0
  H  H817  1  0.549200  0.407900  0.604600  1.0
  H  H818  1  0.450800  0.407900  0.895400  1.0
  H  H819  1  0.049200  0.907900  0.604600  1.0
  H  H820  1  0.950800  0.907900  0.895400  1.0
  H  H821  1  0.450800  0.592100  0.395400  1.0
  H  H822  1  0.549200  0.592100  0.104600  1.0
  H  H823  1  0.950800  0.092100  0.395400  1.0
  H  H824  1  0.049200  0.092100  0.104600  1.0
  H  H825  1  0.423600  0.307700  0.552100  1.0
  H  H826  1  0.576400  0.307700  0.947900  1.0
  H  H827  1  0.923600  0.807700  0.552100  1.0
  H  H828  1  0.076400  0.807700  0.947900  1.0
  H  H829  1  0.576400  0.692300  0.447900  1.0
  H  H830  1  0.423600  0.692300  0.052100  1.0
  H  H831  1  0.076400  0.192300  0.447900  1.0
  H  H832  1  0.923600  0.192300  0.052100  1.0
  H  H833  1  0.388300  0.315000  0.596000  1.0
  H  H834  1  0.611700  0.315000  0.904000  1.0
  H  H835  1  0.888300  0.815000  0.596000  1.0
  H  H836  1  0.111700  0.815000  0.904000  1.0
  H  H837  1  0.611700  0.685000  0.404000  1.0
  H  H838  1  0.388300  0.685000  0.096000  1.0
  H  H839  1  0.111700  0.185000  0.404000  1.0
  H  H840  1  0.888300  0.185000  0.096000  1.0
  H  H841  1  0.420500  0.357000  0.636300  1.0
  H  H842  1  0.579500  0.357000  0.863700  1.0
  H  H843  1  0.920500  0.857000  0.636300  1.0
  H  H844  1  0.079500  0.857000  0.863700  1.0
  H  H845  1  0.579500  0.643000  0.363700  1.0
  H  H846  1  0.420500  0.643000  0.136300  1.0
  H  H847  1  0.079500  0.143000  0.363700  1.0
  H  H848  1  0.920500  0.143000  0.136300  1.0
  H  H849  1  0.435500  0.159900  0.652000  1.0
  H  H850  1  0.564500  0.159900  0.848000  1.0
  H  H851  1  0.935500  0.659900  0.652000  1.0
  H  H852  1  0.064500  0.659900  0.848000  1.0
  H  H853  1  0.564500  0.840100  0.348000  1.0
  H  H854  1  0.435500  0.840100  0.152000  1.0
  H  H855  1  0.064500  0.340100  0.348000  1.0
  H  H856  1  0.935500  0.340100  0.152000  1.0
  H  H857  1  0.548900  0.100100  0.708000  1.0
  H  H858  1  0.451100  0.100100  0.792000  1.0
  H  H859  1  0.048900  0.600100  0.708000  1.0
  H  H860  1  0.951100  0.600100  0.792000  1.0
  H  H861  1  0.451100  0.899900  0.292000  1.0
  H  H862  1  0.548900  0.899900  0.208000  1.0
  H  H863  1  0.951100  0.399900  0.292000  1.0
  H  H864  1  0.048900  0.399900  0.208000  1.0
  H  H865  1  0.504800  0.051500  0.682500  1.0
  H  H866  1  0.495200  0.051500  0.817500  1.0
  H  H867  1  0.004800  0.551500  0.682500  1.0
  H  H868  1  0.995200  0.551500  0.817500  1.0
  H  H869  1  0.495200  0.948500  0.317500  1.0
  H  H870  1  0.504800  0.948500  0.182500  1.0
  H  H871  1  0.995200  0.448500  0.317500  1.0
  H  H872  1  0.004800  0.448500  0.182500  1.0
  H  H873  1  0.518000  0.185100  0.681900  1.0
  H  H874  1  0.482000  0.185100  0.818100  1.0
  H  H875  1  0.018000  0.685100  0.681900  1.0
  H  H876  1  0.982000  0.685100  0.818100  1.0
  H  H877  1  0.482000  0.814900  0.318100  1.0
  H  H878  1  0.518000  0.814900  0.181900  1.0
  H  H879  1  0.982000  0.314900  0.318100  1.0
  H  H880  1  0.018000  0.314900  0.181900  1.0
  H  H881  1  0.506800  0.174600  0.715800  1.0
  H  H882  1  0.493200  0.174600  0.784200  1.0
  H  H883  1  0.006800  0.674600  0.715800  1.0
  H  H884  1  0.993200  0.674600  0.784200  1.0
  H  H885  1  0.493200  0.825400  0.284200  1.0
  H  H886  1  0.506800  0.825400  0.215800  1.0
  H  H887  1  0.993200  0.325400  0.284200  1.0
  H  H888  1  0.006800  0.325400  0.215800  1.0
  H  H889  1  0.268600  0.137900  0.574000  1.0
  H  H890  1  0.731400  0.137900  0.926000  1.0
  H  H891  1  0.768600  0.637900  0.574000  1.0
  H  H892  1  0.231400  0.637900  0.926000  1.0
  H  H893  1  0.731400  0.862100  0.426000  1.0
  H  H894  1  0.268600  0.862100  0.074000  1.0
  H  H895  1  0.231400  0.362100  0.426000  1.0
  H  H896  1  0.768600  0.362100  0.074000  1.0
  H  H897  1  0.351400  0.162100  0.611400  1.0
  H  H898  1  0.648600  0.162100  0.888600  1.0
  H  H899  1  0.851400  0.662100  0.611400  1.0
  H  H900  1  0.148600  0.662100  0.888600  1.0
  H  H901  1  0.648600  0.837900  0.388600  1.0
  H  H902  1  0.351400  0.837900  0.111400  1.0
  H  H903  1  0.148600  0.337900  0.388600  1.0
  H  H904  1  0.851400  0.337900  0.111400  1.0
  H  H905  1  0.231000  0.075400  0.562000  1.0
  H  H906  1  0.769000  0.075400  0.938000  1.0
  H  H907  1  0.731000  0.575400  0.562000  1.0
  H  H908  1  0.269000  0.575400  0.938000  1.0
  H  H909  1  0.769000  0.924600  0.438000  1.0
  H  H910  1  0.231000  0.924600  0.062000  1.0
  H  H911  1  0.269000  0.424600  0.438000  1.0
  H  H912  1  0.731000  0.424600  0.062000  1.0
  H  H913  1  0.266600  0.044200  0.579300  1.0
  H  H914  1  0.733400  0.044200  0.920700  1.0
  H  H915  1  0.766600  0.544200  0.579300  1.0
  H  H916  1  0.233400  0.544200  0.920700  1.0
  H  H917  1  0.733400  0.955800  0.420700  1.0
  H  H918  1  0.266600  0.955800  0.079300  1.0
  H  H919  1  0.233400  0.455800  0.420700  1.0
  H  H920  1  0.766600  0.455800  0.079300  1.0
  H  H921  1  0.054200  0.917900  0.329200  1.0
  H  H922  1  0.945800  0.917900  0.170800  1.0
  H  H923  1  0.554200  0.417900  0.329200  1.0
  H  H924  1  0.445800  0.417900  0.170800  1.0
  H  H925  1  0.945800  0.082100  0.670800  1.0
  H  H926  1  0.054200  0.082100  0.829200  1.0
  H  H927  1  0.445800  0.582100  0.670800  1.0
  H  H928  1  0.554200  0.582100  0.829200  1.0
  H  H929  1  0.952500  0.989200  0.280600  1.0
  H  H930  1  0.047500  0.989200  0.219400  1.0
  H  H931  1  0.452500  0.489200  0.280600  1.0
  H  H932  1  0.547500  0.489200  0.219400  1.0
  H  H933  1  0.047500  0.010800  0.719400  1.0
  H  H934  1  0.952500  0.010800  0.780600  1.0
  H  H935  1  0.547500  0.510800  0.719400  1.0
  H  H936  1  0.452500  0.510800  0.780600  1.0
  H  H937  1  0.005700  0.032300  0.310300  1.0
  H  H938  1  0.994300  0.032300  0.189700  1.0
  H  H939  1  0.505700  0.532300  0.310300  1.0
  H  H940  1  0.494300  0.532300  0.189700  1.0
  H  H941  1  0.994300  0.967700  0.689700  1.0
  H  H942  1  0.005700  0.967700  0.810300  1.0
  H  H943  1  0.494300  0.467700  0.689700  1.0
  H  H944  1  0.505700  0.467700  0.810300  1.0
  H  H945  1  0.934000  0.919600  0.298500  1.0
  H  H946  1  0.066000  0.919600  0.201500  1.0
  H  H947  1  0.434000  0.419600  0.298500  1.0
  H  H948  1  0.566000  0.419600  0.201500  1.0
  H  H949  1  0.066000  0.080400  0.701500  1.0
  H  H950  1  0.934000  0.080400  0.798500  1.0
  H  H951  1  0.566000  0.580400  0.701500  1.0
  H  H952  1  0.434000  0.580400  0.798500  1.0
  H  H953  1  0.940400  0.928700  0.262800  1.0
  H  H954  1  0.059600  0.928700  0.237200  1.0
  H  H955  1  0.440400  0.428700  0.262800  1.0
  H  H956  1  0.559600  0.428700  0.237200  1.0
  H  H957  1  0.059600  0.071300  0.737200  1.0
  H  H958  1  0.940400  0.071300  0.762800  1.0
  H  H959  1  0.559600  0.571300  0.737200  1.0
  H  H960  1  0.440400  0.571300  0.762800  1.0
  H  H961  1  0.219000  0.923500  0.413600  1.0
  H  H962  1  0.781000  0.923500  0.086400  1.0
  H  H963  1  0.719000  0.423500  0.413600  1.0
  H  H964  1  0.281000  0.423500  0.086400  1.0
  H  H965  1  0.781000  0.076500  0.586400  1.0
  H  H966  1  0.219000  0.076500  0.913600  1.0
  H  H967  1  0.281000  0.576500  0.586400  1.0
  H  H968  1  0.719000  0.576500  0.913600  1.0
  H  H969  1  0.134000  0.907800  0.372400  1.0
  H  H970  1  0.866000  0.907800  0.127600  1.0
  H  H971  1  0.634000  0.407800  0.372400  1.0
  H  H972  1  0.366000  0.407800  0.127600  1.0
  H  H973  1  0.866000  0.092200  0.627600  1.0
  H  H974  1  0.134000  0.092200  0.872400  1.0
  H  H975  1  0.366000  0.592200  0.627600  1.0
  H  H976  1  0.634000  0.592200  0.872400  1.0
  H  H977  1  0.236100  0.015900  0.414900  1.0
  H  H978  1  0.763900  0.015900  0.085100  1.0
  H  H979  1  0.736100  0.515900  0.414900  1.0
  H  H980  1  0.263900  0.515900  0.085100  1.0
  H  H981  1  0.763900  0.984100  0.585100  1.0
  H  H982  1  0.236100  0.984100  0.914900  1.0
  H  H983  1  0.263900  0.484100  0.585100  1.0
  H  H984  1  0.736100  0.484100  0.914900  1.0
  H  H985  1  0.264300  0.982300  0.432200  1.0
  H  H986  1  0.735700  0.982300  0.067800  1.0
  H  H987  1  0.764300  0.482300  0.432200  1.0
  H  H988  1  0.235700  0.482300  0.067800  1.0
  H  H989  1  0.735700  0.017700  0.567800  1.0
  H  H990  1  0.264300  0.017700  0.932200  1.0
  H  H991  1  0.235700  0.517700  0.567800  1.0
  H  H992  1  0.764300  0.517700  0.932200  1.0
  H  H993  1  0.339400  0.085800  0.541600  1.0
  H  H994  1  0.660600  0.085800  0.958400  1.0
  H  H995  1  0.839400  0.585800  0.541600  1.0
  H  H996  1  0.160600  0.585800  0.958400  1.0
  H  H997  1  0.660600  0.914200  0.458400  1.0
  H  H998  1  0.339400  0.914200  0.041600  1.0
  H  H999  1  0.160600  0.414200  0.458400  1.0
  H  H1000  1  0.839400  0.414200  0.041600  1.0
  H  H1001  1  0.356500  0.071900  0.491700  1.0
  H  H1002  1  0.643500  0.071900  0.008300  1.0
  H  H1003  1  0.856500  0.571900  0.491700  1.0
  H  H1004  1  0.143500  0.571900  0.008300  1.0
  H  H1005  1  0.643500  0.928100  0.508300  1.0
  H  H1006  1  0.356500  0.928100  0.991700  1.0
  H  H1007  1  0.143500  0.428100  0.508300  1.0
  H  H1008  1  0.856500  0.428100  0.991700  1.0
  H  H1009  1  0.302500  0.034800  0.453700  1.0
  H  H1010  1  0.697500  0.034800  0.046300  1.0
  H  H1011  1  0.802500  0.534800  0.453700  1.0
  H  H1012  1  0.197500  0.534800  0.046300  1.0
  H  H1013  1  0.697500  0.965200  0.546300  1.0
  H  H1014  1  0.302500  0.965200  0.953700  1.0
  H  H1015  1  0.197500  0.465200  0.546300  1.0
  H  H1016  1  0.802500  0.465200  0.953700  1.0
  H  H1017  1  0.193800  0.026700  0.537900  1.0
  H  H1018  1  0.806200  0.026700  0.962100  1.0
  H  H1019  1  0.693800  0.526700  0.537900  1.0
  H  H1020  1  0.306200  0.526700  0.962100  1.0
  H  H1021  1  0.806200  0.973300  0.462100  1.0
  H  H1022  1  0.193800  0.973300  0.037900  1.0
  H  H1023  1  0.306200  0.473300  0.462100  1.0
  H  H1024  1  0.693800  0.473300  0.037900  1.0
  H  H1025  1  0.139700  0.989600  0.499900  1.0
  H  H1026  1  0.860300  0.989600  0.000100  1.0
  H  H1027  1  0.639700  0.489600  0.499900  1.0
  H  H1028  1  0.360300  0.489600  0.000100  1.0
  H  H1029  1  0.860300  0.010400  0.500100  1.0
  H  H1030  1  0.139700  0.010400  0.999900  1.0
  H  H1031  1  0.360300  0.510400  0.500100  1.0
  H  H1032  1  0.639700  0.510400  0.999900  1.0
  H  H1033  1  0.156800  0.975700  0.450100  1.0
  H  H1034  1  0.843200  0.975700  0.049900  1.0
  H  H1035  1  0.656800  0.475700  0.450100  1.0
  H  H1036  1  0.343200  0.475700  0.049900  1.0
  H  H1037  1  0.843200  0.024300  0.549900  1.0
  H  H1038  1  0.156800  0.024300  0.950100  1.0
  H  H1039  1  0.343200  0.524300  0.549900  1.0
  H  H1040  1  0.656800  0.524300  0.950100  1.0
  H  H1041  1  0.371100  0.176600  0.379200  1.0
  H  H1042  1  0.628900  0.176600  0.120800  1.0
  H  H1043  1  0.871100  0.676600  0.379200  1.0
  H  H1044  1  0.128900  0.676600  0.120800  1.0
  H  H1045  1  0.628900  0.823400  0.620800  1.0
  H  H1046  1  0.371100  0.823400  0.879200  1.0
  H  H1047  1  0.128900  0.323400  0.620800  1.0
  H  H1048  1  0.871100  0.323400  0.879200  1.0
  H  H1049  1  0.459000  0.166500  0.317400  1.0
  H  H1050  1  0.541000  0.166500  0.182600  1.0
  H  H1051  1  0.959000  0.666500  0.317400  1.0
  H  H1052  1  0.041000  0.666500  0.182600  1.0
  H  H1053  1  0.541000  0.833500  0.682600  1.0
  H  H1054  1  0.459000  0.833500  0.817400  1.0
  H  H1055  1  0.041000  0.333500  0.682600  1.0
  H  H1056  1  0.959000  0.333500  0.817400  1.0
  H  H1057  1  0.412500  0.209700  0.283300  1.0
  H  H1058  1  0.587500  0.209700  0.216700  1.0
  H  H1059  1  0.912500  0.709700  0.283300  1.0
  H  H1060  1  0.087500  0.709700  0.216700  1.0
  H  H1061  1  0.587500  0.790300  0.716700  1.0
  H  H1062  1  0.412500  0.790300  0.783300  1.0
  H  H1063  1  0.087500  0.290300  0.716700  1.0
  H  H1064  1  0.912500  0.290300  0.783300  1.0
  H  H1065  1  0.465600  0.151000  0.397500  1.0
  H  H1066  1  0.534400  0.151000  0.102500  1.0
  H  H1067  1  0.965600  0.651000  0.397500  1.0
  H  H1068  1  0.034400  0.651000  0.102500  1.0
  H  H1069  1  0.534400  0.849000  0.602500  1.0
  H  H1070  1  0.465600  0.849000  0.897500  1.0
  H  H1071  1  0.034400  0.349000  0.602500  1.0
  H  H1072  1  0.965600  0.349000  0.897500  1.0
  H  H1073  1  0.426700  0.122300  0.378300  1.0
  H  H1074  1  0.573300  0.122300  0.121700  1.0
  H  H1075  1  0.926700  0.622300  0.378300  1.0
  H  H1076  1  0.073300  0.622300  0.121700  1.0
  H  H1077  1  0.573300  0.877700  0.621700  1.0
  H  H1078  1  0.426700  0.877700  0.878300  1.0
  H  H1079  1  0.073300  0.377700  0.621700  1.0
  H  H1080  1  0.926700  0.377700  0.878300  1.0
  H  H1081  1  0.219300  0.243200  0.374900  1.0
  H  H1082  1  0.780700  0.243200  0.125100  1.0
  H  H1083  1  0.719300  0.743200  0.374900  1.0
  H  H1084  1  0.280700  0.743200  0.125100  1.0
  H  H1085  1  0.780700  0.756800  0.625100  1.0
  H  H1086  1  0.219300  0.756800  0.874900  1.0
  H  H1087  1  0.280700  0.256800  0.625100  1.0
  H  H1088  1  0.719300  0.256800  0.874900  1.0
  H  H1089  1  0.297100  0.204900  0.388600  1.0
  H  H1090  1  0.702900  0.204900  0.111400  1.0
  H  H1091  1  0.797100  0.704900  0.388600  1.0
  H  H1092  1  0.202900  0.704900  0.111400  1.0
  H  H1093  1  0.702900  0.795100  0.611400  1.0
  H  H1094  1  0.297100  0.795100  0.888600  1.0
  H  H1095  1  0.202900  0.295100  0.611400  1.0
  H  H1096  1  0.797100  0.295100  0.888600  1.0
  H  H1097  1  0.172400  0.280600  0.318600  1.0
  H  H1098  1  0.827600  0.280600  0.181400  1.0
  H  H1099  1  0.672400  0.780600  0.318600  1.0
  H  H1100  1  0.327600  0.780600  0.181400  1.0
  H  H1101  1  0.827600  0.719400  0.681400  1.0
  H  H1102  1  0.172400  0.719400  0.818600  1.0
  H  H1103  1  0.327600  0.219400  0.681400  1.0
  H  H1104  1  0.672400  0.219400  0.818600  1.0
  H  H1105  1  0.203600  0.284800  0.292200  1.0
  H  H1106  1  0.796400  0.284800  0.207800  1.0
  H  H1107  1  0.703600  0.784800  0.292200  1.0
  H  H1108  1  0.296400  0.784800  0.207800  1.0
  H  H1109  1  0.796400  0.715200  0.707800  1.0
  H  H1110  1  0.203600  0.715200  0.792200  1.0
  H  H1111  1  0.296400  0.215200  0.707800  1.0
  H  H1112  1  0.703600  0.215200  0.792200  1.0
  H  H1113  1  0.028800  0.552900  0.285600  1.0
  H  H1114  1  0.971200  0.552900  0.214400  1.0
  H  H1115  1  0.528800  0.052900  0.285600  1.0
  H  H1116  1  0.471200  0.052900  0.214400  1.0
  H  H1117  1  0.971200  0.447100  0.714400  1.0
  H  H1118  1  0.028800  0.447100  0.785600  1.0
  H  H1119  1  0.471200  0.947100  0.714400  1.0
  H  H1120  1  0.528800  0.947100  0.785600  1.0
  H  H1121  1  0.946200  0.549100  0.351200  1.0
  H  H1122  1  0.053800  0.549100  0.148800  1.0
  H  H1123  1  0.446200  0.049100  0.351200  1.0
  H  H1124  1  0.553800  0.049100  0.148800  1.0
  H  H1125  1  0.053800  0.450900  0.648800  1.0
  H  H1126  1  0.946200  0.450900  0.851200  1.0
  H  H1127  1  0.553800  0.950900  0.648800  1.0
  H  H1128  1  0.446200  0.950900  0.851200  1.0
  H  H1129  1  0.999300  0.505800  0.380700  1.0
  H  H1130  1  0.000700  0.505800  0.119300  1.0
  H  H1131  1  0.499300  0.005800  0.380700  1.0
  H  H1132  1  0.500700  0.005800  0.119300  1.0
  H  H1133  1  0.000700  0.494200  0.619300  1.0
  H  H1134  1  0.999300  0.494200  0.880700  1.0
  H  H1135  1  0.500700  0.994200  0.619300  1.0
  H  H1136  1  0.499300  0.994200  0.880700  1.0
  H  H1137  1  0.953000  0.604200  0.304200  1.0
  H  H1138  1  0.047000  0.604200  0.195800  1.0
  H  H1139  1  0.453000  0.104200  0.304200  1.0
  H  H1140  1  0.547000  0.104200  0.195800  1.0
  H  H1141  1  0.047000  0.395800  0.695800  1.0
  H  H1142  1  0.953000  0.395800  0.804200  1.0
  H  H1143  1  0.547000  0.895800  0.695800  1.0
  H  H1144  1  0.453000  0.895800  0.804200  1.0
  H  H1145  1  0.909400  0.575700  0.297000  1.0
  H  H1146  1  0.090600  0.575700  0.203000  1.0
  H  H1147  1  0.409400  0.075700  0.297000  1.0
  H  H1148  1  0.590600  0.075700  0.203000  1.0
  H  H1149  1  0.090600  0.424300  0.703000  1.0
  H  H1150  1  0.909400  0.424300  0.797000  1.0
  H  H1151  1  0.590600  0.924300  0.703000  1.0
  H  H1152  1  0.409400  0.924300  0.797000  1.0
  H  H1153  1  0.181500  0.494000  0.277500  1.0
  H  H1154  1  0.818500  0.494000  0.222500  1.0
  H  H1155  1  0.681500  0.994000  0.277500  1.0
  H  H1156  1  0.318500  0.994000  0.222500  1.0
  H  H1157  1  0.818500  0.506000  0.722500  1.0
  H  H1158  1  0.181500  0.506000  0.777500  1.0
  H  H1159  1  0.318500  0.006000  0.722500  1.0
  H  H1160  1  0.681500  0.006000  0.777500  1.0
  H  H1161  1  0.100600  0.528500  0.269700  1.0
  H  H1162  1  0.899400  0.528500  0.230300  1.0
  H  H1163  1  0.600600  0.028500  0.269700  1.0
  H  H1164  1  0.399400  0.028500  0.230300  1.0
  H  H1165  1  0.899400  0.471500  0.730300  1.0
  H  H1166  1  0.100600  0.471500  0.769700  1.0
  H  H1167  1  0.399400  0.971500  0.730300  1.0
  H  H1168  1  0.600600  0.971500  0.769700  1.0
  H  H1169  1  0.208300  0.444700  0.356200  1.0
  H  H1170  1  0.791700  0.444700  0.143800  1.0
  H  H1171  1  0.708300  0.944700  0.356200  1.0
  H  H1172  1  0.291700  0.944700  0.143800  1.0
  H  H1173  1  0.791700  0.555300  0.643800  1.0
  H  H1174  1  0.208300  0.555300  0.856200  1.0
  H  H1175  1  0.291700  0.055300  0.643800  1.0
  H  H1176  1  0.708300  0.055300  0.856200  1.0
  H  H1177  1  0.231500  0.449700  0.325900  1.0
  H  H1178  1  0.768500  0.449700  0.174100  1.0
  H  H1179  1  0.731500  0.949700  0.325900  1.0
  H  H1180  1  0.268500  0.949700  0.174100  1.0
  H  H1181  1  0.768500  0.550300  0.674100  1.0
  H  H1182  1  0.231500  0.550300  0.825900  1.0
  H  H1183  1  0.268500  0.050300  0.674100  1.0
  H  H1184  1  0.731500  0.050300  0.825900  1.0
  H  H1185  1  0.291400  0.305300  0.361000  1.0
  H  H1186  1  0.708600  0.305300  0.139000  1.0
  H  H1187  1  0.791400  0.805300  0.361000  1.0
  H  H1188  1  0.208600  0.805300  0.139000  1.0
  H  H1189  1  0.708600  0.694700  0.639000  1.0
  H  H1190  1  0.291400  0.694700  0.861000  1.0
  H  H1191  1  0.208600  0.194700  0.639000  1.0
  H  H1192  1  0.791400  0.194700  0.861000  1.0
  H  H1193  1  0.320600  0.359600  0.381000  1.0
  H  H1194  1  0.679400  0.359600  0.119000  1.0
  H  H1195  1  0.820600  0.859600  0.381000  1.0
  H  H1196  1  0.179400  0.859600  0.119000  1.0
  H  H1197  1  0.679400  0.640400  0.619000  1.0
  H  H1198  1  0.320600  0.640400  0.881000  1.0
  H  H1199  1  0.179400  0.140400  0.619000  1.0
  H  H1200  1  0.820600  0.140400  0.881000  1.0
  H  H1201  1  0.270000  0.407600  0.361600  1.0
  H  H1202  1  0.730000  0.407600  0.138400  1.0
  H  H1203  1  0.770000  0.907600  0.361600  1.0
  H  H1204  1  0.230000  0.907600  0.138400  1.0
  H  H1205  1  0.730000  0.592400  0.638400  1.0
  H  H1206  1  0.270000  0.592400  0.861600  1.0
  H  H1207  1  0.230000  0.092400  0.638400  1.0
  H  H1208  1  0.770000  0.092400  0.861600  1.0
  H  H1209  1  0.133900  0.323900  0.286700  1.0
  H  H1210  1  0.866100  0.323900  0.213300  1.0
  H  H1211  1  0.633900  0.823900  0.286700  1.0
  H  H1212  1  0.366100  0.823900  0.213300  1.0
  H  H1213  1  0.866100  0.676100  0.713300  1.0
  H  H1214  1  0.133900  0.676100  0.786700  1.0
  H  H1215  1  0.366100  0.176100  0.713300  1.0
  H  H1216  1  0.633900  0.176100  0.786700  1.0
  H  H1217  1  0.083200  0.371900  0.267300  1.0
  H  H1218  1  0.916800  0.371900  0.232700  1.0
  H  H1219  1  0.583200  0.871900  0.267300  1.0
  H  H1220  1  0.416800  0.871900  0.232700  1.0
  H  H1221  1  0.916800  0.628100  0.732700  1.0
  H  H1222  1  0.083200  0.628100  0.767300  1.0
  H  H1223  1  0.416800  0.128100  0.732700  1.0
  H  H1224  1  0.583200  0.128100  0.767300  1.0
  H  H1225  1  0.112500  0.426200  0.287300  1.0
  H  H1226  1  0.887500  0.426200  0.212700  1.0
  H  H1227  1  0.612500  0.926200  0.287300  1.0
  H  H1228  1  0.387500  0.926200  0.212700  1.0
  H  H1229  1  0.887500  0.573800  0.712700  1.0
  H  H1230  1  0.112500  0.573800  0.787300  1.0
  H  H1231  1  0.387500  0.073800  0.712700  1.0
  H  H1232  1  0.612500  0.073800  0.787300  1.0
  H  H1233  1  0.355600  0.225700  0.175600  1.0
  H  H1234  1  0.644400  0.225700  0.324400  1.0
  H  H1235  1  0.855600  0.725700  0.175600  1.0
  H  H1236  1  0.144400  0.725700  0.324400  1.0
  H  H1237  1  0.644400  0.774300  0.824400  1.0
  H  H1238  1  0.355600  0.774300  0.675600  1.0
  H  H1239  1  0.144400  0.274300  0.824400  1.0
  H  H1240  1  0.855600  0.274300  0.675600  1.0
  H  H1241  1  0.459300  0.293700  0.228500  1.0
  H  H1242  1  0.540700  0.293700  0.271500  1.0
  H  H1243  1  0.959300  0.793700  0.228500  1.0
  H  H1244  1  0.040700  0.793700  0.271500  1.0
  H  H1245  1  0.540700  0.706300  0.771500  1.0
  H  H1246  1  0.459300  0.706300  0.728500  1.0
  H  H1247  1  0.040700  0.206300  0.771500  1.0
  H  H1248  1  0.959300  0.206300  0.728500  1.0
  H  H1249  1  0.415000  0.297200  0.268200  1.0
  H  H1250  1  0.585000  0.297200  0.231800  1.0
  H  H1251  1  0.915000  0.797200  0.268200  1.0
  H  H1252  1  0.085000  0.797200  0.231800  1.0
  H  H1253  1  0.585000  0.702800  0.731800  1.0
  H  H1254  1  0.415000  0.702800  0.768200  1.0
  H  H1255  1  0.085000  0.202800  0.731800  1.0
  H  H1256  1  0.915000  0.202800  0.768200  1.0
  H  H1257  1  0.460100  0.281300  0.174200  1.0
  H  H1258  1  0.539900  0.281300  0.325800  1.0
  H  H1259  1  0.960100  0.781300  0.174200  1.0
  H  H1260  1  0.039900  0.781300  0.325800  1.0
  H  H1261  1  0.539900  0.718700  0.825800  1.0
  H  H1262  1  0.460100  0.718700  0.674200  1.0
  H  H1263  1  0.039900  0.218700  0.825800  1.0
  H  H1264  1  0.960100  0.218700  0.674200  1.0
  H  H1265  1  0.471200  0.241600  0.181600  1.0
  H  H1266  1  0.528800  0.241600  0.318400  1.0
  H  H1267  1  0.971200  0.741600  0.181600  1.0
  H  H1268  1  0.028800  0.741600  0.318400  1.0
  H  H1269  1  0.528800  0.758400  0.818400  1.0
  H  H1270  1  0.471200  0.758400  0.681600  1.0
  H  H1271  1  0.028800  0.258400  0.818400  1.0
  H  H1272  1  0.971200  0.258400  0.681600  1.0
  H  H1273  1  0.206900  0.171400  0.194100  1.0
  H  H1274  1  0.793100  0.171400  0.305900  1.0
  H  H1275  1  0.706900  0.671400  0.194100  1.0
  H  H1276  1  0.293100  0.671400  0.305900  1.0
  H  H1277  1  0.793100  0.828600  0.805900  1.0
  H  H1278  1  0.206900  0.828600  0.694100  1.0
  H  H1279  1  0.293100  0.328600  0.805900  1.0
  H  H1280  1  0.706900  0.328600  0.694100  1.0
  H  H1281  1  0.277100  0.194600  0.172300  1.0
  H  H1282  1  0.722900  0.194600  0.327700  1.0
  H  H1283  1  0.777100  0.694600  0.172300  1.0
  H  H1284  1  0.222900  0.694600  0.327700  1.0
  H  H1285  1  0.722900  0.805400  0.827700  1.0
  H  H1286  1  0.277100  0.805400  0.672300  1.0
  H  H1287  1  0.222900  0.305400  0.827700  1.0
  H  H1288  1  0.777100  0.305400  0.672300  1.0
  H  H1289  1  0.176700  0.186600  0.248400  1.0
  H  H1290  1  0.823300  0.186600  0.251600  1.0
  H  H1291  1  0.676700  0.686600  0.248400  1.0
  H  H1292  1  0.323300  0.686600  0.251600  1.0
  H  H1293  1  0.823300  0.813400  0.751600  1.0
  H  H1294  1  0.176700  0.813400  0.748400  1.0
  H  H1295  1  0.323300  0.313400  0.751600  1.0
  H  H1296  1  0.676700  0.313400  0.748400  1.0
  H  H1297  1  0.208300  0.215500  0.272800  1.0
  H  H1298  1  0.791700  0.215500  0.227200  1.0
  H  H1299  1  0.708300  0.715500  0.272800  1.0
  H  H1300  1  0.291700  0.715500  0.227200  1.0
  H  H1301  1  0.791700  0.784500  0.727200  1.0
  H  H1302  1  0.208300  0.784500  0.772800  1.0
  H  H1303  1  0.291700  0.284500  0.727200  1.0
  H  H1304  1  0.708300  0.284500  0.772800  1.0
  H  H1305  1  0.104200  0.081100  0.477400  1.0
  H  H1306  1  0.895800  0.081100  0.022600  1.0
  H  H1307  1  0.604200  0.581100  0.477400  1.0
  H  H1308  1  0.395800  0.581100  0.022600  1.0
  H  H1309  1  0.895800  0.918900  0.522600  1.0
  H  H1310  1  0.104200  0.918900  0.977400  1.0
  H  H1311  1  0.395800  0.418900  0.522600  1.0
  H  H1312  1  0.604200  0.418900  0.977400  1.0
  H  H1313  1  0.994500  0.011100  0.437900  1.0
  H  H1314  1  0.005500  0.011100  0.062100  1.0
  H  H1315  1  0.494500  0.511100  0.437900  1.0
  H  H1316  1  0.505500  0.511100  0.062100  1.0
  H  H1317  1  0.005500  0.988900  0.562100  1.0
  H  H1318  1  0.994500  0.988900  0.937900  1.0
  H  H1319  1  0.505500  0.488900  0.562100  1.0
  H  H1320  1  0.494500  0.488900  0.937900  1.0
  H  H1321  1  0.026200  0.004300  0.392400  1.0
  H  H1322  1  0.973800  0.004300  0.107600  1.0
  H  H1323  1  0.526200  0.504300  0.392400  1.0
  H  H1324  1  0.473800  0.504300  0.107600  1.0
  H  H1325  1  0.973800  0.995700  0.607600  1.0
  H  H1326  1  0.026200  0.995700  0.892400  1.0
  H  H1327  1  0.473800  0.495700  0.607600  1.0
  H  H1328  1  0.526200  0.495700  0.892400  1.0
  H  H1329  1  0.055400  0.046800  0.512900  1.0
  H  H1330  1  0.944600  0.046800  0.987100  1.0
  H  H1331  1  0.555400  0.546800  0.512900  1.0
  H  H1332  1  0.444600  0.546800  0.987100  1.0
  H  H1333  1  0.944600  0.953200  0.487100  1.0
  H  H1334  1  0.055400  0.953200  0.012900  1.0
  H  H1335  1  0.444600  0.453200  0.487100  1.0
  H  H1336  1  0.555400  0.453200  0.012900  1.0
  H  H1337  1  0.018700  0.076700  0.493700  1.0
  H  H1338  1  0.981300  0.076700  0.006300  1.0
  H  H1339  1  0.518700  0.576700  0.493700  1.0
  H  H1340  1  0.481300  0.576700  0.006300  1.0
  H  H1341  1  0.981300  0.923300  0.506300  1.0
  H  H1342  1  0.018700  0.923300  0.993700  1.0
  H  H1343  1  0.481300  0.423300  0.506300  1.0
  H  H1344  1  0.518700  0.423300  0.993700  1.0
  H  H1345  1  0.253500  0.122100  0.448600  1.0
  H  H1346  1  0.746500  0.122100  0.051400  1.0
  H  H1347  1  0.753500  0.622100  0.448600  1.0
  H  H1348  1  0.246500  0.622100  0.051400  1.0
  H  H1349  1  0.746500  0.877900  0.551400  1.0
  H  H1350  1  0.253500  0.877900  0.948600  1.0
  H  H1351  1  0.246500  0.377900  0.551400  1.0
  H  H1352  1  0.753500  0.377900  0.948600  1.0
  H  H1353  1  0.182100  0.108600  0.473500  1.0
  H  H1354  1  0.817900  0.108600  0.026500  1.0
  H  H1355  1  0.682100  0.608600  0.473500  1.0
  H  H1356  1  0.317900  0.608600  0.026500  1.0
  H  H1357  1  0.817900  0.891400  0.526500  1.0
  H  H1358  1  0.182100  0.891400  0.973500  1.0
  H  H1359  1  0.317900  0.391400  0.526500  1.0
  H  H1360  1  0.682100  0.391400  0.973500  1.0
  H  H1361  1  0.238800  0.073700  0.371300  1.0
  H  H1362  1  0.761200  0.073700  0.128700  1.0
  H  H1363  1  0.738800  0.573700  0.371300  1.0
  H  H1364  1  0.261200  0.573700  0.128700  1.0
  H  H1365  1  0.761200  0.926300  0.628700  1.0
  H  H1366  1  0.238800  0.926300  0.871300  1.0
  H  H1367  1  0.261200  0.426300  0.628700  1.0
  H  H1368  1  0.738800  0.426300  0.871300  1.0
  H  H1369  1  0.277500  0.099200  0.396100  1.0
  H  H1370  1  0.722500  0.099200  0.103900  1.0
  H  H1371  1  0.777500  0.599200  0.396100  1.0
  H  H1372  1  0.222500  0.599200  0.103900  1.0
  H  H1373  1  0.722500  0.900800  0.603900  1.0
  H  H1374  1  0.277500  0.900800  0.896100  1.0
  H  H1375  1  0.222500  0.400800  0.603900  1.0
  H  H1376  1  0.777500  0.400800  0.896100  1.0
  H  H1377  1  0.294200  0.153900  0.264600  1.0
  H  H1378  1  0.705800  0.153900  0.235400  1.0
  H  H1379  1  0.794200  0.653900  0.264600  1.0
  H  H1380  1  0.205800  0.653900  0.235400  1.0
  H  H1381  1  0.705800  0.846100  0.735400  1.0
  H  H1382  1  0.294200  0.846100  0.764600  1.0
  H  H1383  1  0.205800  0.346100  0.735400  1.0
  H  H1384  1  0.794200  0.346100  0.764600  1.0
  H  H1385  1  0.330700  0.110500  0.302300  1.0
  H  H1386  1  0.669300  0.110500  0.197700  1.0
  H  H1387  1  0.830700  0.610500  0.302300  1.0
  H  H1388  1  0.169300  0.610500  0.197700  1.0
  H  H1389  1  0.669300  0.889500  0.697700  1.0
  H  H1390  1  0.330700  0.889500  0.802300  1.0
  H  H1391  1  0.169300  0.389500  0.697700  1.0
  H  H1392  1  0.830700  0.389500  0.802300  1.0
  H  H1393  1  0.296800  0.097400  0.345900  1.0
  H  H1394  1  0.703200  0.097400  0.154100  1.0
  H  H1395  1  0.796800  0.597400  0.345900  1.0
  H  H1396  1  0.203200  0.597400  0.154100  1.0
  H  H1397  1  0.703200  0.902600  0.654100  1.0
  H  H1398  1  0.296800  0.902600  0.845900  1.0
  H  H1399  1  0.203200  0.402600  0.654100  1.0
  H  H1400  1  0.796800  0.402600  0.845900  1.0
  H  H1401  1  0.162100  0.194400  0.299600  1.0
  H  H1402  1  0.837900  0.194400  0.200400  1.0
  H  H1403  1  0.662100  0.694400  0.299600  1.0
  H  H1404  1  0.337900  0.694400  0.200400  1.0
  H  H1405  1  0.837900  0.805600  0.700400  1.0
  H  H1406  1  0.162100  0.805600  0.799600  1.0
  H  H1407  1  0.337900  0.305600  0.700400  1.0
  H  H1408  1  0.662100  0.305600  0.799600  1.0
  H  H1409  1  0.128200  0.181300  0.343200  1.0
  H  H1410  1  0.871800  0.181300  0.156800  1.0
  H  H1411  1  0.628200  0.681300  0.343200  1.0
  H  H1412  1  0.371800  0.681300  0.156800  1.0
  H  H1413  1  0.871800  0.818700  0.656800  1.0
  H  H1414  1  0.128200  0.818700  0.843200  1.0
  H  H1415  1  0.371800  0.318700  0.656800  1.0
  H  H1416  1  0.628200  0.318700  0.843200  1.0
  H  H1417  1  0.164700  0.137900  0.381000  1.0
  H  H1418  1  0.835300  0.137900  0.119000  1.0
  H  H1419  1  0.664700  0.637900  0.381000  1.0
  H  H1420  1  0.335300  0.637900  0.119000  1.0
  H  H1421  1  0.835300  0.862100  0.619000  1.0
  H  H1422  1  0.164700  0.862100  0.881000  1.0
  H  H1423  1  0.335300  0.362100  0.619000  1.0
  H  H1424  1  0.664700  0.362100  0.881000  1.0
  C  C1425  1  0.335700  0.235900  0.576800  1
  C  C1426  1  0.664300  0.235900  0.923200  1
  C  C1427  1  0.835700  0.735900  0.576800  1
  C  C1428  1  0.164300  0.735900  0.923200  1
  C  C1429  1  0.664300  0.764100  0.423200  1
  C  C1430  1  0.335700  0.764100  0.076800  1
  C  C1431  1  0.164300  0.264100  0.423200  1
  C  C1432  1  0.835700  0.264100  0.076800  1
  C  C1433  1  0.306900  0.209600  0.468400  1
  C  C1434  1  0.693100  0.209600  0.031600  1
  C  C1435  1  0.806900  0.709600  0.468400  1
  C  C1436  1  0.193100  0.709600  0.031600  1
  C  C1437  1  0.693100  0.790400  0.531600  1
  C  C1438  1  0.306900  0.790400  0.968400  1
  C  C1439  1  0.193100  0.290400  0.531600  1
  C  C1440  1  0.806900  0.290400  0.968400  1
  C  C1441  1  0.312300  0.293100  0.517600  1
  C  C1442  1  0.687700  0.293100  0.982400  1
  C  C1443  1  0.812300  0.793100  0.517600  1
  C  C1444  1  0.187700  0.793100  0.982400  1
  C  C1445  1  0.687700  0.706900  0.482400  1
  C  C1446  1  0.312300  0.706900  0.017600  1
  C  C1447  1  0.187700  0.206900  0.482400  1
  C  C1448  1  0.812300  0.206900  0.017600  1
  C  C1449  1  0.315500  0.313100  0.502400  1
  C  C1450  1  0.684500  0.313100  0.997600  1
  C  C1451  1  0.815500  0.813100  0.502400  1
  C  C1452  1  0.184500  0.813100  0.997600  1
  C  C1453  1  0.684500  0.686900  0.497600  1
  C  C1454  1  0.315500  0.686900  0.002400  1
  C  C1455  1  0.184500  0.186900  0.497600  1
  C  C1456  1  0.815500  0.186900  0.002400  1
  C  C1457  1  0.326300  0.227500  0.554800  1
  C  C1458  1  0.673700  0.227500  0.945200  1
  C  C1459  1  0.826300  0.727500  0.554800  1
  C  C1460  1  0.173700  0.727500  0.945200  1
  C  C1461  1  0.673700  0.772500  0.445200  1
  C  C1462  1  0.326300  0.772500  0.054800  1
  C  C1463  1  0.173700  0.272500  0.445200  1
  C  C1464  1  0.826300  0.272500  0.054800  1
  C  C1465  1  0.298700  0.227400  0.480900  1
  C  C1466  1  0.701300  0.227400  0.019100  1
  C  C1467  1  0.798700  0.727400  0.480900  1
  C  C1468  1  0.201300  0.727400  0.019100  1
  C  C1469  1  0.701300  0.772600  0.519100  1
  C  C1470  1  0.298700  0.772600  0.980900  1
  C  C1471  1  0.201300  0.272600  0.519100  1
  C  C1472  1  0.798700  0.272600  0.980900  1
  C  C1473  1  0.629700  0.314300  0.591080  1.0
  C  C1474  1  0.370300  0.314300  0.908920  1.0
  C  C1475  1  0.129700  0.814300  0.591080  1.0
  C  C1476  1  0.870300  0.814300  0.908920  1.0
  C  C1477  1  0.370300  0.685700  0.408920  1.0
  C  C1478  1  0.629700  0.685700  0.091080  1.0
  C  C1479  1  0.870300  0.185700  0.408920  1.0
  C  C1480  1  0.129700  0.185700  0.091080  1.0
  C  C1481  1  0.659700  0.340900  0.608180  1.0
  C  C1482  1  0.340300  0.340900  0.891820  1.0
  C  C1483  1  0.159700  0.840900  0.608180  1.0
  C  C1484  1  0.840300  0.840900  0.891820  1.0
  C  C1485  1  0.340300  0.659100  0.391820  1.0
  C  C1486  1  0.659700  0.659100  0.108180  1.0
  C  C1487  1  0.840300  0.159100  0.391820  1.0
  C  C1488  1  0.159700  0.159100  0.108180  1.0
  C  C1489  1  0.696400  0.355530  0.595700  1.0
  C  C1490  1  0.303600  0.355530  0.904300  1.0
  C  C1491  1  0.196400  0.855530  0.595700  1.0
  C  C1492  1  0.803600  0.855530  0.904300  1.0
  C  C1493  1  0.303600  0.644470  0.404300  1.0
  C  C1494  1  0.696400  0.644470  0.095700  1.0
  C  C1495  1  0.803600  0.144470  0.404300  1.0
  C  C1496  1  0.196400  0.144470  0.095700  1.0
  C  C1497  1  0.703100  0.343600  0.566100  1.0
  C  C1498  1  0.296900  0.343600  0.933900  1.0
  C  C1499  1  0.203100  0.843600  0.566100  1.0
  C  C1500  1  0.796900  0.843600  0.933900  1.0
  C  C1501  1  0.296900  0.656400  0.433900  1.0
  C  C1502  1  0.703100  0.656400  0.066100  1.0
  C  C1503  1  0.796900  0.156400  0.433900  1.0
  C  C1504  1  0.203100  0.156400  0.066100  1.0
  C  C1505  1  0.673100  0.317000  0.549000  1.0
  C  C1506  1  0.326900  0.317000  0.951000  1.0
  C  C1507  1  0.173100  0.817000  0.549000  1.0
  C  C1508  1  0.826900  0.817000  0.951000  1.0
  C  C1509  1  0.326900  0.683000  0.451000  1.0
  C  C1510  1  0.673100  0.683000  0.049000  1.0
  C  C1511  1  0.826900  0.183000  0.451000  1.0
  C  C1512  1  0.173100  0.183000  0.049000  1.0
  C  C1513  1  0.725600  0.385100  0.616800  1.0
  C  C1514  1  0.274400  0.385100  0.883200  1.0
  C  C1515  1  0.225600  0.885100  0.616800  1.0
  C  C1516  1  0.774400  0.885100  0.883200  1.0
  C  C1517  1  0.274400  0.614900  0.383200  1.0
  C  C1518  1  0.725600  0.614900  0.116800  1.0
  C  C1519  1  0.774400  0.114900  0.383200  1.0
  C  C1520  1  0.225600  0.114900  0.116800  1.0
  C  C1521  1  0.592700  0.299020  0.600740  1.0
  C  C1522  1  0.407300  0.299020  0.899260  1.0
  C  C1523  1  0.092700  0.799020  0.600740  1.0
  C  C1524  1  0.907300  0.799020  0.899260  1.0
  C  C1525  1  0.407300  0.700980  0.399260  1.0
  C  C1526  1  0.592700  0.700980  0.100740  1.0
  C  C1527  1  0.907300  0.200980  0.399260  1.0
  C  C1528  1  0.092700  0.200980  0.100740  1.0
  C  C1529  1  0.572900  0.304760  0.627910  1.0
  C  C1530  1  0.427100  0.304760  0.872090  1.0
  C  C1531  1  0.072900  0.804760  0.627910  1.0
  C  C1532  1  0.927100  0.804760  0.872090  1.0
  C  C1533  1  0.427100  0.695240  0.372090  1.0
  C  C1534  1  0.572900  0.695240  0.127910  1.0
  C  C1535  1  0.927100  0.195240  0.372090  1.0
  C  C1536  1  0.072900  0.195240  0.127910  1.0
  C  C1537  1  0.531600  0.281910  0.624710  1.0
  C  C1538  1  0.468400  0.281910  0.875290  1.0
  C  C1539  1  0.031600  0.781910  0.624710  1.0
  C  C1540  1  0.968400  0.781910  0.875290  1.0
  C  C1541  1  0.468400  0.718090  0.375290  1.0
  C  C1542  1  0.531600  0.718090  0.124710  1.0
  C  C1543  1  0.968400  0.218090  0.375290  1.0
  C  C1544  1  0.031600  0.218090  0.124710  1.0
  C  C1545  1  0.493500  0.234400  0.583300  1.0
  C  C1546  1  0.506500  0.234400  0.916700  1.0
  C  C1547  1  0.993500  0.734400  0.583300  1.0
  C  C1548  1  0.006500  0.734400  0.916700  1.0
  C  C1549  1  0.506500  0.765600  0.416700  1.0
  C  C1550  1  0.493500  0.765600  0.083300  1.0
  C  C1551  1  0.006500  0.265600  0.416700  1.0
  C  C1552  1  0.993500  0.265600  0.083300  1.0
  C  C1553  1  0.367600  0.993350  0.561600  1.0
  C  C1554  1  0.632400  0.993350  0.938400  1.0
  C  C1555  1  0.867600  0.493350  0.561600  1.0
  C  C1556  1  0.132400  0.493350  0.938400  1.0
  C  C1557  1  0.632400  0.006650  0.438400  1.0
  C  C1558  1  0.367600  0.006650  0.061600  1.0
  C  C1559  1  0.132400  0.506650  0.438400  1.0
  C  C1560  1  0.867600  0.506650  0.061600  1.0
  C  C1561  1  0.339800  0.970570  0.537780  1.0
  C  C1562  1  0.660200  0.970570  0.962220  1.0
  C  C1563  1  0.839800  0.470570  0.537780  1.0
  C  C1564  1  0.160200  0.470570  0.962220  1.0
  C  C1565  1  0.660200  0.029430  0.462220  1.0
  C  C1566  1  0.339800  0.029430  0.037780  1.0
  C  C1567  1  0.160200  0.529430  0.462220  1.0
  C  C1568  1  0.839800  0.529430  0.037780  1.0
  C  C1569  1  0.297600  0.954170  0.542500  1.0
  C  C1570  1  0.702400  0.954170  0.957500  1.0
  C  C1571  1  0.797600  0.454170  0.542500  1.0
  C  C1572  1  0.202400  0.454170  0.957500  1.0
  C  C1573  1  0.702400  0.045830  0.457500  1.0
  C  C1574  1  0.297600  0.045830  0.042500  1.0
  C  C1575  1  0.202400  0.545830  0.457500  1.0
  C  C1576  1  0.797600  0.545830  0.042500  1.0
  C  C1577  1  0.283300  0.960550  0.571100  1.0
  C  C1578  1  0.716700  0.960550  0.928900  1.0
  C  C1579  1  0.783300  0.460550  0.571100  1.0
  C  C1580  1  0.216700  0.460550  0.928900  1.0
  C  C1581  1  0.716700  0.039450  0.428900  1.0
  C  C1582  1  0.283300  0.039450  0.071100  1.0
  C  C1583  1  0.216700  0.539450  0.428900  1.0
  C  C1584  1  0.783300  0.539450  0.071100  1.0
  C  C1585  1  0.311200  0.983330  0.594890  1.0
  C  C1586  1  0.688800  0.983330  0.905110  1.0
  C  C1587  1  0.811200  0.483330  0.594890  1.0
  C  C1588  1  0.188800  0.483330  0.905110  1.0
  C  C1589  1  0.688800  0.016670  0.405110  1.0
  C  C1590  1  0.311200  0.016670  0.094890  1.0
  C  C1591  1  0.188800  0.516670  0.405110  1.0
  C  C1592  1  0.811200  0.516670  0.094890  1.0
  C  C1593  1  0.268800  0.928500  0.516100  1.0
  C  C1594  1  0.731200  0.928500  0.983900  1.0
  C  C1595  1  0.768800  0.428500  0.516100  1.0
  C  C1596  1  0.231200  0.428500  0.983900  1.0
  C  C1597  1  0.731200  0.071500  0.483900  1.0
  C  C1598  1  0.268800  0.071500  0.016100  1.0
  C  C1599  1  0.231200  0.571500  0.483900  1.0
  C  C1600  1  0.768800  0.571500  0.016100  1.0
  C  C1601  1  0.480200  0.030200  0.546040  1.0
  C  C1602  1  0.519800  0.030200  0.953960  1.0
  C  C1603  1  0.980200  0.530200  0.546040  1.0
  C  C1604  1  0.019800  0.530200  0.953960  1.0
  C  C1605  1  0.519800  0.969800  0.453960  1.0
  C  C1606  1  0.480200  0.969800  0.046040  1.0
  C  C1607  1  0.019800  0.469800  0.453960  1.0
  C  C1608  1  0.980200  0.469800  0.046040  1.0
  C  C1609  1  0.437800  0.007920  0.535130  1.0
  C  C1610  1  0.562200  0.007920  0.964870  1.0
  C  C1611  1  0.937800  0.507920  0.535130  1.0
  C  C1612  1  0.062200  0.507920  0.964870  1.0
  C  C1613  1  0.562200  0.992080  0.464870  1.0
  C  C1614  1  0.437800  0.992080  0.035130  1.0
  C  C1615  1  0.062200  0.492080  0.464870  1.0
  C  C1616  1  0.937800  0.492080  0.035130  1.0
  C  C1617  1  0.408700  0.010600  0.557900  1.0
  C  C1618  1  0.591300  0.010600  0.942100  1.0
  C  C1619  1  0.908700  0.510600  0.557900  1.0
  C  C1620  1  0.091300  0.510600  0.942100  1.0
  C  C1621  1  0.591300  0.989400  0.442100  1.0
  C  C1622  1  0.408700  0.989400  0.057900  1.0
  C  C1623  1  0.091300  0.489400  0.442100  1.0
  C  C1624  1  0.908700  0.489400  0.057900  1.0
  C  C1625  1  0.506900  0.072800  0.592500  1.0
  C  C1626  1  0.493100  0.072800  0.907500  1.0
  C  C1627  1  0.006900  0.572800  0.592500  1.0
  C  C1628  1  0.993100  0.572800  0.907500  1.0
  C  C1629  1  0.493100  0.927200  0.407500  1.0
  C  C1630  1  0.506900  0.927200  0.092500  1.0
  C  C1631  1  0.993100  0.427200  0.407500  1.0
  C  C1632  1  0.006900  0.427200  0.092500  1.0
  C  C1633  1  0.515770  0.199760  0.596880  1.0
  C  C1634  1  0.484230  0.199760  0.903120  1.0
  C  C1635  1  0.015770  0.699760  0.596880  1.0
  C  C1636  1  0.984230  0.699760  0.903120  1.0
  C  C1637  1  0.484230  0.800240  0.403120  1.0
  C  C1638  1  0.515770  0.800240  0.096880  1.0
  C  C1639  1  0.984230  0.300240  0.403120  1.0
  C  C1640  1  0.015770  0.300240  0.096880  1.0
  C  C1641  1  0.561670  0.197620  0.622100  1.0
  C  C1642  1  0.438330  0.197620  0.877900  1.0
  C  C1643  1  0.061670  0.697620  0.622100  1.0
  C  C1644  1  0.938330  0.697620  0.877900  1.0
  C  C1645  1  0.438330  0.802380  0.377900  1.0
  C  C1646  1  0.561670  0.802380  0.122100  1.0
  C  C1647  1  0.938330  0.302380  0.377900  1.0
  C  C1648  1  0.061670  0.302380  0.122100  1.0
  C  C1649  1  0.582140  0.165900  0.633470  1.0
  C  C1650  1  0.417860  0.165900  0.866530  1.0
  C  C1651  1  0.082140  0.665900  0.633470  1.0
  C  C1652  1  0.917860  0.665900  0.866530  1.0
  C  C1653  1  0.417860  0.834100  0.366530  1.0
  C  C1654  1  0.582140  0.834100  0.133470  1.0
  C  C1655  1  0.917860  0.334100  0.366530  1.0
  C  C1656  1  0.082140  0.334100  0.133470  1.0
  C  C1657  1  0.556710  0.136320  0.619620  1.0
  C  C1658  1  0.443290  0.136320  0.880380  1.0
  C  C1659  1  0.056710  0.636320  0.619620  1.0
  C  C1660  1  0.943290  0.636320  0.880380  1.0
  C  C1661  1  0.443290  0.863680  0.380380  1.0
  C  C1662  1  0.556710  0.863680  0.119620  1.0
  C  C1663  1  0.943290  0.363680  0.380380  1.0
  C  C1664  1  0.056710  0.363680  0.119620  1.0
  C  C1665  1  0.510810  0.138450  0.594400  1.0
  C  C1666  1  0.489190  0.138450  0.905600  1.0
  C  C1667  1  0.010810  0.638450  0.594400  1.0
  C  C1668  1  0.989190  0.638450  0.905600  1.0
  C  C1669  1  0.489190  0.861550  0.405600  1.0
  C  C1670  1  0.510810  0.861550  0.094400  1.0
  C  C1671  1  0.989190  0.361550  0.405600  1.0
  C  C1672  1  0.010810  0.361550  0.094400  1.0
  C  C1673  1  0.490340  0.170170  0.583030  1.0
  C  C1674  1  0.509660  0.170170  0.916970  1.0
  C  C1675  1  0.990340  0.670170  0.583030  1.0
  C  C1676  1  0.009660  0.670170  0.916970  1.0
  C  C1677  1  0.509660  0.829830  0.416970  1.0
  C  C1678  1  0.490340  0.829830  0.083030  1.0
  C  C1679  1  0.009660  0.329830  0.416970  1.0
  C  C1680  1  0.990340  0.329830  0.083030  1.0
  C  C1681  1  0.444440  0.172310  0.557820  1.0
  C  C1682  1  0.555560  0.172310  0.942180  1.0
  C  C1683  1  0.944440  0.672310  0.557820  1.0
  C  C1684  1  0.055560  0.672310  0.942180  1.0
  C  C1685  1  0.555560  0.827690  0.442180  1.0
  C  C1686  1  0.444440  0.827690  0.057820  1.0
  C  C1687  1  0.055560  0.327690  0.442180  1.0
  C  C1688  1  0.944440  0.327690  0.057820  1.0
  C  C1689  1  0.419000  0.142720  0.543970  1.0
  C  C1690  1  0.581000  0.142720  0.956030  1.0
  C  C1691  1  0.919000  0.642720  0.543970  1.0
  C  C1692  1  0.081000  0.642720  0.956030  1.0
  C  C1693  1  0.581000  0.857280  0.456030  1.0
  C  C1694  1  0.419000  0.857280  0.043970  1.0
  C  C1695  1  0.081000  0.357280  0.456030  1.0
  C  C1696  1  0.919000  0.357280  0.043970  1.0
  C  C1697  1  0.439470  0.111000  0.555340  1.0
  C  C1698  1  0.560530  0.111000  0.944660  1.0
  C  C1699  1  0.939470  0.611000  0.555340  1.0
  C  C1700  1  0.060530  0.611000  0.944660  1.0
  C  C1701  1  0.560530  0.889000  0.444660  1.0
  C  C1702  1  0.439470  0.889000  0.055340  1.0
  C  C1703  1  0.060530  0.389000  0.444660  1.0
  C  C1704  1  0.939470  0.389000  0.055340  1.0
  C  C1705  1  0.485370  0.108870  0.580560  1.0
  C  C1706  1  0.514630  0.108870  0.919440  1.0
  C  C1707  1  0.985370  0.608870  0.580560  1.0
  C  C1708  1  0.014630  0.608870  0.919440  1.0
  C  C1709  1  0.514630  0.891130  0.419440  1.0
  C  C1710  1  0.485370  0.891130  0.080560  1.0
  C  C1711  1  0.014630  0.391130  0.419440  1.0
  C  C1712  1  0.985370  0.391130  0.080560  1.0
  C  C1713  1  0.639200  0.189900  0.573120  1.0
  C  C1714  1  0.360800  0.189900  0.926880  1.0
  C  C1715  1  0.139200  0.689900  0.573120  1.0
  C  C1716  1  0.860800  0.689900  0.926880  1.0
  C  C1717  1  0.360800  0.810100  0.426880  1.0
  C  C1718  1  0.639200  0.810100  0.073120  1.0
  C  C1719  1  0.860800  0.310100  0.426880  1.0
  C  C1720  1  0.139200  0.310100  0.073120  1.0
  C  C1721  1  0.672100  0.166900  0.593900  1.0
  C  C1722  1  0.327900  0.166900  0.906100  1.0
  C  C1723  1  0.172100  0.666900  0.593900  1.0
  C  C1724  1  0.827900  0.666900  0.906100  1.0
  C  C1725  1  0.327900  0.833100  0.406100  1.0
  C  C1726  1  0.672100  0.833100  0.093900  1.0
  C  C1727  1  0.827900  0.333100  0.406100  1.0
  C  C1728  1  0.172100  0.333100  0.093900  1.0
  C  C1729  1  0.713800  0.178800  0.619130  1.0
  C  C1730  1  0.286200  0.178800  0.880870  1.0
  C  C1731  1  0.213800  0.678800  0.619130  1.0
  C  C1732  1  0.786200  0.678800  0.880870  1.0
  C  C1733  1  0.286200  0.821200  0.380870  1.0
  C  C1734  1  0.713800  0.821200  0.119130  1.0
  C  C1735  1  0.786200  0.321200  0.380870  1.0
  C  C1736  1  0.213800  0.321200  0.119130  1.0
  C  C1737  1  0.722500  0.213600  0.623490  1.0
  C  C1738  1  0.277500  0.213600  0.876510  1.0
  C  C1739  1  0.222500  0.713600  0.623490  1.0
  C  C1740  1  0.777500  0.713600  0.876510  1.0
  C  C1741  1  0.277500  0.786400  0.376510  1.0
  C  C1742  1  0.722500  0.786400  0.123490  1.0
  C  C1743  1  0.777500  0.286400  0.376510  1.0
  C  C1744  1  0.222500  0.286400  0.123490  1.0
  C  C1745  1  0.689500  0.236610  0.602660  1.0
  C  C1746  1  0.310500  0.236610  0.897340  1.0
  C  C1747  1  0.189500  0.736610  0.602660  1.0
  C  C1748  1  0.810500  0.736610  0.897340  1.0
  C  C1749  1  0.310500  0.763390  0.397340  1.0
  C  C1750  1  0.689500  0.763390  0.102660  1.0
  C  C1751  1  0.810500  0.263390  0.397340  1.0
  C  C1752  1  0.189500  0.263390  0.102660  1.0
  C  C1753  1  0.748000  0.152600  0.643000  1.0
  C  C1754  1  0.252000  0.152600  0.857000  1.0
  C  C1755  1  0.248000  0.652600  0.643000  1.0
  C  C1756  1  0.752000  0.652600  0.857000  1.0
  C  C1757  1  0.252000  0.847400  0.357000  1.0
  C  C1758  1  0.748000  0.847400  0.143000  1.0
  C  C1759  1  0.752000  0.347400  0.357000  1.0
  C  C1760  1  0.248000  0.347400  0.143000  1.0
  C  C1761  1  0.595800  0.180720  0.548360  1.0
  C  C1762  1  0.404200  0.180720  0.951640  1.0
  C  C1763  1  0.095800  0.680720  0.548360  1.0
  C  C1764  1  0.904200  0.680720  0.951640  1.0
  C  C1765  1  0.404200  0.819280  0.451640  1.0
  C  C1766  1  0.595800  0.819280  0.048360  1.0
  C  C1767  1  0.904200  0.319280  0.451640  1.0
  C  C1768  1  0.095800  0.319280  0.048360  1.0
  C  C1769  1  0.573200  0.148680  0.537030  1.0
  C  C1770  1  0.426800  0.148680  0.962970  1.0
  C  C1771  1  0.073200  0.648680  0.537030  1.0
  C  C1772  1  0.926800  0.648680  0.962970  1.0
  C  C1773  1  0.426800  0.851320  0.462970  1.0
  C  C1774  1  0.573200  0.851320  0.037030  1.0
  C  C1775  1  0.926800  0.351320  0.462970  1.0
  C  C1776  1  0.073200  0.351320  0.037030  1.0
  C  C1777  1  0.525200  0.154860  0.513280  1.0
  C  C1778  1  0.474800  0.154860  0.986720  1.0
  C  C1779  1  0.025200  0.654860  0.513280  1.0
  C  C1780  1  0.974800  0.654860  0.986720  1.0
  C  C1781  1  0.474800  0.845140  0.486720  1.0
  C  C1782  1  0.525200  0.845140  0.013280  1.0
  C  C1783  1  0.974800  0.345140  0.486720  1.0
  C  C1784  1  0.025200  0.345140  0.013280  1.0
  C  C1785  1  0.479600  0.209900  0.489100  1.0
  C  C1786  1  0.520400  0.209900  0.010900  1.0
  C  C1787  1  0.979600  0.709900  0.489100  1.0
  C  C1788  1  0.020400  0.709900  0.010900  1.0
  C  C1789  1  0.520400  0.790100  0.510900  1.0
  C  C1790  1  0.479600  0.790100  0.989100  1.0
  C  C1791  1  0.020400  0.290100  0.510900  1.0
  C  C1792  1  0.979600  0.290100  0.989100  1.0
  C  C1793  1  0.289270  0.333333  0.273050  1.0
  C  C1794  1  0.710730  0.333333  0.226950  1.0
  C  C1795  1  0.789270  0.833333  0.273050  1.0
  C  C1796  1  0.210730  0.833333  0.226950  1.0
  C  C1797  1  0.710730  0.666667  0.726950  1.0
  C  C1798  1  0.289270  0.666667  0.773050  1.0
  C  C1799  1  0.210730  0.166667  0.726950  1.0
  C  C1800  1  0.789270  0.166667  0.773050  1.0
  C  C1801  1  0.261700  0.362430  0.259950  1.0
  C  C1802  1  0.738300  0.362430  0.240050  1.0
  C  C1803  1  0.761700  0.862430  0.259950  1.0
  C  C1804  1  0.238300  0.862430  0.240050  1.0
  C  C1805  1  0.738300  0.637570  0.740050  1.0
  C  C1806  1  0.261700  0.637570  0.759950  1.0
  C  C1807  1  0.238300  0.137570  0.740050  1.0
  C  C1808  1  0.761700  0.137570  0.759950  1.0
  C  C1809  1  0.216500  0.359600  0.234270  1.0
  C  C1810  1  0.783500  0.359600  0.265730  1.0
  C  C1811  1  0.716500  0.859600  0.234270  1.0
  C  C1812  1  0.283500  0.859600  0.265730  1.0
  C  C1813  1  0.783500  0.640400  0.765730  1.0
  C  C1814  1  0.216500  0.640400  0.734270  1.0
  C  C1815  1  0.283500  0.140400  0.765730  1.0
  C  C1816  1  0.716500  0.140400  0.734270  1.0
  C  C1817  1  0.198700  0.327660  0.221680  1.0
  C  C1818  1  0.801300  0.327660  0.278320  1.0
  C  C1819  1  0.698700  0.827660  0.221680  1.0
  C  C1820  1  0.301300  0.827660  0.278320  1.0
  C  C1821  1  0.801300  0.672340  0.778320  1.0
  C  C1822  1  0.198700  0.672340  0.721680  1.0
  C  C1823  1  0.301300  0.172340  0.778320  1.0
  C  C1824  1  0.698700  0.172340  0.721680  1.0
  C  C1825  1  0.226300  0.298560  0.234780  1.0
  C  C1826  1  0.773700  0.298560  0.265220  1.0
  C  C1827  1  0.726300  0.798560  0.234780  1.0
  C  C1828  1  0.273700  0.798560  0.265220  1.0
  C  C1829  1  0.773700  0.701440  0.765220  1.0
  C  C1830  1  0.226300  0.701440  0.734780  1.0
  C  C1831  1  0.273700  0.201440  0.765220  1.0
  C  C1832  1  0.726300  0.201440  0.734780  1.0
  C  C1833  1  0.184500  0.391400  0.221300  1.0
  C  C1834  1  0.815500  0.391400  0.278700  1.0
  C  C1835  1  0.684500  0.891400  0.221300  1.0
  C  C1836  1  0.315500  0.891400  0.278700  1.0
  C  C1837  1  0.815500  0.608600  0.778700  1.0
  C  C1838  1  0.184500  0.608600  0.721300  1.0
  C  C1839  1  0.315500  0.108600  0.778700  1.0
  C  C1840  1  0.684500  0.108600  0.721300  1.0
  C  C1841  1  0.413600  0.345990  0.333900  1.0
  C  C1842  1  0.586400  0.345990  0.166100  1.0
  C  C1843  1  0.913600  0.845990  0.333900  1.0
  C  C1844  1  0.086400  0.845990  0.166100  1.0
  C  C1845  1  0.586400  0.654010  0.666100  1.0
  C  C1846  1  0.413600  0.654010  0.833900  1.0
  C  C1847  1  0.086400  0.154010  0.666100  1.0
  C  C1848  1  0.913600  0.154010  0.833900  1.0
  C  C1849  1  0.368700  0.360850  0.312500  1.0
  C  C1850  1  0.631300  0.360850  0.187500  1.0
  C  C1851  1  0.868700  0.860850  0.312500  1.0
  C  C1852  1  0.131300  0.860850  0.187500  1.0
  C  C1853  1  0.631300  0.639150  0.687500  1.0
  C  C1854  1  0.368700  0.639150  0.812500  1.0
  C  C1855  1  0.131300  0.139150  0.687500  1.0
  C  C1856  1  0.868700  0.139150  0.812500  1.0
  C  C1857  1  0.335500  0.334000  0.296850  1.0
  C  C1858  1  0.664500  0.334000  0.203150  1.0
  C  C1859  1  0.835500  0.834000  0.296850  1.0
  C  C1860  1  0.164500  0.834000  0.203150  1.0
  C  C1861  1  0.664500  0.666000  0.703150  1.0
  C  C1862  1  0.335500  0.666000  0.796850  1.0
  C  C1863  1  0.164500  0.166000  0.703150  1.0
  C  C1864  1  0.835500  0.166000  0.796850  1.0
  C  C1865  1  0.440300  0.285300  0.350000  1.0
  C  C1866  1  0.559700  0.285300  0.150000  1.0
  C  C1867  1  0.940300  0.785300  0.350000  1.0
  C  C1868  1  0.059700  0.785300  0.150000  1.0
  C  C1869  1  0.559700  0.714700  0.650000  1.0
  C  C1870  1  0.440300  0.714700  0.850000  1.0
  C  C1871  1  0.059700  0.214700  0.650000  1.0
  C  C1872  1  0.940300  0.214700  0.850000  1.0
  C  C1873  1  0.486210  0.218680  0.454570  1.0
  C  C1874  1  0.513790  0.218680  0.045430  1.0
  C  C1875  1  0.986210  0.718680  0.454570  1.0
  C  C1876  1  0.013790  0.718680  0.045430  1.0
  C  C1877  1  0.513790  0.781320  0.545430  1.0
  C  C1878  1  0.486210  0.781320  0.954570  1.0
  C  C1879  1  0.013790  0.281320  0.545430  1.0
  C  C1880  1  0.986210  0.281320  0.954570  1.0
  C  C1881  1  0.524960  0.202910  0.444960  1.0
  C  C1882  1  0.475040  0.202910  0.055040  1.0
  C  C1883  1  0.024960  0.702910  0.444960  1.0
  C  C1884  1  0.975040  0.702910  0.055040  1.0
  C  C1885  1  0.475040  0.797090  0.555040  1.0
  C  C1886  1  0.524960  0.797090  0.944960  1.0
  C  C1887  1  0.975040  0.297090  0.555040  1.0
  C  C1888  1  0.024960  0.297090  0.944960  1.0
  C  C1889  1  0.532730  0.211170  0.414630  1.0
  C  C1890  1  0.467270  0.211170  0.085370  1.0
  C  C1891  1  0.032730  0.711170  0.414630  1.0
  C  C1892  1  0.967270  0.711170  0.085370  1.0
  C  C1893  1  0.467270  0.788830  0.585370  1.0
  C  C1894  1  0.532730  0.788830  0.914630  1.0
  C  C1895  1  0.967270  0.288830  0.585370  1.0
  C  C1896  1  0.032730  0.288830  0.914630  1.0
  C  C1897  1  0.501750  0.235200  0.393920  1.0
  C  C1898  1  0.498250  0.235200  0.106080  1.0
  C  C1899  1  0.001750  0.735200  0.393920  1.0
  C  C1900  1  0.998250  0.735200  0.106080  1.0
  C  C1901  1  0.498250  0.764800  0.606080  1.0
  C  C1902  1  0.501750  0.764800  0.893920  1.0
  C  C1903  1  0.998250  0.264800  0.606080  1.0
  C  C1904  1  0.001750  0.264800  0.893920  1.0
  C  C1905  1  0.463000  0.250970  0.403530  1.0
  C  C1906  1  0.537000  0.250970  0.096470  1.0
  C  C1907  1  0.963000  0.750970  0.403530  1.0
  C  C1908  1  0.037000  0.750970  0.096470  1.0
  C  C1909  1  0.537000  0.749030  0.596470  1.0
  C  C1910  1  0.463000  0.749030  0.903530  1.0
  C  C1911  1  0.037000  0.249030  0.596470  1.0
  C  C1912  1  0.963000  0.249030  0.903530  1.0
  C  C1913  1  0.455230  0.242710  0.433860  1.0
  C  C1914  1  0.544770  0.242710  0.066140  1.0
  C  C1915  1  0.955230  0.742710  0.433860  1.0
  C  C1916  1  0.044770  0.742710  0.066140  1.0
  C  C1917  1  0.544770  0.757290  0.566140  1.0
  C  C1918  1  0.455230  0.757290  0.933860  1.0
  C  C1919  1  0.044770  0.257290  0.566140  1.0
  C  C1920  1  0.955230  0.257290  0.933860  1.0
  C  C1921  1  0.416480  0.258490  0.443470  1.0
  C  C1922  1  0.583520  0.258490  0.056530  1.0
  C  C1923  1  0.916480  0.758490  0.443470  1.0
  C  C1924  1  0.083520  0.758490  0.056530  1.0
  C  C1925  1  0.583520  0.741510  0.556530  1.0
  C  C1926  1  0.416480  0.741510  0.943470  1.0
  C  C1927  1  0.083520  0.241510  0.556530  1.0
  C  C1928  1  0.916480  0.241510  0.943470  1.0
  C  C1929  1  0.385500  0.282520  0.422760  1.0
  C  C1930  1  0.614500  0.282520  0.077240  1.0
  C  C1931  1  0.885500  0.782520  0.422760  1.0
  C  C1932  1  0.114500  0.782520  0.077240  1.0
  C  C1933  1  0.614500  0.717480  0.577240  1.0
  C  C1934  1  0.385500  0.717480  0.922760  1.0
  C  C1935  1  0.114500  0.217480  0.577240  1.0
  C  C1936  1  0.885500  0.217480  0.922760  1.0
  C  C1937  1  0.393300  0.290780  0.392440  1.0
  C  C1938  1  0.606700  0.290780  0.107560  1.0
  C  C1939  1  0.893300  0.790780  0.392440  1.0
  C  C1940  1  0.106700  0.790780  0.107560  1.0
  C  C1941  1  0.606700  0.709220  0.607560  1.0
  C  C1942  1  0.393300  0.709220  0.892440  1.0
  C  C1943  1  0.106700  0.209220  0.607560  1.0
  C  C1944  1  0.893300  0.209220  0.892440  1.0
  C  C1945  1  0.432000  0.275000  0.382830  1.0
  C  C1946  1  0.568000  0.275000  0.117170  1.0
  C  C1947  1  0.932000  0.775000  0.382830  1.0
  C  C1948  1  0.068000  0.775000  0.117170  1.0
  C  C1949  1  0.568000  0.725000  0.617170  1.0
  C  C1950  1  0.432000  0.725000  0.882830  1.0
  C  C1951  1  0.068000  0.225000  0.617170  1.0
  C  C1952  1  0.932000  0.225000  0.882830  1.0
  C  C1953  1  0.611400  0.268040  0.473590  1.0
  C  C1954  1  0.388600  0.268040  0.026410  1.0
  C  C1955  1  0.111400  0.768040  0.473590  1.0
  C  C1956  1  0.888600  0.768040  0.026410  1.0
  C  C1957  1  0.388600  0.731960  0.526410  1.0
  C  C1958  1  0.611400  0.731960  0.973590  1.0
  C  C1959  1  0.888600  0.231960  0.526410  1.0
  C  C1960  1  0.111400  0.231960  0.973590  1.0
  C  C1961  1  0.634000  0.266020  0.448090  1.0
  C  C1962  1  0.366000  0.266020  0.051910  1.0
  C  C1963  1  0.134000  0.766020  0.448090  1.0
  C  C1964  1  0.866000  0.766020  0.051910  1.0
  C  C1965  1  0.366000  0.733980  0.551910  1.0
  C  C1966  1  0.634000  0.733980  0.948090  1.0
  C  C1967  1  0.866000  0.233980  0.551910  1.0
  C  C1968  1  0.134000  0.233980  0.948090  1.0
  C  C1969  1  0.676100  0.245100  0.451590  1.0
  C  C1970  1  0.323900  0.245100  0.048410  1.0
  C  C1971  1  0.176100  0.745100  0.451590  1.0
  C  C1972  1  0.823900  0.745100  0.048410  1.0
  C  C1973  1  0.323900  0.754900  0.548410  1.0
  C  C1974  1  0.676100  0.754900  0.951590  1.0
  C  C1975  1  0.823900  0.254900  0.548410  1.0
  C  C1976  1  0.176100  0.254900  0.951590  1.0
  C  C1977  1  0.695600  0.226270  0.480590  1.0
  C  C1978  1  0.304400  0.226270  0.019410  1.0
  C  C1979  1  0.195600  0.726270  0.480590  1.0
  C  C1980  1  0.804400  0.726270  0.019410  1.0
  C  C1981  1  0.304400  0.773730  0.519410  1.0
  C  C1982  1  0.695600  0.773730  0.980590  1.0
  C  C1983  1  0.804400  0.273730  0.519410  1.0
  C  C1984  1  0.195600  0.273730  0.980590  1.0
  C  C1985  1  0.673000  0.228300  0.506090  1.0
  C  C1986  1  0.327000  0.228300  0.993910  1.0
  C  C1987  1  0.173000  0.728300  0.506090  1.0
  C  C1988  1  0.827000  0.728300  0.993910  1.0
  C  C1989  1  0.327000  0.771700  0.493910  1.0
  C  C1990  1  0.673000  0.771700  0.006090  1.0
  C  C1991  1  0.827000  0.271700  0.493910  1.0
  C  C1992  1  0.173000  0.271700  0.006090  1.0
  C  C1993  1  0.703800  0.241500  0.424800  1.0
  C  C1994  1  0.296200  0.241500  0.075200  1.0
  C  C1995  1  0.203800  0.741500  0.424800  1.0
  C  C1996  1  0.796200  0.741500  0.075200  1.0
  C  C1997  1  0.296200  0.758500  0.575200  1.0
  C  C1998  1  0.703800  0.758500  0.924800  1.0
  C  C1999  1  0.796200  0.258500  0.575200  1.0
  C  C2000  1  0.203800  0.258500  0.924800  1.0
  C  C2001  1  0.501200  0.323700  0.461270  1.0
  C  C2002  1  0.498800  0.323700  0.038730  1.0
  C  C2003  1  0.001200  0.823700  0.461270  1.0
  C  C2004  1  0.998800  0.823700  0.038730  1.0
  C  C2005  1  0.498800  0.676300  0.538730  1.0
  C  C2006  1  0.501200  0.676300  0.961270  1.0
  C  C2007  1  0.998800  0.176300  0.538730  1.0
  C  C2008  1  0.001200  0.176300  0.961270  1.0
  C  C2009  1  0.540400  0.310910  0.448830  1.0
  C  C2010  1  0.459600  0.310910  0.051170  1.0
  C  C2011  1  0.040400  0.810910  0.448830  1.0
  C  C2012  1  0.959600  0.810910  0.051170  1.0
  C  C2013  1  0.459600  0.689090  0.551170  1.0
  C  C2014  1  0.540400  0.689090  0.948830  1.0
  C  C2015  1  0.959600  0.189090  0.551170  1.0
  C  C2016  1  0.040400  0.189090  0.948830  1.0
  C  C2017  1  0.569800  0.287410  0.472490  1.0
  C  C2018  1  0.430200  0.287410  0.027510  1.0
  C  C2019  1  0.069800  0.787410  0.472490  1.0
  C  C2020  1  0.930200  0.787410  0.027510  1.0
  C  C2021  1  0.430200  0.712590  0.527510  1.0
  C  C2022  1  0.569800  0.712590  0.972490  1.0
  C  C2023  1  0.930200  0.212590  0.527510  1.0
  C  C2024  1  0.069800  0.212590  0.972490  1.0
  C  C2025  1  0.478200  0.313300  0.514700  1.0
  C  C2026  1  0.521800  0.313300  0.985300  1.0
  C  C2027  1  0.978200  0.813300  0.514700  1.0
  C  C2028  1  0.021800  0.813300  0.985300  1.0
  C  C2029  1  0.521800  0.686700  0.485300  1.0
  C  C2030  1  0.478200  0.686700  0.014700  1.0
  C  C2031  1  0.021800  0.186700  0.485300  1.0
  C  C2032  1  0.978200  0.186700  0.014700  1.0
  C  C2033  1  0.361600  0.433700  0.692800  1.0
  C  C2034  1  0.638400  0.433700  0.807200  1.0
  C  C2035  1  0.861600  0.933700  0.692800  1.0
  C  C2036  1  0.138400  0.933700  0.807200  1.0
  C  C2037  1  0.638400  0.566300  0.307200  1.0
  C  C2038  1  0.361600  0.566300  0.192800  1.0
  C  C2039  1  0.138400  0.066300  0.307200  1.0
  C  C2040  1  0.861600  0.066300  0.192800  1.0
  C  C2041  1  0.339300  0.428400  0.718100  1.0
  C  C2042  1  0.660700  0.428400  0.781900  1.0
  C  C2043  1  0.839300  0.928400  0.718100  1.0
  C  C2044  1  0.160700  0.928400  0.781900  1.0
  C  C2045  1  0.660700  0.571600  0.281900  1.0
  C  C2046  1  0.339300  0.571600  0.218100  1.0
  C  C2047  1  0.160700  0.071600  0.281900  1.0
  C  C2048  1  0.839300  0.071600  0.218100  1.0
  C  C2049  1  0.298500  0.448600  0.719800  1.0
  C  C2050  1  0.701500  0.448600  0.780200  1.0
  C  C2051  1  0.798500  0.948600  0.719800  1.0
  C  C2052  1  0.201500  0.948600  0.780200  1.0
  C  C2053  1  0.701500  0.551400  0.280200  1.0
  C  C2054  1  0.298500  0.551400  0.219800  1.0
  C  C2055  1  0.201500  0.051400  0.280200  1.0
  C  C2056  1  0.798500  0.051400  0.219800  1.0
  C  C2057  1  0.280100  0.474000  0.696200  1.0
  C  C2058  1  0.719900  0.474000  0.803800  1.0
  C  C2059  1  0.780100  0.974000  0.696200  1.0
  C  C2060  1  0.219900  0.974000  0.803800  1.0
  C  C2061  1  0.719900  0.526000  0.303800  1.0
  C  C2062  1  0.280100  0.526000  0.196200  1.0
  C  C2063  1  0.219900  0.026000  0.303800  1.0
  C  C2064  1  0.780100  0.026000  0.196200  1.0
  C  C2065  1  0.302400  0.479220  0.670930  1.0
  C  C2066  1  0.697600  0.479220  0.829070  1.0
  C  C2067  1  0.802400  0.979220  0.670930  1.0
  C  C2068  1  0.197600  0.979220  0.829070  1.0
  C  C2069  1  0.697600  0.520780  0.329070  1.0
  C  C2070  1  0.302400  0.520780  0.170930  1.0
  C  C2071  1  0.197600  0.020780  0.329070  1.0
  C  C2072  1  0.802400  0.020780  0.170930  1.0
  C  C2073  1  0.274800  0.440500  0.747800  1.0
  C  C2074  1  0.725200  0.440500  0.752200  1.0
  C  C2075  1  0.774800  0.940500  0.747800  1.0
  C  C2076  1  0.225200  0.940500  0.752200  1.0
  C  C2077  1  0.725200  0.559500  0.252200  1.0
  C  C2078  1  0.274800  0.559500  0.247800  1.0
  C  C2079  1  0.225200  0.059500  0.252200  1.0
  C  C2080  1  0.774800  0.059500  0.247800  1.0
  C  C2081  1  0.476600  0.383900  0.696500  1.0
  C  C2082  1  0.523400  0.383900  0.803500  1.0
  C  C2083  1  0.976600  0.883900  0.696500  1.0
  C  C2084  1  0.023400  0.883900  0.803500  1.0
  C  C2085  1  0.523400  0.616100  0.303500  1.0
  C  C2086  1  0.476600  0.616100  0.196500  1.0
  C  C2087  1  0.023400  0.116100  0.303500  1.0
  C  C2088  1  0.976600  0.116100  0.196500  1.0
  C  C2089  1  0.437500  0.391500  0.711200  1.0
  C  C2090  1  0.562500  0.391500  0.788800  1.0
  C  C2091  1  0.937500  0.891500  0.711200  1.0
  C  C2092  1  0.062500  0.891500  0.788800  1.0
  C  C2093  1  0.562500  0.608500  0.288800  1.0
  C  C2094  1  0.437500  0.608500  0.211200  1.0
  C  C2095  1  0.062500  0.108500  0.288800  1.0
  C  C2096  1  0.937500  0.108500  0.211200  1.0
  C  C2097  1  0.404100  0.415500  0.690400  1.0
  C  C2098  1  0.595900  0.415500  0.809600  1.0
  C  C2099  1  0.904100  0.915500  0.690400  1.0
  C  C2100  1  0.095900  0.915500  0.809600  1.0
  C  C2101  1  0.595900  0.584500  0.309600  1.0
  C  C2102  1  0.404100  0.584500  0.190400  1.0
  C  C2103  1  0.095900  0.084500  0.309600  1.0
  C  C2104  1  0.904100  0.084500  0.190400  1.0
  C  C2105  1  0.491800  0.401200  0.641500  1.0
  C  C2106  1  0.508200  0.401200  0.858500  1.0
  C  C2107  1  0.991800  0.901200  0.641500  1.0
  C  C2108  1  0.008200  0.901200  0.858500  1.0
  C  C2109  1  0.508200  0.598800  0.358500  1.0
  C  C2110  1  0.491800  0.598800  0.141500  1.0
  C  C2111  1  0.008200  0.098800  0.358500  1.0
  C  C2112  1  0.991800  0.098800  0.141500  1.0
  C  C2113  1  0.497800  0.340990  0.540290  1.0
  C  C2114  1  0.502200  0.340990  0.959710  1.0
  C  C2115  1  0.997800  0.840990  0.540290  1.0
  C  C2116  1  0.002200  0.840990  0.959710  1.0
  C  C2117  1  0.502200  0.659010  0.459710  1.0
  C  C2118  1  0.497800  0.659010  0.040290  1.0
  C  C2119  1  0.002200  0.159010  0.459710  1.0
  C  C2120  1  0.997800  0.159010  0.040290  1.0
  C  C2121  1  0.537900  0.361580  0.538170  1.0
  C  C2122  1  0.462100  0.361580  0.961830  1.0
  C  C2123  1  0.037900  0.861580  0.538170  1.0
  C  C2124  1  0.962100  0.861580  0.961830  1.0
  C  C2125  1  0.462100  0.638420  0.461830  1.0
  C  C2126  1  0.537900  0.638420  0.038170  1.0
  C  C2127  1  0.962100  0.138420  0.461830  1.0
  C  C2128  1  0.037900  0.138420  0.038170  1.0
  C  C2129  1  0.557060  0.386510  0.562120  1.0
  C  C2130  1  0.442940  0.386510  0.937880  1.0
  C  C2131  1  0.057060  0.886510  0.562120  1.0
  C  C2132  1  0.942940  0.886510  0.937880  1.0
  C  C2133  1  0.442940  0.613490  0.437880  1.0
  C  C2134  1  0.557060  0.613490  0.062120  1.0
  C  C2135  1  0.942940  0.113490  0.437880  1.0
  C  C2136  1  0.057060  0.113490  0.062120  1.0
  C  C2137  1  0.536100  0.390860  0.588200  1.0
  C  C2138  1  0.463900  0.390860  0.911800  1.0
  C  C2139  1  0.036100  0.890860  0.588200  1.0
  C  C2140  1  0.963900  0.890860  0.911800  1.0
  C  C2141  1  0.463900  0.609140  0.411800  1.0
  C  C2142  1  0.536100  0.609140  0.088200  1.0
  C  C2143  1  0.963900  0.109140  0.411800  1.0
  C  C2144  1  0.036100  0.109140  0.088200  1.0
  C  C2145  1  0.495970  0.370280  0.590320  1.0
  C  C2146  1  0.504030  0.370280  0.909680  1.0
  C  C2147  1  0.995970  0.870280  0.590320  1.0
  C  C2148  1  0.004030  0.870280  0.909680  1.0
  C  C2149  1  0.504030  0.629720  0.409680  1.0
  C  C2150  1  0.495970  0.629720  0.090320  1.0
  C  C2151  1  0.004030  0.129720  0.409680  1.0
  C  C2152  1  0.995970  0.129720  0.090320  1.0
  C  C2153  1  0.476820  0.345340  0.566370  1.0
  C  C2154  1  0.523180  0.345340  0.933630  1.0
  C  C2155  1  0.976820  0.845340  0.566370  1.0
  C  C2156  1  0.023180  0.845340  0.933630  1.0
  C  C2157  1  0.523180  0.654660  0.433630  1.0
  C  C2158  1  0.476820  0.654660  0.066370  1.0
  C  C2159  1  0.023180  0.154660  0.433630  1.0
  C  C2160  1  0.976820  0.154660  0.066370  1.0
  C  C2161  1  0.436700  0.324760  0.568490  1.0
  C  C2162  1  0.563300  0.324760  0.931510  1.0
  C  C2163  1  0.936700  0.824760  0.568490  1.0
  C  C2164  1  0.063300  0.824760  0.931510  1.0
  C  C2165  1  0.563300  0.675240  0.431510  1.0
  C  C2166  1  0.436700  0.675240  0.068490  1.0
  C  C2167  1  0.063300  0.175240  0.431510  1.0
  C  C2168  1  0.936700  0.175240  0.068490  1.0
  C  C2169  1  0.415700  0.329110  0.594570  1.0
  C  C2170  1  0.584300  0.329110  0.905430  1.0
  C  C2171  1  0.915700  0.829110  0.594570  1.0
  C  C2172  1  0.084300  0.829110  0.905430  1.0
  C  C2173  1  0.584300  0.670890  0.405430  1.0
  C  C2174  1  0.415700  0.670890  0.094570  1.0
  C  C2175  1  0.084300  0.170890  0.405430  1.0
  C  C2176  1  0.915700  0.170890  0.094570  1.0
  C  C2177  1  0.434900  0.354040  0.618520  1.0
  C  C2178  1  0.565100  0.354040  0.881480  1.0
  C  C2179  1  0.934900  0.854040  0.618520  1.0
  C  C2180  1  0.065100  0.854040  0.881480  1.0
  C  C2181  1  0.565100  0.645960  0.381480  1.0
  C  C2182  1  0.434900  0.645960  0.118520  1.0
  C  C2183  1  0.065100  0.145960  0.381480  1.0
  C  C2184  1  0.934900  0.145960  0.118520  1.0
  C  C2185  1  0.475000  0.374620  0.616400  1.0
  C  C2186  1  0.525000  0.374620  0.883600  1.0
  C  C2187  1  0.975000  0.874620  0.616400  1.0
  C  C2188  1  0.025000  0.874620  0.883600  1.0
  C  C2189  1  0.525000  0.625380  0.383600  1.0
  C  C2190  1  0.475000  0.625380  0.116400  1.0
  C  C2191  1  0.025000  0.125380  0.383600  1.0
  C  C2192  1  0.975000  0.125380  0.116400  1.0
  C  C2193  1  0.423360  0.109070  0.643050  1.0
  C  C2194  1  0.576640  0.109070  0.856950  1.0
  C  C2195  1  0.923360  0.609070  0.643050  1.0
  C  C2196  1  0.076640  0.609070  0.856950  1.0
  C  C2197  1  0.576640  0.890930  0.356950  1.0
  C  C2198  1  0.423360  0.890930  0.143050  1.0
  C  C2199  1  0.076640  0.390930  0.356950  1.0
  C  C2200  1  0.923360  0.390930  0.143050  1.0
  C  C2201  1  0.449600  0.137930  0.658170  1.0
  C  C2202  1  0.550400  0.137930  0.841830  1.0
  C  C2203  1  0.949600  0.637930  0.658170  1.0
  C  C2204  1  0.050400  0.637930  0.841830  1.0
  C  C2205  1  0.550400  0.862070  0.341830  1.0
  C  C2206  1  0.449600  0.862070  0.158170  1.0
  C  C2207  1  0.050400  0.362070  0.341830  1.0
  C  C2208  1  0.949600  0.362070  0.158170  1.0
  C  C2209  1  0.496300  0.134590  0.682360  1.0
  C  C2210  1  0.503700  0.134590  0.817640  1.0
  C  C2211  1  0.996300  0.634590  0.682360  1.0
  C  C2212  1  0.003700  0.634590  0.817640  1.0
  C  C2213  1  0.503700  0.865410  0.317640  1.0
  C  C2214  1  0.496300  0.865410  0.182360  1.0
  C  C2215  1  0.003700  0.365410  0.317640  1.0
  C  C2216  1  0.996300  0.365410  0.182360  1.0
  C  C2217  1  0.516900  0.102380  0.691430  1.0
  C  C2218  1  0.483100  0.102380  0.808570  1.0
  C  C2219  1  0.016900  0.602380  0.691430  1.0
  C  C2220  1  0.983100  0.602380  0.808570  1.0
  C  C2221  1  0.483100  0.897620  0.308570  1.0
  C  C2222  1  0.516900  0.897620  0.191430  1.0
  C  C2223  1  0.983100  0.397620  0.308570  1.0
  C  C2224  1  0.016900  0.397620  0.191430  1.0
  C  C2225  1  0.490700  0.073520  0.676310  1.0
  C  C2226  1  0.509300  0.073520  0.823690  1.0
  C  C2227  1  0.990700  0.573520  0.676310  1.0
  C  C2228  1  0.009300  0.573520  0.823690  1.0
  C  C2229  1  0.509300  0.926480  0.323690  1.0
  C  C2230  1  0.490700  0.926480  0.176310  1.0
  C  C2231  1  0.009300  0.426480  0.323690  1.0
  C  C2232  1  0.990700  0.426480  0.176310  1.0
  C  C2233  1  0.522900  0.166900  0.698900  1.0
  C  C2234  1  0.477100  0.166900  0.801100  1.0
  C  C2235  1  0.022900  0.666900  0.698900  1.0
  C  C2236  1  0.977100  0.666900  0.801100  1.0
  C  C2237  1  0.477100  0.833100  0.301100  1.0
  C  C2238  1  0.522900  0.833100  0.198900  1.0
  C  C2239  1  0.977100  0.333100  0.301100  1.0
  C  C2240  1  0.022900  0.333100  0.198900  1.0
  C  C2241  1  0.297600  0.125110  0.585980  1.0
  C  C2242  1  0.702400  0.125110  0.914020  1.0
  C  C2243  1  0.797600  0.625110  0.585980  1.0
  C  C2244  1  0.202400  0.625110  0.914020  1.0
  C  C2245  1  0.702400  0.874890  0.414020  1.0
  C  C2246  1  0.297600  0.874890  0.085980  1.0
  C  C2247  1  0.202400  0.374890  0.414020  1.0
  C  C2248  1  0.797600  0.374890  0.085980  1.0
  C  C2249  1  0.343900  0.138650  0.606900  1.0
  C  C2250  1  0.656100  0.138650  0.893100  1.0
  C  C2251  1  0.843900  0.638650  0.606900  1.0
  C  C2252  1  0.156100  0.638650  0.893100  1.0
  C  C2253  1  0.656100  0.861350  0.393100  1.0
  C  C2254  1  0.343900  0.861350  0.106900  1.0
  C  C2255  1  0.156100  0.361350  0.393100  1.0
  C  C2256  1  0.843900  0.361350  0.106900  1.0
  C  C2257  1  0.377100  0.110940  0.619890  1.0
  C  C2258  1  0.622900  0.110940  0.880110  1.0
  C  C2259  1  0.877100  0.610940  0.619890  1.0
  C  C2260  1  0.122900  0.610940  0.880110  1.0
  C  C2261  1  0.622900  0.889060  0.380110  1.0
  C  C2262  1  0.377100  0.889060  0.119890  1.0
  C  C2263  1  0.122900  0.389060  0.380110  1.0
  C  C2264  1  0.877100  0.389060  0.119890  1.0
  C  C2265  1  0.265500  0.065500  0.566400  1.0
  C  C2266  1  0.734500  0.065500  0.933600  1.0
  C  C2267  1  0.765500  0.565500  0.566400  1.0
  C  C2268  1  0.234500  0.565500  0.933600  1.0
  C  C2269  1  0.734500  0.934500  0.433600  1.0
  C  C2270  1  0.265500  0.934500  0.066400  1.0
  C  C2271  1  0.234500  0.434500  0.433600  1.0
  C  C2272  1  0.765500  0.434500  0.066400  1.0
  C  C2273  1  0.076000  0.966700  0.343000  1.0
  C  C2274  1  0.924000  0.966700  0.157000  1.0
  C  C2275  1  0.576000  0.466700  0.343000  1.0
  C  C2276  1  0.424000  0.466700  0.157000  1.0
  C  C2277  1  0.924000  0.033300  0.657000  1.0
  C  C2278  1  0.076000  0.033300  0.843000  1.0
  C  C2279  1  0.424000  0.533300  0.657000  1.0
  C  C2280  1  0.576000  0.533300  0.843000  1.0
  C  C2281  1  0.044300  0.941100  0.325300  1.0
  C  C2282  1  0.955700  0.941100  0.174700  1.0
  C  C2283  1  0.544300  0.441100  0.325300  1.0
  C  C2284  1  0.455700  0.441100  0.174700  1.0
  C  C2285  1  0.955700  0.058900  0.674700  1.0
  C  C2286  1  0.044300  0.058900  0.825300  1.0
  C  C2287  1  0.455700  0.558900  0.674700  1.0
  C  C2288  1  0.544300  0.558900  0.825300  1.0
  C  C2289  1  0.998300  0.949500  0.302100  1.0
  C  C2290  1  0.001700  0.949500  0.197900  1.0
  C  C2291  1  0.498300  0.449500  0.302100  1.0
  C  C2292  1  0.501700  0.449500  0.197900  1.0
  C  C2293  1  0.001700  0.050500  0.697900  1.0
  C  C2294  1  0.998300  0.050500  0.802100  1.0
  C  C2295  1  0.501700  0.550500  0.697900  1.0
  C  C2296  1  0.498300  0.550500  0.802100  1.0
  C  C2297  1  0.983900  0.983500  0.296500  1.0
  C  C2298  1  0.016100  0.983500  0.203500  1.0
  C  C2299  1  0.483900  0.483500  0.296500  1.0
  C  C2300  1  0.516100  0.483500  0.203500  1.0
  C  C2301  1  0.016100  0.016500  0.703500  1.0
  C  C2302  1  0.983900  0.016500  0.796500  1.0
  C  C2303  1  0.516100  0.516500  0.703500  1.0
  C  C2304  1  0.483900  0.516500  0.796500  1.0
  C  C2305  1  0.015500  0.009100  0.314100  1.0
  C  C2306  1  0.984500  0.009100  0.185900  1.0
  C  C2307  1  0.515500  0.509100  0.314100  1.0
  C  C2308  1  0.484500  0.509100  0.185900  1.0
  C  C2309  1  0.984500  0.990900  0.685900  1.0
  C  C2310  1  0.015500  0.990900  0.814100  1.0
  C  C2311  1  0.484500  0.490900  0.685900  1.0
  C  C2312  1  0.515500  0.490900  0.814100  1.0
  C  C2313  1  0.959000  0.921700  0.285800  1.0
  C  C2314  1  0.041000  0.921700  0.214200  1.0
  C  C2315  1  0.459000  0.421700  0.285800  1.0
  C  C2316  1  0.541000  0.421700  0.214200  1.0
  C  C2317  1  0.041000  0.078300  0.714200  1.0
  C  C2318  1  0.959000  0.078300  0.785800  1.0
  C  C2319  1  0.541000  0.578300  0.714200  1.0
  C  C2320  1  0.459000  0.578300  0.785800  1.0
  C  C2321  1  0.193500  0.939000  0.401800  1.0
  C  C2322  1  0.806500  0.939000  0.098200  1.0
  C  C2323  1  0.693500  0.439000  0.401800  1.0
  C  C2324  1  0.306500  0.439000  0.098200  1.0
  C  C2325  1  0.806500  0.061000  0.598200  1.0
  C  C2326  1  0.193500  0.061000  0.901800  1.0
  C  C2327  1  0.306500  0.561000  0.598200  1.0
  C  C2328  1  0.693500  0.561000  0.901800  1.0
  C  C2329  1  0.145900  0.930240  0.378700  1.0
  C  C2330  1  0.854100  0.930240  0.121300  1.0
  C  C2331  1  0.645900  0.430240  0.378700  1.0
  C  C2332  1  0.354100  0.430240  0.121300  1.0
  C  C2333  1  0.854100  0.069760  0.621300  1.0
  C  C2334  1  0.145900  0.069760  0.878700  1.0
  C  C2335  1  0.354100  0.569760  0.621300  1.0
  C  C2336  1  0.645900  0.569760  0.878700  1.0
  C  C2337  1  0.119300  0.960900  0.366800  1.0
  C  C2338  1  0.880700  0.960900  0.133200  1.0
  C  C2339  1  0.619300  0.460900  0.366800  1.0
  C  C2340  1  0.380700  0.460900  0.133200  1.0
  C  C2341  1  0.880700  0.039100  0.633200  1.0
  C  C2342  1  0.119300  0.039100  0.866800  1.0
  C  C2343  1  0.380700  0.539100  0.633200  1.0
  C  C2344  1  0.619300  0.539100  0.866800  1.0
  C  C2345  1  0.231400  0.994700  0.426400  1.0
  C  C2346  1  0.768600  0.994700  0.073600  1.0
  C  C2347  1  0.731400  0.494700  0.426400  1.0
  C  C2348  1  0.268600  0.494700  0.073600  1.0
  C  C2349  1  0.768600  0.005300  0.573600  1.0
  C  C2350  1  0.231400  0.005300  0.926400  1.0
  C  C2351  1  0.268600  0.505300  0.573600  1.0
  C  C2352  1  0.731400  0.505300  0.926400  1.0
  C  C2353  1  0.275200  0.056940  0.533170  1.0
  C  C2354  1  0.724800  0.056940  0.966830  1.0
  C  C2355  1  0.775200  0.556940  0.533170  1.0
  C  C2356  1  0.224800  0.556940  0.966830  1.0
  C  C2357  1  0.724800  0.943060  0.466830  1.0
  C  C2358  1  0.275200  0.943060  0.033170  1.0
  C  C2359  1  0.224800  0.443060  0.466830  1.0
  C  C2360  1  0.775200  0.443060  0.033170  1.0
  C  C2361  1  0.317500  0.070730  0.526140  1.0
  C  C2362  1  0.682500  0.070730  0.973860  1.0
  C  C2363  1  0.817500  0.570730  0.526140  1.0
  C  C2364  1  0.182500  0.570730  0.973860  1.0
  C  C2365  1  0.682500  0.929270  0.473860  1.0
  C  C2366  1  0.317500  0.929270  0.026140  1.0
  C  C2367  1  0.182500  0.429270  0.473860  1.0
  C  C2368  1  0.817500  0.429270  0.026140  1.0
  C  C2369  1  0.327630  0.062470  0.496540  1.0
  C  C2370  1  0.672370  0.062470  0.003460  1.0
  C  C2371  1  0.827630  0.562470  0.496540  1.0
  C  C2372  1  0.172370  0.562470  0.003460  1.0
  C  C2373  1  0.672370  0.937530  0.503460  1.0
  C  C2374  1  0.327630  0.937530  0.996540  1.0
  C  C2375  1  0.172370  0.437530  0.503460  1.0
  C  C2376  1  0.827630  0.437530  0.996540  1.0
  C  C2377  1  0.295500  0.040410  0.473980  1.0
  C  C2378  1  0.704500  0.040410  0.026020  1.0
  C  C2379  1  0.795500  0.540410  0.473980  1.0
  C  C2380  1  0.204500  0.540410  0.026020  1.0
  C  C2381  1  0.704500  0.959590  0.526020  1.0
  C  C2382  1  0.295500  0.959590  0.973980  1.0
  C  C2383  1  0.204500  0.459590  0.526020  1.0
  C  C2384  1  0.795500  0.459590  0.973980  1.0
  C  C2385  1  0.253210  0.026610  0.481010  1.0
  C  C2386  1  0.746790  0.026610  0.018990  1.0
  C  C2387  1  0.753210  0.526610  0.481010  1.0
  C  C2388  1  0.246790  0.526610  0.018990  1.0
  C  C2389  1  0.746790  0.973390  0.518990  1.0
  C  C2390  1  0.253210  0.973390  0.981010  1.0
  C  C2391  1  0.246790  0.473390  0.518990  1.0
  C  C2392  1  0.753210  0.473390  0.981010  1.0
  C  C2393  1  0.243050  0.034880  0.510600  1.0
  C  C2394  1  0.756950  0.034880  0.989400  1.0
  C  C2395  1  0.743050  0.534880  0.510600  1.0
  C  C2396  1  0.256950  0.534880  0.989400  1.0
  C  C2397  1  0.756950  0.965120  0.489400  1.0
  C  C2398  1  0.243050  0.965120  0.010600  1.0
  C  C2399  1  0.256950  0.465120  0.489400  1.0
  C  C2400  1  0.743050  0.465120  0.010600  1.0
  C  C2401  1  0.200800  0.021080  0.517630  1.0
  C  C2402  1  0.799200  0.021080  0.982370  1.0
  C  C2403  1  0.700800  0.521080  0.517630  1.0
  C  C2404  1  0.299200  0.521080  0.982370  1.0
  C  C2405  1  0.799200  0.978920  0.482370  1.0
  C  C2406  1  0.200800  0.978920  0.017630  1.0
  C  C2407  1  0.299200  0.478920  0.482370  1.0
  C  C2408  1  0.700800  0.478920  0.017630  1.0
  C  C2409  1  0.168630  0.999020  0.495070  1.0
  C  C2410  1  0.831370  0.999020  0.004930  1.0
  C  C2411  1  0.668630  0.499020  0.495070  1.0
  C  C2412  1  0.331370  0.499020  0.004930  1.0
  C  C2413  1  0.831370  0.000980  0.504930  1.0
  C  C2414  1  0.168630  0.000980  0.995070  1.0
  C  C2415  1  0.331370  0.500980  0.504930  1.0
  C  C2416  1  0.668630  0.500980  0.995070  1.0
  C  C2417  1  0.178800  0.990750  0.465470  1.0
  C  C2418  1  0.821200  0.990750  0.034530  1.0
  C  C2419  1  0.678800  0.490750  0.465470  1.0
  C  C2420  1  0.321200  0.490750  0.034530  1.0
  C  C2421  1  0.821200  0.009250  0.534530  1.0
  C  C2422  1  0.178800  0.009250  0.965470  1.0
  C  C2423  1  0.321200  0.509250  0.534530  1.0
  C  C2424  1  0.678800  0.509250  0.965470  1.0
  C  C2425  1  0.221100  0.004550  0.458440  1.0
  C  C2426  1  0.778900  0.004550  0.041560  1.0
  C  C2427  1  0.721100  0.504550  0.458440  1.0
  C  C2428  1  0.278900  0.504550  0.041560  1.0
  C  C2429  1  0.778900  0.995450  0.541560  1.0
  C  C2430  1  0.221100  0.995450  0.958440  1.0
  C  C2431  1  0.278900  0.495450  0.541560  1.0
  C  C2432  1  0.721100  0.495450  0.958440  1.0
  C  C2433  1  0.351900  0.209030  0.339480  1.0
  C  C2434  1  0.648100  0.209030  0.160520  1.0
  C  C2435  1  0.851900  0.709030  0.339480  1.0
  C  C2436  1  0.148100  0.709030  0.160520  1.0
  C  C2437  1  0.648100  0.790970  0.660520  1.0
  C  C2438  1  0.351900  0.790970  0.839480  1.0
  C  C2439  1  0.148100  0.290970  0.660520  1.0
  C  C2440  1  0.851900  0.290970  0.839480  1.0
  C  C2441  1  0.379500  0.183340  0.359730  1.0
  C  C2442  1  0.620500  0.183340  0.140270  1.0
  C  C2443  1  0.879500  0.683340  0.359730  1.0
  C  C2444  1  0.120500  0.683340  0.140270  1.0
  C  C2445  1  0.620500  0.816660  0.640270  1.0
  C  C2446  1  0.379500  0.816660  0.859730  1.0
  C  C2447  1  0.120500  0.316660  0.640270  1.0
  C  C2448  1  0.879500  0.316660  0.859730  1.0
  C  C2449  1  0.419400  0.167490  0.351480  1.0
  C  C2450  1  0.580600  0.167490  0.148520  1.0
  C  C2451  1  0.919400  0.667490  0.351480  1.0
  C  C2452  1  0.080600  0.667490  0.148520  1.0
  C  C2453  1  0.580600  0.832510  0.648520  1.0
  C  C2454  1  0.419400  0.832510  0.851480  1.0
  C  C2455  1  0.080600  0.332510  0.648520  1.0
  C  C2456  1  0.919400  0.332510  0.851480  1.0
  C  C2457  1  0.431700  0.177320  0.323000  1.0
  C  C2458  1  0.568300  0.177320  0.177000  1.0
  C  C2459  1  0.931700  0.677320  0.323000  1.0
  C  C2460  1  0.068300  0.677320  0.177000  1.0
  C  C2461  1  0.568300  0.822680  0.677000  1.0
  C  C2462  1  0.431700  0.822680  0.823000  1.0
  C  C2463  1  0.068300  0.322680  0.677000  1.0
  C  C2464  1  0.931700  0.322680  0.823000  1.0
  C  C2465  1  0.404100  0.203010  0.302750  1.0
  C  C2466  1  0.595900  0.203010  0.197250  1.0
  C  C2467  1  0.904100  0.703010  0.302750  1.0
  C  C2468  1  0.095900  0.703010  0.197250  1.0
  C  C2469  1  0.595900  0.796990  0.697250  1.0
  C  C2470  1  0.404100  0.796990  0.802750  1.0
  C  C2471  1  0.095900  0.296990  0.697250  1.0
  C  C2472  1  0.904100  0.296990  0.802750  1.0
  C  C2473  1  0.450100  0.140400  0.375400  1.0
  C  C2474  1  0.549900  0.140400  0.124600  1.0
  C  C2475  1  0.950100  0.640400  0.375400  1.0
  C  C2476  1  0.049900  0.640400  0.124600  1.0
  C  C2477  1  0.549900  0.859600  0.624600  1.0
  C  C2478  1  0.450100  0.859600  0.875400  1.0
  C  C2479  1  0.049900  0.359600  0.624600  1.0
  C  C2480  1  0.950100  0.359600  0.875400  1.0
  C  C2481  1  0.242700  0.241150  0.362310  1.0
  C  C2482  1  0.757300  0.241150  0.137690  1.0
  C  C2483  1  0.742700  0.741150  0.362310  1.0
  C  C2484  1  0.257300  0.741150  0.137690  1.0
  C  C2485  1  0.757300  0.758850  0.637690  1.0
  C  C2486  1  0.242700  0.758850  0.862310  1.0
  C  C2487  1  0.257300  0.258850  0.637690  1.0
  C  C2488  1  0.742700  0.258850  0.862310  1.0
  C  C2489  1  0.286300  0.219720  0.369940  1.0
  C  C2490  1  0.713700  0.219720  0.130060  1.0
  C  C2491  1  0.786300  0.719720  0.369940  1.0
  C  C2492  1  0.213700  0.719720  0.130060  1.0
  C  C2493  1  0.713700  0.780280  0.630060  1.0
  C  C2494  1  0.286300  0.780280  0.869940  1.0
  C  C2495  1  0.213700  0.280280  0.630060  1.0
  C  C2496  1  0.786300  0.280280  0.869940  1.0
  C  C2497  1  0.310800  0.224380  0.344830  1.0
  C  C2498  1  0.689200  0.224380  0.155170  1.0
  C  C2499  1  0.810800  0.724380  0.344830  1.0
  C  C2500  1  0.189200  0.724380  0.155170  1.0
  C  C2501  1  0.689200  0.775620  0.655170  1.0
  C  C2502  1  0.310800  0.775620  0.844830  1.0
  C  C2503  1  0.189200  0.275620  0.655170  1.0
  C  C2504  1  0.810800  0.275620  0.844830  1.0
  C  C2505  1  0.206600  0.285300  0.316200  1.0
  C  C2506  1  0.793400  0.285300  0.183800  1.0
  C  C2507  1  0.706600  0.785300  0.316200  1.0
  C  C2508  1  0.293400  0.785300  0.183800  1.0
  C  C2509  1  0.793400  0.714700  0.683800  1.0
  C  C2510  1  0.206600  0.714700  0.816200  1.0
  C  C2511  1  0.293400  0.214700  0.683800  1.0
  C  C2512  1  0.706600  0.214700  0.816200  1.0
  C  C2513  1  0.054300  0.517600  0.322400  1.0
  C  C2514  1  0.945700  0.517600  0.177600  1.0
  C  C2515  1  0.554300  0.017600  0.322400  1.0
  C  C2516  1  0.445700  0.017600  0.177600  1.0
  C  C2517  1  0.945700  0.482400  0.677600  1.0
  C  C2518  1  0.054300  0.482400  0.822400  1.0
  C  C2519  1  0.445700  0.982400  0.677600  1.0
  C  C2520  1  0.554300  0.982400  0.822400  1.0
  C  C2521  1  0.022800  0.543400  0.304930  1.0
  C  C2522  1  0.977200  0.543400  0.195070  1.0
  C  C2523  1  0.522800  0.043400  0.304930  1.0
  C  C2524  1  0.477200  0.043400  0.195070  1.0
  C  C2525  1  0.977200  0.456600  0.695070  1.0
  C  C2526  1  0.022800  0.456600  0.804930  1.0
  C  C2527  1  0.477200  0.956600  0.695070  1.0
  C  C2528  1  0.522800  0.956600  0.804930  1.0
  C  C2529  1  0.982500  0.555090  0.315600  1.0
  C  C2530  1  0.017500  0.555090  0.184400  1.0
  C  C2531  1  0.482500  0.055090  0.315600  1.0
  C  C2532  1  0.517500  0.055090  0.184400  1.0
  C  C2533  1  0.017500  0.444910  0.684400  1.0
  C  C2534  1  0.982500  0.444910  0.815600  1.0
  C  C2535  1  0.517500  0.944910  0.684400  1.0
  C  C2536  1  0.482500  0.944910  0.815600  1.0
  C  C2537  1  0.973800  0.541100  0.343900  1.0
  C  C2538  1  0.026200  0.541100  0.156100  1.0
  C  C2539  1  0.473800  0.041100  0.343900  1.0
  C  C2540  1  0.526200  0.041100  0.156100  1.0
  C  C2541  1  0.026200  0.458900  0.656100  1.0
  C  C2542  1  0.973800  0.458900  0.843900  1.0
  C  C2543  1  0.526200  0.958900  0.656100  1.0
  C  C2544  1  0.473800  0.958900  0.843900  1.0
  C  C2545  1  0.005300  0.515390  0.361400  1.0
  C  C2546  1  0.994700  0.515390  0.138600  1.0
  C  C2547  1  0.505300  0.015390  0.361400  1.0
  C  C2548  1  0.494700  0.015390  0.138600  1.0
  C  C2549  1  0.994700  0.484610  0.638600  1.0
  C  C2550  1  0.005300  0.484610  0.861400  1.0
  C  C2551  1  0.494700  0.984610  0.638600  1.0
  C  C2552  1  0.505300  0.984610  0.861400  1.0
  C  C2553  1  0.943600  0.581100  0.295100  1.0
  C  C2554  1  0.056400  0.581100  0.204900  1.0
  C  C2555  1  0.443600  0.081100  0.295100  1.0
  C  C2556  1  0.556400  0.081100  0.204900  1.0
  C  C2557  1  0.056400  0.418900  0.704900  1.0
  C  C2558  1  0.943600  0.418900  0.795100  1.0
  C  C2559  1  0.556400  0.918900  0.704900  1.0
  C  C2560  1  0.443600  0.918900  0.795100  1.0
  C  C2561  1  0.159800  0.493300  0.291400  1.0
  C  C2562  1  0.840200  0.493300  0.208600  1.0
  C  C2563  1  0.659800  0.993300  0.291400  1.0
  C  C2564  1  0.340200  0.993300  0.208600  1.0
  C  C2565  1  0.840200  0.506700  0.708600  1.0
  C  C2566  1  0.159800  0.506700  0.791400  1.0
  C  C2567  1  0.340200  0.006700  0.708600  1.0
  C  C2568  1  0.659800  0.006700  0.791400  1.0
  C  C2569  1  0.114600  0.512600  0.287100  1.0
  C  C2570  1  0.885400  0.512600  0.212900  1.0
  C  C2571  1  0.614600  0.012600  0.287100  1.0
  C  C2572  1  0.385400  0.012600  0.212900  1.0
  C  C2573  1  0.885400  0.487400  0.712900  1.0
  C  C2574  1  0.114600  0.487400  0.787100  1.0
  C  C2575  1  0.385400  0.987400  0.712900  1.0
  C  C2576  1  0.614600  0.987400  0.787100  1.0
  C  C2577  1  0.093900  0.504000  0.313300  1.0
  C  C2578  1  0.906100  0.504000  0.186700  1.0
  C  C2579  1  0.593900  0.004000  0.313300  1.0
  C  C2580  1  0.406100  0.004000  0.186700  1.0
  C  C2581  1  0.906100  0.496000  0.686700  1.0
  C  C2582  1  0.093900  0.496000  0.813300  1.0
  C  C2583  1  0.406100  0.996000  0.686700  1.0
  C  C2584  1  0.593900  0.996000  0.813300  1.0
  C  C2585  1  0.199500  0.445300  0.331600  1.0
  C  C2586  1  0.800500  0.445300  0.168400  1.0
  C  C2587  1  0.699500  0.945300  0.331600  1.0
  C  C2588  1  0.300500  0.945300  0.168400  1.0
  C  C2589  1  0.800500  0.554700  0.668400  1.0
  C  C2590  1  0.199500  0.554700  0.831600  1.0
  C  C2591  1  0.300500  0.054700  0.668400  1.0
  C  C2592  1  0.699500  0.054700  0.831600  1.0
  C  C2593  1  0.223300  0.321120  0.329750  1.0
  C  C2594  1  0.776700  0.321120  0.170250  1.0
  C  C2595  1  0.723300  0.821120  0.329750  1.0
  C  C2596  1  0.276700  0.821120  0.170250  1.0
  C  C2597  1  0.776700  0.678880  0.670250  1.0
  C  C2598  1  0.223300  0.678880  0.829750  1.0
  C  C2599  1  0.276700  0.178880  0.670250  1.0
  C  C2600  1  0.723300  0.178880  0.829750  1.0
  C  C2601  1  0.270800  0.324820  0.353140  1.0
  C  C2602  1  0.729200  0.324820  0.146860  1.0
  C  C2603  1  0.770800  0.824820  0.353140  1.0
  C  C2604  1  0.229200  0.824820  0.146860  1.0
  C  C2605  1  0.729200  0.675180  0.646860  1.0
  C  C2606  1  0.270800  0.675180  0.853140  1.0
  C  C2607  1  0.229200  0.175180  0.646860  1.0
  C  C2608  1  0.770800  0.175180  0.853140  1.0
  C  C2609  1  0.288180  0.357050  0.365010  1.0
  C  C2610  1  0.711820  0.357050  0.134990  1.0
  C  C2611  1  0.788180  0.857050  0.365010  1.0
  C  C2612  1  0.211820  0.857050  0.134990  1.0
  C  C2613  1  0.711820  0.642950  0.634990  1.0
  C  C2614  1  0.288180  0.642950  0.865010  1.0
  C  C2615  1  0.211820  0.142950  0.634990  1.0
  C  C2616  1  0.788180  0.142950  0.865010  1.0
  C  C2617  1  0.258100  0.385570  0.353490  1.0
  C  C2618  1  0.741900  0.385570  0.146510  1.0
  C  C2619  1  0.758100  0.885570  0.353490  1.0
  C  C2620  1  0.241900  0.885570  0.146510  1.0
  C  C2621  1  0.741900  0.614430  0.646510  1.0
  C  C2622  1  0.258100  0.614430  0.853490  1.0
  C  C2623  1  0.241900  0.114430  0.646510  1.0
  C  C2624  1  0.758100  0.114430  0.853490  1.0
  C  C2625  1  0.210630  0.381870  0.330100  1.0
  C  C2626  1  0.789370  0.381870  0.169900  1.0
  C  C2627  1  0.710630  0.881870  0.330100  1.0
  C  C2628  1  0.289370  0.881870  0.169900  1.0
  C  C2629  1  0.789370  0.618130  0.669900  1.0
  C  C2630  1  0.210630  0.618130  0.830100  1.0
  C  C2631  1  0.289370  0.118130  0.669900  1.0
  C  C2632  1  0.710630  0.118130  0.830100  1.0
  C  C2633  1  0.193240  0.349640  0.318230  1.0
  C  C2634  1  0.806760  0.349640  0.181770  1.0
  C  C2635  1  0.693240  0.849640  0.318230  1.0
  C  C2636  1  0.306760  0.849640  0.181770  1.0
  C  C2637  1  0.806760  0.650360  0.681770  1.0
  C  C2638  1  0.193240  0.650360  0.818230  1.0
  C  C2639  1  0.306760  0.150360  0.681770  1.0
  C  C2640  1  0.693240  0.150360  0.818230  1.0
  C  C2641  1  0.145770  0.345940  0.294840  1.0
  C  C2642  1  0.854230  0.345940  0.205160  1.0
  C  C2643  1  0.645770  0.845940  0.294840  1.0
  C  C2644  1  0.354230  0.845940  0.205160  1.0
  C  C2645  1  0.854230  0.654060  0.705160  1.0
  C  C2646  1  0.145770  0.654060  0.794840  1.0
  C  C2647  1  0.354230  0.154060  0.705160  1.0
  C  C2648  1  0.645770  0.154060  0.794840  1.0
  C  C2649  1  0.115680  0.374470  0.283320  1.0
  C  C2650  1  0.884320  0.374470  0.216680  1.0
  C  C2651  1  0.615680  0.874470  0.283320  1.0
  C  C2652  1  0.384320  0.874470  0.216680  1.0
  C  C2653  1  0.884320  0.625530  0.716680  1.0
  C  C2654  1  0.115680  0.625530  0.783320  1.0
  C  C2655  1  0.384320  0.125530  0.716680  1.0
  C  C2656  1  0.615680  0.125530  0.783320  1.0
  C  C2657  1  0.133100  0.406690  0.295190  1.0
  C  C2658  1  0.866900  0.406690  0.204810  1.0
  C  C2659  1  0.633100  0.906690  0.295190  1.0
  C  C2660  1  0.366900  0.906690  0.204810  1.0
  C  C2661  1  0.866900  0.593310  0.704810  1.0
  C  C2662  1  0.133100  0.593310  0.795190  1.0
  C  C2663  1  0.366900  0.093310  0.704810  1.0
  C  C2664  1  0.633100  0.093310  0.795190  1.0
  C  C2665  1  0.180500  0.410390  0.318580  1.0
  C  C2666  1  0.819500  0.410390  0.181420  1.0
  C  C2667  1  0.680500  0.910390  0.318580  1.0
  C  C2668  1  0.319500  0.910390  0.181420  1.0
  C  C2669  1  0.819500  0.589610  0.681420  1.0
  C  C2670  1  0.180500  0.589610  0.818580  1.0
  C  C2671  1  0.319500  0.089610  0.681420  1.0
  C  C2672  1  0.680500  0.089610  0.818580  1.0
  C  C2673  1  0.341400  0.242300  0.218000  1.0
  C  C2674  1  0.658600  0.242300  0.282000  1.0
  C  C2675  1  0.841400  0.742300  0.218000  1.0
  C  C2676  1  0.158600  0.742300  0.282000  1.0
  C  C2677  1  0.658600  0.757700  0.782000  1.0
  C  C2678  1  0.341400  0.757700  0.718000  1.0
  C  C2679  1  0.158600  0.257700  0.782000  1.0
  C  C2680  1  0.841400  0.257700  0.718000  1.0
  C  C2681  1  0.367700  0.240200  0.194400  1.0
  C  C2682  1  0.632300  0.240200  0.305600  1.0
  C  C2683  1  0.867700  0.740200  0.194400  1.0
  C  C2684  1  0.132300  0.740200  0.305600  1.0
  C  C2685  1  0.632300  0.759800  0.805600  1.0
  C  C2686  1  0.367700  0.759800  0.694400  1.0
  C  C2687  1  0.132300  0.259800  0.805600  1.0
  C  C2688  1  0.867700  0.259800  0.694400  1.0
  C  C2689  1  0.411700  0.259400  0.198300  1.0
  C  C2690  1  0.588300  0.259400  0.301700  1.0
  C  C2691  1  0.911700  0.759400  0.198300  1.0
  C  C2692  1  0.088300  0.759400  0.301700  1.0
  C  C2693  1  0.588300  0.740600  0.801700  1.0
  C  C2694  1  0.411700  0.740600  0.698300  1.0
  C  C2695  1  0.088300  0.240600  0.801700  1.0
  C  C2696  1  0.911700  0.240600  0.698300  1.0
  C  C2697  1  0.429300  0.280600  0.225800  1.0
  C  C2698  1  0.570700  0.280600  0.274200  1.0
  C  C2699  1  0.929300  0.780600  0.225800  1.0
  C  C2700  1  0.070700  0.780600  0.274200  1.0
  C  C2701  1  0.570700  0.719400  0.774200  1.0
  C  C2702  1  0.429300  0.719400  0.725800  1.0
  C  C2703  1  0.070700  0.219400  0.774200  1.0
  C  C2704  1  0.929300  0.219400  0.725800  1.0
  C  C2705  1  0.403000  0.282700  0.249400  1.0
  C  C2706  1  0.597000  0.282700  0.250600  1.0
  C  C2707  1  0.903000  0.782700  0.249400  1.0
  C  C2708  1  0.097000  0.782700  0.250600  1.0
  C  C2709  1  0.597000  0.717300  0.750600  1.0
  C  C2710  1  0.403000  0.717300  0.749400  1.0
  C  C2711  1  0.097000  0.217300  0.750600  1.0
  C  C2712  1  0.903000  0.217300  0.749400  1.0
  C  C2713  1  0.443800  0.258800  0.174000  1.0
  C  C2714  1  0.556200  0.258800  0.326000  1.0
  C  C2715  1  0.943800  0.758800  0.174000  1.0
  C  C2716  1  0.056200  0.758800  0.326000  1.0
  C  C2717  1  0.556200  0.741200  0.826000  1.0
  C  C2718  1  0.443800  0.741200  0.674000  1.0
  C  C2719  1  0.056200  0.241200  0.826000  1.0
  C  C2720  1  0.943800  0.241200  0.674000  1.0
  C  C2721  1  0.232300  0.187400  0.205200  1.0
  C  C2722  1  0.767700  0.187400  0.294800  1.0
  C  C2723  1  0.732300  0.687400  0.205200  1.0
  C  C2724  1  0.267700  0.687400  0.294800  1.0
  C  C2725  1  0.767700  0.812600  0.794800  1.0
  C  C2726  1  0.232300  0.812600  0.705200  1.0
  C  C2727  1  0.267700  0.312600  0.794800  1.0
  C  C2728  1  0.732300  0.312600  0.705200  1.0
  C  C2729  1  0.271600  0.200400  0.192940  1.0
  C  C2730  1  0.728400  0.200400  0.307060  1.0
  C  C2731  1  0.771600  0.700400  0.192940  1.0
  C  C2732  1  0.228400  0.700400  0.307060  1.0
  C  C2733  1  0.728400  0.799600  0.807060  1.0
  C  C2734  1  0.271600  0.799600  0.692940  1.0
  C  C2735  1  0.228400  0.299600  0.807060  1.0
  C  C2736  1  0.771600  0.299600  0.692940  1.0
  C  C2737  1  0.301300  0.223400  0.217000  1.0
  C  C2738  1  0.698700  0.223400  0.283000  1.0
  C  C2739  1  0.801300  0.723400  0.217000  1.0
  C  C2740  1  0.198700  0.723400  0.283000  1.0
  C  C2741  1  0.698700  0.776600  0.783000  1.0
  C  C2742  1  0.301300  0.776600  0.717000  1.0
  C  C2743  1  0.198700  0.276600  0.783000  1.0
  C  C2744  1  0.801300  0.276600  0.717000  1.0
  C  C2745  1  0.211500  0.194500  0.260400  1.0
  C  C2746  1  0.788500  0.194500  0.239600  1.0
  C  C2747  1  0.711500  0.694500  0.260400  1.0
  C  C2748  1  0.288500  0.694500  0.239600  1.0
  C  C2749  1  0.788500  0.805500  0.739600  1.0
  C  C2750  1  0.211500  0.805500  0.760400  1.0
  C  C2751  1  0.288500  0.305500  0.739600  1.0
  C  C2752  1  0.711500  0.305500  0.760400  1.0
  C  C2753  1  0.107100  0.061530  0.433020  1.0
  C  C2754  1  0.892900  0.061530  0.066980  1.0
  C  C2755  1  0.607100  0.561530  0.433020  1.0
  C  C2756  1  0.392900  0.561530  0.066980  1.0
  C  C2757  1  0.892900  0.938470  0.566980  1.0
  C  C2758  1  0.107100  0.938470  0.933020  1.0
  C  C2759  1  0.392900  0.438470  0.566980  1.0
  C  C2760  1  0.607100  0.438470  0.933020  1.0
  C  C2761  1  0.088300  0.065550  0.460110  1.0
  C  C2762  1  0.911700  0.065550  0.039890  1.0
  C  C2763  1  0.588300  0.565550  0.460110  1.0
  C  C2764  1  0.411700  0.565550  0.039890  1.0
  C  C2765  1  0.911700  0.934450  0.539890  1.0
  C  C2766  1  0.088300  0.934450  0.960110  1.0
  C  C2767  1  0.411700  0.434450  0.539890  1.0
  C  C2768  1  0.588300  0.434450  0.960110  1.0
  C  C2769  1  0.046300  0.046740  0.461940  1.0
  C  C2770  1  0.953700  0.046740  0.038060  1.0
  C  C2771  1  0.546300  0.546740  0.461940  1.0
  C  C2772  1  0.453700  0.546740  0.038060  1.0
  C  C2773  1  0.953700  0.953260  0.538060  1.0
  C  C2774  1  0.046300  0.953260  0.961940  1.0
  C  C2775  1  0.453700  0.453260  0.538060  1.0
  C  C2776  1  0.546300  0.453260  0.961940  1.0
  C  C2777  1  0.023200  0.023920  0.436700  1.0
  C  C2778  1  0.976800  0.023920  0.063300  1.0
  C  C2779  1  0.523200  0.523920  0.436700  1.0
  C  C2780  1  0.476800  0.523920  0.063300  1.0
  C  C2781  1  0.976800  0.976080  0.563300  1.0
  C  C2782  1  0.023200  0.976080  0.936700  1.0
  C  C2783  1  0.476800  0.476080  0.563300  1.0
  C  C2784  1  0.523200  0.476080  0.936700  1.0
  C  C2785  1  0.042000  0.019900  0.409610  1.0
  C  C2786  1  0.958000  0.019900  0.090390  1.0
  C  C2787  1  0.542000  0.519900  0.409610  1.0
  C  C2788  1  0.458000  0.519900  0.090390  1.0
  C  C2789  1  0.958000  0.980100  0.590390  1.0
  C  C2790  1  0.042000  0.980100  0.909610  1.0
  C  C2791  1  0.458000  0.480100  0.590390  1.0
  C  C2792  1  0.542000  0.480100  0.909610  1.0
  C  C2793  1  0.027500  0.052300  0.492600  1.0
  C  C2794  1  0.972500  0.052300  0.007400  1.0
  C  C2795  1  0.527500  0.552300  0.492600  1.0
  C  C2796  1  0.472500  0.552300  0.007400  1.0
  C  C2797  1  0.972500  0.947700  0.507400  1.0
  C  C2798  1  0.027500  0.947700  0.992600  1.0
  C  C2799  1  0.472500  0.447700  0.507400  1.0
  C  C2800  1  0.527500  0.447700  0.992600  1.0
  C  C2801  1  0.225000  0.107900  0.438930  1.0
  C  C2802  1  0.775000  0.107900  0.061070  1.0
  C  C2803  1  0.725000  0.607900  0.438930  1.0
  C  C2804  1  0.275000  0.607900  0.061070  1.0
  C  C2805  1  0.775000  0.892100  0.561070  1.0
  C  C2806  1  0.225000  0.892100  0.938930  1.0
  C  C2807  1  0.275000  0.392100  0.561070  1.0
  C  C2808  1  0.725000  0.392100  0.938930  1.0
  C  C2809  1  0.185000  0.100340  0.452900  1.0
  C  C2810  1  0.815000  0.100340  0.047100  1.0
  C  C2811  1  0.685000  0.600340  0.452900  1.0
  C  C2812  1  0.315000  0.600340  0.047100  1.0
  C  C2813  1  0.815000  0.899660  0.547100  1.0
  C  C2814  1  0.185000  0.899660  0.952900  1.0
  C  C2815  1  0.315000  0.399660  0.547100  1.0
  C  C2816  1  0.685000  0.399660  0.952900  1.0
  C  C2817  1  0.150200  0.078200  0.430640  1.0
  C  C2818  1  0.849800  0.078200  0.069360  1.0
  C  C2819  1  0.650200  0.578200  0.430640  1.0
  C  C2820  1  0.349800  0.578200  0.069360  1.0
  C  C2821  1  0.849800  0.921800  0.569360  1.0
  C  C2822  1  0.150200  0.921800  0.930640  1.0
  C  C2823  1  0.349800  0.421800  0.569360  1.0
  C  C2824  1  0.650200  0.421800  0.930640  1.0
  C  C2825  1  0.241100  0.095000  0.384400  1.0
  C  C2826  1  0.758900  0.095000  0.115600  1.0
  C  C2827  1  0.741100  0.595000  0.384400  1.0
  C  C2828  1  0.258900  0.595000  0.115600  1.0
  C  C2829  1  0.758900  0.905000  0.615600  1.0
  C  C2830  1  0.241100  0.905000  0.884400  1.0
  C  C2831  1  0.258900  0.405000  0.615600  1.0
  C  C2832  1  0.741100  0.405000  0.884400  1.0
  C  C2833  1  0.238800  0.166570  0.285680  1.0
  C  C2834  1  0.761200  0.166570  0.214320  1.0
  C  C2835  1  0.738800  0.666570  0.285680  1.0
  C  C2836  1  0.261200  0.666570  0.214320  1.0
  C  C2837  1  0.761200  0.833430  0.714320  1.0
  C  C2838  1  0.238800  0.833430  0.785680  1.0
  C  C2839  1  0.261200  0.333430  0.714320  1.0
  C  C2840  1  0.738800  0.333430  0.785680  1.0
  C  C2841  1  0.280500  0.148560  0.282240  1.0
  C  C2842  1  0.719500  0.148560  0.217760  1.0
  C  C2843  1  0.780500  0.648560  0.282240  1.0
  C  C2844  1  0.219500  0.648560  0.217760  1.0
  C  C2845  1  0.719500  0.851440  0.717760  1.0
  C  C2846  1  0.280500  0.851440  0.782240  1.0
  C  C2847  1  0.219500  0.351440  0.717760  1.0
  C  C2848  1  0.780500  0.351440  0.782240  1.0
  C  C2849  1  0.302130  0.122780  0.304670  1.0
  C  C2850  1  0.697870  0.122780  0.195330  1.0
  C  C2851  1  0.802130  0.622780  0.304670  1.0
  C  C2852  1  0.197870  0.622780  0.195330  1.0
  C  C2853  1  0.697870  0.877220  0.695330  1.0
  C  C2854  1  0.302130  0.877220  0.804670  1.0
  C  C2855  1  0.197870  0.377220  0.695330  1.0
  C  C2856  1  0.802130  0.377220  0.804670  1.0
  C  C2857  1  0.282010  0.115000  0.330530  1.0
  C  C2858  1  0.717990  0.115000  0.169470  1.0
  C  C2859  1  0.782010  0.615000  0.330530  1.0
  C  C2860  1  0.217990  0.615000  0.169470  1.0
  C  C2861  1  0.717990  0.885000  0.669470  1.0
  C  C2862  1  0.282010  0.885000  0.830530  1.0
  C  C2863  1  0.217990  0.385000  0.669470  1.0
  C  C2864  1  0.782010  0.385000  0.830530  1.0
  C  C2865  1  0.240270  0.133000  0.333970  1.0
  C  C2866  1  0.759730  0.133000  0.166030  1.0
  C  C2867  1  0.740270  0.633000  0.333970  1.0
  C  C2868  1  0.259730  0.633000  0.166030  1.0
  C  C2869  1  0.759730  0.867000  0.666030  1.0
  C  C2870  1  0.240270  0.867000  0.833970  1.0
  C  C2871  1  0.259730  0.367000  0.666030  1.0
  C  C2872  1  0.740270  0.367000  0.833970  1.0
  C  C2873  1  0.218640  0.158790  0.311540  1.0
  C  C2874  1  0.781360  0.158790  0.188460  1.0
  C  C2875  1  0.718640  0.658790  0.311540  1.0
  C  C2876  1  0.281360  0.658790  0.188460  1.0
  C  C2877  1  0.781360  0.841210  0.688460  1.0
  C  C2878  1  0.218640  0.841210  0.811540  1.0
  C  C2879  1  0.281360  0.341210  0.688460  1.0
  C  C2880  1  0.718640  0.341210  0.811540  1.0
  C  C2881  1  0.176890  0.176790  0.314980  1.0
  C  C2882  1  0.823110  0.176790  0.185020  1.0
  C  C2883  1  0.676890  0.676790  0.314980  1.0
  C  C2884  1  0.323110  0.676790  0.185020  1.0
  C  C2885  1  0.823110  0.823210  0.685020  1.0
  C  C2886  1  0.176890  0.823210  0.814980  1.0
  C  C2887  1  0.323110  0.323210  0.685020  1.0
  C  C2888  1  0.676890  0.323210  0.814980  1.0
  C  C2889  1  0.156780  0.169010  0.340840  1.0
  C  C2890  1  0.843220  0.169010  0.159160  1.0
  C  C2891  1  0.656780  0.669010  0.340840  1.0
  C  C2892  1  0.343220  0.669010  0.159160  1.0
  C  C2893  1  0.843220  0.830990  0.659160  1.0
  C  C2894  1  0.156780  0.830990  0.840840  1.0
  C  C2895  1  0.343220  0.330990  0.659160  1.0
  C  C2896  1  0.656780  0.330990  0.840840  1.0
  C  C2897  1  0.178400  0.143230  0.363270  1.0
  C  C2898  1  0.821600  0.143230  0.136730  1.0
  C  C2899  1  0.678400  0.643230  0.363270  1.0
  C  C2900  1  0.321600  0.643230  0.136730  1.0
  C  C2901  1  0.821600  0.856770  0.636730  1.0
  C  C2902  1  0.178400  0.856770  0.863270  1.0
  C  C2903  1  0.321600  0.356770  0.636730  1.0
  C  C2904  1  0.678400  0.356770  0.863270  1.0
  C  C2905  1  0.220100  0.125220  0.359840  1.0
  C  C2906  1  0.779900  0.125220  0.140160  1.0
  C  C2907  1  0.720100  0.625220  0.359840  1.0
  C  C2908  1  0.279900  0.625220  0.140160  1.0
  C  C2909  1  0.779900  0.874780  0.640160  1.0
  C  C2910  1  0.220100  0.874780  0.859840  1.0
  C  C2911  1  0.279900  0.374780  0.640160  1.0
  C  C2912  1  0.720100  0.374780  0.859840  1.0
  N  N2913  1  0.636400  0.302350  0.561490  1.0
  N  N2914  1  0.363600  0.302350  0.938510  1.0
  N  N2915  1  0.136400  0.802350  0.561490  1.0
  N  N2916  1  0.863600  0.802350  0.938510  1.0
  N  N2917  1  0.363600  0.697650  0.438510  1.0
  N  N2918  1  0.636400  0.697650  0.061490  1.0
  N  N2919  1  0.863600  0.197650  0.438510  1.0
  N  N2920  1  0.136400  0.197650  0.061490  1.0
  N  N2921  1  0.526000  0.262050  0.595560  1.0
  N  N2922  1  0.474000  0.262050  0.904440  1.0
  N  N2923  1  0.026000  0.762050  0.595560  1.0
  N  N2924  1  0.974000  0.762050  0.904440  1.0
  N  N2925  1  0.474000  0.737950  0.404440  1.0
  N  N2926  1  0.526000  0.737950  0.095560  1.0
  N  N2927  1  0.974000  0.237950  0.404440  1.0
  N  N2928  1  0.026000  0.237950  0.095560  1.0
  N  N2929  1  0.563800  0.272620  0.580750  1.0
  N  N2930  1  0.436200  0.272620  0.919250  1.0
  N  N2931  1  0.063800  0.772620  0.580750  1.0
  N  N2932  1  0.936200  0.772620  0.919250  1.0
  N  N2933  1  0.436200  0.727380  0.419250  1.0
  N  N2934  1  0.563800  0.727380  0.080750  1.0
  N  N2935  1  0.936200  0.227380  0.419250  1.0
  N  N2936  1  0.063800  0.227380  0.080750  1.0
  N  N2937  1  0.353300  0.999730  0.590140  1.0
  N  N2938  1  0.646700  0.999730  0.909860  1.0
  N  N2939  1  0.853300  0.499730  0.590140  1.0
  N  N2940  1  0.146700  0.499730  0.909860  1.0
  N  N2941  1  0.646700  0.000270  0.409860  1.0
  N  N2942  1  0.353300  0.000270  0.090140  1.0
  N  N2943  1  0.146700  0.500270  0.409860  1.0
  N  N2944  1  0.853300  0.500270  0.090140  1.0
  N  N2945  1  0.433200  0.034490  0.582930  1.0
  N  N2946  1  0.566800  0.034490  0.917070  1.0
  N  N2947  1  0.933200  0.534490  0.582930  1.0
  N  N2948  1  0.066800  0.534490  0.917070  1.0
  N  N2949  1  0.566800  0.965510  0.417070  1.0
  N  N2950  1  0.433200  0.965510  0.082930  1.0
  N  N2951  1  0.066800  0.465510  0.417070  1.0
  N  N2952  1  0.933200  0.465510  0.082930  1.0
  N  N2953  1  0.477400  0.046570  0.575590  1.0
  N  N2954  1  0.522600  0.046570  0.924410  1.0
  N  N2955  1  0.977400  0.546570  0.575590  1.0
  N  N2956  1  0.022600  0.546570  0.924410  1.0
  N  N2957  1  0.522600  0.953430  0.424410  1.0
  N  N2958  1  0.477400  0.953430  0.075590  1.0
  N  N2959  1  0.022600  0.453430  0.424410  1.0
  N  N2960  1  0.977400  0.453430  0.075590  1.0
  N  N2961  1  0.647900  0.224760  0.577480  1.0
  N  N2962  1  0.352100  0.224760  0.922520  1.0
  N  N2963  1  0.147900  0.724760  0.577480  1.0
  N  N2964  1  0.852100  0.724760  0.922520  1.0
  N  N2965  1  0.352100  0.775240  0.422520  1.0
  N  N2966  1  0.647900  0.775240  0.077480  1.0
  N  N2967  1  0.852100  0.275240  0.422520  1.0
  N  N2968  1  0.147900  0.275240  0.077480  1.0
  N  N2969  1  0.518200  0.190720  0.509930  1.0
  N  N2970  1  0.481800  0.190720  0.990070  1.0
  N  N2971  1  0.018200  0.690720  0.509930  1.0
  N  N2972  1  0.981800  0.690720  0.990070  1.0
  N  N2973  1  0.481800  0.809280  0.490070  1.0
  N  N2974  1  0.518200  0.809280  0.009930  1.0
  N  N2975  1  0.981800  0.309280  0.490070  1.0
  N  N2976  1  0.018200  0.309280  0.009930  1.0
  N  N2977  1  0.561900  0.206700  0.531610  1.0
  N  N2978  1  0.438100  0.206700  0.968390  1.0
  N  N2979  1  0.061900  0.706700  0.531610  1.0
  N  N2980  1  0.938100  0.706700  0.968390  1.0
  N  N2981  1  0.438100  0.793300  0.468390  1.0
  N  N2982  1  0.561900  0.793300  0.031610  1.0
  N  N2983  1  0.938100  0.293300  0.468390  1.0
  N  N2984  1  0.061900  0.293300  0.031610  1.0
  N  N2985  1  0.271500  0.301390  0.260470  1.0
  N  N2986  1  0.728500  0.301390  0.239530  1.0
  N  N2987  1  0.771500  0.801390  0.260470  1.0
  N  N2988  1  0.228500  0.801390  0.239530  1.0
  N  N2989  1  0.728500  0.698610  0.739530  1.0
  N  N2990  1  0.271500  0.698610  0.760470  1.0
  N  N2991  1  0.228500  0.198610  0.739530  1.0
  N  N2992  1  0.771500  0.198610  0.760470  1.0
  N  N2993  1  0.359900  0.302590  0.308560  1.0
  N  N2994  1  0.640100  0.302590  0.191440  1.0
  N  N2995  1  0.859900  0.802590  0.308560  1.0
  N  N2996  1  0.140100  0.802590  0.191440  1.0
  N  N2997  1  0.640100  0.697410  0.691440  1.0
  N  N2998  1  0.359900  0.697410  0.808560  1.0
  N  N2999  1  0.140100  0.197410  0.691440  1.0
  N  N3000  1  0.859900  0.197410  0.808560  1.0
  N  N3001  1  0.408200  0.309980  0.331470  1.0
  N  N3002  1  0.591800  0.309980  0.168530  1.0
  N  N3003  1  0.908200  0.809980  0.331470  1.0
  N  N3004  1  0.091800  0.809980  0.168530  1.0
  N  N3005  1  0.591800  0.690020  0.668530  1.0
  N  N3006  1  0.408200  0.690020  0.831470  1.0
  N  N3007  1  0.091800  0.190020  0.668530  1.0
  N  N3008  1  0.908200  0.190020  0.831470  1.0
  N  N3009  1  0.630800  0.249180  0.502590  1.0
  N  N3010  1  0.369200  0.249180  0.997410  1.0
  N  N3011  1  0.130800  0.749180  0.502590  1.0
  N  N3012  1  0.869200  0.749180  0.997410  1.0
  N  N3013  1  0.369200  0.750820  0.497410  1.0
  N  N3014  1  0.630800  0.750820  0.002590  1.0
  N  N3015  1  0.869200  0.250820  0.497410  1.0
  N  N3016  1  0.130800  0.250820  0.002590  1.0
  N  N3017  1  0.548800  0.285670  0.499550  1.0
  N  N3018  1  0.451200  0.285670  0.000450  1.0
  N  N3019  1  0.048800  0.785670  0.499550  1.0
  N  N3020  1  0.951200  0.785670  0.000450  1.0
  N  N3021  1  0.451200  0.714330  0.500450  1.0
  N  N3022  1  0.548800  0.714330  0.999550  1.0
  N  N3023  1  0.951200  0.214330  0.500450  1.0
  N  N3024  1  0.048800  0.214330  0.999550  1.0
  N  N3025  1  0.506400  0.308100  0.492620  1.0
  N  N3026  1  0.493600  0.308100  0.007380  1.0
  N  N3027  1  0.006400  0.808100  0.492620  1.0
  N  N3028  1  0.993600  0.808100  0.007380  1.0
  N  N3029  1  0.493600  0.691900  0.507380  1.0
  N  N3030  1  0.506400  0.691900  0.992620  1.0
  N  N3031  1  0.993600  0.191900  0.507380  1.0
  N  N3032  1  0.006400  0.191900  0.992620  1.0
  N  N3033  1  0.343200  0.459100  0.669230  1.0
  N  N3034  1  0.656800  0.459100  0.830770  1.0
  N  N3035  1  0.843200  0.959100  0.669230  1.0
  N  N3036  1  0.156800  0.959100  0.830770  1.0
  N  N3037  1  0.656800  0.540900  0.330770  1.0
  N  N3038  1  0.343200  0.540900  0.169230  1.0
  N  N3039  1  0.156800  0.040900  0.330770  1.0
  N  N3040  1  0.843200  0.040900  0.169230  1.0
  N  N3041  1  0.422600  0.422700  0.662900  1.0
  N  N3042  1  0.577400  0.422700  0.837100  1.0
  N  N3043  1  0.922600  0.922700  0.662900  1.0
  N  N3044  1  0.077400  0.922700  0.837100  1.0
  N  N3045  1  0.577400  0.577300  0.337100  1.0
  N  N3046  1  0.422600  0.577300  0.162900  1.0
  N  N3047  1  0.077400  0.077300  0.337100  1.0
  N  N3048  1  0.922600  0.077300  0.162900  1.0
  N  N3049  1  0.467400  0.403100  0.666667  1.0
  N  N3050  1  0.532600  0.403100  0.833333  1.0
  N  N3051  1  0.967400  0.903100  0.666667  1.0
  N  N3052  1  0.032600  0.903100  0.833333  1.0
  N  N3053  1  0.532600  0.596900  0.333333  1.0
  N  N3054  1  0.467400  0.596900  0.166667  1.0
  N  N3055  1  0.032600  0.096900  0.333333  1.0
  N  N3056  1  0.967400  0.096900  0.166667  1.0
  N  N3057  1  0.443900  0.076870  0.652120  1.0
  N  N3058  1  0.556100  0.076870  0.847880  1.0
  N  N3059  1  0.943900  0.576870  0.652120  1.0
  N  N3060  1  0.056100  0.576870  0.847880  1.0
  N  N3061  1  0.556100  0.923130  0.347880  1.0
  N  N3062  1  0.443900  0.923130  0.152120  1.0
  N  N3063  1  0.056100  0.423130  0.347880  1.0
  N  N3064  1  0.943900  0.423130  0.152120  1.0
  N  N3065  1  0.351300  0.080270  0.606990  1.0
  N  N3066  1  0.648700  0.080270  0.893010  1.0
  N  N3067  1  0.851300  0.580270  0.606990  1.0
  N  N3068  1  0.148700  0.580270  0.893010  1.0
  N  N3069  1  0.648700  0.919730  0.393010  1.0
  N  N3070  1  0.351300  0.919730  0.106990  1.0
  N  N3071  1  0.148700  0.419730  0.393010  1.0
  N  N3072  1  0.851300  0.419730  0.106990  1.0
  N  N3073  1  0.302100  0.089030  0.586030  1.0
  N  N3074  1  0.697900  0.089030  0.913970  1.0
  N  N3075  1  0.802100  0.589030  0.586030  1.0
  N  N3076  1  0.197900  0.589030  0.913970  1.0
  N  N3077  1  0.697900  0.910970  0.413970  1.0
  N  N3078  1  0.302100  0.910970  0.086030  1.0
  N  N3079  1  0.197900  0.410970  0.413970  1.0
  N  N3080  1  0.802100  0.410970  0.086030  1.0
  N  N3081  1  0.061600  0.000700  0.337400  1.0
  N  N3082  1  0.938400  0.000700  0.162600  1.0
  N  N3083  1  0.561600  0.500700  0.337400  1.0
  N  N3084  1  0.438400  0.500700  0.162600  1.0
  N  N3085  1  0.938400  0.999300  0.662600  1.0
  N  N3086  1  0.061600  0.999300  0.837400  1.0
  N  N3087  1  0.438400  0.499300  0.662600  1.0
  N  N3088  1  0.561600  0.499300  0.837400  1.0
  N  N3089  1  0.150400  0.988690  0.382500  1.0
  N  N3090  1  0.849600  0.988690  0.117500  1.0
  N  N3091  1  0.650400  0.488690  0.382500  1.0
  N  N3092  1  0.349600  0.488690  0.117500  1.0
  N  N3093  1  0.849600  0.011310  0.617500  1.0
  N  N3094  1  0.150400  0.011310  0.882500  1.0
  N  N3095  1  0.349600  0.511310  0.617500  1.0
  N  N3096  1  0.650400  0.511310  0.882500  1.0
  N  N3097  1  0.196300  0.975200  0.404100  1.0
  N  N3098  1  0.803700  0.975200  0.095900  1.0
  N  N3099  1  0.696300  0.475200  0.404100  1.0
  N  N3100  1  0.303700  0.475200  0.095900  1.0
  N  N3101  1  0.803700  0.024800  0.595900  1.0
  N  N3102  1  0.196300  0.024800  0.904100  1.0
  N  N3103  1  0.303700  0.524800  0.595900  1.0
  N  N3104  1  0.696300  0.524800  0.904100  1.0
  N  N3105  1  0.364200  0.218860  0.311000  1.0
  N  N3106  1  0.635800  0.218860  0.189000  1.0
  N  N3107  1  0.864200  0.718860  0.311000  1.0
  N  N3108  1  0.135800  0.718860  0.189000  1.0
  N  N3109  1  0.635800  0.781140  0.689000  1.0
  N  N3110  1  0.364200  0.781140  0.811000  1.0
  N  N3111  1  0.135800  0.281140  0.689000  1.0
  N  N3112  1  0.864200  0.281140  0.811000  1.0
  N  N3113  1  0.282300  0.248690  0.321680  1.0
  N  N3114  1  0.717700  0.248690  0.178320  1.0
  N  N3115  1  0.782300  0.748690  0.321680  1.0
  N  N3116  1  0.217700  0.748690  0.178320  1.0
  N  N3117  1  0.717700  0.751310  0.678320  1.0
  N  N3118  1  0.282300  0.751310  0.821680  1.0
  N  N3119  1  0.217700  0.251310  0.678320  1.0
  N  N3120  1  0.782300  0.251310  0.821680  1.0
  N  N3121  1  0.240200  0.259050  0.332480  1.0
  N  N3122  1  0.759800  0.259050  0.167520  1.0
  N  N3123  1  0.740200  0.759050  0.332480  1.0
  N  N3124  1  0.259800  0.759050  0.167520  1.0
  N  N3125  1  0.759800  0.740950  0.667520  1.0
  N  N3126  1  0.240200  0.740950  0.832480  1.0
  N  N3127  1  0.259800  0.240950  0.667520  1.0
  N  N3128  1  0.740200  0.240950  0.832480  1.0
  N  N3129  1  0.045600  0.503660  0.350680  1.0
  N  N3130  1  0.954400  0.503660  0.149320  1.0
  N  N3131  1  0.545600  0.003660  0.350680  1.0
  N  N3132  1  0.454400  0.003660  0.149320  1.0
  N  N3133  1  0.954400  0.496340  0.649320  1.0
  N  N3134  1  0.045600  0.496340  0.850680  1.0
  N  N3135  1  0.454400  0.996340  0.649320  1.0
  N  N3136  1  0.545600  0.996340  0.850680  1.0
  N  N3137  1  0.126400  0.479400  0.333840  1.0
  N  N3138  1  0.873600  0.479400  0.166160  1.0
  N  N3139  1  0.626400  0.979400  0.333840  1.0
  N  N3140  1  0.373600  0.979400  0.166160  1.0
  N  N3141  1  0.873600  0.520600  0.666160  1.0
  N  N3142  1  0.126400  0.520600  0.833840  1.0
  N  N3143  1  0.373600  0.020600  0.666160  1.0
  N  N3144  1  0.626400  0.020600  0.833840  1.0
  N  N3145  1  0.167100  0.472800  0.320300  1.0
  N  N3146  1  0.832900  0.472800  0.179700  1.0
  N  N3147  1  0.667100  0.972800  0.320300  1.0
  N  N3148  1  0.332900  0.972800  0.179700  1.0
  N  N3149  1  0.832900  0.527200  0.679700  1.0
  N  N3150  1  0.167100  0.527200  0.820300  1.0
  N  N3151  1  0.332900  0.027200  0.679700  1.0
  N  N3152  1  0.667100  0.027200  0.820300  1.0
  N  N3153  1  0.359000  0.263500  0.245500  1.0
  N  N3154  1  0.641000  0.263500  0.254500  1.0
  N  N3155  1  0.859000  0.763500  0.245500  1.0
  N  N3156  1  0.141000  0.763500  0.254500  1.0
  N  N3157  1  0.641000  0.736500  0.754500  1.0
  N  N3158  1  0.359000  0.736500  0.745500  1.0
  N  N3159  1  0.141000  0.236500  0.754500  1.0
  N  N3160  1  0.859000  0.236500  0.745500  1.0
  N  N3161  1  0.280300  0.224660  0.244100  1.0
  N  N3162  1  0.719700  0.224660  0.255900  1.0
  N  N3163  1  0.780300  0.724660  0.244100  1.0
  N  N3164  1  0.219700  0.724660  0.255900  1.0
  N  N3165  1  0.719700  0.775340  0.755900  1.0
  N  N3166  1  0.280300  0.775340  0.744100  1.0
  N  N3167  1  0.219700  0.275340  0.755900  1.0
  N  N3168  1  0.780300  0.275340  0.744100  1.0
  N  N3169  1  0.237700  0.202390  0.236780  1.0
  N  N3170  1  0.762300  0.202390  0.263220  1.0
  N  N3171  1  0.737700  0.702390  0.236780  1.0
  N  N3172  1  0.262300  0.702390  0.263220  1.0
  N  N3173  1  0.762300  0.797610  0.763220  1.0
  N  N3174  1  0.237700  0.797610  0.736780  1.0
  N  N3175  1  0.262300  0.297610  0.763220  1.0
  N  N3176  1  0.737700  0.297610  0.736780  1.0
  N  N3177  1  0.084000  0.038700  0.407780  1.0
  N  N3178  1  0.916000  0.038700  0.092220  1.0
  N  N3179  1  0.584000  0.538700  0.407780  1.0
  N  N3180  1  0.416000  0.538700  0.092220  1.0
  N  N3181  1  0.916000  0.961300  0.592220  1.0
  N  N3182  1  0.084000  0.961300  0.907780  1.0
  N  N3183  1  0.416000  0.461300  0.592220  1.0
  N  N3184  1  0.584000  0.461300  0.907780  1.0
  N  N3185  1  0.168600  0.072080  0.402910  1.0
  N  N3186  1  0.831400  0.072080  0.097090  1.0
  N  N3187  1  0.668600  0.572080  0.402910  1.0
  N  N3188  1  0.331400  0.572080  0.097090  1.0
  N  N3189  1  0.831400  0.927920  0.597090  1.0
  N  N3190  1  0.168600  0.927920  0.902910  1.0
  N  N3191  1  0.331400  0.427920  0.597090  1.0
  N  N3192  1  0.668600  0.427920  0.902910  1.0
  N  N3193  1  0.214800  0.090430  0.408040  1.0
  N  N3194  1  0.785200  0.090430  0.091960  1.0
  N  N3195  1  0.714800  0.590430  0.408040  1.0
  N  N3196  1  0.285200  0.590430  0.091960  1.0
  N  N3197  1  0.785200  0.909570  0.591960  1.0
  N  N3198  1  0.214800  0.909570  0.908040  1.0
  N  N3199  1  0.285200  0.409570  0.591960  1.0
  N  N3200  1  0.714800  0.409570  0.908040  1.0
  O  O3201  1  0.390500  0.249410  0.520190  1
  O  O3202  1  0.609500  0.249410  0.979810  1
  O  O3203  1  0.890500  0.749410  0.520190  1
  O  O3204  1  0.109500  0.749410  0.979810  1
  O  O3205  1  0.609500  0.750590  0.479810  1
  O  O3206  1  0.390500  0.750590  0.020190  1
  O  O3207  1  0.109500  0.250590  0.479810  1
  O  O3208  1  0.890500  0.250590  0.020190  1
  O  O3209  1  0.320500  0.224100  0.543500  1
  O  O3210  1  0.679500  0.224100  0.956500  1
  O  O3211  1  0.820500  0.724100  0.543500  1
  O  O3212  1  0.179500  0.724100  0.956500  1
  O  O3213  1  0.679500  0.775900  0.456500  1
  O  O3214  1  0.320500  0.775900  0.043500  1
  O  O3215  1  0.179500  0.275900  0.456500  1
  O  O3216  1  0.820500  0.275900  0.043500  1
  O  O3217  1  0.297500  0.240200  0.483760  1
  O  O3218  1  0.702500  0.240200  0.016240  1
  O  O3219  1  0.797500  0.740200  0.483760  1
  O  O3220  1  0.202500  0.740200  0.016240  1
  O  O3221  1  0.702500  0.759800  0.516240  1
  O  O3222  1  0.297500  0.759800  0.983760  1
  O  O3223  1  0.202500  0.259800  0.516240  1
  O  O3224  1  0.797500  0.259800  0.983760  1
  O  O3225  1  0.745600  0.120700  0.628800  1
  O  O3226  1  0.254400  0.120700  0.871200  1
  O  O3227  1  0.245600  0.620700  0.628800  1
  O  O3228  1  0.754400  0.620700  0.871200  1
  O  O3229  1  0.254400  0.879300  0.371200  1
  O  O3230  1  0.745600  0.879300  0.128800  1
  O  O3231  1  0.754400  0.379300  0.371200  1
  O  O3232  1  0.245600  0.379300  0.128800  1
  O  O3233  1  0.154300  0.387700  0.188500  1
  O  O3234  1  0.845700  0.387700  0.311500  1
  O  O3235  1  0.654300  0.887700  0.188500  1
  O  O3236  1  0.345700  0.887700  0.311500  1
  O  O3237  1  0.845700  0.612300  0.811500  1
  O  O3238  1  0.154300  0.612300  0.688500  1
  O  O3239  1  0.345700  0.112300  0.811500  1
  O  O3240  1  0.654300  0.112300  0.688500  1
  O  O3241  1  0.940500  0.925500  0.251700  1
  O  O3242  1  0.059500  0.925500  0.248300  1
  O  O3243  1  0.440500  0.425500  0.251700  1
  O  O3244  1  0.559500  0.425500  0.248300  1
  O  O3245  1  0.059500  0.074500  0.748300  1
  O  O3246  1  0.940500  0.074500  0.751700  1
  O  O3247  1  0.559500  0.574500  0.748300  1
  O  O3248  1  0.440500  0.574500  0.751700  1
  O  O3249  1  0.315300  0.285700  0.526600  1
  O  O3250  1  0.684700  0.285700  0.973400  1
  O  O3251  1  0.815300  0.785700  0.526600  1
  O  O3252  1  0.184700  0.785700  0.973400  1
  O  O3253  1  0.684700  0.714300  0.473400  1
  O  O3254  1  0.315300  0.714300  0.026600  1
  O  O3255  1  0.184700  0.214300  0.473400  1
  O  O3256  1  0.815300  0.214300  0.026600  1
  O  O3257  1  0.768400  0.393900  0.607900  1.0
  O  O3258  1  0.231600  0.393900  0.892100  1.0
  O  O3259  1  0.268400  0.893900  0.607900  1.0
  O  O3260  1  0.731600  0.893900  0.892100  1.0
  O  O3261  1  0.231600  0.606100  0.392100  1.0
  O  O3262  1  0.768400  0.606100  0.107900  1.0
  O  O3263  1  0.731600  0.106100  0.392100  1.0
  O  O3264  1  0.268400  0.106100  0.107900  1.0
  O  O3265  1  0.235700  0.908400  0.527300  1.0
  O  O3266  1  0.764300  0.908400  0.972700  1.0
  O  O3267  1  0.735700  0.408400  0.527300  1.0
  O  O3268  1  0.264300  0.408400  0.972700  1.0
  O  O3269  1  0.764300  0.091600  0.472700  1.0
  O  O3270  1  0.235700  0.091600  0.027300  1.0
  O  O3271  1  0.264300  0.591600  0.472700  1.0
  O  O3272  1  0.735700  0.591600  0.027300  1.0
  O  O3273  1  0.790200  0.168000  0.664800  1.0
  O  O3274  1  0.209800  0.168000  0.835200  1.0
  O  O3275  1  0.290200  0.668000  0.664800  1.0
  O  O3276  1  0.709800  0.668000  0.835200  1.0
  O  O3277  1  0.209800  0.832000  0.335200  1.0
  O  O3278  1  0.790200  0.832000  0.164800  1.0
  O  O3279  1  0.709800  0.332000  0.335200  1.0
  O  O3280  1  0.290200  0.332000  0.164800  1.0
  O  O3281  1  0.137500  0.383800  0.199000  1.0
  O  O3282  1  0.862500  0.383800  0.301000  1.0
  O  O3283  1  0.637500  0.883800  0.199000  1.0
  O  O3284  1  0.362500  0.883800  0.301000  1.0
  O  O3285  1  0.862500  0.616200  0.801000  1.0
  O  O3286  1  0.137500  0.616200  0.699000  1.0
  O  O3287  1  0.362500  0.116200  0.801000  1.0
  O  O3288  1  0.637500  0.116200  0.699000  1.0
  O  O3289  1  0.672900  0.248900  0.393300  1.0
  O  O3290  1  0.327100  0.248900  0.106700  1.0
  O  O3291  1  0.172900  0.748900  0.393300  1.0
  O  O3292  1  0.827100  0.748900  0.106700  1.0
  O  O3293  1  0.327100  0.751100  0.606700  1.0
  O  O3294  1  0.672900  0.751100  0.893300  1.0
  O  O3295  1  0.827100  0.251100  0.606700  1.0
  O  O3296  1  0.172900  0.251100  0.893300  1.0
  O  O3297  1  0.233400  0.461200  0.746600  1.0
  O  O3298  1  0.766600  0.461200  0.753400  1.0
  O  O3299  1  0.733400  0.961200  0.746600  1.0
  O  O3300  1  0.266600  0.961200  0.753400  1.0
  O  O3301  1  0.766600  0.538800  0.253400  1.0
  O  O3302  1  0.233400  0.538800  0.246600  1.0
  O  O3303  1  0.266600  0.038800  0.253400  1.0
  O  O3304  1  0.733400  0.038800  0.246600  1.0
  O  O3305  1  0.574400  0.162500  0.713900  1.0
  O  O3306  1  0.425600  0.162500  0.786100  1.0
  O  O3307  1  0.074400  0.662500  0.713900  1.0
  O  O3308  1  0.925600  0.662500  0.786100  1.0
  O  O3309  1  0.425600  0.837500  0.286100  1.0
  O  O3310  1  0.574400  0.837500  0.213900  1.0
  O  O3311  1  0.925600  0.337500  0.286100  1.0
  O  O3312  1  0.074400  0.337500  0.213900  1.0
  O  O3313  1  0.981500  0.890400  0.284900  1.0
  O  O3314  1  0.018500  0.890400  0.215100  1.0
  O  O3315  1  0.481500  0.390400  0.284900  1.0
  O  O3316  1  0.518500  0.390400  0.215100  1.0
  O  O3317  1  0.018500  0.109600  0.715100  1.0
  O  O3318  1  0.981500  0.109600  0.784900  1.0
  O  O3319  1  0.518500  0.609600  0.715100  1.0
  O  O3320  1  0.481500  0.609600  0.784900  1.0
  O  O3321  1  0.488200  0.125800  0.364500  1.0
  O  O3322  1  0.511800  0.125800  0.135500  1.0
  O  O3323  1  0.988200  0.625800  0.364500  1.0
  O  O3324  1  0.011800  0.625800  0.135500  1.0
  O  O3325  1  0.511800  0.874200  0.635500  1.0
  O  O3326  1  0.488200  0.874200  0.864500  1.0
  O  O3327  1  0.011800  0.374200  0.635500  1.0
  O  O3328  1  0.988200  0.374200  0.864500  1.0
  O  O3329  1  0.942000  0.580500  0.261600  1.0
  O  O3330  1  0.058000  0.580500  0.238400  1.0
  O  O3331  1  0.442000  0.080500  0.261600  1.0
  O  O3332  1  0.558000  0.080500  0.238400  1.0
  O  O3333  1  0.058000  0.419500  0.738400  1.0
  O  O3334  1  0.942000  0.419500  0.761600  1.0
  O  O3335  1  0.558000  0.919500  0.738400  1.0
  O  O3336  1  0.442000  0.919500  0.761600  1.0
  O  O3337  1  0.415200  0.251200  0.141700  1.0
  O  O3338  1  0.584800  0.251200  0.358300  1.0
  O  O3339  1  0.915200  0.751200  0.141700  1.0
  O  O3340  1  0.084800  0.751200  0.358300  1.0
  O  O3341  1  0.584800  0.748800  0.858300  1.0
  O  O3342  1  0.415200  0.748800  0.641700  1.0
  O  O3343  1  0.084800  0.248800  0.858300  1.0
  O  O3344  1  0.915200  0.248800  0.641700  1.0
  O  O3345  1  0.985300  0.032530  0.491900  1.0
  O  O3346  1  0.014700  0.032530  0.008100  1.0
  O  O3347  1  0.485300  0.532530  0.491900  1.0
  O  O3348  1  0.514700  0.532530  0.008100  1.0
  O  O3349  1  0.014700  0.967470  0.508100  1.0
  O  O3350  1  0.985300  0.967470  0.991900  1.0
  O  O3351  1  0.514700  0.467470  0.508100  1.0
  O  O3352  1  0.485300  0.467470  0.991900  1.0
  F  F3353  1  0.393300  0.370610  0.432260  1
  F  F3354  1  0.606700  0.370610  0.067740  1
  F  F3355  1  0.893300  0.870610  0.432260  1
  F  F3356  1  0.106700  0.870610  0.067740  1
  F  F3357  1  0.606700  0.629390  0.567740  1
  F  F3358  1  0.393300  0.629390  0.932260  1
  F  F3359  1  0.106700  0.129390  0.567740  1
  F  F3360  1  0.893300  0.129390  0.932260  1
  F  F3361  1  0.357900  0.415170  0.452200  1
  F  F3362  1  0.642100  0.415170  0.047800  1
  F  F3363  1  0.857900  0.915170  0.452200  1
  F  F3364  1  0.142100  0.915170  0.047800  1
  F  F3365  1  0.642100  0.584830  0.547800  1
  F  F3366  1  0.357900  0.584830  0.952200  1
  F  F3367  1  0.142100  0.084830  0.547800  1
  F  F3368  1  0.857900  0.084830  0.952200  1
  F  F3369  1  0.397700  0.372380  0.486810  1
  F  F3370  1  0.602300  0.372380  0.013190  1
  F  F3371  1  0.897700  0.872380  0.486810  1
  F  F3372  1  0.102300  0.872380  0.013190  1
  F  F3373  1  0.602300  0.627620  0.513190  1
  F  F3374  1  0.397700  0.627620  0.986810  1
  F  F3375  1  0.102300  0.127620  0.513190  1
  F  F3376  1  0.897700  0.127620  0.986810  1
  F  F3377  1  0.321500  0.362470  0.447970  1
  F  F3378  1  0.678500  0.362470  0.052030  1
  F  F3379  1  0.821500  0.862470  0.447970  1
  F  F3380  1  0.178500  0.862470  0.052030  1
  F  F3381  1  0.678500  0.637530  0.552030  1
  F  F3382  1  0.321500  0.637530  0.947970  1
  F  F3383  1  0.178500  0.137530  0.552030  1
  F  F3384  1  0.821500  0.137530  0.947970  1
  F  F3385  1  0.338500  0.135260  0.460920  1
  F  F3386  1  0.661500  0.135260  0.039080  1
  F  F3387  1  0.838500  0.635260  0.460920  1
  F  F3388  1  0.161500  0.635260  0.039080  1
  F  F3389  1  0.661500  0.864740  0.539080  1
  F  F3390  1  0.338500  0.864740  0.960920  1
  F  F3391  1  0.161500  0.364740  0.539080  1
  F  F3392  1  0.838500  0.364740  0.960920  1
  F  F3393  1  0.387300  0.167000  0.436300  1
  F  F3394  1  0.612700  0.167000  0.063700  1
  F  F3395  1  0.887300  0.667000  0.436300  1
  F  F3396  1  0.112700  0.667000  0.063700  1
  F  F3397  1  0.612700  0.833000  0.563700  1
  F  F3398  1  0.387300  0.833000  0.936300  1
  F  F3399  1  0.112700  0.333000  0.563700  1
  F  F3400  1  0.887300  0.333000  0.936300  1
  F  F3401  1  0.361100  0.113600  0.416730  1
  F  F3402  1  0.638900  0.113600  0.083270  1
  F  F3403  1  0.861100  0.613600  0.416730  1
  F  F3404  1  0.138900  0.613600  0.083270  1
  F  F3405  1  0.638900  0.886400  0.583270  1
  F  F3406  1  0.361100  0.886400  0.916730  1
  F  F3407  1  0.138900  0.386400  0.583270  1
  F  F3408  1  0.861100  0.386400  0.916730  1
  F  F3409  1  0.421000  0.120600  0.466700  1
  F  F3410  1  0.579000  0.120600  0.033300  1
  F  F3411  1  0.921000  0.620600  0.466700  1
  F  F3412  1  0.079000  0.620600  0.033300  1
  F  F3413  1  0.579000  0.879400  0.533300  1
  F  F3414  1  0.421000  0.879400  0.966700  1
  F  F3415  1  0.079000  0.379400  0.533300  1
  F  F3416  1  0.921000  0.379400  0.966700  1
  F  F3417  1  0.443300  0.222100  0.639000  1
  F  F3418  1  0.556700  0.222100  0.861000  1
  F  F3419  1  0.943300  0.722100  0.639000  1
  F  F3420  1  0.056700  0.722100  0.861000  1
  F  F3421  1  0.556700  0.777900  0.361000  1
  F  F3422  1  0.443300  0.777900  0.139000  1
  F  F3423  1  0.056700  0.277900  0.361000  1
  F  F3424  1  0.943300  0.277900  0.139000  1
  F  F3425  1  0.443600  0.269000  0.667500  1
  F  F3426  1  0.556400  0.269000  0.832500  1
  F  F3427  1  0.943600  0.769000  0.667500  1
  F  F3428  1  0.056400  0.769000  0.832500  1
  F  F3429  1  0.556400  0.731000  0.332500  1
  F  F3430  1  0.443600  0.731000  0.167500  1
  F  F3431  1  0.056400  0.231000  0.332500  1
  F  F3432  1  0.943600  0.231000  0.167500  1
  F  F3433  1  0.411800  0.221600  0.681500  1
  F  F3434  1  0.588200  0.221600  0.818500  1
  F  F3435  1  0.911800  0.721600  0.681500  1
  F  F3436  1  0.088200  0.721600  0.818500  1
  F  F3437  1  0.588200  0.778400  0.318500  1
  F  F3438  1  0.411800  0.778400  0.181500  1
  F  F3439  1  0.088200  0.278400  0.318500  1
  F  F3440  1  0.911800  0.278400  0.181500  1
  F  F3441  1  0.370900  0.249100  0.635300  1
  F  F3442  1  0.629100  0.249100  0.864700  1
  F  F3443  1  0.870900  0.749100  0.635300  1
  F  F3444  1  0.129100  0.749100  0.864700  1
  F  F3445  1  0.629100  0.750900  0.364700  1
  F  F3446  1  0.370900  0.750900  0.135300  1
  F  F3447  1  0.129100  0.250900  0.364700  1
  F  F3448  1  0.870900  0.250900  0.135300  1
  F  F3449  1  0.909200  0.153100  0.294900  1
  F  F3450  1  0.090800  0.153100  0.205100  1
  F  F3451  1  0.409200  0.653100  0.294900  1
  F  F3452  1  0.590800  0.653100  0.205100  1
  F  F3453  1  0.090800  0.846900  0.705100  1
  F  F3454  1  0.909200  0.846900  0.794900  1
  F  F3455  1  0.590800  0.346900  0.705100  1
  F  F3456  1  0.409200  0.346900  0.794900  1
  F  F3457  1  0.906100  0.096500  0.292200  1
  F  F3458  1  0.093900  0.096500  0.207800  1
  F  F3459  1  0.406100  0.596500  0.292200  1
  F  F3460  1  0.593900  0.596500  0.207800  1
  F  F3461  1  0.093900  0.903500  0.707800  1
  F  F3462  1  0.906100  0.903500  0.792200  1
  F  F3463  1  0.593900  0.403500  0.707800  1
  F  F3464  1  0.406100  0.403500  0.792200  1
  F  F3465  1  0.878900  0.124200  0.330300  1
  F  F3466  1  0.121100  0.124200  0.169700  1
  F  F3467  1  0.378900  0.624200  0.330300  1
  F  F3468  1  0.621100  0.624200  0.169700  1
  F  F3469  1  0.121100  0.875800  0.669700  1
  F  F3470  1  0.878900  0.875800  0.830300  1
  F  F3471  1  0.621100  0.375800  0.669700  1
  F  F3472  1  0.378900  0.375800  0.830300  1
  F  F3473  1  0.833600  0.125900  0.277000  1
  F  F3474  1  0.166400  0.125900  0.223000  1
  F  F3475  1  0.333600  0.625900  0.277000  1
  F  F3476  1  0.666400  0.625900  0.223000  1
  F  F3477  1  0.166400  0.874100  0.723000  1
  F  F3478  1  0.833600  0.874100  0.777000  1
  F  F3479  1  0.666400  0.374100  0.723000  1
  F  F3480  1  0.333600  0.374100  0.777000  1
  F  F3481  1  0.918200  0.445600  0.475000  1
  F  F3482  1  0.081800  0.445600  0.025000  1
  F  F3483  1  0.418200  0.945600  0.475000  1
  F  F3484  1  0.581800  0.945600  0.025000  1
  F  F3485  1  0.081800  0.554400  0.525000  1
  F  F3486  1  0.918200  0.554400  0.975000  1
  F  F3487  1  0.581800  0.054400  0.525000  1
  F  F3488  1  0.418200  0.054400  0.975000  1
  F  F3489  1  0.843700  0.422200  0.465600  1
  F  F3490  1  0.156300  0.422200  0.034400  1
  F  F3491  1  0.343700  0.922200  0.465600  1
  F  F3492  1  0.656300  0.922200  0.034400  1
  F  F3493  1  0.156300  0.577800  0.534400  1
  F  F3494  1  0.843700  0.577800  0.965600  1
  F  F3495  1  0.656300  0.077800  0.534400  1
  F  F3496  1  0.343700  0.077800  0.965600  1
  F  F3497  1  0.879700  0.424700  0.426300  1
  F  F3498  1  0.120300  0.424700  0.073700  1
  F  F3499  1  0.379700  0.924700  0.426300  1
  F  F3500  1  0.620300  0.924700  0.073700  1
  F  F3501  1  0.120300  0.575300  0.573700  1
  F  F3502  1  0.879700  0.575300  0.926300  1
  F  F3503  1  0.620300  0.075300  0.573700  1
  F  F3504  1  0.379700  0.075300  0.926300  1
  F  F3505  1  0.850800  0.470800  0.443500  1
  F  F3506  1  0.149200  0.470800  0.056500  1
  F  F3507  1  0.350800  0.970800  0.443500  1
  F  F3508  1  0.649200  0.970800  0.056500  1
  F  F3509  1  0.149200  0.529200  0.556500  1
  F  F3510  1  0.850800  0.529200  0.943500  1
  F  F3511  1  0.649200  0.029200  0.556500  1
  F  F3512  1  0.350800  0.029200  0.943500  1
