
#######################################################################
#
#                 Cambridge Crystallographic Data Centre
#                                CCDC 
#
#######################################################################
#
# If this CIF has been generated from an entry in the Cambridge 
# Structural Database, then it will include bibliographic, chemical, 
# crystal, experimental, refinement or atomic coordinate data resulting 
# from the CCDC's data processing and validation procedures.
#
#######################################################################

data_UJUXOO
_chemical_formula_moiety         
'C336 H264 Co8 N72 16+,16(B1 F4 1-),C7 H17 O3 P1'
_chemical_name_systematic        
"dodecakis(\m~2~-2-(1-((5-((3-(Pyridin-2-yl)-1H-pyrazol-1-yl)methyl)-1-naphthyl)methyl)-1H-pyrazol-3-yl)pyridine)-octa-cobalt hexadecakis(tetrafluoroborate) methyl O,O'-di-isopropylphosphonate"
_symmetry_cell_setting           monoclinic
_symmetry_space_group_name_H-M   'C 2/c'
_symmetry_Int_Tables_number      15
_space_group_name_Hall           '-C 2yn'
loop_
_symmetry_equiv_pos_site_id
_symmetry_equiv_pos_as_xyz
1 x,y,z
2 -x,y,1/2-z
3 1/2+x,1/2+y,z
4 1/2-x,1/2+y,1/2-z
5 -x,-y,-z
6 x,-y,1/2+z
7 1/2-x,1/2-y,-z
8 1/2+x,1/2-y,1/2+z
_cell_length_a                   32.7148(10)
_cell_length_b                   29.7919(8)
_cell_length_c                   39.8554(11)
_cell_angle_alpha                90
_cell_angle_beta                 96.733(2)
_cell_angle_gamma                90
_cell_volume                     38576.6
_exptl_crystal_colour            orange
_exptl_crystal_description       Block
_cell_formula_units_Z            4
loop_
_atom_site_label
_atom_site_type_symbol
_atom_site_fract_x
_atom_site_fract_y
_atom_site_fract_z
Co1 Co 0.85641(3) 0.77903(3) 0.27613(2)
Co2 Co 0.48298(3) 0.65920(3) 0.46215(3)
Co3 Co 0.90102(3) 0.51857(3) 0.63601(3)
Co4 Co 0.73114(4) 0.45346(4) 0.38640(3)
N1 N 0.90347(13) 0.79451(16) 0.24269(10)
C1 C 0.90487(15) 0.76404(15) 0.21644(12)
C2 C 0.93180(18) 0.77101(18) 0.19244(11)
H1 H 0.9328 0.7502 0.1745
C3 C 0.95733(16) 0.8085(2) 0.19468(12)
H2 H 0.9757 0.8132 0.1783
C4 C 0.95592(16) 0.83893(18) 0.22093(14)
H3 H 0.9734 0.8645 0.2225
C5 C 0.92899(16) 0.83196(16) 0.24493(11)
H4 H 0.9280 0.8528 0.2629
N2 N 0.84934(16) 0.72691(15) 0.23973(10)
N3 N 0.82274(14) 0.68988(16) 0.23142(12)
C6 C 0.83440(19) 0.66951(16) 0.20176(13)
H5 H 0.8218 0.6440 0.1906
C7 C 0.86821(19) 0.6939(2) 0.19175(12)
H6 H 0.8822 0.6877 0.1727
C8 C 0.87745(15) 0.72942(18) 0.21522(13)
C9 C 0.7946(3) 0.6743(3) 0.2536(2)
H7 H 0.7720 0.6579 0.2402
H8 H 0.7824 0.7006 0.2639
N4 N 0.69772(16) 0.45335(18) 0.42962(10)
C10 C 0.70511(16) 0.49041(15) 0.45065(12)
C11 C 0.68754(18) 0.49280(18) 0.48071(11)
H9 H 0.6926 0.5181 0.4951
C12 C 0.66258(18) 0.4581(2) 0.48974(11)
H10 H 0.6506 0.4598 0.5103
C13 C 0.65519(19) 0.4211(2) 0.46872(14)
H11 H 0.6381 0.3974 0.4749
C14 C 0.67276(19) 0.41868(17) 0.43866(13)
H12 H 0.6677 0.3934 0.4243
N5 N 0.75288(16) 0.51410(14) 0.41382(11)
N6 N 0.78024(15) 0.55079(17) 0.41198(12)
C15 C 0.77573(19) 0.58002(15) 0.43946(15)
H13 H 0.7903 0.6072 0.4444
C16 C 0.74558(19) 0.56139(19) 0.45827(12)
H14 H 0.7365 0.5740 0.4780
C17 C 0.73146(16) 0.52065(18) 0.44243(13)
C18 C 0.8056(3) 0.5573(3) 0.3864(2)
H15 H 0.8131 0.5276 0.3778
H16 H 0.8314 0.5721 0.3963
C19 C 0.81379(12) 0.64403(13) 0.28157(9)
C20 C 0.85502(12) 0.63220(14) 0.28260(10)
H17 H 0.8708 0.6428 0.2657
C21 C 0.87319(9) 0.60481(15) 0.30838(12)
H18 H 0.9014 0.5967 0.3091
C22 C 0.85013(10) 0.58925(13) 0.33314(10)
H19 H 0.8625 0.5705 0.3508
C23 C 0.80890(9) 0.60108(9) 0.33211(7)
C24 C 0.79073(9) 0.62847(9) 0.30633(8)
C25 C 0.74950(10) 0.64031(14) 0.30530(11)
H20 H 0.7371 0.6590 0.2877
C26 C 0.72644(9) 0.62475(15) 0.33006(13)
H21 H 0.6983 0.6328 0.3294
C27 C 0.74461(12) 0.59735(15) 0.35584(11)
H22 H 0.7289 0.5867 0.3728
C28 C 0.78584(12) 0.58552(13) 0.35687(9)
N7 N 0.81332(13) 0.82237(14) 0.24794(11)
C29 C 0.81389(14) 0.86679(15) 0.25865(11)
C30 C 0.78394(17) 0.89655(13) 0.24457(13)
H23 H 0.7843 0.9269 0.2519
C31 C 0.75341(15) 0.88189(17) 0.21979(14)
H24 H 0.7329 0.9022 0.2102
C32 C 0.75284(14) 0.83746(19) 0.20908(12)
H25 H 0.7320 0.8274 0.1921
C33 C 0.78280(16) 0.80770(13) 0.22316(12)
H26 H 0.7824 0.7773 0.2158
N8 N 0.86945(14) 0.84362(11) 0.29891(11)
N9 N 0.90064(13) 0.86429(15) 0.32152(11)
C34 C 0.89477(17) 0.91148(14) 0.31936(14)
H27 H 0.9112 0.9335 0.3318
C35 C 0.85996(18) 0.91996(12) 0.29542(15)
H28 H 0.8490 0.9487 0.2890
C36 C 0.84431(14) 0.87802(17) 0.28279(12)
C37 C 0.9301(2) 0.8401(3) 0.34142(18)
H29 H 0.9553 0.8585 0.3458
H30 H 0.9370 0.8129 0.3289
N10 N 1.06124(15) 0.81056(16) 0.57484(13)
C38 C 1.06189(17) 0.76392(16) 0.57397(14)
C39 C 1.0908(2) 0.74039(14) 0.59549(17)
H31 H 1.0913 0.7085 0.5949
C40 C 1.11909(19) 0.7635(2) 0.61787(17)
H32 H 1.1389 0.7474 0.6326
C41 C 1.1184(2) 0.8101(2) 0.61874(17)
H33 H 1.1378 0.8259 0.6340
C42 C 1.0895(2) 0.83366(14) 0.59723(16)
H34 H 1.0891 0.8655 0.5978
N11 N 1.00313(15) 0.77111(10) 0.53271(12)
N12 N 0.97604(13) 0.74255(14) 0.51205(11)
C43 C 0.98885(17) 0.69753(11) 0.51856(13)
H35 H 0.9762 0.6715 0.5082
C44 C 1.02387(17) 0.69827(14) 0.54325(14)
H36 H 1.0388 0.6728 0.5523
C45 C 1.03270(14) 0.74374(16) 0.55199(12)
C46 C 0.9448(2) 0.7584(2) 0.48887(17)
H37 H 0.9343 0.7867 0.4976
H38 H 0.9220 0.7363 0.4871
C47 C 0.91625(11) 0.82571(13) 0.37558(7)
C48 C 0.87785(10) 0.83921(13) 0.38348(9)
H39 H 0.8599 0.8556 0.3675
C49 C 0.86566(9) 0.82867(14) 0.41480(10)
H40 H 0.8394 0.8379 0.4202
C50 C 0.89187(9) 0.80462(13) 0.43822(8)
H41 H 0.8835 0.7974 0.4596
C51 C 0.93028(8) 0.79112(9) 0.43032(6)
C52 C 0.94247(8) 0.80166(9) 0.39900(6)
C53 C 0.98087(10) 0.78816(13) 0.39110(8)
H42 H 0.9892 0.7954 0.3697
C54 C 1.00708(9) 0.76411(13) 0.41452(10)
H43 H 1.0333 0.7549 0.4091
C55 C 0.99490(10) 0.75357(12) 0.44584(9)
H44 H 1.0128 0.7371 0.4618
C56 C 0.95649(11) 0.76707(12) 0.45374(7)
N13 N 0.89542(13) 0.73848(14) 0.30990(9)
C57 C 0.87739(12) 0.72325(16) 0.33768(11)
C58 C 0.90036(17) 0.69826(16) 0.36262(10)
H45 H 0.8880 0.6879 0.3816
C59 C 0.94137(17) 0.68850(17) 0.35979(12)
H46 H 0.9571 0.6714 0.3768
C60 C 0.95940(12) 0.70373(18) 0.33202(14)
H47 H 0.9874 0.6971 0.3301
C61 C 0.93642(14) 0.72872(17) 0.30707(11)
H48 H 0.9487 0.7391 0.2881
N14 N 0.81528(13) 0.75743(14) 0.31205(9)
N15 N 0.77346(12) 0.75975(16) 0.31825(11)
C62 C 0.76943(14) 0.73546(19) 0.34834(12)
H49 H 0.7448 0.7315 0.3584
C63 C 0.80875(18) 0.71813(18) 0.36074(10)
H50 H 0.8150 0.7005 0.3806
C64 C 0.83709(12) 0.73171(17) 0.33831(12)
C65 C 0.7442(2) 0.7872(2) 0.30073(18)
H51 H 0.7166 0.7747 0.3029
H52 H 0.7482 0.7864 0.2765
N16 N 0.54599(15) 1.02263(17) 0.34447(14)
C66 C 0.55289(15) 1.0483(2) 0.31657(15)
C67 C 0.52385(19) 1.0798(2) 0.30364(16)
H53 H 0.5286 1.0974 0.2846
C68 C 0.48791(17) 1.0856(2) 0.3186(2)
H54 H 0.4681 1.1071 0.3098
C69 C 0.48101(16) 1.0599(2) 0.34650(19)
H55 H 0.4564 1.0638 0.3567
C70 C 0.51005(18) 1.0284(2) 0.35943(14)
H56 H 0.5053 1.0108 0.3785
N17 N 0.61793(15) 1.01203(15) 0.31979(11)
N18 N 0.65455(13) 1.01573(16) 0.30406(12)
C71 C 0.64835(16) 1.04957(18) 0.27888(13)
H57 H 0.6678 1.0590 0.2645
C72 C 0.60790(17) 1.06679(17) 0.27906(14)
H58 H 0.5956 1.0898 0.2648
C73 C 0.58910(13) 1.04359(19) 0.30434(15)
C74 C 0.6889(2) 0.9889(2) 0.31348(19)
H59 H 0.6932 0.9873 0.3385
H60 H 0.7133 1.0040 0.3060
C75 C 0.74521(11) 0.83579(10) 0.31237(10)
C76 C 0.77800(10) 0.84940(13) 0.33548(10)
H61 H 0.7987 0.8285 0.3436
C77 C 0.78046(10) 0.89363(15) 0.34665(10)
H62 H 0.8029 0.9029 0.3624
C78 C 0.75013(11) 0.92424(11) 0.33471(10)
H63 H 0.7518 0.9545 0.3423
C79 C 0.71734(9) 0.91063(9) 0.31160(7)
C80 C 0.71488(8) 0.86641(9) 0.30043(7)
C81 C 0.68209(10) 0.85280(11) 0.27731(9)
H64 H 0.6804 0.8226 0.2697
C82 C 0.65176(10) 0.88341(14) 0.26537(9)
H65 H 0.6293 0.8741 0.2496
C83 C 0.65422(10) 0.92763(13) 0.27654(10)
H66 H 0.6335 0.9486 0.2684
C84 C 0.68701(11) 0.94124(9) 0.29965(10)
N19 N 0.7043(2) 0.3905(2) 0.36659(16)
C85 C 0.7245(3) 0.3541(3) 0.3759(2)
C86 C 0.7088(4) 0.3107(3) 0.3681(3)
H67 H 0.7240 0.2848 0.3759
C87 C 0.6720(4) 0.3067(4) 0.3495(3)
H68 H 0.6608 0.2778 0.3442
C88 C 0.6506(4) 0.3449(3) 0.3379(2)
H69 H 0.6248 0.3424 0.3243
C89 C 0.6670(3) 0.3862(3) 0.3464(2)
H70 H 0.6525 0.4124 0.3384
N20 N 0.77224(17) 0.40347(16) 0.40794(14)
N21 N 0.81160(17) 0.40169(18) 0.42716(14)
C90 C 0.82587(19) 0.3567(2) 0.42688(19)
H71 H 0.8514 0.3459 0.4378
C91 C 0.7953(2) 0.33066(15) 0.4075(2)
H72 H 0.7968 0.2994 0.4031
C92 C 0.76218(18) 0.35956(19) 0.39578(16)
C93 C 0.8271(3) 0.4387(3) 0.4468(2)
H73 H 0.8233 0.4662 0.4329
H74 H 0.8571 0.4345 0.4531
N22 N 0.92129(15) 0.57755(13) 0.66305(12)
C94 C 0.89665(13) 0.61522(16) 0.65618(12)
C95 C 0.90780(18) 0.65588(14) 0.67174(14)
H75 H 0.8910 0.6816 0.6670
C96 C 0.9436(2) 0.65888(16) 0.69417(14)
H76 H 0.9512 0.6867 0.7048
C97 C 0.96822(16) 0.6212(2) 0.70104(13)
H77 H 0.9927 0.6233 0.7164
C98 C 0.95707(15) 0.58055(17) 0.68548(14)
H78 H 0.9739 0.5548 0.6902
N23 N 0.85203(13) 0.56529(12) 0.62227(12)
N24 N 0.81273(13) 0.56722(13) 0.60296(12)
C99 C 0.79831(13) 0.61213(16) 0.60369(14)
H79 H 0.7728 0.6230 0.5929
C100 C 0.82868(17) 0.63794(11) 0.62346(14)
H80 H 0.8271 0.6691 0.6282
C101 C 0.86189(14) 0.60900(15) 0.63494(12)
C102 C 0.7954(2) 0.5311(3) 0.5842(2)
H81 H 0.7651 0.5341 0.5820
H82 H 0.8027 0.5031 0.5970
C103 C 0.80666(14) 0.44521(13) 0.47881(9)
C104 C 0.78018(15) 0.41290(12) 0.48920(11)
H83 H 0.7736 0.3870 0.4757
C105 C 0.76332(14) 0.41842(12) 0.51936(12)
H84 H 0.7452 0.3963 0.5265
C106 C 0.77294(12) 0.45625(12) 0.53914(10)
H85 H 0.7614 0.4600 0.5598
C107 C 0.79941(9) 0.48856(10) 0.52875(7)
C108 C 0.81627(10) 0.48304(10) 0.49858(7)
C109 C 0.84274(13) 0.51535(14) 0.48819(9)
H86 H 0.8543 0.5116 0.4676
C110 C 0.85235(13) 0.55318(13) 0.50796(11)
H87 H 0.8704 0.5753 0.5009
C111 C 0.83549(14) 0.55871(11) 0.53813(11)
H88 H 0.8421 0.5846 0.5516
C112 C 0.80902(13) 0.52640(12) 0.54852(9)
N25 N 0.76808(15) 0.46249(16) 0.34595(10)
C113 C 0.74962(12) 0.48816(16) 0.31923(12)
C114 C 0.77204(17) 0.50075(16) 0.29322(10)
H89 H 0.7594 0.5183 0.2750
C115 C 0.81291(17) 0.48769(19) 0.29391(12)
H90 H 0.8282 0.4963 0.2761
C116 C 0.83138(13) 0.4620(2) 0.32063(14)
H91 H 0.8593 0.4531 0.3211
C117 C 0.80896(15) 0.44943(17) 0.34664(11)
H92 H 0.8216 0.4319 0.3649
N26 N 0.69076(15) 0.48756(17) 0.34964(10)
N27 N 0.64821(14) 0.4980(2) 0.34325(12)
C118 C 0.64049(16) 0.5149(2) 0.30980(14)
H93 H 0.6146 0.5246 0.2989
C119 C 0.6783(2) 0.5149(2) 0.29552(11)
H94 H 0.6821 0.5246 0.2734
C120 C 0.70934(14) 0.4980(2) 0.32014(14)
C121 C 0.6218(3) 0.4942(3) 0.3683(2)
H95 H 0.6285 0.4662 0.3812
H96 H 0.5932 0.4916 0.3573
N28 N 0.44179(14) 0.66544(16) 0.50121(10)
C122 C 0.45662(13) 0.64682(16) 0.53224(12)
C123 C 0.43473(17) 0.65212(18) 0.55983(10)
H97 H 0.4449 0.6394 0.5810
C124 C 0.39799(17) 0.6760(2) 0.55639(12)
H98 H 0.3830 0.6797 0.5752
C125 C 0.38316(14) 0.6947(2) 0.52536(14)
H99 H 0.3581 0.7110 0.5230
C126 C 0.40505(16) 0.68937(18) 0.49777(11)
H100 H 0.3949 0.7021 0.4766
N29 N 0.51751(13) 0.63364(14) 0.50650(9)
N30 N 0.55697(12) 0.61439(15) 0.51558(10)
C127 C 0.55820(13) 0.59723(16) 0.54893(10)
H101 H 0.5809 0.5825 0.5613
C128 C 0.51950(16) 0.60587(18) 0.56045(9)
H102 H 0.5118 0.5980 0.5819
C129 C 0.49436(12) 0.62837(16) 0.53423(12)
C130 C 0.5864(2) 0.6133(2) 0.49393(17)
H103 H 0.6139 0.6137 0.5073
H104 H 0.5839 0.6407 0.4798
C131 C 0.62427(12) 0.53351(13) 0.39305(8)
C132 C 0.65007(13) 0.56912(15) 0.38743(9)
H105 H 0.6653 0.5686 0.3685
C133 C 0.65360(12) 0.60547(13) 0.40945(11)
H106 H 0.6712 0.6298 0.4056
C134 C 0.63134(12) 0.60621(10) 0.43708(10)
H107 H 0.6337 0.6310 0.4521
C135 C 0.60554(9) 0.57060(8) 0.44270(7)
C136 C 0.60201(9) 0.53425(9) 0.42069(7)
C137 C 0.57622(12) 0.49863(10) 0.42630(10)
H108 H 0.5738 0.4738 0.4113
C138 C 0.55395(12) 0.49937(11) 0.45394(10)
H109 H 0.5363 0.4750 0.4578
C139 C 0.55748(12) 0.53572(13) 0.47595(9)
H110 H 0.5423 0.5362 0.4948
C140 C 0.58327(12) 0.57133(11) 0.47033(8)
N31 N 1.03711(13) 0.90770(11) 0.55311(10)
C141 C 1.02165(13) 0.92374(13) 0.58185(10)
C142 C 1.03556(16) 0.96440(14) 0.59599(10)
H111 H 1.0250 0.9754 0.6156
C143 C 1.06494(16) 0.98903(12) 0.58139(12)
H112 H 1.0744 1.0168 0.5910
C144 C 1.08040(14) 0.97300(15) 0.55265(12)
H113 H 1.1005 0.9898 0.5427
C145 C 1.06649(14) 0.93233(15) 0.53851(10)
H114 H 1.0771 0.9214 0.5189
N32 N 0.97972(14) 0.85786(14) 0.57785(9)
N33 N 0.94992(14) 0.83777(13) 0.59628(11)
C146 C 0.94490(15) 0.86580(17) 0.62432(11)
H115 H 0.9269 0.8605 0.6409
C147 C 0.97159(17) 0.90322(14) 0.62321(11)
H116 H 0.9745 0.9273 0.6389
C148 C 0.99311(14) 0.89831(14) 0.59449(12)
C149 C 0.9305(3) 0.7965(2) 0.5867(2)
H117 H 0.9282 0.7939 0.5618
H118 H 0.9022 0.7971 0.5932
N34 N 0.87761(14) 0.46288(13) 0.60580(11)
C150 C 0.89379(14) 0.45918(14) 0.57519(12)
C151 C 0.88249(18) 0.42337(17) 0.55372(11)
H119 H 0.8935 0.4208 0.5328
C152 C 0.85501(18) 0.39128(15) 0.56286(14)
H120 H 0.8473 0.3668 0.5482
C153 C 0.83883(16) 0.39498(14) 0.59347(15)
H121 H 0.8201 0.3730 0.5997
C154 C 0.85013(15) 0.43078(16) 0.61494(12)
H122 H 0.8391 0.4333 0.6359
N35 N 0.93012(15) 0.52661(15) 0.59149(11)
N36 N 0.96201(15) 0.55307(14) 0.58032(13)
C155 C 0.97282(18) 0.5339(2) 0.54996(14)
H123 H 0.9933 0.5447 0.5370
C156 C 0.9476(2) 0.49554(19) 0.54237(13)
H124 H 0.9483 0.4763 0.5235
C157 C 0.92123(16) 0.49106(15) 0.56804(14)
C158 C 0.9774(3) 0.5907(3) 0.5966(2)
H125 H 1.0059 0.5956 0.5913
H126 H 0.9786 0.5860 0.6213
C159 C 0.95216(13) 0.75558(9) 0.60194(10)
C160 C 0.98573(14) 0.75949(12) 0.62660(10)
H127 H 0.9936 0.7881 0.6357
C161 C 1.00783(12) 0.72150(15) 0.63796(10)
H128 H 1.0308 0.7242 0.6548
C162 C 0.99638(11) 0.67961(13) 0.62467(10)
H129 H 1.0115 0.6537 0.6324
C163 C 0.96281(9) 0.67571(9) 0.60001(8)
C164 C 0.94070(9) 0.71369(9) 0.58864(7)
C165 C 0.90714(11) 0.70979(12) 0.56398(10)
H130 H 0.8920 0.7358 0.5562
C166 C 0.89568(12) 0.66790(14) 0.55069(10)
H131 H 0.8727 0.6652 0.5338
C167 C 0.91779(13) 0.62992(11) 0.56205(10)
H132 H 0.9100 0.6013 0.5530
C168 C 0.95135(13) 0.63382(9) 0.58671(10)
Co1F Co 0.64359(3) 0.72097(3) 0.72387(2)
Co2F Co 1.01702(3) 0.84080(3) 0.53785(3)
Co3F Co 0.59898(3) 0.98143(3) 0.36399(3)
Co4F Co 0.76886(4) 1.04654(4) 0.61360(3)
N1F N 0.59653(13) 0.70549(16) 0.75731(10)
C1F C 0.59513(15) 0.73596(15) 0.78356(12)
C2F C 0.56820(18) 0.72899(18) 0.80756(11)
H1F H 0.5672 0.7498 0.8255
C3F C 0.54267(16) 0.6915(2) 0.80532(12)
H2F H 0.5243 0.6868 0.8217
C4F C 0.54408(16) 0.66107(18) 0.77907(14)
H3F H 0.5266 0.6355 0.7775
C5F C 0.57101(16) 0.66804(16) 0.75507(11)
H4F H 0.5720 0.6472 0.7371
N2F N 0.65066(16) 0.77309(15) 0.76027(10)
N3F N 0.67726(14) 0.81012(16) 0.76858(12)
C6F C 0.66560(19) 0.83049(16) 0.79824(13)
H5F H 0.6782 0.8560 0.8094
C7F C 0.63179(19) 0.8061(2) 0.80825(12)
H6F H 0.6178 0.8123 0.8273
C8F C 0.62255(15) 0.77058(18) 0.78478(13)
C9F C 0.7054(3) 0.8257(3) 0.7464(2)
H7F H 0.7280 0.8421 0.7598
H8F H 0.7176 0.7994 0.7361
N4F N 0.80228(16) 1.04665(18) 0.57038(10)
C10F C 0.79489(16) 1.00959(15) 0.54935(12)
C11F C 0.81246(18) 1.00720(18) 0.51929(11)
H9F H 0.8074 0.9819 0.5049
C12F C 0.83742(18) 1.0419(2) 0.51026(11)
H10F H 0.8494 1.0402 0.4897
C13F C 0.84481(19) 1.0789(2) 0.53128(14)
H11F H 0.8619 1.1026 0.5251
C14F C 0.82724(19) 1.08132(17) 0.56134(13)
H12F H 0.8323 1.1066 0.5757
N5F N 0.74712(16) 0.98590(14) 0.58618(11)
N6F N 0.71976(15) 0.94921(17) 0.58802(12)
C15F C 0.72427(19) 0.91998(15) 0.56054(15)
H13F H 0.7097 0.8928 0.5556
C16F C 0.75442(19) 0.93861(19) 0.54173(12)
H14F H 0.7635 0.9260 0.5220
C17F C 0.76854(16) 0.97935(18) 0.55757(13)
C18F C 0.6944(3) 0.9427(3) 0.6136(2)
H15F H 0.6869 0.9724 0.6222
H16F H 0.6686 0.9279 0.6037
C19F C 0.68621(12) 0.85597(13) 0.71843(9)
C20F C 0.64498(12) 0.86780(14) 0.71740(10)
H17F H 0.6292 0.8572 0.7343
C21F C 0.62681(9) 0.89519(15) 0.69162(12)
H18F H 0.5986 0.9033 0.6909
C22F C 0.64987(10) 0.91075(13) 0.66686(10)
H19F H 0.6375 0.9295 0.6492
C23F C 0.69110(9) 0.89892(9) 0.66789(7)
C24F C 0.70927(9) 0.87153(9) 0.69367(8)
C25F C 0.75050(10) 0.85969(14) 0.69470(11)
H20F H 0.7629 0.8410 0.7123
C26F C 0.77356(9) 0.87525(15) 0.66994(13)
H21F H 0.8017 0.8672 0.6706
C27F C 0.75539(12) 0.90265(15) 0.64416(11)
H22F H 0.7711 0.9133 0.6272
C28F C 0.71416(12) 0.91448(13) 0.64313(9)
N7F N 0.68668(13) 0.67763(14) 0.75206(11)
C29F C 0.68611(14) 0.63321(15) 0.74135(11)
C30F C 0.71606(17) 0.60345(13) 0.75543(13)
H23F H 0.7157 0.5731 0.7481
C31F C 0.74659(15) 0.61811(17) 0.78021(14)
H24F H 0.7671 0.5978 0.7898
C32F C 0.74716(14) 0.66254(19) 0.79092(12)
H25F H 0.7680 0.6726 0.8079
C33F C 0.71720(16) 0.69230(13) 0.77684(12)
H26F H 0.7176 0.7227 0.7842
N8F N 0.63055(14) 0.65638(11) 0.70109(11)
N9F N 0.59936(13) 0.63571(15) 0.67848(11)
C34F C 0.60523(17) 0.58852(14) 0.68064(14)
H27F H 0.5888 0.5665 0.6682
C35F C 0.64004(18) 0.58004(12) 0.70458(15)
H28F H 0.6510 0.5513 0.7110
C36F C 0.65569(14) 0.62198(17) 0.71721(12)
C37F C 0.5699(2) 0.6599(3) 0.65858(18)
H29F H 0.5447 0.6415 0.6542
H30F H 0.5630 0.6871 0.6711
N10F N 0.43876(15) 0.68944(16) 0.42516(13)
C38F C 0.43811(17) 0.73608(16) 0.42603(14)
C39F C 0.4092(2) 0.75961(14) 0.40451(17)
H31F H 0.4087 0.7915 0.4051
C40F C 0.38091(19) 0.7365(2) 0.38213(17)
H32F H 0.3611 0.7526 0.3674
C41F C 0.3816(2) 0.6899(2) 0.38126(17)
H33F H 0.3622 0.6741 0.3660
C42F C 0.4105(2) 0.66634(14) 0.40277(16)
H34F H 0.4109 0.6345 0.4022
N11F N 0.49687(15) 0.72889(10) 0.46729(12)
N12F N 0.52396(13) 0.75745(14) 0.48795(11)
C43F C 0.51115(17) 0.80247(11) 0.48144(13)
H35F H 0.5238 0.8285 0.4918
C44F C 0.47613(17) 0.80173(14) 0.45675(14)
H36F H 0.4612 0.8272 0.4477
C45F C 0.46730(14) 0.75626(16) 0.44801(12)
C46F C 0.5552(2) 0.7416(2) 0.51113(17)
H37F H 0.5657 0.7133 0.5024
H38F H 0.5780 0.7637 0.5129
C47F C 0.58375(11) 0.67429(13) 0.62442(7)
C48F C 0.62215(10) 0.66079(13) 0.61652(9)
H39F H 0.6401 0.6444 0.6325
C49F C 0.63434(9) 0.67133(14) 0.58520(10)
H40F H 0.6606 0.6621 0.5798
C50F C 0.60813(9) 0.69538(13) 0.56178(8)
H41F H 0.6165 0.7026 0.5404
C51F C 0.56972(8) 0.70888(9) 0.56968(6)
C52F C 0.55753(8) 0.69834(9) 0.60100(6)
C53F C 0.51913(10) 0.71184(13) 0.60890(8)
H42F H 0.5108 0.7046 0.6303
C54F C 0.49292(9) 0.73589(13) 0.58548(10)
H43F H 0.4667 0.7451 0.5909
C55F C 0.50510(10) 0.74643(12) 0.55416(9)
H44F H 0.4872 0.7629 0.5382
C56F C 0.54351(11) 0.73293(12) 0.54626(7)
N13F N 0.60458(13) 0.76152(14) 0.69010(9)
C57F C 0.62261(12) 0.77675(16) 0.66232(11)
C58F C 0.59964(17) 0.80174(16) 0.63738(10)
H45F H 0.6120 0.8121 0.6184
C59F C 0.55863(17) 0.81150(17) 0.64021(12)
H46F H 0.5429 0.8286 0.6232
C60F C 0.54060(12) 0.79627(18) 0.66798(14)
H47F H 0.5126 0.8029 0.6699
C61F C 0.56358(14) 0.77128(17) 0.69293(11)
H48F H 0.5513 0.7609 0.7119
N14F N 0.68472(13) 0.74257(14) 0.68795(9)
N15F N 0.72654(12) 0.74025(16) 0.68175(11)
C62F C 0.73057(14) 0.76454(19) 0.65166(12)
H49F H 0.7552 0.7685 0.6416
C63F C 0.69125(18) 0.78187(18) 0.63926(10)
H50F H 0.6850 0.7995 0.6194
C64F C 0.66291(12) 0.76829(17) 0.66169(12)
C65F C 0.7558(2) 0.7128(2) 0.69927(18)
H51F H 0.7834 0.7253 0.6971
H52F H 0.7518 0.7136 0.7235
N16F N 0.95401(15) 0.47737(17) 0.65553(14)
C66F C 0.94711(15) 0.4517(2) 0.68343(15)
C67F C 0.97615(19) 0.4202(2) 0.69636(16)
H53F H 0.9714 0.4026 0.7154
C68F C 1.01209(17) 0.4144(2) 0.6814(2)
H54F H 1.0319 0.3929 0.6902
C69F C 1.01899(16) 0.4401(2) 0.65350(19)
H55F H 1.0436 0.4362 0.6433
C70F C 0.98995(18) 0.4716(2) 0.64057(14)
H56F H 0.9947 0.4892 0.6215
N17F N 0.88207(15) 0.48797(15) 0.68021(11)
N18F N 0.84545(13) 0.48427(16) 0.69594(12)
C71F C 0.85165(16) 0.45043(18) 0.72112(13)
H57F H 0.8322 0.4410 0.7355
C72F C 0.89210(17) 0.43321(17) 0.72094(14)
H58F H 0.9044 0.4102 0.7352
C73F C 0.91090(13) 0.45641(19) 0.69566(15)
C74F C 0.8111(2) 0.5111(2) 0.68652(19)
H59F H 0.8068 0.5127 0.6615
H60F H 0.7867 0.4960 0.6940
C75F C 0.75479(11) 0.66421(10) 0.68763(10)
C76F C 0.72200(10) 0.65060(13) 0.66452(10)
H61F H 0.7013 0.6715 0.6564
C77F C 0.71954(10) 0.60637(15) 0.65335(10)
H62F H 0.6971 0.5971 0.6376
C78F C 0.74987(11) 0.57576(11) 0.66529(10)
H63F H 0.7482 0.5455 0.6577
C79F C 0.78266(9) 0.58937(9) 0.68840(7)
C80F C 0.78512(8) 0.63359(9) 0.69957(7)
C81F C 0.81791(10) 0.64720(11) 0.72269(9)
H64F H 0.8196 0.6774 0.7303
C82F C 0.84824(10) 0.61659(14) 0.73463(9)
H65F H 0.8707 0.6259 0.7504
C83F C 0.84578(10) 0.57237(13) 0.72346(10)
H66F H 0.8665 0.5514 0.7316
C84F C 0.81299(11) 0.55876(9) 0.70035(10)
N19F N 0.7957(2) 1.1095(2) 0.63341(16)
C85F C 0.7755(3) 1.1459(3) 0.6241(2)
C86F C 0.7912(4) 1.1893(3) 0.6319(3)
H67F H 0.7760 1.2152 0.6241
C87F C 0.8280(4) 1.1933(4) 0.6505(3)
H68F H 0.8392 1.2222 0.6558
C88F C 0.8494(4) 1.1551(3) 0.6621(2)
H69F H 0.8752 1.1576 0.6757
C89F C 0.8330(3) 1.1138(3) 0.6536(2)
H70F H 0.8475 1.0876 0.6616
N20F N 0.72776(17) 1.09653(16) 0.59206(14)
N21F N 0.68840(17) 1.09831(18) 0.57284(14)
C90F C 0.67413(19) 1.1433(2) 0.57312(19)
H71F H 0.6486 1.1541 0.5622
C91F C 0.7047(2) 1.16934(15) 0.5925(2)
H72F H 0.7032 1.2006 0.5969
C92F C 0.73782(18) 1.14044(19) 0.60422(16)
C93F C 0.6729(3) 1.0613(3) 0.5532(2)
H73F H 0.6767 1.0338 0.5671
H74F H 0.6429 1.0655 0.5469
N22F N 0.57871(15) 0.92245(13) 0.33695(12)
C94F C 0.60335(13) 0.88478(16) 0.34382(12)
C95F C 0.59220(18) 0.84412(14) 0.32826(14)
H75F H 0.6090 0.8184 0.3330
C96F C 0.5564(2) 0.84112(16) 0.30583(14)
H76F H 0.5488 0.8133 0.2952
C97F C 0.53178(16) 0.8788(2) 0.29896(13)
H77F H 0.5073 0.8767 0.2836
C98F C 0.54293(15) 0.91945(17) 0.31452(14)
H78F H 0.5261 0.9452 0.3098
N23F N 0.64797(13) 0.93471(12) 0.37773(12)
N24F N 0.68727(13) 0.93278(13) 0.39704(12)
C99F C 0.70169(13) 0.88787(16) 0.39631(14)
H79F H 0.7272 0.8770 0.4071
C100F C 0.67132(17) 0.86206(11) 0.37654(14)
H80F H 0.6729 0.8309 0.3718
C101F C 0.63811(14) 0.89100(15) 0.36506(12)
C102F C 0.7046(2) 0.9689(3) 0.4158(2)
H81F H 0.7349 0.9659 0.4180
H82F H 0.6973 0.9969 0.4030
C103F C 0.69334(14) 1.05479(13) 0.52119(9)
C104F C 0.71982(15) 1.08710(12) 0.51080(11)
H83F H 0.7264 1.1130 0.5243
C105F C 0.73668(14) 1.08158(12) 0.48064(12)
H84F H 0.7548 1.1037 0.4735
C106F C 0.72706(12) 1.04375(12) 0.46086(10)
H85F H 0.7386 1.0400 0.4402
C107F C 0.70059(9) 1.01144(10) 0.47125(7)
C108F C 0.68373(10) 1.01696(10) 0.50142(7)
C109F C 0.65726(13) 0.98465(14) 0.51181(9)
H86F H 0.6457 0.9884 0.5324
C110F C 0.64765(13) 0.94682(13) 0.49204(11)
H87F H 0.6296 0.9247 0.4991
C111F C 0.66451(14) 0.94129(11) 0.46187(11)
H88F H 0.6579 0.9154 0.4484
C112F C 0.69098(13) 0.97360(12) 0.45148(9)
N25F N 0.73192(15) 1.03751(16) 0.65405(10)
C113F C 0.75038(12) 1.01184(16) 0.68077(12)
C114F C 0.72796(17) 0.99925(16) 0.70678(10)
H89F H 0.7406 0.9817 0.7250
C115F C 0.68709(17) 1.01231(19) 0.70609(12)
H90F H 0.6718 1.0037 0.7239
C116F C 0.66862(13) 1.0380(2) 0.67937(14)
H91F H 0.6407 1.0469 0.6789
C117F C 0.69104(15) 1.05057(17) 0.65336(11)
H92F H 0.6784 1.0681 0.6351
N26F N 0.80924(15) 1.01244(17) 0.65036(10)
N27F N 0.85179(14) 1.0020(2) 0.65675(12)
C118F C 0.85951(16) 0.9851(2) 0.69020(14)
H93F H 0.8854 0.9754 0.7011
C119F C 0.8217(2) 0.9851(2) 0.70448(11)
H94F H 0.8179 0.9754 0.7266
C120F C 0.79066(14) 1.0020(2) 0.67986(14)
C121F C 0.8782(3) 1.0058(3) 0.6317(2)
H95F H 0.8715 1.0338 0.6188
H96F H 0.9068 1.0084 0.6427
N28F N 1.05821(14) 0.83456(16) 0.49879(10)
C122F C 1.04338(13) 0.85318(16) 0.46776(12)
C123F C 1.06527(17) 0.84788(18) 0.44017(10)
H97F H 1.0551 0.8606 0.4190
C124F C 1.10201(17) 0.8240(2) 0.44361(12)
H98F H 1.1170 0.8203 0.4248
C125F C 1.11684(14) 0.8053(2) 0.47464(14)
H99F H 1.1419 0.7890 0.4770
C126F C 1.09495(16) 0.81063(18) 0.50223(11)
H100F H 1.1051 0.7979 0.5234
N29F N 0.98249(13) 0.86636(14) 0.49350(9)
N30F N 0.94303(12) 0.88561(15) 0.48442(10)
C127F C 0.94180(13) 0.90277(16) 0.45107(10)
H101F H 0.9191 0.9175 0.4387
C128F C 0.98050(16) 0.89413(18) 0.43955(9)
H102F H 0.9882 0.9020 0.4181
C129F C 1.00564(12) 0.87163(16) 0.46577(12)
C130F C 0.9136(2) 0.8867(2) 0.50607(17)
H103F H 0.8861 0.8863 0.4927
H104F H 0.9161 0.8593 0.5202
C131F C 0.87573(12) 0.96649(13) 0.60695(8)
C132F C 0.84993(13) 0.93088(15) 0.61257(9)
H105F H 0.8347 0.9314 0.6315
C133F C 0.84640(12) 0.89453(13) 0.59055(11)
H106F H 0.8288 0.8702 0.5944
C134F C 0.86866(12) 0.89379(10) 0.56292(10)
H107F H 0.8663 0.8690 0.5479
C135F C 0.89446(9) 0.92940(8) 0.55730(7)
C136F C 0.89799(9) 0.96575(9) 0.57931(7)
C137F C 0.92378(12) 1.00137(10) 0.57370(10)
H108F H 0.9262 1.0262 0.5887
C138F C 0.94605(12) 1.00063(11) 0.54606(10)
H109F H 0.9637 1.0250 0.5422
C139F C 0.94252(12) 0.96428(13) 0.52405(9)
H110F H 0.9577 0.9638 0.5052
C140F C 0.91673(12) 0.92867(11) 0.52967(8)
N31F N 0.46289(13) 0.59230(11) 0.44689(10)
C141F C 0.47835(13) 0.57626(13) 0.41815(10)
C142F C 0.46444(16) 0.53560(14) 0.40401(10)
H111F H 0.4750 0.5246 0.3844
C143F C 0.43506(16) 0.51097(12) 0.41861(12)
H112F H 0.4256 0.4832 0.4090
C144F C 0.41960(14) 0.52700(15) 0.44735(12)
H113F H 0.3995 0.5102 0.4573
C145F C 0.43351(14) 0.56767(15) 0.46149(10)
H114F H 0.4229 0.5786 0.4811
N32F N 0.52028(14) 0.64214(14) 0.42215(9)
N33F N 0.55008(14) 0.66223(13) 0.40372(11)
C146F C 0.55510(15) 0.63420(17) 0.37568(11)
H115F H 0.5731 0.6395 0.3591
C147F C 0.52841(17) 0.59678(14) 0.37679(11)
H116F H 0.5255 0.5727 0.3611
C148F C 0.50689(14) 0.60169(14) 0.40551(12)
C149F C 0.5695(3) 0.7035(2) 0.4133(2)
H117F H 0.5718 0.7061 0.4382
H118F H 0.5978 0.7029 0.4068
N34F N 0.62239(14) 1.03712(13) 0.39420(11)
C150F C 0.60621(14) 1.04082(14) 0.42481(12)
C151F C 0.61751(18) 1.07663(17) 0.44628(11)
H119F H 0.6065 1.0792 0.4672
C152F C 0.64499(18) 1.10872(15) 0.43714(14)
H120F H 0.6527 1.1332 0.4518
C153F C 0.66117(16) 1.10502(14) 0.40653(15)
H121F H 0.6799 1.1270 0.4003
C154F C 0.64987(15) 1.06922(16) 0.38506(12)
H122F H 0.6609 1.0667 0.3641
N35F N 0.56988(15) 0.97339(15) 0.40851(11)
N36F N 0.53799(15) 0.94693(14) 0.41968(13)
C155F C 0.52718(18) 0.9661(2) 0.45004(14)
H123F H 0.5067 0.9553 0.4630
C156F C 0.5524(2) 1.00446(19) 0.45763(13)
H124F H 0.5517 1.0237 0.4765
C157F C 0.57877(16) 1.00894(15) 0.43196(14)
C158F C 0.5226(3) 0.9093(3) 0.4034(2)
H125F H 0.4941 0.9044 0.4087
H126F H 0.5214 0.9140 0.3787
C159F C 0.54784(13) 0.74442(9) 0.39806(10)
C160F C 0.51427(14) 0.74051(12) 0.37340(10)
H127F H 0.5064 0.7119 0.3643
C161F C 0.49217(12) 0.77850(15) 0.36204(10)
H128F H 0.4692 0.7758 0.3452
C162F C 0.50362(11) 0.82039(13) 0.37533(10)
H129F H 0.4885 0.8463 0.3676
C163F C 0.53719(9) 0.82429(9) 0.39999(8)
C164F C 0.55930(9) 0.78631(9) 0.41136(7)
C165F C 0.59286(11) 0.79021(12) 0.43602(10)
H130F H 0.6080 0.7642 0.4438
C166F C 0.60432(12) 0.83210(14) 0.44931(10)
H131F H 0.6273 0.8348 0.4662
C167F C 0.58221(13) 0.87008(11) 0.43795(10)
H132F H 0.5900 0.8987 0.4470
C168F C 0.54865(13) 0.86618(9) 0.41329(10)
B1 B 0.7852(3) 1.0485(3) 0.2891(2)
F1 F 0.7863(3) 1.0036(3) 0.2786(2)
F2 F 0.7878(4) 1.0499(4) 0.3249(2)
F3 F 0.7483(2) 1.0686(2) 0.27536(18)
F4 F 0.8193(3) 1.0717(4) 0.2785(3)
B2 B 1.17355(19) 1.0515(2) 0.56724(15)
F5 F 1.19270(16) 1.00996(16) 0.57090(13)
F6 F 1.14761(14) 1.05740(15) 0.59207(11)
F7 F 1.15049(16) 1.05288(17) 0.53576(12)
F8 F 1.20317(14) 1.08506(15) 0.56996(11)
B3 B 0.6439(2) 0.7223(3) 0.33473(19)
F9 F 0.6390(2) 0.6852(2) 0.35345(18)
F10 F 0.6056(3) 0.7382(3) 0.3228(2)
F11 F 0.6657(3) 0.7551(3) 0.3525(2)
F12 F 0.6644(2) 0.7110(3) 0.3077(2)
B4 B 0.50941(19) 0.4368(2) 0.34749(15)
F13 F 0.53949(18) 0.41254(19) 0.36663(14)
F14 F 0.47584(15) 0.44130(16) 0.36526(12)
F15 F 0.49764(15) 0.41440(15) 0.31762(11)
F16 F 0.52370(16) 0.47873(16) 0.34110(13)
B5 B 0.8818(3) 0.3101(3) 0.4992(2)
F17 F 0.8895(3) 0.3546(3) 0.4905(2)
F18 F 0.9120(3) 0.2961(3) 0.5247(2)
F19 F 0.8828(3) 0.2825(3) 0.4709(2)
F20 F 0.8429(3) 0.3069(3) 0.5105(2)
F21 F 0.9709(4) 0.4005(4) 0.4879(3)
B6 B 0.9329(3) 0.4074(3) 0.4701(3)
F22 F 0.9327(5) 0.3948(5) 0.4370(4)
F23 F 0.9230(5) 0.4522(5) 0.4713(4)
F24 F 0.9044(5) 0.3826(6) 0.4846(4)
B7 B 1.2118(3) 0.7706(4) 0.6883(3)
F25 F 1.1950(4) 0.7319(4) 0.6693(3)
F26 F 1.1860(4) 0.8095(4) 0.6795(4)
F27 F 1.2130(4) 0.7623(4) 0.7243(3)
F28 F 1.2529(4) 0.7789(4) 0.6799(3)
P1 P 0.6881(3) 0.7163(3) 0.4962(2)
O1 O 0.6460(2) 0.7063(3) 0.4829(2)
O2 O 0.6897(6) 0.7547(6) 0.5256(4)
C169 C 0.6634(9) 0.7923(5) 0.5318(8)
H133 H 0.6416 0.7857 0.5126
C170 C 0.6671(5) 0.8416(4) 0.5241(4)
H134 H 0.6438 0.8578 0.5317
H135 H 0.6929 0.8532 0.5360
H136 H 0.6671 0.8457 0.4997
C171 C 0.6347(7) 0.7989(9) 0.5575(6)
H137 H 0.6217 0.8285 0.5544
H138 H 0.6134 0.7756 0.5550
H139 H 0.6499 0.7970 0.5801
O3 O 0.7129(5) 0.7435(6) 0.4702(4)
C172 C 0.7087(10) 0.7413(7) 0.4340(5)
H140 H 0.6801 0.7435 0.4222
C173 C 0.7375(9) 0.7786(9) 0.4277(7)
H141 H 0.7384 0.7819 0.4034
H142 H 0.7279 0.8067 0.4369
H143 H 0.7651 0.7716 0.4388
C174 C 0.7309(10) 0.6984(9) 0.4301(7)
H144 H 0.7308 0.6917 0.4060
H145 H 0.7593 0.7011 0.4408
H146 H 0.7171 0.6741 0.4410
C175 C 0.7195(6) 0.6691(6) 0.5132(7)
H147 H 0.7473 0.6798 0.5214
H148 H 0.7070 0.6555 0.5319
H149 H 0.7213 0.6467 0.4954
loop_
_geom_bond_atom_site_label_1
_geom_bond_atom_site_label_2
_geom_bond_site_symmetry_1
_geom_bond_site_symmetry_2
Co1 N1 1_555 1_555
Co2 N28 1_555 1_555
Co3 N22 1_555 1_555
Co4 N4 1_555 1_555
N1 C1 1_555 1_555
C1 C2 1_555 1_555
C2 H1 1_555 1_555
C3 C2 1_555 1_555
H2 C3 1_555 1_555
C4 C3 1_555 1_555
H3 C4 1_555 1_555
C5 N1 1_555 1_555
H4 C5 1_555 1_555
N2 Co1 1_555 1_555
N3 N2 1_555 1_555
C6 N3 1_555 1_555
H5 C6 1_555 1_555
C7 C6 1_555 1_555
H6 C7 1_555 1_555
C8 C1 1_555 1_555
C9 N3 1_555 1_555
H7 C9 1_555 1_555
H8 C9 1_555 1_555
N4 C10 1_555 1_555
C10 C11 1_555 1_555
C11 H9 1_555 1_555
C12 C11 1_555 1_555
H10 C12 1_555 1_555
C13 C12 1_555 1_555
H11 C13 1_555 1_555
C14 N4 1_555 1_555
H12 C14 1_555 1_555
N5 Co4 1_555 1_555
N6 N5 1_555 1_555
C15 N6 1_555 1_555
H13 C15 1_555 1_555
C16 C15 1_555 1_555
H14 C16 1_555 1_555
C17 C10 1_555 1_555
C18 N6 1_555 1_555
H15 C18 1_555 1_555
H16 C18 1_555 1_555
C19 C9 1_555 1_555
C20 C19 1_555 1_555
H17 C20 1_555 1_555
C21 C20 1_555 1_555
H18 C21 1_555 1_555
C22 C21 1_555 1_555
H19 C22 1_555 1_555
C23 C22 1_555 1_555
C24 C19 1_555 1_555
C25 C24 1_555 1_555
H20 C25 1_555 1_555
C26 C25 1_555 1_555
H21 C26 1_555 1_555
C27 C26 1_555 1_555
H22 C27 1_555 1_555
C28 C18 1_555 1_555
N7 Co1 1_555 1_555
C29 N7 1_555 1_555
C30 C29 1_555 1_555
H23 C30 1_555 1_555
C31 C30 1_555 1_555
H24 C31 1_555 1_555
C32 C31 1_555 1_555
H25 C32 1_555 1_555
C33 N7 1_555 1_555
H26 C33 1_555 1_555
N8 Co1 1_555 1_555
N9 N8 1_555 1_555
C34 N9 1_555 1_555
H27 C34 1_555 1_555
C35 C34 1_555 1_555
H28 C35 1_555 1_555
C36 C29 1_555 1_555
C37 N9 1_555 1_555
H29 C37 1_555 1_555
H30 C37 1_555 1_555
N10 C38 1_555 1_555
C38 C39 1_555 1_555
C39 H31 1_555 1_555
C40 C39 1_555 1_555
H32 C40 1_555 1_555
C41 C40 1_555 1_555
H33 C41 1_555 1_555
C42 N10 1_555 1_555
H34 C42 1_555 1_555
N11 N12 1_555 1_555
N12 C43 1_555 1_555
C43 H35 1_555 1_555
C44 C43 1_555 1_555
H36 C44 1_555 1_555
C45 C38 1_555 1_555
C46 N12 1_555 1_555
H37 C46 1_555 1_555
H38 C46 1_555 1_555
C47 C37 1_555 1_555
C48 C47 1_555 1_555
H39 C48 1_555 1_555
C49 C48 1_555 1_555
H40 C49 1_555 1_555
C50 C49 1_555 1_555
H41 C50 1_555 1_555
C51 C50 1_555 1_555
C52 C47 1_555 1_555
C53 C52 1_555 1_555
H42 C53 1_555 1_555
C54 C53 1_555 1_555
H43 C54 1_555 1_555
C55 C54 1_555 1_555
H44 C55 1_555 1_555
C56 C46 1_555 1_555
N13 Co1 1_555 1_555
C57 N13 1_555 1_555
C58 C57 1_555 1_555
H45 C58 1_555 1_555
C59 C58 1_555 1_555
H46 C59 1_555 1_555
C60 C59 1_555 1_555
H47 C60 1_555 1_555
C61 N13 1_555 1_555
H48 C61 1_555 1_555
N14 Co1 1_555 1_555
N15 N14 1_555 1_555
C62 N15 1_555 1_555
H49 C62 1_555 1_555
C63 C62 1_555 1_555
H50 C63 1_555 1_555
C64 C57 1_555 1_555
C65 N15 1_555 1_555
H51 C65 1_555 1_555
H52 C65 1_555 1_555
N16 C66 1_555 1_555
C66 C67 1_555 1_555
C67 H53 1_555 1_555
C68 C67 1_555 1_555
H54 C68 1_555 1_555
C69 C68 1_555 1_555
H55 C69 1_555 1_555
C70 N16 1_555 1_555
H56 C70 1_555 1_555
N17 N18 1_555 1_555
N18 C71 1_555 1_555
C71 H57 1_555 1_555
C72 C71 1_555 1_555
H58 C72 1_555 1_555
C73 C66 1_555 1_555
C74 N18 1_555 1_555
H59 C74 1_555 1_555
H60 C74 1_555 1_555
C75 C65 1_555 1_555
C76 C75 1_555 1_555
H61 C76 1_555 1_555
C77 C76 1_555 1_555
H62 C77 1_555 1_555
C78 C77 1_555 1_555
H63 C78 1_555 1_555
C79 C78 1_555 1_555
C80 C75 1_555 1_555
C81 C80 1_555 1_555
H64 C81 1_555 1_555
C82 C81 1_555 1_555
H65 C82 1_555 1_555
C83 C82 1_555 1_555
H66 C83 1_555 1_555
C84 C74 1_555 1_555
N19 Co4 1_555 1_555
C85 N19 1_555 1_555
C86 C85 1_555 1_555
H67 C86 1_555 1_555
C87 C86 1_555 1_555
H68 C87 1_555 1_555
C88 C87 1_555 1_555
H69 C88 1_555 1_555
C89 N19 1_555 1_555
H70 C89 1_555 1_555
N20 Co4 1_555 1_555
N21 N20 1_555 1_555
C90 N21 1_555 1_555
H71 C90 1_555 1_555
C91 C90 1_555 1_555
H72 C91 1_555 1_555
C92 C85 1_555 1_555
C93 N21 1_555 1_555
H73 C93 1_555 1_555
H74 C93 1_555 1_555
N22 C94 1_555 1_555
C94 C95 1_555 1_555
C95 H75 1_555 1_555
C96 C95 1_555 1_555
H76 C96 1_555 1_555
C97 C96 1_555 1_555
H77 C97 1_555 1_555
C98 N22 1_555 1_555
H78 C98 1_555 1_555
N23 Co3 1_555 1_555
N24 N23 1_555 1_555
C99 N24 1_555 1_555
H79 C99 1_555 1_555
C100 C99 1_555 1_555
H80 C100 1_555 1_555
C101 C94 1_555 1_555
C102 N24 1_555 1_555
H81 C102 1_555 1_555
H82 C102 1_555 1_555
C103 C93 1_555 1_555
C104 C103 1_555 1_555
H83 C104 1_555 1_555
C105 C104 1_555 1_555
H84 C105 1_555 1_555
C106 C105 1_555 1_555
H85 C106 1_555 1_555
C107 C106 1_555 1_555
C108 C103 1_555 1_555
C109 C108 1_555 1_555
H86 C109 1_555 1_555
C110 C109 1_555 1_555
H87 C110 1_555 1_555
C111 C110 1_555 1_555
H88 C111 1_555 1_555
C112 C102 1_555 1_555
N25 Co4 1_555 1_555
C113 N25 1_555 1_555
C114 C113 1_555 1_555
H89 C114 1_555 1_555
C115 C114 1_555 1_555
H90 C115 1_555 1_555
C116 C115 1_555 1_555
H91 C116 1_555 1_555
C117 N25 1_555 1_555
H92 C117 1_555 1_555
N26 Co4 1_555 1_555
N27 N26 1_555 1_555
C118 N27 1_555 1_555
H93 C118 1_555 1_555
C119 C118 1_555 1_555
H94 C119 1_555 1_555
C120 C113 1_555 1_555
C121 N27 1_555 1_555
H95 C121 1_555 1_555
H96 C121 1_555 1_555
N28 C122 1_555 1_555
C122 C123 1_555 1_555
C123 H97 1_555 1_555
C124 C123 1_555 1_555
H98 C124 1_555 1_555
C125 C124 1_555 1_555
H99 C125 1_555 1_555
C126 N28 1_555 1_555
H100 C126 1_555 1_555
N29 Co2 1_555 1_555
N30 N29 1_555 1_555
C127 N30 1_555 1_555
H101 C127 1_555 1_555
C128 C127 1_555 1_555
H102 C128 1_555 1_555
C129 C122 1_555 1_555
C130 N30 1_555 1_555
H103 C130 1_555 1_555
H104 C130 1_555 1_555
C131 C121 1_555 1_555
C132 C131 1_555 1_555
H105 C132 1_555 1_555
C133 C132 1_555 1_555
H106 C133 1_555 1_555
C134 C133 1_555 1_555
H107 C134 1_555 1_555
C135 C134 1_555 1_555
C136 C131 1_555 1_555
C137 C136 1_555 1_555
H108 C137 1_555 1_555
C138 C137 1_555 1_555
H109 C138 1_555 1_555
C139 C138 1_555 1_555
H110 C139 1_555 1_555
C140 C130 1_555 1_555
N31 C141 1_555 1_555
C141 C142 1_555 1_555
C142 H111 1_555 1_555
C143 C142 1_555 1_555
H112 C143 1_555 1_555
C144 C143 1_555 1_555
H113 C144 1_555 1_555
C145 N31 1_555 1_555
H114 C145 1_555 1_555
N32 N33 1_555 1_555
N33 C146 1_555 1_555
C146 H115 1_555 1_555
C147 C146 1_555 1_555
H116 C147 1_555 1_555
C148 C141 1_555 1_555
C149 N33 1_555 1_555
H117 C149 1_555 1_555
H118 C149 1_555 1_555
N34 Co3 1_555 1_555
C150 N34 1_555 1_555
C151 C150 1_555 1_555
H119 C151 1_555 1_555
C152 C151 1_555 1_555
H120 C152 1_555 1_555
C153 C152 1_555 1_555
H121 C153 1_555 1_555
C154 N34 1_555 1_555
H122 C154 1_555 1_555
N35 Co3 1_555 1_555
N36 N35 1_555 1_555
C155 N36 1_555 1_555
H123 C155 1_555 1_555
C156 C155 1_555 1_555
H124 C156 1_555 1_555
C157 C150 1_555 1_555
C158 N36 1_555 1_555
H125 C158 1_555 1_555
H126 C158 1_555 1_555
C159 C149 1_555 1_555
C160 C159 1_555 1_555
H127 C160 1_555 1_555
C161 C160 1_555 1_555
H128 C161 1_555 1_555
C162 C161 1_555 1_555
H129 C162 1_555 1_555
C163 C162 1_555 1_555
C164 C159 1_555 1_555
C165 C164 1_555 1_555
H130 C165 1_555 1_555
C166 C165 1_555 1_555
H131 C166 1_555 1_555
C167 C166 1_555 1_555
H132 C167 1_555 1_555
C168 C158 1_555 1_555
B1 F1 1_555 1_555
F2 B1 1_555 1_555
F3 B1 1_555 1_555
F4 B1 1_555 1_555
B2 F5 1_555 1_555
F6 B2 1_555 1_555
F7 B2 1_555 1_555
F8 B2 1_555 1_555
B3 F9 1_555 1_555
F10 B3 1_555 1_555
F11 B3 1_555 1_555
F12 B3 1_555 1_555
B4 F13 1_555 1_555
F14 B4 1_555 1_555
F15 B4 1_555 1_555
F16 B4 1_555 1_555
B5 F17 1_555 1_555
F18 B5 1_555 1_555
F19 B5 1_555 1_555
F20 B5 1_555 1_555
F21 B6 1_555 1_555
B6 F22 1_555 1_555
F23 B6 1_555 1_555
F24 B6 1_555 1_555
B7 F25 1_555 1_555
F26 B7 1_555 1_555
F27 B7 1_555 1_555
F28 B7 1_555 1_555
P1 O1 1_555 1_555
O2 P1 1_555 1_555
C169 O2 1_555 1_555
H133 C169 1_555 1_555
C170 C169 1_555 1_555
H134 C170 1_555 1_555
H135 C170 1_555 1_555
H136 C170 1_555 1_555
C171 C169 1_555 1_555
H137 C171 1_555 1_555
H138 C171 1_555 1_555
H139 C171 1_555 1_555
O3 P1 1_555 1_555
C172 O3 1_555 1_555
H140 C172 1_555 1_555
C173 C172 1_555 1_555
H141 C173 1_555 1_555
H142 C173 1_555 1_555
H143 C173 1_555 1_555
C174 C172 1_555 1_555
H144 C174 1_555 1_555
H145 C174 1_555 1_555
H146 C174 1_555 1_555
C175 P1 1_555 1_555
H147 C175 1_555 1_555
H148 C175 1_555 1_555
H149 C175 1_555 1_555
Co1F N1F 1_555 1_555
Co2F N10 1_555 1_555
Co3F N16 1_555 1_555
Co4F N4F 1_555 1_555
N1F C1F 1_555 1_555
C1F C2F 1_555 1_555
C2F H1F 1_555 1_555
C3F C2F 1_555 1_555
H2F C3F 1_555 1_555
C4F C3F 1_555 1_555
H3F C4F 1_555 1_555
C5F N1F 1_555 1_555
H4F C5F 1_555 1_555
N2F Co1F 1_555 1_555
N3F N2F 1_555 1_555
C6F N3F 1_555 1_555
H5F C6F 1_555 1_555
C7F C6F 1_555 1_555
H6F C7F 1_555 1_555
C8F C1F 1_555 1_555
C9F N3F 1_555 1_555
H7F C9F 1_555 1_555
H8F C9F 1_555 1_555
N4F C10F 1_555 1_555
C10F C11F 1_555 1_555
C11F H9F 1_555 1_555
C12F C11F 1_555 1_555
H10F C12F 1_555 1_555
C13F C12F 1_555 1_555
H11F C13F 1_555 1_555
C14F N4F 1_555 1_555
H12F C14F 1_555 1_555
N5F Co4F 1_555 1_555
N6F N5F 1_555 1_555
C15F N6F 1_555 1_555
H13F C15F 1_555 1_555
C16F C15F 1_555 1_555
H14F C16F 1_555 1_555
C17F C10F 1_555 1_555
C18F N6F 1_555 1_555
H15F C18F 1_555 1_555
H16F C18F 1_555 1_555
C19F C9F 1_555 1_555
C20F C19F 1_555 1_555
H17F C20F 1_555 1_555
C21F C20F 1_555 1_555
H18F C21F 1_555 1_555
C22F C21F 1_555 1_555
H19F C22F 1_555 1_555
C23F C22F 1_555 1_555
C24F C19F 1_555 1_555
C25F C24F 1_555 1_555
H20F C25F 1_555 1_555
C26F C25F 1_555 1_555
H21F C26F 1_555 1_555
C27F C26F 1_555 1_555
H22F C27F 1_555 1_555
C28F C18F 1_555 1_555
N7F Co1F 1_555 1_555
C29F N7F 1_555 1_555
C30F C29F 1_555 1_555
H23F C30F 1_555 1_555
C31F C30F 1_555 1_555
H24F C31F 1_555 1_555
C32F C31F 1_555 1_555
H25F C32F 1_555 1_555
C33F N7F 1_555 1_555
H26F C33F 1_555 1_555
N8F Co1F 1_555 1_555
N9F N8F 1_555 1_555
C34F N9F 1_555 1_555
H27F C34F 1_555 1_555
C35F C34F 1_555 1_555
H28F C35F 1_555 1_555
C36F C29F 1_555 1_555
C37F N9F 1_555 1_555
H29F C37F 1_555 1_555
H30F C37F 1_555 1_555
N10F Co2 1_555 1_555
C38F N10F 1_555 1_555
C39F C38F 1_555 1_555
H31F C39F 1_555 1_555
C40F C39F 1_555 1_555
H32F C40F 1_555 1_555
C41F C40F 1_555 1_555
H33F C41F 1_555 1_555
C42F N10F 1_555 1_555
H34F C42F 1_555 1_555
N11F Co2 1_555 1_555
N12F N11F 1_555 1_555
C43F N12F 1_555 1_555
H35F C43F 1_555 1_555
C44F C43F 1_555 1_555
H36F C44F 1_555 1_555
C45F C38F 1_555 1_555
C46F N12F 1_555 1_555
H37F C46F 1_555 1_555
H38F C46F 1_555 1_555
C47F C37F 1_555 1_555
C48F C47F 1_555 1_555
H39F C48F 1_555 1_555
C49F C48F 1_555 1_555
H40F C49F 1_555 1_555
C50F C49F 1_555 1_555
H41F C50F 1_555 1_555
C51F C50F 1_555 1_555
C52F C47F 1_555 1_555
C53F C52F 1_555 1_555
H42F C53F 1_555 1_555
C54F C53F 1_555 1_555
H43F C54F 1_555 1_555
C55F C54F 1_555 1_555
H44F C55F 1_555 1_555
C56F C46F 1_555 1_555
N13F Co1F 1_555 1_555
C57F N13F 1_555 1_555
C58F C57F 1_555 1_555
H45F C58F 1_555 1_555
C59F C58F 1_555 1_555
H46F C59F 1_555 1_555
C60F C59F 1_555 1_555
H47F C60F 1_555 1_555
C61F N13F 1_555 1_555
H48F C61F 1_555 1_555
N14F Co1F 1_555 1_555
N15F N14F 1_555 1_555
C62F N15F 1_555 1_555
H49F C62F 1_555 1_555
C63F C62F 1_555 1_555
H50F C63F 1_555 1_555
C64F C57F 1_555 1_555
C65F N15F 1_555 1_555
H51F C65F 1_555 1_555
H52F C65F 1_555 1_555
N16F Co3 1_555 1_555
C66F N16F 1_555 1_555
C67F C66F 1_555 1_555
H53F C67F 1_555 1_555
C68F C67F 1_555 1_555
H54F C68F 1_555 1_555
C69F C68F 1_555 1_555
H55F C69F 1_555 1_555
C70F N16F 1_555 1_555
H56F C70F 1_555 1_555
N17F Co3 1_555 1_555
N18F N17F 1_555 1_555
C71F N18F 1_555 1_555
H57F C71F 1_555 1_555
C72F C71F 1_555 1_555
H58F C72F 1_555 1_555
C73F C66F 1_555 1_555
C74F N18F 1_555 1_555
H59F C74F 1_555 1_555
H60F C74F 1_555 1_555
C75F C65F 1_555 1_555
C76F C75F 1_555 1_555
H61F C76F 1_555 1_555
C77F C76F 1_555 1_555
H62F C77F 1_555 1_555
C78F C77F 1_555 1_555
H63F C78F 1_555 1_555
C79F C78F 1_555 1_555
C80F C75F 1_555 1_555
C81F C80F 1_555 1_555
H64F C81F 1_555 1_555
C82F C81F 1_555 1_555
H65F C82F 1_555 1_555
C83F C82F 1_555 1_555
H66F C83F 1_555 1_555
C84F C74F 1_555 1_555
N19F Co4F 1_555 1_555
C85F N19F 1_555 1_555
C86F C85F 1_555 1_555
H67F C86F 1_555 1_555
C87F C86F 1_555 1_555
H68F C87F 1_555 1_555
C88F C87F 1_555 1_555
H69F C88F 1_555 1_555
C89F N19F 1_555 1_555
H70F C89F 1_555 1_555
N20F Co4F 1_555 1_555
N21F N20F 1_555 1_555
C90F N21F 1_555 1_555
H71F C90F 1_555 1_555
C91F C90F 1_555 1_555
H72F C91F 1_555 1_555
C92F C85F 1_555 1_555
C93F N21F 1_555 1_555
H73F C93F 1_555 1_555
H74F C93F 1_555 1_555
N22F Co3F 1_555 1_555
C94F N22F 1_555 1_555
C95F C94F 1_555 1_555
H75F C95F 1_555 1_555
C96F C95F 1_555 1_555
H76F C96F 1_555 1_555
C97F C96F 1_555 1_555
H77F C97F 1_555 1_555
C98F N22F 1_555 1_555
H78F C98F 1_555 1_555
N23F Co3F 1_555 1_555
N24F N23F 1_555 1_555
C99F N24F 1_555 1_555
H79F C99F 1_555 1_555
C100F C99F 1_555 1_555
H80F C100F 1_555 1_555
C101F C94F 1_555 1_555
C102F N24F 1_555 1_555
H81F C102F 1_555 1_555
H82F C102F 1_555 1_555
C103F C93F 1_555 1_555
C104F C103F 1_555 1_555
H83F C104F 1_555 1_555
C105F C104F 1_555 1_555
H84F C105F 1_555 1_555
C106F C105F 1_555 1_555
H85F C106F 1_555 1_555
C107F C106F 1_555 1_555
C108F C103F 1_555 1_555
C109F C108F 1_555 1_555
H86F C109F 1_555 1_555
C110F C109F 1_555 1_555
H87F C110F 1_555 1_555
C111F C110F 1_555 1_555
H88F C111F 1_555 1_555
C112F C102F 1_555 1_555
N25F Co4F 1_555 1_555
C113F N25F 1_555 1_555
C114F C113F 1_555 1_555
H89F C114F 1_555 1_555
C115F C114F 1_555 1_555
H90F C115F 1_555 1_555
C116F C115F 1_555 1_555
H91F C116F 1_555 1_555
C117F N25F 1_555 1_555
H92F C117F 1_555 1_555
N26F Co4F 1_555 1_555
N27F N26F 1_555 1_555
C118F N27F 1_555 1_555
H93F C118F 1_555 1_555
C119F C118F 1_555 1_555
H94F C119F 1_555 1_555
C120F C113F 1_555 1_555
C121F N27F 1_555 1_555
H95F C121F 1_555 1_555
H96F C121F 1_555 1_555
N28F Co2F 1_555 1_555
C122F N28F 1_555 1_555
C123F C122F 1_555 1_555
H97F C123F 1_555 1_555
C124F C123F 1_555 1_555
H98F C124F 1_555 1_555
C125F C124F 1_555 1_555
H99F C125F 1_555 1_555
C126F N28F 1_555 1_555
H100F C126F 1_555 1_555
N29F Co2F 1_555 1_555
N30F N29F 1_555 1_555
C127F N30F 1_555 1_555
H101F C127F 1_555 1_555
C128F C127F 1_555 1_555
H102F C128F 1_555 1_555
C129F C122F 1_555 1_555
C130F N30F 1_555 1_555
H103F C130F 1_555 1_555
H104F C130F 1_555 1_555
C131F C121F 1_555 1_555
C132F C131F 1_555 1_555
H105F C132F 1_555 1_555
C133F C132F 1_555 1_555
H106F C133F 1_555 1_555
C134F C133F 1_555 1_555
H107F C134F 1_555 1_555
C135F C134F 1_555 1_555
C136F C131F 1_555 1_555
C137F C136F 1_555 1_555
H108F C137F 1_555 1_555
C138F C137F 1_555 1_555
H109F C138F 1_555 1_555
C139F C138F 1_555 1_555
H110F C139F 1_555 1_555
C140F C130F 1_555 1_555
N31F Co2 1_555 1_555
C141F N31F 1_555 1_555
C142F C141F 1_555 1_555
H111F C142F 1_555 1_555
C143F C142F 1_555 1_555
H112F C143F 1_555 1_555
C144F C143F 1_555 1_555
H113F C144F 1_555 1_555
C145F N31F 1_555 1_555
H114F C145F 1_555 1_555
N32F Co2 1_555 1_555
N33F N32F 1_555 1_555
C146F N33F 1_555 1_555
H115F C146F 1_555 1_555
C147F C146F 1_555 1_555
H116F C147F 1_555 1_555
C148F C141F 1_555 1_555
C149F N33F 1_555 1_555
H117F C149F 1_555 1_555
H118F C149F 1_555 1_555
N34F Co3F 1_555 1_555
C150F N34F 1_555 1_555
C151F C150F 1_555 1_555
H119F C151F 1_555 1_555
C152F C151F 1_555 1_555
H120F C152F 1_555 1_555
C153F C152F 1_555 1_555
H121F C153F 1_555 1_555
C154F N34F 1_555 1_555
H122F C154F 1_555 1_555
N35F Co3F 1_555 1_555
N36F N35F 1_555 1_555
C155F N36F 1_555 1_555
H123F C155F 1_555 1_555
C156F C155F 1_555 1_555
H124F C156F 1_555 1_555
C157F C150F 1_555 1_555
C158F N36F 1_555 1_555
H125F C158F 1_555 1_555
H126F C158F 1_555 1_555
C159F C149F 1_555 1_555
C160F C159F 1_555 1_555
H127F C160F 1_555 1_555
C161F C160F 1_555 1_555
H128F C161F 1_555 1_555
C162F C161F 1_555 1_555
H129F C162F 1_555 1_555
C163F C162F 1_555 1_555
C164F C159F 1_555 1_555
C165F C164F 1_555 1_555
H130F C165F 1_555 1_555
C166F C165F 1_555 1_555
H131F C166F 1_555 1_555
C167F C166F 1_555 1_555
H132F C167F 1_555 1_555
C168F C158F 1_555 1_555
C4 C5 1_555 1_555
N2 C8 1_555 1_555
C7 C8 1_555 1_555
C13 C14 1_555 1_555
N5 C17 1_555 1_555
C16 C17 1_555 1_555
C23 C24 1_555 1_555
C23 C28 1_555 1_555
C27 C28 1_555 1_555
C32 C33 1_555 1_555
N8 C36 1_555 1_555
C35 C36 1_555 1_555
C41 C42 1_555 1_555
N11 C45 1_555 1_555
N11 Co2F 1_555 1_555
C44 C45 1_555 1_555
C51 C52 1_555 1_555
C51 C56 1_555 1_555
C55 C56 1_555 1_555
C60 C61 1_555 1_555
N14 C64 1_555 1_555
C63 C64 1_555 1_555
C69 C70 1_555 1_555
N17 C73 1_555 1_555
N17 Co3F 1_555 1_555
C72 C73 1_555 1_555
C79 C80 1_555 1_555
C79 C84 1_555 1_555
C83 C84 1_555 1_555
C88 C89 1_555 1_555
N20 C92 1_555 1_555
C91 C92 1_555 1_555
C97 C98 1_555 1_555
N23 C101 1_555 1_555
C100 C101 1_555 1_555
C107 C108 1_555 1_555
C107 C112 1_555 1_555
C111 C112 1_555 1_555
C116 C117 1_555 1_555
N26 C120 1_555 1_555
C119 C120 1_555 1_555
C125 C126 1_555 1_555
N29 C129 1_555 1_555
C128 C129 1_555 1_555
C135 C136 1_555 1_555
C135 C140 1_555 1_555
C139 C140 1_555 1_555
N31 Co2F 1_555 1_555
C144 C145 1_555 1_555
N32 C148 1_555 1_555
N32 Co2F 1_555 1_555
C147 C148 1_555 1_555
C153 C154 1_555 1_555
N35 C157 1_555 1_555
C156 C157 1_555 1_555
C163 C164 1_555 1_555
C163 C168 1_555 1_555
C167 C168 1_555 1_555
C4F C5F 1_555 1_555
N2F C8F 1_555 1_555
C7F C8F 1_555 1_555
C13F C14F 1_555 1_555
N5F C17F 1_555 1_555
C16F C17F 1_555 1_555
C23F C24F 1_555 1_555
C23F C28F 1_555 1_555
C27F C28F 1_555 1_555
C32F C33F 1_555 1_555
N8F C36F 1_555 1_555
C35F C36F 1_555 1_555
C41F C42F 1_555 1_555
N11F C45F 1_555 1_555
C44F C45F 1_555 1_555
C51F C52F 1_555 1_555
C51F C56F 1_555 1_555
C55F C56F 1_555 1_555
C60F C61F 1_555 1_555
N14F C64F 1_555 1_555
C63F C64F 1_555 1_555
C69F C70F 1_555 1_555
N17F C73F 1_555 1_555
C72F C73F 1_555 1_555
C79F C80F 1_555 1_555
C79F C84F 1_555 1_555
C83F C84F 1_555 1_555
C88F C89F 1_555 1_555
N20F C92F 1_555 1_555
C91F C92F 1_555 1_555
C97F C98F 1_555 1_555
N23F C101F 1_555 1_555
C100F C101F 1_555 1_555
C107F C108F 1_555 1_555
C107F C112F 1_555 1_555
C111F C112F 1_555 1_555
C116F C117F 1_555 1_555
N26F C120F 1_555 1_555
C119F C120F 1_555 1_555
C125F C126F 1_555 1_555
N29F C129F 1_555 1_555
C128F C129F 1_555 1_555
C135F C136F 1_555 1_555
C135F C140F 1_555 1_555
C139F C140F 1_555 1_555
C144F C145F 1_555 1_555
N32F C148F 1_555 1_555
C147F C148F 1_555 1_555
C153F C154F 1_555 1_555
N35F C157F 1_555 1_555
C156F C157F 1_555 1_555
C163F C164F 1_555 1_555
C163F C168F 1_555 1_555
C167F C168F 1_555 1_555

#END
