
#######################################################################
#
#                 Cambridge Crystallographic Data Centre
#                                CCDC 
#
#######################################################################
#
# If this CIF has been generated from an entry in the Cambridge 
# Structural Database, then it will include bibliographic, chemical, 
# crystal, experimental, refinement or atomic coordinate data resulting 
# from the CCDC's data processing and validation procedures.
#
#######################################################################

data_UJUXII
_chemical_formula_moiety         
'C336 H264 Co8 N72 16+,16(B1 F4 1-),C6 H15 O3 P1,0.5(H2 O1)'
_chemical_name_systematic        
"dodecakis(\m~2~-2-(1-((5-((3-(Pyridin-2-yl)-1H-pyrazol-1-yl)methyl)-1-naphthyl)methyl)-1H-pyrazol-3-yl)pyridine)-octa-cobalt hexadecakis(tetrafluoroborate) ethyl O,O'-diethylphosphonate hemihydrate"
_symmetry_cell_setting           monoclinic
_symmetry_space_group_name_H-M   'C 2/c'
_symmetry_Int_Tables_number      15
_space_group_name_Hall           '-C 2yn'
loop_
_symmetry_equiv_pos_site_id
_symmetry_equiv_pos_as_xyz
1 x,y,z
2 -x,y,1/2-z
3 1/2+x,1/2+y,z
4 1/2-x,1/2+y,1/2-z
5 -x,-y,-z
6 x,-y,1/2+z
7 1/2-x,1/2-y,-z
8 1/2+x,1/2-y,1/2+z
_cell_length_a                   32.8826(6)
_cell_length_b                   30.1786(6)
_cell_length_c                   40.0732(8)
_cell_angle_alpha                90
_cell_angle_beta                 96.4980(10)
_cell_angle_gamma                90
_cell_volume                     39511.2
_exptl_crystal_colour            yellow
_exptl_crystal_description       block
_cell_formula_units_Z            4
loop_
_atom_site_label
_atom_site_type_symbol
_atom_site_fract_x
_atom_site_fract_y
_atom_site_fract_z
Co1 Co 0.76598(3) 1.04139(4) 0.61576(3)
Co2 Co 0.64439(3) 0.71391(4) 0.72376(2)
Co3 Co 0.59873(3) 0.98348(4) 0.36114(3)
Co4 Co 1.01310(3) 0.84175(3) 0.53503(2)
N1 N 0.79961(13) 1.04302(15) 0.57331(9)
C1 C 0.79251(13) 1.00708(13) 0.55174(10)
C2 C 0.81038(15) 1.00570(15) 0.52195(10)
H1 H 0.8055 0.9811 0.5072
C3 C 0.83537(15) 1.04025(18) 0.51372(10)
H2 H 0.8476 1.0393 0.4934
C4 C 0.84247(16) 1.07618(16) 0.53529(12)
H3 H 0.8595 1.0998 0.5297
C5 C 0.82459(15) 1.07757(14) 0.56509(11)
H4 H 0.8294 1.1021 0.5798
N2 N 0.74492(13) 0.98207(12) 0.58863(9)
N3 N 0.71649(12) 0.94678(14) 0.58942(9)
C6 C 0.71989(15) 0.91927(13) 0.56112(11)
H5 H 0.7045 0.8932 0.5554
C7 C 0.75043(15) 0.93757(16) 0.54284(10)
H6 H 0.7590 0.9259 0.5228
C8 C 0.76590(13) 0.97638(15) 0.55984(10)
C9 C 0.6926(2) 0.9390(2) 0.61500(17)
H7 H 0.6663 0.9260 0.6052
H8 H 0.6865 0.9677 0.6253
N4 N 0.59863(12) 0.70033(15) 0.75819(9)
C10 C 0.59856(14) 0.73065(14) 0.78429(11)
C11 C 0.57203(16) 0.72491(17) 0.80860(10)
H9 H 0.5720 0.7456 0.8264
C12 C 0.54556(15) 0.6889(2) 0.80679(11)
H10 H 0.5274 0.6849 0.8234
C13 C 0.54563(15) 0.65855(17) 0.78069(13)
H11 H 0.5275 0.6339 0.7795
C14 C 0.57216(15) 0.66428(15) 0.75638(10)
H12 H 0.5722 0.6436 0.7385
N5 N 0.65325(13) 0.76531(13) 0.75968(9)
N6 N 0.67979(12) 0.80202(14) 0.76693(10)
C15 C 0.66890(16) 0.82288(14) 0.79641(11)
H13 H 0.6816 0.8483 0.8069
C16 C 0.63561(16) 0.79907(17) 0.80738(10)
H14 H 0.6222 0.8058 0.8265
C17 C 0.62594(13) 0.76348(15) 0.78468(11)
C18 C 0.7058(2) 0.8165(2) 0.74447(18)
H15 H 0.7165 0.7903 0.7334
H16 H 0.7294 0.8316 0.7572
C19 C 0.71212(10) 0.90807(12) 0.64263(7)
C20 C 0.75271(10) 0.89555(13) 0.64201(9)
H17 H 0.7678 0.9064 0.6249
C21 C 0.77125(8) 0.86718(14) 0.66649(10)
H18 H 0.7990 0.8586 0.6661
C22 C 0.74920(8) 0.85131(12) 0.69160(9)
H19 H 0.7619 0.8319 0.7083
C23 C 0.70861(7) 0.86383(8) 0.69222(6)
C24 C 0.69007(7) 0.89220(9) 0.66773(6)
C25 C 0.64948(8) 0.90472(12) 0.66835(9)
H20 H 0.6368 0.9241 0.6516
C26 C 0.62743(8) 0.88885(14) 0.69346(10)
H21 H 0.5997 0.8974 0.6939
C27 C 0.64596(10) 0.86047(13) 0.71794(9)
H22 H 0.6309 0.8496 0.7351
C28 C 0.68655(10) 0.84796(12) 0.71732(8)
N7 N 0.79087(13) 1.10319(12) 0.63630(11)
C29 C 0.76798(12) 1.14040(15) 0.62584(11)
C30 C 0.78264(17) 1.18246(13) 0.63477(13)
H23 H 0.7670 1.2079 0.6276
C31 C 0.82018(17) 1.18730(13) 0.65416(13)
H24 H 0.8302 1.2160 0.6603
C32 C 0.84306(13) 1.15009(17) 0.66463(12)
H25 H 0.8687 1.1534 0.6779
C33 C 0.82841(13) 1.10803(14) 0.65570(12)
H26 H 0.8441 1.0826 0.6628
N8 N 0.72474(13) 1.08982(13) 0.59357(11)
N9 N 0.68533(14) 1.08955(14) 0.57497(11)
C34 C 0.66862(14) 1.13282(17) 0.57631(15)
H27 H 0.6426 1.1421 0.5660
C35 C 0.69770(19) 1.15982(13) 0.59574(16)
H28 H 0.6945 1.1903 0.6007
C36 C 0.73238(14) 1.13325(15) 0.60641(13)
C37 C 0.6722(2) 1.0542(3) 0.55525(17)
H29 H 0.6421 1.0561 0.5501
H30 H 0.6784 1.0267 0.5683
N10 N 0.58021(13) 0.92540(12) 0.33425(10)
C38 C 0.60383(11) 0.88801(14) 0.34272(10)
C39 C 0.59206(15) 0.84714(12) 0.32883(12)
H31 H 0.6082 0.8216 0.3346
C40 C 0.55666(16) 0.84366(14) 0.30648(12)
H32 H 0.5486 0.8157 0.2970
C41 C 0.53304(13) 0.88105(18) 0.29802(11)
H33 H 0.5088 0.8787 0.2827
C42 C 0.54481(12) 0.92192(15) 0.31190(11)
H34 H 0.5287 0.9475 0.3061
N11 N 0.64797(11) 0.93837(11) 0.37576(10)
N12 N 0.68693(11) 0.93728(12) 0.39506(10)
C43 C 0.70176(11) 0.89309(14) 0.39493(11)
H35 H 0.7272 0.8829 0.4059
C44 C 0.67196(14) 0.86688(10) 0.37555(12)
H36 H 0.6739 0.8360 0.3713
C45 C 0.63872(11) 0.89487(13) 0.36371(10)
C46 C 0.7032(2) 0.9718(2) 0.41465(17)
H37 H 0.6965 0.9998 0.4025
H38 H 0.7334 0.9687 0.4175
C47 C 0.69102(11) 1.05016(11) 0.52190(7)
C48 C 0.71717(12) 1.08306(10) 0.51273(9)
H39 H 0.7237 1.1076 0.5272
C49 C 0.73378(12) 1.08001(11) 0.48242(10)
H40 H 0.7517 1.1025 0.4761
C50 C 0.72424(11) 1.04407(11) 0.46129(8)
H41 H 0.7356 1.0420 0.4406
C51 C 0.69809(8) 1.01117(9) 0.47046(6)
C52 C 0.68148(8) 1.01422(9) 0.50077(6)
C53 C 0.65533(11) 0.98132(11) 0.50995(8)
H42 H 0.6440 0.9834 0.5307
C54 C 0.64578(11) 0.94537(10) 0.48882(9)
H43 H 0.6279 0.9229 0.4951
C55 C 0.66239(12) 0.94233(10) 0.45851(9)
H44 H 0.6559 0.9178 0.4441
C56 C 0.68854(11) 0.97522(11) 0.44933(7)
N13 N 0.72867(11) 1.03204(14) 0.65540(8)
C57 C 0.74637(9) 1.00629(15) 0.68193(10)
C58 C 0.72363(13) 0.99428(15) 0.70770(9)
H45 H 0.7357 0.9767 0.7258
C59 C 0.68319(12) 1.00802(16) 0.70695(9)
H46 H 0.6676 0.9998 0.7246
C60 C 0.66549(10) 1.03377(17) 0.68043(11)
H47 H 0.6378 1.0432 0.6799
C61 C 0.68823(12) 1.04578(15) 0.65466(9)
H48 H 0.6761 1.0634 0.6365
N14 N 0.80550(12) 1.00751(16) 0.65273(9)
N15 N 0.84762(11) 0.99630(18) 0.65884(10)
C62 C 0.85486(12) 0.9783(2) 0.69171(11)
H49 H 0.8804 0.9680 0.7023
C63 C 0.81721(15) 0.9784(2) 0.70592(9)
H50 H 0.8131 0.9682 0.7277
C64 C 0.78670(10) 0.99644(18) 0.68182(11)
C65 C 0.8735(2) 1.0005(3) 0.6348(2)
H51 H 0.9019 1.0026 0.6461
H52 H 0.8673 1.0286 0.6226
N16 N 1.05252(11) 0.83696(14) 0.49509(8)
C66 C 1.03733(10) 0.85781(14) 0.46533(10)
C67 C 1.05892(13) 0.85557(16) 0.43749(8)
H53 H 1.0485 0.8698 0.4172
C68 C 1.09569(13) 0.83249(18) 0.43941(9)
H54 H 1.1104 0.8310 0.4204
C69 C 1.11087(11) 0.81164(17) 0.46916(11)
H55 H 1.1360 0.7959 0.4705
C70 C 1.08929(12) 0.81388(15) 0.49700(9)
H56 H 1.0997 0.7996 0.5173
N17 N 0.97764(10) 0.86964(13) 0.49245(8)
N18 N 0.93841(9) 0.88920(14) 0.48483(8)
C71 C 0.93634(11) 0.90768(14) 0.45210(9)
H57 H 0.9136 0.9228 0.4406
C72 C 0.97430(13) 0.89954(16) 0.43948(8)
H58 H 0.9814 0.9083 0.4181
C73 C 0.99982(9) 0.87603(15) 0.46442(10)
C74 C 0.90975(19) 0.8899(2) 0.50708(16)
H59 H 0.9121 0.8621 0.5203
H60 H 0.8822 0.8902 0.4942
C75 C 0.87181(11) 0.96303(11) 0.60924(7)
C76 C 0.84643(11) 0.92738(13) 0.61422(8)
H61 H 0.8313 0.9270 0.6331
C77 C 0.84317(10) 0.89226(11) 0.59163(9)
H62 H 0.8258 0.8679 0.5950
C78 C 0.86530(10) 0.89280(9) 0.56406(8)
H63 H 0.8631 0.8688 0.5486
C79 C 0.89068(7) 0.92846(8) 0.55908(6)
C80 C 0.89394(7) 0.96358(8) 0.58167(6)
C81 C 0.91932(10) 0.99924(9) 0.57670(8)
H64 H 0.9215 1.0232 0.5921
C82 C 0.94145(10) 0.99978(11) 0.54913(9)
H65 H 0.9588 1.0242 0.5457
C83 C 0.93820(10) 0.96467(12) 0.52654(7)
H66 H 0.9533 0.9650 0.5077
C84 C 0.91281(10) 0.92901(10) 0.53152(7)
N19 N 0.68853(10) 0.67145(12) 0.75035(9)
C85 C 0.68635(11) 0.62723(13) 0.74062(9)
C86 C 0.71567(13) 0.59731(10) 0.75450(11)
H67 H 0.7142 0.5671 0.7478
C87 C 0.74716(12) 0.61162(13) 0.77810(11)
H68 H 0.7672 0.5912 0.7876
C88 C 0.74934(11) 0.65584(14) 0.78783(10)
H69 H 0.7709 0.6656 0.8040
C89 C 0.72003(13) 0.68576(11) 0.77396(10)
H70 H 0.7215 0.7160 0.7806
N20 N 0.63037(12) 0.65022(10) 0.70190(10)
N21 N 0.59849(11) 0.63049(13) 0.67999(10)
C90 C 0.60363(14) 0.58380(12) 0.68180(11)
H71 H 0.5866 0.5624 0.6697
C91 C 0.63869(15) 0.57468(11) 0.70484(12)
H72 H 0.6492 0.5461 0.7109
C92 C 0.65522(11) 0.61573(14) 0.71726(10)
C93 C 0.5701(2) 0.6547(2) 0.65927(16)
H73 H 0.5631 0.6817 0.6714
H74 H 0.5448 0.6369 0.6548
N22 N 0.44189(12) 0.68920(13) 0.42934(10)
C94 C 0.44221(13) 0.73524(13) 0.43042(11)
C95 C 0.41358(15) 0.75924(12) 0.40955(14)
H75 H 0.4138 0.7907 0.4103
C96 C 0.38464(14) 0.73721(16) 0.38760(14)
H76 H 0.3651 0.7536 0.3733
C97 C 0.38432(15) 0.69117(17) 0.38652(13)
H77 H 0.3645 0.6761 0.3715
C98 C 0.41294(15) 0.66717(12) 0.40740(12)
H78 H 0.4127 0.6357 0.4067
N23 N 0.50100(12) 0.72660(10) 0.47090(10)
N24 N 0.52891(11) 0.75426(13) 0.49092(10)
C99 C 0.51706(14) 0.79897(11) 0.48446(11)
H79 H 0.5304 0.8244 0.4944
C100 C 0.48183(14) 0.79894(12) 0.46044(12)
H80 H 0.4674 0.8244 0.4515
C101 C 0.47190(11) 0.75421(14) 0.45206(10)
C102 C 0.5591(2) 0.7389(2) 0.51384(16)
H81 H 0.5814 0.7612 0.5164
H82 H 0.5705 0.7116 0.5048
C103 C 0.58420(9) 0.66841(12) 0.62570(6)
C104 C 0.62246(9) 0.65461(12) 0.61819(8)
H83 H 0.6397 0.6378 0.6341
C105 C 0.63553(8) 0.66543(13) 0.58741(9)
H84 H 0.6617 0.6560 0.5823
C106 C 0.61034(8) 0.69005(12) 0.56415(7)
H85 H 0.6193 0.6974 0.5431
C107 C 0.57209(7) 0.70385(8) 0.57167(6)
C108 C 0.55902(7) 0.69303(9) 0.60244(6)
C109 C 0.52076(8) 0.70683(13) 0.60995(7)
H86 H 0.5118 0.6994 0.6310
C110 C 0.49558(8) 0.73145(13) 0.58669(9)
H87 H 0.4694 0.7409 0.5918
C111 C 0.50865(9) 0.74227(12) 0.55592(8)
H88 H 0.4914 0.7591 0.5400
C112 C 0.54690(9) 0.72847(11) 0.54840(6)
N25 N 0.60488(11) 0.75433(14) 0.69108(9)
C113 C 0.62189(10) 0.76998(15) 0.66313(10)
C114 C 0.59866(13) 0.79602(16) 0.63953(9)
H89 H 0.6103 0.8067 0.6204
C115 C 0.55841(13) 0.80641(16) 0.64388(10)
H90 H 0.5425 0.8242 0.6278
C116 C 0.54140(10) 0.79077(18) 0.67183(11)
H91 H 0.5139 0.7979 0.6748
C117 C 0.56464(12) 0.76473(16) 0.69543(9)
H92 H 0.5530 0.7540 0.7145
N26 N 0.68432(11) 0.73572(14) 0.68703(8)
N27 N 0.72541(10) 0.73274(15) 0.67949(9)
C118 C 0.72811(11) 0.75528(18) 0.64871(10)
H93 H 0.7521 0.7585 0.6377
C119 C 0.68870(14) 0.77218(18) 0.63723(9)
H94 H 0.6817 0.7887 0.6172
C120 C 0.66164(10) 0.76009(16) 0.66091(11)
C121 C 0.7551(2) 0.7065(2) 0.69674(16)
H95 H 0.7522 0.7084 0.7210
H96 H 0.7823 0.7187 0.6934
N28 N 0.95350(13) 0.47656(16) 0.65890(12)
C122 C 0.94634(13) 0.4503(2) 0.68615(13)
C123 C 0.97592(18) 0.4204(2) 0.69953(15)
H97 H 0.9710 0.4025 0.7181
C124 C 1.01265(17) 0.4167(2) 0.68566(19)
H98 H 1.0329 0.3962 0.6948
C125 C 1.01981(14) 0.4429(3) 0.65841(18)
H99 H 1.0449 0.4403 0.6489
C126 C 0.99023(15) 0.4728(2) 0.64503(14)
H100 H 0.9951 0.4908 0.6264
N29 N 0.88111(12) 0.48531(13) 0.68194(10)
N30 N 0.84403(10) 0.48027(14) 0.69659(11)
C127 C 0.84989(13) 0.44634(16) 0.72121(11)
H101 H 0.8301 0.4361 0.7349
C128 C 0.89060(15) 0.43041(15) 0.72179(12)
H102 H 0.9028 0.4076 0.7359
C129 C 0.90989(10) 0.45450(16) 0.69752(12)
C130 C 0.8103(2) 0.5064(2) 0.68693(18)
H103 H 0.7859 0.4917 0.6942
H104 H 0.8064 0.5078 0.6621
C131 C 0.75379(9) 0.65726(9) 0.68630(9)
C132 C 0.72097(9) 0.64299(12) 0.66397(9)
H105 H 0.7002 0.6633 0.6557
C133 C 0.71852(8) 0.59894(13) 0.65382(8)
H106 H 0.6961 0.5892 0.6386
C134 C 0.74888(9) 0.56916(10) 0.66599(8)
H107 H 0.7472 0.5391 0.6590
C135 C 0.78170(7) 0.58343(8) 0.68831(6)
C136 C 0.78416(7) 0.62749(8) 0.69847(6)
C137 C 0.81698(9) 0.64176(9) 0.72079(8)
H108 H 0.8187 0.6719 0.7277
C138 C 0.84734(8) 0.61199(12) 0.73296(8)
H109 H 0.8698 0.6217 0.7482
C139 C 0.84489(9) 0.56793(11) 0.72280(9)
H110 H 0.8656 0.5476 0.7311
C140 C 0.81207(9) 0.55366(9) 0.70048(9)
N31 N 0.61944(13) 1.03783(12) 0.39241(10)
C141 C 0.60336(13) 1.03908(13) 0.42302(11)
C142 C 0.61374(15) 1.07351(16) 0.44542(9)
H111 H 0.6027 1.0744 0.4663
C143 C 0.64020(16) 1.10668(14) 0.43721(12)
H112 H 0.6473 1.1302 0.4525
C144 C 0.65628(15) 1.10542(13) 0.40660(14)
H113 H 0.6744 1.1281 0.4010
C145 C 0.64590(14) 1.07100(15) 0.38420(10)
H114 H 0.6569 1.0701 0.3633
N32 N 0.56870(12) 0.97236(14) 0.40501(9)
N33 N 0.53809(13) 0.94455(13) 0.41610(10)
C146 C 0.52765(15) 0.96160(17) 0.44704(11)
H115 H 0.5080 0.9495 0.4601
C147 C 0.55181(17) 0.99995(17) 0.45507(10)
H116 H 0.5511 1.0180 0.4744
C148 C 0.57718(14) 1.00660(13) 0.42909(12)
C149 C 0.5249(2) 0.9061(2) 0.40053(17)
H117 H 0.5251 0.9099 0.3760
H118 H 0.4961 0.9010 0.4047
N34 N 0.46627(11) 0.59305(11) 0.44928(9)
C150 C 0.48131(11) 0.57800(12) 0.42027(9)
C151 C 0.46715(13) 0.53831(13) 0.40566(8)
H119 H 0.4774 0.5280 0.3858
C152 C 0.43796(13) 0.51368(11) 0.42006(10)
H120 H 0.4283 0.4866 0.4101
C153 C 0.42293(12) 0.52874(13) 0.44907(10)
H121 H 0.4030 0.5119 0.4589
C154 C 0.43708(12) 0.56842(13) 0.46368(8)
H122 H 0.4268 0.5787 0.4835
N35 N 0.52262(11) 0.64301(13) 0.42433(8)
N36 N 0.55246(12) 0.66316(11) 0.40628(10)
C155 C 0.55777(13) 0.63588(15) 0.37823(9)
H123 H 0.5759 0.6414 0.3619
C156 C 0.53122(14) 0.59887(13) 0.37895(10)
H124 H 0.5285 0.5753 0.3631
C157 C 0.50950(12) 0.60327(12) 0.40744(10)
C158 C 0.5714(2) 0.7026(2) 0.41535(17)
H125 H 0.5993 0.7022 0.4084
H126 H 0.5741 0.7052 0.4401
C159 C 0.54967(11) 0.86481(8) 0.41140(9)
C160 C 0.58309(11) 0.86980(10) 0.43564(9)
H127 H 0.5909 0.8985 0.4437
C161 C 0.60506(10) 0.83282(12) 0.44800(8)
H128 H 0.6279 0.8362 0.4646
C162 C 0.59361(9) 0.79084(10) 0.43614(8)
H129 H 0.6086 0.7656 0.4446
C163 C 0.56019(7) 0.78585(8) 0.41190(6)
C164 C 0.53822(7) 0.82283(8) 0.39953(6)
C165 C 0.50480(9) 0.81784(11) 0.37530(8)
H130 H 0.4898 0.8431 0.3668
C166 C 0.49335(10) 0.77586(12) 0.36343(8)
H131 H 0.4705 0.7725 0.3469
C167 C 0.51531(11) 0.73888(10) 0.37579(9)
H132 H 0.5075 0.7102 0.3677
C168 C 0.54874(10) 0.74387(8) 0.40003(9)
Co1F Co 0.73402(3) 0.45861(4) 0.38424(3)
Co2F Co 0.85561(3) 0.78609(4) 0.27624(2)
Co3F Co 0.90127(3) 0.51652(4) 0.63886(3)
Co4F Co 0.48690(3) 0.65825(3) 0.46497(2)
N1F N 0.70039(13) 0.45698(15) 0.42669(9)
C1F C 0.70749(13) 0.49292(13) 0.44826(10)
C2F C 0.68962(15) 0.49430(15) 0.47805(10)
H1F H 0.6945 0.5189 0.4928
C3F C 0.66463(15) 0.45975(18) 0.48628(10)
H2F H 0.6524 0.4607 0.5066
C4F C 0.65753(16) 0.42382(16) 0.46471(12)
H3F H 0.6405 0.4002 0.4703
C5F C 0.67541(15) 0.42243(14) 0.43491(11)
H4F H 0.6706 0.3979 0.4202
N2F N 0.75508(13) 0.51793(12) 0.41137(9)
N3F N 0.78351(12) 0.55322(14) 0.41058(9)
C6F C 0.78011(15) 0.58073(13) 0.43888(11)
H5F H 0.7955 0.6068 0.4446
C7F C 0.74957(15) 0.56243(16) 0.45716(10)
H6F H 0.7410 0.5741 0.4772
C8F C 0.73410(13) 0.52362(15) 0.44016(10)
C9F C 0.8074(2) 0.5610(2) 0.38500(17)
H7F H 0.8337 0.5740 0.3948
H8F H 0.8135 0.5323 0.3747
N4F N 0.90137(12) 0.79967(15) 0.24181(9)
C10F C 0.90144(14) 0.76935(14) 0.21571(11)
C11F C 0.92797(16) 0.77509(17) 0.19140(10)
H9F H 0.9280 0.7544 0.1736
C12F C 0.95444(15) 0.8111(2) 0.19321(11)
H10F H 0.9726 0.8151 0.1766
C13F C 0.95437(15) 0.84145(17) 0.21931(13)
H11F H 0.9725 0.8661 0.2205
C14F C 0.92784(15) 0.83572(15) 0.24362(10)
H12F H 0.9278 0.8564 0.2615
N5F N 0.84675(13) 0.73469(13) 0.24032(9)
N6F N 0.82021(12) 0.69798(14) 0.23307(10)
C15F C 0.83110(16) 0.67712(14) 0.20359(11)
H13F H 0.8184 0.6517 0.1931
C16F C 0.86439(16) 0.70093(17) 0.19262(10)
H14F H 0.8778 0.6942 0.1735
C17F C 0.87406(13) 0.73652(15) 0.21532(11)
C18F C 0.7942(2) 0.6835(2) 0.25553(18)
H15F H 0.7835 0.7097 0.2666
H16F H 0.7706 0.6684 0.2428
C19F C 0.78788(10) 0.59193(12) 0.35737(7)
C20F C 0.74729(10) 0.60445(13) 0.35799(9)
H17F H 0.7322 0.5936 0.3751
C21F C 0.72875(8) 0.63282(14) 0.33351(10)
H18F H 0.7010 0.6414 0.3339
C22F C 0.75080(8) 0.64869(12) 0.30840(9)
H19F H 0.7381 0.6681 0.2917
C23F C 0.79139(7) 0.63617(8) 0.30778(6)
C24F C 0.80993(7) 0.60780(9) 0.33227(6)
C25F C 0.85052(8) 0.59528(12) 0.33165(9)
H20F H 0.8632 0.5759 0.3484
C26F C 0.87257(8) 0.61115(14) 0.30654(10)
H21F H 0.9003 0.6026 0.3061
C27F C 0.85404(10) 0.63953(13) 0.28206(9)
H22F H 0.8691 0.6504 0.2649
C28F C 0.81345(10) 0.65204(12) 0.28268(8)
N7F N 0.70913(13) 0.39681(12) 0.36370(11)
C29F C 0.73202(12) 0.35960(15) 0.37416(11)
C30F C 0.71736(17) 0.31754(13) 0.36523(13)
H23F H 0.7330 0.2921 0.3724
C31F C 0.67982(17) 0.31270(13) 0.34584(13)
H24F H 0.6698 0.2840 0.3397
C32F C 0.65694(13) 0.34991(17) 0.33537(12)
H25F H 0.6313 0.3466 0.3221
C33F C 0.67159(13) 0.39197(14) 0.34430(12)
H26F H 0.6559 0.4174 0.3372
N8F N 0.77526(13) 0.41018(13) 0.40643(11)
N9F N 0.81467(14) 0.41045(14) 0.42503(11)
C34F C 0.83138(14) 0.36718(17) 0.42369(15)
H27F H 0.8574 0.3579 0.4340
C35F C 0.80230(19) 0.34018(13) 0.40426(16)
H28F H 0.8055 0.3097 0.3993
C36F C 0.76762(14) 0.36675(15) 0.39359(13)
C37F C 0.8278(2) 0.4458(3) 0.44475(17)
H29F H 0.8579 0.4439 0.4499
H30F H 0.8216 0.4733 0.4317
N10F N 0.91979(13) 0.57460(12) 0.66575(10)
C38F C 0.89617(11) 0.61199(14) 0.65728(10)
C39F C 0.90794(15) 0.65286(12) 0.67117(12)
H31F H 0.8918 0.6784 0.6654
C40F C 0.94334(16) 0.65634(14) 0.69352(12)
H32F H 0.9514 0.6843 0.7030
C41F C 0.96696(13) 0.61895(18) 0.70198(11)
H33F H 0.9912 0.6213 0.7173
C42F C 0.95519(12) 0.57808(15) 0.68810(11)
H34F H 0.9713 0.5525 0.6939
N11F N 0.85203(11) 0.56163(11) 0.62424(10)
N12F N 0.81307(11) 0.56272(12) 0.60494(10)
C43F C 0.79824(11) 0.60691(14) 0.60507(11)
H35F H 0.7728 0.6171 0.5941
C44F C 0.82804(14) 0.63312(10) 0.62445(12)
H36F H 0.8261 0.6640 0.6287
C45F C 0.86128(11) 0.60513(13) 0.63629(10)
C46F C 0.7968(2) 0.5282(2) 0.58535(17)
H37F H 0.8035 0.5002 0.5975
H38F H 0.7666 0.5313 0.5825
C47F C 0.80898(11) 0.44984(11) 0.47810(7)
C48F C 0.78283(12) 0.41694(10) 0.48727(9)
H39F H 0.7763 0.3924 0.4728
C49F C 0.76622(12) 0.41999(11) 0.51758(10)
H40F H 0.7483 0.3975 0.5239
C50F C 0.77576(11) 0.45593(11) 0.53871(8)
H41F H 0.7644 0.4580 0.5594
C51F C 0.80191(8) 0.48883(9) 0.52954(6)
C52F C 0.81852(8) 0.48578(9) 0.49923(6)
C53F C 0.84467(11) 0.51868(11) 0.49005(8)
H42F H 0.8560 0.5166 0.4693
C54F C 0.85422(11) 0.55463(10) 0.51118(9)
H43F H 0.8721 0.5771 0.5049
C55F C 0.83761(12) 0.55767(10) 0.54149(9)
H44F H 0.8441 0.5822 0.5559
C56F C 0.81146(11) 0.52478(11) 0.55067(7)
N13F N 0.77133(11) 0.46796(14) 0.34460(8)
C57F C 0.75363(9) 0.49371(15) 0.31807(10)
C58F C 0.77637(13) 0.50572(15) 0.29230(9)
H45F H 0.7643 0.5233 0.2742
C59F C 0.81681(12) 0.49198(16) 0.29305(9)
H46F H 0.8324 0.5002 0.2754
C60F C 0.83451(10) 0.46623(17) 0.31957(11)
H47F H 0.8622 0.4568 0.3201
C61F C 0.81177(12) 0.45422(15) 0.34534(9)
H48F H 0.8239 0.4366 0.3635
N14F N 0.69450(12) 0.49249(16) 0.34727(9)
N15F N 0.65238(11) 0.50370(18) 0.34116(10)
C62F C 0.64514(12) 0.5217(2) 0.30829(11)
H49F H 0.6196 0.5320 0.2977
C63F C 0.68279(15) 0.5216(2) 0.29408(9)
H50F H 0.6869 0.5318 0.2723
C64F C 0.71330(10) 0.50356(18) 0.31818(11)
C65F C 0.6265(2) 0.4995(3) 0.3652(2)
H51F H 0.5981 0.4974 0.3539
H52F H 0.6327 0.4714 0.3774
N16F N 0.44748(11) 0.66304(14) 0.50491(8)
C66F C 0.46267(10) 0.64219(14) 0.53467(10)
C67F C 0.44108(13) 0.64443(16) 0.56251(8)
H53F H 0.4515 0.6302 0.5828
C68F C 0.40431(13) 0.66751(18) 0.56059(9)
H54F H 0.3896 0.6690 0.5796
C69F C 0.38913(11) 0.68836(17) 0.53084(11)
H55F H 0.3640 0.7041 0.5295
C70F C 0.41071(12) 0.68612(15) 0.50300(9)
H56F H 0.4003 0.7004 0.4827
N17F N 0.52236(10) 0.63036(13) 0.50755(8)
N18F N 0.56159(9) 0.61080(14) 0.51517(8)
C71F C 0.56366(11) 0.59232(14) 0.54790(9)
H57F H 0.5864 0.5772 0.5594
C72F C 0.52570(13) 0.60046(16) 0.56052(8)
H58F H 0.5186 0.5917 0.5819
C73F C 0.50018(9) 0.62397(15) 0.53558(10)
C74F C 0.59025(19) 0.6101(2) 0.49292(16)
H59F H 0.5879 0.6379 0.4797
H60F H 0.6178 0.6098 0.5058
C75F C 0.62819(11) 0.53697(11) 0.39076(7)
C76F C 0.65357(11) 0.57262(13) 0.38578(8)
H61F H 0.6687 0.5730 0.3669
C77F C 0.65683(10) 0.60774(11) 0.40837(9)
H62F H 0.6742 0.6321 0.4050
C78F C 0.63470(10) 0.60720(9) 0.43594(8)
H63F H 0.6369 0.6312 0.4514
C79F C 0.60932(7) 0.57154(8) 0.44092(6)
C80F C 0.60606(7) 0.53642(8) 0.41833(6)
C81F C 0.58068(10) 0.50076(9) 0.42330(8)
H64F H 0.5785 0.4768 0.4079
C82F C 0.55855(10) 0.50022(11) 0.45087(9)
H65F H 0.5412 0.4758 0.4543
C83F C 0.56180(10) 0.53533(12) 0.47346(7)
H66F H 0.5467 0.5350 0.4923
C84F C 0.58719(10) 0.57099(10) 0.46848(7)
N19F N 0.81147(10) 0.82855(12) 0.24965(9)
C85F C 0.81365(11) 0.87277(13) 0.25938(9)
C86F C 0.78433(13) 0.90269(10) 0.24550(11)
H67F H 0.7858 0.9329 0.2522
C87F C 0.75284(12) 0.88838(13) 0.22190(11)
H68F H 0.7328 0.9088 0.2124
C88F C 0.75066(11) 0.84416(14) 0.21217(10)
H69F H 0.7291 0.8344 0.1960
C89F C 0.77997(13) 0.81424(11) 0.22604(10)
H70F H 0.7785 0.7840 0.2194
N20F N 0.86963(12) 0.84978(10) 0.29810(10)
N21F N 0.90151(11) 0.86951(13) 0.32001(10)
C90F C 0.89637(14) 0.91620(12) 0.31820(11)
H71F H 0.9134 0.9376 0.3303
C91F C 0.86131(15) 0.92532(11) 0.29516(12)
H72F H 0.8508 0.9539 0.2891
C92F C 0.84478(11) 0.88427(14) 0.28274(10)
C93F C 0.9299(2) 0.8453(2) 0.34073(16)
H73F H 0.9369 0.8183 0.3286
H74F H 0.9552 0.8631 0.3452
N22F N 1.05811(12) 0.81080(13) 0.57066(10)
C94F C 1.05779(13) 0.76476(13) 0.56958(11)
C95F C 1.08642(15) 0.74076(12) 0.59045(14)
H75F H 1.0862 0.7093 0.5897
C96F C 1.11536(14) 0.76279(16) 0.61240(14)
H76F H 1.1349 0.7464 0.6267
C97F C 1.11568(15) 0.80883(17) 0.61348(13)
H77F H 1.1355 0.8239 0.6285
C98F C 1.08706(15) 0.83283(12) 0.59260(12)
H78F H 1.0873 0.8643 0.5933
N23F N 0.99900(12) 0.77340(10) 0.52910(10)
N24F N 0.97109(11) 0.74574(13) 0.50908(10)
C99F C 0.98294(14) 0.70103(11) 0.51554(11)
H79F H 0.9696 0.6756 0.5056
C100F C 1.01817(14) 0.70106(12) 0.53956(12)
H80F H 1.0326 0.6756 0.5485
C101F C 1.02810(11) 0.74579(14) 0.54794(10)
C102F C 0.9409(2) 0.7611(2) 0.48616(16)
H81F H 0.9186 0.7388 0.4836
H82F H 0.9295 0.7884 0.4952
C103F C 0.91580(9) 0.83159(12) 0.37430(6)
C104F C 0.87754(9) 0.84539(12) 0.38181(8)
H83F H 0.8603 0.8622 0.3659
C105F C 0.86447(8) 0.83457(13) 0.41259(9)
H84F H 0.8383 0.8440 0.4177
C106F C 0.88966(8) 0.80995(12) 0.43585(7)
H85F H 0.8807 0.8026 0.4569
C107F C 0.92791(7) 0.79615(8) 0.42833(6)
C108F C 0.94098(7) 0.80697(9) 0.39756(6)
C109F C 0.97924(8) 0.79317(13) 0.39005(7)
H86F H 0.9882 0.8006 0.3690
C110F C 1.00442(8) 0.76855(13) 0.41331(9)
H87F H 1.0306 0.7591 0.4082
C111F C 0.99135(9) 0.75773(12) 0.44408(8)
H88F H 1.0086 0.7409 0.4600
C112F C 0.95310(9) 0.77153(11) 0.45160(6)
N25F N 0.89512(11) 0.74567(14) 0.30892(9)
C113F C 0.87811(10) 0.73002(15) 0.33687(10)
C114F C 0.90134(13) 0.70398(16) 0.36047(9)
H89F H 0.8897 0.6933 0.3796
C115F C 0.94159(13) 0.69359(16) 0.35612(10)
H90F H 0.9575 0.6758 0.3722
C116F C 0.95860(10) 0.70923(18) 0.32817(11)
H91F H 0.9861 0.7021 0.3252
C117F C 0.93536(12) 0.73527(16) 0.30457(9)
H92F H 0.9470 0.7460 0.2855
N26F N 0.81568(11) 0.76428(14) 0.31297(8)
N27F N 0.77459(10) 0.76726(15) 0.32051(9)
C118F C 0.77189(11) 0.74472(18) 0.35129(10)
H93F H 0.7479 0.7415 0.3623
C119F C 0.81130(14) 0.72782(18) 0.36277(9)
H94F H 0.8183 0.7113 0.3828
C120F C 0.83836(10) 0.73991(16) 0.33909(11)
C121F C 0.7449(2) 0.7935(2) 0.30326(16)
H95F H 0.7478 0.7916 0.2790
H96F H 0.7177 0.7813 0.3066
N28F N 0.54650(13) 1.02344(16) 0.34110(12)
C122F C 0.55366(13) 1.0497(2) 0.31385(13)
C123F C 0.52408(18) 1.0796(2) 0.30047(15)
H97F H 0.5290 1.0975 0.2819
C124F C 0.48735(17) 1.0833(2) 0.31434(19)
H98F H 0.4671 1.1038 0.3052
C125F C 0.48019(14) 1.0571(3) 0.34159(18)
H99F H 0.4551 1.0597 0.3511
C126F C 0.50977(15) 1.0272(2) 0.35497(14)
H100F H 0.5049 1.0092 0.3736
N29F N 0.61889(12) 1.01469(13) 0.31806(10)
N30F N 0.65597(10) 1.01973(14) 0.30341(11)
C127F C 0.65011(13) 1.05366(16) 0.27879(11)
H101F H 0.6699 1.0639 0.2651
C128F C 0.60940(15) 1.06959(15) 0.27821(12)
H102F H 0.5972 1.0924 0.2641
C129F C 0.59011(10) 1.04550(16) 0.30248(12)
C130F C 0.6897(2) 0.9936(2) 0.31307(18)
H103F H 0.7141 1.0083 0.3058
H104F H 0.6936 0.9922 0.3379
C131F C 0.74621(9) 0.84274(9) 0.31370(9)
C132F C 0.77903(9) 0.85701(12) 0.33603(9)
H105F H 0.7998 0.8367 0.3443
C133F C 0.78148(8) 0.90106(13) 0.34618(8)
H106F H 0.8039 0.9108 0.3614
C134F C 0.75112(9) 0.93084(10) 0.33401(8)
H107F H 0.7528 0.9609 0.3410
C135F C 0.71830(7) 0.91657(8) 0.31169(6)
C136F C 0.71584(7) 0.87251(8) 0.30153(6)
C137F C 0.68302(9) 0.85824(9) 0.27921(8)
H108F H 0.6813 0.8281 0.2723
C138F C 0.65266(8) 0.88801(12) 0.26704(8)
H109F H 0.6302 0.8783 0.2518
C139F C 0.65511(9) 0.93207(11) 0.27720(9)
H110F H 0.6344 0.9524 0.2689
C140F C 0.68793(9) 0.94634(9) 0.29952(9)
N31F N 0.88056(13) 0.46217(12) 0.60759(10)
C141F C 0.89664(13) 0.46092(13) 0.57698(11)
C142F C 0.88626(15) 0.42649(16) 0.55458(9)
H111F H 0.8973 0.4256 0.5337
C143F C 0.85980(16) 0.39332(14) 0.56279(12)
H112F H 0.8527 0.3698 0.5475
C144F C 0.84372(15) 0.39458(13) 0.59340(14)
H113F H 0.8256 0.3719 0.5990
C145F C 0.85410(14) 0.42900(15) 0.61580(10)
H114F H 0.8431 0.4299 0.6367
N32F N 0.93130(12) 0.52764(14) 0.59499(9)
N33F N 0.96191(13) 0.55545(13) 0.58390(10)
C146F C 0.97235(15) 0.53840(17) 0.55296(11)
H115F H 0.9920 0.5505 0.5399
C147F C 0.94819(17) 0.50005(17) 0.54493(10)
H116F H 0.9489 0.4820 0.5256
C148F C 0.92282(14) 0.49340(13) 0.57091(12)
C149F C 0.9751(2) 0.5939(2) 0.59947(17)
H117F H 0.9749 0.5901 0.6240
H118F H 1.0039 0.5990 0.5953
N34F N 1.03373(11) 0.90695(11) 0.55072(9)
C150F C 1.01869(11) 0.92200(12) 0.57973(9)
C151F C 1.03285(13) 0.96169(13) 0.59434(8)
H119F H 1.0226 0.9720 0.6142
C152F C 1.06204(13) 0.98632(11) 0.57994(10)
H120F H 1.0717 1.0134 0.5899
C153F C 1.07707(12) 0.97126(13) 0.55093(10)
H121F H 1.0970 0.9881 0.5411
C154F C 1.06292(12) 0.93158(13) 0.53632(8)
H122F H 1.0732 0.9213 0.5165
N35F N 0.97738(11) 0.85699(13) 0.57567(8)
N36F N 0.94754(12) 0.83684(11) 0.59372(10)
C155F C 0.94223(13) 0.86412(15) 0.62177(9)
H123F H 0.9241 0.8586 0.6381
C156F C 0.96878(14) 0.90113(13) 0.62105(10)
H124F H 0.9715 0.9247 0.6369
C157F C 0.99050(12) 0.89673(12) 0.59256(10)
C158F C 0.9286(2) 0.7974(2) 0.58465(17)
H125F H 0.9007 0.7978 0.5916
H126F H 0.9259 0.7948 0.5599
C159F C 0.95033(11) 0.63519(8) 0.58860(9)
C160F C 0.91691(11) 0.63020(10) 0.56436(9)
H127F H 0.9091 0.6015 0.5563
C161F C 0.89494(10) 0.66718(12) 0.55200(8)
H128F H 0.8721 0.6638 0.5354
C162F C 0.90639(9) 0.70916(10) 0.56386(8)
H129F H 0.8914 0.7344 0.5554
C163F C 0.93981(7) 0.71415(8) 0.58810(6)
C164F C 0.96178(7) 0.67717(8) 0.60047(6)
C165F C 0.99520(9) 0.68216(11) 0.62470(8)
H130F H 1.0102 0.6569 0.6332
C166F C 1.00665(10) 0.72414(12) 0.63657(8)
H131F H 1.0295 0.7275 0.6531
C167F C 0.98469(11) 0.76112(10) 0.62421(9)
H132F H 0.9925 0.7898 0.6323
C168F C 0.95126(10) 0.75613(8) 0.59997(9)
B1 B 0.2915(3) 0.7379(3) 0.3151(2)
F1 F 0.3062(2) 0.7741(2) 0.33409(17)
F2 F 0.2510(2) 0.7312(3) 0.3200(2)
F3 F 0.3145(2) 0.7009(2) 0.3254(2)
F4 F 0.2934(3) 0.7462(3) 0.28121(19)
B2 B 0.43516(16) 0.90405(18) 0.47001(13)
F5 F 0.40635(16) 0.87973(18) 0.48475(13)
F6 F 0.47382(14) 0.89500(18) 0.48655(13)
F7 F 0.43439(15) 0.89090(16) 0.43678(10)
F8 F 0.42751(17) 0.94840(16) 0.47210(14)
B3 B 0.67540(16) 0.54748(18) 0.56758(13)
F9 F 0.70374(12) 0.58157(13) 0.56980(10)
F10 F 0.69557(15) 0.50735(15) 0.57297(13)
F11 F 0.64865(12) 0.55327(14) 0.59170(10)
F12 F 0.65344(13) 0.54722(15) 0.53625(10)
B4 B 0.48992(17) 0.55761(19) 0.65235(14)
F13 F 0.52332(12) 0.55518(14) 0.63432(10)
F14 F 0.45894(16) 0.58136(19) 0.63467(14)
F15 F 0.47589(15) 0.51506(14) 0.65731(12)
F16 F 0.50202(13) 0.57783(14) 0.68283(10)
B5 B 0.6490(2) 0.7289(2) 0.34150(18)
F17 F 0.6682(2) 0.7197(2) 0.31331(16)
F18 F 0.6719(2) 0.7596(2) 0.35978(19)
F19 F 0.6108(2) 0.7463(3) 0.3307(2)
F20 F 0.6438(2) 0.6908(2) 0.35829(16)
B6 B 0.4421(3) 0.9626(3) 0.2852(2)
F21 F 0.4758(3) 0.9803(5) 0.2733(3)
F22 F 0.4503(3) 0.9538(3) 0.31903(18)
F23 F 0.4324(5) 0.9231(4) 0.2689(3)
F24 F 0.4099(3) 0.9912(4) 0.2800(3)
O1 O 0.7832(3) 0.7665(3) 0.5252(2)
C169 C 0.790(14) 0.769(19) 0.5610(12)
H133 H 0.8182 0.7811 0.5677
H134 H 0.7888 0.7392 0.5708
C170 C 0.758(15) 0.800(19) 0.57(2)
H135 H 0.7634 0.8014 0.5988
H136 H 0.7602 0.8293 0.5647
H137 H 0.7309 0.7876 0.5678
O2 O 0.8518(7) 0.7958(8) 0.5176(6)
P1 P 0.80856(13) 0.79644(14) 0.50207(10)
O3 O 0.7962(4) 0.7746(4) 0.4654(2)
C171 C 0.8051(6) 0.7293(4) 0.4582(5)
H138 H 0.7773 0.7185 0.4502
H139 H 0.8184 0.7332 0.4375
C172 C 0.825(2) 0.6856(15) 0.471(2)
H140 H 0.8545 0.6905 0.4780
H141 H 0.8124 0.6755 0.4910
H142 H 0.8216 0.6630 0.4538
C173 C 0.7882(3) 0.8531(3) 0.4908(3)
C174 C 0.7422(3) 0.8488(5) 0.4798(3)
O1F O 0.7168(3) 0.7335(3) 0.4748(2)
C169F C 0.710(14) 0.731(19) 0.4390(12)
H133F H 0.6818 0.7189 0.4323
H134F H 0.7112 0.7608 0.4292
C170F C 0.742(15) 0.700(19) 0.43(2)
H135F H 0.7366 0.6986 0.4012
H136F H 0.7398 0.6707 0.4353
H137F H 0.7691 0.7124 0.4322
O2F O 0.6482(7) 0.7042(8) 0.4824(6)
P1F P 0.69144(13) 0.70356(14) 0.49793(10)
O3F O 0.7038(4) 0.7254(4) 0.5346(2)
C171F C 0.6949(6) 0.7707(4) 0.5418(5)
H138F H 0.7227 0.7815 0.5498
H139F H 0.6816 0.7668 0.5625
C172F C 0.675(2) 0.8144(15) 0.529(2)
H140F H 0.6455 0.8095 0.5220
H141F H 0.6876 0.8245 0.5090
H142F H 0.6784 0.8370 0.5462
C173F C 0.7118(3) 0.6469(3) 0.5092(3)
C174F C 0.7578(3) 0.6512(5) 0.5202(3)
loop_
_geom_bond_atom_site_label_1
_geom_bond_atom_site_label_2
_geom_bond_site_symmetry_1
_geom_bond_site_symmetry_2
Co1 N1 1_555 1_555
Co2 N4 1_555 1_555
Co3 N10 1_555 1_555
Co4 N16 1_555 1_555
N1 C1 1_555 1_555
C1 C2 1_555 1_555
C2 H1 1_555 1_555
C3 C2 1_555 1_555
H2 C3 1_555 1_555
C4 C3 1_555 1_555
H3 C4 1_555 1_555
C5 N1 1_555 1_555
H4 C5 1_555 1_555
N2 Co1 1_555 1_555
N3 N2 1_555 1_555
C6 N3 1_555 1_555
H5 C6 1_555 1_555
C7 C6 1_555 1_555
H6 C7 1_555 1_555
C8 C1 1_555 1_555
C9 N3 1_555 1_555
H7 C9 1_555 1_555
H8 C9 1_555 1_555
N4 C10 1_555 1_555
C10 C11 1_555 1_555
C11 H9 1_555 1_555
C12 C11 1_555 1_555
H10 C12 1_555 1_555
C13 C12 1_555 1_555
H11 C13 1_555 1_555
C14 N4 1_555 1_555
H12 C14 1_555 1_555
N5 Co2 1_555 1_555
N6 N5 1_555 1_555
C15 N6 1_555 1_555
H13 C15 1_555 1_555
C16 C15 1_555 1_555
H14 C16 1_555 1_555
C17 C10 1_555 1_555
C18 N6 1_555 1_555
H15 C18 1_555 1_555
H16 C18 1_555 1_555
C19 C9 1_555 1_555
C20 C19 1_555 1_555
H17 C20 1_555 1_555
C21 C20 1_555 1_555
H18 C21 1_555 1_555
C22 C21 1_555 1_555
H19 C22 1_555 1_555
C23 C22 1_555 1_555
C24 C19 1_555 1_555
C25 C24 1_555 1_555
H20 C25 1_555 1_555
C26 C25 1_555 1_555
H21 C26 1_555 1_555
C27 C26 1_555 1_555
H22 C27 1_555 1_555
C28 C18 1_555 1_555
N7 Co1 1_555 1_555
C29 N7 1_555 1_555
C30 C29 1_555 1_555
H23 C30 1_555 1_555
C31 C30 1_555 1_555
H24 C31 1_555 1_555
C32 C31 1_555 1_555
H25 C32 1_555 1_555
C33 N7 1_555 1_555
H26 C33 1_555 1_555
N8 Co1 1_555 1_555
N9 N8 1_555 1_555
C34 N9 1_555 1_555
H27 C34 1_555 1_555
C35 C34 1_555 1_555
H28 C35 1_555 1_555
C36 C29 1_555 1_555
C37 N9 1_555 1_555
H29 C37 1_555 1_555
H30 C37 1_555 1_555
N10 C38 1_555 1_555
C38 C39 1_555 1_555
C39 H31 1_555 1_555
C40 C39 1_555 1_555
H32 C40 1_555 1_555
C41 C40 1_555 1_555
H33 C41 1_555 1_555
C42 N10 1_555 1_555
H34 C42 1_555 1_555
N11 Co3 1_555 1_555
N12 N11 1_555 1_555
C43 N12 1_555 1_555
H35 C43 1_555 1_555
C44 C43 1_555 1_555
H36 C44 1_555 1_555
C45 C38 1_555 1_555
C46 N12 1_555 1_555
H37 C46 1_555 1_555
H38 C46 1_555 1_555
C47 C37 1_555 1_555
C48 C47 1_555 1_555
H39 C48 1_555 1_555
C49 C48 1_555 1_555
H40 C49 1_555 1_555
C50 C49 1_555 1_555
H41 C50 1_555 1_555
C51 C50 1_555 1_555
C52 C47 1_555 1_555
C53 C52 1_555 1_555
H42 C53 1_555 1_555
C54 C53 1_555 1_555
H43 C54 1_555 1_555
C55 C54 1_555 1_555
H44 C55 1_555 1_555
C56 C46 1_555 1_555
N13 Co1 1_555 1_555
C57 N13 1_555 1_555
C58 C57 1_555 1_555
H45 C58 1_555 1_555
C59 C58 1_555 1_555
H46 C59 1_555 1_555
C60 C59 1_555 1_555
H47 C60 1_555 1_555
C61 N13 1_555 1_555
H48 C61 1_555 1_555
N14 Co1 1_555 1_555
N15 N14 1_555 1_555
C62 N15 1_555 1_555
H49 C62 1_555 1_555
C63 C62 1_555 1_555
H50 C63 1_555 1_555
C64 C57 1_555 1_555
C65 N15 1_555 1_555
H51 C65 1_555 1_555
H52 C65 1_555 1_555
N16 C66 1_555 1_555
C66 C67 1_555 1_555
C67 H53 1_555 1_555
C68 C67 1_555 1_555
H54 C68 1_555 1_555
C69 C68 1_555 1_555
H55 C69 1_555 1_555
C70 N16 1_555 1_555
H56 C70 1_555 1_555
N17 Co4 1_555 1_555
N18 N17 1_555 1_555
C71 N18 1_555 1_555
H57 C71 1_555 1_555
C72 C71 1_555 1_555
H58 C72 1_555 1_555
C73 C66 1_555 1_555
C74 N18 1_555 1_555
H59 C74 1_555 1_555
H60 C74 1_555 1_555
C75 C65 1_555 1_555
C76 C75 1_555 1_555
H61 C76 1_555 1_555
C77 C76 1_555 1_555
H62 C77 1_555 1_555
C78 C77 1_555 1_555
H63 C78 1_555 1_555
C79 C78 1_555 1_555
C80 C75 1_555 1_555
C81 C80 1_555 1_555
H64 C81 1_555 1_555
C82 C81 1_555 1_555
H65 C82 1_555 1_555
C83 C82 1_555 1_555
H66 C83 1_555 1_555
C84 C74 1_555 1_555
N19 Co2 1_555 1_555
C85 N19 1_555 1_555
C86 C85 1_555 1_555
H67 C86 1_555 1_555
C87 C86 1_555 1_555
H68 C87 1_555 1_555
C88 C87 1_555 1_555
H69 C88 1_555 1_555
C89 N19 1_555 1_555
H70 C89 1_555 1_555
N20 Co2 1_555 1_555
N21 N20 1_555 1_555
C90 N21 1_555 1_555
H71 C90 1_555 1_555
C91 C90 1_555 1_555
H72 C91 1_555 1_555
C92 C85 1_555 1_555
C93 N21 1_555 1_555
H73 C93 1_555 1_555
H74 C93 1_555 1_555
N22 C94 1_555 1_555
C94 C95 1_555 1_555
C95 H75 1_555 1_555
C96 C95 1_555 1_555
H76 C96 1_555 1_555
C97 C96 1_555 1_555
H77 C97 1_555 1_555
C98 N22 1_555 1_555
H78 C98 1_555 1_555
N23 N24 1_555 1_555
N24 C99 1_555 1_555
C99 H79 1_555 1_555
C100 C99 1_555 1_555
H80 C100 1_555 1_555
C101 C94 1_555 1_555
C102 N24 1_555 1_555
H81 C102 1_555 1_555
H82 C102 1_555 1_555
C103 C93 1_555 1_555
C104 C103 1_555 1_555
H83 C104 1_555 1_555
C105 C104 1_555 1_555
H84 C105 1_555 1_555
C106 C105 1_555 1_555
H85 C106 1_555 1_555
C107 C106 1_555 1_555
C108 C103 1_555 1_555
C109 C108 1_555 1_555
H86 C109 1_555 1_555
C110 C109 1_555 1_555
H87 C110 1_555 1_555
C111 C110 1_555 1_555
H88 C111 1_555 1_555
C112 C102 1_555 1_555
N25 Co2 1_555 1_555
C113 N25 1_555 1_555
C114 C113 1_555 1_555
H89 C114 1_555 1_555
C115 C114 1_555 1_555
H90 C115 1_555 1_555
C116 C115 1_555 1_555
H91 C116 1_555 1_555
C117 N25 1_555 1_555
H92 C117 1_555 1_555
N26 Co2 1_555 1_555
N27 N26 1_555 1_555
C118 N27 1_555 1_555
H93 C118 1_555 1_555
C119 C118 1_555 1_555
H94 C119 1_555 1_555
C120 C113 1_555 1_555
C121 N27 1_555 1_555
H95 C121 1_555 1_555
H96 C121 1_555 1_555
N28 C122 1_555 1_555
C122 C123 1_555 1_555
C123 H97 1_555 1_555
C124 C123 1_555 1_555
H98 C124 1_555 1_555
C125 C124 1_555 1_555
H99 C125 1_555 1_555
C126 N28 1_555 1_555
H100 C126 1_555 1_555
N29 N30 1_555 1_555
N30 C127 1_555 1_555
C127 H101 1_555 1_555
C128 C127 1_555 1_555
H102 C128 1_555 1_555
C129 C122 1_555 1_555
C130 N30 1_555 1_555
H103 C130 1_555 1_555
H104 C130 1_555 1_555
C131 C121 1_555 1_555
C132 C131 1_555 1_555
H105 C132 1_555 1_555
C133 C132 1_555 1_555
H106 C133 1_555 1_555
C134 C133 1_555 1_555
H107 C134 1_555 1_555
C135 C134 1_555 1_555
C136 C131 1_555 1_555
C137 C136 1_555 1_555
H108 C137 1_555 1_555
C138 C137 1_555 1_555
H109 C138 1_555 1_555
C139 C138 1_555 1_555
H110 C139 1_555 1_555
C140 C130 1_555 1_555
N31 Co3 1_555 1_555
C141 N31 1_555 1_555
C142 C141 1_555 1_555
H111 C142 1_555 1_555
C143 C142 1_555 1_555
H112 C143 1_555 1_555
C144 C143 1_555 1_555
H113 C144 1_555 1_555
C145 N31 1_555 1_555
H114 C145 1_555 1_555
N32 Co3 1_555 1_555
N33 N32 1_555 1_555
C146 N33 1_555 1_555
H115 C146 1_555 1_555
C147 C146 1_555 1_555
H116 C147 1_555 1_555
C148 C141 1_555 1_555
C149 N33 1_555 1_555
H117 C149 1_555 1_555
H118 C149 1_555 1_555
N34 C150 1_555 1_555
C150 C151 1_555 1_555
C151 H119 1_555 1_555
C152 C151 1_555 1_555
H120 C152 1_555 1_555
C153 C152 1_555 1_555
H121 C153 1_555 1_555
C154 N34 1_555 1_555
H122 C154 1_555 1_555
N35 N36 1_555 1_555
N36 C155 1_555 1_555
C155 H123 1_555 1_555
C156 C155 1_555 1_555
H124 C156 1_555 1_555
C157 C150 1_555 1_555
C158 N36 1_555 1_555
H125 C158 1_555 1_555
H126 C158 1_555 1_555
C159 C149 1_555 1_555
C160 C159 1_555 1_555
H127 C160 1_555 1_555
C161 C160 1_555 1_555
H128 C161 1_555 1_555
C162 C161 1_555 1_555
H129 C162 1_555 1_555
C163 C162 1_555 1_555
C164 C159 1_555 1_555
C165 C164 1_555 1_555
H130 C165 1_555 1_555
C166 C165 1_555 1_555
H131 C166 1_555 1_555
C167 C166 1_555 1_555
H132 C167 1_555 1_555
C168 C158 1_555 1_555
B1 F1 1_555 1_555
F2 B1 1_555 1_555
F3 B1 1_555 1_555
F4 B1 1_555 1_555
B2 F5 1_555 1_555
F6 B2 1_555 1_555
F7 B2 1_555 1_555
F8 B2 1_555 1_555
B3 F9 1_555 1_555
F10 B3 1_555 1_555
F11 B3 1_555 1_555
F12 B3 1_555 1_555
B4 F13 1_555 1_555
F14 B4 1_555 1_555
F15 B4 1_555 1_555
F16 B4 1_555 1_555
B5 F17 1_555 1_555
F18 B5 1_555 1_555
F19 B5 1_555 1_555
F20 B5 1_555 1_555
B6 F21 1_555 1_555
F22 B6 1_555 1_555
F23 B6 1_555 1_555
F24 B6 1_555 1_555
O1 C169 1_555 1_555
C169 H133 1_555 1_555
H134 C169 1_555 1_555
C170 C169 1_555 1_555
H135 C170 1_555 1_555
H136 C170 1_555 1_555
H137 C170 1_555 1_555
O2 P1 1_555 1_555
P1 O1 1_555 1_555
O3 P1 1_555 1_555
C171 O3 1_555 1_555
H138 C171 1_555 1_555
H139 C171 1_555 1_555
C172 C171 1_555 1_555
H140 C172 1_555 1_555
H141 C172 1_555 1_555
H142 C172 1_555 1_555
C173 P1 1_555 1_555
C174 C173 1_555 1_555
Co1F N1F 1_555 1_555
Co2F N4F 1_555 1_555
Co3F N28 1_555 1_555
Co4F N22 1_555 1_555
N1F C1F 1_555 1_555
C1F C2F 1_555 1_555
C2F H1F 1_555 1_555
C3F C2F 1_555 1_555
H2F C3F 1_555 1_555
C4F C3F 1_555 1_555
H3F C4F 1_555 1_555
C5F N1F 1_555 1_555
H4F C5F 1_555 1_555
N2F Co1F 1_555 1_555
N3F N2F 1_555 1_555
C6F N3F 1_555 1_555
H5F C6F 1_555 1_555
C7F C6F 1_555 1_555
H6F C7F 1_555 1_555
C8F C1F 1_555 1_555
C9F N3F 1_555 1_555
H7F C9F 1_555 1_555
H8F C9F 1_555 1_555
N4F C10F 1_555 1_555
C10F C11F 1_555 1_555
C11F H9F 1_555 1_555
C12F C11F 1_555 1_555
H10F C12F 1_555 1_555
C13F C12F 1_555 1_555
H11F C13F 1_555 1_555
C14F N4F 1_555 1_555
H12F C14F 1_555 1_555
N5F Co2F 1_555 1_555
N6F N5F 1_555 1_555
C15F N6F 1_555 1_555
H13F C15F 1_555 1_555
C16F C15F 1_555 1_555
H14F C16F 1_555 1_555
C17F C10F 1_555 1_555
C18F N6F 1_555 1_555
H15F C18F 1_555 1_555
H16F C18F 1_555 1_555
C19F C9F 1_555 1_555
C20F C19F 1_555 1_555
H17F C20F 1_555 1_555
C21F C20F 1_555 1_555
H18F C21F 1_555 1_555
C22F C21F 1_555 1_555
H19F C22F 1_555 1_555
C23F C22F 1_555 1_555
C24F C19F 1_555 1_555
C25F C24F 1_555 1_555
H20F C25F 1_555 1_555
C26F C25F 1_555 1_555
H21F C26F 1_555 1_555
C27F C26F 1_555 1_555
H22F C27F 1_555 1_555
C28F C18F 1_555 1_555
N7F Co1F 1_555 1_555
C29F N7F 1_555 1_555
C30F C29F 1_555 1_555
H23F C30F 1_555 1_555
C31F C30F 1_555 1_555
H24F C31F 1_555 1_555
C32F C31F 1_555 1_555
H25F C32F 1_555 1_555
C33F N7F 1_555 1_555
H26F C33F 1_555 1_555
N8F Co1F 1_555 1_555
N9F N8F 1_555 1_555
C34F N9F 1_555 1_555
H27F C34F 1_555 1_555
C35F C34F 1_555 1_555
H28F C35F 1_555 1_555
C36F C29F 1_555 1_555
C37F N9F 1_555 1_555
H29F C37F 1_555 1_555
H30F C37F 1_555 1_555
N10F Co3F 1_555 1_555
C38F N10F 1_555 1_555
C39F C38F 1_555 1_555
H31F C39F 1_555 1_555
C40F C39F 1_555 1_555
H32F C40F 1_555 1_555
C41F C40F 1_555 1_555
H33F C41F 1_555 1_555
C42F N10F 1_555 1_555
H34F C42F 1_555 1_555
N11F Co3F 1_555 1_555
N12F N11F 1_555 1_555
C43F N12F 1_555 1_555
H35F C43F 1_555 1_555
C44F C43F 1_555 1_555
H36F C44F 1_555 1_555
C45F C38F 1_555 1_555
C46F N12F 1_555 1_555
H37F C46F 1_555 1_555
H38F C46F 1_555 1_555
C47F C37F 1_555 1_555
C48F C47F 1_555 1_555
H39F C48F 1_555 1_555
C49F C48F 1_555 1_555
H40F C49F 1_555 1_555
C50F C49F 1_555 1_555
H41F C50F 1_555 1_555
C51F C50F 1_555 1_555
C52F C47F 1_555 1_555
C53F C52F 1_555 1_555
H42F C53F 1_555 1_555
C54F C53F 1_555 1_555
H43F C54F 1_555 1_555
C55F C54F 1_555 1_555
H44F C55F 1_555 1_555
C56F C46F 1_555 1_555
N13F Co1F 1_555 1_555
C57F N13F 1_555 1_555
C58F C57F 1_555 1_555
H45F C58F 1_555 1_555
C59F C58F 1_555 1_555
H46F C59F 1_555 1_555
C60F C59F 1_555 1_555
H47F C60F 1_555 1_555
C61F N13F 1_555 1_555
H48F C61F 1_555 1_555
N14F Co1F 1_555 1_555
N15F N14F 1_555 1_555
C62F N15F 1_555 1_555
H49F C62F 1_555 1_555
C63F C62F 1_555 1_555
H50F C63F 1_555 1_555
C64F C57F 1_555 1_555
C65F N15F 1_555 1_555
H51F C65F 1_555 1_555
H52F C65F 1_555 1_555
N16F Co4F 1_555 1_555
C66F N16F 1_555 1_555
C67F C66F 1_555 1_555
H53F C67F 1_555 1_555
C68F C67F 1_555 1_555
H54F C68F 1_555 1_555
C69F C68F 1_555 1_555
H55F C69F 1_555 1_555
C70F N16F 1_555 1_555
H56F C70F 1_555 1_555
N17F Co4F 1_555 1_555
N18F N17F 1_555 1_555
C71F N18F 1_555 1_555
H57F C71F 1_555 1_555
C72F C71F 1_555 1_555
H58F C72F 1_555 1_555
C73F C66F 1_555 1_555
C74F N18F 1_555 1_555
H59F C74F 1_555 1_555
H60F C74F 1_555 1_555
C75F C65F 1_555 1_555
C76F C75F 1_555 1_555
H61F C76F 1_555 1_555
C77F C76F 1_555 1_555
H62F C77F 1_555 1_555
C78F C77F 1_555 1_555
H63F C78F 1_555 1_555
C79F C78F 1_555 1_555
C80F C75F 1_555 1_555
C81F C80F 1_555 1_555
H64F C81F 1_555 1_555
C82F C81F 1_555 1_555
H65F C82F 1_555 1_555
C83F C82F 1_555 1_555
H66F C83F 1_555 1_555
C84F C74F 1_555 1_555
N19F Co2F 1_555 1_555
C85F N19F 1_555 1_555
C86F C85F 1_555 1_555
H67F C86F 1_555 1_555
C87F C86F 1_555 1_555
H68F C87F 1_555 1_555
C88F C87F 1_555 1_555
H69F C88F 1_555 1_555
C89F N19F 1_555 1_555
H70F C89F 1_555 1_555
N20F Co2F 1_555 1_555
N21F N20F 1_555 1_555
C90F N21F 1_555 1_555
H71F C90F 1_555 1_555
C91F C90F 1_555 1_555
H72F C91F 1_555 1_555
C92F C85F 1_555 1_555
C93F N21F 1_555 1_555
H73F C93F 1_555 1_555
H74F C93F 1_555 1_555
N22F Co4 1_555 1_555
C94F N22F 1_555 1_555
C95F C94F 1_555 1_555
H75F C95F 1_555 1_555
C96F C95F 1_555 1_555
H76F C96F 1_555 1_555
C97F C96F 1_555 1_555
H77F C97F 1_555 1_555
C98F N22F 1_555 1_555
H78F C98F 1_555 1_555
N23F Co4 1_555 1_555
N24F N23F 1_555 1_555
C99F N24F 1_555 1_555
H79F C99F 1_555 1_555
C100F C99F 1_555 1_555
H80F C100F 1_555 1_555
C101F C94F 1_555 1_555
C102F N24F 1_555 1_555
H81F C102F 1_555 1_555
H82F C102F 1_555 1_555
C103F C93F 1_555 1_555
C104F C103F 1_555 1_555
H83F C104F 1_555 1_555
C105F C104F 1_555 1_555
H84F C105F 1_555 1_555
C106F C105F 1_555 1_555
H85F C106F 1_555 1_555
C107F C106F 1_555 1_555
C108F C103F 1_555 1_555
C109F C108F 1_555 1_555
H86F C109F 1_555 1_555
C110F C109F 1_555 1_555
H87F C110F 1_555 1_555
C111F C110F 1_555 1_555
H88F C111F 1_555 1_555
C112F C102F 1_555 1_555
N25F Co2F 1_555 1_555
C113F N25F 1_555 1_555
C114F C113F 1_555 1_555
H89F C114F 1_555 1_555
C115F C114F 1_555 1_555
H90F C115F 1_555 1_555
C116F C115F 1_555 1_555
H91F C116F 1_555 1_555
C117F N25F 1_555 1_555
H92F C117F 1_555 1_555
N26F Co2F 1_555 1_555
N27F N26F 1_555 1_555
C118F N27F 1_555 1_555
H93F C118F 1_555 1_555
C119F C118F 1_555 1_555
H94F C119F 1_555 1_555
C120F C113F 1_555 1_555
C121F N27F 1_555 1_555
H95F C121F 1_555 1_555
H96F C121F 1_555 1_555
N28F Co3 1_555 1_555
C122F N28F 1_555 1_555
C123F C122F 1_555 1_555
H97F C123F 1_555 1_555
C124F C123F 1_555 1_555
H98F C124F 1_555 1_555
C125F C124F 1_555 1_555
H99F C125F 1_555 1_555
C126F N28F 1_555 1_555
H100F C126F 1_555 1_555
N29F Co3 1_555 1_555
N30F N29F 1_555 1_555
C127F N30F 1_555 1_555
H101F C127F 1_555 1_555
C128F C127F 1_555 1_555
H102F C128F 1_555 1_555
C129F C122F 1_555 1_555
C130F N30F 1_555 1_555
H103F C130F 1_555 1_555
H104F C130F 1_555 1_555
C131F C121F 1_555 1_555
C132F C131F 1_555 1_555
H105F C132F 1_555 1_555
C133F C132F 1_555 1_555
H106F C133F 1_555 1_555
C134F C133F 1_555 1_555
H107F C134F 1_555 1_555
C135F C134F 1_555 1_555
C136F C131F 1_555 1_555
C137F C136F 1_555 1_555
H108F C137F 1_555 1_555
C138F C137F 1_555 1_555
H109F C138F 1_555 1_555
C139F C138F 1_555 1_555
H110F C139F 1_555 1_555
C140F C130F 1_555 1_555
N31F Co3F 1_555 1_555
C141F N31F 1_555 1_555
C142F C141F 1_555 1_555
H111F C142F 1_555 1_555
C143F C142F 1_555 1_555
H112F C143F 1_555 1_555
C144F C143F 1_555 1_555
H113F C144F 1_555 1_555
C145F N31F 1_555 1_555
H114F C145F 1_555 1_555
N32F Co3F 1_555 1_555
N33F N32F 1_555 1_555
C146F N33F 1_555 1_555
H115F C146F 1_555 1_555
C147F C146F 1_555 1_555
H116F C147F 1_555 1_555
C148F C141F 1_555 1_555
C149F N33F 1_555 1_555
H117F C149F 1_555 1_555
H118F C149F 1_555 1_555
N34F Co4 1_555 1_555
C150F N34F 1_555 1_555
C151F C150F 1_555 1_555
H119F C151F 1_555 1_555
C152F C151F 1_555 1_555
H120F C152F 1_555 1_555
C153F C152F 1_555 1_555
H121F C153F 1_555 1_555
C154F N34F 1_555 1_555
H122F C154F 1_555 1_555
N35F Co4 1_555 1_555
N36F N35F 1_555 1_555
C155F N36F 1_555 1_555
H123F C155F 1_555 1_555
C156F C155F 1_555 1_555
H124F C156F 1_555 1_555
C157F C150F 1_555 1_555
C158F N36F 1_555 1_555
H125F C158F 1_555 1_555
H126F C158F 1_555 1_555
C159F C149F 1_555 1_555
C160F C159F 1_555 1_555
H127F C160F 1_555 1_555
C161F C160F 1_555 1_555
H128F C161F 1_555 1_555
C162F C161F 1_555 1_555
H129F C162F 1_555 1_555
C163F C162F 1_555 1_555
C164F C159F 1_555 1_555
C165F C164F 1_555 1_555
H130F C165F 1_555 1_555
C166F C165F 1_555 1_555
H131F C166F 1_555 1_555
C167F C166F 1_555 1_555
H132F C167F 1_555 1_555
C168F C158F 1_555 1_555
O1F C169F 1_555 1_555
C169F H133F 1_555 1_555
H134F C169F 1_555 1_555
C170F C169F 1_555 1_555
H135F C170F 1_555 1_555
H136F C170F 1_555 1_555
H137F C170F 1_555 1_555
O2F P1F 1_555 1_555
P1F O1F 1_555 1_555
O3F P1F 1_555 1_555
C171F O3F 1_555 1_555
H138F C171F 1_555 1_555
H139F C171F 1_555 1_555
C172F C171F 1_555 1_555
H140F C172F 1_555 1_555
H141F C172F 1_555 1_555
H142F C172F 1_555 1_555
C173F P1F 1_555 1_555
C174F C173F 1_555 1_555
C4 C5 1_555 1_555
N2 C8 1_555 1_555
C7 C8 1_555 1_555
C13 C14 1_555 1_555
N5 C17 1_555 1_555
C16 C17 1_555 1_555
C23 C24 1_555 1_555
C23 C28 1_555 1_555
C27 C28 1_555 1_555
C32 C33 1_555 1_555
N8 C36 1_555 1_555
C35 C36 1_555 1_555
C41 C42 1_555 1_555
N11 C45 1_555 1_555
C44 C45 1_555 1_555
C51 C52 1_555 1_555
C51 C56 1_555 1_555
C55 C56 1_555 1_555
C60 C61 1_555 1_555
N14 C64 1_555 1_555
C63 C64 1_555 1_555
C69 C70 1_555 1_555
N17 C73 1_555 1_555
C72 C73 1_555 1_555
C79 C80 1_555 1_555
C79 C84 1_555 1_555
C83 C84 1_555 1_555
C88 C89 1_555 1_555
N20 C92 1_555 1_555
C91 C92 1_555 1_555
C97 C98 1_555 1_555
N23 C101 1_555 1_555
N23 Co4F 1_555 1_555
C100 C101 1_555 1_555
C107 C108 1_555 1_555
C107 C112 1_555 1_555
C111 C112 1_555 1_555
C116 C117 1_555 1_555
N26 C120 1_555 1_555
C119 C120 1_555 1_555
C125 C126 1_555 1_555
N29 C129 1_555 1_555
N29 Co3F 1_555 1_555
C128 C129 1_555 1_555
C135 C136 1_555 1_555
C135 C140 1_555 1_555
C139 C140 1_555 1_555
C144 C145 1_555 1_555
N32 C148 1_555 1_555
C147 C148 1_555 1_555
N34 Co4F 1_555 1_555
C153 C154 1_555 1_555
N35 C157 1_555 1_555
N35 Co4F 1_555 1_555
C156 C157 1_555 1_555
C163 C164 1_555 1_555
C163 C168 1_555 1_555
C167 C168 1_555 1_555
C4F C5F 1_555 1_555
N2F C8F 1_555 1_555
C7F C8F 1_555 1_555
C13F C14F 1_555 1_555
N5F C17F 1_555 1_555
C16F C17F 1_555 1_555
C23F C24F 1_555 1_555
C23F C28F 1_555 1_555
C27F C28F 1_555 1_555
C32F C33F 1_555 1_555
N8F C36F 1_555 1_555
C35F C36F 1_555 1_555
C41F C42F 1_555 1_555
N11F C45F 1_555 1_555
C44F C45F 1_555 1_555
C51F C52F 1_555 1_555
C51F C56F 1_555 1_555
C55F C56F 1_555 1_555
C60F C61F 1_555 1_555
N14F C64F 1_555 1_555
C63F C64F 1_555 1_555
C69F C70F 1_555 1_555
N17F C73F 1_555 1_555
C72F C73F 1_555 1_555
C79F C80F 1_555 1_555
C79F C84F 1_555 1_555
C83F C84F 1_555 1_555
C88F C89F 1_555 1_555
N20F C92F 1_555 1_555
C91F C92F 1_555 1_555
C97F C98F 1_555 1_555
N23F C101F 1_555 1_555
C100F C101F 1_555 1_555
C107F C108F 1_555 1_555
C107F C112F 1_555 1_555
C111F C112F 1_555 1_555
C116F C117F 1_555 1_555
N26F C120F 1_555 1_555
C119F C120F 1_555 1_555
C125F C126F 1_555 1_555
N29F C129F 1_555 1_555
C128F C129F 1_555 1_555
C135F C136F 1_555 1_555
C135F C140F 1_555 1_555
C139F C140F 1_555 1_555
C144F C145F 1_555 1_555
N32F C148F 1_555 1_555
C147F C148F 1_555 1_555
C153F C154F 1_555 1_555
N35F C157F 1_555 1_555
C156F C157F 1_555 1_555
C163F C164F 1_555 1_555
C163F C168F 1_555 1_555
C167F C168F 1_555 1_555

#END
